data_functionalizedCrystal
_audit_creation_method	'MofGen! by Chris Wilmer'
_symmetry_space_group_name_H-M	'P1'
_symmetry_Int_Tables_number	1
_symmetry_cell_setting	triclinic
loop_
_symmetry_equiv_pos_as_xyz
  x,y,z
_cell_length_a	14.586319
_cell_length_b	19.288864
_cell_length_c	16.109296
_cell_angle_alpha	83.297911
_cell_angle_beta	90.002940
_cell_angle_gamma	89.982652
loop_
_atom_site_label
_atom_site_type_symbol
_atom_site_fract_x
_atom_site_fract_y
_atom_site_fract_z
O1	O	0.076521	-0.921594	-0.103714
O2	O	0.409854	-0.588260	0.229619
O3	O	0.743188	-0.254927	0.562953
O4	O	0.076456	-0.719366	-0.117705
O5	O	0.409790	-0.386033	0.215628
O6	O	0.743123	-0.052699	0.548962
O7	O	0.076500	-0.826037	0.010341
O8	O	0.409833	-0.492704	0.343674
O9	O	0.743167	-0.159370	0.677007
O10	O	0.076477	-0.814923	-0.231760
O11	O	0.409811	-0.481589	0.101574
O12	O	0.743144	-0.148256	0.434907
O13	O	-0.075981	-0.826029	0.010343
O14	O	0.257353	-0.492696	0.343676
O15	O	0.590686	-0.159363	0.677009
O16	O	-0.076024	-0.719359	-0.117703
O17	O	0.257309	-0.386025	0.215630
O18	O	0.590642	-0.052692	0.548964
O19	O	-0.075960	-0.921586	-0.103712
O20	O	0.257374	-0.588253	0.229621
O21	O	0.590707	-0.254919	0.562955
Cu22	Cu	-0.089915	-0.820472	-0.110707
Cu23	Cu	0.243419	-0.487138	0.222626
Cu24	Cu	0.576752	-0.153805	0.555959
Cu25	Cu	0.090411	-0.820481	-0.110710
Cu26	Cu	0.423745	-0.487147	0.222624
Cu27	Cu	0.757078	-0.153814	0.555957
O28	O	-0.076003	-0.814915	-0.231758
O29	O	0.257330	-0.481582	0.101575
O30	O	0.590663	-0.148249	0.434909
C31	C	0.000208	-0.693485	-0.117254
C32	C	0.333541	-0.360152	0.216079
C33	C	0.666875	-0.026818	0.549413
C34	C	0.000184	-0.616378	-0.115902
C35	C	0.333518	-0.283045	0.217431
C36	C	0.666851	0.050289	0.550764
N37	N	-0.216747	-0.820471	-0.110705
N38	N	0.116587	-0.487137	0.222628
N39	N	0.449920	-0.153804	0.555961
C40	C	0.000264	-0.825584	0.041315
C41	C	0.333597	-0.492250	0.374648
C42	C	0.666931	-0.158917	0.707982
C43	C	0.000277	-0.824236	0.133606
C44	C	0.333610	-0.490902	0.466939
C45	C	0.666943	-0.157569	0.800273
C46	C	-0.451734	-0.867720	-0.054026
C47	C	-0.118400	-0.534387	0.279308
C48	C	0.214933	-0.201053	0.612641
C49	C	-0.547715	-0.867722	-0.054024
C50	C	-0.214382	-0.534389	0.279310
C51	C	0.118952	-0.201055	0.612643
C52	C	-0.547763	-0.773233	-0.167388
C53	C	-0.214430	-0.439899	0.165946
C54	C	0.118904	-0.106566	0.499279
C55	C	-0.451783	-0.773228	-0.167385
C56	C	-0.118450	-0.439895	0.165948
C57	C	0.214883	-0.106561	0.499282
C58	C	-0.403771	-0.820475	-0.110705
C59	C	-0.070438	-0.487142	0.222628
C60	C	0.262895	-0.153809	0.555962
C61	C	-0.595732	-0.820482	-0.110705
C62	C	-0.262399	-0.487149	0.222628
C63	C	0.070935	-0.153816	0.555961
C64	C	-0.699799	-0.820484	-0.110704
C65	C	-0.366466	-0.487151	0.222630
C66	C	-0.033133	-0.153817	0.555963
C67	C	-0.299698	-0.820473	-0.110705
C68	C	0.033636	-0.487140	0.222628
C69	C	0.366969	-0.153806	0.555961
N70	N	0.217243	-0.820487	-0.110705
N71	N	0.550577	-0.487154	0.222628
N72	N	0.883910	-0.153820	0.555962
C73	C	0.000291	-0.947467	-0.104163
C74	C	0.333624	-0.614134	0.229170
C75	C	0.666957	-0.280801	0.562504
C76	C	0.000320	-1.024574	-0.105515
C77	C	0.333654	-0.691241	0.227819
C78	C	0.666987	-0.357907	0.561152
C79	C	0.000192	-0.571860	-0.191034
C80	C	0.333525	-0.238527	0.142299
C81	C	0.666858	0.094807	0.475633
C82	C	0.000202	-0.499410	-0.189764
C83	C	0.333535	-0.166077	0.143569
C84	C	0.666868	0.167257	0.476902
C85	C	0.000223	-0.471481	-0.113359
C86	C	0.333556	-0.138148	0.219974
C87	C	0.666890	0.195186	0.553308
C88	C	0.000211	-0.516009	-0.038218
C89	C	0.333544	-0.182676	0.295116
C90	C	0.666877	0.150658	0.628449
C91	C	0.000191	-0.588457	-0.039489
C92	C	0.333524	-0.255124	0.293844
C93	C	0.666858	0.078209	0.627177
C94	C	0.053680	-0.363079	-0.053297
C95	C	0.387014	-0.029746	0.280037
C96	C	0.720347	0.303587	0.613370
C97	C	0.053705	-0.290632	-0.052028
C98	C	0.387039	0.042702	0.281305
C99	C	0.720372	0.376035	0.614639
C100	C	0.000279	-0.248026	-0.109433
C101	C	0.333612	0.085307	0.223900
C102	C	0.666946	0.418640	0.557233
C103	C	-0.053161	-0.277876	-0.168122
C104	C	0.280173	0.055458	0.165212
C105	C	0.613506	0.388791	0.498545
C106	C	-0.053180	-0.350324	-0.169393
C107	C	0.280153	-0.016991	0.163940
C108	C	0.613486	0.316343	0.497273
C109	C	0.000244	-0.392924	-0.111972
C110	C	0.333577	-0.059591	0.221362
C111	C	0.666910	0.273743	0.554695
C112	C	0.000296	-0.124949	-0.183193
C113	C	0.333629	0.208384	0.150140
C114	C	0.666963	0.541718	0.483473
C115	C	0.000301	-0.052498	-0.181921
C116	C	0.333634	0.280835	0.151413
C117	C	0.666967	0.614169	0.484746
C118	C	0.000319	-0.069099	-0.030372
C119	C	0.333652	0.264235	0.302962
C120	C	0.666985	0.597568	0.636295
C121	C	0.000305	-0.141548	-0.031647
C122	C	0.333638	0.191785	0.301687
C123	C	0.666972	0.525119	0.635020
C124	C	0.000298	-0.169469	-0.108060
C125	C	0.333631	0.163865	0.225274
C126	C	0.666965	0.497198	0.558607
C127	C	0.083381	-0.819840	0.432659
C128	C	0.416714	-0.486507	0.765992
C129	C	0.750048	-0.153174	1.099326
C130	C	0.083386	-0.821116	0.345943
C131	C	0.416719	-0.487783	0.679277
C132	C	0.750052	-0.154450	1.012610
C133	C	-0.082857	-0.821118	0.345931
C134	C	0.250476	-0.487785	0.679264
C135	C	0.583810	-0.154452	1.012598
C136	C	-0.082861	-0.819847	0.432646
C137	C	0.250472	-0.486514	0.765979
C138	C	0.583806	-0.153181	1.099313
C139	C	0.000261	-0.819205	0.476007
C140	C	0.333594	-0.485871	0.809340
C141	C	0.666928	-0.152538	1.142674
C142	C	0.000269	-0.821752	0.302577
C143	C	0.333603	-0.488419	0.635910
C144	C	0.666936	-0.155085	0.969243
C145	C	0.000274	-0.823136	0.208556
C146	C	0.333607	-0.489802	0.541889
C147	C	0.666941	-0.156469	0.875222
C148	C	0.000257	-0.817822	0.570034
C149	C	0.333590	-0.484489	0.903367
C150	C	0.666924	-0.151156	1.236701
C151	C	0.000241	-0.815370	0.737268
C152	C	0.333574	-0.482036	1.070601
C153	C	0.666908	-0.148703	1.403935
C154	C	0.000254	-0.816721	0.644978
C155	C	0.333587	-0.483388	0.978311
C156	C	0.666920	-0.150055	1.311644
H157	H	-0.412644	-0.906191	-0.007872
H158	H	-0.079311	-0.572858	0.325461
H159	H	0.254022	-0.239524	0.658795
F160	F	-0.171316	-0.821799	0.299775
F161	F	0.162017	-0.488466	0.633109
F162	F	0.495350	-0.155132	0.966442
F163	F	-0.171333	-0.819174	0.478783
F164	F	0.162000	-0.485841	0.812117
F165	F	0.495333	-0.152508	1.145450
H166	H	-0.586864	-0.734766	-0.213536
H167	H	-0.253531	-0.401432	0.119797
H168	H	0.079803	-0.068099	0.453130
H169	H	-0.586763	-0.906192	-0.007869
H170	H	-0.253430	-0.572859	0.325464
H171	H	0.079903	-0.239525	0.658798
F172	F	0.000229	-0.486284	0.043098
F173	F	0.333562	-0.152951	0.376432
F174	F	0.666896	0.180382	0.709765
F175	F	0.171854	-0.821795	0.299813
F176	F	0.505187	-0.488462	0.633147
F177	F	0.838520	-0.155128	0.966480
F178	F	-0.400734	-0.722939	-0.227711
F179	F	-0.067401	-0.389605	0.105623
F180	F	0.265932	-0.056272	0.438956
F181	F	0.000181	-0.601571	-0.272360
F182	F	0.333515	-0.268238	0.060973
F183	F	0.666848	0.065096	0.394307
F184	F	0.000207	-0.452022	-0.269733
F185	F	0.333540	-0.118689	0.063601
F186	F	0.666874	0.214645	0.396934
H187	H	-0.096696	-0.374625	-0.217177
H188	H	0.236638	-0.041291	0.116157
H189	H	0.569971	0.292042	0.449490
F190	F	0.110547	-0.408417	0.007807
F191	F	0.443881	-0.075084	0.341140
F192	F	0.777214	0.258250	0.674474
F193	F	-0.110025	-0.232537	-0.229222
F194	F	0.223308	0.100796	0.104111
F195	F	0.556641	0.434129	0.437445
F196	F	0.000282	-0.154667	-0.264518
F197	F	0.333615	0.178667	0.068816
F198	F	0.666948	0.512000	0.402149
F199	F	0.000302	-0.188929	0.048320
F200	F	0.333635	0.144404	0.381653
F201	F	0.666968	0.477737	0.714986
F202	F	0.110588	-0.258870	0.010426
F203	F	0.443922	0.074464	0.343759
F204	F	0.777255	0.407797	0.677092
H205	H	0.000301	-0.016251	-0.243104
H206	H	0.333635	0.317082	0.090229
H207	H	0.666968	0.650415	0.423562
H208	H	0.000393	-0.046360	0.031839
H209	H	0.333726	0.286974	0.365172
H210	H	0.667060	0.620307	0.698506
H211	H	0.151064	-0.819316	0.467961
H212	H	0.484398	-0.485983	0.801294
H213	H	0.817731	-0.152650	1.134628
F214	F	0.000183	-0.635839	0.040479
F215	F	0.333517	-0.302505	0.373813
F216	F	0.666850	0.030828	0.707146
