data_functionalizedCrystal
_audit_creation_method	'MofGen! by Chris Wilmer'
_symmetry_space_group_name_H-M	'P1'
_symmetry_Int_Tables_number	1
_symmetry_cell_setting	triclinic
loop_
_symmetry_equiv_pos_as_xyz
  x,y,z
_cell_length_a	19.077105
_cell_length_b	18.101397
_cell_length_c	19.076919
_cell_angle_alpha	87.731459
_cell_angle_beta	89.923776
_cell_angle_gamma	87.716700
loop_
_atom_site_label
_atom_site_type_symbol
_atom_site_fract_x
_atom_site_fract_y
_atom_site_fract_z
Zn1	Zn	1.058295	-0.358273	0.440399
Zn2	Zn	1.558295	0.141727	0.940399
Zn3	Zn	1.062943	-0.477346	0.322885
Zn4	Zn	1.562943	0.022654	0.822885
Zn5	Zn	0.945512	-0.348352	0.318192
Zn6	Zn	1.445512	0.151648	0.818192
Zn7	Zn	0.940765	-0.476900	0.435638
Zn8	Zn	1.440765	0.023100	0.935638
O9	O	1.001879	-0.415218	0.379279
O10	O	1.501879	0.084782	0.879279
O11	O	1.157243	-0.378407	0.428767
O12	O	1.657243	0.121593	0.928767
O13	O	1.051297	-0.456270	0.223932
O14	O	1.551297	0.043730	0.723932
O15	O	0.960514	-0.246038	0.334432
O16	O	1.460514	0.253962	0.834432
O17	O	1.160658	-0.465890	0.342430
O18	O	1.660658	0.034110	0.842430
O19	O	1.043375	-0.253327	0.424216
O20	O	1.543375	0.246673	0.924216
O21	O	0.965021	-0.361499	0.220484
O22	O	1.465021	0.138501	0.720484
O23	O	0.846550	-0.361066	0.329816
O24	O	1.346550	0.138934	0.829816
O25	O	0.952423	-0.465128	0.534601
O26	O	1.452423	0.034872	1.034601
O27	O	0.843062	-0.455509	0.416102
O28	O	1.343062	0.044491	0.916102
O29	O	1.038772	-0.377974	0.538098
O30	O	1.538772	0.122026	1.038098
O31	O	1.046694	-0.580917	0.337814
O32	O	1.546694	-0.080917	0.837814
O33	O	0.956930	-0.580589	0.420653
O34	O	1.456930	-0.080589	0.920653
C35	C	0.819310	-0.407163	0.371934
C36	C	1.319310	0.092837	0.871934
C37	C	0.741205	-0.403735	0.368808
C38	C	1.241205	0.096265	0.868808
C39	C	1.001820	-0.607624	0.379242
C40	C	1.501820	-0.107624	0.879242
C41	C	1.001858	-0.689940	0.379253
C42	C	1.501858	-0.189940	0.879253
C43	C	0.702717	-0.451365	0.412194
C44	C	1.202717	0.048635	0.912194
C45	C	0.629329	-0.448135	0.409260
C46	C	1.129329	0.051865	0.909260
C47	C	0.594432	-0.397278	0.362937
C48	C	1.094432	0.102722	0.862937
C49	C	0.632925	-0.349643	0.319549
C50	C	1.132925	0.150357	0.819549
C51	C	0.706311	-0.352870	0.322487
C52	C	1.206311	0.147130	0.822487
C53	C	0.375144	-0.382343	0.349345
C54	C	0.875144	0.117657	0.849345
C55	C	0.301752	-0.379121	0.346409
C56	C	0.801752	0.120879	0.846409
C57	C	0.298161	-0.477612	0.436122
C58	C	0.798161	0.022388	0.936122
C59	C	0.371549	-0.480838	0.439052
C60	C	0.871549	0.019162	0.939052
C61	C	0.410036	-0.433200	0.395667
C62	C	0.910036	0.066800	0.895667
N63	N	0.519418	-0.393977	0.359936
N64	N	1.019418	0.106023	0.859936
N65	N	0.485048	-0.436499	0.398672
N66	N	0.985048	0.063501	0.898672
C67	C	1.001945	-0.989038	0.379320
C68	C	1.501945	-0.489038	0.879320
C69	C	1.058277	-0.957876	0.327049
C70	C	1.558277	-0.457876	0.827049
C71	C	1.058458	-0.872271	0.327197
C72	C	1.558458	-0.372271	0.827197
C73	C	1.001902	-0.840652	0.379286
C74	C	1.501902	-0.340652	0.879286
C75	C	1.018998	-0.875550	0.454158
C76	C	1.518998	-0.375550	0.954158
C77	C	1.019429	-0.961201	0.453878
C78	C	1.519429	-0.461201	0.953878
C79	C	0.928348	-0.953502	0.357355
C80	C	1.428348	-0.453502	0.857355
C81	C	0.928782	-0.867801	0.355717
C82	C	1.428782	-0.367801	0.855717
C83	C	1.001876	-0.756791	0.379271
C84	C	1.501876	-0.256791	0.879271
C85	C	1.001972	-1.072899	0.379340
C86	C	1.501972	-0.572899	0.879340
C87	C	1.185160	-0.423305	0.386653
C88	C	1.685160	0.076695	0.886653
C89	C	1.263264	-0.426751	0.389795
C90	C	1.763264	0.073249	0.889795
C91	C	0.994550	-0.422608	0.562558
C92	C	1.494550	0.077392	1.062558
C93	C	0.991426	-0.425757	0.640661
C94	C	1.491426	0.074243	1.140661
C95	C	1.001956	-0.222061	0.379331
C96	C	1.501956	0.277939	0.879331
C97	C	1.001989	-0.139750	0.379354
C98	C	1.501989	0.360250	0.879354
C99	C	1.009219	-0.407805	0.196713
C100	C	1.509219	0.092195	0.696713
C101	C	1.012479	-0.404453	0.118616
C102	C	1.512479	0.095547	0.618616
C103	C	1.034914	-0.381862	0.679176
C104	C	1.534914	0.118138	1.179176
C105	C	1.031971	-0.384818	0.752562
C106	C	1.531971	0.115182	1.252562
C107	C	0.985543	-0.431674	0.787431
C108	C	1.485543	0.068326	1.287431
C109	C	0.942051	-0.475570	0.748911
C110	C	1.442051	0.024430	1.248911
C111	C	0.944991	-0.472610	0.675527
C112	C	1.444991	0.027390	1.175527
C113	C	0.971926	-0.445389	1.006712
C114	C	1.471926	0.054611	1.506712
C115	C	0.968991	-0.448348	1.080102
C116	C	1.468991	0.051652	1.580102
C117	C	1.058911	-0.357594	1.083747
C118	C	1.558911	0.142406	1.583747
C119	C	1.061850	-0.354641	1.010361
C120	C	1.561850	0.145359	1.510361
C121	C	1.018355	-0.398535	0.971847
C122	C	1.518355	0.101465	1.471847
N123	N	0.982535	-0.434698	0.862443
N124	N	1.482535	0.065302	1.362443
N125	N	1.021359	-0.395507	0.896837
N126	N	1.521359	0.104493	1.396837
H127	H	0.731125	-0.492781	0.449913
H128	H	1.231125	0.007219	0.949913
H129	H	0.273341	-0.337699	0.308692
H130	H	0.773341	0.162301	0.808692
H131	H	0.931182	-0.486505	1.108490
H132	H	1.431182	0.013495	1.608490
Cl133	Cl	0.908790	-0.832074	0.270627
Cl134	Cl	1.408790	-0.332074	0.770627
Cl135	Cl	1.042548	-0.985456	0.241233
Cl136	Cl	1.542548	-0.485456	0.741233
H137	H	0.936520	-0.481142	0.975363
H138	H	1.436520	0.018858	1.475363
Cl139	Cl	0.860865	-0.834199	0.409823
Cl140	Cl	1.360865	-0.334199	0.909823
H141	H	0.979094	-0.855198	0.494280
H142	H	1.479094	-0.355198	0.994280
Cl143	Cl	0.589054	-0.285704	0.261319
Cl144	Cl	1.089054	0.214296	0.761319
H145	H	0.737648	-0.314081	0.287161
H146	H	1.237648	0.185919	0.787161
Cl147	Cl	1.042432	-0.835607	0.241637
Cl148	Cl	1.542432	-0.335607	0.741637
Cl149	Cl	1.093287	-0.322959	0.635348
Cl150	Cl	1.593287	0.177041	1.135348
H151	H	0.406471	-0.343559	0.314013
H152	H	0.906471	0.156441	0.814013
Cl153	Cl	1.100962	-0.847027	0.482734
Cl154	Cl	1.600962	-0.347027	0.982734
Cl155	Cl	0.580947	-0.508015	0.463805
Cl156	Cl	1.080947	-0.008015	0.963805
H157	H	1.112558	-0.982260	0.341661
H158	H	1.612558	-0.482260	0.841661
Cl159	Cl	1.142720	-0.845080	0.350005
Cl160	Cl	1.642720	-0.345080	0.850005
Cl161	Cl	0.863603	-0.984534	0.416076
Cl162	Cl	1.363603	-0.484534	0.916076
H163	H	0.912220	-0.972204	0.303550
H164	H	1.412220	-0.472204	0.803550
H165	H	1.067385	-0.349076	0.783918
H166	H	1.567385	0.150924	1.283918
H167	H	0.399958	-0.522253	0.476772
H168	H	0.899958	-0.022253	0.976772
Cl169	Cl	1.120219	-0.295736	0.966531
Cl170	Cl	1.620219	0.204264	1.466531
H171	H	1.073136	-0.984166	0.472138
H172	H	1.573136	-0.484166	0.972138
H173	H	0.266817	-0.516395	0.471444
H174	H	0.766817	-0.016395	0.971444
Cl175	Cl	0.958578	-0.993269	0.516299
Cl176	Cl	1.458578	-0.493269	1.016299
Cl177	Cl	1.113584	-0.302414	1.132169
Cl178	Cl	1.613584	0.197586	1.632169
H179	H	0.904246	-0.513718	0.777308
H180	H	1.404246	-0.013718	1.277308
Cl181	Cl	0.890316	-0.527792	0.627107
Cl182	Cl	1.390316	-0.027792	1.127107
