data_functionalizedCrystal
_audit_creation_method	'MofGen! by Chris Wilmer'
_symmetry_space_group_name_H-M	'P1'
_symmetry_Int_Tables_number	1
_symmetry_cell_setting	triclinic
loop_
_symmetry_equiv_pos_as_xyz
  x,y,z
_cell_length_a	12.759401
_cell_length_b	12.759394
_cell_length_c	12.759393
_cell_angle_alpha	89.967706
_cell_angle_beta	89.981504
_cell_angle_gamma	90.014998
loop_
_atom_site_label
_atom_site_type_symbol
_atom_site_fract_x
_atom_site_fract_y
_atom_site_fract_z
Zn1	Zn	1.606254	-0.418200	-0.593976
Zn2	Zn	1.606148	-0.593919	-0.418294
Zn3	Zn	1.430556	-0.418255	-0.418315
Zn4	Zn	1.430545	-0.593838	-0.593935
O5	O	1.518376	-0.506053	-0.506130
O6	O	1.753261	-0.441520	-0.570679
O7	O	1.582816	-0.570674	-0.271276
O8	O	1.453912	-0.271227	-0.441643
O9	O	1.753183	-0.570620	-0.441607
O10	O	1.582997	-0.271186	-0.570700
O11	O	1.453810	-0.441614	-0.271291
O12	O	1.283534	-0.441536	-0.441604
O13	O	1.453892	-0.570482	-0.740962
O14	O	1.283525	-0.570536	-0.570631
O15	O	1.582986	-0.441442	-0.740992
O16	O	1.582805	-0.740929	-0.441567
O17	O	1.453789	-0.740870	-0.570610
C18	C	1.245409	-0.506034	-0.506116
C19	C	1.128632	-0.506051	-0.506135
C20	C	1.073793	-0.573329	-0.573208
C21	C	0.964069	-0.573342	-0.573219
C22	C	0.964032	-0.438796	-0.439075
C23	C	1.073755	-0.438779	-0.439070
C24	C	1.128670	-0.640601	-0.640273
C25	C	1.073831	-0.707885	-0.707351
C26	C	0.964107	-0.707898	-0.707362
C27	C	0.909222	-0.640627	-0.640296
C28	C	1.518313	-0.779021	-0.506105
C29	C	1.518382	-0.895797	-0.506129
C30	C	1.652826	-0.895806	-0.371857
C31	C	1.720076	-0.950671	-0.304734
C32	C	1.720138	-1.060392	-0.304762
C33	C	1.652945	-1.115251	-0.371924
C34	C	1.585695	-1.060386	-0.439047
C35	C	1.585638	-0.950662	-0.439009
C36	C	1.451257	-1.060378	-0.573323
C37	C	1.451189	-0.950656	-0.573291
C38	C	1.384064	-1.115237	-0.640484
C39	C	1.316808	-1.060372	-0.707604
C40	C	1.316748	-0.950644	-0.707572
C41	C	1.383939	-0.895791	-0.640414
C42	C	1.792409	-0.506073	-0.506145
C43	C	1.909186	-0.506082	-0.506151
C44	C	1.518449	-0.505947	-0.780164
C45	C	1.518481	-0.505902	-0.896940
C46	C	1.518468	-0.232020	-0.506179
C47	C	1.518507	-0.115243	-0.506199
C48	C	1.585709	-0.438704	-0.951820
C49	C	1.585734	-0.438666	-1.061544
C50	C	1.451300	-0.573033	-1.061500
C51	C	1.451270	-0.573065	-0.951778
C52	C	1.652919	-0.371541	-0.896982
C53	C	1.720154	-0.304339	-0.951862
C54	C	1.720179	-0.304301	-1.061586
C55	C	1.652969	-0.371465	-1.116431
C56	C	1.518363	-0.506083	-0.233163
C57	C	1.518535	-0.505832	-0.116387
H58	H	1.118406	-0.383987	-0.384461
C59	C	1.242906	-1.120716	-0.781478
C60	C	1.242981	-1.241406	-0.781520
C61	C	1.169078	-1.301754	-0.855396
C62	C	1.095100	-1.241412	-0.929228
C63	C	1.095022	-1.120716	-0.929189
C64	C	1.168925	-1.060367	-0.855314
H65	H	1.297747	-1.286080	-0.726862
H66	H	1.169136	-1.391102	-0.855424
H67	H	1.040392	-1.286086	-0.983915
H68	H	1.040256	-1.076041	-0.983847
H69	H	1.168867	-0.971019	-0.855285
H70	H	1.774903	-1.105063	-0.250110
H71	H	0.919460	-0.762677	-0.761988
C72	C	1.242771	-0.890295	-0.781410
C73	C	1.123347	-0.905490	-0.772751
C74	C	1.049368	-0.845146	-0.846591
C75	C	1.094813	-0.769607	-0.929089
C76	C	1.214242	-0.754408	-0.937751
C77	C	1.288221	-0.814752	-0.863912
H78	H	1.089701	-0.961412	-0.711678
H79	H	0.960958	-0.856398	-0.840178
H80	H	1.040049	-0.724937	-0.983749
H81	H	1.247888	-0.698487	-0.998824
H82	H	1.376631	-0.803501	-0.870325
H83	H	1.774917	-0.249574	-1.106266
C84	C	1.794079	-0.230459	-0.891538
C85	C	1.794059	-0.230498	-0.770848
C86	C	1.867985	-0.156615	-0.710527
C87	C	1.941932	-0.082694	-0.770897
C88	C	1.941954	-0.082652	-0.891594
C89	C	1.868028	-0.156535	-0.951914
H90	H	1.739317	-0.285221	-0.726153
H91	H	1.867968	-0.156646	-0.621179
H92	H	1.996656	-0.028002	-0.726244
H93	H	1.996696	-0.027929	-0.936289
H94	H	1.868045	-0.156504	-1.041262
C95	C	1.377387	-0.646921	-1.121829
C96	C	1.385923	-0.766361	-1.106709
C97	C	1.312016	-0.840255	-1.167039
C98	C	1.229572	-0.794709	-1.242488
C99	C	1.221034	-0.675262	-1.257612
C100	C	1.294941	-0.601368	-1.197282
H101	H	1.446955	-0.800083	-1.050854
H102	H	1.318337	-0.928678	-1.155843
H103	H	1.174862	-0.849410	-1.287148
H104	H	1.160001	-0.641541	-1.313467
H105	H	1.288619	-0.512946	-1.208478
H106	H	1.652983	-0.371417	-1.205776
H107	H	1.218013	-0.640599	-0.640269
H108	H	1.118526	-0.762648	-0.761961
C109	C	0.903662	-0.364807	-0.365302
C110	C	0.963983	-0.290798	-0.291522
C111	C	0.903615	-0.216809	-0.217745
C112	C	0.782925	-0.216829	-0.217748
C113	C	0.722597	-0.290841	-0.291530
C114	C	0.782965	-0.364830	-0.365307
H115	H	1.053331	-0.290781	-0.291518
H116	H	0.948274	-0.162021	-0.163127
H117	H	0.738236	-0.162058	-0.163134
H118	H	0.633249	-0.290859	-0.291535
H119	H	0.738306	-0.419619	-0.419925
H120	H	0.819877	-0.640635	-0.640319
H121	H	1.652770	-0.806465	-0.371814
H122	H	1.774786	-0.905995	-0.250053
H123	H	1.653010	-1.204592	-0.371950
H124	H	1.384124	-1.204578	-0.640507
H125	H	1.383890	-0.806450	-0.640375
H126	H	1.652909	-0.371567	-0.807640
H127	H	1.396511	-0.627767	-0.907094
