data_functionalizedCrystal
_audit_creation_method	'MofGen! by Chris Wilmer'
_symmetry_space_group_name_H-M	'P1'
_symmetry_Int_Tables_number	1
_symmetry_cell_setting	triclinic
loop_
_symmetry_equiv_pos_as_xyz
  x,y,z
_cell_length_a	23.532407
_cell_length_b	23.532357
_cell_length_c	9.130313
_cell_angle_alpha	89.993247
_cell_angle_beta	90.005122
_cell_angle_gamma	82.838485
loop_
_atom_site_label
_atom_site_type_symbol
_atom_site_fract_x
_atom_site_fract_y
_atom_site_fract_z
O1	O	0.755244	0.069134	-0.121634
O2	O	0.589379	0.079137	-0.121680
O3	O	0.677328	-0.008798	-0.121625
O4	O	0.667295	0.157069	-0.121688
O5	O	0.677327	-0.008796	0.121974
O6	O	0.589378	0.079140	0.121919
O7	O	0.755243	0.069136	0.121965
Cu8	Cu	0.672310	0.074138	0.144185
Cu9	Cu	0.672311	0.074135	-0.143899
O10	O	0.667294	0.157072	0.121911
C11	C	0.568162	0.078884	0.000115
C12	C	0.504945	0.078118	0.000099
C13	C	0.105834	0.125353	0.000147
C14	C	0.046434	0.124641	0.000156
O15	O	0.009681	0.168428	0.000193
N16	N	0.023817	0.072364	0.000174
C17	C	0.060604	0.020794	0.000197
O18	O	0.035912	-0.023737	0.000214
C19	C	0.120003	0.021506	0.000198
C20	C	0.142616	0.073787	0.000166
C21	C	0.128448	0.177629	0.000116
C22	C	0.187844	0.178341	0.000104
C23	C	0.224626	0.126775	0.000123
C24	C	0.202012	0.074498	0.000154
C25	C	0.156788	-0.030063	0.000231
C26	C	0.216191	-0.029346	0.000234
C27	C	0.238804	0.022935	0.000202
C28	C	0.298190	0.023644	0.000160
N29	N	0.320807	0.075922	0.000143
C30	C	0.284025	0.127487	0.000124
C31	C	-0.064139	0.019303	0.000197
C32	C	-0.123536	0.018590	0.000185
C33	C	-0.137702	0.122437	0.000147
C34	C	-0.078303	0.123149	0.000148
C35	C	-0.041522	0.071580	0.000179
C36	C	0.408761	0.128977	0.000098
C37	C	0.468163	0.129684	0.000080
C38	C	0.482324	0.025836	0.000125
C39	C	0.422927	0.025130	0.000136
C40	C	0.386147	0.076704	0.000127
O41	O	0.334977	-0.020120	0.000130
O42	O	0.308725	0.172011	0.000127
C43	C	0.677076	-0.030013	0.000179
C44	C	0.676322	-0.093232	0.000192
C45	C	0.671586	-0.485245	-0.132674
C46	C	0.670868	-0.544644	-0.132682
O47	O	0.670479	-0.575361	-0.245612
N48	N	0.670512	-0.574354	0.000101
C49	C	0.670867	-0.544661	0.132902
O50	O	0.670498	-0.575385	0.245845
C51	C	0.671580	-0.485262	0.132909
C52	C	0.671943	-0.455556	0.000117
C53	C	0.671947	-0.455538	-0.265456
C54	C	0.672665	-0.396143	-0.265446
C55	C	0.673022	-0.366454	-0.132656
C56	C	0.672661	-0.396160	0.000126
C57	C	0.671932	-0.455569	0.265709
C58	C	0.672644	-0.396166	0.265704
C59	C	0.673006	-0.366460	0.132912
C60	C	0.673736	-0.307076	0.132926
N61	N	0.674092	-0.277366	0.000142
C62	C	0.673735	-0.307055	-0.132649
C63	C	0.669369	-0.669402	0.132877
C64	C	0.668660	-0.728800	0.132872
C65	C	0.668660	-0.728780	-0.132713
C66	C	0.669373	-0.669381	-0.132706
C67	C	0.669725	-0.639692	0.000094
C68	C	0.675244	-0.182321	-0.132620
C69	C	0.675965	-0.122921	-0.132599
C70	C	0.675962	-0.122947	0.132986
C71	C	0.675244	-0.182342	0.132966
C72	C	0.674883	-0.212027	0.000151
O73	O	0.674124	-0.276321	0.245797
O74	O	0.674097	-0.276322	-0.245572
C75	C	0.776459	0.069390	0.000168
C76	C	0.839676	0.070156	0.000174
C77	C	0.667545	0.178287	0.000103
C78	C	0.668300	0.241506	0.000080
N79	N	0.672313	0.074140	0.346807
N80	N	0.672313	0.074129	-0.346522
C81	C	0.711267	0.035215	0.423483
C82	C	0.711265	0.035208	0.576820
C83	C	0.633355	0.113056	0.576791
C84	C	0.633354	0.113060	0.423457
C85	C	0.756250	-0.009728	0.423501
C86	C	0.756248	-0.009735	0.576838
H87	H	-0.034193	-0.022694	0.000209
Cl88	Cl	0.128375	-0.095792	0.000248
Cl89	Cl	0.742218	-0.077104	0.359252
Cl90	Cl	0.262427	-0.094180	0.000275
Cl91	Cl	0.819781	0.010780	0.350071
Cl92	Cl	0.676421	-0.085580	-0.299550
Cl93	Cl	0.216262	0.244069	0.000074
H94	H	0.672923	-0.371995	0.373849
Cl95	Cl	0.823606	0.004357	0.641114
Cl96	Cl	0.735807	-0.073300	0.650277
H97	H	0.404515	-0.017442	0.000140
H98	H	-0.141942	-0.023982	0.000188
H99	H	0.486571	0.172259	0.000053
Cl100	Cl	0.668206	-0.766114	-0.299652
Cl101	Cl	0.362532	0.193815	0.000085
H102	H	0.601630	0.144750	0.361029
Cl103	Cl	0.671473	-0.492898	0.432659
Cl104	Cl	0.668216	-0.766139	0.299818
H105	H	0.669657	-0.645233	0.241026
Cl106	Cl	0.082217	0.242464	0.000089
Cl107	Cl	0.584380	0.161981	0.673161
Cl108	Cl	-0.183954	0.187263	0.000132
Cl109	Cl	-0.049882	0.188876	0.000113
Cl110	Cl	0.674792	-0.219631	-0.299589
Cl111	Cl	0.528575	-0.038985	0.000155
H112	H	0.672958	-0.371961	-0.373580
H113	H	0.671654	-0.479705	-0.373596
H114	H	0.669667	-0.645198	-0.240838
H115	H	0.674955	-0.206530	0.241096
H116	H	0.676255	-0.098763	0.241101
