data_functionalizedCrystal
_audit_creation_method	'MofGen! by Chris Wilmer'
_symmetry_space_group_name_H-M	'P1'
_symmetry_Int_Tables_number	1
_symmetry_cell_setting	triclinic
loop_
_symmetry_equiv_pos_as_xyz
  x,y,z
_cell_length_a	14.044220
_cell_length_b	16.992695
_cell_length_c	15.455313
_cell_angle_alpha	87.152573
_cell_angle_beta	92.919879
_cell_angle_gamma	91.928550
loop_
_atom_site_label
_atom_site_type_symbol
_atom_site_fract_x
_atom_site_fract_y
_atom_site_fract_z
O1	O	-1.276013	-0.186891	-0.072039
O2	O	-0.776013	0.313109	0.427961
O3	O	-0.999526	-0.180033	-0.072061
O4	O	-0.499526	0.319967	0.427939
O5	O	-1.136661	-0.069242	-0.072043
O6	O	-0.636661	0.430758	0.427957
O7	O	-1.138878	-0.297682	-0.072057
O8	O	-0.638878	0.202318	0.427943
O9	O	-1.128817	-0.075549	0.072218
O10	O	-0.628817	0.424451	0.572218
O11	O	-0.991682	-0.186340	0.072200
O12	O	-0.491682	0.313660	0.572200
O13	O	-1.268169	-0.193198	0.072222
O14	O	-0.768169	0.306802	0.572222
Cu15	Cu	-1.129209	-0.190345	0.085383
Cu16	Cu	-0.629209	0.309655	0.585383
Cu17	Cu	-1.138486	-0.182886	-0.085222
Cu18	Cu	-0.638486	0.317114	0.414778
O19	O	-1.131034	-0.303989	0.072204
O20	O	-0.631034	0.196011	0.572204
C21	C	-1.129887	-0.042984	0.000087
C22	C	-0.629887	0.457016	0.500087
C23	C	-1.121378	0.044656	0.000086
C24	C	-0.621378	0.544656	0.500086
C25	C	-0.960062	-0.180184	0.000067
C26	C	-0.460062	0.319816	0.500067
C27	C	-0.854158	-0.171230	0.000058
C28	C	-0.354158	0.328770	0.500058
C29	C	-1.307633	-0.193047	0.000092
C30	C	-0.807633	0.306953	0.500092
C31	C	-1.413537	-0.202001	0.000095
C32	C	-0.913537	0.297999	0.500095
C33	C	-0.660256	-0.154861	0.000077
C34	C	-0.160256	0.345139	0.500077
C35	C	-0.607433	-0.218367	0.000076
C36	C	-0.107433	0.281633	0.500076
C37	C	-0.499539	-0.209259	0.000087
C38	C	0.000461	0.290741	0.500087
C39	C	-0.768160	-0.163967	0.000066
C40	C	-0.268160	0.336033	0.500066
C41	C	-1.137808	-0.330247	0.000072
C42	C	-0.637808	0.169753	0.500072
C43	C	-1.146317	-0.417886	0.000067
C44	C	-0.646317	0.082114	0.500067
N45	N	-1.122691	-0.195591	0.205378
N46	N	-0.622691	0.304409	0.705378
C47	C	-1.203475	0.089154	0.000093
C48	C	-0.703475	0.589154	0.500093
C49	C	-1.195475	0.171500	0.000084
C50	C	-0.695475	0.671500	0.500084
C51	C	-1.105377	0.209347	0.000074
C52	C	-0.605377	0.709347	0.500074
C53	C	-1.023275	0.164843	0.000064
C54	C	-0.523275	0.664843	0.500064
C55	C	-1.031276	0.082498	0.000067
C56	C	-0.531276	0.582498	0.500067
C57	C	-1.072216	0.455265	0.000060
C58	C	-0.572216	0.955265	0.500060
C59	C	-1.064220	0.537615	0.000060
C60	C	-0.564220	1.037615	0.500060
C61	C	-1.236421	0.544267	0.000078
C62	C	-0.736421	1.044267	0.500078
C63	C	-1.244414	0.461920	0.000086
C64	C	-0.744414	0.961920	0.500086
C65	C	-1.162312	0.417424	0.000071
C66	C	-0.662312	0.917424	0.500071
N67	N	-1.097198	0.293518	0.000068
N68	N	-0.597198	0.793518	0.500068
N69	N	-1.170493	0.333254	0.000072
N70	N	-0.670493	0.833254	0.500072
N71	N	-1.145011	-0.177634	-0.205217
N72	N	-0.645011	0.322366	0.294783
C73	C	-1.180974	-0.148544	0.250779
C74	C	-0.680974	0.351456	0.750779
C75	C	-1.176054	-0.152519	0.341587
C76	C	-0.676054	0.347481	0.841587
C77	C	-1.112856	-0.203546	0.386991
C78	C	-0.612856	0.296454	0.886991
C79	C	-1.054567	-0.250595	0.341583
C80	C	-0.554567	0.249405	0.841583
C81	C	-1.059482	-0.246615	0.250777
C82	C	-0.559482	0.253385	0.750777
C83	C	-1.091637	-0.220704	0.658569
C84	C	-0.591637	0.279296	1.158569
C85	C	-1.086728	-0.224682	0.749381
C86	C	-0.586728	0.275318	1.249381
C87	C	-1.208215	-0.126604	0.749379
C88	C	-0.708215	0.373396	1.249379
C89	C	-1.213129	-0.122632	0.658572
C90	C	-0.713129	0.377368	1.158572
C91	C	-1.154836	-0.169678	0.613172
C92	C	-0.654836	0.330322	1.113172
N93	N	-1.107828	-0.207613	0.479810
N94	N	-0.607828	0.292387	0.979810
N95	N	-1.159860	-0.165607	0.520354
N96	N	-0.659860	0.334393	1.020354
H97	H	-0.643242	-0.279576	0.000069
H98	H	-0.143242	0.220424	0.500069
H99	H	-1.012021	-0.284925	0.213812
H100	H	-0.512021	0.215075	0.713812
F101	F	-1.238084	-0.102445	0.389907
F102	F	-0.738084	0.397555	0.889907
H103	H	-0.624450	-0.093656	0.000085
H104	H	-0.124450	0.406344	0.500085
H105	H	-1.303264	0.580505	0.000088
H106	H	-0.803264	1.080505	0.500088
F107	F	-1.299369	0.048882	0.000112
F108	F	-0.799369	0.548882	0.500112
F109	F	-0.968322	0.577893	0.000053
F110	F	-0.468322	1.077893	0.500053
H111	H	-1.262326	0.207727	0.000092
H112	H	-0.762326	0.707727	0.500092
F113	F	-1.340309	0.421648	0.000075
F114	F	-0.840309	0.921648	0.500075
H115	H	-1.044174	-0.259012	0.621612
H116	H	-0.544174	0.240988	1.121612
F117	F	-0.987300	-0.304899	0.389906
F118	F	-0.487300	0.195101	0.889906
H119	H	-1.232441	-0.106996	0.213817
H120	H	-0.732441	0.393004	0.713817
H121	H	-1.005362	0.419045	0.000048
H122	H	-0.505362	0.919045	0.500048
H123	H	-0.949916	0.195665	0.000051
H124	H	-0.449916	0.695665	0.500051
H125	H	-0.964424	0.046269	0.000061
H126	H	-0.464424	0.546269	0.500061
H127	H	-1.264590	-0.081082	0.621606
H128	H	-0.764590	0.418918	1.121606
H129	H	-1.255673	-0.088300	0.786352
H130	H	-0.755673	0.411700	1.286352
F131	F	-1.019460	-0.278997	0.797698
F132	F	-0.519460	0.221003	1.297698
