data_functionalizedCrystal
_audit_creation_method	'MofGen! by Chris Wilmer'
_symmetry_space_group_name_H-M	'P1'
_symmetry_Int_Tables_number	1
_symmetry_cell_setting	triclinic
loop_
_symmetry_equiv_pos_as_xyz
  x,y,z
_cell_length_a	18.215407
_cell_length_b	12.594516
_cell_length_c	18.215399
_cell_angle_alpha	89.977894
_cell_angle_beta	89.980167
_cell_angle_gamma	90.016501
loop_
_atom_site_label
_atom_site_type_symbol
_atom_site_fract_x
_atom_site_fract_y
_atom_site_fract_z
Zn1	Zn	1.125117	-0.423740	-0.416146
Zn2	Zn	1.125045	-0.601738	-0.293092
Zn3	Zn	1.002050	-0.423775	-0.293093
Zn4	Zn	1.002035	-0.601679	-0.416117
O5	O	1.063561	-0.512733	-0.354612
O6	O	1.228092	-0.447362	-0.399834
O7	O	1.108705	-0.578170	-0.190108
O8	O	1.018412	-0.274825	-0.309429
O9	O	1.228038	-0.578136	-0.309427
O10	O	1.108829	-0.274799	-0.399835
O11	O	1.018341	-0.447422	-0.190109
O12	O	0.899063	-0.447364	-0.309401
O13	O	1.018386	-0.578035	-0.519105
O14	O	0.899052	-0.578069	-0.399786
O15	O	1.108814	-0.447305	-0.519126
O16	O	1.108690	-0.750676	-0.309399
O17	O	1.018315	-0.750632	-0.399785
C18	C	0.872355	-0.512715	-0.354591
C19	C	0.790556	-0.512733	-0.354599
C20	C	0.602376	-0.580898	-0.401604
C21	C	0.525517	-0.580901	-0.401613
C22	C	0.525499	-0.444588	-0.307636
C23	C	0.602356	-0.444580	-0.307631
C24	C	0.640793	-0.512741	-0.354614
C25	C	0.487077	-0.512752	-0.354628
C26	C	0.403743	-0.512755	-0.354638
C27	C	0.724132	-0.512737	-0.354606
C28	C	1.063513	-0.789274	-0.354605
C29	C	1.063560	-0.907579	-0.354626
C30	C	1.014400	-0.976847	-0.403753
C31	C	0.996471	-1.047706	-0.336600
C32	C	1.081556	-1.047520	-0.421791
C33	C	1.045595	-0.976880	-0.287438
C34	C	1.130712	-0.976687	-0.372674
C35	C	1.112808	-1.047514	-0.305475
C36	C	1.255514	-0.512752	-0.354634
C37	C	1.337313	-0.512760	-0.354643
C38	C	1.063606	-0.512660	-0.546565
C39	C	1.063625	-0.512628	-0.628364
C40	C	1.063630	-0.235112	-0.354635
C41	C	1.063659	-0.116807	-0.354645
C42	C	1.110728	-0.444493	-0.816570
C43	C	1.110737	-0.444462	-0.893429
C44	C	1.016575	-0.580599	-0.893396
C45	C	1.016563	-0.580624	-0.816538
C46	C	1.063644	-0.512572	-0.778127
C47	C	1.063664	-0.512517	-0.931844
C48	C	1.063674	-0.512483	-1.015177
C49	C	1.063634	-0.512604	-0.694788
C50	C	1.063559	-0.512729	-0.163406
C51	C	1.063683	-0.512461	-0.081607
H52	H	0.972753	-0.945818	-0.445237
H53	H	1.030348	-0.945979	-0.230630
H54	H	1.096738	-1.078549	-0.478583
C55	C	1.152555	-0.383958	-1.011258
C56	C	1.162490	-0.369622	-0.935686
H57	H	1.184502	-0.337744	-1.037344
H58	H	1.163317	-0.455458	-1.023849
H59	H	1.103110	-0.368376	-1.023835
H60	H	1.211934	-0.385212	-0.923109
H61	H	1.151734	-0.298106	-0.923090
H62	H	0.494241	-0.636400	-0.439878
H63	H	0.978215	-0.636061	-0.785237
C64	C	1.150017	-1.053300	-0.179098
C65	C	1.168986	-1.089152	-0.249342
H66	H	1.184695	-1.079014	-0.144444
H67	H	1.150003	-0.977890	-0.178510
H68	H	1.102493	-1.078699	-0.166698
H69	H	1.216508	-1.063746	-0.261744
H70	H	1.169007	-1.164578	-0.249932
C71	C	0.974786	-0.641014	-1.011199
C72	C	0.964831	-0.655406	-0.935620
H73	H	0.942844	-0.687205	-1.037263
H74	H	0.964031	-0.569504	-1.023797
H75	H	1.024234	-0.656591	-1.023793
H76	H	0.915384	-0.639822	-0.923024
H77	H	0.975580	-0.726933	-0.923016
C78	C	1.203797	-0.309916	-0.824326
C79	C	1.162471	-0.369682	-0.774348
H80	H	1.235737	-0.263724	-0.798260
H81	H	1.231942	-0.356280	-0.854301
H82	H	1.171736	-0.269198	-0.854303
H83	H	1.194532	-0.410406	-0.744374
H84	H	1.134324	-0.323312	-0.744361
C85	C	0.501793	-0.392512	-0.183082
C86	C	0.483247	-0.369674	-0.255990
H87	H	0.475711	-0.346258	-0.151198
H88	H	0.489179	-0.464000	-0.172237
H89	H	0.553065	-0.382748	-0.176363
H90	H	0.431975	-0.379446	-0.262710
H91	H	0.495855	-0.298169	-0.266839
C92	C	0.594671	-0.715625	-0.494504
C93	C	0.644626	-0.655807	-0.453254
H94	H	0.620755	-0.761864	-0.526396
H95	H	0.564678	-0.756286	-0.462397
H96	H	0.564710	-0.669290	-0.522703
H97	H	0.674583	-0.702143	-0.425051
H98	H	0.674632	-0.615143	-0.485365
H99	H	1.187442	-0.945472	-0.387956
H100	H	0.633636	-0.389071	-0.269367
C101	C	0.892696	-1.152560	-0.373328
C102	C	0.919869	-1.089825	-0.315995
H103	H	0.845407	-1.178564	-0.360608
H104	H	0.889316	-1.111036	-0.416733
H105	H	0.924934	-1.210639	-0.381515
H106	H	0.887634	-1.031742	-0.307812
H107	H	0.923245	-1.131352	-0.272577
