data_functionalizedCrystal
_audit_creation_method	'MofGen! by Chris Wilmer'
_symmetry_space_group_name_H-M	'P1'
_symmetry_Int_Tables_number	1
_symmetry_cell_setting	triclinic
loop_
_symmetry_equiv_pos_as_xyz
  x,y,z
_cell_length_a	15.944545
_cell_length_b	15.944551
_cell_length_c	12.503572
_cell_angle_alpha	93.522593
_cell_angle_beta	86.484314
_cell_angle_gamma	83.497455
loop_
_atom_site_label
_atom_site_type_symbol
_atom_site_fract_x
_atom_site_fract_y
_atom_site_fract_z
O1	O	1.119367	0.103451	-0.089253
O2	O	0.874818	0.116812	-0.089271
O3	O	1.003770	-0.012143	-0.089252
O4	O	0.990415	0.232406	-0.089272
O5	O	0.994072	-0.002428	0.089389
O6	O	0.865120	0.126526	0.089370
O7	O	1.109669	0.113166	0.089388
Cu8	Cu	0.986509	0.120733	0.105690
Cu9	Cu	0.997978	0.109245	-0.105573
O10	O	0.980717	0.242121	0.089369
C11	C	0.838675	0.121115	0.000047
C12	C	0.745429	0.119455	0.000041
C13	C	0.474795	0.034562	0.000059
C14	C	0.520595	0.080281	0.088138
C15	C	0.409784	0.113535	0.000060
C16	C	0.530137	0.070724	-0.087988
C17	C	0.574698	0.116439	0.000049
C18	C	0.454352	0.159237	0.088211
C19	C	0.463895	0.149665	-0.087994
C20	C	0.509661	0.195442	0.000106
C21	C	0.314782	0.111860	0.000067
C22	C	0.669698	0.118121	0.000049
C23	C	0.998367	-0.038579	0.000069
C24	C	0.996704	-0.131825	0.000069
C25	C	0.912801	-0.346681	0.000048
C26	C	0.946981	-0.402910	0.088132
C27	C	0.993697	-0.302552	0.000061
C28	C	0.956562	-0.412471	-0.087994
C29	C	0.990787	-0.467465	0.000048
C30	C	1.027896	-0.357548	0.088217
C31	C	1.037470	-0.367107	-0.087988
C32	C	1.071708	-0.423316	0.000117
C33	C	0.995372	-0.207549	0.000069
C34	C	0.989119	-0.562466	0.000047
C35	C	1.145812	0.108862	0.000067
C36	C	1.239059	0.110523	0.000066
C37	C	0.986121	0.268557	0.000046
C38	C	0.987783	0.361803	0.000038
N39	N	0.978448	0.128813	0.254281
N40	N	1.006045	0.101159	-0.254164
C41	C	0.966591	0.140705	0.473395
C42	C	1.017900	0.089269	0.526729
C43	C	1.011302	0.095886	0.648651
C44	C	0.973188	0.134089	0.351461
H45	H	0.421496	0.196618	0.162754
H46	H	0.459137	-0.033445	0.000151
O47	O	0.550273	0.045187	0.176900
C48	C	0.532872	-0.039574	0.176611
H49	H	0.524448	-0.064282	0.090899
H50	H	0.587723	-0.079788	0.209894
H51	H	0.472376	-0.043192	0.228806
O52	O	0.901418	-0.421980	0.177075
C53	C	0.938351	-0.392730	0.269798
H54	H	0.977334	-0.339488	0.249276
H55	H	0.886440	-0.368118	0.334541
H56	H	0.981142	-0.446928	0.300557
O57	O	1.076245	0.030736	0.472140
C58	C	1.122674	-0.015771	0.545742
H59	H	1.083954	-0.012402	0.625943
H60	H	1.137121	-0.084594	0.513148
H61	H	1.184488	0.012074	0.557652
H62	H	0.525150	0.263509	0.000152
H63	H	0.917713	0.189709	0.519295
H64	H	1.138913	-0.456473	0.000172
H65	H	0.926378	-0.436596	-0.162467
O66	O	0.434238	0.184461	-0.176944
C67	C	0.473191	0.137564	-0.269627
H68	H	0.496625	0.070783	-0.248520
H69	H	0.425434	0.134342	-0.333545
H70	H	0.529008	0.169645	-0.301764
O71	O	1.082961	-0.347944	-0.176932
C72	C	1.045134	-0.375838	-0.269622
H73	H	0.975507	-0.381454	-0.248524
H74	H	1.050656	-0.328387	-0.333538
H75	H	1.078648	-0.440226	-0.301756
H76	H	0.845648	-0.313368	0.000131
O77	O	0.569371	0.025980	-0.176789
C78	C	0.551965	-0.058755	-0.176431
H79	H	0.491088	-0.062049	-0.124867
H80	H	0.544236	-0.084077	-0.262088
H81	H	0.606495	-0.098657	-0.142050
H82	H	1.058037	-0.333504	0.162766
