data_functionalizedCrystal
_audit_creation_method	'MofGen! by Chris Wilmer'
_symmetry_space_group_name_H-M	'P1'
_symmetry_Int_Tables_number	1
_symmetry_cell_setting	triclinic
loop_
_symmetry_equiv_pos_as_xyz
  x,y,z
_cell_length_a	10.654583
_cell_length_b	10.654550
_cell_length_c	9.130313
_cell_angle_alpha	90.000110
_cell_angle_beta	90.005937
_cell_angle_gamma	84.491717
loop_
_atom_site_label
_atom_site_type_symbol
_atom_site_fract_x
_atom_site_fract_y
_atom_site_fract_z
O1	O	-1.667810	-0.176592	-0.121989
O2	O	-1.302337	-0.193355	-0.121949
O3	O	-1.493476	-0.002235	-0.121965
O4	O	-1.476670	-0.367712	-0.121974
O5	O	-1.493474	-0.002240	0.121634
O6	O	-1.302334	-0.193360	0.121650
O7	O	-1.667807	-0.176597	0.121610
Cu8	Cu	-1.485071	-0.184979	0.143872
Cu9	Cu	-1.485073	-0.184973	-0.144212
O10	O	-1.476668	-0.367717	0.121625
C11	C	-1.255538	-0.192118	-0.000145
C12	C	-1.116097	-0.188409	-0.000129
C13	C	-1.050565	-0.186682	0.132649
C14	C	-0.919544	-0.183208	0.132632
C15	C	-0.919597	-0.183193	-0.132953
C16	C	-1.050617	-0.186658	-0.132935
C17	C	-1.050533	-0.186696	0.285982
C18	C	-0.919512	-0.183222	0.285966
C19	C	-1.492241	0.044560	-0.000167
C20	C	-1.488549	0.184004	-0.000172
C21	C	-0.714608	-0.177816	-0.000183
C22	C	-0.854056	-0.181469	-0.000164
C23	C	-1.477903	-0.414512	-0.000176
C24	C	-1.481595	-0.553956	-0.000181
N25	N	-1.485078	-0.184983	0.346495
C26	C	-1.601089	0.263476	-0.000179
C27	C	-1.597612	0.394497	-0.000189
C28	C	-1.369046	0.366561	-0.000177
C29	C	-1.372524	0.235543	-0.000178
C30	C	-1.733050	0.279606	-0.000180
C31	C	-1.729573	0.410627	-0.000190
N32	N	-1.485076	-0.184960	-0.346834
C33	C	-1.569736	-0.100384	0.423140
C34	C	-1.569733	-0.100369	0.576477
C35	C	-1.400408	-0.269562	0.576510
C36	C	-1.400407	-0.269570	0.423176
C37	C	-1.667498	-0.002705	0.423122
C38	C	-1.667495	-0.002690	0.576459
H39	H	-1.080107	-0.278295	0.333555
H40	H	-1.331471	-0.338430	0.638960
H41	H	-0.889924	-0.091626	0.333549
N42	N	-1.779595	0.467923	-0.132122
N43	N	-1.711688	0.528972	-0.211512
H44	H	-1.747013	0.569444	-0.304686
N45	N	-0.861455	-0.292105	0.359812
N46	N	-0.927995	-0.371672	0.411843
H47	H	-0.886995	-0.448569	0.463995
N48	N	-1.250537	0.419213	-0.000139
N49	N	-1.174410	0.395234	0.102558
H50	H	-1.090710	0.432418	0.102591
H51	H	-1.779293	0.452379	0.101748
N52	N	-1.781881	-0.041067	0.363408
N53	N	-1.796173	-0.045864	0.227703
H54	H	-1.876956	-0.072958	0.185526
N55	N	-1.797815	0.242760	-0.128050
N56	N	-1.909869	0.284812	-0.149697
H57	H	-1.955611	0.258789	-0.240003
N58	N	-1.785759	0.234911	0.131769
N59	N	-1.822325	0.311003	0.230581
H60	H	-1.859548	0.279438	0.323774
N61	N	-1.640555	0.118370	0.370880
N62	N	-1.545996	0.128120	0.292177
H63	H	-1.526960	0.213623	0.255271
H64	H	-1.636982	0.088536	0.624012
H65	H	-1.764005	-0.024220	0.618064
H66	H	-1.331460	-0.338446	0.360773
H67	H	-1.103970	-0.188045	-0.241055
H68	H	-1.096792	-0.099907	0.344865
N69	N	-0.852690	-0.181396	-0.268590
N70	N	-0.735710	-0.178291	-0.268591
H71	H	-0.688457	-0.177022	-0.364387
N72	N	-1.257556	0.154381	-0.000195
N73	N	-1.153977	0.200418	-0.000201
H74	H	-1.072774	0.143098	-0.000214
