data_functionalizedCrystal
_audit_creation_method	'MofGen! by Chris Wilmer'
_symmetry_space_group_name_H-M	'P1'
_symmetry_Int_Tables_number	1
_symmetry_cell_setting	triclinic
loop_
_symmetry_equiv_pos_as_xyz
  x,y,z
_cell_length_a	19.077078
_cell_length_b	13.033385
_cell_length_c	19.077569
_cell_angle_alpha	85.399431
_cell_angle_beta	90.062085
_cell_angle_gamma	95.142817
loop_
_atom_site_label
_atom_site_type_symbol
_atom_site_fract_x
_atom_site_fract_y
_atom_site_fract_z
Zn1	Zn	-0.404906	-1.589774	-0.277951
Zn2	Zn	0.095094	-1.089774	0.222049
Zn3	Zn	-0.525893	-1.575763	-0.166302
Zn4	Zn	-0.025893	-1.075763	0.333698
Zn5	Zn	-0.393654	-1.409594	-0.175256
Zn6	Zn	0.106346	-0.909594	0.324744
Zn7	Zn	-0.506432	-1.410082	-0.297379
Zn8	Zn	-0.006432	-0.910082	0.202621
O9	O	-0.457721	-1.496303	-0.229222
O10	O	0.042279	-0.996303	0.270778
O11	O	-0.433809	-1.732660	-0.251262
O12	O	0.066191	-1.232660	0.248738
O13	O	-0.511786	-1.547653	-0.069656
O14	O	-0.011786	-1.047653	0.430344
O15	O	-0.297315	-1.439154	-0.184495
O16	O	0.202685	-0.939154	0.315505
O17	O	-0.522698	-1.722366	-0.169235
O18	O	-0.022698	-1.222366	0.330765
O19	O	-0.305582	-1.571532	-0.259944
O20	O	0.194418	-1.071532	0.240056
O21	O	-0.414631	-1.425569	-0.076234
O22	O	0.085369	-0.925569	0.423766
O23	O	-0.395760	-1.264914	-0.203334
O24	O	0.104240	-0.764914	0.296666
O25	O	-0.489529	-1.439987	-0.392636
O26	O	0.010471	-0.939987	0.107364
O27	O	-0.478618	-1.265273	-0.293057
O28	O	0.021382	-0.765273	0.206943
O29	O	-0.414939	-1.572005	-0.378362
O30	O	0.085061	-1.072005	0.121638
O31	O	-0.621143	-1.548126	-0.188074
O32	O	-0.121143	-1.048126	0.311926
O33	O	-0.606845	-1.426401	-0.284375
O34	O	-0.106845	-0.926401	0.215625
C35	C	-0.433857	-1.227563	-0.251276
C36	C	0.066143	-0.727563	0.248724
C37	C	-0.423664	-1.112595	-0.260728
C38	C	0.076336	-0.612595	0.239272
C39	C	-0.452501	-0.937416	-0.234057
C40	C	0.047499	-0.437416	0.265943
C41	C	-0.463039	-1.056241	-0.224285
C42	C	0.036961	-0.556241	0.275715
C43	C	-0.639362	-1.485825	-0.237374
C44	C	-0.139362	-0.985825	0.262626
C45	C	-0.717077	-1.481439	-0.240877
C46	C	-0.217077	-0.981439	0.259123
C47	C	-1.153731	-1.449975	-0.266027
C48	C	-0.653731	-0.949975	0.233973
C49	C	-1.080710	-1.454096	-0.262728
C50	C	-0.580710	-0.954096	0.237272
C51	C	-1.051626	-1.519584	-0.210968
C52	C	-0.551626	-1.019584	0.289032
C53	C	-1.095568	-1.580962	-0.162508
C54	C	-0.595568	-1.080962	0.337492
C55	C	-1.168587	-1.576846	-0.165810
C56	C	-0.668587	-1.076846	0.334190
C57	C	-0.834038	-1.538701	-0.195719
C58	C	-0.334038	-1.038701	0.304281
C59	C	-0.761013	-1.542810	-0.192419
C60	C	-0.261013	-1.042810	0.307581
C61	C	-0.746160	-1.415945	-0.292641
C62	C	-0.246160	-0.915945	0.207359
C63	C	-0.819181	-1.411830	-0.295936
C64	C	-0.319181	-0.911830	0.204064
C65	C	-0.863117	-1.473212	-0.247479
C66	C	-0.363117	-0.973212	0.252521
N67	N	-0.976987	-1.523795	-0.207593
N68	N	-0.476987	-1.023795	0.292407
N69	N	-0.937755	-1.469006	-0.250857
N70	N	-0.437755	-0.969006	0.249143
C71	C	-0.275373	-1.506851	-0.221051
C72	C	0.224627	-1.006851	0.278949
C73	C	-0.197667	-1.511346	-0.217570
C74	C	0.302333	-1.011346	0.282430
C75	C	-0.451318	-1.507613	-0.411575
C76	C	0.048682	-1.007613	0.088425
C77	C	-0.448590	-1.512433	-0.489283
C78	C	0.051410	-1.012433	0.010717
C79	C	-0.481675	-0.766093	-0.207075
C80	C	0.018325	-0.266093	0.292925
C81	C	-0.491872	-0.881060	-0.197619
C82	C	0.008128	-0.381060	0.302381
C83	C	-0.486140	-1.445964	-0.533223
C84	C	0.013860	-0.945964	-0.033223
C85	C	-0.483577	-1.450501	-0.606238
C86	C	0.016423	-0.950501	-0.106238
C87	C	-0.443459	-1.521503	-0.635311
C88	C	0.056541	-1.021503	-0.135311
C89	C	-0.405908	-1.587980	-0.591365
C90	C	0.094092	-1.087980	-0.091365
C91	C	-0.408475	-1.583447	-0.518352
C92	C	0.091525	-1.083447	-0.018352
C93	C	-0.431620	-1.542435	-0.852879
C94	C	0.068380	-1.042435	-0.352879
C95	C	-0.429053	-1.546961	-0.925898
C96	C	0.070947	-1.046961	-0.425898
C97	C	-0.506724	-1.409483	-0.940765
C98	C	-0.006724	-0.909483	-0.440765
C99	C	-0.509284	-1.404952	-0.867750
C100	C	-0.009284	-0.904952	-0.367750
C101	C	-0.471736	-1.471432	-0.823811
C102	C	0.028264	-0.971432	-0.323811
N103	N	-0.440836	-1.526140	-0.709943
N104	N	0.059164	-1.026140	-0.209943
N105	N	-0.474363	-1.466799	-0.749180
N106	N	0.025637	-0.966799	-0.249180
C107	C	-0.464054	-1.485100	-0.047571
C108	C	0.035946	-0.985100	0.452429
C109	C	-0.466604	-1.480492	0.030162
C110	C	0.033396	-0.980492	0.530162
H111	H	-0.382155	-1.072879	-0.299163
H112	H	0.117845	-0.572879	0.200837
O113	O	-0.546855	-0.933666	-0.146711
O114	O	-0.046855	-0.433666	0.353289
H115	H	-0.534883	-0.910254	-0.093010
H116	H	-0.034883	-0.410254	0.406990
O117	O	-1.185102	-1.379339	-0.321852
O118	O	-0.685102	-0.879339	0.178148
H119	H	-1.170696	-1.401218	-0.374645
H120	H	-0.670696	-0.901218	0.125355
H121	H	-1.044938	-1.404123	-0.302187
H122	H	-0.544938	-0.904123	0.197813
H123	H	-0.737337	-1.596141	-0.150266
H124	H	-0.237337	-1.096141	0.349734
H125	H	-0.537293	-1.355359	-0.976548
H126	H	-0.037293	-0.855359	-0.476548
H127	H	-0.842855	-1.358490	-0.338078
H128	H	-0.342855	-0.858490	0.161922
H129	H	-1.071884	-1.634289	-0.120365
H130	H	-0.571884	-1.134289	0.379635
H131	H	-0.396378	-1.604776	-0.949567
H132	H	0.103622	-1.104776	-0.449567
O133	O	-0.391123	-1.614134	-0.805491
O134	O	0.108877	-1.114134	-0.305491
H135	H	-0.362792	-1.664259	-0.837977
H136	H	0.137208	-1.164259	-0.337977
O137	O	-0.518026	-1.108842	-0.173374
O138	O	-0.018026	-0.608842	0.326626
H139	H	-0.506054	-1.085430	-0.119673
H140	H	-0.006054	-0.585430	0.380327
H141	H	-1.204360	-1.626824	-0.126352
H142	H	-0.704360	-1.126824	0.373648
O143	O	-0.524078	-1.378812	-0.653633
O144	O	-0.024078	-0.878812	-0.153633
H145	H	-0.486944	-1.330074	-0.689820
H146	H	0.013056	-0.830074	-0.189820
O147	O	-0.698776	-1.349751	-0.344911
O148	O	-0.198776	-0.849751	0.155089
H149	H	-0.643114	-1.363619	-0.333925
H150	H	-0.143114	-0.863619	0.166075
H151	H	-0.518798	-1.388134	-0.509559
H152	H	-0.018798	-0.888134	-0.009559
O153	O	-0.552548	-1.328339	-0.836422
O154	O	-0.052548	-0.828339	-0.336422
H155	H	-0.593408	-1.370470	-0.800945
H156	H	-0.093408	-0.870470	-0.300945
H157	H	-0.373247	-1.645796	-0.615042
H158	H	0.126753	-1.145796	-0.115042
H159	H	-0.377898	-1.637573	-0.482576
H160	H	0.122102	-1.137573	0.017424
O161	O	-0.881421	-1.604892	-0.143451
O162	O	-0.381421	-1.104892	0.356549
H163	H	-0.848927	-1.651108	-0.106900
H164	H	-0.348927	-1.151108	0.393100
H165	H	-0.410997	-0.897694	-0.272491
H166	H	0.089003	-0.397694	0.227509
