data_functionalizedCrystal
_audit_creation_method	'MofGen! by Chris Wilmer'
_symmetry_space_group_name_H-M	'P1'
_symmetry_Int_Tables_number	1
_symmetry_cell_setting	triclinic
loop_
_symmetry_equiv_pos_as_xyz
  x,y,z
_cell_length_a	27.780882
_cell_length_b	27.780884
_cell_length_c	27.780936
_cell_angle_alpha	90.002261
_cell_angle_beta	59.997799
_cell_angle_gamma	119.999789
loop_
_atom_site_label
_atom_site_type_symbol
_atom_site_fract_x
_atom_site_fract_y
_atom_site_fract_z
O1	O	0.424592	-0.330213	-0.014321
O2	O	0.326022	-0.260214	0.014251
O3	O	0.424588	-0.260214	-0.084318
O4	O	0.326026	-0.330213	0.084247
O5	O	0.344528	-0.340274	-0.084318
O6	O	0.245962	-0.340274	0.014251
O7	O	0.344532	-0.410273	-0.014321
Cu8	Cu	0.287937	-0.382584	-0.000035
Cu9	Cu	0.382617	-0.287904	-0.000035
O10	O	0.245966	-0.410273	0.084248
C11	C	0.177734	-0.120430	0.029862
C12	C	0.211527	-0.056934	0.025772
C13	C	0.119397	-0.149664	0.030267
C14	C	0.177730	-0.207598	0.029867
C15	C	0.211519	-0.237303	0.025783
C16	C	0.119393	-0.236700	0.030273
C17	C	0.090568	-0.207596	0.029862
C18	C	0.031162	-0.237298	0.025772
C19	C	0.206427	-0.149666	0.030273
C20	C	-0.016831	-0.261295	0.022466
C21	C	0.238829	-0.005636	0.022467
C22	C	0.238818	-0.261301	0.022482
C23	C	-0.077040	-0.291400	0.018321
C24	C	0.273079	0.058719	0.018322
C25	C	0.273065	-0.291409	0.018343
O26	O	-0.234707	-0.410266	-0.014339
O27	O	-0.094711	-0.340265	0.014229
O28	O	-0.094704	-0.340270	-0.084338
O29	O	-0.234714	-0.410261	0.084228
O30	O	-0.094701	-0.260209	-0.084343
O31	O	-0.094708	-0.260204	0.014225
O32	O	-0.234704	-0.330205	-0.014344
Cu33	Cu	-0.164706	-0.287894	-0.000060
Cu34	Cu	-0.164709	-0.382576	-0.000055
O35	O	-0.234711	-0.330200	0.084223
C36	C	0.492828	-0.207603	-0.372394
C37	C	0.459037	-0.237307	-0.402098
C38	C	0.551166	-0.149673	-0.401496
C39	C	0.492828	-0.207604	-0.285228
C40	C	0.459036	-0.237307	-0.221733
C41	C	0.551166	-0.149673	-0.314463
C42	C	0.579994	-0.120438	-0.372393
C43	C	0.639400	-0.056943	-0.402096
C44	C	0.464132	-0.236706	-0.314464
C45	C	0.687394	-0.005646	-0.426092
C46	C	0.431736	-0.261304	-0.426095
C47	C	0.431736	-0.261304	-0.170435
C48	C	0.747605	0.058709	-0.456197
C49	C	0.397486	-0.291409	-0.456201
C50	C	0.397486	-0.291410	-0.106080
C51	C	0.580008	-0.462879	-0.029964
C52	C	0.639417	-0.433174	-0.025878
C53	C	0.551182	-0.520809	-0.030373
C54	C	0.492839	-0.462880	-0.029960
C55	C	0.459045	-0.433178	-0.025869
C56	C	0.464144	-0.520811	-0.030368
C57	C	0.492842	-0.550045	-0.029964
C58	C	0.459052	-0.613540	-0.025878
C59	C	0.551178	-0.433777	-0.030369
C60	C	0.431752	-0.664837	-0.022575
C61	C	0.687412	-0.409177	-0.022576
C62	C	0.431742	-0.409182	-0.022562
C63	C	0.397504	-0.729192	-0.018433
C64	C	0.747625	-0.379070	-0.018434
C65	C	0.397490	-0.379077	-0.018415
O66	O	0.344549	0.249047	-0.014343
O67	O	0.245980	0.080483	0.014226
O68	O	0.344550	0.179042	-0.084342
O69	O	0.245978	0.150488	0.084224
O70	O	0.424607	0.179040	-0.084336
O71	O	0.326036	0.080480	0.014231
O72	O	0.424605	0.249045	-0.014338
Cu73	Cu	0.382630	0.164762	-0.000053
Cu74	Cu	0.287954	0.164765	-0.000059
O75	O	0.326034	0.150486	0.084230
O76	O	0.905273	0.249033	-0.494995
O77	O	0.765273	0.080470	-0.425001
O78	O	0.765270	0.179032	-0.424994
O79	O	0.905276	0.150471	-0.495003
O80	O	0.765272	0.179034	-0.505055
O81	O	0.765275	0.080472	-0.505062
O82	O	0.905275	0.249035	-0.575056
Cu83	Cu	0.835275	0.164754	-0.547369
Cu84	Cu	0.835273	0.164751	-0.452688
O85	O	0.905278	0.150473	-0.575063
O86	O	0.326020	-0.330218	-0.575063
O87	O	0.424588	-0.260215	-0.505065
O88	O	0.326020	-0.260217	-0.505059
O89	O	0.424589	-0.330216	-0.575069
O90	O	0.245961	-0.340275	-0.425000
O91	O	0.344530	-0.340273	-0.425006
O92	O	0.245962	-0.410276	-0.495003
Cu93	Cu	0.287936	-0.382585	-0.452694
Cu94	Cu	0.382614	-0.287906	-0.547374
O95	O	0.344531	-0.410274	-0.495009
C96	C	0.090559	-0.550051	0.372323
C97	C	0.031152	-0.613546	0.402025
C98	C	0.119386	-0.520817	0.401426
C99	C	0.177725	-0.462885	0.285158
C100	C	0.211517	-0.433181	0.221663
C101	C	0.206420	-0.433783	0.314394
C102	C	0.177724	-0.462886	0.372324
C103	C	0.211515	-0.433183	0.402029
C104	C	0.119387	-0.520816	0.314392
C105	C	0.238815	-0.409187	0.426026
C106	C	-0.016842	-0.664843	0.426021
C107	C	0.238818	-0.409184	0.170365
C108	C	0.273064	-0.379082	0.456133
C109	C	-0.077053	-0.729198	0.456125
C110	C	0.273068	-0.379078	0.106010
C111	C	0.177761	-0.120445	-0.372420
C112	C	0.211554	-0.056951	-0.402125
C113	C	0.206457	-0.149682	-0.401521
C114	C	0.090590	-0.207608	-0.285252
C115	C	0.031179	-0.237308	-0.221756
C116	C	0.119418	-0.236712	-0.314485
C117	C	0.177759	-0.207612	-0.372416
C118	C	0.211551	-0.237318	-0.402117
C119	C	0.119420	-0.149677	-0.314489
C120	C	0.238852	-0.261316	-0.426113
C121	C	0.238857	-0.005654	-0.426124
C122	C	-0.016817	-0.261303	-0.170458
C123	C	0.273102	-0.291424	-0.456216
C124	C	0.273109	0.058701	-0.456232
C125	C	-0.077032	-0.291406	-0.106103
C126	C	-0.507174	-0.462860	0.372301
C127	C	-0.540966	-0.433155	0.402003
C128	C	-0.535872	-0.520790	0.401406
C129	C	-0.420004	-0.462864	0.285137
C130	C	-0.360594	-0.433163	0.221642
C131	C	-0.448834	-0.520794	0.314373
C132	C	-0.507175	-0.550027	0.372304
C133	C	-0.540968	-0.613521	0.402010
C134	C	-0.448833	-0.433760	0.314371
C135	C	-0.568270	-0.664818	0.426008
C136	C	-0.568268	-0.409157	0.425999
C137	C	-0.312597	-0.409168	0.170343
C138	C	-0.602522	-0.729173	0.456115
C139	C	-0.602518	-0.379050	0.456103
C140	C	-0.252383	-0.379064	0.105988
C141	C	0.580005	0.194619	-0.372405
C142	C	0.639409	0.190525	-0.402104
C143	C	0.551178	0.195023	-0.401510
C144	C	0.492843	0.194635	-0.285245
C145	C	0.459054	0.190558	-0.221751
C146	C	0.464149	0.195039	-0.314482
C147	C	0.492843	0.194621	-0.372410
C148	C	0.459052	0.190530	-0.402115
C149	C	0.551179	0.195036	-0.314476
C150	C	0.431752	0.187222	-0.426113
C151	C	0.687401	0.187216	-0.426097
C152	C	0.431754	0.187263	-0.170455
C153	C	0.397503	0.183075	-0.456220
C154	C	0.747609	0.183066	-0.456199
C155	C	0.397506	0.183130	-0.106101
O156	O	0.424649	0.249027	-0.575092
O157	O	0.326070	0.080461	-0.505095
O158	O	0.424629	0.179018	-0.505082
O159	O	0.326090	0.150471	-0.575105
O160	O	0.344563	0.179021	-0.425026
O161	O	0.246004	0.080464	-0.425039
O162	O	0.344583	0.249030	-0.495036
Cu163	Cu	0.287983	0.164747	-0.452728
Cu164	Cu	0.382670	0.164744	-0.547403
O165	O	0.246024	0.150474	-0.495049
C166	C	0.177742	0.134906	0.372298
C167	C	0.211532	0.138997	0.402003
C168	C	0.119406	0.134505	0.401398
C169	C	0.177741	0.134893	0.285133
C170	C	0.211531	0.138970	0.221639
C171	C	0.119406	0.134492	0.314364
C172	C	0.090580	0.134909	0.372293
C173	C	0.031176	0.139004	0.401992
C174	C	0.206435	0.134489	0.314370
C175	C	-0.016815	0.142313	0.425985
C176	C	0.238832	0.142304	0.426002
C177	C	0.238831	0.142265	0.170343
C178	C	-0.077023	0.146464	0.456086
C179	C	0.273081	0.146451	0.456109
C180	C	0.273079	0.146398	0.105989
H181	H	0.575284	-0.126201	-0.290985
C182	C	0.583370	-0.118269	-0.464939
C183	C	0.583672	-0.067810	-0.468099
C184	C	0.613351	-0.038860	-0.526534
H185	H	0.557885	-0.143909	-0.478235
H186	H	0.628792	-0.107210	-0.489138
H187	H	0.538258	-0.078870	-0.443909
H188	H	0.609161	-0.042156	-0.454815
H189	H	0.658773	-0.027802	-0.550733
H190	H	0.587863	-0.064505	-0.539826
H191	H	0.613566	-0.004618	-0.528687
H192	H	-0.424704	-0.544265	0.290901
C193	C	0.401644	0.196045	-0.283208
C194	C	0.416828	0.246763	-0.267033
C195	C	0.359272	0.247716	-0.238235
H196	H	0.365338	0.162081	-0.248930
H197	H	0.388615	0.196261	-0.308932
H198	H	0.429848	0.246541	-0.241310
H199	H	0.453124	0.280736	-0.301300
H200	H	0.346243	0.247933	-0.263958
H201	H	0.322970	0.213750	-0.203959
H202	H	0.369568	0.282130	-0.227261
H203	H	0.253408	-0.126207	-0.449117
C204	C	0.583429	0.195862	-0.464967
C205	C	0.640779	0.196106	-0.484302
C206	C	0.670499	0.196874	-0.542750
H207	H	0.596663	0.230228	-0.489234
H208	H	0.551451	0.161843	-0.467229
H209	H	0.672751	0.230122	-0.482044
H210	H	0.627563	0.161743	-0.460051
H211	H	0.638522	0.162854	-0.545013
H212	H	0.683729	0.231240	-0.567012
H213	H	0.709411	0.197034	-0.555875
C214	C	0.269048	-0.370334	0.283184
C215	C	0.288129	-0.351005	0.321206
C216	C	0.345829	-0.292568	0.292472
H217	H	0.258975	-0.346052	0.272134
H218	H	0.305325	-0.368090	0.248954
H219	H	0.251860	-0.353244	0.355426
H220	H	0.298216	-0.375270	0.332259
H221	H	0.382106	-0.290323	0.258242
H222	H	0.335750	-0.268291	0.281423
H223	H	0.358787	-0.279447	0.318264
C224	C	-0.416734	-0.370282	0.283183
C225	C	-0.454482	-0.350932	0.321205
C226	C	-0.424926	-0.292459	0.292499
H227	H	-0.416475	-0.367958	0.248932
H228	H	-0.371336	-0.346063	0.272177
H229	H	-0.499868	-0.375144	0.332203
H230	H	-0.454744	-0.353242	0.355456
H231	H	-0.379528	-0.268241	0.281493
H232	H	-0.424669	-0.290141	0.258249
H233	H	-0.450530	-0.279321	0.318295
H234	H	0.575306	0.195692	-0.291005
C235	C	0.401525	-0.300165	-0.283258
C236	C	0.382436	-0.319504	-0.321273
C237	C	0.324757	-0.377952	-0.292541
H238	H	0.365235	-0.302442	-0.249022
H239	H	0.411644	-0.324421	-0.272226
H240	H	0.372314	-0.295256	-0.332297
H241	H	0.418709	-0.317242	-0.355509
H242	H	0.334876	-0.402207	-0.281509
H243	H	0.288473	-0.380223	-0.258306
H244	H	0.311802	-0.391082	-0.318332
C245	C	0.087318	0.133589	0.282977
C246	C	0.125066	0.133307	0.225883
C247	C	0.095523	0.132469	0.196957
H248	H	0.087072	0.167587	0.280905
H249	H	0.041916	0.099204	0.304154
H250	H	0.170456	0.167689	0.204711
H251	H	0.125314	0.099311	0.227937
H252	H	0.050121	0.098084	0.218133
H253	H	0.095279	0.166469	0.194889
H254	H	0.121127	0.132273	0.158217
H255	H	0.095280	0.133853	0.448996
H256	H	0.417198	-0.544282	-0.031019
C257	C	0.087178	-0.552015	0.464936
C258	C	0.067836	-0.520632	0.500446
C259	C	0.038163	-0.549345	0.558955
H260	H	0.119132	-0.554023	0.467265
H261	H	0.048204	-0.590775	0.478212
H262	H	0.106805	-0.481883	0.487174
H263	H	0.035875	-0.518624	0.498135
H264	H	-0.000811	-0.588105	0.572231
H265	H	0.070121	-0.551351	0.561278
H266	H	0.025030	-0.528059	0.583057
C267	C	0.087377	-0.300164	-0.283276
C268	C	0.125147	-0.319498	-0.321297
C269	C	0.095663	-0.377940	-0.292565
H270	H	0.041972	-0.324439	-0.272229
H271	H	0.087171	-0.302416	-0.249043
H272	H	0.125346	-0.317251	-0.355519
H273	H	0.170551	-0.295240	-0.332345
H274	H	0.095457	-0.380191	-0.258332
H275	H	0.050259	-0.402209	-0.281520
H276	H	0.121289	-0.391063	-0.318356
H277	H	0.575312	-0.544278	-0.031030
C278	C	0.269009	0.133585	0.283183
C279	C	0.288084	0.133319	0.321206
C280	C	0.345718	0.132482	0.292499
H281	H	0.305323	0.167578	0.248934
H282	H	0.258846	0.099194	0.272175
H283	H	0.298250	0.167706	0.332205
H284	H	0.251787	0.099329	0.355456
H285	H	0.335554	0.098091	0.281491
H286	H	0.382026	0.166475	0.258250
H287	H	0.358663	0.132296	0.318295
C288	C	0.583459	-0.370304	-0.031262
C289	C	0.640827	-0.350958	-0.031534
C290	C	0.670581	-0.292491	-0.032361
H291	H	0.551525	-0.367992	0.002737
H292	H	0.596673	-0.346076	-0.065648
H293	H	0.627612	-0.375179	0.002848
H294	H	0.672776	-0.353255	-0.065531
H295	H	0.683795	-0.268263	-0.066747
H296	H	0.638642	-0.290185	0.001639
H297	H	0.709512	-0.279355	-0.032551
C298	C	0.087164	-0.118382	0.031294
C299	C	0.067831	-0.102213	0.082020
C300	C	0.038111	-0.073414	0.083010
H301	H	0.048183	-0.144086	0.031530
H302	H	0.119108	-0.084099	-0.002679
H303	H	0.035889	-0.136491	0.115983
H304	H	0.106799	-0.076502	0.081794
H305	H	0.070055	-0.039132	0.049038
H306	H	-0.000868	-0.099122	0.083245
H307	H	0.024995	-0.062436	0.117424
H308	H	0.095268	-0.284299	0.030928
C309	C	-0.598519	-0.552013	0.464848
C310	C	-0.617627	-0.514006	0.484177
C311	C	-0.675352	-0.542757	0.542604
H312	H	-0.588465	-0.563068	0.489145
H313	H	-0.634777	-0.586241	0.467070
H314	H	-0.581377	-0.479788	0.481960
H315	H	-0.627694	-0.502949	0.459897
H316	H	-0.711609	-0.576986	0.544827
H317	H	-0.665292	-0.553811	0.566896
H318	H	-0.688327	-0.516976	0.555725
H319	H	0.095257	-0.544288	0.290923
H320	H	0.253368	-0.126194	0.030932
C321	C	0.087163	-0.118473	-0.283082
C322	C	0.029802	-0.156496	-0.225983
C323	C	0.000075	-0.127772	-0.197031
H324	H	0.073940	-0.107434	-0.304220
H325	H	0.119133	-0.084238	-0.281028
H326	H	-0.002162	-0.190721	-0.228039
H327	H	0.043007	-0.167538	-0.204829
H328	H	0.032044	-0.093536	-0.194977
H329	H	-0.013145	-0.116733	-0.218174
H330	H	-0.038845	-0.153564	-0.158285
