data_functionalizedCrystal
_audit_creation_method	'MofGen! by Chris Wilmer'
_symmetry_space_group_name_H-M	'P1'
_symmetry_Int_Tables_number	1
_symmetry_cell_setting	triclinic
loop_
_symmetry_equiv_pos_as_xyz
  x,y,z
_cell_length_a	23.096457
_cell_length_b	23.096457
_cell_length_c	14.446369
_cell_angle_alpha	90.000015
_cell_angle_beta	119.993704
_cell_angle_gamma	59.998275
loop_
_atom_site_label
_atom_site_type_symbol
_atom_site_fract_x
_atom_site_fract_y
_atom_site_fract_z
Zr1	Zr	0.633751	0.557754	0.121483
O2	O	0.754528	0.465306	0.269270
O3	O	0.512965	0.586096	0.076181
O4	O	0.633740	0.586098	0.269281
O5	O	0.633765	0.465301	-0.076154
O6	O	0.633742	0.681378	0.269286
O7	O	0.633753	0.465305	0.076170
O8	O	0.417697	0.681375	-0.076134
O9	O	0.849810	0.465304	0.269267
O10	O	0.562651	0.669288	0.056861
O11	O	0.562658	0.598179	-0.056821
O12	O	0.704855	0.598181	0.170530
O13	O	0.704863	0.527072	0.056848
Zr14	Zr	0.633773	0.709710	-0.121447
Zr15	Zr	0.633754	0.709715	0.121492
Zr16	Zr	0.633770	0.557749	-0.121456
Zr17	Zr	0.785714	0.557751	0.121478
Zr18	Zr	0.481810	0.709713	-0.121442
O19	O	0.754559	0.681368	-0.076145
O20	O	0.754532	0.681375	0.269283
O21	O	0.754555	0.465299	-0.076157
O22	O	0.512996	0.802158	-0.269234
O23	O	0.512969	0.802165	0.076193
O24	O	0.512992	0.586089	-0.269247
O25	O	0.633759	0.802163	0.076190
O26	O	0.633784	0.681366	-0.269245
O27	O	0.633782	0.586086	-0.269250
O28	O	0.633771	0.802159	-0.076134
O29	O	0.849812	0.586093	0.269274
O30	O	0.417712	0.681371	-0.269238
O31	O	0.417714	0.802160	-0.269231
O32	O	0.417699	0.802164	-0.076127
O33	O	0.849825	0.465300	0.076163
O34	O	0.849827	0.586089	0.076171
O35	O	0.562668	0.669283	-0.170494
O36	O	0.562661	0.740392	-0.056812
O37	O	0.704865	0.669285	0.056857
O38	O	0.704873	0.598176	-0.056825
C39	C	0.443680	0.633736	0.000024
C40	C	0.379168	0.633737	0.000026
C41	C	-0.081354	0.670852	0.059340
C42	C	-0.020734	0.670850	0.059350
C43	C	0.009582	0.633733	0.000009
C44	C	-0.020711	0.596600	-0.059323
C45	C	-0.081324	0.596597	-0.059322
N46	N	0.071983	0.638883	-0.096558
N47	N	0.129562	0.638890	-0.096557
C48	C	0.192208	0.633738	0.000006
N49	N	0.195092	0.628593	0.096566
N50	N	0.137506	0.628590	0.096562
C51	C	0.075308	0.633731	0.000003
C52	C	0.288229	0.670863	0.059352
C53	C	0.348854	0.670856	0.059366
C54	C	0.348870	0.596610	-0.059318
C55	C	0.288252	0.596613	-0.059321
C56	C	0.257933	0.633743	0.000012
C57	C	0.633759	0.443652	0.000007
C58	C	0.633758	0.379140	0.000003
C59	C	0.559530	0.385952	-0.059320
C60	C	0.559529	0.325336	-0.059325
C61	C	0.633760	0.257910	0.000015
C62	C	0.707997	0.251101	0.059341
C63	C	0.707996	0.311716	0.059335
N64	N	0.689009	0.135115	0.096591
N65	N	0.689005	0.077535	0.096595
C66	C	0.633767	0.075277	0.000036
N67	N	0.578521	0.132779	-0.096526
N68	N	0.578522	0.190365	-0.096527
C69	C	0.633769	0.192178	0.000028
C70	C	0.559533	0.016365	-0.059298
C71	C	0.559535	-0.044253	-0.059306
C72	C	0.708005	-0.118489	0.059371
C73	C	0.708001	-0.057871	0.059368
C74	C	0.633763	0.009553	0.000036
C75	C	0.823844	0.633728	0.000012
C76	C	0.888356	0.633727	0.000010
C77	C	0.633738	0.633738	0.303897
C78	C	0.633730	0.633741	0.407031
C79	C	0.633765	0.823812	0.000029
C80	C	0.633766	0.888324	0.000033
C81	C	0.544045	0.678814	0.482016
C82	C	0.543989	0.678617	0.374691
C83	C	0.678277	0.556478	0.481582
C84	C	0.677703	0.556728	0.588437
C85	C	0.679552	0.665312	0.590017
C86	C	0.677866	0.666873	0.481349
C87	C	0.633775	0.633731	0.696130
C88	C	0.633750	0.633744	0.592971
C89	C	0.443683	0.823816	0.000035
C90	C	0.379172	0.888329	0.000041
C91	C	0.443703	0.633730	-0.303855
C92	C	0.379199	0.633729	-0.406987
C93	C	0.443707	0.823810	-0.303844
C94	C	0.379203	0.888320	-0.406972
C95	C	0.823817	0.443654	0.303880
C96	C	0.888320	0.379143	0.407008
C97	C	0.823841	0.443648	0.000001
C98	C	0.888352	0.379135	-0.000005
C99	C	0.823821	0.633734	0.303891
C100	C	0.888325	0.633735	0.407023
C101	C	0.348872	0.881509	0.059390
C102	C	0.288265	0.942120	0.059418
C103	C	0.257956	1.009550	0.000089
C104	C	0.288262	1.016369	-0.059261
C105	C	0.348872	0.955758	-0.059282
C106	C	0.348913	0.670844	-0.514765
C107	C	0.288313	0.670840	-0.611678
C108	C	0.257996	0.633725	-0.600810
C109	C	0.288289	0.596606	-0.493020
C110	C	0.348892	0.596605	-0.396110
C111	C	0.348908	0.955740	-0.396062
C112	C	0.288309	1.016360	-0.492952
C113	C	0.258002	1.009560	-0.600752
C114	C	0.288304	0.942133	-0.611660
C115	C	0.348906	0.881514	-0.514771
C116	C	0.918623	0.311724	0.396098
C117	C	0.979241	0.251104	0.492988
C118	C	1.009551	0.257904	0.600788
C119	C	0.979246	0.325331	0.611696
C120	C	0.918633	0.385950	0.514807
C121	C	0.918659	0.385955	-0.059343
C122	C	0.979282	0.325344	-0.059345
C123	C	1.009593	0.257914	-0.000013
C124	C	0.979284	0.251095	0.059333
C125	C	0.918666	0.311706	0.059340
C126	C	0.918622	0.670858	0.396119
C127	C	0.979222	0.670872	0.493013
C128	C	1.009529	0.633760	0.600810
C129	C	0.979225	0.596637	0.611712
C130	C	0.918622	0.596627	0.514819
H131	H	-0.105985	0.566364	-0.107636
O132	O	1.011916	0.178384	0.481211
H133	H	1.000292	0.148989	0.522536
H134	H	1.003949	0.330909	-0.107676
O135	O	0.479463	0.089087	-0.123301
H136	H	0.475902	0.118478	-0.063391
H137	H	0.499088	-0.038701	-0.107623
H138	H	0.373575	0.961291	-0.308294
O139	O	0.885978	0.458676	-0.123341
H140	H	0.838729	0.499685	-0.113384
H141	H	0.208649	0.633731	-0.679729
H142	H	0.373564	0.826621	-0.523670
H143	H	1.003973	0.196186	0.107639
H144	H	0.263596	0.566387	-0.484188
O145	O	0.885981	0.304340	0.123342
H146	H	0.838740	0.357809	0.113395
H147	H	1.058952	0.208567	-0.000028
O148	O	0.255539	0.710891	0.123369
H149	H	0.188680	0.751920	0.063470
O150	O	0.011949	0.710891	0.123347
H151	H	0.000324	0.751908	0.063435
O152	O	0.381532	0.710896	0.123364
H153	H	0.350258	0.736717	0.164611
H154	H	0.373543	0.566384	-0.308356
H155	H	1.058905	0.208539	0.679672
H156	H	0.647335	0.531026	0.429981
H157	H	0.509010	0.657119	0.480982
H158	H	0.373534	0.961321	-0.107618
H159	H	1.003932	0.330859	0.699478
O160	O	0.255662	1.089070	-0.481139
H161	H	0.267330	1.118448	-0.522410
H162	H	0.744260	0.521438	0.508808
H163	H	0.743518	0.521319	0.667010
O164	O	0.885958	0.556578	0.526603
H165	H	0.819098	0.594042	0.485316
O166	O	0.764594	0.627900	0.515157
H167	H	0.771991	0.665215	0.481907
O168	O	0.192629	1.074944	-0.705252
H169	H	0.176652	1.122966	-0.679543
H170	H	0.745642	0.632628	0.668209
O171	O	0.255602	0.934802	-0.727933
H172	H	0.208363	0.988285	-0.793463
H173	H	0.373549	0.826610	0.107716
O174	O	0.255577	0.934759	0.123424
H175	H	0.286828	0.877687	0.164653
O176	O	0.381547	0.556587	-0.123344
H177	H	0.428777	0.562833	-0.113390
O178	O	1.074904	0.633763	0.705314
H179	H	1.090884	0.665806	0.679610
O180	O	0.011951	0.556596	-0.123378
H181	H	0.059171	0.562852	-0.113439
O182	O	0.885931	0.710897	0.279857
H183	H	0.917179	0.736718	0.288571
O184	O	0.885940	0.458667	0.526580
H185	H	0.917197	0.453204	0.617820
H186	H	1.003910	0.566421	0.699494
H187	H	0.499083	0.330883	-0.107634
H188	H	0.208603	1.058897	0.000115
O189	O	1.011903	0.710911	0.481242
H190	H	0.980654	0.736704	0.390004
O191	O	0.255600	0.556547	-0.123274
H192	H	0.286870	0.530729	-0.164526
O193	O	0.885937	0.304382	0.279832
H194	H	0.936820	0.274960	0.269969
O195	O	-0.114041	0.710886	0.123354
H196	H	-0.141650	0.767934	0.089071
O197	O	0.479462	0.458672	-0.123314
H198	H	0.443871	0.464835	-0.214513
O199	O	0.788062	0.178380	0.123359
H200	H	0.775593	0.137374	0.113411
H201	H	0.768442	0.306164	0.107641
O202	O	0.788070	-0.191207	0.123372
H203	H	0.823662	-0.197364	0.214569
O204	O	0.788056	-0.065204	0.123378
H205	H	0.823672	-0.094643	0.089106
O206	O	0.497684	0.753977	0.302788
H207	H	0.475127	0.790891	0.344535
H208	H	0.508809	0.656722	0.320907
O209	O	0.497393	0.754374	0.478917
H210	H	0.537639	0.760615	0.556427
H211	H	0.646042	0.531455	0.588167
O212	O	0.641534	0.739537	0.595481
H213	H	0.619029	0.776993	0.518327
O214	O	0.634841	0.742274	0.413252
H215	H	0.636235	0.742726	0.337572
O216	O	0.255562	1.089098	-0.123261
H217	H	0.208318	1.130092	-0.113281
H218	H	0.373590	0.701068	-0.523636
O219	O	0.255633	0.710891	-0.727929
H220	H	0.286885	0.736711	-0.719195
