data_functionalizedCrystal
_audit_creation_method	'MofGen! by Chris Wilmer'
_symmetry_space_group_name_H-M	'P1'
_symmetry_Int_Tables_number	1
_symmetry_cell_setting	triclinic
loop_
_symmetry_equiv_pos_as_xyz
  x,y,z
_cell_length_a	19.077115
_cell_length_b	12.827892
_cell_length_c	19.076919
_cell_angle_alpha	92.275345
_cell_angle_beta	90.076897
_cell_angle_gamma	87.711885
loop_
_atom_site_label
_atom_site_type_symbol
_atom_site_fract_x
_atom_site_fract_y
_atom_site_fract_z
Zn1	Zn	1.058323	-0.505562	-0.440427
Zn2	Zn	1.558323	-0.005562	0.059573
Zn3	Zn	1.062980	-0.673587	-0.322927
Zn4	Zn	1.562980	-0.173587	0.177073
Zn5	Zn	0.945539	-0.491562	-0.318221
Zn6	Zn	1.445539	0.008438	0.181779
Zn7	Zn	0.940802	-0.672956	-0.435681
Zn8	Zn	1.440802	-0.172956	0.064319
O9	O	1.001911	-0.585917	-0.379314
O10	O	1.501911	-0.085917	0.120686
O11	O	1.157273	-0.533973	-0.428796
O12	O	1.657273	-0.033973	0.071204
O13	O	1.051333	-0.643846	-0.223971
O14	O	1.551333	-0.143846	0.276029
O15	O	0.960534	-0.347186	-0.334448
O16	O	1.460534	0.152814	0.165552
O17	O	1.160695	-0.657420	-0.342469
O18	O	1.660695	-0.157420	0.157531
O19	O	1.043395	-0.357471	-0.424232
O20	O	1.543395	0.142529	0.075768
O21	O	0.965050	-0.510113	-0.220513
O22	O	1.465050	-0.010113	0.279487
O23	O	0.846578	-0.509502	-0.329846
O24	O	1.346578	-0.009502	0.170154
O25	O	0.952460	-0.656346	-0.534642
O26	O	1.452460	-0.156346	-0.034642
O27	O	0.843098	-0.642772	-0.416144
O28	O	1.343098	-0.142772	0.083856
O29	O	1.038802	-0.533362	-0.538129
O30	O	1.538802	-0.033362	-0.038129
O31	O	1.046740	-0.819736	-0.337867
O32	O	1.546740	-0.319736	0.162133
O33	O	0.956976	-0.819273	-0.420707
O34	O	1.456976	-0.319273	0.079293
C35	C	0.819342	-0.574550	-0.371970
C36	C	1.319342	-0.074550	0.128030
C37	C	0.741237	-0.569714	-0.368845
C38	C	1.241237	-0.069714	0.131155
C39	C	1.001868	-0.857423	-0.379299
C40	C	1.501868	-0.357423	0.120701
C41	C	1.001912	-0.973580	-0.379319
C42	C	1.501912	-0.473580	0.120681
C43	C	0.301783	-0.534980	-0.346438
C44	C	0.801783	-0.034980	0.153562
C45	C	0.375170	-0.539531	-0.349378
C46	C	0.875170	-0.039531	0.150622
C47	C	0.410071	-0.611298	-0.395706
C48	C	0.910071	-0.111298	0.104294
C49	C	0.371580	-0.678512	-0.439101
C50	C	0.871580	-0.178512	0.060899
C51	C	0.298194	-0.673956	-0.436164
C52	C	0.798194	-0.173956	0.063836
C53	C	0.629360	-0.632371	-0.409303
C54	C	1.129360	-0.132371	0.090697
C55	C	0.702752	-0.636925	-0.412235
C56	C	1.202752	-0.136925	0.087765
C57	C	0.706337	-0.497942	-0.322513
C58	C	1.206337	0.002058	0.177487
C59	C	0.632949	-0.493396	-0.319577
C60	C	1.132949	0.006604	0.180423
C61	C	0.594464	-0.560606	-0.362975
C62	C	1.094464	-0.060606	0.137025
N63	N	0.485085	-0.615953	-0.398710
N64	N	0.985085	-0.115953	0.101290
N65	N	0.519452	-0.555945	-0.359973
N66	N	1.019452	-0.055945	0.140027
C67	C	1.042894	-1.030372	-0.423784
C68	C	1.542894	-0.530372	0.076216
C69	C	1.042942	-1.150426	-0.423806
C70	C	1.542942	-0.650426	0.076194
C71	C	1.185193	-0.597328	-0.386687
C72	C	1.685193	-0.097328	0.113313
C73	C	1.263297	-0.602191	-0.389829
C74	C	1.763297	-0.102191	0.110171
C75	C	0.994583	-0.596345	-0.562594
C76	C	1.494583	-0.096345	-0.062594
C77	C	0.991460	-0.600789	-0.640698
C78	C	1.491460	-0.100789	-0.140698
C79	C	1.001973	-0.313352	-0.379345
C80	C	1.501973	0.186648	0.120655
C81	C	1.002000	-0.197201	-0.379358
C82	C	1.502000	0.302799	0.120642
C83	C	1.034944	-0.538849	-0.679207
C84	C	1.534944	-0.038849	-0.179207
C85	C	1.032001	-0.543020	-0.752593
C86	C	1.532001	-0.043020	-0.252593
C87	C	0.985577	-0.609138	-0.787469
C88	C	1.485577	-0.109138	-0.287469
C89	C	0.942088	-0.671081	-0.748954
C90	C	1.442088	-0.171081	-0.248954
C91	C	0.945028	-0.666903	-0.675569
C92	C	1.445028	-0.166903	-0.175569
C93	C	0.971961	-0.628492	-1.006751
C94	C	1.471961	-0.128492	-0.506751
C95	C	0.969026	-0.632667	-1.080141
C96	C	1.469026	-0.132667	-0.580141
C97	C	1.058939	-0.504604	-1.083775
C98	C	1.558939	-0.004604	-0.583775
C99	C	1.061877	-0.500437	-1.010389
C100	C	1.561877	-0.000437	-0.510389
C101	C	1.018386	-0.562376	-0.971880
C102	C	1.518386	-0.062376	-0.471880
N103	N	0.982570	-0.613405	-0.862481
N104	N	1.482570	-0.113405	-0.362481
N105	N	1.021390	-0.558102	-0.896869
N106	N	1.521390	-0.058102	-0.396869
C107	C	1.009251	-0.575456	-0.196748
C108	C	1.509251	-0.075456	0.303252
C109	C	1.012510	-0.570726	-0.118650
C110	C	1.512510	-0.070726	0.381350
H111	H	0.273372	-0.476541	-0.308712
H112	H	0.773372	0.023459	0.191288
H113	H	1.077943	-0.990116	-0.461840
H114	H	1.577943	-0.490116	0.038160
F115	F	0.892677	-0.741444	-0.786072
F116	F	1.392677	-0.241444	-0.286072
F117	F	0.416126	-0.467989	-0.303200
F118	F	0.916126	0.032011	0.196800
H119	H	1.099683	-0.446600	-0.981999
H120	H	1.599683	0.053400	-0.481999
H121	H	0.604538	-0.434963	-0.281847
H122	H	1.104538	0.065037	0.218153
H123	H	1.072750	-0.485011	-0.650817
H124	H	1.572750	0.014989	-0.150817
H125	H	1.078031	-1.199247	-0.461872
H126	H	1.578031	-0.699247	0.038128
F127	F	0.898744	-0.732826	-0.634584
F128	F	1.398744	-0.232826	-0.134584
F129	F	0.739894	-0.713313	-0.461545
F130	F	1.239894	-0.213313	0.038455
H131	H	0.966914	-1.148388	-0.341284
H132	H	1.466914	-0.648388	0.158716
F133	F	0.747300	-0.426414	-0.276331
F134	F	1.247300	0.073586	0.223669
H135	H	0.966858	-1.013838	-0.341269
H136	H	1.466858	-0.513838	0.158731
F137	F	1.105220	-0.438686	-1.124764
F138	F	1.605220	0.061314	-0.624764
H139	H	0.400002	-0.736942	-0.476825
H140	H	0.900002	-0.236942	0.023175
F141	F	1.078307	-0.477131	-0.793576
F142	F	1.578307	0.022869	-0.293576
F143	F	0.925673	-0.694413	-0.965776
F144	F	1.425673	-0.194413	-0.465776
F145	F	0.588411	-0.703907	-0.455489
F146	F	1.088411	-0.203907	0.044511
F147	F	0.257235	-0.745488	-0.482348
F148	F	0.757235	-0.245488	0.017652
H149	H	0.931220	-0.686510	-1.108534
H150	H	1.431220	-0.186510	-0.608534
