data_functionalizedCrystal
_audit_creation_method	'MofGen! by Chris Wilmer'
_symmetry_space_group_name_H-M	'P1'
_symmetry_Int_Tables_number	1
_symmetry_cell_setting	triclinic
loop_
_symmetry_equiv_pos_as_xyz
  x,y,z
_cell_length_a	10.654550
_cell_length_b	10.654550
_cell_length_c	9.130313
_cell_angle_alpha	89.995631
_cell_angle_beta	89.999724
_cell_angle_gamma	84.484931
loop_
_atom_site_label
_atom_site_type_symbol
_atom_site_fract_x
_atom_site_fract_y
_atom_site_fract_z
O1	O	1.667839	0.176399	-0.121690
O2	O	2.167839	0.676399	0.378310
O3	O	1.302361	0.193205	-0.121716
O4	O	1.802361	0.693205	0.378284
O5	O	1.493503	0.002063	-0.121693
O6	O	1.993503	0.502063	0.378307
O7	O	1.476697	0.367541	-0.121713
O8	O	1.976697	0.867541	0.378287
O9	O	1.493490	0.002057	0.121906
O10	O	1.993490	0.502057	0.621906
O11	O	1.302348	0.193199	0.121882
O12	O	1.802348	0.693199	0.621882
O13	O	1.667826	0.176393	0.121909
O14	O	2.167826	0.676393	0.621909
Cu15	Cu	1.485086	0.184796	0.144138
Cu16	Cu	1.985086	0.684796	0.644138
Cu17	Cu	1.485101	0.184802	-0.143946
Cu18	Cu	1.985101	0.684802	0.356054
O19	O	1.476684	0.367535	0.121886
O20	O	1.976684	0.867535	0.621886
C21	C	1.255556	0.191968	0.000080
C22	C	1.755556	0.691968	0.500080
C23	C	1.116113	0.188276	0.000070
C24	C	1.616113	0.688276	0.500070
C25	C	1.036628	0.300818	0.000068
C26	C	1.536628	0.800818	0.500068
C27	C	0.905607	0.297341	0.000093
C28	C	1.405607	0.797341	0.500093
C29	C	0.933570	0.068772	0.000117
C30	C	1.433570	0.568772	0.500117
C31	C	1.064588	0.072250	0.000101
C32	C	1.564588	0.572250	0.500101
C33	C	1.492263	-0.044738	0.000105
C34	C	1.992263	0.455262	0.500105
C35	C	1.488571	-0.184181	0.000103
C36	C	1.988571	0.315819	0.500103
C37	C	1.601112	-0.263667	0.000111
C38	C	2.101112	0.236333	0.500111
C39	C	1.597636	-0.394688	0.000092
C40	C	2.097636	0.105312	0.500092
C41	C	1.369066	-0.366725	0.000065
C42	C	1.869066	0.133275	0.500065
C43	C	1.372544	-0.235706	0.000073
C44	C	1.872544	0.264294	0.500073
C45	C	1.714631	0.177630	0.000110
C46	C	2.214631	0.677630	0.500110
C47	C	1.854074	0.181322	0.000110
C48	C	2.354074	0.681322	0.500110
C49	C	1.477925	0.414336	0.000084
C50	C	1.977925	0.914336	0.500084
C51	C	1.481616	0.553779	0.000077
C52	C	1.981616	1.053779	0.500077
N53	N	1.485084	0.184790	0.346761
N54	N	1.985084	0.684790	0.846761
N55	N	1.485113	0.184798	-0.346568
N56	N	1.985113	0.684798	0.153432
C57	C	1.569751	0.100188	0.423423
C58	C	2.069751	0.600188	0.923423
C59	C	1.569763	0.100189	0.576760
C60	C	2.069763	0.600189	1.076760
C61	C	1.400437	0.269404	0.576759
C62	C	1.900437	0.769404	1.076759
C63	C	1.400420	0.269396	0.423425
C64	C	1.900420	0.769396	0.923425
H65	H	0.891602	-0.025693	0.000151
H66	H	1.391602	0.474307	0.500151
H67	H	1.274601	-0.408693	0.000043
H68	H	1.774601	0.091307	0.500043
F69	F	1.310297	0.359441	0.341829
F70	F	1.810297	0.859441	0.841829
F71	F	1.659854	0.010140	0.341838
F72	F	2.159854	0.510140	0.841838
H73	H	0.840894	0.388984	0.000095
H74	H	1.340894	0.888984	0.500095
H75	H	1.638704	0.031297	0.639174
H76	H	2.138704	0.531297	1.139174
H77	H	1.280893	-0.170985	0.000062
H78	H	1.780893	0.329015	0.500062
F79	F	1.091460	0.424303	0.000040
F80	F	1.591460	0.924303	0.500040
H81	H	1.129309	-0.019401	0.000107
H82	H	1.629309	0.480599	0.500107
H83	H	1.331508	0.338290	0.639194
H84	H	1.831508	0.838290	1.139194
H85	H	1.695588	-0.221720	0.000132
H86	H	2.195588	0.278280	0.500132
F87	F	1.717418	-0.479278	0.000098
F88	F	2.217418	0.020722	0.500098
