data_functionalizedCrystal
_audit_creation_method	'MofGen! by Chris Wilmer'
_symmetry_space_group_name_H-M	'P1'
_symmetry_Int_Tables_number	1
_symmetry_cell_setting	triclinic
loop_
_symmetry_equiv_pos_as_xyz
  x,y,z
_cell_length_a	18.215407
_cell_length_b	18.050589
_cell_length_c	18.215399
_cell_angle_alpha	89.976397
_cell_angle_beta	89.980167
_cell_angle_gamma	90.028669
loop_
_atom_site_label
_atom_site_type_symbol
_atom_site_fract_x
_atom_site_fract_y
_atom_site_fract_z
Zn1	Zn	1.125055	-0.295658	-0.416138
Zn2	Zn	1.458388	0.037675	-0.082805
Zn3	Zn	1.791722	0.371008	0.250529
Zn4	Zn	1.124956	-0.419853	-0.293081
Zn5	Zn	1.458289	-0.086520	0.040252
Zn6	Zn	1.791623	0.246813	0.373586
Zn7	Zn	1.001987	-0.295682	-0.293085
Zn8	Zn	1.335321	0.037651	0.040248
Zn9	Zn	1.668654	0.370984	0.373581
Zn10	Zn	1.001946	-0.419812	-0.416106
Zn11	Zn	1.335280	-0.086479	-0.082773
Zn12	Zn	1.668613	0.246855	0.250561
O13	O	1.063486	-0.357751	-0.354603
O14	O	1.396820	-0.024418	-0.021269
O15	O	1.730153	0.308915	0.312064
O16	O	1.228026	-0.312140	-0.399826
O17	O	1.561359	0.021193	-0.066493
O18	O	1.894693	0.354527	0.266841
O19	O	1.108620	-0.403409	-0.190097
O20	O	1.441953	-0.070076	0.143236
O21	O	1.775287	0.263258	0.476569
O22	O	1.018371	-0.191755	-0.309424
O23	O	1.351705	0.141579	0.023909
O24	O	1.685038	0.474912	0.357243
O25	O	1.227953	-0.403386	-0.309417
O26	O	1.561287	-0.070052	0.023917
O27	O	1.894620	0.263281	0.357250
O28	O	1.108788	-0.191737	-0.399830
O29	O	1.442122	0.141597	-0.066497
O30	O	1.775455	0.474930	0.266837
O31	O	1.018275	-0.312181	-0.190101
O32	O	1.351609	0.021152	0.143233
O33	O	1.684942	0.354485	0.476566
O34	O	0.898998	-0.312141	-0.309393
O35	O	1.232331	0.021192	0.023941
O36	O	1.565664	0.354525	0.357274
O37	O	1.018301	-0.403315	-0.519095
O38	O	1.351634	-0.069982	-0.185761
O39	O	1.684968	0.263352	0.147572
O40	O	0.898967	-0.403339	-0.399775
O41	O	1.232301	-0.070005	-0.066442
O42	O	1.565634	0.263328	0.266891
O43	O	1.108748	-0.312100	-0.519118
O44	O	1.442082	0.021233	-0.185785
O45	O	1.775415	0.354567	0.147549
O46	O	1.108580	-0.523772	-0.309385
O47	O	1.441913	-0.190439	0.023948
O48	O	1.775247	0.142894	0.357281
O49	O	1.018205	-0.523742	-0.399771
O50	O	1.351538	-0.190409	-0.066438
O51	O	1.684872	0.142925	0.266895
C52	C	0.872280	-0.357739	-0.354582
C53	C	1.205613	-0.024405	-0.021248
C54	C	1.538947	0.308928	0.312085
C55	C	0.790481	-0.357751	-0.354590
C56	C	1.123814	-0.024418	-0.021257
C57	C	1.457148	0.308915	0.312077
C58	C	1.063397	-0.550704	-0.354590
C59	C	1.396731	-0.217370	-0.021257
C60	C	1.730064	0.115963	0.312076
C61	C	1.063427	-0.633249	-0.354610
C62	C	1.396760	-0.299916	-0.021277
C63	C	1.730093	0.033417	0.312057
C64	C	0.602291	-0.405312	-0.401593
C65	C	0.935624	-0.071979	-0.068260
C66	C	1.268957	0.261354	0.265073
C67	C	0.525432	-0.405315	-0.401602
C68	C	0.858765	-0.071981	-0.068269
C69	C	1.192098	0.261352	0.265064
C70	C	0.525434	-0.310204	-0.307628
C71	C	0.858767	0.023129	0.025705
C72	C	1.192100	0.356463	0.359038
C73	C	0.602291	-0.310199	-0.307623
C74	C	0.935624	0.023135	0.025710
C75	C	1.268958	0.356468	0.359043
C76	C	0.640718	-0.357757	-0.354605
C77	C	0.974051	-0.024424	-0.021271
C78	C	1.307384	0.308910	0.312062
C79	C	0.487001	-0.357765	-0.354619
C80	C	0.820335	-0.024431	-0.021285
C81	C	1.153668	0.308902	0.312048
C82	C	0.403668	-0.357767	-0.354628
C83	C	0.737001	-0.024434	-0.021295
C84	C	1.070334	0.308900	0.312038
C85	C	0.724056	-0.357754	-0.354596
C86	C	1.057390	-0.024421	-0.021263
C87	C	1.390723	0.308913	0.312070
C88	C	1.014329	-0.832710	-0.403744
C89	C	1.347662	-0.499377	-0.070411
C90	C	1.680996	-0.166044	0.262922
C91	C	0.996389	-0.882151	-0.336590
C92	C	1.329723	-0.548818	-0.003257
C93	C	1.663056	-0.215484	0.330076
C94	C	1.063499	-0.784380	-0.354619
C95	C	1.396832	-0.451046	-0.021286
C96	C	1.730166	-0.117713	0.312047
C97	C	1.081475	-0.882021	-0.421781
C98	C	1.414808	-0.548688	-0.088448
C99	C	1.748141	-0.215354	0.244885
C100	C	1.063567	-0.930365	-0.354635
C101	C	1.396901	-0.597031	-0.021301
C102	C	1.730234	-0.263698	0.312032
C103	C	1.045524	-0.832733	-0.287430
C104	C	1.378857	-0.499400	0.045904
C105	C	1.712191	-0.166066	0.379237
C106	C	1.130641	-0.832599	-0.372666
C107	C	1.463974	-0.499265	-0.039333
C108	C	1.797307	-0.165932	0.294001
C109	C	1.112726	-0.882017	-0.305466
C110	C	1.446060	-0.548683	0.027868
C111	C	1.779393	-0.215350	0.361201
C112	C	1.063458	-0.700281	-0.354612
C113	C	1.396791	-0.366948	-0.021278
C114	C	1.730124	-0.033615	0.312055
C115	C	1.063609	-1.014461	-0.354635
C116	C	1.396942	-0.681128	-0.021301
C117	C	1.730276	-0.347795	0.312032
C118	C	1.255439	-0.357765	-0.354624
C119	C	1.588772	-0.024431	-0.021291
C120	C	1.922106	0.308902	0.312042
C121	C	1.337238	-0.357770	-0.354634
C122	C	1.670571	-0.024437	-0.021300
C123	C	2.003905	0.308896	0.312033
C124	C	1.063531	-0.357700	-0.546556
C125	C	1.396864	-0.024367	-0.213222
C126	C	1.730198	0.308966	0.120111
C127	C	1.063550	-0.357678	-0.628355
C128	C	1.396883	-0.024345	-0.295021
C129	C	1.730217	0.308988	0.038312
C130	C	1.063595	-0.164046	-0.354631
C131	C	1.396929	0.169288	-0.021298
C132	C	1.730262	0.502621	0.312036
C133	C	1.063642	-0.081500	-0.354643
C134	C	1.396975	0.251833	-0.021310
C135	C	1.730309	0.585167	0.312024
C136	C	1.110663	-0.310138	-0.816562
C137	C	1.443996	0.023195	-0.483229
C138	C	1.777330	0.356528	-0.149895
C139	C	1.110672	-0.310117	-0.893421
C140	C	1.444005	0.023217	-0.560088
C141	C	1.777338	0.356550	-0.226754
C142	C	1.016489	-0.405104	-0.893385
C143	C	1.349823	-0.071770	-0.560052
C144	C	1.683156	0.261563	-0.226718
C145	C	1.016477	-0.405121	-0.816528
C146	C	1.349811	-0.071788	-0.483194
C147	C	1.683144	0.261546	-0.149861
C148	C	1.063568	-0.357639	-0.778118
C149	C	1.396902	-0.024306	-0.444785
C150	C	1.730235	0.309027	-0.111452
C151	C	1.063589	-0.357600	-0.931834
C152	C	1.396922	-0.024267	-0.598501
C153	C	1.730256	0.309066	-0.265168
C154	C	1.063598	-0.357577	-1.015168
C155	C	1.396932	-0.024244	-0.681835
C156	C	1.730265	0.309089	-0.348501
C157	C	1.063558	-0.357661	-0.694779
C158	C	1.396892	-0.024328	-0.361446
C159	C	1.730225	0.309005	-0.028113
C160	C	1.063484	-0.357749	-0.163396
C161	C	1.396817	-0.024416	0.169937
C162	C	1.730151	0.308918	0.503270
C163	C	1.063607	-0.357561	-0.081598
C164	C	1.396941	-0.024228	0.251735
C165	C	1.730274	0.309105	0.585069
H166	H	0.633575	-0.444035	-0.439850
H167	H	0.966908	-0.110702	-0.106517
H168	H	1.300242	0.222631	0.226816
H169	H	0.494148	-0.444038	-0.439866
H170	H	0.827481	-0.110705	-0.106533
H171	H	1.160815	0.222629	0.226800
C172	C	0.954896	-0.829265	-0.191748
C173	C	1.288230	-0.495932	0.141585
C174	C	1.621563	-0.162599	0.474919
C175	C	1.024943	-0.803637	-0.210739
C176	C	1.358277	-0.470303	0.122594
C177	C	1.691610	-0.136970	0.455927
H178	H	0.942193	-0.811305	-0.144402
H179	H	1.275526	-0.477971	0.188931
H180	H	1.608859	-0.144638	0.522264
H181	H	0.920170	-0.811985	-0.226661
H182	H	1.253504	-0.478651	0.106673
H183	H	1.586837	-0.145318	0.440006
H184	H	0.954826	-0.881891	-0.191289
H185	H	1.288159	-0.548557	0.142044
H186	H	1.621493	-0.215224	0.475377
H187	H	1.025012	-0.751011	-0.211203
H188	H	1.358345	-0.417678	0.122130
H189	H	1.691679	-0.084345	0.455463
H190	H	1.059678	-0.820913	-0.175817
H191	H	1.393011	-0.487580	0.157516
H192	H	1.726345	-0.154247	0.490849
C193	C	0.923029	-0.863315	-0.493827
C194	C	1.256362	-0.529981	-0.160493
C195	C	1.589696	-0.196648	0.172840
C196	C	0.958117	-0.803476	-0.459746
C197	C	1.291450	-0.470143	-0.126413
C198	C	1.624783	-0.136810	0.206920
H199	H	0.888322	-0.845264	-0.528393
H200	H	1.221656	-0.511931	-0.195060
H201	H	1.554989	-0.178597	0.138274
H202	H	0.958443	-0.892941	-0.518359
H203	H	1.291777	-0.559608	-0.185026
H204	H	1.625110	-0.226274	0.148307
H205	H	0.898514	-0.892313	-0.457839
H206	H	1.231848	-0.558980	-0.124505
H207	H	1.565181	-0.225646	0.208828
H208	H	0.982636	-0.774480	-0.495734
H209	H	1.315969	-0.441147	-0.162400
H210	H	1.649303	-0.107814	0.170933
H211	H	0.922697	-0.773837	-0.435213
H212	H	1.256030	-0.440504	-0.101880
H213	H	1.589364	-0.107171	0.231454
C214	C	0.920815	-0.989104	-0.315565
C215	C	1.254148	-0.655770	0.017768
C216	C	1.587481	-0.322437	0.351101
C217	C	0.919782	-0.911539	-0.315985
C218	C	1.253115	-0.578206	0.017349
C219	C	1.586448	-0.244873	0.350682
H220	H	0.873520	-1.007243	-0.302844
H221	H	1.206853	-0.673910	0.030490
H222	H	1.540187	-0.340576	0.363823
H223	H	0.933894	-1.006698	-0.362930
H224	H	1.267228	-0.673365	-0.029597
H225	H	1.600561	-0.340031	0.303737
H226	H	0.955724	-1.005972	-0.280627
H227	H	1.289057	-0.672639	0.052707
H228	H	1.622390	-0.339305	0.386040
H229	H	0.884876	-0.894671	-0.350927
H230	H	1.218210	-0.561337	-0.017594
H231	H	1.551543	-0.228004	0.315739
H232	H	0.906693	-0.893938	-0.268613
H233	H	1.240026	-0.560604	0.064720
H234	H	1.573359	-0.227271	0.398054
H235	H	1.187375	-0.810819	-0.387948
H236	H	1.520708	-0.477485	-0.054615
H237	H	1.854042	-0.144152	0.278718
H238	H	1.154337	-0.903530	-0.263881
H239	H	1.487670	-0.570197	0.069453
H240	H	1.821004	-0.236863	0.402786
C241	C	1.146597	-0.184360	-0.917099
C242	C	1.479930	0.148973	-0.583766
C243	C	1.813263	0.482307	-0.250433
C244	C	1.162443	-0.257902	-0.935675
C245	C	1.495776	0.075432	-0.602341
C246	C	1.829109	0.408765	-0.269008
H247	H	1.178563	-0.152124	-0.943181
H248	H	1.511896	0.181210	-0.609848
H249	H	1.845229	0.514543	-0.276515
H250	H	1.097165	-0.173490	-0.929692
H251	H	1.430498	0.159844	-0.596359
H252	H	1.763831	0.493177	-0.263025
H253	H	1.153328	-0.177590	-0.865826
H254	H	1.486662	0.155743	-0.532493
H255	H	1.819995	0.489077	-0.199160
H256	H	1.155706	-0.264673	-0.986947
H257	H	1.489039	0.068660	-0.653614
H258	H	1.822372	0.401994	-0.320280
H259	H	1.211887	-0.268776	-0.923087
H260	H	1.545220	0.064558	-0.589754
H261	H	1.878553	0.397891	-0.256420
C262	C	0.438965	-0.299765	-0.208659
C263	C	0.772299	0.033568	0.124675
C264	C	1.105632	0.366902	0.458008
C265	C	0.483192	-0.257934	-0.255985
C266	C	0.816525	0.075400	0.077349
C267	C	1.149859	0.408733	0.410682
H268	H	0.412892	-0.267494	-0.176773
H269	H	0.746225	0.065840	0.156560
H270	H	1.079559	0.399173	0.489894
H271	H	0.405083	-0.328082	-0.236644
H272	H	0.738416	0.005251	0.096689
H273	H	1.071750	0.338584	0.430023
H274	H	0.468931	-0.332080	-0.180454
H275	H	0.802265	0.001254	0.152879
H276	H	1.135598	0.334587	0.486213
H277	H	0.453225	-0.225623	-0.284193
H278	H	0.786559	0.107711	0.049140
H279	H	1.119892	0.441044	0.382473
H280	H	0.517078	-0.229604	-0.227996
H281	H	0.850412	0.103730	0.105337
H282	H	1.183745	0.437063	0.438670
C283	C	0.974692	-0.447258	-1.011187
C284	C	1.308025	-0.113924	-0.677854
C285	C	1.641359	0.219409	-0.344520
C286	C	0.964734	-0.457300	-0.935608
C287	C	1.298068	-0.123966	-0.602274
C288	C	1.631401	0.209367	-0.268941
H289	H	0.942743	-0.479487	-1.037250
H290	H	1.276076	-0.146154	-0.703917
H291	H	1.609410	0.187180	-0.370584
H292	H	0.963948	-0.397363	-1.023787
H293	H	1.297281	-0.064029	-0.690453
H294	H	1.630614	0.269304	-0.357120
H295	H	1.024138	-0.458126	-1.023781
H296	H	1.357471	-0.124793	-0.690448
H297	H	1.690804	0.208540	-0.357115
H298	H	0.915290	-0.446426	-0.923012
H299	H	1.248623	-0.113092	-0.589679
H300	H	1.581956	0.220241	-0.256346
H301	H	0.975473	-0.507206	-0.923003
H302	H	1.308807	-0.173873	-0.589669
H303	H	1.642140	0.159461	-0.256336
C304	C	1.113932	-0.851405	-0.545909
C305	C	1.447265	-0.518071	-0.212576
C306	C	1.780598	-0.184738	0.120758
C307	C	1.101971	-0.911248	-0.498446
C308	C	1.435304	-0.577915	-0.165112
C309	C	1.768638	-0.244582	0.168221
H310	H	1.126585	-0.869448	-0.593237
H311	H	1.459919	-0.536115	-0.259904
H312	H	1.793252	-0.202782	0.073430
H313	H	1.070496	-0.822502	-0.549188
H314	H	1.403829	-0.489169	-0.215855
H315	H	1.737163	-0.155836	0.117479
H316	H	1.152835	-0.821685	-0.527495
H317	H	1.486168	-0.488352	-0.194162
H318	H	1.819502	-0.155018	0.139171
H319	H	1.063064	-0.940965	-0.516857
H320	H	1.396397	-0.607632	-0.183523
H321	H	1.729730	-0.274299	0.149810
H322	H	1.145412	-0.940163	-0.495169
H323	H	1.478745	-0.606830	-0.161836
H324	H	1.812079	-0.273496	0.171498
C325	C	1.120922	-0.210262	-0.730151
C326	C	1.454255	0.123071	-0.396817
C327	C	1.787588	0.456404	-0.063484
C328	C	1.162416	-0.257939	-0.774341
C329	C	1.495750	0.075394	-0.441008
C330	C	1.829083	0.408727	-0.107674
H331	H	1.152873	-0.178038	-0.704084
H332	H	1.486206	0.155295	-0.370751
H333	H	1.819539	0.488629	-0.037418
H334	H	1.088882	-0.181854	-0.760134
H335	H	1.422215	0.151480	-0.426801
H336	H	1.755548	0.484813	-0.093468
H337	H	1.092878	-0.238564	-0.696255
H338	H	1.426212	0.094769	-0.362921
H339	H	1.759545	0.428102	-0.029588
H340	H	1.190456	-0.229638	-0.808241
H341	H	1.523789	0.103696	-0.474907
H342	H	1.857122	0.437029	-0.141574
H343	H	1.194469	-0.286351	-0.744355
H344	H	1.527803	0.046982	-0.411022
H345	H	1.861136	0.380316	-0.077688
C346	C	0.720111	-0.267958	-0.265893
C347	C	1.053445	0.065376	0.067441
C348	C	1.386778	0.398709	0.400774
C349	C	0.644537	-0.257922	-0.255970
C350	C	0.977870	0.075412	0.077363
C351	C	1.311204	0.408745	0.410697
H352	H	0.746191	-0.235680	-0.234010
H353	H	1.079524	0.097653	0.099324
H354	H	1.412857	0.430986	0.432657
H355	H	0.732676	-0.317835	-0.255037
H356	H	1.066010	0.015498	0.078296
H357	H	1.399343	0.348831	0.411629
H358	H	0.732721	-0.257150	-0.315360
H359	H	1.066055	0.076183	0.017974
H360	H	1.399388	0.409516	0.351307
H361	H	0.631926	-0.268734	-0.206504
H362	H	0.965259	0.064599	0.126829
H363	H	1.298593	0.397932	0.460163
H364	H	0.631967	-0.208032	-0.266820
H365	H	0.965300	0.125301	0.066513
H366	H	1.298634	0.458634	0.399847
C367	C	0.923386	-0.499021	-0.824206
C368	C	1.256719	-0.165688	-0.490873
C369	C	1.590053	0.167645	-0.157540
C370	C	0.964710	-0.457342	-0.774264
C371	C	1.298043	-0.124008	-0.440931
C372	C	1.631376	0.209325	-0.107598
H373	H	0.891432	-0.531260	-0.798113
H374	H	1.224765	-0.197927	-0.464779
H375	H	1.558098	0.135407	-0.131446
H376	H	0.895257	-0.466659	-0.854182
H377	H	1.228590	-0.133326	-0.520849
H378	H	1.561923	0.200008	-0.187515
H379	H	0.955447	-0.527422	-0.854186
H380	H	1.288781	-0.194089	-0.520853
H381	H	1.622114	0.139245	-0.187519
H382	H	0.932649	-0.428937	-0.744288
H383	H	1.265982	-0.095604	-0.410955
H384	H	1.599315	0.237730	-0.077621
H385	H	0.992841	-0.489708	-0.744276
H386	H	1.326175	-0.156375	-0.410942
H387	H	1.659508	0.176958	-0.077609
