data_functionalizedCrystal
_audit_creation_method	'MofGen! by Chris Wilmer'
_symmetry_space_group_name_H-M	'P1'
_symmetry_Int_Tables_number	1
_symmetry_cell_setting	triclinic
loop_
_symmetry_equiv_pos_as_xyz
  x,y,z
_cell_length_a	9.065218
_cell_length_b	11.792254
_cell_length_c	8.140239
_cell_angle_alpha	89.996301
_cell_angle_beta	89.997198
_cell_angle_gamma	84.607241
loop_
_atom_site_label
_atom_site_type_symbol
_atom_site_fract_x
_atom_site_fract_y
_atom_site_fract_z
O1	O	1.958848	0.166429	-0.136619
O2	O	2.458848	0.666429	0.363381
O3	O	1.529436	0.180080	-0.136621
O4	O	2.029436	0.680080	0.363379
O5	O	1.754553	0.008143	-0.136608
O6	O	2.254553	0.508143	0.363392
O7	O	1.733731	0.338366	-0.136632
O8	O	2.233731	0.838366	0.363368
O9	O	1.754540	0.008141	0.136619
O10	O	2.254540	0.508141	0.636619
O11	O	1.529424	0.180078	0.136606
O12	O	2.029424	0.680078	0.636606
O13	O	1.958836	0.166427	0.136608
O14	O	2.458836	0.666427	0.636608
Zn15	Zn	1.744128	0.173252	0.179988
Zn16	Zn	2.244128	0.673252	0.679988
Zn17	Zn	1.744144	0.173255	-0.180001
Zn18	Zn	2.244144	0.673255	0.319999
O19	O	1.733719	0.338364	0.136595
O20	O	2.233719	0.838364	0.636595
C21	C	1.474455	0.178767	-0.000008
C22	C	1.974455	0.678767	0.499992
C23	C	1.310649	0.174844	-0.000008
C24	C	1.810649	0.674844	0.499992
C25	C	1.753235	-0.034156	0.000005
C26	C	2.253235	0.465844	0.500005
C27	C	1.749309	-0.160191	0.000003
C28	C	2.249309	0.339809	0.500003
C29	C	1.746119	-0.262545	-0.000003
C30	C	2.246119	0.237455	0.499997
C31	C	1.742131	-0.390954	-0.000018
C32	C	2.242131	0.109046	0.499982
C33	C	2.013816	0.167740	-0.000009
C34	C	2.513816	0.667740	0.499991
C35	C	2.177623	0.171663	-0.000019
C36	C	2.677623	0.671663	0.499981
C37	C	1.735037	0.380663	-0.000021
C38	C	2.235037	0.880663	0.499979
C39	C	1.738962	0.506698	-0.000030
C40	C	2.238962	1.006698	0.499970
N41	N	1.744127	0.173250	0.425670
N42	N	2.244127	0.673250	0.925670
N43	N	1.744156	0.173248	-0.425683
N44	N	2.244156	0.673248	0.074317
