data_functionalizedCrystal
_audit_creation_method	'MofGen! by Chris Wilmer'
_symmetry_space_group_name_H-M	'P1'
_symmetry_Int_Tables_number	1
_symmetry_cell_setting	triclinic
loop_
_symmetry_equiv_pos_as_xyz
  x,y,z
_cell_length_a	13.339070
_cell_length_b	13.339070
_cell_length_c	12.376457
_cell_angle_alpha	104.398083
_cell_angle_beta	75.589755
_cell_angle_gamma	115.629294
loop_
_atom_site_label
_atom_site_type_symbol
_atom_site_fract_x
_atom_site_fract_y
_atom_site_fract_z
O1	O	1.511964	0.535384	-0.094035
O2	O	1.197153	0.463125	-0.094030
O3	O	1.318428	0.341851	-0.094029
O4	O	1.390689	0.656659	-0.094037
O5	O	1.288108	0.372116	0.093983
O6	O	1.166834	0.493391	0.093982
O7	O	1.481644	0.565650	0.093976
Zn8	Zn	1.319425	0.534326	0.123830
Zn9	Zn	1.359372	0.494450	-0.123884
O10	O	1.360369	0.686924	0.093975
C11	C	1.140878	0.466052	-0.000024
C12	C	1.018364	0.429669	-0.000022
C13	C	1.291062	0.315868	-0.000024
C14	C	1.254679	0.193353	-0.000028
C15	C	0.732980	0.712564	-0.000047
C16	C	0.848090	0.746750	-0.000052
C17	C	0.890664	0.667483	-0.000044
C18	C	0.818117	0.554023	-0.000031
C19	C	0.702998	0.519831	-0.000035
C20	C	0.860682	0.474751	-0.000032
C21	C	0.788135	0.361291	-0.000020
C22	C	0.673027	0.327105	-0.000022
C23	C	0.630453	0.406372	-0.000030
C24	C	0.975801	0.508942	-0.000029
C25	C	0.945819	0.316210	-0.000017
C26	C	0.830709	0.282023	-0.000012
C27	C	1.537579	-0.092035	-0.000032
C28	C	1.571765	0.023075	-0.000022
C29	C	1.492496	0.065651	-0.000024
C30	C	1.379036	-0.006896	-0.000035
C31	C	1.344845	-0.122016	-0.000037
C32	C	1.299763	0.035669	-0.000028
C33	C	1.186303	-0.036877	-0.000040
C34	C	1.152118	-0.151986	-0.000042
C35	C	1.231386	-0.194561	-0.000040
C36	C	1.333954	0.150790	-0.000027
C37	C	1.141220	0.120808	-0.000031
C38	C	1.107034	0.005698	-0.000042
C39	C	1.537920	0.562723	-0.000033
C40	C	1.660435	0.599105	-0.000042
C41	C	1.387736	0.712907	-0.000032
C42	C	1.424120	0.835420	-0.000035
N43	N	1.292170	0.561541	0.292888
N44	N	1.386634	0.467227	-0.292942
C45	C	1.449896	0.404029	0.647875
C46	C	1.468966	0.384979	0.529535
C47	C	1.424768	0.429117	0.470367
C48	C	1.361498	0.492310	0.529551
C49	C	1.342434	0.511370	0.647902
C50	C	1.317306	0.536458	0.470395
C51	C	1.254035	0.599651	0.529579
C52	C	1.234974	0.618707	0.647918
C53	C	1.279171	0.574568	0.707086
C54	C	1.336370	0.517399	0.352044
C55	C	1.228907	0.624740	0.352071
C56	C	1.209837	0.643790	0.470411
H57	H	0.984393	0.695324	-0.000051
H58	H	1.183466	0.670173	0.696106
H59	H	1.076672	0.155473	-0.000027
N60	N	0.752449	0.159653	-0.000008
H61	H	0.777164	0.112248	-0.069700
H62	H	0.754711	0.134790	0.069738
N63	N	0.984660	-0.072552	-0.000032
H64	H	0.939625	-0.028122	-0.000031
H65	H	0.977519	-0.132185	-0.069730
H66	H	1.485884	0.368104	0.696057
N67	N	1.194508	-0.318719	-0.000043
H68	H	1.159680	-0.363546	-0.069740
H69	H	1.261991	-0.334577	-0.000003
H70	H	0.907151	0.839128	-0.000071
H71	H	0.980482	0.251662	-0.000015
N72	N	1.445326	0.408552	0.342730
H73	H	1.370811	0.366996	0.314246
H74	H	1.486864	0.483100	0.314295
H75	H	1.059730	-0.211050	-0.000042
H76	H	0.698306	0.777089	-0.000063
N77	N	1.404588	0.449223	0.288234
H78	H	1.356878	0.380891	0.239151
H79	H	1.472903	0.497022	0.239180
N80	N	1.537204	0.316828	0.465703
H81	H	1.562308	0.291756	0.521140
H82	H	1.489445	0.248551	0.416611
H83	H	1.263641	0.590075	0.803448
N84	N	0.506290	0.369500	0.000003
H85	H	0.490332	0.436937	0.000010
H86	H	0.483977	0.312185	-0.069687
N87	N	1.623063	-0.137950	-0.000010
H88	H	1.584184	-0.221881	-0.000007
H89	H	1.682369	-0.122509	-0.069704
H90	H	0.613963	0.234717	-0.000025
N91	N	1.141595	0.711944	0.534249
H92	H	1.136227	0.717315	0.618196
H93	H	1.179472	0.790085	0.513562
N94	N	1.181236	0.672358	0.288271
H95	H	1.202910	0.650693	0.204320
H96	H	1.096430	0.641096	0.308973
H97	H	1.034857	0.601322	-0.000035
H98	H	1.520338	0.159380	-0.000016
H99	H	1.664144	0.082135	-0.000012
H100	H	1.426333	0.209846	-0.000018
