data_functionalizedCrystal
_audit_creation_method	'MofGen! by Chris Wilmer'
_symmetry_space_group_name_H-M	'P1'
_symmetry_Int_Tables_number	1
_symmetry_cell_setting	triclinic
loop_
_symmetry_equiv_pos_as_xyz
  x,y,z
_cell_length_a	10.654550
_cell_length_b	15.538191
_cell_length_c	9.130313
_cell_angle_alpha	89.998786
_cell_angle_beta	89.999724
_cell_angle_gamma	65.878512
loop_
_atom_site_label
_atom_site_type_symbol
_atom_site_fract_x
_atom_site_fract_y
_atom_site_fract_z
O1	O	1.606172	0.131916	-0.121678
O2	O	1.234818	0.144484	-0.121704
O3	O	1.492782	0.001542	-0.121693
O4	O	1.348208	0.274857	-0.121689
O5	O	1.492771	0.001538	0.121906
O6	O	1.234807	0.144479	0.121895
O7	O	1.606161	0.131911	0.121921
Cu8	Cu	1.420483	0.138195	0.144150
Cu9	Cu	1.420496	0.138200	-0.143934
O10	O	1.348197	0.274853	0.121910
C11	C	1.188446	0.143559	0.000092
C12	C	1.050293	0.140798	0.000082
C13	C	0.931464	0.224959	0.000087
C14	C	0.801659	0.222359	0.000112
C15	C	0.909528	0.051429	0.000121
C16	C	1.039330	0.054030	0.000106
C17	C	1.507903	-0.033456	0.000102
C18	C	1.552959	-0.137736	0.000091
C19	C	1.105338	-0.428451	0.000091
C20	C	1.147707	-0.526440	0.000098
C21	C	1.386021	-0.547326	0.000114
C22	C	1.343672	-0.449336	0.000100
C23	C	1.203329	-0.389906	0.000091
C24	C	1.441663	-0.410792	0.000099
C25	C	1.399317	-0.312811	0.000094
C26	C	1.258980	-0.253375	0.000089
C27	C	1.160983	-0.291926	0.000085
C28	C	1.582005	-0.470224	0.000119
C29	C	1.679996	-0.431679	0.000119
C30	C	1.637651	-0.333697	0.000102
C31	C	1.497314	-0.274261	0.000097
C32	C	1.735648	-0.295147	0.000106
C33	C	1.693302	-0.197166	0.000100
C34	C	1.454968	-0.176280	0.000092
C35	C	1.652533	0.132836	0.000121
C36	C	1.790685	0.135597	0.000122
C37	C	1.333076	0.309851	0.000111
C38	C	1.288020	0.414131	0.000113
N39	N	1.420483	0.138191	0.346773
N40	N	1.420509	0.138197	-0.346556
C41	C	1.534726	0.074924	0.423429
C42	C	1.534738	0.074924	0.576766
C43	C	1.306256	0.201467	0.576776
C44	C	1.306242	0.201462	0.423442
H45	H	0.900584	-0.019214	0.000150
H46	H	1.627763	0.023405	0.639176
H47	H	1.794264	-0.480080	0.000132
H48	H	0.704908	0.290892	0.000120
H49	H	1.849915	-0.343549	0.000128
H50	H	1.500288	-0.595727	0.000127
H51	H	1.046702	-0.243533	0.000066
H52	H	1.136092	-0.014509	0.000106
Br53	Br	1.826289	-0.144849	0.000136
Br54	Br	1.151222	0.287333	0.680832
Br55	Br	1.639476	-0.603200	0.000143
H56	H	1.213205	0.252982	0.361024
Br57	Br	1.264500	-0.095616	0.000058
Br58	Br	1.014702	-0.578747	0.000114
H59	H	1.224505	-0.173593	0.000092
H60	H	0.940383	0.295611	0.000078
H61	H	0.991057	-0.380059	0.000073
Br62	Br	1.689765	-0.010945	0.319383
