data_functionalizedCrystal
_audit_creation_method	'MofGen! by Chris Wilmer'
_symmetry_space_group_name_H-M	'P1'
_symmetry_Int_Tables_number	1
_symmetry_cell_setting	triclinic
loop_
_symmetry_equiv_pos_as_xyz
  x,y,z
_cell_length_a	12.594517
_cell_length_b	19.121063
_cell_length_c	12.594509
_cell_angle_alpha	92.405810
_cell_angle_beta	89.978673
_cell_angle_gamma	92.468805
loop_
_atom_site_label
_atom_site_type_symbol
_atom_site_fract_x
_atom_site_fract_y
_atom_site_fract_z
Zn1	Zn	1.609106	-0.279596	-0.619881
Zn2	Zn	1.601367	-0.397059	-0.449473
Zn3	Zn	1.431108	-0.279626	-0.441911
Zn4	Zn	1.423466	-0.397010	-0.627400
O5	O	1.516262	-0.338323	-0.534666
O6	O	1.757025	-0.295185	-0.597293
O7	O	1.578742	-0.381514	-0.299526
O8	O	1.461157	-0.181338	-0.459208
O9	O	1.751339	-0.381485	-0.472096
O10	O	1.591931	-0.181315	-0.589961
O11	O	1.453653	-0.295237	-0.293971
O12	O	1.281149	-0.295189	-0.466499
O13	O	1.448132	-0.381402	-0.775346
O14	O	1.275534	-0.381431	-0.602777
O15	O	1.584521	-0.295138	-0.769822
O16	O	1.571331	-0.495337	-0.479386
O17	O	1.440628	-0.495301	-0.610109
C18	C	1.239722	-0.338309	-0.534634
C19	C	1.121416	-0.338319	-0.534646
C20	C	1.055190	-0.291349	-0.460657
C21	C	0.980217	-0.355414	-0.438606
C22	C	0.985587	-0.274285	-0.556717
C23	C	1.047999	-0.402419	-0.512547
C24	C	1.053378	-0.321246	-0.630701
C25	C	0.978435	-0.385356	-0.608690
C26	C	1.504339	-0.520803	-0.546407
C27	C	1.499336	-0.598868	-0.551466
C28	C	1.565089	-0.635539	-0.485838
C29	C	1.560390	-0.708890	-0.490602
C30	C	1.489932	-0.745569	-0.560988
C31	C	1.424176	-0.708893	-0.626623
C32	C	1.428881	-0.635544	-0.621864
C33	C	1.472323	-0.967038	-0.578765
C34	C	1.467620	-1.040393	-0.583517
C35	C	1.603835	-1.040385	-0.447497
C36	C	1.608530	-0.967034	-0.442740
C37	C	1.542779	-0.930365	-0.508378
C38	C	1.485124	-0.820546	-0.565857
C39	C	1.547592	-0.855389	-0.503514
C40	C	1.793882	-0.338337	-0.534699
C41	C	1.912187	-0.338343	-0.534713
C42	C	1.516337	-0.338261	-0.812283
C43	C	1.516369	-0.338235	-0.930587
C44	C	1.528260	-0.155130	-0.522903
C45	C	1.533373	-0.077064	-0.517890
C46	C	1.442211	-0.385127	-1.002843
C47	C	1.538217	-0.402288	-1.074740
C48	C	1.420442	-0.321032	-1.069487
C49	C	1.612424	-0.355429	-1.000927
C50	C	1.494585	-0.274143	-0.995667
C51	C	1.590659	-0.291280	-1.067530
C52	C	1.516251	-0.338333	-0.258126
C53	C	1.516438	-0.338162	-0.139810
H54	H	1.075422	-0.456598	-0.493817
O55	O	1.472653	-0.209486	-0.954480
C56	C	1.549949	-0.159928	-0.988869
H57	H	1.588112	-0.180723	-1.065294
H58	H	1.613530	-0.150306	-0.924891
C59	C	1.450073	-0.065161	-0.915757
C60	C	1.496939	-0.090699	-1.009628
H61	H	1.417376	-0.022456	-0.928558
H62	H	1.397998	-0.098549	-0.892585
H63	H	1.503065	-0.057148	-0.862451
H64	H	1.443945	-0.098720	-1.062928
H65	H	1.549003	-0.057311	-1.032810
H66	H	0.945025	-0.425134	-0.671292
H67	H	1.375340	-0.605687	-0.675306
O68	O	1.091668	-0.303858	-0.727504
C69	C	1.060061	-0.236269	-0.750441
H70	H	1.042103	-0.205910	-0.673144
H71	H	0.985763	-0.240752	-0.802379
C72	C	1.172212	-0.234681	-0.904687
C73	C	1.150165	-0.197391	-0.809749
H74	H	1.227789	-0.210700	-0.941276
H75	H	1.193504	-0.280218	-0.889237
H76	H	1.110290	-0.238414	-0.947956
H77	H	1.212082	-0.193666	-0.766476
H78	H	1.128885	-0.151852	-0.825193
O79	O	0.952844	-0.209618	-0.578836
C80	C	0.992024	-0.160258	-0.500575
H81	H	1.065173	-0.181027	-0.461293
H82	H	0.928106	-0.151031	-0.438035
C83	C	0.932511	-0.065242	-0.600878
C84	C	1.022360	-0.090748	-0.552638
H85	H	0.951220	-0.022364	-0.632991
H86	H	0.906111	-0.098496	-0.653603
H87	H	0.879254	-0.057559	-0.548753
H88	H	1.075609	-0.098440	-0.604765
H89	H	1.048770	-0.057494	-0.499923
H90	H	1.622458	-0.605680	-0.428518
H91	H	1.088788	-0.251666	-0.398014
O92	O	1.624299	-0.744404	-0.426741
C93	C	1.687509	-0.696301	-0.363610
H94	H	1.647263	-0.644041	-0.356496
H95	H	1.768832	-0.688435	-0.402146
C96	C	1.750497	-0.789164	-0.260940
C97	C	1.701062	-0.724979	-0.252195
H98	H	1.758862	-0.806855	-0.192215
H99	H	1.707915	-0.821573	-0.303474
H100	H	1.818261	-0.782600	-0.293057
H101	H	1.633295	-0.731546	-0.220091
H102	H	1.743633	-0.692573	-0.209652
O103	O	1.416819	-0.856256	-0.634278
C104	C	1.474667	-0.898603	-0.705844
H105	H	1.554652	-0.909558	-0.669095
H106	H	1.488121	-0.870292	-0.782901
C107	C	1.313395	-0.954850	-0.774703
C108	C	1.411631	-0.968311	-0.729564
H109	H	1.274510	-0.997848	-0.789340
H110	H	1.274421	-0.926318	-0.726491
H111	H	1.324621	-0.931256	-0.838912
H112	H	1.400403	-0.991896	-0.665350
H113	H	1.450601	-0.996848	-0.777766
H114	H	0.948119	-0.369870	-0.357403
H115	H	1.379541	-0.424844	-0.974345
O116	O	1.677076	-0.931515	-0.374348
C117	C	1.734090	-0.979611	-0.317428
H118	H	1.734393	-1.031875	-0.364414
H119	H	1.694660	-0.987471	-0.237060
C120	C	1.848849	-0.886741	-0.242635
C121	C	1.849229	-0.950931	-0.300349
H122	H	1.919871	-0.869049	-0.232095
H123	H	1.810436	-0.854337	-0.280980
H124	H	1.815986	-0.893300	-0.175668
H125	H	1.882079	-0.944370	-0.367319
H126	H	1.887651	-0.983333	-0.262015
H127	H	1.657368	-1.070249	-0.394060
H128	H	1.339288	-0.306512	-1.099641
H129	H	1.410257	-1.070255	-0.640852
H130	H	1.418783	-0.937188	-0.632208
O131	O	1.355876	-0.744599	-0.695054
C132	C	1.413720	-0.786949	-0.766619
H133	H	1.493700	-0.797913	-0.729865
H134	H	1.427187	-0.758636	-0.843672
C135	C	1.252443	-0.843179	-0.835495
C136	C	1.350671	-0.856650	-0.790350
H137	H	1.213551	-0.886173	-0.850139
H138	H	1.213471	-0.814645	-0.787284
H139	H	1.263680	-0.819583	-0.899701
H140	H	1.339434	-0.880238	-0.726139
H141	H	1.389640	-0.885190	-0.838552
H142	H	1.693597	-0.370011	-0.970908
O143	O	1.560067	-0.466952	-1.115975
C144	C	1.481675	-0.516275	-1.083100
H145	H	1.405995	-0.488347	-1.061429
H146	H	1.511519	-0.543566	-1.010805
C147	C	1.550909	-0.605313	-1.200738
C148	C	1.457956	-0.571012	-1.174130
H149	H	1.536281	-0.639080	-1.256887
H150	H	1.603726	-0.572084	-1.222884
H151	H	1.575770	-0.628050	-1.140484
H152	H	1.433104	-0.548268	-1.234379
H153	H	1.405134	-0.604238	-1.151996
H154	H	1.653471	-0.251593	-1.095834
H155	H	1.604963	-0.825523	-0.446209
