data_functionalizedCrystal
_audit_creation_method	'MofGen! by Chris Wilmer'
_symmetry_space_group_name_H-M	'P1'
_symmetry_Int_Tables_number	1
_symmetry_cell_setting	triclinic
loop_
_symmetry_equiv_pos_as_xyz
  x,y,z
_cell_length_a	15.297979
_cell_length_b	15.299816
_cell_length_c	19.805399
_cell_angle_alpha	99.658849
_cell_angle_beta	80.290517
_cell_angle_gamma	91.635460
loop_
_atom_site_label
_atom_site_type_symbol
_atom_site_fract_x
_atom_site_fract_y
_atom_site_fract_z
Zn1	Zn	1.399639	-0.117229	-0.580021
Zn2	Zn	1.424882	-0.263692	-0.489159
Zn3	Zn	1.253145	-0.142568	-0.451085
Zn4	Zn	1.278439	-0.288950	-0.586541
O5	O	1.339026	-0.203110	-0.526701
O6	O	1.525583	-0.115483	-0.581173
O7	O	1.402080	-0.247659	-0.389393
O8	O	1.251429	-0.016650	-0.449525
O9	O	1.544129	-0.223089	-0.514417
O10	O	1.359057	0.001966	-0.544254
O11	O	1.275905	-0.158670	-0.361420
O12	O	1.133906	-0.183160	-0.455848
O13	O	1.294538	-0.266136	-0.680391
O14	O	1.152489	-0.290706	-0.555367
O15	O	1.383583	-0.139974	-0.675601
O16	O	1.426606	-0.389599	-0.520740
O17	O	1.319015	-0.408156	-0.592286
C18	C	1.111410	-0.242424	-0.502184
C19	C	1.014038	-0.259264	-0.491714
C20	C	1.378318	-0.430651	-0.561369
C21	C	1.395207	-0.527980	-0.576231
C22	C	0.977932	-0.323112	-0.451956
C23	C	0.886446	-0.338936	-0.442124
C24	C	0.831057	-0.290909	-0.472043
C25	C	0.867162	-0.227056	-0.511797
C26	C	0.958658	-0.211235	-0.521635
C27	C	0.811783	-0.179032	-0.541721
C28	C	0.847888	-0.115179	-0.581476
C29	C	0.939375	-0.099361	-0.591312
C30	C	0.994764	-0.147388	-0.561393
C31	C	0.720288	-0.194853	-0.531883
C32	C	0.701014	-0.082976	-0.601562
C33	C	0.792499	-0.067152	-0.611395
C34	C	1.218892	-0.841366	-0.420770
C35	C	1.203019	-0.749921	-0.406807
C36	C	1.251065	-0.694431	-0.449162
C37	C	1.314986	-0.730396	-0.505482
C38	C	1.330855	-0.821850	-0.519449
C39	C	1.363028	-0.674916	-0.547841
C40	C	1.426949	-0.710880	-0.604161
C41	C	1.442816	-0.802326	-0.618126
C42	C	1.394770	-0.857815	-0.575771
C43	C	1.347159	-0.583461	-0.533874
C44	C	1.459122	-0.563946	-0.632553
C45	C	1.474995	-0.655391	-0.646516
C46	C	1.567532	-0.163642	-0.551315
C47	C	1.664908	-0.146824	-0.561804
C48	C	1.339066	-0.203046	-0.703241
C49	C	1.339083	-0.203019	-0.778472
C50	C	1.299606	0.025324	-0.491915
C51	C	1.282807	0.122669	-0.477092
C52	C	1.385450	-0.137323	-0.811322
C53	C	1.385454	-0.137296	-0.882008
C54	C	1.339097	-0.202970	-0.919843
C55	C	1.292724	-0.268669	-0.886987
C56	C	1.292715	-0.268691	-0.816301
C57	C	1.292760	-0.268579	-1.172053
C58	C	1.292775	-0.268553	-1.242744
C59	C	1.385499	-0.137184	-1.237760
C60	C	1.385490	-0.137206	-1.167074
C61	C	1.339114	-0.202902	-1.134224
C62	C	1.339108	-0.202930	-1.057578
C63	C	1.339107	-0.202946	-0.996488
C64	C	1.339026	-0.203101	-0.350844
C65	C	1.339137	-0.202852	-0.275595
H66	H	0.690901	-0.246844	-0.499515
F67	F	1.411805	-0.955118	-0.590533
H68	H	1.423203	-0.083847	-0.780523
F69	F	1.243431	-0.338454	-1.283009
H70	H	1.255013	-0.322083	-1.145318
F71	F	1.434839	-0.067399	-0.916975
F72	F	1.243363	-0.338612	-0.781339
H73	H	0.756566	-0.303797	-0.464034
H74	H	1.498243	-0.518766	-0.667043
H75	H	1.150974	-0.720642	-0.360952
F76	F	1.543021	-0.693678	-0.706455
F77	F	1.434833	-0.067311	-1.126812
F78	F	1.092136	-0.130553	-0.571859
F79	F	0.848025	-0.406878	-0.399804
H80	H	1.494861	-0.831605	-0.663988
H81	H	1.254976	-0.322138	-0.917797
H82	H	1.295114	-0.554187	-0.488018
H83	H	1.023038	-0.362212	-0.427604
H84	H	1.423257	-0.083688	-1.264514
F85	F	0.977800	-0.031413	-0.633632
H86	H	0.655916	-0.043870	-0.625925
F87	F	0.830936	0.000802	-0.653704
H88	H	1.179776	-0.886553	-0.386294
F89	F	1.233928	-0.597150	-0.434460
