data_functionalizedCrystal
_audit_creation_method	'MofGen! by Chris Wilmer'
_symmetry_space_group_name_H-M	'P1'
_symmetry_Int_Tables_number	1
_symmetry_cell_setting	triclinic
loop_
_symmetry_equiv_pos_as_xyz
  x,y,z
_cell_length_a	14.908783
_cell_length_b	25.639239
_cell_length_c	14.908694
_cell_angle_alpha	93.266315
_cell_angle_beta	83.203601
_cell_angle_gamma	93.329368
loop_
_atom_site_label
_atom_site_type_symbol
_atom_site_fract_x
_atom_site_fract_y
_atom_site_fract_z
Zn1	Zn	1.413290	-0.180729	-0.591748
Zn2	Zn	1.404411	-0.263404	-0.440370
Zn3	Zn	1.253186	-0.180743	-0.431653
Zn4	Zn	1.261833	-0.272899	-0.582940
O5	O	1.333180	-0.224444	-0.511678
O6	O	1.538786	-0.187716	-0.579002
O7	O	1.377017	-0.248471	-0.312547
O8	O	1.274522	-0.107574	-0.452929
O9	O	1.532263	-0.248457	-0.467785
O10	O	1.392149	-0.107564	-0.570550
O11	O	1.265912	-0.187740	-0.306143
O12	O	1.127660	-0.196948	-0.444388
O13	O	1.289258	-0.264641	-0.710775
O14	O	1.134012	-0.264654	-0.555537
O15	O	1.400533	-0.196924	-0.717246
O16	O	1.385401	-0.337831	-0.459244
O17	O	1.280649	-0.344807	-0.563989
C18	C	1.097991	-0.231833	-0.498061
C19	C	0.997377	-0.235008	-0.492257
C20	C	0.815114	-0.177821	-0.597339
C21	C	0.720578	-0.180802	-0.591889
C22	C	0.713769	-0.243948	-0.475903
C23	C	0.808304	-0.240967	-0.481353
C24	C	0.858974	-0.207903	-0.542074
C25	C	0.953511	-0.204925	-0.547528
C26	C	0.946700	-0.268068	-0.431539
C27	C	0.852164	-0.271049	-0.426088
C28	C	1.333026	-0.360290	-0.511628
C29	C	1.333044	-0.418404	-0.511641
C30	C	1.387881	-0.775117	-0.457244
C31	C	1.387917	-0.829720	-0.457258
O32	O	1.434381	-0.854857	-0.410954
N33	N	1.333343	-0.860680	-0.511747
C34	C	1.278736	-0.837033	-0.566232
O35	O	1.232320	-0.868380	-0.612581
C36	C	1.278706	-0.782430	-0.566222
C37	C	1.333277	-0.751474	-0.511723
C38	C	1.442449	-0.744160	-0.402750
C39	C	1.442411	-0.689560	-0.402735
C40	C	1.387807	-0.665917	-0.457214
C41	C	1.333239	-0.696874	-0.511708
C42	C	1.224104	-0.758785	-0.620711
C43	C	1.224079	-0.704178	-0.620697
C44	C	1.278650	-0.673221	-0.566198
C45	C	1.278598	-0.618631	-0.566171
N46	N	1.333172	-0.587671	-0.511683
C47	C	1.387776	-0.611314	-0.457204
C48	C	1.278805	-0.951702	-0.566250
C49	C	1.278830	-1.006304	-0.566256
C50	C	1.388012	-0.998987	-0.457283
C51	C	1.387982	-0.944384	-0.457273
C52	C	1.333379	-0.920742	-0.511761
C53	C	1.387693	-0.496651	-0.457176
C54	C	1.387648	-0.442047	-0.457162
C55	C	1.278470	-0.449368	-0.566138
C56	C	1.278511	-0.503968	-0.566148
C57	C	1.333130	-0.527608	-0.511664
O58	O	1.232160	-0.593458	-0.612455
O59	O	1.434193	-0.579961	-0.410872
C60	C	1.569288	-0.217026	-0.525348
C61	C	1.669903	-0.213865	-0.531174
C62	C	1.346851	-0.231840	-0.747772
C63	C	1.352676	-0.234991	-0.848381
C64	C	1.333361	-0.088067	-0.511750
C65	C	1.333438	-0.029952	-0.511780
C66	C	1.247909	-0.177677	-1.030769
C67	C	1.253379	-0.180637	-1.125300
C68	C	1.369082	-0.243873	-1.131976
C69	C	1.363612	-0.240913	-1.037445
C70	C	1.303024	-0.207814	-0.986844
C71	C	1.297559	-0.204852	-0.892312
C72	C	1.413257	-0.268090	-0.898990
C73	C	1.418727	-0.271050	-0.993521
C74	C	1.319615	-0.217037	-0.276505
C75	C	1.313965	-0.213733	-0.175907
H76	H	0.684872	-0.156305	-0.636889
H77	H	1.432419	-0.919182	-0.412896
H78	H	1.486850	-0.664358	-0.358360
H79	H	1.234008	-0.430109	-0.610492
H80	H	1.234333	-0.932456	-0.610618
C81	C	1.447679	-0.407997	-0.397202
N82	N	1.492892	-0.382353	-0.352040
C83	C	1.485168	-0.307579	-1.049180
N84	N	1.535142	-0.335138	-1.091097
H85	H	0.994765	-0.178003	-0.596971
C86	C	0.870852	-0.141453	-0.664136
N87	N	0.912833	-0.114060	-0.714448
C88	C	1.181266	-0.141266	-0.975106
N89	N	1.131069	-0.113840	-0.933182
H90	H	1.234078	-0.529174	-0.610529
H91	H	1.208499	-0.156097	-1.161059
C92	C	1.448086	-1.025005	-0.397362
N93	N	1.493333	-1.044603	-0.352234
H94	H	0.810896	-0.297967	-0.376648
C95	C	0.658016	-0.280311	-0.409108
N96	N	0.616022	-0.307699	-0.358797
C97	C	1.435304	-0.280533	-1.187627
N98	N	1.485032	-0.308236	-1.229535
C99	C	1.473887	-0.301242	-0.850666
N100	N	1.519555	-0.326211	-0.814267
H101	H	0.982420	-0.292567	-0.386545
C102	C	1.502518	-0.770158	-0.342809
N103	N	1.547760	-0.789736	-0.297650
C104	C	1.447771	-0.522647	-0.397235
N105	N	1.493017	-0.542227	-0.352082
H106	H	1.179662	-0.783981	-0.665086
H107	H	1.234384	-1.031504	-0.610625
C108	C	1.230909	-0.168443	-0.836652
N109	N	1.180704	-0.141021	-0.794732
H110	H	1.179616	-0.684932	-0.665071
