data_functionalizedCrystal
_audit_creation_method	'MofGen! by Chris Wilmer'
_symmetry_space_group_name_H-M	'P1'
_symmetry_Int_Tables_number	1
_symmetry_cell_setting	triclinic
loop_
_symmetry_equiv_pos_as_xyz
  x,y,z
_cell_length_a	16.992694
_cell_length_b	15.995350
_cell_length_c	16.053802
_cell_angle_alpha	92.567808
_cell_angle_beta	87.249047
_cell_angle_gamma	87.080299
loop_
_atom_site_label
_atom_site_type_symbol
_atom_site_fract_x
_atom_site_fract_y
_atom_site_fract_z
O1	O	1.043694	0.174244	-0.069318
O2	O	1.543694	0.674244	0.430682
O3	O	0.815410	0.172295	-0.069342
O4	O	1.315410	0.672295	0.430658
O5	O	0.935792	0.051799	-0.069329
O6	O	1.435792	0.551799	0.430671
O7	O	0.923312	0.294739	-0.069332
O8	O	1.423312	0.794739	0.430668
O9	O	0.929166	0.058403	0.069530
O10	O	1.429166	0.558403	0.569530
O11	O	0.808784	0.178898	0.069516
O12	O	1.308784	0.678898	0.569516
O13	O	1.037068	0.180847	0.069540
O14	O	1.537068	0.680847	0.569540
Zn15	Zn	0.921874	0.180921	0.091575
Zn16	Zn	1.421874	0.680921	0.591575
Zn17	Zn	0.930604	0.172221	-0.091377
Zn18	Zn	1.430604	0.672221	0.408623
O19	O	0.916685	0.301343	0.069527
O20	O	1.416685	0.801343	0.569527
C21	C	0.782884	0.173091	0.000083
C22	C	1.282884	0.673091	0.500083
C23	C	0.695841	0.165614	0.000074
C24	C	1.195841	0.665614	0.500074
C25	C	0.645600	0.237749	0.000074
C26	C	1.145600	0.737749	0.500074
C27	C	0.563813	0.230720	0.000085
C28	C	1.063813	0.730720	0.500085
C29	C	0.532268	0.151555	0.000091
C30	C	1.032268	0.651555	0.500091
C31	C	0.582515	0.079414	0.000094
C32	C	1.082515	0.579414	0.500094
C33	C	0.664300	0.086444	0.000088
C34	C	1.164300	0.586444	0.500088
C35	C	0.288669	0.122417	0.000114
C36	C	0.788669	0.622417	0.500114
C37	C	0.206878	0.115392	0.000117
C38	C	0.706878	0.615392	0.500117
C39	C	0.188181	0.266699	0.000110
C40	C	0.688181	0.766699	0.500110
C41	C	0.269969	0.273722	0.000099
C42	C	0.769969	0.773722	0.500099
C43	C	0.320209	0.201582	0.000106
C44	C	0.820209	0.701582	0.500106
N45	N	0.448669	0.144368	0.000100
N46	N	0.948669	0.644368	0.500100
N47	N	0.403806	0.208770	0.000103
N48	N	0.903806	0.708770	0.500103
C49	C	0.931963	0.023872	0.000099
C50	C	1.431963	0.523872	0.500099
C51	C	0.930417	-0.069182	0.000094
C52	C	1.430417	0.430818	0.500094
C53	C	0.924861	-0.407302	0.000096
C54	C	1.424861	0.092698	0.500096
C55	C	0.839142	-0.365620	-0.000225
C56	C	1.339142	0.134380	0.499775
C57	C	0.840674	-0.268811	0.000089
C58	C	1.340674	0.231189	0.500089
C59	C	0.927617	-0.239557	0.000095
C60	C	1.427617	0.260443	0.500095
C61	C	0.966120	-0.274034	0.079392
C62	C	1.466120	0.225966	0.579392
C63	C	0.963963	-0.370810	0.079459
C64	C	1.463963	0.129190	0.579459
C65	C	0.973269	-0.378559	-0.078449
C66	C	1.473269	0.121441	0.421551
C67	C	0.973299	-0.281665	-0.079497
C68	C	1.473299	0.218335	0.420503
C69	C	0.929179	-0.144755	0.000096
C70	C	1.429179	0.355245	0.500096
C71	C	0.923302	-0.502103	0.000100
C72	C	1.423302	-0.002103	0.500100
C73	C	1.069593	0.180051	0.000113
C74	C	1.569593	0.680051	0.500113
C75	C	1.156637	0.187528	0.000117
C76	C	1.656637	0.687528	0.500117
C77	C	0.920515	0.329270	0.000097
C78	C	1.420515	0.829270	0.500097
C79	C	0.922061	0.422324	0.000097
C80	C	1.422061	0.922324	0.500097
N81	N	0.915921	0.186859	0.216434
N82	N	1.415921	0.686859	0.716434
N83	N	0.936563	0.166277	-0.216236
N84	N	1.436563	0.666277	0.283764
C85	C	0.967163	0.135608	0.260134
C86	C	1.467163	0.635608	0.760134
C87	C	0.963006	0.139770	0.347541
C88	C	1.463006	0.639770	0.847541
C89	C	0.907611	0.195187	0.391245
C90	C	1.407611	0.695187	0.891245
C91	C	0.856364	0.246439	0.347539
C92	C	1.356364	0.746439	0.847539
C93	C	0.860518	0.242273	0.260135
C94	C	1.360518	0.742273	0.760135
C95	C	0.889469	0.213363	0.652653
C96	C	1.389469	0.713363	1.152653
C97	C	0.885321	0.217528	0.740064
C98	C	1.385321	0.717528	1.240064
C99	C	0.991962	0.110857	0.740059
C100	C	1.491962	0.610857	1.240059
C101	C	0.996114	0.106699	0.652652
C102	C	1.496114	0.606699	1.152652
C103	C	0.944864	0.157948	0.608954
C104	C	1.444864	0.657948	1.108954
N105	N	0.903363	0.199444	0.480589
N106	N	1.403363	0.699444	0.980589
N107	N	0.949109	0.153686	0.519612
N108	N	1.449109	0.653686	1.019612
H109	H	0.522910	0.289461	0.000084
H110	H	1.022910	0.789461	0.500084
C111	C	1.102309	-0.321315	0.082303
C112	C	1.602309	0.178685	0.582303
C113	C	1.052158	-0.249006	0.083386
C114	C	1.552158	0.250994	0.583386
H115	H	1.155425	-0.305861	0.084762
H116	H	1.655425	0.194139	0.584762
H117	H	1.089045	-0.353083	0.129064
H118	H	1.589045	0.146917	0.629064
H119	H	1.096477	-0.354033	0.032339
H120	H	1.596477	0.145967	0.532339
H121	H	1.057986	-0.216290	0.133354
H122	H	1.557986	0.283710	0.633354
H123	H	1.065427	-0.217224	0.036621
H124	H	1.565427	0.282776	0.536621
C125	C	0.744992	0.262086	0.445855
C126	C	1.244992	0.762086	0.945855
C127	C	0.795474	0.307353	0.395582
C128	C	1.295474	0.807353	0.895582
H129	H	0.707405	0.299696	0.475517
H130	H	1.207405	0.799696	0.975517
H131	H	0.718410	0.223711	0.411766
H132	H	1.218410	0.723711	0.911766
H133	H	0.774926	0.232162	0.484386
H134	H	1.274926	0.732162	0.984386
H135	H	0.765540	0.337273	0.357047
H136	H	1.265540	0.837273	0.857047
H137	H	0.822057	0.345743	0.429674
H138	H	1.322057	0.845743	0.929674
H139	H	1.036506	-0.406115	-0.078977
H140	H	1.536506	0.093885	0.421023
C141	C	0.967926	-0.444795	0.206192
C142	C	1.467926	0.055205	0.706192
C143	C	0.918509	-0.394505	0.159466
C144	C	1.418509	0.105495	0.659466
H145	H	0.939861	-0.459415	0.255586
H146	H	1.439861	0.040585	0.755586
H147	H	0.984907	-0.494268	0.174011
H148	H	1.484907	0.005732	0.674011
H149	H	1.012519	-0.414801	0.220679
H150	H	1.512519	0.085199	0.720679
H151	H	0.873919	-0.424501	0.144973
H152	H	1.373919	0.075499	0.644973
H153	H	0.901516	-0.345024	0.191652
H154	H	1.401516	0.154976	0.691652
H155	H	0.671277	0.302214	0.000068
H156	H	1.171277	0.802214	0.500068
H157	H	1.036930	-0.262288	-0.084280
H158	H	1.536930	0.237712	0.415720
C159	C	0.387040	0.351677	0.000030
C160	C	0.887040	0.851677	0.500030
C161	C	0.304644	0.360742	0.000056
C162	C	0.804644	0.860742	0.500056
H163	H	0.408446	0.405399	-0.000016
H164	H	0.908446	0.905399	0.499984
H165	H	0.401987	0.324082	0.048462
H166	H	0.901987	0.824082	0.548462
H167	H	0.406568	0.319413	-0.048385
H168	H	0.906568	0.819413	0.451615
H169	H	0.285115	0.393001	0.048474
H170	H	0.785115	0.893001	0.548474
H171	H	0.289690	0.388349	-0.048381
H172	H	0.789690	0.888349	0.451619
C173	C	0.975374	0.031641	0.445833
C174	C	1.475374	0.531641	0.945833
C175	C	1.019339	0.083434	0.395569
C176	C	1.519339	0.583434	0.895569
H177	H	1.010155	-0.003143	0.475477
H178	H	1.510155	0.496857	0.975477
H179	H	0.941797	0.065235	0.484371
H180	H	1.441797	0.565235	0.984371
H181	H	0.944362	-0.002305	0.411733
H182	H	1.444362	0.497695	0.911733
H183	H	1.050346	0.117385	0.429669
H184	H	1.550346	0.617385	0.929669
H185	H	1.052929	0.049837	0.357026
H186	H	1.552929	0.549837	0.857026
C187	C	0.763723	0.009966	0.071468
C188	C	1.263723	0.509966	0.571468
C189	C	0.719526	0.007150	0.000087
C190	C	1.219526	0.507150	0.500087
H191	H	0.797812	-0.038992	0.071470
H192	H	1.297812	0.461008	0.571470
H193	H	0.794212	0.058113	0.071458
H194	H	1.294212	0.558113	0.571458
H195	H	0.729116	0.012673	0.119886
H196	H	1.229116	0.512673	0.619886
H197	H	0.754133	0.004449	-0.048332
H198	H	1.254133	0.504449	0.451668
H199	H	0.689035	-0.041010	0.000089
H200	H	1.189035	0.458990	0.500089
C201	C	0.394878	0.039146	-0.071273
C202	C	0.894878	0.539146	0.428727
C203	C	0.343885	0.043120	0.000110
C204	C	0.843885	0.543120	0.500110
H205	H	0.428970	-0.009810	-0.071273
H206	H	0.928970	0.490190	0.428727
H207	H	0.364886	0.037249	-0.119685
H208	H	0.864886	0.537249	0.380315
H209	H	0.425370	0.087300	-0.071264
H210	H	0.925370	0.587300	0.428736
H211	H	0.313388	-0.005031	0.000098
H212	H	0.813388	0.494969	0.500098
H213	H	0.373880	0.045009	0.048534
H214	H	0.873880	0.545009	0.548534
H215	H	0.804493	-0.240478	0.057023
H216	H	1.304493	0.259522	0.557023
C217	C	0.054508	0.323110	0.000123
C218	C	0.554508	0.823110	0.500123
C219	C	0.132956	0.345993	0.000113
C220	C	0.632956	0.845993	0.500113
H221	H	0.020416	0.372067	0.000133
H222	H	0.520416	0.872067	0.500133
H223	H	0.047252	0.288580	-0.048297
H224	H	0.547252	0.788580	0.451703
H225	H	0.042652	0.293175	0.048550
H226	H	0.542652	0.793175	0.548550
H227	H	0.144814	0.375923	-0.048317
H228	H	0.644814	0.875923	0.451683
H229	H	0.140216	0.380537	0.048538
H230	H	0.640216	0.880537	0.548538
H231	H	0.181198	0.050923	0.000121
H232	H	0.681198	0.550923	0.500121
H233	H	1.026736	-0.398675	0.083061
H234	H	1.526736	0.101325	0.583061
C235	C	1.126419	0.072127	0.766956
C236	C	1.626419	0.572127	1.266956
C237	C	1.048286	0.054515	0.788092
C238	C	1.548286	0.554515	1.288092
H239	H	1.161188	0.037341	0.796613
H240	H	1.661188	0.537341	1.296613
H241	H	1.136812	0.061716	0.708653
H242	H	1.636812	0.561716	1.208653
H243	H	1.134246	0.129266	0.781282
H244	H	1.634246	0.629266	1.281282
H245	H	1.040457	-0.002623	0.773760
H246	H	1.540457	0.497377	1.273760
H247	H	1.037888	0.064920	0.846408
H248	H	1.537888	0.564920	1.346408
H249	H	1.012274	0.090486	0.224555
H250	H	1.512274	0.590486	0.724555
H251	H	0.802329	-0.384808	0.056318
H252	H	1.302329	0.115192	0.556318
C253	C	0.783650	0.319227	0.661450
C254	C	1.283650	0.819227	1.161450
C255	C	0.833142	0.269703	0.604627
C256	C	1.333142	0.769703	1.104627
H257	H	0.748879	0.354014	0.631796
H258	H	1.248879	0.854014	1.131796
H259	H	0.753831	0.284093	0.695548
H260	H	1.253831	0.784093	1.195548
H261	H	0.814678	0.353171	0.695533
H262	H	1.314678	0.853171	1.195533
H263	H	0.802114	0.235754	0.570548
H264	H	1.302114	0.735754	1.070548
H265	H	0.862963	0.304841	0.570515
H266	H	1.362963	0.804841	1.070515
H267	H	1.041221	0.061574	0.617070
H268	H	1.541221	0.561574	1.117070
C269	C	0.773953	0.233165	0.838389
C270	C	1.273953	0.733165	1.338389
C271	C	0.824426	0.278440	0.788114
C272	C	1.324426	0.778440	1.288114
H273	H	0.736366	0.270769	0.868057
H274	H	1.236366	0.770769	1.368057
H275	H	0.747371	0.194790	0.804301
H276	H	1.247371	0.694790	1.304301
H277	H	0.803894	0.203240	0.876914
H278	H	1.303894	0.703240	1.376914
H279	H	0.794485	0.308360	0.749584
H280	H	1.294485	0.808360	1.249584
H281	H	0.851010	0.316830	0.822205
H282	H	1.351010	0.816830	1.322205
H283	H	0.818790	0.284005	0.224555
H284	H	1.318790	0.784005	0.724555
H285	H	0.933934	-0.244811	0.138399
H286	H	1.433934	0.255189	0.638399
H287	H	0.948107	-0.403833	-0.138552
H288	H	1.448107	0.096167	0.361448
H289	H	0.556824	0.014956	0.000111
H290	H	1.056824	0.514956	0.500111
C291	C	0.800786	-0.149623	-0.076522
C292	C	1.300786	0.350377	0.423478
C293	C	0.799476	-0.237087	-0.076655
C294	C	1.299476	0.262913	0.423345
H295	H	0.775358	-0.130044	-0.123907
H296	H	1.275358	0.369956	0.376093
H297	H	0.773978	-0.125821	-0.027115
H298	H	1.273978	0.374179	0.472885
H299	H	0.853914	-0.133688	-0.078467
H300	H	1.353914	0.366312	0.421533
H301	H	0.746348	-0.253022	-0.074704
H302	H	1.246348	0.246978	0.425296
H303	H	0.826282	-0.260897	-0.126075
H304	H	1.326282	0.239103	0.373925
C305	C	0.846786	-0.454838	-0.124977
C306	C	1.346786	0.045162	0.375023
C307	C	0.796535	-0.397389	-0.076984
C308	C	1.296535	0.102611	0.423016
H309	H	0.820477	-0.474459	-0.172363
H310	H	1.320477	0.025541	0.327637
H311	H	0.892959	-0.428221	-0.142803
H312	H	1.392959	0.071779	0.357197
H313	H	0.860990	-0.500804	-0.092314
H314	H	1.360990	-0.000804	0.407686
H315	H	0.782335	-0.351420	-0.109645
H316	H	1.282335	0.148580	0.390355
H317	H	0.750347	-0.424005	-0.059159
H318	H	1.250347	0.075995	0.440841
C319	C	0.938616	-0.164183	-0.160834
C320	C	1.438616	0.335817	0.339166
C321	C	0.935402	-0.251364	-0.158694
C322	C	1.435402	0.248636	0.341306
H323	H	0.915223	-0.145474	-0.209729
H324	H	1.415223	0.354526	0.290271
H325	H	0.910727	-0.138508	-0.112905
H326	H	1.410727	0.361492	0.387095
H327	H	0.992083	-0.149442	-0.161334
H328	H	1.492083	0.350558	0.338666
H329	H	0.881935	-0.266104	-0.158188
H330	H	1.381935	0.233896	0.341812
H331	H	0.963291	-0.277048	-0.206636
H332	H	1.463291	0.222952	0.293364
