data_functionalizedCrystal
_audit_creation_method	'MofGen! by Chris Wilmer'
_symmetry_space_group_name_H-M	'P1'
_symmetry_Int_Tables_number	1
_symmetry_cell_setting	triclinic
loop_
_symmetry_equiv_pos_as_xyz
  x,y,z
_cell_length_a	38.067023
_cell_length_b	38.077490
_cell_length_c	38.067077
_cell_angle_alpha	59.997704
_cell_angle_beta	89.998734
_cell_angle_gamma	60.000154
loop_
_atom_site_label
_atom_site_type_symbol
_atom_site_fract_x
_atom_site_fract_y
_atom_site_fract_z
O1	O	-0.299412	-0.251366	0.010448
O2	O	-0.248328	-0.179451	-0.010403
O3	O	-0.248326	-0.251365	0.061532
O4	O	-0.299414	-0.179451	-0.061486
O5	O	-0.189899	-0.309776	0.061532
O6	O	-0.189901	-0.237861	-0.010403
O7	O	-0.240985	-0.309777	0.010448
Cu8	Cu	-0.210108	-0.279152	0.000023
Cu9	Cu	-0.279205	-0.210075	0.000023
O10	O	-0.240987	-0.237862	-0.061487
C11	C	-0.128227	-0.039355	-0.025248
C12	C	-0.085950	-0.060389	-0.025544
C13	C	-0.128229	-0.102948	-0.025252
C14	C	-0.085951	-0.123885	-0.025548
C15	C	-0.064614	-0.102951	-0.025248
C16	C	-0.149467	-0.060386	-0.025548
C17	C	-0.191984	0.024217	-0.020086
C18	C	-0.212145	0.064391	-0.016827
C19	C	-0.190407	0.084538	-0.015189
C20	C	-0.212265	0.128095	-0.011653
C21	C	-0.148508	0.064518	-0.016815
C22	C	-0.128349	0.024348	-0.020076
C23	C	-0.150087	0.004198	-0.021710
C24	C	0.004140	-0.107949	-0.020081
C25	C	0.047584	-0.131226	-0.016822
C26	C	0.069372	-0.174739	-0.015188
C27	C	0.116478	-0.199981	-0.011652
C28	C	0.047720	-0.194979	-0.016818
C29	C	0.004278	-0.171702	-0.020080
C30	C	-0.017511	-0.128189	-0.021709
C31	C	-0.191986	-0.107941	-0.020095
C32	C	-0.212147	-0.131219	-0.016834
C33	C	-0.190411	-0.174732	-0.015200
C34	C	-0.212269	-0.199971	-0.011669
C35	C	-0.148514	-0.194974	-0.016824
C36	C	-0.128351	-0.171700	-0.020083
C37	C	-0.150089	-0.128183	-0.021719
C38	C	-0.463698	-0.431923	0.031681
C39	C	-0.442362	-0.474487	0.031979
C40	C	-0.400086	-0.431922	0.031678
C41	C	-0.378847	-0.474485	0.031976
C42	C	-0.400085	-0.495519	0.031681
C43	C	-0.442363	-0.410986	0.031977
C44	C	-0.617099	-0.317399	0.020167
C45	C	-0.660541	-0.293986	0.016912
C46	C	-0.682333	-0.314084	0.015279
C47	C	-0.729438	-0.288695	0.011741
C48	C	-0.660680	-0.357598	0.016905
C49	C	-0.617240	-0.381011	0.020166
C50	C	-0.595450	-0.360909	0.021797
C51	C	-0.361240	-0.637368	0.020169
C52	C	-0.341218	-0.677543	0.016913
C53	C	-0.299325	-0.697695	0.015276
C54	C	-0.277614	-0.741250	0.011740
C55	C	-0.277453	-0.677671	0.016899
C56	C	-0.297472	-0.637503	0.020162
C57	C	-0.339370	-0.617352	0.021794
C58	C	-0.361243	-0.317391	0.020154
C59	C	-0.341223	-0.293973	0.016891
C60	C	-0.299329	-0.314068	0.015255
C61	C	-0.277621	-0.288678	0.011714
C62	C	-0.277458	-0.357579	0.016879
C63	C	-0.297480	-0.380994	0.020141
C64	C	-0.339372	-0.360898	0.021783
C65	C	-0.548347	-0.386298	0.025329
C66	C	-0.510801	-0.406535	0.028146
C67	C	-0.378379	-0.406531	0.028139
C68	C	-0.361077	-0.386292	0.025320
C69	C	-0.378378	-0.539074	0.028145
C70	C	-0.361075	-0.573793	0.025328
C71	C	-0.400366	-0.057316	-0.406377
C72	C	-0.442644	-0.014753	-0.427617
C73	C	-0.400367	-0.057315	-0.342764
C74	C	-0.442645	-0.014752	-0.364100
C75	C	-0.463980	0.006280	-0.406378
C76	C	-0.379128	-0.078252	-0.364099
C77	C	-0.297324	-0.171843	-0.445218
C78	C	-0.277160	-0.195257	-0.465240
C79	C	-0.298897	-0.175161	-0.507135
C80	C	-0.277039	-0.200550	-0.528843
C81	C	-0.340797	-0.131647	-0.529008
C82	C	-0.360956	-0.108233	-0.508988
C83	C	-0.339217	-0.128333	-0.467092
C84	C	-0.617383	0.148127	-0.509421
C85	C	-0.660825	0.188302	-0.529585
C86	C	-0.682620	0.208455	-0.507851
C87	C	-0.729723	0.252009	-0.529707
C88	C	-0.660967	0.188432	-0.465950
C89	C	-0.617524	0.148265	-0.445790
C90	C	-0.595735	0.128112	-0.467530
C91	C	-0.297326	-0.171842	-0.189359
C92	C	-0.277164	-0.195259	-0.145915
C93	C	-0.298901	-0.175162	-0.124123
C94	C	-0.277044	-0.200551	-0.077017
C95	C	-0.340800	-0.131651	-0.145775
C96	C	-0.360960	-0.108238	-0.189218
C97	C	-0.339217	-0.128335	-0.211008
C98	C	-0.361081	-0.102944	-0.445385
C99	C	-0.378507	-0.082705	-0.428083
C100	C	-0.378507	-0.082704	-0.295660
C101	C	-0.361082	-0.102942	-0.258114
C102	C	-0.511083	0.049835	-0.428238
C103	C	-0.548630	0.084554	-0.445664
O104	O	0.255029	-0.309790	0.010469
O105	O	0.132012	-0.237874	-0.010380
O106	O	0.203941	-0.309792	0.061554
O107	O	0.183100	-0.237872	-0.061465
O108	O	0.203942	-0.251384	0.061558
O109	O	0.132013	-0.179466	-0.010377
O110	O	0.255030	-0.251382	0.010473
Cu111	Cu	0.193522	-0.210091	0.000049
Cu112	Cu	0.193520	-0.279165	0.000044
O113	O	0.183101	-0.179464	-0.061461
O114	O	-0.240980	0.244491	0.010471
O115	O	-0.189894	0.142351	-0.010378
O116	O	-0.189896	0.142345	0.061556
O117	O	-0.240977	0.244497	-0.061463
O118	O	-0.248324	0.142347	0.061552
O119	O	-0.248322	0.142354	-0.010382
O120	O	-0.299407	0.244493	0.010467
Cu121	Cu	-0.279199	0.193423	0.000042
Cu122	Cu	-0.210102	0.193421	0.000047
O123	O	-0.299405	0.244499	-0.061467
O124	O	-0.868274	0.368411	-0.558424
O125	O	-0.745257	0.266268	-0.507336
O126	O	-0.817186	0.266266	-0.507334
O127	O	-0.796344	0.368414	-0.558426
O128	O	-0.817185	0.266264	-0.565760
O129	O	-0.745255	0.266267	-0.565762
O130	O	-0.868272	0.368410	-0.616850
Cu131	Cu	-0.806764	0.317338	-0.596641
Cu132	Cu	-0.806765	0.317340	-0.527545
O133	O	-0.796342	0.368413	-0.616852
O134	O	-0.248325	-0.251366	-0.616562
O135	O	-0.299411	-0.179454	-0.565477
O136	O	-0.299410	-0.251368	-0.565474
O137	O	-0.248326	-0.179452	-0.616565
O138	O	-0.240982	-0.309779	-0.507046
O139	O	-0.240984	-0.237866	-0.507050
O140	O	-0.189898	-0.309777	-0.558134
Cu141	Cu	-0.210106	-0.279155	-0.527257
Cu142	Cu	-0.279203	-0.210077	-0.596354
O143	O	-0.189899	-0.237864	-0.558138
C144	C	-0.064616	-0.449882	0.321773
C145	C	-0.085952	-0.428850	0.343012
C146	C	-0.128230	-0.386287	0.258159
C147	C	-0.149469	-0.365351	0.279495
C148	C	-0.128229	-0.386287	0.321772
C149	C	-0.085952	-0.428850	0.279495
C150	C	0.004137	-0.513456	0.321608
C151	C	0.047581	-0.553630	0.341633
C152	C	0.069370	-0.573779	0.383524
C153	C	0.116475	-0.617338	0.405237
C154	C	0.047719	-0.553761	0.405398
C155	C	0.004276	-0.513590	0.385375
C156	C	-0.017513	-0.493437	0.343480
C157	C	-0.128064	-0.381291	0.385528
C158	C	-0.148088	-0.358015	0.405689
C159	C	-0.189980	-0.314501	0.383952
C160	C	-0.211692	-0.289261	0.405809
C161	C	-0.211854	-0.294260	0.342053
C162	C	-0.191832	-0.317536	0.321894
C163	C	-0.149937	-0.361050	0.343631
C164	C	-0.128065	-0.381291	0.189406
C165	C	-0.148087	-0.358011	0.145960
C166	C	-0.189978	-0.314497	0.124170
C167	C	-0.211691	-0.289256	0.077065
C168	C	-0.211851	-0.294255	0.145820
C169	C	-0.191830	-0.317532	0.189264
C170	C	-0.149937	-0.361049	0.211055
C171	C	0.218795	-0.386318	0.321799
C172	C	0.219090	-0.428881	0.343036
C173	C	0.218796	-0.386313	0.258183
C174	C	0.219092	-0.428876	0.279518
C175	C	0.218793	-0.449911	0.321795
C176	C	0.219094	-0.365380	0.279521
C177	C	0.213634	-0.317421	0.321636
C178	C	0.210376	-0.294010	0.341662
C179	C	0.208740	-0.314109	0.383554
C180	C	0.205205	-0.288726	0.405268
C181	C	0.210366	-0.357622	0.405427
C182	C	0.213626	-0.381034	0.385403
C183	C	0.215258	-0.360931	0.343507
C184	C	0.213628	-0.513486	0.385550
C185	C	0.210368	-0.553661	0.405710
C186	C	0.208734	-0.573807	0.383972
C187	C	0.205197	-0.617365	0.405828
C188	C	0.210362	-0.553786	0.342073
C189	C	0.213624	-0.513615	0.321915
C190	C	0.215255	-0.493465	0.343653
C191	C	0.213638	-0.317412	0.189431
C192	C	0.210375	-0.293992	0.145985
C193	C	0.208741	-0.314087	0.124194
C194	C	0.205208	-0.288698	0.077089
C195	C	0.210365	-0.357596	0.145843
C196	C	0.213625	-0.381016	0.189287
C197	C	0.215261	-0.360922	0.211080
C198	C	-0.128228	-0.102999	0.321786
C199	C	-0.085950	-0.123940	0.343026
C200	C	-0.128227	-0.039396	0.258176
C201	C	-0.085949	-0.060433	0.279514
C202	C	-0.064613	-0.103002	0.321790
C203	C	-0.149467	-0.060430	0.279509
C204	C	-0.191985	-0.107991	0.321615
C205	C	-0.212148	-0.131268	0.341636
C206	C	-0.190411	-0.174788	0.383526
C207	C	-0.212269	-0.200030	0.405235
C208	C	-0.148512	-0.195034	0.405402
C209	C	-0.128351	-0.171757	0.385383
C210	C	-0.150088	-0.128237	0.343489
C211	C	0.004140	-0.171911	0.385546
C212	C	0.047584	-0.195328	0.405709
C213	C	0.069374	-0.175229	0.383974
C214	C	0.116479	-0.200619	0.405833
C215	C	0.047722	-0.131710	0.342077
C216	C	0.004280	-0.108293	0.321916
C217	C	-0.017510	-0.128395	0.343651
C218	C	-0.191984	0.024189	0.189422
C219	C	-0.212144	0.064366	0.145977
C220	C	-0.190407	0.084517	0.124191
C221	C	-0.212265	0.128082	0.077087
C222	C	-0.148510	0.064494	0.145842
C223	C	-0.128348	0.024316	0.189286
C224	C	-0.150087	0.004165	0.211074
C225	C	0.161897	0.006009	-0.406354
C226	C	0.161600	-0.015021	-0.427594
C227	C	0.161894	-0.057588	-0.342741
C228	C	0.161597	-0.078522	-0.364078
C229	C	0.161896	-0.057584	-0.406356
C230	C	0.161598	-0.015025	-0.364076
C231	C	0.173418	0.147853	-0.445193
C232	C	0.176676	0.188028	-0.465214
C233	C	0.178312	0.208182	-0.507109
C234	C	0.181853	0.251736	-0.528817
C235	C	0.176687	0.188162	-0.528983
C236	C	0.173424	0.147995	-0.508964
C237	C	0.171789	0.127840	-0.467067
C238	C	0.173414	-0.107925	-0.509401
C239	C	0.176670	-0.131195	-0.529566
C240	C	0.178305	-0.174712	-0.507832
C241	C	0.181842	-0.199951	-0.529689
C242	C	0.176678	-0.194956	-0.465932
C243	C	0.173415	-0.171682	-0.445770
C244	C	0.171785	-0.128164	-0.467510
C245	C	0.173406	-0.107944	-0.189336
C246	C	0.176666	-0.131222	-0.145891
C247	C	0.178299	-0.174739	-0.124100
C248	C	0.181836	-0.199982	-0.076994
C249	C	0.176676	-0.194979	-0.145753
C250	C	0.173417	-0.171701	-0.189195
C251	C	0.171779	-0.128180	-0.210985
C252	C	0.168255	0.084282	-0.445361
C253	C	0.165436	0.049564	-0.428059
C254	C	0.165429	-0.082827	-0.295637
C255	C	0.168246	-0.102944	-0.258091
C256	C	0.165432	-0.082819	-0.428217
C257	C	0.168250	-0.102933	-0.445644
O258	O	0.183071	-0.237904	0.492984
O259	O	0.203929	-0.309818	0.441900
O260	O	0.131993	-0.237903	0.441891
O261	O	0.255007	-0.309819	0.492993
O262	O	0.132000	-0.179493	0.383466
O263	O	0.203936	-0.251408	0.383475
O264	O	0.183078	-0.179494	0.434559
Cu265	Cu	0.193508	-0.210118	0.403683
Cu266	Cu	0.193500	-0.279194	0.472776
O267	O	0.255014	-0.251409	0.434569
C268	C	-0.463698	0.568132	-0.406349
C269	C	-0.442362	0.589070	-0.427585
C270	C	-0.400084	0.504526	-0.342735
C271	C	-0.378845	0.525561	-0.364068
C272	C	-0.400084	0.568130	-0.406344
C273	C	-0.442362	0.525563	-0.364072
C274	C	-0.617102	0.618488	-0.445200
C275	C	-0.660545	0.641764	-0.465223
C276	C	-0.682337	0.685287	-0.507117
C277	C	-0.729443	0.710531	-0.528827
C278	C	-0.660684	0.705530	-0.528986
C279	C	-0.617243	0.682251	-0.508965
C280	C	-0.595452	0.638728	-0.467069
C281	C	-0.361238	0.682666	-0.509374
C282	C	-0.341215	0.706081	-0.529534
C283	C	-0.299321	0.685984	-0.507797
C284	C	-0.277610	0.711371	-0.529649
C285	C	-0.277449	0.642464	-0.465898
C286	C	-0.297468	0.619046	-0.445742
C287	C	-0.339367	0.639154	-0.467484
C288	C	-0.361239	0.362658	-0.189337
C289	C	-0.341219	0.322481	-0.145894
C290	C	-0.299323	0.302324	-0.124100
C291	C	-0.277614	0.258762	-0.076995
C292	C	-0.277452	0.322348	-0.145748
C293	C	-0.297475	0.362526	-0.189190
C294	C	-0.339368	0.382675	-0.210982
C295	C	-0.548348	0.613491	-0.445361
C296	C	-0.510802	0.593373	-0.428057
C297	C	-0.378377	0.460965	-0.295632
C298	C	-0.361074	0.426240	-0.258087
C299	C	-0.378376	0.593521	-0.428200
C300	C	-0.361073	0.613760	-0.445623
H301	H	-0.013600	-0.072517	-0.021412
C302	C	0.178473	-0.242822	-0.442022
C303	C	0.215087	-0.289357	-0.399378
C304	C	0.216883	-0.337225	-0.375468
C305	C	0.182066	-0.338559	-0.394202
C306	C	0.145449	-0.292022	-0.436848
C307	C	0.143652	-0.244154	-0.460759
H308	H	0.240863	-0.288371	-0.385508
H309	H	0.243990	-0.371675	-0.343898
H310	H	0.183396	-0.373994	-0.376502
H311	H	0.119673	-0.293008	-0.450719
H312	H	0.116546	-0.209704	-0.492328
C313	C	-0.407327	-0.295283	0.021952
C314	C	-0.416241	-0.326064	0.061256
C315	C	-0.462326	-0.303957	0.063050
C316	C	-0.499496	-0.251070	0.025540
C317	C	-0.490584	-0.220286	-0.013767
C318	C	-0.444499	-0.242392	-0.015561
H319	H	-0.388724	-0.365217	0.089026
H320	H	-0.468923	-0.326746	0.092148
H321	H	-0.533611	-0.234705	0.026869
H322	H	-0.518101	-0.181133	-0.041536
H323	H	-0.437902	-0.219604	-0.044659
H324	H	0.178017	0.204576	-0.563095
H325	H	0.219561	-0.446480	0.377772
C326	C	-0.365276	0.300454	-0.122081
C327	C	-0.380707	0.278798	-0.137936
C328	C	-0.404764	0.256770	-0.114123
C329	C	-0.413390	0.256398	-0.074456
C330	C	-0.397959	0.278054	-0.058599
C331	C	-0.373902	0.300083	-0.082412
H332	H	-0.374322	0.279073	-0.167302
H333	H	-0.416187	0.240738	-0.125862
H334	H	-0.431199	0.240091	-0.056829
H335	H	-0.404344	0.277779	-0.029234
H336	H	-0.362479	0.316114	-0.070673
C337	C	0.071694	-0.109602	0.318168
C338	C	0.091765	-0.093527	0.336904
C339	C	0.115734	-0.071416	0.312993
C340	C	0.119631	-0.065379	0.270345
C341	C	0.099559	-0.081454	0.251606
C342	C	0.075590	-0.103565	0.275518
H343	H	0.088881	-0.097996	0.368477
H344	H	0.130592	-0.059517	0.326865
H345	H	0.137374	-0.049011	0.252645
H346	H	0.102443	-0.076985	0.220034
H347	H	0.060732	-0.115464	0.261646
C348	C	-0.684359	-0.246121	0.015117
C349	C	-0.668513	-0.246527	0.052625
C350	C	-0.692331	-0.198661	0.050830
C351	C	-0.731995	-0.150388	0.011526
C352	C	-0.747843	-0.149980	-0.025985
C353	C	-0.724025	-0.197847	-0.024189
H354	H	-0.639149	-0.282263	0.081723
H355	H	-0.680599	-0.198963	0.078598
H356	H	-0.749626	-0.114955	0.010197
H357	H	-0.777207	-0.114244	-0.055082
H358	H	-0.735757	-0.197544	-0.051957
C359	C	0.071398	-0.108963	-0.015028
C360	C	0.075190	-0.102908	0.021587
C361	C	0.099008	-0.080648	0.023381
C362	C	0.119035	-0.064443	-0.011440
C363	C	0.115245	-0.070498	-0.048057
C364	C	0.091426	-0.092758	-0.049851
H365	H	0.060364	-0.114904	0.047366
H366	H	0.101815	-0.076166	0.050488
H367	H	0.136667	-0.047965	-0.010112
H368	H	0.130070	-0.058501	-0.073836
H369	H	0.088620	-0.097239	-0.076958
H370	H	-0.279616	-0.188204	-0.207101
C371	C	-0.231370	-0.699838	0.015103
C372	C	-0.222458	-0.700235	-0.024202
C373	C	-0.176375	-0.722401	-0.026000
C374	C	-0.139204	-0.744170	0.011505
C375	C	-0.148115	-0.743773	0.050812
C376	C	-0.194198	-0.721607	0.052611
H377	H	-0.249976	-0.684120	-0.051968
H378	H	-0.169779	-0.722694	-0.055098
H379	H	-0.105091	-0.760578	0.010174
H380	H	-0.120597	-0.759889	0.078579
H381	H	-0.200794	-0.721314	0.081709
H382	H	-0.395069	-0.072803	-0.526801
H383	H	0.209033	-0.373958	0.128097
C384	C	0.171601	-0.060070	-0.213306
C385	C	0.173387	-0.037805	-0.189491
C386	C	0.171580	0.010069	-0.213464
C387	C	0.167987	0.035680	-0.261251
C388	C	0.166201	0.013416	-0.285068
C389	C	0.168008	-0.034459	-0.261095
H390	H	0.176047	-0.056764	-0.154114
H391	H	0.172902	0.026551	-0.195833
H392	H	0.166650	0.071120	-0.278997
H393	H	0.163541	0.032374	-0.320445
H394	H	0.166686	-0.050940	-0.278727
H395	H	-0.599897	0.131968	-0.411676
H396	H	-0.344111	-0.492084	0.032451
C397	C	-0.407322	0.384823	-0.213310
C398	C	-0.431382	0.362802	-0.189499
C399	C	-0.477464	0.384969	-0.213474
C400	C	-0.499485	0.429157	-0.261259
C401	C	-0.475425	0.451181	-0.285072
C402	C	-0.429344	0.429014	-0.261097
H403	H	-0.415080	0.330089	-0.154124
H404	H	-0.495274	0.368665	-0.195846
H405	H	-0.533598	0.445566	-0.279006
H406	H	-0.491727	0.483894	-0.320448
H407	H	-0.411533	0.445318	-0.278726
C408	C	-0.215897	-0.060074	-0.021892
C409	C	-0.224409	-0.011868	-0.061193
C410	C	-0.248318	0.035997	-0.062987
C411	C	-0.263714	0.035656	-0.025478
C412	C	-0.255201	-0.012551	0.013826
C413	C	-0.231293	-0.060416	0.015619
H414	H	-0.213012	-0.011615	-0.088962
H415	H	-0.254619	0.071683	-0.092082
H416	H	-0.281412	0.071089	-0.026806
H417	H	-0.266599	-0.012805	0.041594
H418	H	-0.224992	-0.096102	0.044714
H419	H	-0.279669	-0.416421	0.021464
H420	H	0.172095	-0.188183	-0.206823
C421	C	0.208563	-0.379731	0.451510
C422	C	0.243378	-0.395816	0.487668
C423	C	0.241576	-0.417926	0.533751
C424	C	0.204959	-0.423952	0.543675
C425	C	0.170142	-0.407866	0.507516
C426	C	0.171944	-0.385756	0.461433
H427	H	0.270486	-0.391356	0.480322
H428	H	0.267350	-0.429834	0.560518
H429	H	0.203625	-0.440319	0.577789
H430	H	0.143034	-0.412326	0.514862
H431	H	0.146169	-0.373848	0.434666
H432	H	0.214971	-0.301048	0.207173
H433	H	0.214967	-0.301052	0.287524
H434	H	0.214959	-0.497084	0.403255
H435	H	0.209043	-0.569957	0.439824
C436	C	-0.465500	0.635344	-0.474511
C437	C	-0.442031	0.658472	-0.497968
C438	C	-0.465167	0.704744	-0.544892
C439	C	-0.511772	0.727888	-0.568358
C440	C	-0.535243	0.704760	-0.544900
C441	C	-0.512108	0.658488	-0.497977
H442	H	-0.407529	0.641340	-0.480597
H443	H	-0.447792	0.721865	-0.562257
H444	H	-0.528899	0.762141	-0.603094
H445	H	-0.569745	0.721892	-0.562271
H446	H	-0.529483	0.641367	-0.480612
H447	H	0.172101	0.131697	-0.526776
H448	H	-0.344108	0.507954	-0.346935
C449	C	0.071691	-0.242848	-0.015020
C450	C	0.091761	-0.244185	-0.049835
C451	C	0.115729	-0.292053	-0.048038
C452	C	0.119626	-0.338584	-0.011424
C453	C	0.099554	-0.337249	0.023395
C454	C	0.075587	-0.289381	0.021597
H455	H	0.088877	-0.209738	-0.076941
H456	H	0.130587	-0.293041	-0.073813
H457	H	0.137368	-0.374019	-0.010093
H458	H	0.102439	-0.371696	0.050501
H459	H	0.060729	-0.288393	0.047372
H460	H	-0.094231	0.008010	0.206912
C461	C	-0.062807	-0.036654	0.256374
C462	C	-0.021108	-0.066813	0.249710
C463	C	0.002034	-0.043036	0.226570
C464	C	-0.016524	0.010901	0.210096
C465	C	-0.058226	0.041063	0.216761
C466	C	-0.081368	0.017286	0.239900
H467	H	-0.007368	-0.106743	0.261905
H468	H	0.032905	-0.065364	0.221637
H469	H	0.000607	0.028502	0.192967
H470	H	-0.071966	0.080993	0.204565
H471	H	-0.112238	0.039614	0.244833
C472	C	-0.364716	-0.109540	-0.121808
C473	C	-0.373230	-0.140322	-0.082104
C474	C	-0.397146	-0.118211	-0.058139
C475	C	-0.412549	-0.065319	-0.073877
C476	C	-0.404036	-0.034534	-0.113583
C477	C	-0.380119	-0.056645	-0.137548
H478	H	-0.361827	-0.179479	-0.070452
H479	H	-0.403448	-0.141000	-0.028746
H480	H	-0.430254	-0.048951	-0.056136
H481	H	-0.415438	0.004623	-0.125235
H482	H	-0.373817	-0.033855	-0.166941
H483	H	-0.599644	0.131723	-0.527126
H484	H	0.214954	-0.497319	0.287802
H485	H	-0.093954	-0.416726	0.207147
C486	C	-0.124594	0.086659	0.121877
C487	C	-0.081953	0.053958	0.117971
C488	C	-0.058041	0.076125	0.094004
C489	C	-0.076770	0.130994	0.073944
C490	C	-0.119413	0.163698	0.077850
C491	C	-0.143325	0.141530	0.101816
H492	H	-0.068087	0.013338	0.132821
H493	H	-0.026473	0.051915	0.091113
H494	H	-0.059068	0.147404	0.056203
H495	H	-0.133279	0.204318	0.063000
H496	H	-0.174893	0.165741	0.104707
H497	H	-0.459773	0.002849	-0.346970
C498	C	-0.465499	-0.498271	0.032629
C499	C	-0.512103	-0.475138	0.032949
C500	C	-0.535238	-0.498923	0.033598
C501	C	-0.511770	-0.545840	0.033928
C502	C	-0.465163	-0.568975	0.033608
C503	C	-0.442028	-0.545191	0.032958
H504	H	-0.529478	-0.440405	0.032705
H505	H	-0.569739	-0.481796	0.033835
H506	H	-0.528895	-0.563446	0.034409
H507	H	-0.447788	-0.603708	0.033852
H508	H	-0.407527	-0.562317	0.032721
H509	H	-0.130815	-0.230473	0.439514
C510	C	-0.215888	-0.295276	0.275808
C511	C	-0.258563	-0.289212	0.265953
C512	C	-0.282618	-0.266953	0.219867
C513	C	-0.263998	-0.250758	0.183636
C514	C	-0.221321	-0.256821	0.193490
C515	C	-0.197266	-0.279081	0.239576
H516	H	-0.272348	-0.301201	0.292774
H517	H	-0.314211	-0.262464	0.212572
H518	H	-0.281805	-0.234280	0.149520
H519	H	-0.207535	-0.244832	0.166668
H520	H	-0.165673	-0.283569	0.246870
H521	H	-0.094236	0.008051	-0.021402
C522	C	0.215411	-0.428894	0.409459
C523	C	0.180589	-0.430300	0.390837
C524	C	0.182373	-0.478159	0.414894
C525	C	0.218978	-0.524614	0.457573
C526	C	0.253802	-0.523210	0.476197
C527	C	0.252019	-0.475350	0.452140
H528	H	0.153490	-0.395910	0.359242
H529	H	0.156594	-0.479198	0.401107
H530	H	0.220298	-0.560043	0.475381
H531	H	0.280902	-0.557600	0.507793
H532	H	0.277798	-0.474311	0.465928
H533	H	-0.395352	0.699041	-0.527080
H534	H	-0.068816	-0.446445	0.262363
C535	C	-0.062805	-0.170214	0.389952
C536	C	-0.056131	-0.218569	0.401482
C537	C	-0.032986	-0.264842	0.448405
C538	C	-0.016514	-0.262759	0.483799
C539	C	-0.023187	-0.214402	0.472270
C540	C	-0.046332	-0.168130	0.425346
H541	H	-0.068325	-0.220112	0.375280
H542	H	-0.028046	-0.300638	0.456939
H543	H	0.000620	-0.297013	0.518535
H544	H	-0.010993	-0.212859	0.498471
H545	H	-0.051272	-0.132333	0.416812
C546	C	0.071398	-0.243197	0.451792
C547	C	0.111063	-0.291467	0.460773
C548	C	0.134881	-0.339337	0.506857
C549	C	0.119034	-0.338937	0.543960
C550	C	0.079367	-0.290665	0.534981
C551	C	0.055549	-0.242795	0.488897
H552	H	0.122796	-0.291765	0.433305
H553	H	0.164245	-0.375071	0.513504
H554	H	0.136665	-0.374373	0.578075
H555	H	0.067634	-0.290367	0.562448
H556	H	0.026185	-0.207061	0.482250
H557	H	-0.599361	-0.301028	0.021496
C558	C	-0.684936	0.210600	-0.442041
C559	C	-0.724637	0.210996	-0.433525
C560	C	-0.748608	0.233162	-0.409614
C561	C	-0.732878	0.254932	-0.394219
C562	C	-0.693175	0.254536	-0.402735
C563	C	-0.669204	0.232370	-0.426645
H564	H	-0.736283	0.194879	-0.444922
H565	H	-0.777998	0.233454	-0.403311
H566	H	-0.750622	0.271340	-0.376519
H567	H	-0.681528	0.270653	-0.391338
H568	H	-0.639813	0.232078	-0.432949
C569	C	0.208563	-0.575949	0.318158
C570	C	0.171949	-0.543238	0.275512
C571	C	0.170151	-0.565399	0.251596
C572	C	0.204966	-0.620269	0.270326
C573	C	0.241582	-0.652983	0.312975
C574	C	0.243381	-0.630823	0.336891
H575	H	0.146175	-0.502617	0.261645
H576	H	0.143045	-0.541181	0.220025
H577	H	0.203635	-0.636674	0.252622
H578	H	0.267357	-0.693605	0.326842
H579	H	0.270486	-0.655040	0.368462
H580	H	0.214945	-0.416443	0.206912
C581	C	0.178465	-0.108932	-0.575651
C582	C	0.140958	-0.055997	-0.612754
C583	C	0.142755	-0.033735	-0.658839
C584	C	0.182058	-0.064408	-0.667820
C585	C	0.219568	-0.117347	-0.630716
C586	C	0.217772	-0.139609	-0.584631
H587	H	0.111861	-0.033288	-0.606107
H588	H	0.114987	0.005454	-0.686306
H589	H	0.183388	-0.047928	-0.701935
H590	H	0.248665	-0.140056	-0.637363
H591	H	0.245539	-0.178798	-0.557164
H592	H	-0.013352	-0.188180	-0.021410
H593	H	-0.459495	-0.376734	0.032451
H594	H	-0.094238	-0.188182	-0.021409
H595	H	0.178006	-0.230414	-0.128007
C596	C	-0.365280	-0.246112	0.015104
C597	C	-0.346658	-0.244706	0.049925
C598	C	-0.370715	-0.196847	0.048140
C599	C	-0.413394	-0.150394	0.011535
C600	C	-0.432019	-0.151799	-0.023288
C601	C	-0.407962	-0.199658	-0.021504
H602	H	-0.315062	-0.279095	0.077024
H603	H	-0.356927	-0.195807	0.073919
H604	H	-0.431202	-0.114966	0.010215
H605	H	-0.463614	-0.117410	-0.050387
H606	H	-0.421749	-0.200697	-0.047282
C607	C	-0.684363	0.619501	-0.441166
C608	C	-0.668519	0.566569	-0.425734
C609	C	-0.692337	0.544306	-0.401676
C610	C	-0.731999	0.574975	-0.393050
C611	C	-0.747845	0.627909	-0.408483
C612	C	-0.724027	0.650172	-0.432541
H613	H	-0.639156	0.543864	-0.432118
H614	H	-0.680606	0.505120	-0.390251
H615	H	-0.749631	0.558494	-0.375241
H616	H	-0.777208	0.650614	-0.402099
H617	H	-0.735758	0.689358	-0.443966
C618	C	-0.215895	0.002020	0.213390
C619	C	-0.224408	0.001609	0.253097
C620	C	-0.248316	-0.020565	0.277064
C621	C	-0.263712	-0.042327	0.261324
C622	C	-0.255200	-0.041917	0.221615
C623	C	-0.231291	-0.019743	0.197648
H624	H	-0.213011	0.017719	0.264751
H625	H	-0.254618	-0.020868	0.306460
H626	H	-0.281411	-0.058741	0.279066
H627	H	-0.266597	-0.058027	0.209961
H628	H	-0.224990	-0.019440	0.168252
C629	C	-0.684655	0.753402	-0.575067
C630	C	-0.688557	0.799933	-0.584991
C631	C	-0.712529	0.847807	-0.631073
C632	C	-0.732599	0.849150	-0.667231
C633	C	-0.728697	0.802618	-0.657307
C634	C	-0.704726	0.754744	-0.611225
H635	H	-0.673700	0.798940	-0.558224
H636	H	-0.715417	0.882253	-0.638419
H637	H	-0.750344	0.884589	-0.701344
H638	H	-0.743555	0.803610	-0.684074
H639	H	-0.701838	0.720298	-0.603880
C640	C	-0.332198	-0.124515	-0.340949
C641	C	-0.296822	-0.122407	-0.324482
C642	C	-0.249894	-0.168666	-0.301329
C643	C	-0.238342	-0.217034	-0.294641
C644	C	-0.273720	-0.219144	-0.311107
C645	C	-0.320648	-0.172885	-0.334261
H646	H	-0.305372	-0.086600	-0.329433
H647	H	-0.223705	-0.167104	-0.289139
H648	H	-0.203603	-0.251278	-0.277501
H649	H	-0.265169	-0.254951	-0.306157
H650	H	-0.346836	-0.174448	-0.346451
H651	H	0.161117	-0.112772	-0.346948
H652	H	-0.395074	-0.072810	-0.206845
H653	H	-0.013602	-0.497051	0.287496
H654	H	0.172084	-0.072490	-0.527106
C655	C	0.171626	-0.193947	-0.399684
C656	C	0.173423	-0.241814	-0.375772
C657	C	0.171636	-0.264081	-0.329684
C658	C	0.168051	-0.238482	-0.307507
C659	C	0.166254	-0.190613	-0.331419
C660	C	0.168041	-0.168345	-0.377507
H661	H	0.176077	-0.260767	-0.392189
H662	H	0.172967	-0.299518	-0.311983
H663	H	0.166728	-0.254966	-0.273390
H664	H	0.163600	-0.171660	-0.315003
H665	H	0.166710	-0.132909	-0.395208
H666	H	-0.599615	0.698734	-0.526774
C667	C	-0.231373	-0.379691	0.015082
C668	C	-0.222458	-0.348911	-0.024222
C669	C	-0.176374	-0.371023	-0.026019
C670	C	-0.139206	-0.423914	0.011488
C671	C	-0.148120	-0.454697	0.050794
C672	C	-0.194203	-0.432585	0.052591
H673	H	-0.249973	-0.309754	-0.051989
H674	H	-0.169776	-0.348235	-0.055116
H675	H	-0.105092	-0.440283	0.010157
H676	H	-0.120605	-0.493854	0.078561
H677	H	-0.200802	-0.455373	0.081688
C678	C	-0.257935	-0.246386	0.121852
C679	C	-0.295104	-0.246723	0.137588
C680	C	-0.341188	-0.198855	0.113619
C681	C	-0.350103	-0.150650	0.073915
C682	C	-0.312933	-0.150311	0.058177
C683	C	-0.266849	-0.198179	0.082145
H684	H	-0.288505	-0.282409	0.166981
H685	H	-0.368703	-0.199107	0.125269
H686	H	-0.384217	-0.115216	0.056172
H687	H	-0.319531	-0.114625	0.028783
H688	H	-0.239333	-0.197928	0.070495
C689	C	-0.684650	-0.379704	0.015110
C690	C	-0.704717	-0.395786	0.049929
C691	C	-0.728687	-0.417894	0.048134
C692	C	-0.732591	-0.423919	0.011519
C693	C	-0.712523	-0.407837	-0.023303
C694	C	-0.688553	-0.385729	-0.021508
H695	H	-0.701828	-0.391326	0.077036
H696	H	-0.743542	-0.429799	0.073911
H697	H	-0.750335	-0.440285	0.010189
H698	H	-0.715412	-0.412297	-0.050410
H699	H	-0.673698	-0.373824	-0.047285
H700	H	-0.130274	-0.374502	0.439804
C701	C	-0.465787	0.009028	-0.474543
C702	C	-0.442329	-0.014108	-0.498005
C703	C	-0.465473	0.009671	-0.544929
C704	C	-0.512075	0.056586	-0.568390
C705	C	-0.535536	0.079724	-0.544927
C706	C	-0.512392	0.055945	-0.498004
H707	H	-0.407830	-0.048840	-0.480638
H708	H	-0.448106	-0.007458	-0.562297
H709	H	-0.529208	0.074188	-0.603126
H710	H	-0.570036	0.114455	-0.562294
H711	H	-0.529759	0.073074	-0.480635
C712	C	-0.062821	-0.452630	0.389942
C713	C	-0.046353	-0.506566	0.425331
C714	C	-0.023229	-0.530344	0.472261
C715	C	-0.016572	-0.500186	0.483801
C716	C	-0.033041	-0.446247	0.448411
C717	C	-0.056165	-0.422468	0.401482
H718	H	-0.051280	-0.528893	0.416789
H719	H	-0.011038	-0.570274	0.498459
H720	H	0.000546	-0.517789	0.518541
H721	H	-0.028114	-0.423919	0.456953
H722	H	-0.068356	-0.382539	0.375284
C723	C	0.160954	0.008759	-0.474522
C724	C	0.160637	0.055670	-0.497985
C725	C	0.159990	0.079449	-0.544911
C726	C	0.159661	0.056318	-0.568373
C727	C	0.159979	0.009405	-0.544910
C728	C	0.160625	-0.014374	-0.497984
H729	H	0.160880	0.072795	-0.480616
H730	H	0.159755	0.114177	-0.562280
H731	H	0.159183	0.073920	-0.603111
H732	H	0.159735	-0.007720	-0.562279
H733	H	0.160860	-0.049102	-0.480616
C734	C	-0.365275	0.753952	-0.575616
C735	C	-0.407947	0.800400	-0.585461
C736	C	-0.432008	0.848272	-0.631543
C737	C	-0.413397	0.849698	-0.667781
C738	C	-0.370722	0.803249	-0.657938
C739	C	-0.346661	0.755376	-0.611856
H740	H	-0.421727	0.799346	-0.558634
H741	H	-0.463599	0.882657	-0.638829
H742	H	-0.431209	0.885136	-0.701894
H743	H	-0.356943	0.804303	-0.684765
H744	H	-0.315070	0.720992	-0.604569
H745	H	-0.209688	0.007815	-0.021420
H746	H	-0.094237	-0.188241	0.403196
C747	C	-0.231365	0.620351	-0.441986
C748	C	-0.195212	0.604275	-0.460720
C749	C	-0.149128	0.582164	-0.436806
C750	C	-0.139197	0.576128	-0.394159
C751	C	-0.175351	0.592205	-0.375423
C752	C	-0.221434	0.614316	-0.399336
H753	H	-0.202562	0.608743	-0.492292
H754	H	-0.122365	0.570263	-0.450676
H755	H	-0.105083	0.559760	-0.376457
H756	H	-0.168000	0.587737	-0.343850
H757	H	-0.248198	0.626217	-0.385466
C758	C	-0.231076	-0.243122	-0.441179
C759	C	-0.193974	-0.242715	-0.425741
C760	C	-0.147889	-0.290582	-0.401679
C761	C	-0.138907	-0.338855	-0.393055
C762	C	-0.176010	-0.339263	-0.408494
C763	C	-0.222094	-0.291397	-0.432556
H764	H	-0.200622	-0.206979	-0.432124
H765	H	-0.120423	-0.290279	-0.390251
H766	H	-0.104792	-0.374288	-0.375243
H767	H	-0.169361	-0.374999	-0.402110
H768	H	-0.249560	-0.291700	-0.443984
C769	C	-0.365277	-0.699562	0.015121
C770	C	-0.346663	-0.754397	0.049941
C771	C	-0.370724	-0.776415	0.048148
C772	C	-0.413398	-0.743599	0.011535
C773	C	-0.432014	-0.688761	-0.023287
C774	C	-0.407954	-0.666743	-0.021494
H775	H	-0.315071	-0.778693	0.077046
H776	H	-0.356943	-0.817010	0.073926
H777	H	-0.431209	-0.759898	0.010207
H778	H	-0.463606	-0.664465	-0.050393
H779	H	-0.421735	-0.626148	-0.047272
C780	C	-0.258229	0.086409	-0.015036
C781	C	-0.268083	0.053597	0.021576
C782	C	-0.314170	0.075619	0.023365
C783	C	-0.350402	0.130453	-0.011459
C784	C	-0.340549	0.163268	-0.048074
C785	C	-0.294462	0.141246	-0.049862
H786	H	-0.241261	0.013003	0.047357
H787	H	-0.321464	0.051327	0.050469
H788	H	-0.384518	0.146755	-0.010135
H789	H	-0.367371	0.203862	-0.073854
H790	H	-0.287168	0.165539	-0.076967
H791	H	-0.130811	0.080929	-0.015481
C792	C	-0.364706	-0.109542	-0.575090
C793	C	-0.373219	-0.140325	-0.584000
C794	C	-0.397130	-0.118218	-0.630084
C795	C	-0.412527	-0.065328	-0.667257
C796	C	-0.404014	-0.034543	-0.658348
C797	C	-0.380103	-0.056649	-0.612265
H798	H	-0.361820	-0.179479	-0.556481
H799	H	-0.403432	-0.141008	-0.636678
H800	H	-0.430228	-0.048963	-0.701371
H801	H	-0.415413	0.004612	-0.685867
H802	H	-0.373802	-0.033859	-0.605670
C803	C	-0.124598	-0.242843	-0.015027
C804	C	-0.143326	-0.244176	-0.049848
C805	C	-0.119412	-0.292043	-0.048051
C806	C	-0.076770	-0.338577	-0.011434
C807	C	-0.058040	-0.337246	0.023390
C808	C	-0.081954	-0.289379	0.021593
H809	H	-0.174894	-0.209728	-0.076956
H810	H	-0.133277	-0.293029	-0.073830
H811	H	-0.059067	-0.374011	-0.010104
H812	H	-0.026472	-0.371694	0.050499
H813	H	-0.068088	-0.288393	0.047372
C814	C	-0.273411	0.571179	-0.399656
C815	C	-0.227330	0.549067	-0.375742
C816	C	-0.203273	0.501202	-0.329655
C817	C	-0.225298	0.475447	-0.307484
C818	C	-0.271381	0.497559	-0.331398
C819	C	-0.295438	0.545425	-0.377485
H820	H	-0.211023	0.568132	-0.392154
H821	H	-0.169158	0.484833	-0.311952
H822	H	-0.207489	0.440014	-0.273368
H823	H	-0.287688	0.478494	-0.314986
H824	H	-0.329553	0.561793	-0.395188
H825	H	-0.209640	-0.301047	0.206890
H826	H	-0.184204	-0.042827	0.262380
H827	H	-0.246258	0.080666	0.128353
C828	C	-0.231365	0.300178	-0.121779
C829	C	-0.195212	0.245310	-0.101721
C830	C	-0.149127	0.223141	-0.077753
C831	C	-0.139195	0.255840	-0.073844
C832	C	-0.175350	0.310711	-0.093902
C833	C	-0.221435	0.332880	-0.117870
H834	H	-0.202563	0.221101	-0.104615
H835	H	-0.122363	0.182521	-0.062905
H836	H	-0.105080	0.239429	-0.056101
H837	H	-0.167999	0.334919	-0.091008
H838	H	-0.248199	0.373499	-0.132718
H839	H	-0.678451	0.204601	-0.563700
C840	C	-0.273415	-0.615478	0.021947
C841	C	-0.227335	-0.637640	0.020146
C842	C	-0.203279	-0.615613	0.021929
C843	C	-0.225303	-0.571425	0.025512
C844	C	-0.271386	-0.549262	0.027313
C845	C	-0.295442	-0.571288	0.025530
H846	H	-0.211030	-0.670352	0.017493
H847	H	-0.169166	-0.632020	0.020595
H848	H	-0.207496	-0.555120	0.026832
H849	H	-0.287692	-0.516549	0.029966
H850	H	-0.329556	-0.554881	0.026863
C851	C	-0.258233	-0.109001	0.317575
C852	C	-0.268090	-0.102933	0.274898
C853	C	-0.314177	-0.080665	0.250839
C854	C	-0.350408	-0.064465	0.269457
C855	C	-0.340552	-0.070533	0.312136
C856	C	-0.294464	-0.092801	0.336195
H857	H	-0.241269	-0.114925	0.261114
H858	H	-0.321473	-0.076173	0.219245
H859	H	-0.384525	-0.047981	0.251647
H860	H	-0.367373	-0.058541	0.325920
H861	H	-0.287169	-0.097293	0.367789
H862	H	-0.013600	-0.188280	0.403247
C863	C	0.208595	-0.246136	0.122172
C864	C	0.243414	-0.244729	0.102139
C865	C	0.241631	-0.196870	0.078322
C866	C	0.205029	-0.150417	0.074537
C867	C	0.170207	-0.151823	0.094570
C868	C	0.171990	-0.199682	0.118387
H869	H	0.270511	-0.279117	0.104940
H870	H	0.267409	-0.195830	0.063492
H871	H	0.203710	-0.114989	0.056905
H872	H	0.143110	-0.117434	0.091769
H873	H	0.146212	-0.200722	0.133217
H874	H	-0.395353	-0.620965	0.021500
C875	C	-0.124028	-0.380281	0.122150
C876	C	-0.081347	-0.386358	0.118368
C877	C	-0.057288	-0.408628	0.094556
C878	C	-0.075909	-0.424821	0.074525
C879	C	-0.118593	-0.418744	0.078306
C880	C	-0.142652	-0.396475	0.102118
H881	H	-0.067561	-0.374371	0.133197
H882	H	-0.025691	-0.413126	0.091757
H883	H	-0.058099	-0.441306	0.056898
H884	H	-0.132379	-0.430732	0.063477
H885	H	-0.174249	-0.391977	0.104917
H886	H	0.065205	-0.569926	0.323820
C887	C	0.071690	-0.575925	0.451481
C888	C	0.091761	-0.630796	0.487639
C889	C	0.115729	-0.652958	0.533722
C890	C	0.119627	-0.620249	0.543646
C891	C	0.099555	-0.565374	0.507487
C892	C	0.075587	-0.543212	0.461405
H893	H	0.088876	-0.655013	0.480293
H894	H	0.130587	-0.693580	0.560489
H895	H	0.137370	-0.636654	0.577759
H896	H	0.102440	-0.541157	0.514833
H897	H	0.060729	-0.502590	0.434638
H898	H	-0.243050	-0.230687	-0.128288
H899	H	-0.599613	-0.416440	0.021492
C900	C	0.219739	-0.452659	0.256380
C901	C	0.257216	-0.471570	0.239906
C902	C	0.257864	-0.495354	0.216771
C903	C	0.221035	-0.500226	0.210111
C904	C	0.183555	-0.481313	0.226585
C905	C	0.182907	-0.457530	0.249720
H906	H	0.284482	-0.467964	0.244836
H907	H	0.285609	-0.509354	0.204576
H908	H	0.221514	-0.517832	0.192985
H909	H	0.156289	-0.484919	0.221655
H910	H	0.155162	-0.443530	0.261915
H911	H	-0.093952	-0.416724	0.403232
H912	H	-0.279619	-0.188213	-0.411105
H913	H	-0.599364	0.583049	-0.411088
H914	H	-0.068823	-0.158134	-0.026027
H915	H	-0.279663	0.378826	-0.206814
C916	C	-0.062804	-0.036615	-0.026186
C917	C	-0.056129	-0.031760	0.010651
C918	C	-0.032983	-0.007989	0.010008
C919	C	-0.016511	0.010925	-0.027471
C920	C	-0.023185	0.006071	-0.064311
C921	C	-0.046332	-0.017700	-0.063668
H922	H	-0.068323	-0.045762	0.038397
H923	H	-0.028042	-0.004396	0.037280
H924	H	0.000624	0.028522	-0.027946
H925	H	-0.010991	0.020073	-0.092057
H926	H	-0.051272	-0.021294	-0.090940
C927	C	0.219722	-0.319099	0.256364
C928	C	0.182874	-0.270746	0.249685
C929	C	0.183494	-0.224461	0.226521
C930	C	0.220961	-0.226529	0.210035
C931	C	0.257812	-0.274884	0.216713
C932	C	0.257193	-0.321169	0.239878
H933	H	0.155136	-0.269213	0.261890
H934	H	0.156214	-0.188665	0.221577
H935	H	0.221420	-0.192266	0.192887
H936	H	0.285550	-0.276416	0.204509
H937	H	0.284472	-0.356964	0.244821
H938	H	-0.209689	-0.072554	0.287504
H939	H	-0.245967	-0.258826	0.324356
H940	H	0.161154	0.002555	-0.346935
H941	H	-0.013347	-0.072862	0.287802
H942	H	0.177999	-0.114746	-0.128261
C943	C	0.208591	-0.246150	0.317607
C944	C	0.169296	-0.197876	0.308989
C945	C	0.167515	-0.150018	0.284937
C946	C	0.205028	-0.150434	0.269502
C947	C	0.244326	-0.198710	0.278119
C948	C	0.246107	-0.246568	0.302172
H949	H	0.141524	-0.197566	0.320415
H950	H	0.138424	-0.114280	0.278558
H951	H	0.203710	-0.115006	0.251697
H952	H	0.272098	-0.199019	0.266693
H953	H	0.275198	-0.282305	0.308551
H954	H	-0.184204	-0.331097	0.262361
H955	H	-0.184205	-0.042780	-0.026030
H956	H	-0.246261	-0.114733	-0.015512
H957	H	0.172087	0.131448	-0.411080
H958	H	-0.013351	-0.497292	0.403186
H959	H	0.178001	0.204324	-0.447401
H960	H	-0.459498	0.507968	-0.346943
