data_functionalizedCrystal
_audit_creation_method	'MofGen! by Chris Wilmer'
_symmetry_space_group_name_H-M	'P1'
_symmetry_Int_Tables_number	1
_symmetry_cell_setting	triclinic
loop_
_symmetry_equiv_pos_as_xyz
  x,y,z
_cell_length_a	17.639617
_cell_length_b	29.839131
_cell_length_c	17.639477
_cell_angle_alpha	78.750105
_cell_angle_beta	92.133882
_cell_angle_gamma	101.225424
loop_
_atom_site_label
_atom_site_type_symbol
_atom_site_fract_x
_atom_site_fract_y
_atom_site_fract_z
Zn1	Zn	1.074199	0.020762	-0.664489
Zn2	Zn	1.574199	0.520762	-0.164489
Zn3	Zn	1.099735	-0.066037	-0.537469
Zn4	Zn	1.599735	0.433963	-0.037469
Zn5	Zn	0.972858	-0.008430	-0.511794
Zn6	Zn	1.472858	0.491570	-0.011794
Zn7	Zn	0.947133	-0.071885	-0.638703
Zn8	Zn	1.447133	0.428115	-0.138703
O9	O	1.023481	-0.031398	-0.588114
O10	O	1.523481	0.468602	-0.088114
O11	O	1.183863	0.023911	-0.669176
O12	O	1.683863	0.523911	-0.169176
O13	O	1.104357	-0.068165	-0.427794
O14	O	1.604357	0.431835	0.072206
O15	O	0.986380	0.058324	-0.532096
O16	O	1.486380	0.558324	-0.032096
O17	O	1.202624	-0.039859	-0.575856
O18	O	1.702624	0.460141	-0.075856
O19	O	1.060835	0.079771	-0.644280
O20	O	1.560835	0.579771	-0.144280
O21	O	1.011141	-0.025842	-0.408930
O22	O	1.511141	0.474158	0.091070
O23	O	0.863169	-0.031511	-0.507092
O24	O	1.363169	0.468489	-0.007092
O25	O	0.942536	-0.049825	-0.748393
O26	O	1.442536	0.450175	-0.248393
O27	O	0.844269	-0.078131	-0.600331
O28	O	1.344269	0.421869	-0.100331
O29	O	1.035891	0.018242	-0.767338
O30	O	1.535891	0.518242	-0.267338
O31	O	1.079413	-0.129695	-0.550852
O32	O	1.579413	0.370305	-0.050852
O33	O	0.967297	-0.133990	-0.625228
O34	O	1.467297	0.366010	-0.125228
C35	C	0.826162	-0.058624	-0.548128
C36	C	1.326162	0.441376	-0.048128
C37	C	0.741745	-0.070280	-0.531040
C38	C	1.241745	0.429720	-0.031040
C39	C	0.415169	0.057183	-0.718118
C40	C	0.915169	0.557183	-0.218118
C41	C	0.335849	0.046217	-0.702046
C42	C	0.835849	0.546217	-0.202046
C43	C	0.355435	-0.020105	-0.604731
C44	C	0.855435	0.479895	-0.104731
C45	C	0.434758	-0.009146	-0.620798
C46	C	0.934758	0.490854	-0.120798
C47	C	0.464618	0.029499	-0.677492
C48	C	0.964618	0.529499	-0.177492
C49	C	0.484207	-0.036830	-0.580172
C50	C	0.984207	0.463170	-0.080172
C51	C	0.563523	-0.025870	-0.596234
C52	C	1.063523	0.474130	-0.096234
C53	C	0.593390	0.012773	-0.652924
C54	C	1.093390	0.512773	-0.152924
C55	C	0.543934	0.040458	-0.693555
C56	C	1.043934	0.540458	-0.193555
C57	C	0.454346	-0.075473	-0.523474
C58	C	0.954346	0.424527	-0.023474
C59	C	0.503795	-0.103157	-0.482848
C60	C	1.003795	0.396843	0.017152
C61	C	0.583112	-0.092199	-0.498914
C62	C	1.083112	0.407801	0.001086
C63	C	0.612979	-0.053556	-0.555604
C64	C	1.112979	0.446444	-0.055604
C65	C	0.632568	-0.119885	-0.458283
C66	C	1.132568	0.380115	0.041717
C67	C	0.711884	-0.108925	-0.474346
C68	C	1.211884	0.391075	0.025654
C69	C	0.692296	-0.042596	-0.571666
C70	C	1.192296	0.457404	-0.071666
C71	C	1.023352	-0.148143	-0.588048
C72	C	1.523352	0.351857	-0.088048
C73	C	1.023361	-0.198075	-0.588060
C74	C	1.523361	0.301925	-0.088060
C75	C	1.081934	-0.505430	-0.549475
C76	C	1.581934	-0.005430	-0.049475
C77	C	1.082022	-0.693087	-0.549524
C78	C	1.582022	-0.193087	-0.049524
O79	O	1.131720	-0.715424	-0.516667
O80	O	1.631720	-0.215424	-0.016667
N81	N	1.023627	-0.718813	-0.588203
N82	N	1.523627	-0.218813	-0.088203
C83	C	0.965209	-0.697620	-0.626877
C84	C	1.465209	-0.197620	-0.126877
O85	O	0.915547	-0.723806	-0.659784
O86	O	1.415547	-0.223806	-0.159784
C87	C	0.965125	-0.509963	-0.626833
C88	C	1.465125	-0.009963	-0.126833
C89	C	1.023519	-0.484241	-0.588145
C90	C	1.523519	0.015759	-0.088145
C91	C	1.140324	-0.479708	-0.510791
C92	C	1.640324	0.020292	-0.010791
C93	C	1.140299	-0.432797	-0.510776
C94	C	1.640299	0.067203	-0.010776
C95	C	1.081884	-0.411608	-0.549445
C96	C	1.581884	0.088392	-0.049445
C97	C	1.023494	-0.437330	-0.588129
C98	C	1.523494	0.062670	-0.088129
C99	C	0.906711	-0.488770	-0.665511
C100	C	1.406711	0.011230	-0.165511
C101	C	0.906696	-0.441853	-0.665498
C102	C	1.406696	0.058147	-0.165498
C103	C	0.965090	-0.416131	-0.626810
C104	C	1.465090	0.083869	-0.126810
C105	C	0.965055	-0.369230	-0.626783
C106	C	1.465055	0.130770	-0.126783
N107	N	1.023450	-0.343505	-0.588104
N108	N	1.523450	0.156495	-0.088104
C109	C	1.081864	-0.364694	-0.549435
C110	C	1.581864	0.135306	-0.049435
C111	C	0.965257	-0.796143	-0.626896
C112	C	1.465257	-0.296143	-0.126896
C113	C	0.965277	-0.843058	-0.626906
C114	C	1.465277	-0.343058	-0.126906
C115	C	1.082091	-0.838521	-0.549554
C116	C	1.582091	-0.338521	-0.049554
C117	C	1.082067	-0.791607	-0.549540
C118	C	1.582067	-0.291607	-0.049540
C119	C	1.023651	-0.770418	-0.588217
C120	C	1.523651	-0.270418	-0.088217
C121	C	1.081807	-0.266178	-0.549405
C122	C	1.581807	0.233822	-0.049405
C123	C	1.081776	-0.219264	-0.549391
C124	C	1.581776	0.280736	-0.049391
C125	C	0.964964	-0.223804	-0.626746
C126	C	1.464964	0.276196	-0.126746
C127	C	0.964994	-0.270714	-0.626758
C128	C	1.464994	0.229286	-0.126758
C129	C	1.023422	-0.291900	-0.588086
C130	C	1.523422	0.208100	-0.088086
O131	O	0.915387	-0.346862	-0.659630
O132	O	1.415387	0.153138	-0.159630
O133	O	1.131528	-0.338497	-0.516547
O134	O	1.631528	0.161503	-0.016547
C135	C	1.081959	-0.552341	-0.549490
C136	C	1.581959	-0.052341	-0.049490
C137	C	1.023569	-0.578063	-0.588175
C138	C	1.523569	-0.078063	-0.088175
C139	C	0.965154	-0.556874	-0.626844
C140	C	1.465154	-0.056874	-0.126844
C141	C	1.023589	-0.624977	-0.588185
C142	C	1.523589	-0.124977	-0.088185
C143	C	1.082004	-0.646166	-0.549516
C144	C	1.582004	-0.146166	-0.049516
C145	C	1.140399	-0.620440	-0.510836
C146	C	1.640399	-0.120440	-0.010836
C147	C	1.140374	-0.573529	-0.510821
C148	C	1.640374	-0.073529	-0.010821
C149	C	0.906760	-0.582599	-0.665524
C150	C	1.406760	-0.082599	-0.165524
C151	C	0.906789	-0.629510	-0.665535
C152	C	1.406789	-0.129510	-0.165535
C153	C	0.965203	-0.650699	-0.626866
C154	C	1.465203	-0.150699	-0.126866
C155	C	1.221571	-0.004066	-0.628256
C156	C	1.721571	0.495934	-0.128256
C157	C	1.305984	0.007582	-0.645363
C158	C	1.805984	0.507582	-0.145363
C159	C	0.983496	-0.013188	-0.786191
C160	C	1.483496	0.486812	-0.286191
C161	C	0.966456	-0.005428	-0.870599
C162	C	1.466456	0.494572	-0.370599
C163	C	1.023629	0.085808	-0.588200
C164	C	1.523629	0.585808	-0.088200
C165	C	1.023691	0.135754	-0.588237
C166	C	1.523691	0.635754	-0.088237
C167	C	1.153090	-0.090085	-1.197292
C168	C	1.653090	0.409915	-0.697292
C169	C	1.137070	-0.082789	-1.276605
C170	C	1.637070	0.417211	-0.776605
C171	C	1.040010	-0.038720	-1.256963
C172	C	1.540010	0.461280	-0.756963
C173	C	1.056020	-0.046014	-1.177647
C174	C	1.556020	0.453986	-0.677647
C175	C	1.112562	-0.071696	-1.147818
C176	C	1.612562	0.428304	-0.647818
C177	C	1.015491	-0.027625	-1.128172
C178	C	1.515491	0.472375	-0.628172
C179	C	1.031503	-0.034916	-1.048863
C180	C	1.531503	0.465084	-0.548863
C181	C	1.088044	-0.060596	-1.019029
C182	C	1.588044	0.439404	-0.519029
C183	C	1.128573	-0.078987	-1.068509
C184	C	1.628573	0.421013	-0.568509
C185	C	0.958953	-0.001941	-1.158003
C186	C	1.458953	0.498059	-0.658003
C187	C	0.918424	0.016448	-1.108528
C188	C	1.418424	0.516448	-0.608528
C189	C	0.934432	0.009154	-1.029217
C190	C	1.434432	0.509154	-0.529217
C191	C	0.990973	-0.016525	-0.999383
C192	C	1.490973	0.483475	-0.499383
C193	C	0.893902	0.027545	-0.979737
C194	C	1.393902	0.527545	-0.479737
C195	C	0.909914	0.020254	-0.900428
C196	C	1.409914	0.520254	-0.400428
C197	C	1.006985	-0.023816	-0.920074
C198	C	1.506985	0.476184	-0.420074
C199	C	1.063355	-0.049498	-0.390817
C200	C	1.563355	0.450502	0.109183
C201	C	1.080542	-0.057111	-0.306438
C202	C	1.580542	0.442889	0.193562
H203	H	0.389764	-0.084386	-0.510381
H204	H	0.889764	0.415614	-0.010381
H205	H	0.568248	0.071925	-0.739723
H206	H	1.068248	0.571925	-0.239723
H207	H	1.174622	-0.099895	-1.044223
H208	H	1.674622	0.400105	-0.544223
H209	H	0.295589	0.068766	-0.735130
H210	H	0.795589	0.568766	-0.235130
C211	C	0.901033	-0.871348	-0.669458
C212	C	1.401033	-0.371348	-0.169458
N213	N	0.852644	-0.892655	-0.701513
N214	N	1.352644	-0.392655	-0.201513
H215	H	1.053034	-0.044724	-0.895787
H216	H	1.553034	0.455276	-0.395787
C217	C	0.322578	-0.062613	-0.542371
C218	C	0.822578	0.437387	-0.042371
N219	N	0.297832	-0.094632	-0.495402
N220	N	0.797832	0.405368	0.004598
H221	H	0.657976	0.021697	-0.665998
H222	H	1.157976	0.521697	-0.165998
H223	H	0.439482	0.088650	-0.764287
H224	H	0.939482	0.588650	-0.264287
C225	C	1.215275	-0.118347	-1.164474
C226	C	1.715275	0.381653	-0.664474
N227	N	1.262108	-0.139634	-1.139754
N228	N	1.762108	0.360366	-0.639754
C229	C	1.105656	-0.068617	-0.931785
C230	C	1.605656	0.431383	-0.431785
N231	N	1.118921	-0.074659	-0.866073
N232	N	1.618921	0.425341	-0.366073
C233	C	1.181657	-0.103022	-1.331025
C234	C	1.681657	0.396978	-0.831025
N235	N	1.215240	-0.118261	-1.372015
N236	N	1.715240	0.381739	-0.872015
H237	H	0.716609	-0.011129	-0.617835
H238	H	1.216609	0.488871	-0.117835
H239	H	0.479472	-0.134620	-0.436686
H240	H	0.979472	0.365380	0.063314
H241	H	0.608244	-0.151346	-0.412118
H242	H	1.108244	0.348654	0.087882
C243	C	0.766281	-0.139380	-0.429658
C244	C	1.266281	0.360620	0.070342
N245	N	0.807253	-0.162320	-0.395996
N246	N	1.307253	0.337680	0.104004
C247	C	0.977815	-0.010471	-1.289784
C248	C	1.477815	0.489529	-0.789784
N249	N	0.930967	0.010805	-1.314503
N250	N	1.430967	0.510805	-0.814503
C251	C	1.146013	-0.190973	-0.506824
C252	C	1.646013	0.309027	-0.006824
N253	N	1.194396	-0.169666	-0.474763
N254	N	1.694396	0.330334	0.025237
H255	H	0.917446	-0.291658	-0.658264
H256	H	1.417446	0.208342	-0.158264
H257	H	0.945922	0.003997	-1.222583
H258	H	1.445922	0.503997	-0.722583
C259	C	1.146078	-0.289476	-0.506859
C260	C	1.646078	0.210524	-0.006859
N261	N	1.194483	-0.307025	-0.474807
N262	N	1.694483	0.192975	0.025193
C263	C	1.204533	-0.404510	-0.468207
C264	C	1.704533	0.095490	0.031793
N265	N	1.252916	-0.383208	-0.436141
N266	N	1.752916	0.116792	0.063859
H267	H	0.872390	0.037360	-1.132826
H268	H	1.372390	0.537360	-0.632826
H269	H	0.859192	-0.565351	-0.697014
H270	H	1.359192	-0.065351	-0.197014
C271	C	1.204588	-0.503009	-0.468243
C272	C	1.704588	-0.003009	0.031757
N273	N	1.252991	-0.520557	-0.436186
N274	N	1.752991	-0.020557	0.063814
H275	H	1.129617	-0.770666	-0.518037
H276	H	1.629617	-0.270666	-0.018037
C277	C	0.831713	0.055798	-1.012561
C278	C	1.331713	0.555798	-0.512561
N279	N	0.784872	0.077079	-1.037283
N280	N	1.284872	0.577079	-0.537283
H281	H	1.129654	-0.855781	-0.518068
H282	H	1.629654	-0.355781	-0.018068
H283	H	0.876914	0.035230	-0.860144
H284	H	1.376914	0.535230	-0.360144
H285	H	0.859128	-0.424603	-0.696997
H286	H	1.359128	0.075397	-0.196997
C287	C	0.901007	-0.772837	-0.669471
C288	C	1.401007	-0.272837	-0.169471
N289	N	0.852618	-0.755283	-0.701547
N290	N	1.352618	-0.255283	-0.201547
H291	H	0.859157	-0.509706	-0.697011
H292	H	1.359157	-0.009706	-0.197011
C293	C	0.900714	-0.200486	-0.669284
C294	C	1.400714	0.299514	-0.169284
N295	N	0.852323	-0.182921	-0.701329
N296	N	1.352323	0.317079	-0.201329
H297	H	0.859231	-0.650450	-0.697038
H298	H	1.359231	-0.150450	-0.197038
C299	C	1.204655	-0.643757	-0.468299
C300	C	1.704655	-0.143757	0.031701
N301	N	1.253051	-0.661322	-0.436265
N302	N	1.753051	-0.161322	0.063735
H303	H	1.187924	-0.552590	-0.479318
H304	H	1.687924	-0.052590	0.020682
