data_functionalizedCrystal
_audit_creation_method	'MofGen! by Chris Wilmer'
_symmetry_space_group_name_H-M	'P1'
_symmetry_Int_Tables_number	1
_symmetry_cell_setting	triclinic
loop_
_symmetry_equiv_pos_as_xyz
  x,y,z
_cell_length_a	19.288840
_cell_length_b	10.654551
_cell_length_c	18.366186
_cell_angle_alpha	89.995571
_cell_angle_beta	89.983729
_cell_angle_gamma	83.805722
loop_
_atom_site_label
_atom_site_type_symbol
_atom_site_fract_x
_atom_site_fract_y
_atom_site_fract_z
O1	O	0.922389	0.156507	-0.060669
O2	O	0.720265	0.177672	-0.060643
O3	O	0.825974	-0.015750	-0.060655
O4	O	0.816680	0.349929	-0.060657
O5	O	0.825955	-0.015760	0.060445
O6	O	0.720246	0.177663	0.060456
O7	O	0.922371	0.156497	0.060431
Zn8	Zn	0.821306	0.167078	0.079671
Zn9	Zn	0.821330	0.167091	-0.079883
O10	O	0.816662	0.349919	0.060443
C11	C	0.694374	0.176992	-0.000090
C12	C	0.617256	0.174963	-0.000080
C13	C	0.581056	0.173994	-0.066094
C14	C	0.508597	0.172073	-0.066102
C15	C	0.472342	0.171097	-0.000094
C16	C	0.508550	0.172074	0.065927
C17	C	0.581008	0.174007	0.065934
C18	C	0.362505	0.094477	0.050467
C19	C	0.290049	0.092536	0.050457
C20	C	0.248859	0.165142	-0.000113
C21	C	0.280135	0.239672	-0.050687
C22	C	0.352592	0.241605	-0.050680
C23	C	0.393774	0.169002	-0.000095
C24	C	0.134090	0.162092	-0.066141
C25	C	0.061629	0.160180	-0.066147
C26	C	0.061585	0.160168	0.065885
C27	C	0.134044	0.162093	0.065889
C28	C	0.170293	0.163049	-0.000126
C29	C	0.825282	-0.062538	-0.000106
C30	C	0.823240	-0.201937	-0.000109
C31	C	0.822291	-0.267415	-0.066121
C32	C	0.820367	-0.398394	-0.066122
C33	C	0.820342	-0.398406	0.065908
C34	C	0.822262	-0.267428	0.065907
C35	C	0.777136	-0.567527	-0.145425
C36	C	0.776199	-0.633013	-0.211440
C37	C	0.817461	-0.600358	-0.269728
C38	C	0.859676	-0.502223	-0.262003
C39	C	0.860619	-0.436746	-0.195987
C40	C	0.819341	-0.469395	-0.137701
C41	C	0.865499	-0.098294	0.145206
C42	C	0.866446	-0.032816	0.211223
C43	C	0.825189	-0.065469	0.269517
C44	C	0.782984	-0.163611	0.261799
C45	C	0.782036	-0.229089	0.195782
C46	C	0.823293	-0.196426	0.137488
C47	C	0.948261	0.157178	-0.000124
C48	C	1.025379	0.159206	-0.000138
C49	C	0.817353	0.396707	-0.000108
C50	C	0.819396	0.536106	-0.000109
N51	N	0.821294	0.167069	0.188562
N52	N	0.821346	0.167090	-0.188774
C53	C	0.868118	0.081464	0.226657
C54	C	0.868122	0.081458	0.302885
C55	C	0.821310	0.167079	0.341015
C56	C	0.774477	0.252691	0.302910
C57	C	0.774470	0.252686	0.226684
C58	C	0.812761	0.281502	0.461775
C59	C	0.812774	0.281509	0.538000
C60	C	0.821330	0.167095	0.576122
C61	C	0.829888	0.052669	0.538010
C62	C	0.829880	0.052664	0.461784
C63	C	0.821313	0.167094	0.423669
C64	C	0.868161	0.081477	0.696872
C65	C	0.868160	0.081469	0.773101
C66	C	0.774519	0.252713	0.773125
C67	C	0.774516	0.252710	0.696898
C68	C	0.821340	0.167093	0.658776
H69	H	0.610566	0.174772	-0.119848
H70	H	0.836855	-0.040497	0.569047
Br71	Br	0.826486	0.023380	0.359118
H72	H	0.819547	-0.451745	0.119656
Br73	Br	0.710969	0.368898	0.645191
Br74	Br	0.931705	-0.034721	0.645133
Br75	Br	0.931705	-0.034729	0.824806
Br76	Br	0.923736	0.100362	0.221702
H77	H	0.894990	-0.356849	-0.189697
H78	H	0.747666	-0.308998	0.189501
Br79	Br	0.630140	0.175325	0.155531
Br80	Br	0.183176	0.163405	0.155483
H81	H	0.899090	-0.071687	0.097737
H82	H	0.736339	0.322398	0.195666
Br83	Br	0.801167	0.436798	0.589716
H84	H	0.906253	0.011745	0.333908
Br85	Br	0.931662	-0.034731	0.174919
Br86	Br	0.459348	0.170764	0.155510
H87	H	0.836847	-0.040505	0.430756
Br88	Br	0.012498	0.158880	-0.155744
Br89	Br	0.224243	0.338219	-0.119323
H90	H	0.479117	0.171286	-0.119860
Br91	Br	0.726995	-0.207945	0.340916
H92	H	0.032066	0.159381	0.119630
H93	H	0.163605	0.162884	-0.119894
Br94	Br	0.823616	-0.178537	-0.155714
H95	H	0.805782	0.374678	0.430742
Br96	Br	0.710979	0.368902	0.824866
H97	H	0.378053	0.302293	-0.091857
Br98	Br	0.247610	-0.008579	0.119106
Br99	Br	0.710940	0.368885	0.354655
H100	H	0.743527	-0.594114	-0.097969
Br101	Br	0.418399	-0.004064	0.119108
H102	H	0.816697	-0.653685	-0.323479
Br103	Br	0.718909	-0.766190	-0.221924
Br104	Br	0.915688	-0.457929	-0.341109
