data_functionalizedCrystal
_audit_creation_method	'MofGen! by Chris Wilmer'
_symmetry_space_group_name_H-M	'P1'
_symmetry_Int_Tables_number	1
_symmetry_cell_setting	triclinic
loop_
_symmetry_equiv_pos_as_xyz
  x,y,z
_cell_length_a	29.839131
_cell_length_b	19.121102
_cell_length_c	19.120904
_cell_angle_alpha	90.088173
_cell_angle_beta	87.590850
_cell_angle_gamma	92.404422
loop_
_atom_site_label
_atom_site_type_symbol
_atom_site_fract_x
_atom_site_fract_y
_atom_site_fract_z
Zn1	Zn	-0.219753	-1.054749	0.442036
Zn2	Zn	0.113580	-0.721415	0.775370
Zn3	Zn	0.446913	-0.388082	1.108703
Zn4	Zn	-0.291816	-1.059636	0.324791
Zn5	Zn	0.041518	-0.726303	0.658125
Zn6	Zn	0.374851	-0.392970	0.991458
Zn7	Zn	-0.213364	-0.942520	0.319821
Zn8	Zn	0.119970	-0.609187	0.653154
Zn9	Zn	0.453303	-0.275854	0.986488
Zn10	Zn	-0.291514	-0.937448	0.436994
Zn11	Zn	0.041820	-0.604115	0.770327
Zn12	Zn	0.375153	-0.270781	1.103660
O13	O	-0.254112	-0.998588	0.380911
O14	O	0.079222	-0.665255	0.714244
O15	O	0.412555	-0.331922	1.047577
O16	O	-0.232113	-1.153501	0.430674
O17	O	0.101220	-0.820168	0.764007
O18	O	0.434553	-0.486835	1.097341
O19	O	-0.278861	-1.048269	0.226027
O20	O	0.054472	-0.714936	0.559361
O21	O	0.387806	-0.381602	0.892694
O22	O	-0.151347	-0.957485	0.336063
O23	O	0.181986	-0.624152	0.669397
O24	O	0.515320	-0.290818	1.002730
O25	O	-0.285057	-1.157092	0.344535
O26	O	0.048276	-0.823759	0.677868
O27	O	0.381610	-0.490426	1.011201
O28	O	-0.156042	-1.039939	0.425855
O29	O	0.177292	-0.706605	0.759188
O30	O	0.510625	-0.373272	1.092521
O31	O	-0.221223	-0.962224	0.222376
O32	O	0.112111	-0.628891	0.555709
O33	O	0.445444	-0.295558	0.889042
O34	O	-0.220930	-0.843743	0.331174
O35	O	0.112403	-0.510410	0.664507
O36	O	0.445737	-0.177077	0.997840
O37	O	-0.284542	-0.948840	0.535767
O38	O	0.048791	-0.615506	0.869101
O39	O	0.382124	-0.282173	1.202434
O40	O	-0.278346	-0.840017	0.417260
O41	O	0.054987	-0.506683	0.750593
O42	O	0.388320	-0.173350	1.083927
O43	O	-0.231820	-1.035020	0.539472
O44	O	0.101513	-0.701687	0.872805
O45	O	0.434846	-0.368353	1.206139
O46	O	-0.354640	-1.043351	0.339645
O47	O	-0.021306	-0.710017	0.672978
O48	O	0.312027	-0.376684	1.006312
O49	O	-0.354418	-0.953579	0.422080
O50	O	-0.021084	-0.620246	0.755413
O51	O	0.312249	-0.286913	1.088746
C52	C	-0.248912	-0.816443	0.373131
C53	C	0.084421	-0.483109	0.706464
C54	C	0.417754	-0.149776	1.039797
C55	C	-0.246699	-0.738519	0.369819
C56	C	0.086634	-0.405186	0.703152
C57	C	0.419967	-0.071853	1.036486
C58	C	-0.370830	-0.998463	0.380870
C59	C	-0.037496	-0.665130	0.714204
C60	C	0.295837	-0.331797	1.047537
C61	C	-0.420765	-0.998473	0.380879
C62	C	-0.087431	-0.665140	0.714213
C63	C	0.245902	-0.331806	1.047546
C64	C	-0.258860	-0.990819	0.563768
C65	C	0.074473	-0.657486	0.897102
C66	C	0.407806	-0.324152	1.230435
C67	C	-0.260884	-0.987508	0.641691
C68	C	0.072449	-0.654175	0.975025
C69	C	0.405783	-0.320841	1.308358
C70	C	-0.730519	-1.045411	0.338056
C71	C	-0.397185	-0.712078	0.671389
C72	C	-0.063852	-0.378744	1.004723
C73	C	-0.918195	-1.045496	0.338087
C74	C	-0.584862	-0.712163	0.671420
C75	C	-0.251528	-0.378830	1.004753
O76	O	-0.942551	-1.085306	0.301646
O77	O	-0.609217	-0.751972	0.634979
O78	O	-0.275884	-0.418639	0.968312
N79	N	-0.941559	-0.998731	0.380970
N80	N	-0.608226	-0.665398	0.714303
N81	N	-0.274892	-0.332065	1.047636
C82	C	-0.918001	-0.951945	0.423851
C83	C	-0.584668	-0.618612	0.757185
C84	C	-0.251335	-0.285278	1.090518
O85	O	-0.942181	-0.912175	0.460332
O86	O	-0.608847	-0.578842	0.793665
O87	O	-0.275514	-0.245509	1.126998
C88	C	-0.730326	-0.951864	0.423824
C89	C	-0.396993	-0.618530	0.757157
C90	C	-0.063660	-0.285197	1.090490
C91	C	-0.706964	-0.998627	0.380933
C92	C	-0.373631	-0.665293	0.714266
C93	C	-0.040298	-0.331960	1.047599
C94	C	-0.707157	-1.092171	0.295169
C95	C	-0.373824	-0.758838	0.628502
C96	C	-0.040490	-0.425504	0.961836
C97	C	-0.660241	-1.092146	0.295159
C98	C	-0.326907	-0.758813	0.628492
C99	C	0.006426	-0.425480	0.961826
C100	C	-0.636686	-1.045362	0.338036
C101	C	-0.303353	-0.712029	0.671369
C102	C	0.029981	-0.378696	1.004702
C103	C	-0.660048	-0.998602	0.380923
C104	C	-0.326715	-0.665269	0.714256
C105	C	0.006619	-0.331936	1.047589
C106	C	-0.706770	-0.905081	0.466708
C107	C	-0.373436	-0.571748	0.800042
C108	C	-0.040103	-0.238414	1.133375
C109	C	-0.659848	-0.905066	0.466699
C110	C	-0.326515	-0.571733	0.800032
C111	C	0.006819	-0.238399	1.133366
C112	C	-0.636486	-0.951829	0.423808
C113	C	-0.303153	-0.618496	0.757141
C114	C	0.030181	-0.285163	1.090475
C115	C	-0.589577	-0.951794	0.423789
C116	C	-0.256244	-0.618460	0.757123
C117	C	0.077090	-0.285127	1.090456
N118	N	-0.566213	-0.998559	0.380906
N119	N	-0.232880	-0.665225	0.714240
N120	N	0.100454	-0.331892	1.047573
C121	C	-0.589768	-1.045343	0.338030
C122	C	-0.256434	-0.712009	0.671363
C123	C	0.076899	-0.378676	1.004696
C124	C	-1.016534	-0.951990	0.423862
C125	C	-0.683200	-0.618657	0.757195
C126	C	-0.349867	-0.285323	1.090528
C127	C	-1.063452	-0.952010	0.423868
C128	C	-0.730119	-0.618676	0.757201
C129	C	-0.396785	-0.285343	1.090535
C130	C	-1.063642	-1.045562	0.338104
C131	C	-0.730309	-0.712229	0.671438
C132	C	-0.396976	-0.378895	1.004771
C133	C	-1.016723	-1.045539	0.338095
C134	C	-0.683390	-0.712205	0.671428
C135	C	-0.350056	-0.378872	1.004762
C136	C	-0.993169	-0.998755	0.380979
C137	C	-0.659836	-0.665422	0.714312
C138	C	-0.326503	-0.332088	1.047646
C139	C	-0.491240	-1.045288	0.338011
C140	C	-0.157906	-0.711954	0.671344
C141	C	0.175427	-0.378621	1.004678
C142	C	-0.444319	-1.045257	0.338003
C143	C	-0.110986	-0.711924	0.671336
C144	C	0.222348	-0.378590	1.004669
C145	C	-0.444133	-0.951708	0.423769
C146	C	-0.110799	-0.618374	0.757102
C147	C	0.222534	-0.285041	1.090435
C148	C	-0.491049	-0.951735	0.423775
C149	C	-0.157716	-0.618402	0.757108
C150	C	0.175617	-0.285069	1.090441
C151	C	-0.514602	-0.998531	0.380894
C152	C	-0.181268	-0.665198	0.714227
C153	C	0.152065	-0.331864	1.047561
O154	O	-0.565193	-0.912011	0.460217
O155	O	-0.231860	-0.578677	0.793550
O156	O	0.101474	-0.245344	1.126884
O157	O	-0.565581	-1.085117	0.301566
O158	O	-0.232248	-0.751784	0.634899
O159	O	0.101086	-0.418450	0.968233
C160	C	-0.777435	-1.045435	0.338066
C161	C	-0.444102	-0.712102	0.671399
C162	C	-0.110769	-0.378769	1.004733
C163	C	-0.800797	-0.998676	0.380953
C164	C	-0.467464	-0.665342	0.714286
C165	C	-0.134130	-0.332009	1.047620
C166	C	-0.777243	-0.951891	0.423830
C167	C	-0.443909	-0.618558	0.757163
C168	C	-0.110576	-0.285225	1.090496
C169	C	-0.847716	-0.998695	0.380959
C170	C	-0.514382	-0.665362	0.714292
C171	C	-0.181049	-0.332028	1.047626
C172	C	-0.871270	-1.045479	0.338082
C173	C	-0.537937	-0.712146	0.671416
C174	C	-0.204603	-0.378812	1.004749
C175	C	-0.847906	-1.092244	0.295199
C176	C	-0.514573	-0.758911	0.628533
C177	C	-0.181239	-0.425577	0.961866
C178	C	-0.800990	-1.092220	0.295189
C179	C	-0.467656	-0.758886	0.628523
C180	C	-0.134323	-0.425553	0.961856
C181	C	-0.800607	-0.905126	0.466712
C182	C	-0.467273	-0.571793	0.800046
C183	C	-0.133940	-0.238460	1.133379
C184	C	-0.847523	-0.905154	0.466718
C185	C	-0.514190	-0.571821	0.800052
C186	C	-0.180856	-0.238487	1.133385
C187	C	-0.871078	-0.951938	0.423842
C188	C	-0.537744	-0.618605	0.757175
C189	C	-0.204411	-0.285272	1.090508
C190	C	-0.136939	-0.998732	0.380967
C191	C	0.196395	-0.665399	0.714300
C192	C	0.529728	-0.332066	1.047634
C193	C	-0.087007	-0.998794	0.380991
C194	C	0.246327	-0.665460	0.714324
C195	C	0.579660	-0.332127	1.047658
C196	C	-0.259331	-1.181445	0.388721
C197	C	0.074002	-0.848112	0.722055
C198	C	0.407335	-0.514779	1.055388
C199	C	-0.261556	-1.259368	0.392050
C200	C	0.071777	-0.926035	0.725383
C201	C	0.405111	-0.592701	1.058716
C202	C	-0.275595	-0.699992	0.413013
C203	C	0.057739	-0.366658	0.746347
C204	C	0.391072	-0.033325	1.079680
C205	C	-0.273510	-0.626774	0.409905
C206	C	0.059824	-0.293441	0.743238
C207	C	0.393157	0.039892	1.076572
C208	C	-0.242531	-0.592086	0.363599
C209	C	0.090803	-0.258752	0.696932
C210	C	0.424136	0.074581	1.030265
C211	C	-0.213632	-0.630619	0.320403
C212	C	0.119701	-0.297285	0.653736
C213	C	0.453034	0.036048	0.987069
C214	C	-0.215716	-0.703835	0.323515
C215	C	0.117618	-0.370501	0.656848
C216	C	0.450951	-0.037168	0.990182
C217	C	-0.234741	-0.371117	0.351966
C218	C	0.098593	-0.037783	0.685299
C219	C	0.431926	0.295550	1.018633
C220	C	-0.232660	-0.297896	0.348855
C221	C	0.100673	0.035438	0.682189
C222	C	0.434006	0.368771	1.015522
C223	C	-0.292537	-0.294056	0.438359
C224	C	0.040796	0.039277	0.771693
C225	C	0.374129	0.372610	1.105026
C226	C	-0.294620	-0.367274	0.441464
C227	C	0.038713	-0.033941	0.774798
C228	C	0.372047	0.299393	1.108131
C229	C	-0.265720	-0.405800	0.398271
C230	C	0.067614	-0.072467	0.731604
C231	C	0.400947	0.260867	1.064938
C232	C	-0.240400	-0.517246	0.360419
C233	C	0.092934	-0.183913	0.693752
C234	C	0.426267	0.149421	1.027085
C235	C	-0.267849	-0.480639	0.401455
C236	C	0.065484	-0.147305	0.734788
C237	C	0.398818	0.186028	1.068122
C238	C	-0.249350	-1.006368	0.198766
C239	C	0.083983	-0.673035	0.532099
C240	C	0.417317	-0.339701	0.865433
C241	C	-0.247204	-1.009815	0.120849
C242	C	0.086130	-0.676481	0.454183
C243	C	0.419463	-0.343148	0.787516
C244	C	-0.234387	-1.030820	0.680230
C245	C	0.098947	-0.697486	1.013563
C246	C	0.432280	-0.364153	1.346896
C247	C	-0.236286	-1.027700	0.753446
C248	C	0.097047	-0.694367	1.086780
C249	C	0.430381	-0.361034	1.420113
C250	C	-0.264686	-0.981272	0.788123
C251	C	0.068648	-0.647939	1.121457
C252	C	0.401981	-0.314606	1.454790
C253	C	-0.291184	-0.937956	0.749580
C254	C	0.042149	-0.604622	1.082913
C255	C	0.375483	-0.271289	1.416246
C256	C	-0.289282	-0.941072	0.676364
C257	C	0.044051	-0.607739	1.009698
C258	C	0.377385	-0.274405	1.343031
C259	C	-0.271800	-0.969615	1.009090
C260	C	0.061533	-0.636281	1.342423
C261	C	0.394867	-0.302948	1.675757
C262	C	-0.273701	-0.966503	1.082311
C263	C	0.059632	-0.633170	1.415644
C264	C	0.392966	-0.299836	1.748977
C265	C	-0.218802	-1.056247	1.086172
C266	C	0.114531	-0.722914	1.419506
C267	C	0.447865	-0.389580	1.752839
C268	C	-0.216905	-1.059362	1.012955
C269	C	0.116429	-0.726029	1.346289
C270	C	0.449762	-0.392696	1.679622
C271	C	-0.243401	-1.016043	0.974418
C272	C	0.089932	-0.682710	1.307751
C273	C	0.423265	-0.349377	1.641085
C274	C	-0.266629	-0.978084	0.862963
C275	C	0.066704	-0.644751	1.196296
C276	C	0.400038	-0.311417	1.529629
C277	C	-0.241455	-1.019228	0.899580
C278	C	0.091878	-0.685895	1.232913
C279	C	0.425211	-0.352562	1.566247
H280	H	-0.425299	-1.083337	0.303073
H281	H	-0.091966	-0.750004	0.636407
H282	H	0.241368	-0.416671	0.969740
Br283	Br	-0.325241	-0.882285	0.624061
Br284	Br	0.008092	-0.548952	0.957394
Br285	Br	0.341425	-0.215619	1.290728
Br286	Br	-0.202908	-1.082227	0.852517
Br287	Br	0.130425	-0.748893	1.185850
Br288	Br	0.463759	-0.415560	1.519184
H289	H	-0.293382	-0.934351	0.977722
H290	H	0.039951	-0.601018	1.311055
H291	H	0.373284	-0.267685	1.644389
H292	H	-0.316066	-0.262680	0.473526
H293	H	0.017268	0.070653	0.806859
H294	H	0.350601	0.403986	1.140192
Br295	Br	-0.190620	-0.250819	0.285999
Br296	Br	0.142714	0.082515	0.619332
Br297	Br	0.476047	0.415848	0.952666
H298	H	-0.510411	-1.083395	0.303095
H299	H	-0.177077	-0.750061	0.636428
H300	H	0.156256	-0.416728	0.969762
H301	H	-0.297040	-0.595408	0.445078
H302	H	0.036294	-0.262075	0.778411
H303	H	0.369627	0.071258	1.111744
H304	H	-0.296828	-0.928693	1.110543
H305	H	0.036505	-0.595360	1.443876
H306	H	0.369838	-0.262027	1.777209
H307	H	-0.997359	-0.913892	0.458784
H308	H	-0.664026	-0.580558	0.792117
H309	H	-0.330693	-0.247225	1.125451
H310	H	-0.781972	-1.130299	0.260264
H311	H	-0.448638	-0.796965	0.593597
H312	H	-0.115305	-0.463632	0.926930
Br313	Br	-1.095151	-0.888533	0.482068
Br314	Br	-0.761818	-0.555199	0.815402
Br315	Br	-0.428484	-0.221866	1.148735
Br316	Br	-0.317643	-0.747062	0.475856
Br317	Br	0.015691	-0.413729	0.809189
Br318	Br	0.349024	-0.080395	1.142523
H319	H	-0.197230	-1.091514	1.117557
H320	H	0.136104	-0.758181	1.450891
H321	H	0.469437	-0.424847	1.784224
H322	H	-0.641222	-1.130227	0.260236
H323	H	-0.307889	-0.796894	0.593569
H324	H	0.025445	-0.463560	0.926902
H325	H	-0.314306	-0.900150	0.777819
H326	H	0.019027	-0.566817	1.111153
H327	H	0.352361	-0.233484	1.444486
Br328	Br	-0.739115	-1.155674	0.236973
Br329	Br	-0.405782	-0.822341	0.570306
Br330	Br	-0.072448	-0.489007	0.903639
H331	H	-0.289754	-0.940285	0.891205
H332	H	0.043579	-0.606952	1.224538
H333	H	0.376913	-0.273619	1.557872
Br334	Br	-0.412157	-0.888220	0.481959
Br335	Br	-0.078824	-0.554887	0.815292
Br336	Br	0.254509	-0.221554	1.148625
Br337	Br	-0.738463	-0.841620	0.524929
Br338	Br	-0.405130	-0.508286	0.858262
Br339	Br	-0.071797	-0.174953	1.191596
Br340	Br	-0.198357	-0.470163	0.297578
Br341	Br	0.134977	-0.136829	0.630911
Br342	Br	0.468310	0.196504	0.964245
H343	H	-0.211262	-1.068629	0.652001
H344	H	0.122071	-0.735295	0.985335
H345	H	0.455405	-0.401962	1.318668
H346	H	-0.781432	-0.867030	0.501629
H347	H	-0.448099	-0.533696	0.834962
H348	H	-0.114766	-0.200363	1.168296
H349	H	-0.293070	-0.508885	0.439160
H350	H	0.040263	-0.175552	0.772494
H351	H	0.373597	0.157782	1.105827
H352	H	-0.192183	-0.735203	0.288345
H353	H	0.141150	-0.401869	0.621678
H354	H	0.474483	-0.068536	0.955012
Br355	Br	-0.171585	-0.583542	0.257564
Br356	Br	0.161748	-0.250209	0.590897
Br357	Br	0.495082	0.083125	0.924230
Br358	Br	-0.985022	-1.109004	0.279883
Br359	Br	-0.651689	-0.775671	0.613217
Br360	Br	-0.318356	-0.442338	0.946550
Br361	Br	-0.178362	-1.122376	0.965899
Br362	Br	0.154971	-0.789043	1.299232
Br363	Br	0.488304	-0.455710	1.632565
H364	H	-0.640673	-0.866970	0.501623
H365	H	-0.307340	-0.533636	0.834956
H366	H	0.025994	-0.200303	1.168289
Br367	Br	-1.095618	-1.109052	0.279912
Br368	Br	-0.762285	-0.775719	0.613245
Br369	Br	-0.428951	-0.442386	0.946579
Br370	Br	-0.879882	-1.155734	0.237007
Br371	Br	-0.546549	-0.822400	0.570340
Br372	Br	-0.213215	-0.489067	0.903674
Br373	Br	-0.522755	-0.888254	0.481966
Br374	Br	-0.189422	-0.554921	0.815300
Br375	Br	0.143912	-0.221588	1.148633
H376	H	-0.211211	-0.402476	0.316789
H377	H	0.122122	-0.069143	0.650123
H378	H	0.455455	0.264190	0.983456
H379	H	-0.866540	-0.867068	0.501645
H380	H	-0.533207	-0.533734	0.834978
H381	H	-0.199874	-0.200401	1.168311
H382	H	-0.319847	-0.395512	0.479171
H383	H	0.013486	-0.062179	0.812504
H384	H	0.346820	0.271155	1.145837
H385	H	-0.214710	-1.062971	0.784821
H386	H	0.118623	-0.729638	1.118155
H387	H	0.451957	-0.396304	1.451488
