data_functionalizedCrystal
_audit_creation_method	'MofGen! by Chris Wilmer'
_symmetry_space_group_name_H-M	'P1'
_symmetry_Int_Tables_number	1
_symmetry_cell_setting	triclinic
loop_
_symmetry_equiv_pos_as_xyz
  x,y,z
_cell_length_a	10.654550
_cell_length_b	10.654550
_cell_length_c	9.730223
_cell_angle_alpha	90.004253
_cell_angle_beta	90.000043
_cell_angle_gamma	84.484931
loop_
_atom_site_label
_atom_site_type_symbol
_atom_site_fract_x
_atom_site_fract_y
_atom_site_fract_z
O1	O	-1.667839	-0.176399	-0.114187
O2	O	-1.302361	-0.193205	-0.114212
O3	O	-1.493503	-0.002062	-0.114190
O4	O	-1.476697	-0.367541	-0.114209
O5	O	-1.493490	-0.002057	0.114390
O6	O	-1.302348	-0.193199	0.114368
O7	O	-1.667827	-0.176393	0.114393
Zn8	Zn	-1.485085	-0.184796	0.150672
Zn9	Zn	-1.485102	-0.184802	-0.150492
O10	O	-1.476684	-0.367536	0.114371
C11	C	-1.255556	-0.191968	0.000075
C12	C	-1.116113	-0.188276	0.000065
C13	C	-1.492263	0.044738	0.000099
C14	C	-1.488571	0.184181	0.000096
C15	C	-1.714631	-0.177630	0.000103
C16	C	-1.854074	-0.181322	0.000104
C17	C	-1.477925	-0.414336	0.000079
C18	C	-1.481617	-0.553779	0.000072
C19	C	-1.036628	-0.300818	0.000064
C20	C	-0.905607	-0.297341	0.000088
C21	C	-0.933570	-0.068772	0.000109
C22	C	-1.064588	-0.072250	0.000095
N23	N	-1.485083	-0.184790	0.356209
C24	C	-1.601112	0.263667	0.000104
C25	C	-1.597636	0.394688	0.000087
C26	C	-1.369066	0.366725	0.000061
C27	C	-1.372544	0.235706	0.000068
N28	N	-1.485114	-0.184798	-0.356028
C29	C	-1.569750	-0.100188	0.428144
C30	C	-1.569763	-0.100189	0.572027
C31	C	-1.400438	-0.269404	0.572026
C32	C	-1.400420	-0.269396	0.428146
H33	H	-1.078574	-0.395294	0.000049
O34	O	-1.652132	-0.017963	0.641692
C35	C	-1.726825	0.056732	0.547339
H36	H	-1.728675	0.005226	0.444771
H37	H	-1.685244	0.150413	0.532052
C38	C	-1.859815	0.144611	0.729453
C39	C	-1.862095	0.081346	0.603480
H40	H	-1.943254	0.159800	0.764084
H41	H	-1.809490	0.094292	0.793022
H42	H	-1.825158	0.222672	0.716696
H43	H	-1.896737	0.003280	0.616241
H44	H	-1.912429	0.131653	0.539914
H45	H	-1.129309	0.019401	0.000100
O46	O	-1.256286	0.416629	0.000226
C47	C	-1.187615	0.376142	0.118620
H48	H	-1.222634	0.284995	0.158096
H49	H	-1.201489	0.451827	0.201515
C50	C	-1.003540	0.464752	0.034157
C51	C	-1.046545	0.352797	0.082635
H52	H	-0.916521	0.450357	0.011964
H53	H	-1.049806	0.492034	-0.045605
H54	H	-1.015114	0.527812	0.103245
H55	H	-1.034986	0.289745	0.013542
H56	H	-1.000274	0.325504	0.162386
O57	O	-1.651782	-0.017894	0.358143
C58	C	-1.583798	0.060235	0.275010
H59	H	-1.485983	0.011081	0.253429
H60	H	-1.574407	0.153095	0.330532
C61	C	-1.774492	0.146910	0.164855
C62	C	-1.654358	0.086534	0.138340
H63	H	-1.818018	0.163138	0.080553
H64	H	-1.820296	0.094277	0.220867
H65	H	-1.766649	0.224286	0.211127
H66	H	-1.662203	0.009152	0.092085
H67	H	-1.608557	0.139154	0.082317
H68	H	-1.280893	0.170985	0.000058
H69	H	-0.840894	-0.388984	0.000089
O70	O	-1.318329	-0.351548	0.642122
C71	C	-1.336479	-0.333397	0.784541
H72	H	-1.435921	-0.287386	0.804183
H73	H	-1.264857	-0.269747	0.825396
C74	C	-1.196589	-0.518216	0.834265
C75	C	-1.318729	-0.461714	0.858391
H76	H	-1.185635	-0.597366	0.879821
H77	H	-1.184356	-0.530443	0.738315
H78	H	-1.136917	-0.465162	0.868311
H79	H	-1.378398	-0.514761	0.824329
H80	H	-1.330972	-0.449500	0.954337
H81	H	-1.695588	0.221720	0.000124
H82	H	-1.331468	-0.338290	0.369572
H83	H	-0.891602	0.025693	0.000142
H84	H	-1.689279	0.459401	0.000090
