data_functionalizedCrystal
_audit_creation_method	'MofGen! by Chris Wilmer'
_symmetry_space_group_name_H-M	'P1'
_symmetry_Int_Tables_number	1
_symmetry_cell_setting	triclinic
loop_
_symmetry_equiv_pos_as_xyz
  x,y,z
_cell_length_a	18.101398
_cell_length_b	18.050589
_cell_length_c	18.050583
_cell_angle_alpha	89.968090
_cell_angle_beta	89.978665
_cell_angle_gamma	90.023488
loop_
_atom_site_label
_atom_site_type_symbol
_atom_site_fract_x
_atom_site_fract_y
_atom_site_fract_z
Zn1	Zn	1.132114	-0.295700	-0.420040
Zn2	Zn	1.132023	-0.419913	-0.295860
Zn3	Zn	1.008279	-0.295731	-0.295853
Zn4	Zn	1.008230	-0.419842	-0.419997
O5	O	1.070161	-0.357797	-0.357937
O6	O	1.235735	-0.312194	-0.403589
O7	O	1.115590	-0.403482	-0.191934
O8	O	1.024765	-0.191802	-0.312342
O9	O	1.235668	-0.403452	-0.312354
O10	O	1.115746	-0.191779	-0.403582
O11	O	1.024677	-0.312247	-0.191929
O12	O	0.904640	-0.312178	-0.312300
O13	O	1.024681	-0.403332	-0.523927
O14	O	0.904604	-0.403362	-0.403508
O15	O	1.115698	-0.312125	-0.523959
O16	O	1.115542	-0.523828	-0.312311
O17	O	1.024592	-0.523776	-0.403514
C18	C	0.877751	-0.357766	-0.357899
C19	C	0.795437	-0.357771	-0.357900
C20	C	0.496346	-0.357818	-0.357962
C21	C	0.527669	-0.300160	-0.300857
C22	C	0.613287	-0.300315	-0.300613
C23	C	0.644728	-0.357794	-0.357931
C24	C	0.613615	-0.436028	-0.336553
C25	C	0.527970	-0.435708	-0.336156
C26	C	0.527955	-0.337921	-0.436581
C27	C	0.613606	-0.336179	-0.436152
C28	C	0.728588	-0.357786	-0.357915
C29	C	0.412486	-0.357832	-0.357977
C30	C	1.070072	-0.550749	-0.357925
C31	C	1.070102	-0.633294	-0.357945
C32	C	1.020692	-0.832744	-0.407524
C33	C	1.002643	-0.882193	-0.339755
C34	C	1.070174	-0.784425	-0.357954
C35	C	1.088259	-0.882058	-0.425731
C36	C	1.070243	-0.930410	-0.357970
C37	C	1.052090	-0.832786	-0.290150
C38	C	1.137738	-0.832647	-0.376172
C39	C	1.119715	-0.882074	-0.308356
C40	C	1.070133	-0.700327	-0.357947
C41	C	1.070285	-1.014506	-0.357970
C42	C	1.263323	-0.357827	-0.357977
C43	C	1.345637	-0.357840	-0.357994
C44	C	1.070194	-0.357717	-0.551643
C45	C	1.070208	-0.357683	-0.634189
C46	C	1.070271	-0.164091	-0.357966
C47	C	1.070318	-0.081545	-0.357978
C48	C	1.119753	-0.308061	-0.833657
C49	C	1.052209	-0.289879	-0.883044
C50	C	1.070238	-0.357671	-0.785319
C51	C	1.137809	-0.375806	-0.883014
C52	C	1.070272	-0.357657	-0.931305
C53	C	1.002659	-0.339454	-0.833619
C54	C	1.088303	-0.425412	-0.833585
C55	C	1.020713	-0.407255	-0.882950
C56	C	1.070219	-0.357677	-0.701221
C57	C	1.070284	-0.357651	-1.015401
C58	C	1.070172	-0.357822	-0.164985
C59	C	1.070301	-0.357647	-0.082440
H60	H	0.634324	-0.242301	-0.314013
Cl61	Cl	1.225882	-0.799021	-0.399990
Cl62	Cl	1.226011	-0.399499	-0.916512
H63	H	1.161590	-0.903597	-0.266395
Cl64	Cl	0.495905	-0.210315	-0.321313
H65	H	0.506124	-0.313166	-0.242940
H66	H	1.161557	-0.266082	-0.812011
H67	H	0.633745	-0.313469	-0.242357
Cl68	Cl	0.496680	-0.402756	-0.502274
Cl69	Cl	0.914475	-0.915791	-0.315966
Cl70	Cl	0.497076	-0.461754	-0.247420
Cl71	Cl	0.645023	-0.247299	-0.461051
Cl72	Cl	1.028635	-0.201426	-0.916591
Cl73	Cl	0.956014	-0.472011	-0.916173
Cl74	Cl	1.111832	-0.915477	-0.514214
Cl75	Cl	0.494649	-0.251373	-0.466591
Cl76	Cl	0.914427	-0.315670	-0.800266
Cl77	Cl	1.028416	-0.799514	-0.201639
H78	H	0.507248	-0.480122	-0.375935
Cl79	Cl	1.111910	-0.513842	-0.800014
H80	H	0.635034	-0.453193	-0.279700
Cl81	Cl	0.646647	-0.396293	-0.505364
Cl82	Cl	0.645046	-0.504134	-0.398764
Cl83	Cl	0.955994	-0.799299	-0.472152
