data_functionalizedCrystal
_audit_creation_method	'MofGen! by Chris Wilmer'
_symmetry_space_group_name_H-M	'P1'
_symmetry_Int_Tables_number	1
_symmetry_cell_setting	triclinic
loop_
_symmetry_equiv_pos_as_xyz
  x,y,z
_cell_length_a	12.759401
_cell_length_b	12.759400
_cell_length_c	12.759393
_cell_angle_alpha	90.025504
_cell_angle_beta	89.979888
_cell_angle_gamma	89.999145
loop_
_atom_site_label
_atom_site_type_symbol
_atom_site_fract_x
_atom_site_fract_y
_atom_site_fract_z
Zn1	Zn	-1.606357	-0.418257	0.594033
Zn2	Zn	-1.273023	-0.084923	0.927367
Zn3	Zn	-0.939690	0.248410	1.260700
Zn4	Zn	-1.606286	-0.593972	0.418369
Zn5	Zn	-1.272952	-0.260639	0.751702
Zn6	Zn	-0.939619	0.072695	1.085035
Zn7	Zn	-1.430655	-0.418303	0.418371
Zn8	Zn	-1.097322	-0.084970	0.751704
Zn9	Zn	-0.763989	0.248363	1.085038
Zn10	Zn	-1.430685	-0.593889	0.594009
Zn11	Zn	-1.097352	-0.260556	0.927342
Zn12	Zn	-0.764019	0.072777	1.260675
O13	O	-1.518496	-0.506105	0.506195
O14	O	-1.185162	-0.172772	0.839529
O15	O	-0.851829	0.160561	1.172862
O16	O	-1.753368	-0.441581	0.570741
O17	O	-1.420035	-0.108247	0.904074
O18	O	-1.086702	0.225086	1.237407
O19	O	-1.582946	-0.570723	0.271348
O20	O	-1.249613	-0.237390	0.604681
O21	O	-0.916279	0.095943	0.938015
O22	O	-1.453980	-0.271276	0.441684
O23	O	-1.120646	0.062057	0.775018
O24	O	-0.787313	0.395391	1.108351
O25	O	-1.753316	-0.570678	0.441681
O26	O	-1.419983	-0.237345	0.775014
O27	O	-1.086650	0.095989	1.108347
O28	O	-1.583067	-0.271242	0.570743
O29	O	-1.249733	0.062092	0.904076
O30	O	-0.916400	0.395425	1.237409
O31	O	-1.453911	-0.441660	0.271350
O32	O	-1.120578	-0.108327	0.604683
O33	O	-0.787244	0.225006	0.938016
O34	O	-1.283638	-0.441580	0.441660
O35	O	-0.950305	-0.108247	0.774994
O36	O	-0.616972	0.225087	1.108327
O37	O	-1.454031	-0.570537	0.741033
O38	O	-1.120697	-0.237204	1.074366
O39	O	-0.787364	0.096129	1.407700
O40	O	-1.283660	-0.570583	0.570700
O41	O	-0.950327	-0.237249	0.904034
O42	O	-0.616994	0.096084	1.237367
O43	O	-1.583096	-0.441500	0.741051
O44	O	-1.249762	-0.108167	1.074385
O45	O	-0.916429	0.225166	1.407718
O46	O	-1.582975	-0.740982	0.441656
O47	O	-1.249641	-0.407649	0.774990
O48	O	-0.916308	-0.074315	1.108323
O49	O	-1.453962	-0.740921	0.570698
O50	O	-1.120629	-0.407588	0.904032
O51	O	-0.787295	-0.074255	1.237365
C52	C	-1.245528	-0.506078	0.506179
C53	C	-0.912195	-0.172745	0.839512
C54	C	-0.578862	0.160588	1.172845
C55	C	-1.128752	-0.506092	0.506196
C56	C	-0.795418	-0.172759	0.839530
C57	C	-0.462085	0.160575	1.172863
C58	C	-1.518492	-0.779073	0.506197
C59	C	-1.185159	-0.445739	0.839531
C60	C	-0.851826	-0.112406	1.172864
C61	C	-1.518587	-0.895849	0.506233
C62	C	-1.185254	-0.562516	0.839567
C63	C	-0.851920	-0.229183	1.172900
C64	C	-1.518574	-0.506004	0.780229
C65	C	-1.185241	-0.172671	1.113562
C66	C	-0.851908	0.160662	1.446896
C67	C	-1.518608	-0.505961	0.897006
C68	C	-1.185275	-0.172628	1.230339
C69	C	-0.851941	0.160705	1.563672
C70	C	-0.964198	-0.573377	0.573287
C71	C	-0.630864	-0.240043	0.906621
C72	C	-0.297531	0.093290	1.239954
C73	C	-1.073922	-0.573368	0.573277
C74	C	-0.740588	-0.240035	0.906611
C75	C	-0.407255	0.093298	1.239944
C76	C	-1.073852	-0.438827	0.439113
C77	C	-0.740519	-0.105494	0.772446
C78	C	-0.407185	0.227840	1.105780
C79	C	-0.964130	-0.438842	0.439118
C80	C	-0.630797	-0.105508	0.772452
C81	C	-0.297463	0.227825	1.105785
C82	C	-0.792529	-0.506126	0.506211
C83	C	-0.459196	-0.172792	0.839544
C84	C	-0.125862	0.160541	1.172877
C85	C	-0.909306	-0.506115	0.506212
C86	C	-0.575972	-0.172781	0.839545
C87	C	-0.242639	0.160552	1.172878
C88	C	-1.518528	-0.232072	0.506217
C89	C	-1.185195	0.101261	0.839550
C90	C	-0.851861	0.434595	1.172883
C91	C	-1.518542	-0.115295	0.506226
C92	C	-1.185208	0.218038	0.839559
C93	C	-0.851875	0.551371	1.172892
C94	C	-1.451407	0.049333	0.573416
C95	C	-1.118073	0.382667	0.906749
C96	C	-0.784740	0.716000	1.240083
C97	C	-1.451381	-0.060391	0.573410
C98	C	-1.118048	0.272943	0.906743
C99	C	-0.784714	0.606276	1.240077
C100	C	-1.585725	-0.060470	0.439035
C101	C	-1.252391	0.272863	0.772369
C102	C	-0.919058	0.606196	1.105702
C103	C	-1.585744	0.049252	0.439037
C104	C	-1.252411	0.382585	0.772370
C105	C	-0.919078	0.715918	1.105704
C106	C	-1.518478	-0.506130	0.233228
C107	C	-1.185145	-0.172797	0.566561
C108	C	-0.851811	0.160537	0.899895
C109	C	-1.518648	-0.505877	0.116452
C110	C	-1.185315	-0.172544	0.449785
C111	C	-0.851981	0.160790	0.783119
C112	C	-1.585817	-0.438761	0.951879
C113	C	-1.252484	-0.105428	1.285212
C114	C	-0.919150	0.227905	1.618545
C115	C	-1.585835	-0.438716	1.061603
C116	C	-1.252501	-0.105383	1.394936
C117	C	-0.919168	0.227951	1.728270
C118	C	-1.451431	-0.573080	1.061571
C119	C	-1.118098	-0.239747	1.394904
C120	C	-0.784765	0.093586	1.728238
C121	C	-1.451409	-0.573119	0.951849
C122	C	-1.118076	-0.239786	1.285182
C123	C	-0.784742	0.093547	1.618516
H124	H	-0.919563	-0.628155	0.627919
H125	H	-0.586230	-0.294822	0.961252
H126	H	-0.252896	0.038511	1.294585
Br127	Br	-1.360180	-0.664317	0.877371
Br128	Br	-1.026847	-0.330984	1.210704
Br129	Br	-0.693514	0.002350	1.544038
Br130	Br	-1.148414	-0.664662	0.664308
Br131	Br	-0.815081	-0.331328	0.997641
Br132	Br	-0.481748	0.002005	1.330974
H133	H	-1.396722	0.094030	0.628130
H134	H	-1.063388	0.427363	0.961463
H135	H	-0.730055	0.760696	1.294797
Br136	Br	-1.676919	0.123654	0.347848
Br137	Br	-1.343586	0.456987	0.681181
Br138	Br	-1.010253	0.790320	1.014515
Br139	Br	-1.148263	-0.347528	0.348067
Br140	Br	-0.814930	-0.014195	0.681400
Br141	Br	-0.481596	0.319139	1.014733
Br142	Br	-1.677059	-0.347519	1.136070
Br143	Br	-1.343726	-0.014186	1.469403
Br144	Br	-1.010392	0.319147	1.802737
Br145	Br	-0.889627	-0.347558	0.348073
Br146	Br	-0.556293	-0.014224	0.681407
Br147	Br	-0.222960	0.319109	1.014740
H148	H	-1.396676	-0.105018	0.628117
H149	H	-1.063342	0.228315	0.961450
H150	H	-0.730009	0.561649	1.294783
H151	H	-1.640532	-0.384074	0.907229
H152	H	-1.307198	-0.050741	1.240562
H153	H	-0.973865	0.282593	1.573895
Br154	Br	-1.360241	-0.664222	1.136008
Br155	Br	-1.026908	-0.330889	1.469341
Br156	Br	-0.693575	0.002444	1.802674
H157	H	-1.640403	-0.105183	0.384328
H158	H	-1.307070	0.228151	0.717661
H159	H	-0.973737	0.561484	1.050994
