data_functionalizedCrystal
_audit_creation_method	'MofGen! by Chris Wilmer'
_symmetry_space_group_name_H-M	'P1'
_symmetry_Int_Tables_number	1
_symmetry_cell_setting	triclinic
loop_
_symmetry_equiv_pos_as_xyz
  x,y,z
_cell_length_a	17.077404
_cell_length_b	17.640280
_cell_length_c	17.077396
_cell_angle_alpha	78.774026
_cell_angle_beta	89.983895
_cell_angle_gamma	78.798554
loop_
_atom_site_label
_atom_site_type_symbol
_atom_site_fract_x
_atom_site_fract_y
_atom_site_fract_z
Zn1	Zn	1.263282	-0.314703	-0.380711
Zn2	Zn	1.289759	-0.446887	-0.222938
Zn3	Zn	1.132024	-0.314728	-0.249457
Zn4	Zn	1.158536	-0.446833	-0.354175
O5	O	1.210900	-0.380788	-0.301820
O6	O	1.376644	-0.332250	-0.359789
O7	O	1.268821	-0.429389	-0.116602
O8	O	1.127260	-0.204119	-0.289071
O9	O	1.396096	-0.429365	-0.243874
O10	O	1.223695	-0.204101	-0.385503
O11	O	1.152933	-0.332292	-0.136085
O12	O	1.025691	-0.332239	-0.263341
O13	O	1.172445	-0.429273	-0.467549
O14	O	1.045169	-0.429297	-0.340277
O15	O	1.249402	-0.332198	-0.487045
O16	O	1.294528	-0.557486	-0.218143
O17	O	1.198119	-0.557446	-0.314563
C18	C	1.006948	-0.380765	-0.301807
C19	C	0.919700	-0.380775	-0.301816
C20	C	0.868600	-0.330297	-0.362232
C21	C	0.786620	-0.330302	-0.362235
C22	C	0.755743	-0.380790	-0.301824
C23	C	0.806850	-0.431270	-0.241402
C24	C	0.888827	-0.431260	-0.241397
C25	C	0.635983	-0.431287	-0.241418
C26	C	0.554001	-0.431298	-0.241424
C27	C	0.533777	-0.330330	-0.362255
C28	C	0.615754	-0.330320	-0.362250
C29	C	0.666855	-0.380801	-0.301829
C30	C	1.252094	-0.586145	-0.260613
C31	C	1.269789	-0.673997	-0.243011
C32	C	1.076796	-0.962967	-0.435829
C33	C	1.093425	-1.045518	-0.419264
C34	C	1.193878	-1.045494	-0.318964
C35	C	1.177261	-0.962941	-0.335523
C36	C	1.118718	-0.921684	-0.393956
C37	C	1.219183	-0.921659	-0.293650
C38	C	1.202563	-0.839113	-0.310206
C39	C	1.144022	-0.797851	-0.368634
C40	C	1.102099	-0.839139	-0.410511
C41	C	1.277721	-0.962917	-0.235214
C42	C	1.319643	-0.921634	-0.193341
C43	C	1.303028	-0.839088	-0.209900
C44	C	1.244486	-0.797825	-0.268328
C45	C	1.344951	-0.797799	-0.168023
C46	C	1.328332	-0.715254	-0.184578
C47	C	1.227867	-0.715280	-0.284884
C48	C	1.415649	-0.380811	-0.301834
C49	C	1.502901	-0.380821	-0.301839
C50	C	1.210927	-0.380727	-0.506577
C51	C	1.210939	-0.380700	-0.593832
C52	C	1.169567	-0.174629	-0.343205
C53	C	1.151953	-0.086776	-0.360841
C54	C	1.150611	-0.330136	-0.644968
C55	C	1.150620	-0.330118	-0.726952
C56	C	1.210961	-0.380661	-0.757799
C57	C	1.271293	-0.431231	-0.706657
C58	C	1.271280	-0.431252	-0.624674
C59	C	1.271317	-0.431182	-0.877537
C60	C	1.271331	-0.431159	-0.959526
C61	C	1.150657	-0.330047	-0.979815
C62	C	1.150644	-0.330069	-0.897832
C63	C	1.210977	-0.380638	-0.846695
C64	C	1.210907	-0.380792	-0.097872
C65	C	1.211003	-0.380595	-0.010662
H66	H	0.492166	-0.289225	-0.411451
H67	H	0.640892	-0.289213	-0.411446
H68	H	0.528864	-0.472410	-0.192233
Br69	Br	0.910496	-0.261780	-0.444227
H70	H	1.241541	-1.079096	-0.271386
H71	H	1.029131	-0.929374	-0.483416
H72	H	0.745017	-0.289200	-0.411432
Br73	Br	1.424390	-0.853800	-0.088717
Br74	Br	0.705335	-0.499803	-0.159421
Br75	Br	0.764946	-0.499783	-0.159410
H76	H	1.362468	-0.681641	-0.150480
Br77	Br	0.958179	-0.499767	-0.159400
Br78	Br	1.148426	-0.659280	-0.364196
Br79	Br	1.068719	-0.261532	-0.603113
Br80	Br	1.300306	-1.074944	-0.212775
Br81	Br	1.022658	-0.783140	-0.489824
Br82	Br	1.036512	-1.101543	-0.476086
Br83	Br	1.068779	-0.261414	-1.049214
H84	H	1.367306	-0.955237	-0.145763
H85	H	1.130486	-0.730637	-0.382107
Br86	Br	1.068708	-0.261535	-0.796339
H87	H	1.101511	-0.288909	-0.872719
Br88	Br	1.353230	-0.499747	-1.001392
Br89	Br	1.353194	-0.499817	-0.808136
Br90	Br	1.353180	-0.499833	-0.748519
H91	H	1.320410	-0.472421	-0.583040
