data_functionalizedCrystal
_audit_creation_method	'MofGen! by Chris Wilmer'
_symmetry_space_group_name_H-M	'P1'
_symmetry_Int_Tables_number	1
_symmetry_cell_setting	triclinic
loop_
_symmetry_equiv_pos_as_xyz
  x,y,z
_cell_length_a	16.625547
_cell_length_b	25.639239
_cell_length_c	16.625539
_cell_angle_alpha	90.031255
_cell_angle_beta	90.024822
_cell_angle_gamma	90.038623
loop_
_atom_site_label
_atom_site_type_symbol
_atom_site_fract_x
_atom_site_fract_y
_atom_site_fract_z
Zn1	Zn	1.232590	-0.208151	0.455984
Zn2	Zn	1.565923	0.125183	0.789318
Zn3	Zn	1.899256	0.458516	1.122651
Zn4	Zn	1.232455	-0.295589	0.321145
Zn5	Zn	1.565788	0.037745	0.654478
Zn6	Zn	1.899121	0.371078	0.987811
Zn7	Zn	1.097751	-0.208169	0.321155
Zn8	Zn	1.431085	0.125164	0.654488
Zn9	Zn	1.764418	0.458498	0.987821
Zn10	Zn	1.097684	-0.295557	0.455924
Zn11	Zn	1.431017	0.037776	0.789258
Zn12	Zn	1.764350	0.371110	1.122591
O13	O	1.165120	-0.251866	0.388552
O14	O	1.498453	0.081467	0.721885
O15	O	1.831787	0.414800	1.055219
O16	O	1.345404	-0.219755	0.438118
O17	O	1.678737	0.113578	0.771452
O18	O	2.012071	0.446911	1.104785
O19	O	1.214558	-0.284013	0.208313
O20	O	1.547891	0.049320	0.541647
O21	O	1.881225	0.382654	0.874980
O22	O	1.115723	-0.135001	0.339070
O23	O	1.449056	0.198332	0.672403
O24	O	1.782390	0.531665	1.005736
O25	O	1.345305	-0.283995	0.339052
O26	O	1.678638	0.049338	0.672385
O27	O	2.011972	0.382671	1.005719
O28	O	1.214788	-0.134988	0.438128
O29	O	1.548121	0.198345	0.771462
O30	O	1.881455	0.531679	1.104795
O31	O	1.115592	-0.219786	0.208321
O32	O	1.448925	0.113547	0.541654
O33	O	1.782259	0.446880	0.874988
O34	O	0.984910	-0.219755	0.339012
O35	O	1.318243	0.113578	0.672345
O36	O	1.651577	0.446911	1.005678
O37	O	1.115607	-0.283941	0.568765
O38	O	1.448941	0.049392	0.902098
O39	O	1.782274	0.382725	1.235431
O40	O	0.984860	-0.283959	0.438026
O41	O	1.318194	0.049374	0.771359
O42	O	1.651527	0.382708	1.104693
O43	O	1.214722	-0.219724	0.568809
O44	O	1.548056	0.113609	0.902142
O45	O	1.881389	0.446942	1.235475
O46	O	1.214492	-0.368750	0.338994
O47	O	1.547826	-0.035416	0.672327
O48	O	1.881159	0.297917	1.005661
O49	O	1.115477	-0.368726	0.438016
O50	O	1.448810	-0.035393	0.771350
O51	O	1.782143	0.297940	1.104683
C52	C	0.955629	-0.251856	0.388514
C53	C	1.288962	0.081477	0.721847
C54	C	1.622296	0.414811	1.055181
C55	C	0.866008	-0.251864	0.388517
C56	C	1.199341	0.081469	0.721850
C57	C	1.532675	0.414802	1.055183
C58	C	0.793225	-0.251865	0.388527
C59	C	1.126559	0.081468	0.721860
C60	C	1.459892	0.414801	1.055193
C61	C	0.701917	-0.251868	0.388547
C62	C	1.035250	0.081465	0.721880
C63	C	1.368584	0.414799	1.055214
C64	C	0.629141	-0.251873	0.388567
C65	C	0.962474	0.081460	0.721901
C66	C	1.295807	0.414794	1.055234
C67	C	0.537826	-0.251877	0.388587
C68	C	0.871160	0.081457	0.721920
C69	C	1.204493	0.414790	1.055253
C70	C	1.164984	-0.387709	0.388515
C71	C	1.498318	-0.054376	0.721848
C72	C	1.831651	0.278958	1.055182
C73	C	1.165000	-0.445823	0.388526
C74	C	1.498333	-0.112490	0.721860
C75	C	1.831667	0.220844	1.055193
C76	C	1.216812	-0.806185	0.337079
C77	C	1.550145	-0.472852	0.670412
C78	C	1.883479	-0.139519	1.003746
C79	C	1.216843	-0.860790	0.337090
C80	C	1.550176	-0.527456	0.670423
C81	C	1.883510	-0.194123	1.003757
O82	O	1.260755	-0.889026	0.293307
O83	O	1.594088	-0.555693	0.626640
O84	O	1.927421	-0.222359	0.959974
N85	N	1.165262	-0.888105	0.388605
N86	N	1.498595	-0.554772	0.721939
N87	N	1.831928	-0.221439	1.055272
C88	C	1.113651	-0.860814	0.440119
C89	C	1.446985	-0.527480	0.773453
C90	C	1.780318	-0.194147	1.106786
O91	O	1.069781	-0.889062	0.483939
O92	O	1.403114	-0.555728	0.817272
O93	O	1.736447	-0.222395	1.150606
C94	C	1.113625	-0.806210	0.440112
C95	C	1.446958	-0.472877	0.773445
C96	C	1.780291	-0.139544	1.106779
C97	C	1.165204	-0.778898	0.388587
C98	C	1.498537	-0.445564	0.721921
C99	C	1.831870	-0.112231	1.055254
C100	C	1.268387	-0.778873	0.285559
C101	C	1.601721	-0.445539	0.618892
C102	C	1.935054	-0.112206	0.952226
C103	C	1.268355	-0.724272	0.285547
C104	C	1.601688	-0.390939	0.618881
C105	C	1.935022	-0.057606	0.952214
C106	C	1.216747	-0.696984	0.337056
C107	C	1.550080	-0.363651	0.670389
C108	C	1.883413	-0.030318	1.003722
C109	C	1.165171	-0.724297	0.388576
C110	C	1.498505	-0.390964	0.721909
C111	C	1.831838	-0.057630	1.055242
C112	C	1.062019	-0.778920	0.491630
C113	C	1.395352	-0.445586	0.824963
C114	C	1.728686	-0.112253	1.158296
C115	C	1.061997	-0.724313	0.491618
C116	C	1.395331	-0.390979	0.824952
C117	C	1.728664	-0.057646	1.158285
C118	C	1.113576	-0.697000	0.440093
C119	C	1.446910	-0.363667	0.773427
C120	C	1.780243	-0.030333	1.106760
C121	C	1.113531	-0.642409	0.440072
C122	C	1.446864	-0.309075	0.773406
C123	C	1.780197	0.024258	1.106739
N124	N	1.165112	-0.615093	0.388557
N125	N	1.498445	-0.281760	0.721890
N126	N	1.831779	0.051573	1.055223
C127	C	1.216720	-0.642381	0.337048
C128	C	1.550054	-0.309048	0.670382
C129	C	1.883387	0.024286	1.003715
C130	C	1.113712	-0.975484	0.440132
C131	C	1.447045	-0.642151	0.773465
C132	C	1.780379	-0.308818	1.106799
C133	C	1.113734	-1.030087	0.440136
C134	C	1.447067	-0.696753	0.773469
C135	C	1.780401	-0.363420	1.106802
C136	C	1.216927	-1.030059	0.337107
C137	C	1.550260	-0.696726	0.670440
C138	C	1.883594	-0.363392	1.003774
C139	C	1.216900	-0.975456	0.337100
C140	C	1.550234	-0.642122	0.670433
C141	C	1.883567	-0.308789	1.003766
C142	C	1.165293	-0.948169	0.388616
C143	C	1.498627	-0.614835	0.721950
C144	C	1.831960	-0.281502	1.055283
C145	C	1.216648	-0.527716	0.337027
C146	C	1.549981	-0.194383	0.670361
C147	C	1.883314	0.138951	1.003694
C148	C	1.216608	-0.473111	0.337018
C149	C	1.549941	-0.139777	0.670351
C150	C	1.883275	0.193556	1.003685
C151	C	1.113418	-0.473143	0.440049
C152	C	1.446752	-0.139810	0.773383
C153	C	1.780085	0.193524	1.106716
C154	C	1.113454	-0.527744	0.440056
C155	C	1.446788	-0.194410	0.773389
C156	C	1.780121	0.138923	1.106723
C157	C	1.165076	-0.555029	0.388542
C158	C	1.498409	-0.221695	0.721876
C159	C	1.831742	0.111638	1.055209
O160	O	1.069644	-0.614138	0.483835
O161	O	1.402977	-0.280804	0.817168
O162	O	1.736310	0.052529	1.150502
O163	O	1.260591	-0.614126	0.293244
O164	O	1.593924	-0.280793	0.626577
O165	O	1.927258	0.052540	0.959910
C166	C	1.375429	-0.251877	0.388591
C167	C	1.708762	0.081457	0.721924
C168	C	2.042095	0.414790	1.055257
C169	C	1.465050	-0.251881	0.388607
C170	C	1.798383	0.081452	0.721941
C171	C	2.131717	0.414785	1.055274
C172	C	1.165172	-0.251827	0.598861
C173	C	1.498506	0.081506	0.932194
C174	C	1.831839	0.414839	1.265528
C175	C	1.165195	-0.251811	0.688482
C176	C	1.498528	0.081523	1.021816
C177	C	1.831861	0.414856	1.355149
C178	C	1.165278	-0.115493	0.388607
C179	C	1.498611	0.217840	0.721940
C180	C	1.831945	0.551173	1.055273
C181	C	1.165345	-0.057379	0.388630
C182	C	1.498679	0.275954	0.721963
C183	C	1.832012	0.609288	1.055297
C184	C	1.165114	-0.251867	0.179061
C185	C	1.498447	0.081466	0.512395
C186	C	1.831781	0.414799	0.845728
C187	C	1.165248	-0.251737	0.089441
C188	C	1.498581	0.081597	0.422774
C189	C	1.831915	0.414930	0.756107
C190	C	1.165232	-0.251752	1.016658
C191	C	1.498565	0.081581	1.349991
C192	C	1.831899	0.414915	1.683325
C193	C	1.165219	-0.251770	0.925350
C194	C	1.498553	0.081563	1.258683
C195	C	1.831886	0.414897	1.592016
C196	C	1.165214	-0.251782	0.852573
C197	C	1.498547	0.081551	1.185906
C198	C	1.831880	0.414885	1.519240
C199	C	1.165200	-0.251799	0.761259
C200	C	1.498534	0.081534	1.094592
C201	C	1.831867	0.414868	1.427925
H202	H	1.258610	-0.450874	0.295057
H203	H	1.591943	-0.117541	0.628391
H204	H	1.925277	0.215792	0.961724
C205	C	1.325090	-0.694235	0.228859
C206	C	1.658423	-0.360902	0.562192
C207	C	1.991757	-0.027569	0.895526
N208	N	1.367824	-0.671615	0.186156
N209	N	1.701157	-0.338282	0.519490
N210	N	2.034491	-0.004948	0.852823
C211	C	1.273704	-1.060086	0.280453
C212	C	1.607037	-0.726753	0.613786
C213	C	1.940370	-0.393419	0.947119
N214	N	1.316466	-1.082704	0.237784
N215	N	1.649800	-0.749371	0.571118
N216	N	1.983133	-0.416037	0.904451
C217	C	1.056712	-0.557789	0.496733
C218	C	1.390046	-0.224455	0.830066
C219	C	1.723379	0.108878	1.163399
N220	N	1.013979	-0.580415	0.539429
N221	N	1.347312	-0.247081	0.872762
N222	N	1.680646	0.086252	1.206096
H223	H	1.258684	-0.549925	0.295082
H224	H	1.592018	-0.216592	0.628415
H225	H	1.925351	0.116742	0.961749
C226	C	1.005224	-0.694301	0.548293
C227	C	1.338557	-0.360967	0.881626
C228	C	1.671891	-0.027634	1.214959
N229	N	0.962461	-0.671697	0.590978
N230	N	1.295795	-0.338363	0.924311
N231	N	1.629128	-0.005030	1.257645
C232	C	1.056655	-0.443116	0.496709
C233	C	1.389989	-0.109783	0.830042
C234	C	1.723322	0.223551	1.163376
N235	N	1.013906	-0.420498	0.539390
N236	N	1.347239	-0.087165	0.872724
N237	N	1.680573	0.246169	1.206057
H238	H	1.020014	-0.801148	0.533583
H239	H	1.353347	-0.467815	0.866916
H240	H	1.686680	-0.134482	1.200249
C241	C	1.056985	-1.060124	0.496809
C242	C	1.390318	-0.726791	0.830143
C243	C	1.723652	-0.393458	1.163476
N244	N	1.014243	-1.082747	0.539501
N245	N	1.347576	-0.749414	0.872835
N246	N	1.680910	-0.416080	1.206168
C247	C	1.273643	-0.945417	0.280422
C248	C	1.606977	-0.612083	0.613755
C249	C	1.940310	-0.278750	0.947088
N250	N	1.316386	-0.922794	0.237730
N251	N	1.649719	-0.589461	0.571063
N252	N	1.983053	-0.256128	0.904397
C253	C	1.325161	-0.808881	0.228886
C254	C	1.658495	-0.475547	0.562220
C255	C	1.991828	-0.142214	0.895553
N256	N	1.367921	-0.831479	0.186191
N257	N	1.701255	-0.498146	0.519525
N258	N	2.034588	-0.164812	0.852858
C259	C	1.056940	-0.945474	0.496811
C260	C	1.390273	-0.612140	0.830145
C261	C	1.723606	-0.278807	1.163478
N262	N	1.014183	-0.922872	0.539507
N263	N	1.347517	-0.589539	0.872840
N264	N	1.680850	-0.256206	1.206173
