data_functionalizedCrystal
_audit_creation_method	'MofGen! by Chris Wilmer'
_symmetry_space_group_name_H-M	'P1'
_symmetry_Int_Tables_number	1
_symmetry_cell_setting	triclinic
loop_
_symmetry_equiv_pos_as_xyz
  x,y,z
_cell_length_a	16.959455
_cell_length_b	15.297327
_cell_length_c	15.296720
_cell_angle_alpha	72.680778
_cell_angle_beta	80.337093
_cell_angle_gamma	99.703731
loop_
_atom_site_label
_atom_site_type_symbol
_atom_site_fract_x
_atom_site_fract_y
_atom_site_fract_z
Zn1	Zn	1.048938	-0.461286	0.589821
Zn2	Zn	1.548938	0.038714	1.089821
Zn3	Zn	1.048848	-0.589908	0.461216
Zn4	Zn	1.548848	-0.089908	0.961216
Zn5	Zn	0.944425	-0.434408	0.434340
Zn6	Zn	1.444425	0.065592	0.934340
Zn7	Zn	0.889073	-0.616741	0.616662
Zn8	Zn	1.389073	-0.116741	1.116662
O9	O	0.982821	-0.525586	0.525510
O10	O	1.482821	-0.025586	1.025510
O11	O	1.159532	-0.478367	0.572776
O12	O	1.659532	0.021633	1.072776
O13	O	1.058124	-0.546802	0.327526
O14	O	1.558124	-0.046802	0.827526
O15	O	0.981492	-0.307838	0.432485
O16	O	1.481492	0.192162	0.932485
O17	O	1.159466	-0.572865	0.478290
O18	O	1.659466	-0.072865	0.978290
O19	O	1.058277	-0.327585	0.546716
O20	O	1.558277	0.172415	1.046716
O21	O	0.981405	-0.432557	0.307781
O22	O	1.481405	0.067443	0.807781
O23	O	0.826477	-0.458576	0.458511
O24	O	1.326477	0.041424	0.958511
O25	O	0.887152	-0.618598	0.743226
O26	O	1.387152	-0.118598	1.243226
O27	O	0.785810	-0.592535	0.592462
O28	O	1.285810	-0.092535	1.092462
O29	O	1.004604	-0.504386	0.723506
O30	O	1.504604	-0.004386	1.223506
O31	O	1.004451	-0.723603	0.504316
O32	O	1.504451	-0.223603	1.004316
O33	O	0.887065	-0.743317	0.618522
O34	O	1.387065	-0.243317	1.118522
C35	C	0.939759	-0.767206	0.567268
C36	C	1.439759	-0.267206	1.067268
C37	C	0.921404	-0.870578	0.585163
C38	C	1.421404	-0.370578	1.085163
C39	C	0.777464	-0.525551	0.525483
C40	C	1.277464	-0.025551	1.025483
C41	C	0.689604	-0.525563	0.525498
C42	C	1.189604	-0.025563	1.025498
C43	C	1.114278	-1.120811	0.397925
C44	C	1.614278	-0.620811	0.897925
C45	C	1.131524	-1.023687	0.381107
C46	C	1.631524	-0.523687	0.881107
C47	C	1.078996	-0.985405	0.432120
C48	C	1.578996	-0.485405	0.932120
C49	C	1.009218	-1.044256	0.499954
C50	C	1.509218	-0.544256	0.999954
C51	C	0.991967	-1.141388	0.516769
C52	C	1.491967	-0.641388	1.016769
C53	C	0.956685	-1.005982	0.550963
C54	C	1.456685	-0.505982	1.050963
C55	C	0.886907	-1.064833	0.618797
C56	C	1.386907	-0.564833	1.118797
C57	C	0.869659	-1.161956	0.635609
C58	C	1.369659	-0.661956	1.135609
C59	C	0.922187	-1.200238	0.584596
C60	C	1.422187	-0.700238	1.084596
C61	C	0.973936	-0.908850	0.534148
C62	C	1.473936	-0.408850	1.034148
C63	C	0.851625	-0.929427	0.652991
C64	C	1.351625	-0.429427	1.152991
C65	C	0.834379	-1.026551	0.669810
C66	C	1.334379	-0.526551	1.169810
C67	C	0.339260	-0.455806	0.455877
C68	C	0.839260	0.044194	0.955877
C69	C	0.296962	-0.595451	0.595209
C70	C	0.796962	-0.095451	1.095209
C71	C	0.379511	-0.595437	0.595201
C72	C	0.879511	-0.095437	1.095201
C73	C	0.441939	-0.525607	0.525529
C74	C	0.941939	-0.025607	1.025529
C75	C	0.421818	-0.455791	0.455866
C76	C	0.921818	0.044209	0.955866
C77	C	0.399639	-0.665257	0.664857
C78	C	0.899639	-0.165257	1.164857
C79	C	0.482193	-0.665246	0.664852
C80	C	0.982193	-0.165246	1.164852
C81	C	0.544622	-0.595411	0.595183
C82	C	1.044622	-0.095411	1.095183
C83	C	0.524497	-0.525592	0.525517
C84	C	1.024497	-0.025592	1.025517
C85	C	0.586925	-0.455762	0.455846
C86	C	1.086925	0.044238	0.955846
C87	C	0.566801	-0.385938	0.386183
C88	C	1.066801	0.114062	0.886183
C89	C	0.484248	-0.385956	0.386197
C90	C	0.984248	0.114044	0.886197
C91	C	0.627176	-0.595393	0.595169
C92	C	1.127176	-0.095393	1.095169
C93	C	0.669482	-0.455747	0.455834
C94	C	1.169482	0.044253	0.955834
C95	C	1.188980	-0.525621	0.525537
C96	C	1.688980	-0.025621	1.025537
C97	C	1.276832	-0.525636	0.525549
C98	C	1.776832	-0.025636	1.025549
C99	C	0.939714	-0.567483	0.768049
C100	C	1.439714	-0.067483	1.268049
C101	C	0.921344	-0.585337	0.871405
C102	C	1.421344	-0.085337	1.371405
C103	C	1.026069	-0.283026	0.483609
C104	C	1.526069	0.216974	0.983609
C105	C	1.044499	-0.179661	0.465753
C106	C	1.544499	0.320339	0.965753
C107	C	1.025819	-0.483784	0.283903
C108	C	1.525819	0.016216	0.783903
C109	C	1.044388	-0.465668	0.180502
C110	C	1.544388	0.034332	0.680502
C111	C	1.114172	-0.397816	1.121681
C112	C	1.614172	0.102184	1.621681
C113	C	1.131436	-0.381043	1.024574
C114	C	1.631436	0.118957	1.524574
C115	C	1.078915	-0.432115	0.986277
C116	C	1.578915	0.067885	1.486277
C117	C	1.009126	-0.499963	1.045097
C118	C	1.509126	0.000037	1.545097
C119	C	0.991864	-0.516744	1.142215
C120	C	1.491864	-0.016744	1.642215
C121	C	0.956606	-0.551042	1.006810
C122	C	1.456606	-0.051042	1.506810
C123	C	0.886817	-0.618891	1.065630
C124	C	1.386817	-0.118891	1.565630
C125	C	0.869558	-0.635667	1.162738
C126	C	1.369558	-0.135667	1.662738
C127	C	0.922079	-0.584596	1.201036
C128	C	1.422079	-0.084596	1.701036
C129	C	0.973868	-0.534262	0.909692
C130	C	1.473868	-0.034262	1.409692
C131	C	0.851560	-0.653189	0.930225
C132	C	1.351560	-0.153189	1.430225
C133	C	0.834295	-0.669963	1.027333
C134	C	1.334295	-0.169963	1.527333
H135	H	1.030749	-0.860942	0.478917
H136	H	1.530749	-0.360942	0.978917
H137	H	0.643557	-0.652245	0.651885
H138	H	1.143557	-0.152245	1.151885
F139	F	1.205708	-0.308837	0.961980
F140	F	1.705708	0.191163	1.461980
H141	H	0.322871	-0.398955	0.399162
H142	H	0.822871	0.101045	0.899162
H143	H	0.777472	-0.725205	1.075238
H144	H	1.277472	-0.225205	1.575238
F145	F	0.795661	-0.707552	0.889473
F146	F	1.295661	-0.207552	1.389473
F147	F	1.048140	-0.462054	0.847102
F148	F	1.548140	0.037946	1.347102
H149	H	0.246129	-0.652308	0.651927
H150	H	0.746129	-0.152308	1.151927
F151	F	0.333197	-0.739589	0.738981
F152	F	0.833197	-0.239589	1.238981
F153	F	0.503603	-0.739556	0.738993
F154	F	1.003603	-0.239556	1.238993
H155	H	1.156932	-0.356246	1.152874
H156	H	1.656932	0.143754	1.652874
H157	H	1.093041	-0.906322	0.418421
H158	H	1.593041	-0.406322	0.918421
F159	F	0.633250	-0.311627	0.312032
F160	F	1.133250	0.188373	0.812032
H161	H	1.188336	-0.975774	0.325877
H162	H	1.688336	-0.475774	0.825877
H163	H	0.777565	-1.074481	0.725040
H164	H	1.277565	-0.574481	1.225040
H165	H	1.157035	-1.151989	0.356393
H166	H	1.657035	-0.651989	0.856393
H167	H	1.092975	-0.418454	0.907207
H168	H	1.592975	0.081546	1.407207
H169	H	0.812736	-0.690922	1.210629
H170	H	1.312736	-0.190922	1.710629
F171	F	0.903711	-0.602447	1.304390
F172	F	1.403711	-0.102447	1.804390
F173	F	0.903637	-1.303557	0.602196
F174	F	1.403637	-0.803557	1.102196
H175	H	0.812834	-1.209868	0.690833
H176	H	1.312834	-0.709868	1.190833
H177	H	0.808850	-0.898259	0.694528
H178	H	1.308850	-0.398259	1.194528
H179	H	0.467854	-0.329111	0.329481
H180	H	0.967854	0.170889	0.829481
F181	F	0.735918	-0.381419	0.381682
F182	F	1.235918	0.118581	0.881682
