data_functionalizedCrystal
_audit_creation_method	'MofGen! by Chris Wilmer'
_symmetry_space_group_name_H-M	'P1'
_symmetry_Int_Tables_number	1
_symmetry_cell_setting	triclinic
loop_
_symmetry_equiv_pos_as_xyz
  x,y,z
_cell_length_a	6.817900
_cell_length_b	15.866433
_cell_length_c	16.015572
_cell_angle_alpha	95.311397
_cell_angle_beta	104.485554
_cell_angle_gamma	102.657169
loop_
_atom_site_label
_atom_site_type_symbol
_atom_site_fract_x
_atom_site_fract_y
_atom_site_fract_z
V1	V	-3.996849	-0.034802	-0.280480
O2	O	-3.966436	0.088704	-0.236005
O3	O	-3.966359	-0.152710	-0.316201
O4	O	-3.927287	0.003922	-0.385635
O5	O	-4.005779	-0.069012	-0.166091
V6	V	-4.480898	-0.024541	-0.262226
O7	O	-4.256953	-0.057309	-0.320523
O8	O	-4.670992	-0.002034	-0.222184
O9	O	-4.288182	0.093367	-0.226505
O10	O	-4.628708	-0.148047	-0.306701
O11	O	-4.589365	0.009669	-0.376615
O12	O	-4.327254	-0.063265	-0.157071
C13	C	-3.816401	-0.182647	-0.321489
C14	C	-3.872618	-0.278793	-0.351396
C15	C	-3.979885	-0.401788	-0.468679
C16	C	-3.927059	-0.311446	-0.440568
C17	C	-3.870975	-0.336477	-0.290299
C18	C	-3.923787	-0.426823	-0.318397
C19	C	-3.978242	-0.459471	-0.407588
C20	C	-3.922144	-0.484505	-0.257307
C21	C	-3.974963	-0.574844	-0.285403
C22	C	-4.029425	-0.607499	-0.374590
C23	C	-4.031061	-0.549809	-0.435685
C24	C	-3.867703	-0.451856	-0.168117
C25	C	-3.866060	-0.509539	-0.107026
C26	C	-3.918865	-0.599878	-0.135122
C27	C	-3.973327	-0.632534	-0.224309
C28	C	-3.917230	-0.657568	-0.074027
C29	C	-3.970049	-0.747907	-0.102124
C30	C	-4.026146	-0.722872	-0.252406
C31	C	-3.766560	0.017153	-0.410057
C32	C	-3.791087	0.048034	-0.496269
C33	C	-4.121356	-0.226061	-0.961224
C34	C	-4.144403	-0.197016	-1.042220
C35	C	-4.044590	-0.046747	-0.969640
C36	C	-4.021523	-0.075780	-0.888636
C37	C	-4.059912	-0.165438	-0.884436
C38	C	-3.960080	-0.015156	-0.811848
C39	C	-3.937026	-0.044187	-0.730851
C40	C	-3.975416	-0.133841	-0.726642
C41	C	-4.036859	-0.194468	-0.803439
C42	C	-3.921706	0.074501	-0.816050
C43	C	-3.860263	0.135125	-0.739262
C44	C	-3.837194	0.106095	-0.658263
C45	C	-3.875584	0.016441	-0.654054
C46	C	-3.775751	0.166722	-0.581466
C47	C	-3.752698	0.137692	-0.500469
C48	C	-3.852530	-0.012590	-0.573058
C49	C	-4.101482	0.123299	-0.221217
C50	C	-4.024503	0.219445	-0.191315
C51	C	-4.151324	-0.076501	-0.132646
C52	C	-4.106035	-0.107377	-0.046431
H53	H	-4.070463	-0.749455	-0.325033
H54	H	-3.829019	0.208125	-0.742694
O55	O	-4.158050	-0.313117	-0.956968
C56	C	-4.016475	-0.430088	-0.902271
C57	C	-3.974758	-0.331507	-0.907116
H58	H	-3.868326	-0.444985	-0.861954
H59	H	-4.064189	-0.468602	-0.970988
H60	H	-4.147867	-0.449650	-0.870235
H61	H	-3.843336	-0.311865	-0.939115
H62	H	-3.927162	-0.293049	-0.838380
O63	O	-3.817934	-0.304611	-0.203693
C64	C	-3.711819	-0.176538	-0.093808
C65	C	-3.771808	-0.212504	-0.191915
H66	H	-3.674553	-0.102066	-0.084255
H67	H	-3.568558	-0.198073	-0.058198
H68	H	-3.848099	-0.202860	-0.066342
H69	H	-3.635664	-0.186199	-0.219459
H70	H	-3.915136	-0.190977	-0.227463
O71	O	-3.692904	0.196697	-0.425954
C72	C	-3.596440	0.348815	-0.362501
C73	C	-3.664084	0.282086	-0.446955
H74	H	-3.573162	0.417866	-0.379451
H75	H	-3.443379	0.341289	-0.318670
H76	H	-3.722860	0.336679	-0.326856
H77	H	-3.537808	0.294180	-0.482671
H78	H	-3.817201	0.289628	-0.490723
O79	O	-3.738472	0.253782	-0.585707
C80	C	-3.729905	0.365103	-0.678325
C81	C	-3.772143	0.266484	-0.673648
H82	H	-3.757153	0.375403	-0.749420
H83	H	-3.561022	0.398732	-0.640470
H84	H	-3.840422	0.394183	-0.648539
H85	H	-3.661757	0.237326	-0.703445
H86	H	-3.941078	0.232917	-0.711478
O87	O	-4.032823	-0.433366	-0.555355
C88	C	-4.082772	-0.399011	-0.701450
C89	C	-4.022819	-0.363132	-0.603323
H90	H	-4.074661	-0.342244	-0.740259
H91	H	-4.248680	-0.442978	-0.722459
H92	H	-3.969203	-0.438381	-0.714269
H93	H	-4.136245	-0.323722	-0.590431
H94	H	-3.856864	-0.319211	-0.582363
H95	H	-4.068092	-0.267476	-0.800020
H96	H	-4.072437	-0.681059	-0.397465
H97	H	-3.883763	-0.085598	-0.569638
H98	H	-3.968706	-0.794874	-0.052378
O99	O	-4.083999	-0.581387	-0.522361
C100	C	-4.133947	-0.547032	-0.668455
C101	C	-4.073995	-0.511152	-0.570329
H102	H	-4.125837	-0.490265	-0.707265
H103	H	-4.299856	-0.590999	-0.689465
H104	H	-4.020379	-0.586402	-0.681275
H105	H	-4.187421	-0.471743	-0.557437
H106	H	-3.908039	-0.467232	-0.549369
H107	H	-3.824705	-0.378296	-0.145244
O108	O	-3.813019	-0.477672	-0.020420
C109	C	-3.706905	-0.349599	0.089465
C110	C	-3.766893	-0.385566	-0.008641
H111	H	-3.669639	-0.275128	0.099018
H112	H	-3.563643	-0.371135	0.125075
H113	H	-3.843184	-0.375922	0.116932
H114	H	-3.630749	-0.359261	-0.036185
H115	H	-3.910221	-0.364039	-0.044190
H116	H	-3.928440	-0.264482	-0.490323
O117	O	-4.204025	-0.256027	-1.116729
C118	C	-4.300768	-0.408153	-1.180180
C119	C	-4.233198	-0.341420	-1.095732
H120	H	-4.324417	-0.477209	-1.163235
H121	H	-4.174355	-0.396143	-1.215839
H122	H	-4.453712	-0.400506	-1.223996
H123	H	-4.080299	-0.349028	-1.051850
H124	H	-4.359740	-0.353449	-1.060142
O125	O	-3.953221	-0.161945	-0.647921
C126	C	-4.065797	-0.165212	-0.516857
C127	C	-4.091108	-0.133311	-0.605976
H128	H	-4.177289	-0.142091	-0.482927
H129	H	-3.897760	-0.137523	-0.474633
H130	H	-4.103700	-0.239703	-0.527066
H131	H	-4.053313	-0.058826	-0.595849
H132	H	-4.259149	-0.161066	-0.648171
H133	H	-3.872907	-0.630972	-0.001409
H134	H	-4.013346	0.026252	-0.973073
H135	H	-3.940449	0.098136	-0.882004
