data_functionalizedCrystal
_audit_creation_method	'MofGen! by Chris Wilmer'
_symmetry_space_group_name_H-M	'P1'
_symmetry_Int_Tables_number	1
_symmetry_cell_setting	triclinic
loop_
_symmetry_equiv_pos_as_xyz
  x,y,z
_cell_length_a	14.908782
_cell_length_b	16.625545
_cell_length_c	14.908694
_cell_angle_alpha	93.268702
_cell_angle_beta	90.174534
_cell_angle_gamma	86.732496
loop_
_atom_site_label
_atom_site_type_symbol
_atom_site_fract_x
_atom_site_fract_y
_atom_site_fract_z
Zn1	Zn	1.403847	-0.415459	-0.428928
Zn2	Zn	1.903847	0.084541	0.071072
Zn3	Zn	1.395062	-0.542099	-0.278578
Zn4	Zn	1.895062	-0.042099	0.221422
Zn5	Zn	1.244822	-0.399990	-0.287279
Zn6	Zn	1.744822	0.100010	0.212721
Zn7	Zn	1.253447	-0.542948	-0.437576
Zn8	Zn	1.753447	-0.042948	0.062424
O9	O	1.324294	-0.475124	-0.358091
O10	O	1.824294	0.024876	0.141909
O11	O	1.528501	-0.438376	-0.401723
O12	O	2.028501	0.061624	0.098277
O13	O	1.367845	-0.516419	-0.153911
O14	O	1.867845	-0.016419	0.346089
O15	O	1.265984	-0.289214	-0.306091
O16	O	1.765984	0.210786	0.193909
O17	O	1.522046	-0.531419	-0.291262
O18	O	2.022046	-0.031419	0.208738
O19	O	1.382820	-0.300579	-0.410160
O20	O	1.882820	0.199421	0.089840
O21	O	1.257465	-0.412012	-0.160304
O22	O	1.757465	0.087988	0.339696
O23	O	1.120146	-0.412835	-0.314478
O24	O	1.620146	0.087165	0.185522
O25	O	1.280684	-0.532865	-0.562251
O26	O	1.780684	-0.032865	-0.062251
O27	O	1.126483	-0.517865	-0.424900
O28	O	1.626483	-0.017865	0.075100
O29	O	1.391183	-0.439199	-0.555897
O30	O	1.891183	0.060801	-0.055897
O31	O	1.376209	-0.655040	-0.299648
O32	O	1.876209	-0.155040	0.200352
O33	O	1.272165	-0.655663	-0.416463
O34	O	1.772165	-0.155663	0.083537
C35	C	1.090691	-0.463764	-0.371572
C36	C	1.590691	0.036236	0.128428
C37	C	0.990756	-0.458925	-0.377361
C38	C	1.490756	0.041075	0.122639
C39	C	0.796234	-0.546566	-0.273040
C40	C	1.296234	-0.046566	0.226960
C41	C	0.702336	-0.542022	-0.278476
C42	C	1.202336	-0.042022	0.221524
C43	C	0.709060	-0.445297	-0.393673
C44	C	1.209060	0.054703	0.106327
C45	C	0.802959	-0.449842	-0.388237
C46	C	1.302959	0.050158	0.111763
C47	C	0.846542	-0.500477	-0.327917
C48	C	1.346542	-0.000477	0.172083
C49	C	0.940442	-0.505016	-0.322477
C50	C	1.440442	-0.005016	0.177523
C51	C	0.947164	-0.408297	-0.437679
C52	C	1.447164	0.091703	0.062321
C53	C	0.853266	-0.403752	-0.443115
C54	C	1.353266	0.096248	0.056885
C55	C	1.324195	-0.684608	-0.358068
C56	C	1.824195	-0.184608	0.141932
C57	C	1.324237	-0.774233	-0.358083
C58	C	1.824237	-0.274233	0.141917
C59	C	1.324272	-0.847018	-0.358099
C60	C	1.824272	-0.347018	0.141901
C61	C	1.324326	-0.938330	-0.358116
C62	C	1.824326	-0.438330	0.141884
C63	C	1.324373	-1.011109	-0.358125
C64	C	1.824373	-0.511109	0.141875
C65	C	1.324426	-1.102427	-0.358140
C66	C	1.824426	-0.602427	0.141860
C67	C	1.558809	-0.486528	-0.344557
C68	C	2.058809	0.013472	0.155443
C69	C	1.658746	-0.491388	-0.338790
C70	C	2.158746	0.008612	0.161210
C71	C	1.337876	-0.487852	-0.592610
C72	C	1.837876	0.012148	-0.092610
C73	C	1.343663	-0.493276	-0.692548
C74	C	1.843663	0.006724	-0.192548
C75	C	1.324420	-0.264824	-0.358132
C76	C	1.824420	0.235176	0.141868
C77	C	1.324473	-0.175206	-0.358149
C78	C	1.824473	0.324794	0.141851
C79	C	1.239578	-0.394751	-0.887002
C80	C	1.739578	0.105249	-0.387002
C81	C	1.245013	-0.399844	-0.980904
C82	C	1.745013	0.100156	-0.480904
C83	C	1.359963	-0.508561	-0.974254
C84	C	1.859963	-0.008561	-0.474254
C85	C	1.354528	-0.503467	-0.880353
C86	C	1.854528	-0.003467	-0.380353
C87	C	1.294335	-0.446559	-0.836730
C88	C	1.794335	0.053441	-0.336730
C89	C	1.288905	-0.441462	-0.742827
C90	C	1.788905	0.058538	-0.242827
C91	C	1.403849	-0.550182	-0.736179
C92	C	1.903849	-0.050182	-0.236179
C93	C	1.409284	-0.555275	-0.830080
C94	C	1.909284	-0.055275	-0.330080
C95	C	1.310818	-0.462389	-0.124480
C96	C	1.810818	0.037611	0.375520
C97	C	1.305204	-0.456747	-0.024533
C98	C	1.805204	0.043253	0.475467
H99	H	0.975926	-0.546244	-0.273360
H100	H	1.475926	-0.046244	0.226640
H101	H	0.831720	-0.587790	-0.223919
H102	H	1.331720	-0.087790	0.276081
H103	H	0.661379	-0.579554	-0.233790
H104	H	1.161379	-0.079554	0.266210
H105	H	0.673559	-0.404080	-0.442790
H106	H	1.173559	0.095920	0.057210
Br107	Br	0.794109	-0.335043	-0.524980
Br108	Br	1.294109	0.164957	-0.024980
H109	H	1.458289	-0.601610	-0.865611
H110	H	1.958289	-0.101610	-0.365611
Br111	Br	1.015443	-0.345731	-0.512148
Br112	Br	1.515443	0.154269	-0.012148
Br113	Br	1.207220	-0.364229	-0.683625
Br114	Br	1.707220	0.135771	-0.183625
Br115	Br	1.441630	-0.585799	-1.033472
Br116	Br	1.941630	-0.085799	-0.533472
Br117	Br	1.157903	-0.317512	-0.827795
Br118	Br	1.657903	0.182488	-0.327795
Br119	Br	1.170693	-0.329535	-1.049129
Br120	Br	1.670693	0.170465	-0.549129
Br121	Br	1.478170	-0.620494	-0.667948
Br122	Br	1.978170	-0.120494	-0.167948
