data_functionalizedCrystal
_audit_creation_method	'MofGen! by Chris Wilmer'
_symmetry_space_group_name_H-M	'P1'
_symmetry_Int_Tables_number	1
_symmetry_cell_setting	triclinic
loop_
_symmetry_equiv_pos_as_xyz
  x,y,z
_cell_length_a	19.188905
_cell_length_b	19.288865
_cell_length_c	17.766277
_cell_angle_alpha	90.011603
_cell_angle_beta	89.983513
_cell_angle_gamma	96.864599
loop_
_atom_site_label
_atom_site_type_symbol
_atom_site_fract_x
_atom_site_fract_y
_atom_site_fract_z
O1	O	0.926154	-0.086635	-0.062727
O2	O	1.259488	0.246698	0.270607
O3	O	1.592821	0.580032	0.603940
O4	O	0.722840	-0.098327	-0.062702
O5	O	1.056173	0.235007	0.270631
O6	O	1.389506	0.568340	0.603964
O7	O	0.830372	0.008649	-0.062700
O8	O	1.163705	0.341983	0.270633
O9	O	1.497038	0.675316	0.603966
O10	O	0.818622	-0.193611	-0.062729
O11	O	1.151955	0.139722	0.270605
O12	O	1.485289	0.473055	0.603938
O13	O	0.830353	0.008655	0.062488
O14	O	1.163686	0.341988	0.395822
O15	O	1.497020	0.675322	0.729155
O16	O	0.722821	-0.098321	0.062486
O17	O	1.056154	0.235012	0.395820
O18	O	1.389487	0.568345	0.729153
O19	O	0.926135	-0.086630	0.062462
O20	O	1.259469	0.246704	0.395795
O21	O	1.592802	0.580037	0.729128
Cu22	Cu	0.824476	-0.092475	0.073905
Cu23	Cu	1.157810	0.240858	0.407238
Cu24	Cu	1.491143	0.574192	0.740571
Cu25	Cu	0.824499	-0.092481	-0.074145
Cu26	Cu	1.157832	0.240852	0.259188
Cu27	Cu	1.491165	0.574185	0.592521
O28	O	0.818603	-0.193606	0.062460
O29	O	1.151937	0.139727	0.395793
O30	O	1.485270	0.473061	0.729126
C31	C	0.696819	-0.097948	-0.000105
C32	C	1.030152	0.235385	0.333229
C33	C	1.363486	0.568718	0.666562
C34	C	0.619314	-0.096821	-0.000095
C35	C	0.952647	0.236513	0.333239
C36	C	1.285980	0.569846	0.666572
C37	C	0.582932	-0.096282	-0.068337
C38	C	0.916265	0.237052	0.264997
C39	C	1.249599	0.570385	0.598330
C40	C	0.510108	-0.095214	-0.068346
C41	C	0.843442	0.238119	0.264987
C42	C	1.176775	0.571452	0.598321
C43	C	0.473671	-0.094672	-0.000109
C44	C	0.807004	0.238662	0.333224
C45	C	1.140338	0.571995	0.666558
C46	C	0.510061	-0.095214	0.068142
C47	C	0.843394	0.238119	0.401475
C48	C	1.176727	0.571452	0.734809
C49	C	0.582882	-0.096289	0.068149
C50	C	0.916215	0.237044	0.401483
C51	C	1.249549	0.570378	0.734816
N52	N	0.364646	-0.053455	0.050679
N53	N	0.697980	0.279878	0.384012
N54	N	1.031313	0.613212	0.717345
N55	N	0.295469	-0.052433	0.050667
N56	N	0.628803	0.280900	0.384000
N57	N	0.962136	0.614234	0.717334
C58	C	0.254265	-0.091436	-0.000127
C59	C	0.587598	0.241898	0.333206
C60	C	0.920931	0.575231	0.666540
N61	N	0.284851	-0.131491	-0.050920
N62	N	0.618185	0.201843	0.282413
N63	N	0.951518	0.535176	0.615746
N64	N	0.354035	-0.132510	-0.050911
N65	N	0.687368	0.200823	0.282422
N66	N	1.020702	0.534157	0.615756
C67	C	0.394709	-0.093507	-0.000109
C68	C	0.728042	0.239826	0.333224
C69	C	1.061375	0.573160	0.666557
C70	C	0.138919	-0.089741	-0.068384
C71	C	0.472253	0.243593	0.264950
C72	C	0.805586	0.576926	0.598283
C73	C	0.066094	-0.088677	-0.068390
C74	C	0.399427	0.244656	0.264943
C75	C	0.732761	0.577989	0.598277
C76	C	0.066049	-0.088671	0.068100
C77	C	0.399382	0.244663	0.401433
C78	C	0.732715	0.577996	0.734767
C79	C	0.138872	-0.089741	0.068104
C80	C	0.472205	0.243593	0.401438
C81	C	0.805538	0.576926	0.734771
C82	C	0.175303	-0.090272	-0.000140
C83	C	0.508637	0.243061	0.333194
C84	C	0.841970	0.576394	0.666527
C85	C	0.829984	0.034529	-0.000104
C86	C	1.163318	0.367862	0.333230
C87	C	1.496651	0.701195	0.666563
C88	C	0.828849	0.111632	-0.000097
C89	C	1.162183	0.444966	0.333236
C90	C	1.495516	0.778299	0.666570
C91	C	0.952156	-0.087008	-0.000138
C92	C	1.285489	0.246325	0.333196
C93	C	1.618823	0.579659	0.666529
C94	C	1.029661	-0.088136	-0.000153
C95	C	1.362995	0.245197	0.333181
C96	C	1.696328	0.578531	0.666514
C97	C	0.818991	-0.219485	-0.000138
C98	C	1.152324	0.113848	0.333195
C99	C	1.485657	0.447182	0.666528
C100	C	0.820126	-0.296589	-0.000150
C101	C	1.153459	0.036745	0.333183
C102	C	1.486792	0.370078	0.666517
N103	N	0.824466	-0.092470	0.178035
N104	N	1.157799	0.240863	0.511368
N105	N	1.491132	0.574197	0.844702
C106	C	0.891944	0.156329	-0.000101
C107	C	1.225278	0.489663	0.333232
C108	C	1.558611	0.822996	0.666566
C109	C	0.890878	0.228776	-0.000113
C110	C	1.224211	0.562110	0.333221
C111	C	1.557545	0.895443	0.666554
C112	C	0.826713	0.256523	-0.000105
C113	C	1.160047	0.589856	0.333228
C114	C	1.493380	0.923190	0.666561
C115	C	0.763610	0.211816	-0.000106
C116	C	1.096943	0.545149	0.333228
C117	C	1.430277	0.878483	0.666561
C118	C	0.764678	0.139371	-0.000102
C119	C	1.098011	0.472704	0.333232
C120	C	1.431345	0.806037	0.666565
C121	C	0.776266	0.364812	0.043751
C122	C	1.109599	0.698145	0.377085
C123	C	1.442932	1.031478	0.710418
C124	C	0.775200	0.437256	0.043752
C125	C	1.108534	0.770589	0.377085
C126	C	1.441867	1.103923	0.710419
C127	C	0.823417	0.479969	-0.000122
C128	C	1.156750	0.813302	0.333211
C129	C	1.490083	1.146635	0.666545
C130	C	0.872710	0.450229	-0.043986
C131	C	1.206043	0.783563	0.289347
C132	C	1.539377	1.116896	0.622680
C133	C	0.873778	0.377784	-0.043982
C134	C	1.207111	0.711117	0.289351
C135	C	1.540445	1.044451	0.622684
C136	C	0.825548	0.335077	-0.000111
C137	C	1.158881	0.668410	0.333223
C138	C	1.492215	1.001744	0.666556
C139	C	0.885360	0.603222	-0.000140
C140	C	1.218693	0.936555	0.333194
C141	C	1.552027	1.269888	0.666527
C142	C	0.884291	0.675670	-0.000156
C143	C	1.217624	1.009003	0.333177
C144	C	1.550958	1.342337	0.666511
C145	C	0.757021	0.658708	-0.000142
C146	C	1.090354	0.992041	0.333192
C147	C	1.423688	1.325374	0.666525
C148	C	0.758092	0.586261	-0.000133
C149	C	1.091425	0.919595	0.333201
C150	C	1.424758	1.252928	0.666534
C151	C	0.822263	0.558523	-0.000128
C152	C	1.155596	0.891856	0.333205
C153	C	1.488930	1.225190	0.666538
N154	N	0.824515	-0.092481	-0.178276
N155	N	1.157848	0.240853	0.155058
N156	N	1.491181	0.574186	0.488391
C157	C	0.872096	-0.045124	0.217423
C158	C	1.205430	0.288209	0.550756
C159	C	1.538763	0.621543	0.884089
C160	C	0.872100	-0.045121	0.296225
C161	C	1.205434	0.288212	0.629558
C162	C	1.538767	0.621546	0.962891
C163	C	0.824480	-0.092476	0.335636
C164	C	1.157814	0.240858	0.668969
C165	C	1.491147	0.574191	1.002302
C166	C	0.776841	-0.139825	0.296238
C167	C	1.110174	0.193508	0.629572
C168	C	1.443508	0.526841	0.962905
C169	C	0.776834	-0.139822	0.217438
C170	C	1.110167	0.193511	0.550771
C171	C	1.443500	0.526844	0.884105
C172	C	0.815133	-0.155763	0.460465
C173	C	1.148467	0.177570	0.793799
C174	C	1.481800	0.510903	1.127132
C175	C	0.815145	-0.155767	0.539264
C176	C	1.148479	0.177566	0.872598
C177	C	1.481812	0.510900	1.205931
C178	C	0.824499	-0.092484	0.578682
C179	C	1.157832	0.240849	0.912015
C180	C	1.491166	0.574183	1.245349
C181	C	0.833855	-0.029194	0.539291
C182	C	1.167189	0.304139	0.872624
C183	C	1.500522	0.637472	1.205958
C184	C	0.833848	-0.029192	0.460491
C185	C	1.167181	0.304142	0.793824
C186	C	1.500515	0.637475	1.127157
C187	C	0.824483	-0.092484	0.421081
C188	C	1.157816	0.240850	0.754415
C189	C	1.491150	0.574183	1.087748
C190	C	0.872137	-0.045131	0.703516
C191	C	1.205470	0.288203	1.036849
C192	C	1.538803	0.621536	1.370182
C193	C	0.872136	-0.045126	0.782319
C194	C	1.205469	0.288207	1.115652
C195	C	1.538803	0.621540	1.448986
C196	C	0.776880	-0.139837	0.782331
C197	C	1.110213	0.193497	1.115664
C198	C	1.443546	0.526830	1.448998
C199	C	0.776877	-0.139835	0.703529
C200	C	1.110211	0.193498	1.036863
C201	C	1.443544	0.526832	1.370196
C202	C	0.824509	-0.092483	0.664126
C203	C	1.157843	0.240851	0.997460
C204	C	1.491176	0.574184	1.330793
H205	H	0.168495	-0.090175	0.123675
H206	H	0.501828	0.243158	0.457008
H207	H	0.835161	0.576492	0.790341
H208	H	0.612503	-0.096728	0.123722
H209	H	0.945837	0.236605	0.457055
H210	H	1.279170	0.569938	0.790389
H211	H	0.480389	-0.094774	0.123701
H212	H	0.813722	0.238559	0.457034
H213	H	1.147055	0.571892	0.790368
Cl214	Cl	0.184721	-0.090416	-0.154174
Cl215	Cl	0.518055	0.242918	0.179159
Cl216	Cl	0.851388	0.576251	0.512493
Cl217	Cl	0.676356	0.693582	-0.000137
Cl218	Cl	1.009689	1.026916	0.333197
Cl219	Cl	1.343022	1.360249	0.666530
H220	H	0.944198	0.133750	-0.000100
H221	H	1.277531	0.467083	0.333233
H222	H	1.610864	0.800417	0.666567
Cl223	Cl	0.628727	-0.096954	-0.154129
Cl224	Cl	0.962061	0.236380	0.179204
Cl225	Cl	1.295394	0.569713	0.512538
Cl226	Cl	0.931972	0.014407	0.167888
Cl227	Cl	1.265305	0.347740	0.501221
Cl228	Cl	1.598638	0.681073	0.834555
Cl229	Cl	0.966030	0.568347	-0.000130
Cl230	Cl	1.299364	0.901680	0.333204
Cl231	Cl	1.632697	1.235014	0.666537
Cl232	Cl	0.803388	-0.235330	0.588776
Cl233	Cl	1.136722	0.098003	0.922109
Cl234	Cl	1.470055	0.431337	1.255443
Cl235	Cl	0.020248	-0.087995	0.153885
Cl236	Cl	0.353581	0.245338	0.487218
Cl237	Cl	0.686914	0.578671	0.820551
Cl238	Cl	0.717000	-0.199362	0.654008
Cl239	Cl	1.050333	0.133971	0.987342
Cl240	Cl	1.383666	0.467305	1.320675
H241	H	0.942259	0.265176	-0.000119
H242	H	1.275593	0.598509	0.333214
H243	H	1.608926	0.931843	0.666548
H244	H	0.935673	0.712062	-0.000164
H245	H	1.269006	1.045396	0.333170
H246	H	1.602339	1.378729	0.666503
H247	H	0.913913	0.353573	-0.079700
H248	H	1.247247	0.686907	0.253634
H249	H	1.580580	1.020240	0.586967
Cl250	Cl	0.678768	0.530067	-0.000124
Cl251	Cl	1.012101	0.863401	0.333209
Cl252	Cl	1.345434	1.196734	0.666542
Cl253	Cl	0.713235	0.474636	0.098898
Cl254	Cl	1.046568	0.807969	0.432231
Cl255	Cl	1.379902	1.141302	0.765565
H256	H	0.737000	0.330040	0.079483
H257	H	1.070334	0.663373	0.412816
H258	H	1.403667	0.996707	0.746149
H259	H	0.711367	0.234412	-0.000102
H260	H	1.044700	0.567745	0.333232
H261	H	1.378033	0.901079	0.666565
H262	H	0.738067	-0.178381	0.328331
H263	H	1.071400	0.154952	0.661664
H264	H	1.404734	0.488286	0.994997
H265	H	0.036473	-0.088243	-0.123963
H266	H	0.369806	0.245090	0.209370
H267	H	0.703139	0.578424	0.542703
H268	H	0.841472	0.022337	0.571383
H269	H	1.174805	0.355670	0.904717
H270	H	1.508138	0.689004	1.238050
H271	H	0.911972	0.485005	-0.079713
H272	H	1.245306	0.818338	0.253620
H273	H	1.578639	1.151672	0.586954
H274	H	0.713297	0.102977	-0.000098
H275	H	1.046630	0.436311	0.333235
H276	H	1.379964	0.769644	0.666569
H277	H	0.910888	-0.006565	0.328300
H278	H	1.244221	0.326769	0.661633
H279	H	1.577555	0.660102	0.994967
H280	H	0.738104	-0.178391	0.814419
H281	H	1.071438	0.154942	1.147752
H282	H	1.404771	0.488276	1.481086
Cl283	Cl	0.845602	0.050368	0.410973
Cl284	Cl	1.178935	0.383702	0.744307
Cl285	Cl	1.512268	0.717035	1.077640
Cl286	Cl	0.932013	0.014401	0.653979
Cl287	Cl	1.265346	0.347735	0.987313
Cl288	Cl	1.598680	0.681068	1.320646
Cl289	Cl	0.932015	0.014403	0.831838
Cl290	Cl	1.265348	0.347737	1.165171
Cl291	Cl	1.598682	0.681070	1.498505
Cl292	Cl	0.803439	-0.235329	0.410920
Cl293	Cl	1.136772	0.098004	0.744253
Cl294	Cl	1.470105	0.431338	1.077587
H295	H	0.480481	-0.094777	-0.123919
H296	H	0.813814	0.238557	0.209415
H297	H	1.147147	0.571890	0.542748
Cl298	Cl	0.716951	-0.199349	0.167919
Cl299	Cl	1.050285	0.133985	0.501252
Cl300	Cl	1.383618	0.467318	0.834585
