data_functionalizedCrystal
_audit_creation_method	'MofGen! by Chris Wilmer'
_symmetry_space_group_name_H-M	'P1'
_symmetry_Int_Tables_number	1
_symmetry_cell_setting	triclinic
loop_
_symmetry_equiv_pos_as_xyz
  x,y,z
_cell_length_a	14.519731
_cell_length_b	14.519731
_cell_length_c	7.088929
_cell_angle_alpha	83.763267
_cell_angle_beta	96.215673
_cell_angle_gamma	83.688853
loop_
_atom_site_label
_atom_site_type_symbol
_atom_site_fract_x
_atom_site_fract_y
_atom_site_fract_z
O1	O	1.214413	0.130448	-0.158997
O2	O	1.714413	0.630448	0.341003
O3	O	0.945940	0.144664	-0.159001
O4	O	1.445940	0.644664	0.340999
O5	O	1.087286	0.003318	-0.158981
O6	O	1.587286	0.503318	0.341019
O7	O	1.073068	0.271794	-0.159016
O8	O	1.573068	0.771794	0.340984
O9	O	1.106175	-0.015614	0.158996
O10	O	1.606175	0.484386	0.658996
O11	O	0.964829	0.125732	0.158977
O12	O	1.464829	0.625732	0.658977
O13	O	1.233303	0.111516	0.158981
O14	O	1.733303	0.611516	0.658981
Cu15	Cu	1.100791	0.116895	0.188013
Cu16	Cu	1.600791	0.616895	0.688013
Cu17	Cu	1.078452	0.139285	-0.188033
Cu18	Cu	1.578452	0.639285	0.311967
O19	O	1.091957	0.252861	0.158961
O20	O	1.591957	0.752861	0.658961
C21	C	0.921025	0.134532	-0.000012
C22	C	1.421025	0.634532	0.499988
C23	C	0.818645	0.132536	-0.000013
C24	C	1.318645	0.632536	0.499987
C25	C	0.735500	0.130914	-0.000020
C26	C	1.235500	0.630914	0.499980
C27	C	0.631191	0.128888	-0.000021
C28	C	1.131191	0.628888	0.499979
C29	C	0.548052	0.127279	-0.000020
C30	C	1.048052	0.627279	0.499980
C31	C	0.443736	0.125253	-0.000024
C32	C	0.943736	0.625253	0.499976
C33	C	1.096064	-0.040507	0.000008
C34	C	1.596064	0.459493	0.500008
C35	C	1.094068	-0.142888	0.000009
C36	C	1.594068	0.357112	0.500009
C37	C	1.092446	-0.226032	0.000004
C38	C	1.592446	0.273968	0.500004
C39	C	1.090419	-0.330340	-0.000010
C40	C	1.590419	0.169660	0.499990
C41	C	1.088810	-0.413478	-0.000022
C42	C	1.588810	0.086522	0.499978
C43	C	1.086783	-0.517793	-0.000034
C44	C	1.586783	-0.017793	0.499966
C45	C	1.258217	0.121648	-0.000012
C46	C	1.758217	0.621648	0.499988
C47	C	1.360597	0.123645	-0.000024
C48	C	1.860597	0.623645	0.499976
C49	C	1.083178	0.296687	-0.000032
C50	C	1.583178	0.796687	0.499968
C51	C	1.085173	0.399069	-0.000046
C52	C	1.585173	0.899069	0.499954
N53	N	1.116509	0.101147	0.452503
N54	N	1.616509	0.601147	0.952503
N55	N	1.062741	0.155026	-0.452523
N56	N	1.562741	0.655026	0.047477
H57	H	1.007015	0.210859	0.465823
H58	H	1.507015	0.710859	0.965823
H59	H	1.172245	0.045316	0.534166
H60	H	1.672245	0.545316	1.034166
