data_functionalizedCrystal
_audit_creation_method	'MofGen! by Chris Wilmer'
_symmetry_space_group_name_H-M	'P1'
_symmetry_Int_Tables_number	1
_symmetry_cell_setting	triclinic
loop_
_symmetry_equiv_pos_as_xyz
  x,y,z
_cell_length_a	11.169417
_cell_length_b	25.639239
_cell_length_c	11.169409
_cell_angle_alpha	90.039281
_cell_angle_beta	90.019824
_cell_angle_gamma	90.039565
loop_
_atom_site_label
_atom_site_type_symbol
_atom_site_fract_x
_atom_site_fract_y
_atom_site_fract_z
Zn1	Zn	1.834726	-0.208096	0.678485
Zn2	Zn	1.834516	-0.295546	0.477777
Zn3	Zn	1.634012	-0.208128	0.477819
Zn4	Zn	1.633920	-0.295504	0.678422
O5	O	1.734293	-0.251819	0.578126
O6	O	2.002648	-0.219701	0.651869
O7	O	1.807869	-0.283981	0.309833
O8	O	1.660763	-0.134959	0.504482
O9	O	2.002494	-0.283950	0.504410
O10	O	1.808227	-0.134935	0.651910
O11	O	1.660560	-0.219755	0.309864
O12	O	1.466050	-0.219714	0.504421
O13	O	1.660607	-0.283878	0.846380
O14	O	1.465983	-0.283909	0.651803
O15	O	1.808138	-0.219660	0.846426
O16	O	1.807780	-0.368706	0.504350
O17	O	1.660403	-0.368675	0.651763
C18	C	1.422469	-0.251811	0.578110
C19	C	1.289069	-0.251820	0.578132
C20	C	1.734092	-0.387661	0.578071
C21	C	1.734115	-0.445775	0.578088
C22	C	1.811233	-0.806142	0.501499
C23	C	1.811279	-0.860746	0.501515
O24	O	1.876638	-0.888986	0.436336
N25	N	1.734504	-0.888058	0.578205
C26	C	1.657686	-0.860762	0.654894
O27	O	1.592388	-0.889006	0.720127
C28	C	1.657647	-0.806159	0.654883
C29	C	1.734418	-0.778850	0.578178
C30	C	1.887999	-0.778833	0.424802
C31	C	1.887951	-0.724233	0.424784
C32	C	1.811136	-0.696941	0.501464
C33	C	1.734370	-0.724249	0.578161
C34	C	1.580836	-0.778864	0.731576
C35	C	1.580804	-0.724257	0.731559
C36	C	1.657575	-0.696948	0.654855
C37	C	1.657507	-0.642357	0.654823
N38	N	1.734282	-0.615046	0.578133
C39	C	1.811097	-0.642338	0.501453
C40	C	1.657777	-0.975432	0.654912
C41	C	1.657809	-1.030035	0.654918
C42	C	1.811404	-1.030015	0.501540
C43	C	1.811365	-0.975412	0.501529
C44	C	1.734552	-0.948121	0.578221
C45	C	1.810988	-0.527673	0.501422
C46	C	1.810930	-0.473067	0.501408
C47	C	1.657340	-0.473091	0.654789
C48	C	1.657393	-0.527692	0.654799
C49	C	1.734228	-0.554981	0.578112
O50	O	1.592185	-0.614082	0.719973
O51	O	1.876395	-0.614086	0.436242
C52	C	2.047336	-0.251827	0.578142
C53	C	2.180736	-0.251830	0.578149
C54	C	1.734386	-0.251761	0.891168
C55	C	1.734425	-0.251736	1.024569
C56	C	1.734529	-0.115446	0.578207
C57	C	1.734629	-0.057331	0.578242
C58	C	1.734271	-0.251839	0.266301
C59	C	1.734464	-0.251716	0.132902
H60	H	1.873446	-0.450834	0.438942
C61	C	1.497685	-0.808569	0.814940
C62	C	1.565631	-0.839865	0.891915
C63	C	1.489072	-0.867239	0.968726
H64	H	1.451920	-0.784545	0.860718
H65	H	1.445436	-0.829941	0.769045
H66	H	1.617859	-0.818494	0.937806
H67	H	1.611394	-0.863897	0.846171
H68	H	1.436823	-0.888612	0.922830
H69	H	1.443311	-0.843212	1.014495
H70	H	1.535161	-0.888480	1.020955
H71	H	1.950557	-0.801049	0.362360
H72	H	1.594884	-0.549928	0.717262
H73	H	1.950468	-0.702001	0.362329
C74	C	1.894793	-0.945699	0.418451
C75	C	1.971649	-0.914286	0.486459
C76	C	2.048514	-0.886905	0.409966
H77	H	1.940654	-0.969718	0.372759
H78	H	1.848931	-0.924405	0.366130
H79	H	2.017506	-0.935578	0.538759
H80	H	1.925821	-0.890257	0.532148
H81	H	2.002652	-0.865611	0.357645
H82	H	2.094367	-0.910929	0.364279
H83	H	2.100662	-0.865585	0.456098
H84	H	1.594794	-0.450862	0.717218
C85	C	1.894447	-0.557201	0.418025
C86	C	1.961633	-0.521590	0.350838
C87	C	2.038508	-0.548772	0.273984
H88	H	1.946850	-0.578464	0.463841
H89	H	1.848608	-0.578529	0.365630
H90	H	2.007468	-0.500271	0.403226
H91	H	1.909261	-0.500325	0.304997
H92	H	1.992669	-0.570100	0.221589
H93	H	2.090903	-0.570034	0.319810
H94	H	2.084095	-0.524614	0.228381
H95	H	1.873955	-1.052246	0.439107
C96	C	1.497475	-0.694693	0.815023
C97	C	1.523550	-0.707933	0.933791
C98	C	1.446804	-0.680715	1.010708
H99	H	1.508363	-0.658253	0.804197
H100	H	1.416830	-0.703696	0.797470
H101	H	1.604175	-0.698926	0.951338
H102	H	1.512654	-0.744368	0.944655
H103	H	1.366159	-0.689718	0.993155
H104	H	1.457699	-0.644277	0.999871
H105	H	1.464478	-0.689698	1.091299
C106	C	1.574401	-1.059586	0.738319
C107	C	1.507147	-1.023991	0.805483
C108	C	1.430313	-1.051192	0.882344
H109	H	1.522040	-1.080930	0.692509
H110	H	1.620273	-1.080835	0.790728
H111	H	1.461278	-1.002751	0.753080
H112	H	1.559476	-1.002646	0.851318
H113	H	1.476185	-1.072441	0.934753
H114	H	1.377960	-1.072535	0.836523
H115	H	1.384680	-1.027045	0.927931
H116	H	1.595217	-0.953215	0.717360
