data_functionalizedCrystal
_audit_creation_method	'MofGen! by Chris Wilmer'
_symmetry_space_group_name_H-M	'P1'
_symmetry_Int_Tables_number	1
_symmetry_cell_setting	triclinic
loop_
_symmetry_equiv_pos_as_xyz
  x,y,z
_cell_length_a	10.654554
_cell_length_b	17.038272
_cell_length_c	9.730223
_cell_angle_alpha	90.003023
_cell_angle_beta	90.004575
_cell_angle_gamma	87.799150
loop_
_atom_site_label
_atom_site_type_symbol
_atom_site_fract_x
_atom_site_fract_y
_atom_site_fract_z
O1	O	1.678042	0.109893	0.114297
O2	O	1.313536	0.120357	0.114298
O3	O	1.493623	0.001298	0.114287
O4	O	1.497956	0.228952	0.114308
O5	O	1.493606	0.001298	-0.114293
O6	O	1.313519	0.120358	-0.114282
O7	O	1.678025	0.109893	-0.114283
Zn8	Zn	1.495769	0.115126	-0.150574
Zn9	Zn	1.495792	0.115125	0.150589
O10	O	1.497938	0.228953	-0.114272
C11	C	1.266658	0.119589	0.000009
C12	C	1.127002	0.117288	0.000009
C13	C	0.922802	0.185229	0.000018
C14	C	1.054024	0.187391	0.000019
C15	C	1.068751	0.045016	0.000013
C16	C	0.937531	0.042855	0.000022
C17	C	0.914301	0.267428	0.000016
C18	C	1.045523	0.269591	0.000016
C19	C	1.489674	-0.027852	-0.000003
C20	C	1.477916	-0.114711	-0.000003
C21	C	1.585860	-0.164221	-0.000005
C22	C	1.574806	-0.245834	0.000008
C23	C	1.455806	-0.277934	0.000014
C24	C	1.347854	-0.228418	0.000020
C25	C	1.358910	-0.146807	0.000016
C26	C	1.416748	-0.523911	0.000033
C27	C	1.405701	-0.605528	0.000032
C28	C	1.632654	-0.622938	0.000023
C29	C	1.643699	-0.541325	0.000011
C30	C	1.535747	-0.491816	0.000025
C31	C	1.444504	-0.361355	0.000023
C32	C	1.547050	-0.408397	0.000026
C33	C	1.724903	0.110662	0.000009
C34	C	1.864560	0.112963	0.000018
C35	C	1.501888	0.258103	0.000021
C36	C	1.513645	0.344962	0.000030
N37	N	1.495763	0.115126	-0.356111
C38	C	1.416007	0.167822	-0.428067
C39	C	1.416032	0.167821	-0.571950
C40	C	1.575572	0.062420	-0.571908
C41	C	1.575552	0.062426	-0.428028
C42	C	1.323894	0.228672	-0.428092
C43	C	1.323919	0.228671	-0.571975
N44	N	1.495808	0.115119	0.356126
H45	H	0.875439	0.298404	0.095676
H46	H	1.740601	-0.515195	0.000007
C47	C	0.873462	-0.036635	0.000050
H48	H	0.784861	-0.027884	0.000072
H49	H	0.897978	-0.065542	-0.079653
H50	H	0.898008	-0.065517	0.079779
C51	C	1.360408	0.309898	-0.375320
H52	H	1.360382	0.309899	-0.277682
H53	H	1.441866	0.321075	-0.407834
H54	H	1.301481	0.348830	-0.407870
H55	H	1.128180	-0.012063	0.000018
H56	H	1.640507	0.019523	-0.369442
H57	H	1.271010	-0.106496	0.000018
H58	H	0.870949	0.292263	-0.098673
C59	C	1.751393	-0.677396	0.000023
H60	H	1.823847	-0.646589	0.000012
H61	H	1.751805	-0.709591	0.079735
H62	H	1.751795	-0.709596	-0.079697
C63	C	1.198317	0.202943	-0.367824
H64	H	1.142406	0.191485	-0.440549
H65	H	1.212594	0.157393	-0.312867
H66	H	1.162467	0.244088	-0.312889
C67	C	1.096964	0.304961	0.133335
H68	H	1.029069	0.319221	0.192703
H69	H	1.151070	0.267256	0.177632
H70	H	1.142475	0.350240	0.111913
H71	H	1.347614	-0.387501	0.000024
H72	H	1.359718	0.285489	-0.616591
H73	H	1.643939	-0.382257	0.000052
H74	H	1.226167	0.215267	-0.611050
C75	C	1.663324	0.004450	-0.651021
H76	H	1.651910	0.011990	-0.747017
H77	H	1.748088	0.013431	-0.627418
H78	H	1.644092	-0.047843	-0.627447
H79	H	1.682763	-0.138092	-0.000017
C80	C	1.089214	0.313049	-0.129166
H81	H	1.018137	0.329443	-0.182306
H82	H	1.134128	0.357683	-0.102538
H83	H	1.142317	0.278833	-0.182354
C84	C	1.298005	-0.469461	0.000023
H85	H	1.225554	-0.500270	0.000008
H86	H	1.297594	-0.437257	0.079730
H87	H	1.297599	-0.437269	-0.079702
H88	H	1.662706	-0.286142	0.000004
H89	H	1.308792	-0.631661	0.000014
C90	C	1.216957	-0.263726	0.000022
H91	H	1.225831	-0.319422	0.000008
H92	H	1.172147	-0.246773	0.079731
H93	H	1.172144	-0.246775	-0.079701
