data_functionalizedCrystal
_audit_creation_method	'MofGen! by Chris Wilmer'
_symmetry_space_group_name_H-M	'P1'
_symmetry_Int_Tables_number	1
_symmetry_cell_setting	triclinic
loop_
_symmetry_equiv_pos_as_xyz
  x,y,z
_cell_length_a	11.169417
_cell_length_b	19.077432
_cell_length_c	11.169409
_cell_angle_alpha	92.335551
_cell_angle_beta	90.019824
_cell_angle_gamma	87.727994
loop_
_atom_site_label
_atom_site_type_symbol
_atom_site_fract_x
_atom_site_fract_y
_atom_site_fract_z
Zn1	Zn	1.854017	-0.280125	0.659321
Zn2	Zn	1.861914	-0.397845	0.450560
Zn3	Zn	1.653306	-0.280168	0.458652
Zn4	Zn	1.661314	-0.397787	0.651209
O5	O	1.757638	-0.338981	0.554936
O6	O	2.023015	-0.295747	0.631637
O7	O	1.834195	-0.382276	0.283681
O8	O	1.673274	-0.181672	0.492053
O9	O	2.028816	-0.382235	0.478261
O10	O	1.820736	-0.181641	0.639483
O11	O	1.680931	-0.295820	0.289626
O12	O	1.486418	-0.295764	0.484187
O13	O	1.686923	-0.382137	0.820238
O14	O	1.492301	-0.382179	0.625658
O15	O	1.828501	-0.295691	0.826198
O16	O	1.841960	-0.496327	0.470395
O17	O	1.694580	-0.496285	0.617811
C18	C	1.445812	-0.338971	0.554921
C19	C	1.312413	-0.338983	0.554942
C20	C	1.770029	-0.521843	0.542371
C21	C	1.775439	-0.600073	0.537036
C22	C	1.701196	-0.636828	0.611217
C23	C	1.706285	-0.710333	0.606200
C24	C	1.785624	-0.747080	0.527005
C25	C	1.859871	-0.710319	0.452816
C26	C	1.854775	-0.636816	0.457828
C27	C	1.809094	-0.966911	0.503785
C28	C	1.814187	-1.040420	0.498781
C29	C	1.660599	-1.040429	0.652164
C30	C	1.655515	-0.966924	0.657174
C31	C	1.729757	-0.930169	0.582980
N32	N	1.790831	-0.822214	0.521877
N33	N	1.724544	-0.855037	0.588103
C34	C	2.070681	-0.338992	0.554951
C35	C	2.204081	-0.338997	0.554958
C36	C	1.757724	-0.338903	0.867984
C37	C	1.757761	-0.338870	1.001386
C38	C	1.745231	-0.155405	0.567576
C39	C	1.739944	-0.077176	0.572962
C40	C	1.757617	-0.339008	0.243109
C41	C	1.757799	-0.338843	0.109721
H42	H	1.636595	-0.606914	0.675711
Cl43	Cl	1.959613	-0.756516	0.353256
H44	H	1.645817	-0.740257	0.666595
H45	H	1.915230	-0.606890	0.397420
H46	H	1.590911	-0.937006	0.721661
H47	H	1.600154	-1.070362	0.712567
Cl48	Cl	1.913936	-1.086616	0.399214
H49	H	1.869547	-0.936991	0.443376
