data_functionalizedCrystal
_audit_creation_method	'MofGen! by Chris Wilmer'
_symmetry_space_group_name_H-M	'P1'
_symmetry_Int_Tables_number	1
_symmetry_cell_setting	triclinic
loop_
_symmetry_equiv_pos_as_xyz
  x,y,z
_cell_length_a	16.625548
_cell_length_b	18.101395
_cell_length_c	16.625539
_cell_angle_alpha	89.972352
_cell_angle_beta	89.979432
_cell_angle_gamma	90.032172
loop_
_atom_site_label
_atom_site_type_symbol
_atom_site_fract_x
_atom_site_fract_y
_atom_site_fract_z
Zn1	Zn	1.232632	-0.294807	-0.455913
Zn2	Zn	1.232515	-0.418656	-0.321082
Zn3	Zn	1.097794	-0.294835	-0.321094
Zn4	Zn	1.097744	-0.418614	-0.455872
O5	O	1.165171	-0.356728	-0.388490
O6	O	1.345449	-0.311242	-0.438040
O7	O	1.214616	-0.402261	-0.208251
O8	O	1.115750	-0.191199	-0.339000
O9	O	1.345363	-0.402233	-0.338980
O10	O	1.214815	-0.191178	-0.438051
O11	O	1.115637	-0.311290	-0.208260
O12	O	0.984955	-0.311249	-0.338960
O13	O	1.115665	-0.402161	-0.568710
O14	O	0.984918	-0.402188	-0.437981
O15	O	1.214767	-0.311201	-0.568740
O16	O	1.214567	-0.522284	-0.338940
O17	O	1.115552	-0.522252	-0.437969
C18	C	0.955680	-0.356718	-0.388467
C19	C	0.866059	-0.356731	-0.388477
C20	C	0.537884	-0.356736	-0.388511
C21	C	0.629192	-0.356732	-0.388499
C22	C	0.701969	-0.356734	-0.388494
C23	C	0.793283	-0.356729	-0.388483
C24	C	1.165063	-0.549139	-0.388466
C25	C	1.165091	-0.631453	-0.388483
C26	C	1.165268	-0.930544	-0.388527
C27	C	1.103114	-0.899230	-0.450988
C28	C	1.102819	-0.813612	-0.450793
C29	C	1.165180	-0.782161	-0.388506
C30	C	1.142173	-0.813313	-0.303528
C31	C	1.141772	-0.898959	-0.303901
C32	C	1.250565	-0.898886	-0.410295
C33	C	1.250063	-0.813235	-0.412159
C34	C	1.165132	-0.698302	-0.388489
C35	C	1.165314	-1.014403	-0.388538
C36	C	1.375480	-0.356739	-0.388513
C37	C	1.465101	-0.356744	-0.388523
C38	C	1.165224	-0.356673	-0.598799
C39	C	1.165246	-0.356649	-0.688420
C40	C	1.165302	-0.163566	-0.388531
C41	C	1.165357	-0.081252	-0.388549
C42	C	1.165283	-0.356567	-1.016596
C43	C	1.165271	-0.356592	-0.925287
C44	C	1.165265	-0.356609	-0.852511
C45	C	1.165252	-0.356633	-0.761197
C46	C	1.165165	-0.356730	-0.178999
C47	C	1.165299	-0.356545	-0.089378
H48	H	1.117214	-0.792547	-0.513803
H49	H	1.186018	-0.792943	-0.255720
H50	H	1.298821	-0.791822	-0.369981
C51	C	1.199528	-0.926734	-0.239822
C52	C	1.199631	-1.004083	-0.239696
C53	C	1.252841	-1.029693	-0.180694
H54	H	1.182899	-0.909226	-0.188599
H55	H	1.252190	-0.909154	-0.251116
H56	H	1.146980	-1.021656	-0.228396
H57	H	1.216268	-1.021611	-0.290904
H58	H	1.305504	-1.012113	-0.191989
H59	H	1.236207	-1.012179	-0.129476
H60	H	1.252924	-1.082176	-0.180606
C61	C	1.312312	-0.926034	-0.349717
C62	C	1.314972	-1.003329	-0.351240
C63	C	1.371845	-1.028369	-0.295454
H64	H	1.297655	-0.909859	-0.297384
H65	H	1.363752	-0.906769	-0.363186
H66	H	1.263543	-1.022587	-0.337765
H67	H	1.329639	-1.019524	-0.403559
H68	H	1.423285	-1.009104	-0.308923
H69	H	1.357182	-1.012189	-0.243125
H70	H	1.373663	-1.080815	-0.296485
C71	C	1.121939	-0.926660	-0.535306
C72	C	1.056224	-0.966705	-0.564859
C73	C	1.073532	-0.991981	-0.642537
H74	H	1.168013	-0.957636	-0.533748
H75	H	1.132171	-0.885660	-0.569516
H76	H	1.046003	-1.007700	-0.530658
H77	H	1.010144	-0.935745	-0.566437
H78	H	1.083764	-0.950981	-0.676746
H79	H	1.119607	-1.022954	-0.640970
H80	H	1.028945	-1.019149	-0.662601
H81	H	1.079421	-0.919003	-0.285461
H82	H	1.080482	-0.791930	-0.284757
H83	H	1.271540	-0.920433	-0.471205
H84	H	1.039595	-0.793190	-0.436373
C85	C	1.019257	-0.927862	-0.432031
C86	C	0.968077	-0.868141	-0.416512
C87	C	0.890820	-0.894489	-0.399056
H88	H	1.021404	-0.959020	-0.386093
H89	H	0.999412	-0.955079	-0.476666
H90	H	0.987916	-0.840935	-0.371881
H91	H	0.965906	-0.836977	-0.462439
H92	H	0.870976	-0.921706	-0.443691
H93	H	0.892976	-0.925647	-0.353120
H94	H	0.856084	-0.853972	-0.388532
H95	H	1.267413	-0.792871	-0.474698
