data_functionalizedCrystal
_audit_creation_method	'MofGen! by Chris Wilmer'
_symmetry_space_group_name_H-M	'P1'
_symmetry_Int_Tables_number	1
_symmetry_cell_setting	triclinic
loop_
_symmetry_equiv_pos_as_xyz
  x,y,z
_cell_length_a	18.050591
_cell_length_b	18.050590
_cell_length_c	18.050582
_cell_angle_alpha	90.023337
_cell_angle_beta	90.019760
_cell_angle_gamma	90.015000
loop_
_atom_site_label
_atom_site_type_symbol
_atom_site_fract_x
_atom_site_fract_y
_atom_site_fract_z
Zn1	Zn	1.135342	-0.295777	0.420004
Zn2	Zn	1.635342	0.204223	0.920004
Zn3	Zn	1.135274	-0.419960	0.295813
Zn4	Zn	1.635274	0.080040	0.795813
Zn5	Zn	1.011162	-0.295781	0.295818
Zn6	Zn	1.511162	0.204219	0.795818
Zn7	Zn	1.011131	-0.419922	0.419951
Zn8	Zn	1.511131	0.080078	0.919951
O9	O	1.073227	-0.357860	0.357897
O10	O	1.573227	0.142140	0.857897
O11	O	1.239258	-0.312265	0.403550
O12	O	1.739258	0.187735	0.903550
O13	O	1.118795	-0.403505	0.191889
O14	O	1.618795	0.096495	0.691889
O15	O	1.027676	-0.191856	0.312316
O16	O	1.527676	0.308144	0.812316
O17	O	1.239208	-0.403501	0.312307
O18	O	1.739208	0.096499	0.812307
O19	O	1.118911	-0.191853	0.403556
O20	O	1.618911	0.308147	0.903556
O21	O	1.027610	-0.312271	0.191893
O22	O	1.527610	0.187729	0.691893
O23	O	0.907233	-0.312234	0.312264
O24	O	1.407233	0.187766	0.812264
O25	O	1.027623	-0.403436	0.523883
O26	O	1.527623	0.096564	1.023883
O27	O	0.907210	-0.403440	0.403464
O28	O	1.407210	0.096560	0.903464
O29	O	1.118881	-0.312227	0.523922
O30	O	1.618881	0.187773	1.023922
O31	O	1.118765	-0.523880	0.312255
O32	O	1.618765	-0.023880	0.812255
O33	O	1.027557	-0.523852	0.403459
O34	O	1.527557	-0.023852	0.903459
C35	C	0.880275	-0.357834	0.357859
C36	C	1.380275	0.142166	0.857859
C37	C	0.797729	-0.357841	0.357861
C38	C	1.297729	0.142159	0.857861
C39	C	1.073170	-0.550812	0.357867
C40	C	1.573170	-0.050812	0.857867
C41	C	1.073214	-0.633358	0.357879
C42	C	1.573214	-0.133358	0.857879
C43	C	0.548895	-0.308191	0.308384
C44	C	1.048895	0.191809	0.808384
C45	C	0.598323	-0.290110	0.376160
C46	C	1.098323	0.209890	0.876160
C47	C	0.500609	-0.357879	0.357922
C48	C	1.000609	0.142121	0.857922
C49	C	0.598262	-0.375906	0.290119
C50	C	1.098262	0.124094	0.790119
C51	C	0.646594	-0.357858	0.357888
C52	C	1.146594	0.142142	0.857888
C53	C	0.548951	-0.339762	0.425734
C54	C	1.048951	0.160238	0.925734
C55	C	0.548884	-0.425589	0.339648
C56	C	1.048884	0.074411	0.839648
C57	C	0.598291	-0.407534	0.407471
C58	C	1.098291	0.092466	0.907471
C59	C	0.416511	-0.357888	0.357940
C60	C	0.916511	0.142112	0.857940
C61	C	0.730690	-0.357848	0.357878
C62	C	1.230690	0.142152	0.857878
C63	C	1.122916	-0.832797	0.308352
C64	C	1.622916	-0.332797	0.808352
C65	C	1.141051	-0.882137	0.376133
C66	C	1.641051	-0.382137	0.876133
C67	C	1.073256	-0.784488	0.357909
C68	C	1.573256	-0.284488	0.857909
C69	C	1.055196	-0.882230	0.290158
C70	C	1.555196	-0.382230	0.790158
C71	C	1.073298	-0.930473	0.357931
C72	C	1.573298	-0.430473	0.857931
C73	C	1.091426	-0.832741	0.425726
C74	C	1.591426	-0.332741	0.925726
C75	C	1.005539	-0.832830	0.339704
C76	C	1.505539	-0.332830	0.839704
C77	C	1.023649	-0.882147	0.407533
C78	C	1.523649	-0.382147	0.907533
C79	C	1.073233	-0.700390	0.357895
C80	C	1.573233	-0.200390	0.857895
C81	C	1.073320	-1.014570	0.357953
C82	C	1.573320	-0.514570	0.857953
C83	C	1.266933	-0.357887	0.357934
C84	C	1.766933	0.142113	0.857934
C85	C	1.349479	-0.357898	0.357950
C86	C	1.849479	0.142102	0.857950
C87	C	1.073256	-0.357827	0.551602
C88	C	1.573256	0.142173	1.051602
C89	C	1.073269	-0.357813	0.634148
C90	C	1.573269	0.142187	1.134148
C91	C	1.073305	-0.164154	0.357943
C92	C	1.573305	0.335846	0.857943
C93	C	1.073338	-0.081609	0.357962
C94	C	1.573338	0.418391	0.857962
C95	C	1.073241	-0.357839	0.164944
C96	C	1.573241	0.142161	0.664944
C97	C	1.073372	-0.357644	0.082399
C98	C	1.573372	0.142356	0.582399
C99	C	1.023681	-0.407345	0.833577
C100	C	1.523681	0.092655	1.333577
C101	C	1.091439	-0.425502	0.882974
C102	C	1.591439	0.074498	1.382974
C103	C	1.073305	-0.357756	0.785278
C104	C	1.573305	0.142244	1.285278
C105	C	1.005584	-0.339578	0.882963
C106	C	1.505584	0.160422	1.382963
C107	C	1.073335	-0.357703	0.931264
C108	C	1.573335	0.142297	1.431264
C109	C	1.141099	-0.375950	0.833588
C110	C	1.641099	0.124050	1.333588
C111	C	1.055199	-0.289994	0.833573
C112	C	1.555199	0.210006	1.333573
C113	C	1.123004	-0.308126	0.882948
C114	C	1.623004	0.191874	1.382948
C115	C	1.073287	-0.357789	0.701180
C116	C	1.573287	0.142211	1.201180
C117	C	1.073360	-0.357670	1.015360
C118	C	1.573360	0.142330	1.515360
H119	H	0.620026	-0.232837	0.391616
H120	H	1.120026	0.267163	0.891616
N121	N	1.034936	-0.911011	0.214247
N122	N	1.534936	-0.411011	0.714247
H123	H	0.984137	-0.892300	0.200104
H124	H	1.484137	-0.392300	0.700104
H125	H	1.034671	-0.966957	0.214977
H126	H	1.534671	-0.466957	0.714977
H127	H	1.039846	-0.232728	0.811857
H128	H	1.539846	0.267272	1.311857
N129	N	0.968033	-0.910661	0.463113
N130	N	1.468033	-0.410661	0.963113
H131	H	0.981782	-0.892555	0.514253
H132	H	1.481782	-0.392555	1.014253
H133	H	0.968057	-0.966609	0.462459
H134	H	1.468057	-0.466609	0.962459
N135	N	1.216924	-0.910840	0.396550
N136	N	1.716924	-0.410840	0.896550
H137	H	1.230970	-0.892064	0.447367
H138	H	1.730970	-0.392064	0.947367
H139	H	1.254336	-0.892889	0.359033
H140	H	1.754336	-0.392889	0.859033
H141	H	0.619924	-0.391162	0.232794
H142	H	1.119924	0.108838	0.732794
N143	N	0.968144	-0.462958	0.804855
N144	N	1.468144	0.037042	1.304855
H145	H	0.981934	-0.514113	0.822825
H146	H	1.481934	-0.014113	1.322825
H147	H	0.968217	-0.462186	0.748909
H148	H	1.468217	0.037814	1.248909
N149	N	1.111776	-0.804070	0.501654
N150	N	1.611776	-0.304070	1.001654
H151	H	1.162773	-0.822443	0.515523
H152	H	1.662773	-0.322443	1.015523
H153	H	1.074489	-0.822447	0.539089
H154	H	1.574489	-0.322447	1.039089
N155	N	0.520089	-0.501424	0.319154
N156	N	1.020089	-0.001424	0.819154
H157	H	0.464142	-0.500979	0.319798
H158	H	0.964142	-0.000979	0.819798
H159	H	0.538891	-0.539057	0.356030
H160	H	1.038891	-0.039057	0.856030
N161	N	0.626844	-0.463176	0.463008
N162	N	1.126844	0.036824	0.963008
H163	H	0.682794	-0.463171	0.462391
H164	H	1.182794	0.036829	0.962391
H165	H	0.608010	-0.514152	0.449647
H166	H	1.108010	-0.014152	0.949647
N167	N	1.178561	-0.804085	0.252901
N168	N	1.678561	-0.304085	0.752901
H169	H	1.177817	-0.748137	0.252952
H170	H	1.677817	-0.248137	0.752952
H171	H	1.165399	-0.822911	0.201869
H172	H	1.665399	-0.322911	0.701869
H173	H	1.198399	-0.391368	0.811990
H174	H	1.698399	0.108632	1.311990
H175	H	1.106771	-0.482785	0.904674
H176	H	1.606771	0.017215	1.404674
N177	N	0.929683	-0.804106	0.319272
N178	N	1.429683	-0.304106	0.819272
H179	H	0.895364	-0.847225	0.309516
H180	H	1.395364	-0.347225	0.809516
H181	H	0.933509	-0.772531	0.273254
H182	H	1.433509	-0.272531	0.773254
N183	N	0.520163	-0.252510	0.252976
N184	N	1.020163	0.247490	0.752976
H185	H	0.538150	-0.201368	0.266868
H186	H	1.038150	0.298632	0.766868
H187	H	0.464217	-0.253307	0.253067
H188	H	0.964217	0.246693	0.753067
N189	N	0.520387	-0.319467	0.501693
N190	N	1.020387	0.180533	1.001693
H191	H	0.464435	-0.319579	0.501232
H192	H	0.964435	0.180421	1.001232
H193	H	0.538862	-0.268492	0.515551
H194	H	1.038862	0.231508	1.015551
N195	N	1.178669	-0.252555	0.911501
N196	N	1.678669	0.247445	1.411501
H197	H	1.229790	-0.266364	0.893447
H198	H	1.729790	0.233636	1.393447
H199	H	1.178000	-0.252568	0.967448
H200	H	1.678000	0.247432	1.467448
H201	H	0.948301	-0.324225	0.904653
H202	H	1.448301	0.175775	1.404653
