data_functionalizedCrystal
_audit_creation_method	'MofGen! by Chris Wilmer'
_symmetry_space_group_name_H-M	'P1'
_symmetry_Int_Tables_number	1
_symmetry_cell_setting	triclinic
loop_
_symmetry_equiv_pos_as_xyz
  x,y,z
_cell_length_a	10.654550
_cell_length_b	10.654551
_cell_length_c	14.586319
_cell_angle_alpha	89.999036
_cell_angle_beta	89.992968
_cell_angle_gamma	84.485132
loop_
_atom_site_label
_atom_site_type_symbol
_atom_site_fract_x
_atom_site_fract_y
_atom_site_fract_z
O1	O	1.667840	0.176397	-0.076310
O2	O	1.302362	0.193203	-0.076294
O3	O	1.493503	0.002061	-0.076303
O4	O	1.476699	0.367539	-0.076301
O5	O	1.493490	0.002058	0.076178
O6	O	1.302348	0.193200	0.076187
O7	O	1.667827	0.176394	0.076171
Cu8	Cu	1.485086	0.184797	0.090102
Cu9	Cu	1.485102	0.184800	-0.090225
O10	O	1.476685	0.367536	0.076180
C11	C	1.255557	0.191968	-0.000052
C12	C	1.116114	0.188276	-0.000046
C13	C	1.036629	0.300817	-0.000059
C14	C	0.905608	0.297341	-0.000075
C15	C	0.933570	0.068771	-0.000069
C16	C	1.064589	0.072249	-0.000047
C17	C	1.088154	0.416844	-0.000059
C18	C	1.008667	0.529395	-0.000073
C19	C	0.877647	0.525918	-0.000089
C20	C	0.826112	0.409891	-0.000091
C21	C	1.492263	-0.044739	-0.000064
C22	C	1.488570	-0.184182	-0.000070
C23	C	1.486845	-0.249692	-0.083186
C24	C	1.483365	-0.380712	-0.083182
C25	C	1.483340	-0.380701	0.083061
C26	C	1.486811	-0.249682	0.083056
C27	C	1.488604	-0.184192	-0.166312
C28	C	1.486881	-0.249702	-0.249435
C29	C	1.483400	-0.380723	-0.249430
C30	C	1.481644	-0.446232	-0.166304
C31	C	1.714632	0.177629	-0.000073
C32	C	1.854075	0.181321	-0.000085
C33	C	1.477926	0.414336	-0.000061
C34	C	1.481619	0.553779	-0.000061
N35	N	1.485084	0.184794	0.216933
N36	N	1.485114	0.184794	-0.217056
C37	C	1.569750	0.100185	0.451936
C38	C	1.569754	0.100182	0.547917
C39	C	1.400439	0.269407	0.547934
C40	C	1.400430	0.269403	0.451955
C41	C	1.485093	0.184793	0.403958
C42	C	1.485105	0.184794	0.595919
C43	C	1.485109	0.184792	0.699986
C44	C	1.485089	0.184794	0.299884
H45	H	1.050636	0.623860	-0.000063
H46	H	1.488189	-0.196339	0.150736
H47	H	1.194836	0.419687	-0.000050
H48	H	1.638686	0.031289	0.412859
H49	H	0.812931	0.617562	-0.000091
N50	N	1.661080	0.008943	0.599666
H51	H	1.714714	-0.044646	0.554693
H52	H	1.717010	0.057563	0.639473
H53	H	1.488299	-0.196354	-0.317113
H54	H	1.481910	-0.434050	0.150739
H55	H	0.719425	0.407069	-0.000089
N56	N	0.877993	-0.056365	-0.000068
H57	H	0.782932	-0.041490	-0.000084
H58	H	0.907025	-0.105667	-0.056588
H59	H	1.129308	-0.019392	-0.000039
N60	N	1.309136	0.360659	0.599710
H61	H	1.357615	0.416714	0.639521
H62	H	1.255520	0.414172	0.554694
H63	H	1.491441	-0.077509	-0.166325
H64	H	1.481984	-0.434056	-0.317112
H65	H	1.331486	0.338301	0.412888
N66	N	1.477872	-0.587545	-0.166296
H67	H	1.477040	-0.619108	-0.231563
H68	H	1.554752	-0.628515	-0.133621
