data_functionalizedCrystal
_audit_creation_method	'MofGen! by Chris Wilmer'
_symmetry_space_group_name_H-M	'P1'
_symmetry_Int_Tables_number	1
_symmetry_cell_setting	triclinic
loop_
_symmetry_equiv_pos_as_xyz
  x,y,z
_cell_length_a	11.295483
_cell_length_b	12.837943
_cell_length_c	12.784890
_cell_angle_alpha	96.032251
_cell_angle_beta	86.339372
_cell_angle_gamma	85.455301
loop_
_atom_site_label
_atom_site_type_symbol
_atom_site_fract_x
_atom_site_fract_y
_atom_site_fract_z
O1	O	-0.098995	-1.343197	0.280194
O2	O	-0.099003	-1.042610	0.266669
O3	O	-0.098996	-1.214901	0.120931
O4	O	-0.099002	-1.170906	0.425932
O5	O	0.099055	-1.230040	0.108164
O6	O	0.099049	-1.057750	0.253902
O7	O	0.099056	-1.358336	0.267427
Cu8	Cu	0.117136	-1.209425	0.259499
Cu9	Cu	-0.117083	-1.191521	0.274597
O10	O	0.099049	-1.186046	0.413164
C11	C	0.000022	-1.011971	0.255716
C12	C	0.000019	-0.898122	0.242088
N13	N	-0.281820	-1.178929	0.285209
C14	C	0.000027	-1.225332	0.075238
C15	C	0.000022	-1.233845	-0.041893
C16	C	-0.531104	-1.312724	0.172492
C17	C	-0.655768	-1.303202	0.180504
C18	C	-0.655814	-1.150368	0.309249
C19	C	-0.531150	-1.159890	0.301238
C20	C	-0.468799	-1.241070	0.232856
C21	C	-0.344133	-1.250587	0.224839
C22	C	-0.344181	-1.097758	0.353589
C23	C	-0.468845	-1.088236	0.361601
N24	N	0.281873	-1.222026	0.248879
C25	C	0.000029	-1.388975	0.278380
C26	C	0.000024	-1.502823	0.292008
C27	C	0.000033	-0.642396	0.405919
C28	C	0.000031	-0.535424	0.393120
C29	C	0.000022	-0.577204	0.203690
C30	C	0.000024	-0.684176	0.216489
C31	C	0.000028	-0.716768	0.317607
C32	C	0.000021	-0.823741	0.330407
C33	C	0.000020	-0.865520	0.140977
C34	C	0.000018	-0.758548	0.128178
C35	C	0.000023	-1.175614	0.458858
C36	C	0.000021	-1.167100	0.575990
C37	C	0.000022	-1.060400	0.744159
C38	C	0.000021	-1.068392	0.634104
C39	C	0.000026	-1.257823	0.627938
C40	C	0.000028	-1.249830	0.737994
C41	C	0.000024	-1.151115	0.796100
C42	C	0.000017	-1.143123	0.906158
C43	C	0.000031	-1.332553	0.899990
C44	C	0.000029	-1.340545	0.789935
H45	H	-0.293368	-1.316685	0.169156
H46	H	-0.480337	-1.378818	0.116805
C47	C	0.000007	-0.951820	0.808086
C48	C	-0.102846	-0.866927	0.802131
C49	C	-0.102863	-0.758345	0.866058
C50	C	-0.000026	-0.734656	0.935939
C51	C	0.102835	-0.819552	0.941897
C52	C	0.102852	-0.928133	0.877971
H53	H	-0.178979	-0.884460	0.750398
H54	H	-0.179008	-0.695500	0.861647
H55	H	-0.000039	-0.654278	0.983262
H56	H	0.178968	-0.802018	0.993630
H57	H	0.178997	-0.990978	0.882381
H58	H	0.000037	-1.420916	0.742609
H59	H	-0.000073	-1.406412	0.942299
H60	H	-0.706596	-1.084280	0.364932
H61	H	-0.706493	-1.361552	0.131351
H62	H	0.000011	-1.062744	0.953467
H63	H	-0.519625	-1.022143	0.417280
C64	C	-0.275644	-1.018931	0.419995
C65	C	-0.138519	-1.029396	0.411183
C66	C	-0.069982	-0.950567	0.477582
C67	C	-0.138571	-0.861274	0.552794
C68	C	-0.275704	-0.850805	0.561609
C69	C	-0.344241	-0.929634	0.495209
H70	H	-0.087738	-1.095499	0.355505
H71	H	0.031533	-0.958318	0.471057
H72	H	-0.087836	-0.802921	0.601946
H73	H	-0.326484	-0.784702	0.617287
H74	H	-0.445756	-0.921883	0.501735
H75	H	0.000034	-0.668932	0.488253
H76	H	0.000039	-0.474873	0.465032
H77	H	0.000026	-0.994523	0.591817
H78	H	0.000044	-1.338192	0.580608
H79	H	0.000026	-0.850275	0.412742
H80	H	0.000029	-0.731997	0.045849
H81	H	0.000117	-0.550656	0.121358
H82	H	0.000008	-0.926085	0.069068
