data_functionalizedCrystal
_audit_creation_method	'MofGen! by Chris Wilmer'
_symmetry_space_group_name_H-M	'P1'
_symmetry_Int_Tables_number	1
_symmetry_cell_setting	triclinic
loop_
_symmetry_equiv_pos_as_xyz
  x,y,z
_cell_length_a	10.654559
_cell_length_b	15.712078
_cell_length_c	9.130313
_cell_angle_alpha	89.999543
_cell_angle_beta	89.999532
_cell_angle_gamma	102.034916
loop_
_atom_site_label
_atom_site_type_symbol
_atom_site_fract_x
_atom_site_fract_y
_atom_site_fract_z
O1	O	1.722223	0.121775	-0.121805
O2	O	1.361923	0.133365	-0.121806
O3	O	1.494141	0.001454	-0.121798
O4	O	1.590005	0.253686	-0.121813
O5	O	1.494140	0.001457	0.121801
O6	O	1.361923	0.133369	0.121793
O7	O	1.722222	0.121778	0.121794
Cu8	Cu	1.542072	0.127574	0.144036
Cu9	Cu	1.542073	0.127570	-0.144048
O10	O	1.590005	0.253690	0.121786
C11	C	1.314744	0.132514	-0.000007
C12	C	1.174162	0.129963	-0.000007
C13	C	1.086858	0.049898	0.000001
C14	C	0.954767	0.047506	-0.000009
C15	C	0.997299	0.205252	-0.000031
C16	C	1.129387	0.207643	-0.000031
C17	C	1.062301	-0.041176	0.000020
C18	C	0.930211	-0.043567	0.000009
C19	C	1.478480	-0.030842	-0.000000
C20	C	1.431800	-0.127078	-0.000004
C21	C	1.828123	-0.491789	-0.000017
C22	C	1.784231	-0.582215	-0.000017
C23	C	1.564300	-0.562923	-0.000018
C24	C	1.608174	-0.472493	-0.000012
C25	C	1.740086	-0.436934	-0.000013
C26	C	1.520137	-0.417638	-0.000007
C27	C	1.564008	-0.327217	-0.000008
C28	C	1.695915	-0.291651	-0.000013
C29	C	1.783957	-0.346513	-0.000014
C30	C	1.388225	-0.453199	-0.000016
C31	C	1.300189	-0.398344	-0.000012
C32	C	1.344059	-0.307921	-0.000002
C33	C	1.475966	-0.272354	-0.000008
C34	C	1.256017	-0.253058	-0.000002
C35	C	1.299888	-0.162637	-0.000003
C36	C	1.519837	-0.181933	-0.000009
C37	C	1.769401	0.122629	-0.000009
C38	C	1.909984	0.125180	-0.000018
C39	C	1.605666	0.285985	-0.000015
C40	C	1.652346	0.382221	-0.000021
N41	N	1.542081	0.127576	0.346658
N42	N	1.542072	0.127560	-0.346671
C43	C	1.600658	0.069186	0.423314
C44	C	1.600650	0.069176	0.576651
C45	C	1.483487	0.185953	0.576663
C46	C	1.483488	0.185959	0.423329
C47	C	1.668305	0.001768	0.423308
C48	C	1.668297	0.001757	0.576645
H49	H	0.881625	-0.072576	-0.105170
C50	C	1.419042	0.250182	0.339002
C51	C	1.354678	0.314445	0.423333
C52	C	1.290229	0.378669	0.339003
C53	C	1.290143	0.378630	0.170341
C54	C	1.354509	0.314365	0.086001
C55	C	1.418959	0.250141	0.170331
H56	H	1.354740	0.314475	0.548195
H57	H	1.242581	0.426242	0.401438
H58	H	1.242434	0.426173	0.107915
H59	H	1.354448	0.314334	-0.038861
H60	H	1.466607	0.202567	0.107895
C61	C	1.107368	-0.078352	0.142102
C62	C	1.009896	-0.112670	0.263851
C63	C	1.054964	-0.149847	0.405933
C64	C	1.197504	-0.152707	0.426265
C65	C	1.294985	-0.118388	0.304512
C66	C	1.249917	-0.081211	0.162431
H67	H	0.904371	-0.110554	0.248804
H68	H	0.982801	-0.175252	0.496062
H69	H	1.230866	-0.180228	0.531442
H70	H	1.400509	-0.120504	0.319560
H71	H	1.322079	-0.055806	0.072301
H72	H	1.855932	-0.626877	-0.000030
H73	H	0.884934	-0.079178	0.101958
H74	H	1.627253	-0.152979	0.000006
C75	C	1.599129	-0.088228	0.367072
C76	C	1.671344	-0.142336	0.270103
C77	C	1.602169	-0.232329	0.213867
C78	C	1.460779	-0.268214	0.254599
C79	C	1.388556	-0.214105	0.351573
C80	C	1.457731	-0.124112	0.407809
H81	H	1.776017	-0.115773	0.239946
H82	H	1.655634	-0.272384	0.142080
H83	H	1.409571	-0.334832	0.212969
H84	H	1.283883	-0.240668	0.381730
H85	H	1.404266	-0.084058	0.479596
H86	H	1.731632	-0.218023	-0.000014
H87	H	1.088719	-0.075498	-0.101917
C88	C	1.804225	0.030290	0.359048
C89	C	1.907816	-0.021870	0.394431
C90	C	2.043735	0.006658	0.330172
C91	C	2.076064	0.087345	0.230531
C92	C	1.972471	0.139509	0.195143
C93	C	1.836551	0.110982	0.259402
H94	H	1.883886	-0.081603	0.468196
H95	H	2.120422	-0.031958	0.356369
H96	H	2.176680	0.108462	0.182963
H97	H	1.996400	0.199243	0.121378
H98	H	1.759865	0.149597	0.233205
H99	H	1.891373	-0.317559	0.000000
C100	C	1.589096	-0.083298	0.640880
C101	C	1.625692	-0.170823	0.605462
C102	C	1.546491	-0.255877	0.669691
C103	C	1.430694	-0.253406	0.769338
C104	C	1.394093	-0.165878	0.804761
C105	C	1.473294	-0.080824	0.740532
H106	H	1.711416	-0.172655	0.531692
H107	H	1.573586	-0.320671	0.643467
H108	H	1.372065	-0.316368	0.816884
H109	H	1.308368	-0.164046	0.878531
H110	H	1.446198	-0.016029	0.766755
H111	H	1.935539	-0.462836	-0.000003
H112	H	1.200467	0.272839	-0.000062
H113	H	1.456896	-0.591888	-0.000023
H114	H	1.352510	-0.526827	-0.000024
H115	H	1.192785	-0.427309	-0.000016
H116	H	1.148613	-0.282025	-0.000015
H117	H	1.771443	0.016610	0.618260
H118	H	1.435781	0.233486	0.639105
H119	H	0.960826	0.268495	-0.000051
H120	H	1.228199	-0.117972	0.000003
