data_functionalizedCrystal
_audit_creation_method	'MofGen! by Chris Wilmer'
_symmetry_space_group_name_H-M	'P1'
_symmetry_Int_Tables_number	1
_symmetry_cell_setting	triclinic
loop_
_symmetry_equiv_pos_as_xyz
  x,y,z
_cell_length_a	19.121063
_cell_length_b	19.805407
_cell_length_c	19.805399
_cell_angle_alpha	89.979591
_cell_angle_beta	92.411105
_cell_angle_gamma	92.471006
loop_
_atom_site_label
_atom_site_type_symbol
_atom_site_fract_x
_atom_site_fract_y
_atom_site_fract_z
Zn1	Zn	-0.279595	1.023235	-0.394216
Zn2	Zn	-0.397047	1.018319	-0.285851
Zn3	Zn	-0.279618	0.910049	-0.281040
Zn4	Zn	-0.397014	0.905184	-0.398995
O5	O	-0.338318	0.964197	-0.340026
O6	O	-0.295179	1.117299	-0.379855
O7	O	-0.381494	1.003935	-0.190497
O8	O	-0.181330	0.929157	-0.292040
O9	O	-0.381471	1.113687	-0.300240
O10	O	-0.181313	1.012314	-0.375190
O11	O	-0.295219	0.924390	-0.186963
O12	O	-0.295187	0.814687	-0.296674
O13	O	-0.381414	0.920865	-0.493077
O14	O	-0.381437	0.811113	-0.383334
O15	O	-0.295147	1.007597	-0.489566
O16	O	-0.495328	0.999218	-0.304873
O17	O	-0.495303	0.916098	-0.388000
C18	C	-0.338311	0.788341	-0.340001
C19	C	-0.338325	0.713108	-0.340007
C20	C	-0.293470	0.253198	-0.381577
C21	C	-0.293472	0.323887	-0.381572
C22	C	-0.338329	0.357347	-0.340048
C23	C	-0.383193	0.320114	-0.298531
C24	C	-0.383195	0.249427	-0.298540
C25	C	-0.383188	0.605187	-0.298495
C26	C	-0.383181	0.675880	-0.298487
C27	C	-0.293464	0.679648	-0.381528
C28	C	-0.293466	0.608960	-0.381536
C29	C	-0.338333	0.571734	-0.340022
C30	C	-0.338332	0.495085	-0.340029
C31	C	-0.338327	0.433994	-0.340037
C32	C	-0.520800	0.956615	-0.347492
C33	C	-0.598866	0.953433	-0.350708
C34	C	-0.635531	0.995248	-0.308976
C35	C	-0.708882	0.992259	-0.312005
C36	C	-0.745567	0.947452	-0.356764
C37	C	-0.708897	0.905635	-0.398501
C38	C	-0.635547	0.908628	-0.395475
C39	C	-0.967038	0.936254	-0.368068
C40	C	-1.040393	0.933263	-0.371090
C41	C	-1.040374	1.019889	-0.284595
C42	C	-0.967022	1.022874	-0.281570
C43	C	-0.930358	0.981060	-0.323309
C44	C	-0.820544	0.944395	-0.359860
C45	C	-0.855382	0.984121	-0.320216
C46	C	-0.155125	0.971827	-0.332545
C47	C	-0.077058	0.975078	-0.329357
C48	C	-0.338274	0.964236	-0.516567
C49	C	-0.338255	0.964253	-0.591798
C50	C	-0.338326	1.140739	-0.340051
C51	C	-0.338330	1.215971	-0.340062
C52	C	-0.293334	1.009416	-0.625315
C53	C	-0.293313	1.009424	-0.696003
C54	C	-0.338219	0.964272	-0.733172
C55	C	-0.383142	0.919104	-0.699650
C56	C	-0.383159	0.919094	-0.628964
C57	C	-0.383077	0.919145	-0.984721
C58	C	-0.383059	0.919161	-1.055412
C59	C	-0.293232	1.009475	-1.051760
C60	C	-0.293248	1.009465	-0.981073
C61	C	-0.338169	0.964295	-0.947557
C62	C	-0.338189	0.964286	-0.870910
C63	C	-0.338202	0.964283	-0.809819
C64	C	-0.338312	0.964198	-0.164169
C65	C	-0.338133	0.964320	-0.088930
H66	H	-0.256936	0.581721	-0.415347
H67	H	-0.256934	0.709966	-0.415333
C68	C	-0.791337	0.892815	-0.492934
C69	C	-0.749222	0.856383	-0.447700
H70	H	-0.816234	0.862405	-0.523303
H71	H	-0.762679	0.923451	-0.517670
H72	H	-0.823668	0.917288	-0.468504
H73	H	-0.716887	0.831913	-0.472130
H74	H	-0.777883	0.825734	-0.422961
C75	C	-0.471885	0.665058	-0.216413
C76	C	-0.432499	0.712660	-0.252847
H77	H	-0.502332	0.687766	-0.188242
H78	H	-0.441256	0.638750	-0.189317
H79	H	-0.498787	0.636382	-0.246975
H80	H	-0.405593	0.741333	-0.222285
H81	H	-0.463132	0.738979	-0.279946
H82	H	-0.419719	0.574886	-0.264689
C83	C	-1.032985	1.105813	-0.198796
C84	C	-1.080675	1.065853	-0.238721
H85	H	-1.057867	1.134188	-0.170473
H86	H	-1.004334	1.132852	-0.227130
H87	H	-1.004419	1.077496	-0.171701
H88	H	-1.109238	1.094170	-0.265820
H89	H	-1.109338	1.038812	-0.210383
C90	C	-0.422925	0.879083	-1.165393
C91	C	-0.432423	0.869527	-1.096272
H92	H	-0.453404	0.848447	-1.190617
H93	H	-0.375737	0.871145	-1.175047
H94	H	-0.433205	0.924137	-1.177394
H95	H	-0.422137	0.824474	-1.084270
H96	H	-0.479621	0.877460	-1.086614
H97	H	-0.256735	1.046201	-0.723289
H98	H	-0.256938	0.225961	-0.415387
C99	C	-0.174410	1.047331	-0.598706
C100	C	-0.243969	1.059047	-0.584461
H101	H	-0.143934	1.077970	-0.573482
H102	H	-0.167978	1.053802	-0.645596
H103	H	-0.164143	1.002279	-0.586688
H104	H	-0.254238	1.104099	-0.596484
H105	H	-0.250405	1.052582	-0.537561
C106	C	-0.204446	1.098735	-0.984565
C107	C	-0.243884	1.059094	-0.940217
H108	H	-0.173967	1.129370	-0.959341
H109	H	-0.235040	1.123357	-1.013387
H110	H	-0.177576	1.070361	-1.011035
H111	H	-0.270758	1.087469	-0.913750
H112	H	-0.213286	1.034471	-0.911384
C113	C	-0.477576	0.905775	-0.909094
C114	C	-0.432458	0.869495	-0.947893
H115	H	-0.508060	0.875119	-0.886356
H116	H	-0.504432	0.934149	-0.937770
H117	H	-0.450831	0.932656	-0.876836
H118	H	-0.459202	0.842618	-0.980155
H119	H	-0.405598	0.841110	-0.919215
H120	H	-0.419720	0.347362	-0.264723
C121	C	-1.033049	0.847948	-0.456301
C122	C	-1.080719	0.884014	-0.420299
H123	H	-1.057947	0.817549	-0.486681
H124	H	-1.004485	0.823235	-0.425614
H125	H	-1.004394	0.878601	-0.481032
H126	H	-1.109371	0.853361	-0.395563
H127	H	-1.109296	0.908728	-0.450990
H128	H	-0.419726	0.219117	-0.264735
C129	C	-0.854574	1.065918	-0.238522
C130	C	-0.926699	1.072126	-0.232368
H131	H	-0.829682	1.096320	-0.208141
H132	H	-0.842515	1.076293	-0.283504
H133	H	-0.842611	1.020931	-0.228081
H134	H	-0.938663	1.117112	-0.242814
H135	H	-0.938763	1.061755	-0.187376
H136	H	-0.605667	1.031732	-0.272526
H137	H	-0.419703	0.882339	-0.729919
H138	H	-0.825511	1.020606	-0.283776
C139	C	-0.471969	0.829838	-0.639670
C140	C	-0.432550	0.869461	-0.592120
H141	H	-0.502466	0.799200	-0.616923
H142	H	-0.441364	0.805219	-0.665980
H143	H	-0.498820	0.858224	-0.668349
H144	H	-0.405695	0.841076	-0.563444
H145	H	-0.463159	0.894082	-0.565798
H146	H	-0.256945	0.354194	-0.415381
H147	H	-0.738732	1.026309	-0.278022
C148	C	-0.884625	0.848571	-0.373981
C149	C	-0.926737	0.890289	-0.413939
H150	H	-0.859738	0.820196	-0.402301
H151	H	-0.913283	0.821531	-0.345655
H152	H	-0.852284	0.875695	-0.346896
H153	H	-0.959081	0.863165	-0.441021
H154	H	-0.898076	0.917331	-0.442277
C155	C	-0.642930	0.822703	-0.481274
C156	C	-0.595242	0.862665	-0.441349
H157	H	-0.618046	0.794326	-0.509595
H158	H	-0.671495	0.851013	-0.508366
H159	H	-0.671581	0.795658	-0.452936
H160	H	-0.566594	0.889713	-0.469688
H161	H	-0.566664	0.834351	-0.414255
C162	C	-0.253304	1.049594	-1.158495
C163	C	-0.243844	1.059120	-1.088602
H164	H	-0.222812	1.080240	-1.181237
H165	H	-0.300485	1.057537	-1.172008
H166	H	-0.243017	1.004544	-1.169642
H167	H	-0.254135	1.104168	-1.077455
H168	H	-0.196651	1.051181	-1.075085
H169	H	-0.850422	0.907911	-0.396301
