data_functionalizedCrystal
_audit_creation_method	'MofGen! by Chris Wilmer'
_symmetry_space_group_name_H-M	'P1'
_symmetry_Int_Tables_number	1
_symmetry_cell_setting	triclinic
loop_
_symmetry_equiv_pos_as_xyz
  x,y,z
_cell_length_a	25.639239
_cell_length_b	15.298068
_cell_length_c	15.296720
_cell_angle_alpha	88.354818
_cell_angle_beta	99.638856
_cell_angle_gamma	99.697604
loop_
_atom_site_label
_atom_site_type_symbol
_atom_site_fract_x
_atom_site_fract_y
_atom_site_fract_z
Zn1	Zn	-0.155542	1.253307	-0.727335
Zn2	Zn	-0.225763	1.278537	-0.580852
Zn3	Zn	-0.150461	1.132189	-0.555502
Zn4	Zn	-0.255075	1.106752	-0.701870
O5	O	-0.196710	1.192696	-0.641390
O6	O	-0.154716	1.379234	-0.729169
O7	O	-0.201381	1.280327	-0.454931
O8	O	-0.077966	1.148342	-0.578344
O9	O	-0.206307	1.397770	-0.621550
O10	O	-0.081699	1.237327	-0.704589
O11	O	-0.146057	1.172807	-0.436306
O12	O	-0.174479	1.006234	-0.553652
O13	O	-0.256265	1.104989	-0.827807
O14	O	-0.251338	0.987546	-0.661188
O15	O	-0.183138	1.212662	-0.846516
O16	O	-0.302820	1.255662	-0.596858
O17	O	-0.324356	1.129453	-0.685769
C18	C	-0.215539	0.965106	-0.601907
C19	C	-0.223609	0.867739	-0.585037
C20	C	-0.139164	0.554614	-0.761966
C21	C	-0.131584	0.646094	-0.777822
C22	C	-0.154589	0.701510	-0.729627
C23	C	-0.185177	0.665436	-0.665574
C24	C	-0.192761	0.573945	-0.649721
C25	C	-0.208186	0.720842	-0.617382
C26	C	-0.238773	0.684768	-0.553329
C27	C	-0.246356	0.593286	-0.537479
C28	C	-0.223350	0.537870	-0.585674
C29	C	-0.200602	0.812332	-0.633234
C30	C	-0.254198	0.831664	-0.520989
C31	C	-0.261778	0.740183	-0.505134
C32	C	-0.332560	1.192556	-0.641324
C33	C	-0.390674	1.192571	-0.641339
C34	C	-0.739803	1.258543	-0.595215
C35	C	-0.794406	1.258575	-0.595232
O36	O	-0.813098	1.314522	-0.555945
N37	N	-0.832943	1.192840	-0.641475
C38	C	-0.816876	1.127074	-0.687710
O39	O	-0.854669	1.071165	-0.727045
C40	C	-0.762274	1.127047	-0.687697
C41	C	-0.723739	1.192781	-0.641444
C42	C	-0.701268	1.324272	-0.548966
C43	C	-0.646669	1.324239	-0.548947
C44	C	-0.630605	1.258477	-0.595177
C45	C	-0.669139	1.192748	-0.641425
C46	C	-0.746208	1.061286	-0.733937
C47	C	-0.691601	1.061264	-0.733921
C48	C	-0.653066	1.126998	-0.687668
C49	C	-0.598476	1.126952	-0.687636
N50	N	-0.559939	1.192687	-0.641394
C51	C	-0.576003	1.258449	-0.595164
C52	C	-0.931543	1.127138	-0.687735
C53	C	-0.986144	1.127161	-0.687743
C54	C	-0.963670	1.258663	-0.595267
C55	C	-0.909068	1.258635	-0.595254
C56	C	-0.893005	1.192873	-0.641492
C57	C	-0.461342	1.258374	-0.595128
C58	C	-0.406739	1.258333	-0.595110
C59	C	-0.429217	1.126835	-0.687590
C60	C	-0.483816	1.126873	-0.687604
C61	C	-0.499876	1.192650	-0.641371
O62	O	-0.579744	1.071036	-0.726907
O63	O	-0.538205	1.314356	-0.555845
C64	C	-0.060330	1.192858	-0.641479
C65	C	-0.002213	1.192927	-0.641517
C66	C	-0.223538	1.153174	-0.869828
C67	C	-0.234970	1.136332	-0.967175
C68	C	-0.177809	1.421175	-0.681028
C69	C	-0.169754	1.518539	-0.697919
C70	C	-0.114907	1.313102	-1.280543
C71	C	-0.104166	1.328932	-1.189082
C72	C	-0.136866	1.280783	-1.133600
C73	C	-0.180309	1.216802	-1.169589
C74	C	-0.191053	1.200976	-1.261060
C75	C	-0.213013	1.168657	-1.114118
C76	C	-0.256455	1.104676	-1.150107
C77	C	-0.267198	1.088852	-1.241569
C78	C	-0.234498	1.137001	-1.297050
C79	C	-0.202268	1.184483	-1.022647
C80	C	-0.278415	1.072357	-1.003165
C81	C	-0.289155	1.056527	-1.094626
C82	C	-0.169945	1.232115	-0.413849
C83	C	-0.158351	1.249127	-0.316533
H84	H	-0.286683	0.710798	-0.452982
O85	O	-0.477005	1.322157	-0.550164
C86	C	-0.506102	1.282160	-0.484906
H87	H	-0.523436	1.210419	-0.504213
H88	H	-0.540148	1.319904	-0.479413
H89	H	-0.478250	1.283814	-0.418325
H90	H	-0.324527	1.004433	-1.123941
O91	O	-0.276140	0.558332	-0.475323
C92	C	-0.328651	0.577346	-0.498181
H93	H	-0.328213	0.637952	-0.543356
H94	H	-0.344347	0.591393	-0.435437
H95	H	-0.355855	0.518071	-0.534231
H96	H	-0.305042	1.033152	-0.957992
H97	H	-0.148414	0.775998	-0.742537
O98	O	-0.170972	0.847393	-0.695547
C99	C	-0.203034	0.890547	-0.761178
H100	H	-0.247128	0.862032	-0.761678
H101	H	-0.192022	0.879941	-0.828822
H102	H	-0.195881	0.964561	-0.746108
O103	O	-0.101836	0.680995	-0.840036
C104	C	-0.083166	0.612468	-0.879188
H105	H	-0.082518	0.553453	-0.832021
H106	H	-0.040897	0.637301	-0.893240
H107	H	-0.110984	0.591240	-0.943961
H108	H	-0.120440	0.509486	-0.801205
O109	O	-0.230776	0.448978	-0.570415
C110	C	-0.256651	0.403901	-0.649023
H111	H	-0.279357	0.450353	-0.694294
H112	H	-0.286042	0.343766	-0.632068
H113	H	-0.225480	0.381132	-0.684272
O114	O	-0.309459	1.026768	-1.276436
C115	C	-0.357362	1.049732	-1.257382
H116	H	-0.347856	1.094897	-1.196815
H117	H	-0.385669	0.987028	-1.243262
H118	H	-0.377296	1.085838	-1.316660
O119	O	-0.979375	1.322557	-0.550510
C120	C	-1.035832	1.308493	-0.560466
H121	H	-1.053591	1.267984	-0.623002
H122	H	-1.050418	1.375146	-0.566083
H123	H	-1.049139	1.270980	-0.500367
O124	O	-0.276580	0.885560	-0.474305
C125	C	-0.311863	0.929836	-0.533230
H126	H	-0.300147	0.932077	-0.602038
H127	H	-0.309312	1.000331	-0.508680
H128	H	-0.354660	0.892904	-0.536620
O129	O	-0.369352	1.322170	-0.550050
C130	C	-0.374047	1.318196	-0.459439
H131	H	-0.416283	1.284862	-0.451770
H132	H	-0.366046	1.388234	-0.431193
H133	H	-0.343608	1.278279	-0.422081
O134	O	-0.609311	1.388188	-0.504014
C135	C	-0.635208	1.446220	-0.463206
H136	H	-0.678086	1.443021	-0.499616
H137	H	-0.612596	1.516848	-0.465898
H138	H	-0.635884	1.425720	-0.391107
H139	H	-0.777575	1.007754	-0.771596
H140	H	-0.714340	1.377828	-0.511321
O141	O	-0.413581	1.063070	-0.732613
C142	C	-0.384465	1.103106	-0.797830
H143	H	-0.395815	1.171153	-0.815261
H144	H	-0.394381	1.059722	-0.859706
H145	H	-0.339656	1.110817	-0.771262
O146	O	-0.871707	1.322578	-0.550314
C147	C	-0.897602	1.380607	-0.509494
H148	H	-0.940479	1.377417	-0.545904
H149	H	-0.874987	1.451233	-0.512175
H150	H	-0.898279	1.360094	-0.437399
H151	H	-1.017515	1.073627	-0.725397
H152	H	-0.166896	1.236576	-0.993354
H153	H	-0.128118	1.293675	-1.059129
O154	O	-0.916033	1.063158	-0.732659
C155	C	-0.961760	1.005164	-0.773490
H156	H	-0.996724	1.008397	-0.737098
H157	H	-0.952833	0.934522	-0.770797
H158	H	-0.972700	1.025677	-0.845589
H159	H	-0.678527	1.007713	-0.771577
H160	H	-0.515193	1.073349	-0.725270
O161	O	-0.061932	1.391079	-1.154264
C162	C	-0.035382	1.430197	-1.222845
H163	H	-0.044196	1.383039	-1.281821
H164	H	0.009692	1.444166	-1.198067
H165	H	-0.050170	1.495018	-1.244102
O166	O	-0.083108	1.359738	-1.334454
C167	C	-0.059689	1.300754	-1.378757
H168	H	-0.058922	1.236537	-1.339225
H169	H	-0.016954	1.332309	-1.385331
H170	H	-0.084253	1.285720	-1.447538
O171	O	-0.245027	1.121630	-1.385899
C172	C	-0.296861	1.138802	-1.420337
H173	H	-0.322029	1.132919	-1.365014
H174	H	-0.316608	1.088694	-1.474670
H175	H	-0.293860	1.208676	-1.449173
