data_functionalizedCrystal
_audit_creation_method	'MofGen! by Chris Wilmer'
_symmetry_space_group_name_H-M	'P1'
_symmetry_Int_Tables_number	1
_symmetry_cell_setting	triclinic
loop_
_symmetry_equiv_pos_as_xyz
  x,y,z
_cell_length_a	14.908795
_cell_length_b	25.639240
_cell_length_c	14.908308
_cell_angle_alpha	86.744551
_cell_angle_beta	90.211334
_cell_angle_gamma	93.322536
loop_
_atom_site_label
_atom_site_type_symbol
_atom_site_fract_x
_atom_site_fract_y
_atom_site_fract_z
Zn1	Zn	1.345248	-0.182877	0.587771
Zn2	Zn	1.353800	-0.265003	0.437384
Zn3	Zn	1.203562	-0.182311	0.428743
Zn4	Zn	1.194822	-0.275013	0.579003
O5	O	1.274358	-0.226301	0.508225
O6	O	1.472212	-0.189819	0.575109
O7	O	1.341107	-0.249607	0.310416
O8	O	1.222436	-0.109220	0.449891
O9	O	1.478495	-0.250156	0.464620
O10	O	1.326532	-0.109636	0.566729
O11	O	1.230728	-0.188853	0.304067
O12	O	1.076574	-0.198561	0.441389
O13	O	1.207540	-0.267218	0.705988
O14	O	1.070153	-0.266669	0.551784
O15	O	1.318057	-0.199526	0.712430
O16	O	1.332632	-0.339497	0.456117
O17	O	1.215832	-0.346852	0.560163
C18	C	1.040737	-0.233640	0.494697
C19	C	0.940792	-0.236793	0.488932
C20	C	1.274235	-0.362145	0.508148
C21	C	1.274263	-0.420258	0.508149
C22	C	0.803201	-0.272592	0.423191
C23	C	0.897109	-0.269632	0.428608
C24	C	0.890560	-0.206911	0.543840
C25	C	0.796653	-0.209871	0.538423
C26	C	0.752976	-0.242714	0.478097
C27	C	0.659067	-0.245676	0.472685
C28	C	0.652521	-0.182953	0.587913
C29	C	0.746428	-0.179993	0.593330
C30	C	1.328584	-0.780802	0.569168
C31	C	1.328609	-0.835406	0.569188
O32	O	1.374647	-0.863798	0.620987
N33	N	1.274478	-0.862539	0.508319
C34	C	1.220311	-0.835066	0.447433
O35	O	1.174270	-0.863159	0.395662
C36	C	1.220281	-0.780463	0.447418
C37	C	1.274423	-0.753332	0.508285
C38	C	1.382720	-0.753671	0.630030
C39	C	1.382696	-0.699070	0.630009
C40	C	1.328535	-0.671601	0.569126
C41	C	1.274398	-0.698732	0.508264
C42	C	1.166110	-0.752991	0.386537
C43	C	1.166084	-0.698385	0.386528
C44	C	1.220226	-0.671254	0.447394
C45	C	1.220213	-0.616662	0.447359
N46	N	1.274344	-0.589529	0.508228
C47	C	1.328505	-0.616998	0.569111
C48	C	1.220376	-0.949736	0.447470
C49	C	1.220410	-1.004337	0.447480
C50	C	1.328707	-1.004673	0.569236
C51	C	1.328677	-0.950070	0.569221
C52	C	1.274507	-0.922602	0.508339
C53	C	1.328450	-0.502333	0.569061
C54	C	1.328424	-0.447728	0.569032
C55	C	1.220123	-0.447397	0.447280
C56	C	1.220153	-0.501997	0.447305
C57	C	1.274319	-0.529464	0.508204
O58	O	1.174195	-0.588235	0.395589
O59	O	1.374530	-0.588899	0.620881
C60	C	1.508891	-0.218934	0.521806
C61	C	1.608836	-0.215794	0.527594
C62	C	1.260870	-0.234552	0.742745
C63	C	1.255122	-0.238068	0.842684
C64	C	1.274505	-0.089926	0.508324
C65	C	1.274568	-0.031812	0.508367
C66	C	1.287846	-0.218043	0.274621
C67	C	1.293768	-0.214374	0.174693
C68	C	1.359400	-0.174175	1.037188
C69	C	1.354003	-0.177477	1.131090
C70	C	1.238925	-0.247971	1.124389
C71	C	1.244322	-0.244669	1.030487
C72	C	1.304563	-0.207770	0.986891
C73	C	1.309965	-0.204472	0.892988
C74	C	1.194883	-0.274962	0.886289
C75	C	1.189485	-0.278264	0.980190
H76	H	0.623507	-0.272420	0.423568
Br77	Br	0.743920	-0.317175	0.341344
Br78	Br	1.146625	-0.410106	0.364655
H79	H	1.140437	-0.308304	1.015699
Br80	Br	1.402158	-0.913256	0.651828
H81	H	1.122022	-0.775072	0.336973
H82	H	0.937998	-0.293961	0.383896
Br83	Br	0.949851	-0.162340	0.625698
Br84	Br	1.402213	-1.041964	0.651864
Br85	Br	0.805711	-0.135422	0.675195
Br86	Br	1.456171	-0.662259	0.712624
H87	H	1.121970	-0.676023	0.336951
Br88	Br	1.428424	-0.131880	1.199349
H89	H	0.611618	-0.158625	0.632623
Br90	Br	1.401910	-0.410910	0.651639
Br91	Br	1.391723	-0.154399	0.833822
H92	H	1.408455	-0.144134	1.001692
H93	H	1.189879	-0.278011	1.159901
Br94	Br	1.120470	-0.320566	0.818023
H95	H	1.426824	-0.776031	0.679614
Br96	Br	1.401963	-0.539601	0.651708
Br97	Br	1.146945	-1.041150	0.364858
H98	H	1.176267	-0.927373	0.397885
H99	H	1.176074	-0.524088	0.397736
