data_functionalizedCrystal
_audit_creation_method	'MofGen! by Chris Wilmer'
_symmetry_space_group_name_H-M	'P1'
_symmetry_Int_Tables_number	1
_symmetry_cell_setting	triclinic
loop_
_symmetry_equiv_pos_as_xyz
  x,y,z
_cell_length_a	12.811457
_cell_length_b	19.188930
_cell_length_c	11.295483
_cell_angle_alpha	94.076039
_cell_angle_beta	91.289320
_cell_angle_gamma	83.596719
loop_
_atom_site_label
_atom_site_type_symbol
_atom_site_fract_x
_atom_site_fract_y
_atom_site_fract_z
O1	O	1.388580	0.096440	0.050917
O2	O	1.085298	0.105118	0.018161
O3	O	1.245690	-0.000787	0.035507
O4	O	1.228189	0.202345	0.033570
O5	O	1.231602	0.008500	0.232034
O6	O	1.071211	0.114406	0.214688
O7	O	1.374493	0.105727	0.247444
Cu8	Cu	1.221566	0.110915	0.249011
Cu9	Cu	1.238226	0.099931	0.016594
O10	O	1.214102	0.211633	0.230098
C11	C	1.039454	0.108991	0.112234
C12	C	0.923839	0.106686	0.099748
C13	C	0.691229	0.112467	0.290564
C14	C	0.582598	0.110300	0.278838
C15	C	0.597947	0.100182	0.064572
C16	C	0.706577	0.102348	0.076298
C17	C	0.753214	0.108492	0.189298
C18	C	0.861845	0.110663	0.201022
C19	C	0.877193	0.100540	-0.013243
C20	C	0.768563	0.098374	-0.024968
C21	C	1.238079	-0.022160	0.133713
C22	C	1.236377	-0.099681	0.133539
C23	C	1.330490	-0.143657	0.143710
C24	C	1.328892	-0.216498	0.143518
C25	C	1.233175	-0.245359	0.133179
C26	C	1.139050	-0.201374	0.123001
C27	C	1.140651	-0.128535	0.123181
N28	N	1.155216	-0.350940	0.192159
N29	N	1.153702	-0.420134	0.191991
C30	C	1.228346	-0.464817	0.132634
N31	N	1.304577	-0.437692	0.073467
N32	N	1.306095	-0.368492	0.073640
C33	C	1.231429	-0.324339	0.132982
C34	C	1.320734	-0.587775	0.142595
C35	C	1.319133	-0.660618	0.142396
C36	C	1.129288	-0.645491	0.121890
C37	C	1.130892	-0.572651	0.122078
C38	C	1.226618	-0.543798	0.132437
C39	C	1.420338	0.101854	0.153368
C40	C	1.535953	0.104159	0.165846
C41	C	1.221713	0.233006	0.131889
C42	C	1.223415	0.310526	0.132055
N43	N	1.209856	0.118639	0.412480
N44	N	1.249944	0.092201	-0.146875
C45	C	1.334241	0.036554	0.675222
C46	C	1.325399	0.042397	0.798930
C47	C	1.183325	0.136164	0.783604
C48	C	1.192167	0.130321	0.659897
C49	C	1.267628	0.080515	0.605711
C50	C	1.276475	0.074677	0.482001
C51	C	1.134397	0.168439	0.466678
C52	C	1.125555	0.174282	0.590385
H53	H	0.899814	0.115669	0.293032
H54	H	0.559958	0.095169	-0.027426
H55	H	1.064010	-0.092729	0.114899
H56	H	1.408437	-0.120169	0.152140
F57	F	1.396295	-0.004394	0.872905
F58	F	0.516632	0.114529	0.386620
H59	H	0.729199	0.117478	0.382572
F60	F	1.429064	-0.263308	0.154341
F61	F	0.718921	0.091817	-0.145223
H62	H	1.080159	0.204237	0.410067
F63	F	0.943169	0.096319	-0.121025
H64	H	1.395691	-0.003995	0.631104
F65	F	1.037182	-0.232091	0.111990
F66	F	1.419308	-0.707421	0.153214
F67	F	1.422612	-0.557064	0.153625
H68	H	1.051353	-0.668989	0.113467
H69	H	1.121879	0.176709	0.827739
F70	F	1.030722	-0.525847	0.111258
F71	F	1.356789	0.021672	0.424335
H72	H	1.064112	0.214831	0.634518
