data_functionalizedCrystal
_audit_creation_method	'MofGen! by Chris Wilmer'
_symmetry_space_group_name_H-M	'P1'
_symmetry_Int_Tables_number	1
_symmetry_cell_setting	triclinic
loop_
_symmetry_equiv_pos_as_xyz
  x,y,z
_cell_length_a	6.817900
_cell_length_b	12.200863
_cell_length_c	19.453114
_cell_angle_alpha	94.895602
_cell_angle_beta	101.709288
_cell_angle_gamma	107.143441
loop_
_atom_site_label
_atom_site_type_symbol
_atom_site_fract_x
_atom_site_fract_y
_atom_site_fract_z
V1	V	-4.025501	-0.159907	-0.219071
O2	O	-3.993988	0.006455	-0.214827
O3	O	-3.995349	-0.315887	-0.217643
O4	O	-3.968192	-0.157987	-0.314583
O5	O	-4.021333	-0.152538	-0.117216
V6	V	-4.507919	-0.139945	-0.206880
O7	O	-4.289184	-0.203697	-0.245813
O8	O	-4.694434	-0.096155	-0.180137
O9	O	-4.314864	0.016035	-0.208307
O10	O	-4.656830	-0.306307	-0.211123
O11	O	-4.629484	-0.147314	-0.308734
O12	O	-4.342022	-0.141865	-0.111368
C13	C	-3.845078	-0.353895	-0.214206
C14	C	-3.901652	-0.481414	-0.213675
C15	C	-3.810434	-0.152476	-0.337861
C16	C	-3.844982	-0.151938	-0.415943
C17	C	-4.005195	-0.714885	-0.212709
C18	C	-3.947568	-0.584965	-0.213247
C19	C	-4.043668	-0.157443	-0.456203
C20	C	-4.076129	-0.156937	-0.529569
C21	C	-3.909904	-0.150950	-0.562675
C22	C	-3.711187	-0.145437	-0.522406
C23	C	-3.678726	-0.145931	-0.449040
N24	N	-3.857248	-0.211530	-0.681492
N25	N	-3.888099	-0.211063	-0.751187
C26	C	-4.007696	-0.149459	-0.783723
N27	N	-4.095315	-0.088353	-0.743933
N28	N	-4.064470	-0.088825	-0.674232
C29	C	-3.945082	-0.150413	-0.642228
C30	C	-4.241592	-0.154414	-0.903535
C31	C	-4.274043	-0.153902	-0.976902
C32	C	-3.909101	-0.142413	-0.969738
C33	C	-3.876650	-0.142914	-0.896372
C34	C	-4.042906	-0.148921	-0.863275
C35	C	-4.128479	0.054037	-0.211743
C36	C	-4.051142	0.181555	-0.212278
C37	C	-4.163122	-0.147380	-0.088086
C38	C	-4.107813	-0.147912	-0.010003
H39	H	-4.179048	-0.162329	-0.429260
O40	O	-3.683827	-0.137802	-0.857225
C41	C	-3.484470	-0.231768	-0.779921
C42	C	-3.702980	-0.237657	-0.824196
H43	H	-3.499874	-0.312502	-0.753217
H44	H	-3.420405	-0.151096	-0.737597
H45	H	-3.371324	-0.227376	-0.816216
H46	H	-3.816282	-0.242093	-0.787957
H47	H	-3.766870	-0.318316	-0.866526
O48	O	-4.269289	-0.162516	-0.568684
C49	C	-4.640109	-0.272107	-0.606809
C50	C	-4.421475	-0.265936	-0.562495
H51	H	-4.763218	-0.355703	-0.601809
H52	H	-4.634889	-0.270810	-0.664948
H53	H	-4.684099	-0.194318	-0.586435
H54	H	-4.377352	-0.343708	-0.582807
H55	H	-4.426812	-0.267176	-0.504364
O56	O	-3.549803	-0.139472	-0.554628
C57	C	-3.325595	-0.032317	-0.623697
C58	C	-3.508425	-0.038953	-0.587253
H59	H	-3.292054	0.048958	-0.650071
H60	H	-3.371206	-0.112438	-0.665640
H61	H	-3.178059	-0.028525	-0.582309
H62	H	-3.656033	-0.042708	-0.628588
H63	H	-3.462637	0.041166	-0.545297
H64	H	-3.516925	-0.141440	-0.416259
H65	H	-3.773751	-0.137528	-0.996692
O66	O	-4.467041	-0.159397	-1.016101
C67	C	-4.764527	-0.265440	-1.112636
C68	C	-4.545951	-0.259343	-1.068311
H69	H	-4.828411	-0.346252	-1.154849
H70	H	-4.749364	-0.184855	-1.139480
H71	H	-4.877694	-0.269762	-1.076354
H72	H	-4.432667	-0.255059	-1.104544
H73	H	-4.561282	-0.339927	-1.041460
H74	H	-4.376966	-0.159301	-0.876586
