data_functionalizedCrystal
_audit_creation_method	'MofGen! by Chris Wilmer'
_symmetry_space_group_name_H-M	'P1'
_symmetry_Int_Tables_number	1
_symmetry_cell_setting	triclinic
loop_
_symmetry_equiv_pos_as_xyz
  x,y,z
_cell_length_a	6.817900
_cell_length_b	9.582860
_cell_length_c	14.125465
_cell_angle_alpha	93.994443
_cell_angle_beta	100.398878
_cell_angle_gamma	111.206767
loop_
_atom_site_label
_atom_site_type_symbol
_atom_site_fract_x
_atom_site_fract_y
_atom_site_fract_z
V1	V	-4.031033	-0.205771	-0.299801
V2	V	-3.531033	0.294229	0.200199
O3	O	-3.977344	0.011211	-0.294276
O4	O	-3.477344	0.511211	0.205724
O5	O	-4.022070	-0.409281	-0.297576
O6	O	-3.522070	0.090719	0.202424
O7	O	-3.966452	-0.202025	-0.430634
O8	O	-3.466452	0.297975	0.069366
O9	O	-4.033347	-0.197480	-0.160296
O10	O	-3.533347	0.302520	0.339704
V11	V	-4.511648	-0.179886	-0.283136
V12	V	-4.011648	0.320114	0.216864
O13	O	-4.298671	-0.262552	-0.336357
O14	O	-3.798671	0.237448	0.163643
O15	O	-4.694207	-0.123105	-0.246581
O16	O	-4.194207	0.376895	0.253419
O17	O	-4.297405	0.023625	-0.285361
O18	O	-3.797405	0.523625	0.214639
O19	O	-4.682733	-0.396868	-0.288662
O20	O	-4.182733	0.103132	0.211338
O21	O	-4.626731	-0.188177	-0.422641
O22	O	-4.126731	0.311823	0.077359
O23	O	-4.353022	-0.183632	-0.152303
O24	O	-3.853022	0.316368	0.347697
C25	C	-3.877188	-0.458911	-0.292802
C26	C	-3.377188	0.041089	0.207198
C27	C	-3.951038	-0.625279	-0.291855
C28	C	-3.451038	-0.125279	0.208145
C29	C	-3.806241	-0.194533	-0.462529
C30	C	-3.306241	0.305467	0.037471
C31	C	-3.834984	-0.192817	-0.569485
C32	C	-3.334984	0.307183	-0.069485
C33	C	-3.887667	-0.189671	-0.765311
C34	C	-3.387667	0.310329	-0.265311
C35	C	-4.074382	-0.195983	-0.817627
C36	C	-3.574382	0.304017	-0.317627
C37	C	-4.103698	-0.194232	-0.926591
C38	C	-3.603698	0.305768	-0.426591
C39	C	-3.858343	-0.191422	-0.656337
C40	C	-3.358343	0.308578	-0.156337
C41	C	-4.105631	0.073246	-0.290133
C42	C	-3.605631	0.573246	0.209867
C43	C	-4.011018	0.239613	-0.291087
C44	C	-3.511018	0.739613	0.208913
C45	C	-4.176577	-0.191128	-0.120403
C46	C	-3.676577	0.308872	0.379597
C47	C	-4.127071	-0.192837	-0.013447
C48	C	-3.627071	0.307163	0.486553
H49	H	-3.749843	-0.182954	-0.802354
H50	H	-3.249843	0.317046	-0.302354
H51	H	-4.212226	-0.202717	-0.780583
H52	H	-3.712226	0.297283	-0.280583
