data_functionalizedCrystal
_audit_creation_method	'MofGen! by Chris Wilmer'
_symmetry_space_group_name_H-M	'P1'
_symmetry_Int_Tables_number	1
_symmetry_cell_setting	triclinic
loop_
_symmetry_equiv_pos_as_xyz
  x,y,z
_cell_length_a	14.519709
_cell_length_b	8.559649
_cell_length_c	13.596369
_cell_angle_alpha	89.998228
_cell_angle_beta	90.012081
_cell_angle_gamma	76.729405
loop_
_atom_site_label
_atom_site_type_symbol
_atom_site_fract_x
_atom_site_fract_y
_atom_site_fract_z
O1	O	-1.208821	-0.209416	0.081660
O2	O	-0.958821	0.040584	0.331660
O3	O	-0.708821	0.290584	0.581660
O4	O	-0.458821	0.540584	0.831660
O5	O	-0.938574	-0.234077	0.081690
O6	O	-0.688574	0.015923	0.331690
O7	O	-0.438574	0.265923	0.581690
O8	O	-0.188574	0.515923	0.831690
O9	O	-1.097507	0.010787	0.081671
O10	O	-0.847507	0.260787	0.331671
O11	O	-0.597507	0.510787	0.581671
O12	O	-0.347507	0.760787	0.831671
O13	O	-1.049889	-0.454281	0.081679
O14	O	-0.799889	-0.204281	0.331679
O15	O	-0.549889	0.045719	0.581679
O16	O	-0.299889	0.295719	0.831679
O17	O	-1.097525	0.010801	-0.081912
O18	O	-0.847525	0.260801	0.168088
O19	O	-0.597525	0.510801	0.418088
O20	O	-0.347525	0.760801	0.668088
O21	O	-0.938593	-0.234064	-0.081893
O22	O	-0.688593	0.015936	0.168107
O23	O	-0.438593	0.265936	0.418107
O24	O	-0.188593	0.515936	0.668107
O25	O	-1.208840	-0.209403	-0.081923
O26	O	-0.958840	0.040597	0.168077
O27	O	-0.708840	0.290597	0.418077
O28	O	-0.458840	0.540597	0.668077
Zn29	Zn	-1.073719	-0.221731	-0.107880
Zn30	Zn	-0.823719	0.028269	0.142120
Zn31	Zn	-0.573719	0.278269	0.392120
Zn32	Zn	-0.323719	0.528269	0.642120
Zn33	Zn	-1.073695	-0.221749	0.107647
Zn34	Zn	-0.823695	0.028251	0.357647
Zn35	Zn	-0.573695	0.278251	0.607647
Zn36	Zn	-0.323695	0.528251	0.857647
O37	O	-1.049907	-0.454267	-0.081904
O38	O	-0.799907	-0.204267	0.168096
O39	O	-0.549907	0.045733	0.418096
O40	O	-0.299907	0.295733	0.668096
C41	C	-0.904306	-0.232921	-0.000098
C42	C	-0.654306	0.017079	0.249902
C43	C	-0.404306	0.267079	0.499902
C44	C	-0.154306	0.517079	0.749902
C45	C	-0.802172	-0.229477	-0.000087
C46	C	-0.552172	0.020523	0.249913
C47	C	-0.302172	0.270523	0.499913
C48	C	-0.052172	0.520523	0.749913
C49	C	-1.101125	0.070313	-0.000119
C50	C	-0.851125	0.320313	0.249881
C51	C	-0.601125	0.570313	0.499881
C52	C	-0.351125	0.820313	0.749881
C53	C	-1.111866	0.247663	-0.000114
C54	C	-0.861866	0.497663	0.249886
C55	C	-0.611866	0.747663	0.499886
C56	C	-0.361866	0.997663	0.749886
C57	C	-1.243108	-0.210559	-0.000133
C58	C	-0.993108	0.039441	0.249867
C59	C	-0.743108	0.289441	0.499867
C60	C	-0.493108	0.539441	0.749867
C61	C	-1.345242	-0.214003	-0.000138
C62	C	-1.095242	0.035997	0.249862
C63	C	-0.845242	0.285997	0.499862
C64	C	-0.595242	0.535997	0.749862
C65	C	-0.428186	-0.216798	-0.000131
C66	C	-0.178186	0.033202	0.249869
C67	C	0.071814	0.283202	0.499869
C68	C	0.321814	0.533202	0.749869
C69	C	-0.532242	-0.220319	-0.000119
C70	C	-0.282242	0.029681	0.249881
C71	C	-0.032242	0.279681	0.499881
C72	C	0.217758	0.529681	0.749881
C73	C	-0.615176	-0.223137	-0.000108
C74	C	-0.365176	0.026863	0.249892
C75	C	-0.115176	0.276863	0.499892
C76	C	0.134824	0.526863	0.749892
C77	C	-0.719238	-0.226659	-0.000097
C78	C	-0.469238	0.023341	0.249903
C79	C	-0.219238	0.273341	0.499903
C80	C	0.030762	0.523341	0.749903
C81	C	-1.046289	-0.513793	-0.000112
C82	C	-0.796289	-0.263793	0.249888
C83	C	-0.546289	-0.013793	0.499888
C84	C	-0.296289	0.236207	0.749888
C85	C	-1.035548	-0.691143	-0.000110
C86	C	-0.785548	-0.441143	0.249890
C87	C	-0.535548	-0.191143	0.499890
C88	C	-0.285548	0.058857	0.749890
N89	N	-1.073742	-0.221718	-0.254972
N90	N	-0.823742	0.028282	-0.004972
N91	N	-0.573742	0.278282	0.245028
N92	N	-0.323742	0.528282	0.495028
N93	N	-1.073680	-0.221749	0.254739
N94	N	-0.823680	0.028251	0.504739
N95	N	-0.573680	0.278251	0.754739
N96	N	-0.323680	0.528251	1.004739
C97	C	-1.073683	-0.221751	0.343737
C98	C	-0.823683	0.028249	0.593737
C99	C	-0.573683	0.278249	0.843737
C100	C	-0.323683	0.528249	1.093737
C101	C	-1.073696	-0.221747	0.455388
C102	C	-0.823696	0.028253	0.705388
C103	C	-0.573696	0.278253	0.955388
C104	C	-0.323696	0.528253	1.205388
C105	C	-1.073713	-0.221736	0.544379
C106	C	-0.823713	0.028264	0.794379
C107	C	-0.573713	0.278264	1.044379
C108	C	-0.323713	0.528264	1.294379
C109	C	-1.073726	-0.221729	0.656037
C110	C	-0.823726	0.028271	0.906037
C111	C	-0.573726	0.278271	1.156037
C112	C	-0.323726	0.528271	1.406037
H113	H	-0.961991	0.225570	-0.000105
H114	H	-0.711991	0.475570	0.249895
H115	H	-0.461991	0.725570	0.499895
H116	H	-0.211991	0.975570	0.749895
H117	H	-1.185428	0.330959	-0.000130
H118	H	-0.935428	0.580959	0.249870
H119	H	-0.685428	0.830959	0.499870
H120	H	-0.435428	1.080959	0.749870
