data_functionalizedCrystal
_audit_creation_method	'MofGen! by Chris Wilmer'
_symmetry_space_group_name_H-M	'P1'
_symmetry_Int_Tables_number	1
_symmetry_cell_setting	triclinic
loop_
_symmetry_equiv_pos_as_xyz
  x,y,z
_cell_length_a	18.050591
_cell_length_b	19.121063
_cell_length_c	19.120904
_cell_angle_alpha	94.741613
_cell_angle_beta	92.416941
_cell_angle_gamma	92.465257
loop_
_atom_site_label
_atom_site_type_symbol
_atom_site_fract_x
_atom_site_fract_y
_atom_site_fract_z
Zn1	Zn	1.103413	-0.297188	-0.409883
Zn2	Zn	1.103321	-0.409835	-0.297234
Zn3	Zn	0.984762	-0.292181	-0.292224
Zn4	Zn	0.973652	-0.414806	-0.414841
O5	O	1.041287	-0.353503	-0.353546
O6	O	1.207324	-0.312146	-0.394962
O7	O	1.092205	-0.390052	-0.198110
O8	O	1.005189	-0.194383	-0.303660
O9	O	1.207256	-0.394908	-0.312199
O10	O	1.092361	-0.198062	-0.390104
O11	O	1.005100	-0.303612	-0.194429
O12	O	0.879365	-0.308432	-0.308468
O13	O	0.986254	-0.403380	-0.512643
O14	O	0.871203	-0.398524	-0.398554
O15	O	1.081589	-0.316967	-0.509001
O16	O	1.081432	-0.508957	-0.317006
O17	O	0.986165	-0.512609	-0.403412
C18	C	0.848338	-0.353475	-0.353506
C19	C	0.765792	-0.353480	-0.353506
C20	C	0.570756	-0.304438	-0.304623
C21	C	0.519132	-0.367877	-0.290041
C22	C	0.614659	-0.353503	-0.353539
C23	C	0.519200	-0.290086	-0.368119
C24	C	0.468672	-0.353519	-0.353569
C25	C	0.564122	-0.416974	-0.338925
C26	C	0.564195	-0.339142	-0.417031
C27	C	0.512591	-0.402626	-0.402476
C28	C	0.698758	-0.353493	-0.353519
C29	C	0.384573	-0.353537	-0.353588
C30	C	1.032602	-0.536314	-0.361306
C31	C	1.028954	-0.614522	-0.364650
C32	C	1.076876	-0.649342	-0.321271
C33	C	1.073449	-0.722827	-0.324420
C34	C	1.022096	-0.761492	-0.370944
C35	C	0.974172	-0.726668	-0.414328
C36	C	0.977603	-0.653184	-0.411182
C37	C	1.009256	-0.983462	-0.382694
C38	C	1.005827	-1.056951	-0.385835
C39	C	1.105105	-1.053106	-0.295928
C40	C	1.108528	-0.979621	-0.292784
C41	C	1.060607	-0.944803	-0.336169
C42	C	1.018590	-0.836606	-0.374162
C43	C	1.064117	-0.869690	-0.332954
C44	C	1.234989	-0.353531	-0.353586
C45	C	1.317534	-0.353543	-0.353604
C46	C	1.032692	-0.361286	-0.537065
C47	C	1.029030	-0.364603	-0.615271
C48	C	1.050025	-0.169978	-0.345770
C49	C	1.053748	-0.091771	-0.342457
C50	C	1.076942	-0.321173	-0.650116
C51	C	1.073492	-0.324287	-0.723598
C52	C	1.022133	-0.370835	-0.762233
C53	C	0.974215	-0.414268	-0.727383
C54	C	0.977662	-0.411150	-0.653902
C55	C	1.009238	-0.382497	-0.984193
C56	C	1.005796	-0.385614	-1.057679
C57	C	1.105073	-0.295631	-1.053889
C58	C	1.108518	-0.292521	-0.980407
C59	C	1.060598	-0.335950	-0.945563
C60	C	1.018606	-0.374021	-0.837344
C61	C	1.064121	-0.332760	-0.870453
C62	C	1.049893	-0.345698	-0.170738
C63	C	1.053709	-0.342183	-0.092524
H64	H	0.584081	-0.326962	-0.470695
N65	N	1.119520	-0.282562	-0.828785
H66	H	1.149355	-0.255521	-0.862007
H67	H	1.092273	-0.248701	-0.796909
H68	H	1.105931	-0.838208	-0.295077
N69	N	0.492967	-0.219040	-0.384445
H70	H	0.459968	-0.224333	-0.428728
H71	H	0.464146	-0.198580	-0.344108
H72	H	0.583839	-0.470625	-0.326545
H73	H	0.499266	-0.380037	-0.236360
H74	H	0.487330	-0.444171	-0.443857
H75	H	0.976792	-0.411924	-0.868809
N76	N	1.132262	-0.607641	-0.271089
H77	H	1.162101	-0.640853	-0.244088
H78	H	1.166687	-0.578332	-0.298457
H79	H	1.112471	-0.751174	-0.289096
H80	H	0.932394	-0.452166	-0.758845
N81	N	1.163926	-0.937920	-0.242614
H82	H	1.193770	-0.971129	-0.215615
H83	H	1.198347	-0.908616	-0.269993
N84	N	1.163901	-0.242289	-0.938754
H85	H	1.136692	-0.208386	-0.906887
H86	H	1.198385	-0.269625	-0.909522
N87	N	1.156785	-1.090658	-0.249133
H88	H	1.146821	-1.143077	-0.258182
H89	H	1.209903	-1.078239	-0.259581
H90	H	0.964017	-1.088431	-0.423733
H91	H	0.970235	-0.955120	-0.418020
H92	H	0.963970	-0.423521	-1.089134
H93	H	0.932362	-0.758154	-0.452212
N94	N	0.604408	-0.249535	-0.249780
H95	H	0.587377	-0.201720	-0.260288
H96	H	0.588061	-0.260548	-0.201869
H97	H	0.976777	-0.868095	-0.412041
H98	H	0.938581	-0.624835	-0.446506
N99	N	0.957532	-0.429314	-0.946615
H100	H	0.924469	-0.459268	-0.982242
H101	H	0.987613	-0.460596	-0.917500
H102	H	1.118767	-0.283270	-0.618665
H103	H	1.112510	-0.288923	-0.751966
H104	H	1.144086	-0.260273	-1.082267
H105	H	0.938639	-0.446508	-0.625531
