data_functionalizedCrystal
_audit_creation_method	'MofGen! by Chris Wilmer'
_symmetry_space_group_name_H-M	'P1'
_symmetry_Int_Tables_number	1
_symmetry_cell_setting	triclinic
loop_
_symmetry_equiv_pos_as_xyz
  x,y,z
_cell_length_a	19.805407
_cell_length_b	19.805405
_cell_length_c	19.805399
_cell_angle_alpha	90.029301
_cell_angle_beta	90.019573
_cell_angle_gamma	90.026410
loop_
_atom_site_label
_atom_site_type_symbol
_atom_site_fract_x
_atom_site_fract_y
_atom_site_fract_z
Zn1	Zn	1.034736	-0.269479	0.382712
Zn2	Zn	1.034651	-0.382667	0.269520
Zn3	Zn	0.921550	-0.269498	0.269536
Zn4	Zn	0.921514	-0.382631	0.382667
O5	O	0.978113	-0.326069	0.326109
O6	O	1.129441	-0.284501	0.367708
O7	O	1.019627	-0.367678	0.174805
O8	O	0.936616	-0.174778	0.284575
O9	O	1.129378	-0.367660	0.284547
O10	O	1.019772	-0.174765	0.367724
O11	O	0.936533	-0.284533	0.174817
O12	O	0.826829	-0.284498	0.284531
O13	O	0.936553	-0.367598	0.477389
O14	O	0.826802	-0.367617	0.367648
O15	O	1.019737	-0.284466	0.477422
O16	O	1.019592	-0.477379	0.284503
O17	O	0.936471	-0.477353	0.367632
C18	C	0.802257	-0.326056	0.326087
C19	C	0.727025	-0.326067	0.326093
C20	C	0.691684	-0.369412	0.369302
C21	C	0.620996	-0.369413	0.369312
C22	C	0.585649	-0.326072	0.326109
C23	C	0.620994	-0.282722	0.282898
C24	C	0.691681	-0.282718	0.282892
C25	C	0.335921	-0.282737	0.282920
C26	C	0.265229	-0.282746	0.282928
C27	C	0.265235	-0.369432	0.369340
C28	C	0.335922	-0.369428	0.369334
C29	C	0.371262	-0.326076	0.326126
C30	C	0.447910	-0.326074	0.326117
C31	C	0.509002	-0.326076	0.326114
C32	C	0.978036	-0.501925	0.326076
C33	C	0.978066	-0.577157	0.326084
C34	C	1.021389	-0.612492	0.282845
C35	C	1.021418	-0.683181	0.282860
C36	C	0.978119	-0.718532	0.326111
C37	C	0.934794	-0.683192	0.369356
C38	C	0.934769	-0.612505	0.369344
C39	C	0.934894	-0.968265	0.369406
C40	C	0.934921	-1.038957	0.369413
C41	C	1.021542	-1.038941	0.282922
C42	C	1.021517	-0.968254	0.282910
C43	C	0.978195	-0.932920	0.326157
C44	C	0.978166	-0.856271	0.326141
C45	C	0.978145	-0.795179	0.326124
C46	C	1.154655	-0.326082	0.326131
C47	C	1.229887	-0.326088	0.326140
C48	C	0.978151	-0.326026	0.502651
C49	C	0.978167	-0.326008	0.577883
C50	C	0.978207	-0.149526	0.326156
C51	C	0.978248	-0.074294	0.326177
C52	C	0.978114	-0.326062	0.150253
C53	C	0.978229	-0.325890	0.075021
C54	C	1.021481	-0.282719	0.613246
C55	C	1.021488	-0.282699	0.683934
C56	C	0.978184	-0.325973	0.719259
C57	C	0.934864	-0.369264	0.683892
C58	C	0.934854	-0.369279	0.613204
C59	C	0.934902	-0.369201	0.968965
C60	C	0.934917	-0.369183	1.039657
C61	C	1.021536	-0.282620	1.039695
C62	C	1.021527	-0.282636	0.969008
C63	C	0.978205	-0.325924	0.933647
C64	C	0.978197	-0.325944	0.856998
C65	C	0.978194	-0.325957	0.795906
H66	H	0.364698	-0.404723	0.404512
H67	H	0.592209	-0.247430	0.247724
C68	C	0.896479	-0.407601	1.148000
C69	C	0.887314	-0.416753	1.078489
H70	H	0.867096	-0.436972	1.171972
H71	H	0.886600	-0.362126	1.159593
H72	H	0.941956	-0.417509	1.159578
H73	H	0.841838	-0.406840	1.066910
H74	H	0.897188	-0.462239	1.066891
H75	H	1.056761	-0.247450	0.712723
H76	H	0.899637	-0.404459	0.940183
C77	C	0.849238	-0.454829	0.676749
C78	C	0.887261	-0.416831	0.722718
H79	H	0.819847	-0.484194	0.700719
H80	H	0.878709	-0.480726	0.649178
H81	H	0.823360	-0.425335	0.649182
H82	H	0.913142	-0.446325	0.750283
H83	H	0.857786	-0.390932	0.750301
C84	C	0.156879	-0.407930	0.407733
C85	C	0.226388	-0.417080	0.416843
H86	H	0.132900	-0.437344	0.437061
H87	H	0.145272	-0.417778	0.362244
H88	H	0.145325	-0.362465	0.417725
H89	H	0.237943	-0.462544	0.406845
H90	H	0.238000	-0.407237	0.462342
H91	H	0.236452	-0.247448	0.247747
H92	H	1.056792	-0.247400	0.940250
H93	H	0.899492	-0.583735	0.404555
H94	H	0.720455	-0.247418	0.247711
C95	C	1.107164	-0.197056	1.032631
C96	C	1.069153	-0.235030	1.078565
H97	H	1.136563	-0.167682	1.056628
H98	H	1.077685	-0.171171	1.005062
H99	H	1.133031	-0.226565	1.005057
H100	H	1.043283	-0.205521	1.106136
H101	H	1.098636	-0.260917	1.106145
C102	C	0.925399	-0.460335	0.533674
C103	C	0.887247	-0.416865	0.574324
H104	H	0.896006	-0.489708	0.509668
H105	H	0.954870	-0.486222	0.561249
H106	H	0.951188	-0.434554	0.502528
H107	H	0.861463	-0.442646	0.605474
H108	H	0.857765	-0.390976	0.546747
C109	C	0.901770	-0.704912	0.483943
C110	C	0.887202	-0.722051	0.416901
H111	H	0.872389	-0.728905	0.513294
H112	H	0.895552	-0.657762	0.490121
H113	H	0.947247	-0.716456	0.493882
H114	H	0.841726	-0.710502	0.406960
H115	H	0.893415	-0.769211	0.410720
H116	H	1.056695	-0.711948	0.247649
C117	C	0.713485	-0.402526	0.483852
C118	C	0.730536	-0.417052	0.416794
H119	H	0.737473	-0.431934	0.513173
H120	H	0.666334	-0.408734	0.490034
H121	H	0.725096	-0.357059	0.493829
H122	H	0.718920	-0.462517	0.406816
H123	H	0.777697	-0.410849	0.410609
C124	C	0.512640	-0.407908	0.407696
C125	C	0.582149	-0.417059	0.416807
H126	H	0.488659	-0.437321	0.437024
H127	H	0.501033	-0.417754	0.362208
H128	H	0.501087	-0.362443	0.417689
H129	H	0.593703	-0.462524	0.406809
H130	H	0.593760	-0.407218	0.462306
C131	C	0.328805	-0.197049	0.197506
C132	C	0.374760	-0.235086	0.235426
H133	H	0.352786	-0.167633	0.168182
H134	H	0.301256	-0.171206	0.227047
H135	H	0.301213	-0.226516	0.171564
H136	H	0.402348	-0.205620	0.261373
H137	H	0.402320	-0.260931	0.205881
C138	C	1.107018	-0.619584	0.197353
C139	C	1.068984	-0.573637	0.235300
H140	H	1.136405	-0.595596	0.168004
H141	H	1.077553	-0.647195	0.171442
H142	H	1.132899	-0.647114	0.226880
H143	H	1.043100	-0.546110	0.205773
H144	H	1.098453	-0.546015	0.261213
C145	C	1.107151	-0.975340	0.197421
C146	C	1.069115	-0.929396	0.235369
H147	H	1.136540	-0.951350	0.168076
H148	H	1.077688	-1.002949	0.171506
H149	H	1.133030	-1.002872	0.226948
H150	H	1.043232	-0.901867	0.205842
H151	H	1.098582	-0.901775	0.261286
C152	C	1.112646	-1.118343	0.273628
C153	C	1.069185	-1.077774	0.235396
H154	H	1.142062	-1.142310	0.244288
H155	H	1.086865	-1.149518	0.299375
H156	H	1.138493	-1.090712	0.303141
H157	H	1.043334	-1.105405	0.205886
H158	H	1.094968	-1.046596	0.209637
C159	C	0.849302	-1.031877	0.454926
C160	C	0.887330	-1.077818	0.416965
H161	H	0.819927	-1.055869	0.484283
H162	H	0.823415	-1.004349	0.425413
H163	H	0.878777	-1.004264	0.480836
H164	H	0.857855	-1.105428	0.391052
H165	H	0.913219	-1.105358	0.446482
H166	H	0.899618	-0.939502	0.404618
H167	H	1.056747	-0.247482	0.584489
