data_functionalizedCrystal
_audit_creation_method	'MofGen! by Chris Wilmer'
_symmetry_space_group_name_H-M	'P1'
_symmetry_Int_Tables_number	1
_symmetry_cell_setting	triclinic
loop_
_symmetry_equiv_pos_as_xyz
  x,y,z
_cell_length_a	6.817900
_cell_length_b	16.418049
_cell_length_c	17.110486
_cell_angle_alpha	96.329277
_cell_angle_beta	99.060439
_cell_angle_gamma	103.389670
loop_
_atom_site_label
_atom_site_type_symbol
_atom_site_fract_x
_atom_site_fract_y
_atom_site_fract_z
V1	V	-3.976398	-0.115636	-0.246998
O2	O	-3.965399	0.005813	-0.242010
O3	O	-3.927750	-0.229534	-0.245585
O4	O	-3.906264	-0.113745	-0.354597
O5	O	-3.987034	-0.110777	-0.132243
V6	V	-4.462874	-0.101123	-0.233239
O7	O	-4.231178	-0.147473	-0.277180
O8	O	-4.658291	-0.069286	-0.203057
O9	O	-4.288315	0.012775	-0.234653
O10	O	-4.591270	-0.222573	-0.238228
O11	O	-4.569634	-0.105982	-0.347994
O12	O	-4.309801	-0.103014	-0.125640
C13	C	-3.773394	-0.257304	-0.241759
C14	C	-3.814761	-0.350416	-0.241321
C15	C	-4.091195	-0.568902	-0.244285
C16	C	-4.130051	-0.656392	-0.243880
C17	C	-3.767434	-0.647856	-0.235957
C18	C	-3.728583	-0.560369	-0.236368
C19	C	-3.890469	-0.520894	-0.240528
C20	C	-3.968176	-0.695871	-0.239712
C21	C	-4.010303	-0.790731	-0.239273
C22	C	-3.848340	-0.426028	-0.240969
C23	C	-3.745985	-0.109602	-0.380814
C24	C	-3.769925	-0.108809	-0.468778
C25	C	-3.962449	-0.112617	-0.514145
C26	C	-3.984931	-0.111872	-0.596797
C27	C	-3.814889	-0.107324	-0.634081
C28	C	-3.622347	-0.103514	-0.588707
C29	C	-3.599865	-0.104253	-0.506056
C30	C	-3.873698	-0.104877	-0.883430
C31	C	-3.896197	-0.104141	-0.966087
C32	C	-4.258780	-0.112497	-0.974171
C33	C	-4.236283	-0.113241	-0.891519
C34	C	-4.043742	-0.109426	-0.846152
C35	C	-3.837865	-0.106565	-0.718564
C36	C	-4.020765	-0.110179	-0.761669
C37	C	-4.106013	0.040540	-0.238476
C38	C	-4.043883	0.133651	-0.238919
C39	C	-4.133423	-0.107160	-0.099419
C40	C	-4.088722	-0.107949	-0.011454
H41	H	-4.223015	-0.536764	-0.247671
C42	C	-3.664739	-0.100678	-0.834085
C43	C	-3.605614	-0.028506	-0.775523
C44	C	-3.413161	-0.024653	-0.730041
H45	H	-3.672489	-0.149831	-0.808985
H46	H	-3.566528	-0.097852	-0.868061
H47	H	-3.703799	-0.031339	-0.741552
H48	H	-3.597817	0.020659	-0.800600
H49	H	-3.314950	-0.021827	-0.764017
H50	H	-3.420930	-0.073809	-0.704947
H51	H	-3.373011	0.024318	-0.690307
C52	C	-3.510534	-0.508255	-0.232121
C53	C	-3.386500	-0.515722	-0.161199
C54	C	-3.185639	-0.467719	-0.157257
H55	H	-3.458471	-0.528392	-0.276743
H56	H	-3.510480	-0.450481	-0.232919
H57	H	-3.386545	-0.573485	-0.160408
H58	H	-3.438497	-0.495580	-0.116565
H59	H	-3.185585	-0.409945	-0.158055
H60	H	-3.133597	-0.487861	-0.201882
H61	H	-3.101462	-0.472773	-0.109134
H62	H	-3.483895	-0.099806	-0.619069
H63	H	-4.293499	-0.695477	-0.246941
C64	C	-4.205394	-0.115292	-0.721176
C65	C	-4.238545	-0.188355	-0.684815
C66	C	-4.408621	-0.193103	-0.647508
H67	H	-4.180328	-0.066754	-0.681705
H68	H	-4.323362	-0.117505	-0.760013
H69	H	-4.120604	-0.186135	-0.645982
H70	H	-4.263646	-0.236906	-0.724270
H71	H	-4.526589	-0.195316	-0.686345
H72	H	-4.383539	-0.144562	-0.608040
H73	H	-4.431148	-0.242680	-0.622839
H74	H	-4.100923	-0.116325	-0.483796
C75	C	-4.467750	-0.116760	-1.023548
C76	C	-4.526687	-0.188952	-1.082083
C77	C	-4.719170	-0.192899	-1.127592
H78	H	-4.566021	-0.119620	-0.989610
H79	H	-4.460056	-0.067608	-1.048663
H80	H	-4.534395	-0.238092	-1.056969
H81	H	-4.428469	-0.186108	-1.116039
H82	H	-4.711475	-0.143746	-1.152707
H83	H	-4.817424	-0.195756	-1.093648
H84	H	-4.759174	-0.241876	-1.167318
H85	H	-3.443083	-0.101132	-0.469116
H86	H	-3.635637	-0.680007	-0.232569
H87	H	-4.141699	-0.114968	-0.633731
H88	H	-4.374753	-0.116943	-0.861168
H89	H	-3.757716	-0.100435	-0.996440
H90	H	-3.699422	-0.102866	-0.748930
