data_functionalizedCrystal
_audit_creation_method	'MofGen! by Chris Wilmer'
_symmetry_space_group_name_H-M	'P1'
_symmetry_Int_Tables_number	1
_symmetry_cell_setting	triclinic
loop_
_symmetry_equiv_pos_as_xyz
  x,y,z
_cell_length_a	10.489741
_cell_length_b	10.489741
_cell_length_c	12.376457
_cell_angle_alpha	101.393369
_cell_angle_beta	78.592858
_cell_angle_gamma	84.539174
loop_
_atom_site_label
_atom_site_type_symbol
_atom_site_fract_x
_atom_site_fract_y
_atom_site_fract_z
O1	O	1.718274	0.155761	-0.093933
O2	O	1.347082	0.172650	-0.093951
O3	O	1.541123	-0.021391	-0.093935
O4	O	1.524233	0.349801	-0.093949
O5	O	1.492629	0.027053	0.094073
O6	O	1.298589	0.221093	0.094057
O7	O	1.669780	0.204205	0.094075
Zn8	Zn	1.476485	0.220340	0.123916
Zn9	Zn	1.540377	0.156514	-0.123793
O10	O	1.475740	0.398245	0.094059
C11	C	1.515600	-0.044701	0.000068
C12	C	1.511784	-0.186331	0.000066
C13	C	1.275305	0.195595	0.000051
C14	C	1.133677	0.191776	0.000044
C15	C	1.388323	-0.254474	0.000052
C16	C	1.422736	-0.322711	0.092752
C17	C	1.470576	-0.370447	-0.092609
C18	C	1.546228	-0.252682	0.092843
C19	C	1.594072	-0.300430	-0.092601
C20	C	1.628569	-0.368634	0.000122
C21	C	1.065533	0.068315	0.000060
C22	C	0.997316	0.102754	-0.092638
C23	C	0.949539	0.150545	0.092723
C24	C	1.067345	0.226245	-0.092730
C25	C	1.019556	0.274041	0.092715
C26	C	0.951373	0.308563	-0.000006
C27	C	1.741559	0.181259	0.000070
C28	C	1.883188	0.185076	0.000069
C29	C	1.501263	0.421554	0.000053
C30	C	1.505082	0.563183	0.000048
N31	N	1.432890	0.263900	0.292971
N32	N	1.583983	0.112945	-0.292847
C33	C	1.685181	0.011805	0.647977
C34	C	1.715686	-0.018682	0.529639
C35	C	1.644989	0.051960	0.470466
C36	C	1.543783	0.153096	0.529643
C37	C	1.513281	0.183593	0.647991
C38	C	1.473090	0.223748	0.470481
C39	C	1.371883	0.324884	0.529657
C40	C	1.341386	0.355376	0.647995
C41	C	1.412083	0.284733	0.707167
C42	C	1.503591	0.193251	0.352132
C43	C	1.331692	0.365039	0.352147
C44	C	1.301187	0.395527	0.470484
H45	H	1.286788	-0.204800	0.000141
H46	H	1.578186	-0.201634	0.171302
H47	H	1.438536	-0.421607	-0.170987
H48	H	1.350282	-0.333530	0.171119
H49	H	1.669831	0.027133	0.374111
Cl50	Cl	1.142227	-0.088443	-0.000073
H51	H	1.387243	0.309551	0.803528
H52	H	1.118409	0.258229	-0.171187
Cl53	Cl	1.785412	-0.444926	0.000204
H54	H	1.666483	-0.289579	-0.170972
H55	H	1.030388	0.346432	0.171085
H56	H	1.274127	0.422566	0.303969
Cl57	Cl	0.980641	-0.009073	-0.213633
H58	H	0.901963	0.410152	-0.000060
Cl59	Cl	1.630816	0.066113	0.277754
Cl60	Cl	0.870505	0.101037	0.213721
H61	H	1.798088	-0.101025	0.481463
Cl62	Cl	1.774057	-0.076982	0.722366
H63	H	1.258988	0.437736	0.696176
Cl64	Cl	1.173960	0.522667	0.544889
