data_functionalizedCrystal
_audit_creation_method	'MofGen! by Chris Wilmer'
_symmetry_space_group_name_H-M	'P1'
_symmetry_Int_Tables_number	1
_symmetry_cell_setting	triclinic
loop_
_symmetry_equiv_pos_as_xyz
  x,y,z
_cell_length_a	15.944551
_cell_length_b	14.853567
_cell_length_c	13.930277
_cell_angle_alpha	90.000757
_cell_angle_beta	90.002726
_cell_angle_gamma	83.566834
loop_
_atom_site_label
_atom_site_type_symbol
_atom_site_fract_x
_atom_site_fract_y
_atom_site_fract_z
O1	O	-1.114657	-0.116273	-0.079723
O2	O	-0.614657	0.383727	0.420277
O3	O	-0.870123	-0.130608	-0.079745
O4	O	-0.370123	0.369392	0.420255
O5	O	-0.998922	0.007798	-0.079736
O6	O	-0.498922	0.507798	0.420264
O7	O	-0.985858	-0.254678	-0.079732
O8	O	-0.485858	0.245322	0.420268
O9	O	-0.998904	0.007801	0.079926
O10	O	-0.498904	0.507801	0.579926
O11	O	-0.870106	-0.130605	0.079916
O12	O	-0.370106	0.369395	0.579916
O13	O	-1.114639	-0.116270	0.079939
O14	O	-0.614639	0.383730	0.579939
Zn15	Zn	-0.992370	-0.123437	0.105278
Zn16	Zn	-0.492370	0.376563	0.605278
Zn17	Zn	-0.992393	-0.123441	-0.105084
Zn18	Zn	-0.492393	0.376559	0.394916
O19	O	-0.985841	-0.254675	0.079930
O20	O	-0.485841	0.245325	0.579930
C21	C	-0.998321	0.041387	0.000092
C22	C	-0.498321	0.541387	0.500092
C23	C	-0.996547	0.141469	0.000083
C24	C	-0.496547	0.641469	0.500083
C25	C	-0.838820	-0.130011	0.000082
C26	C	-0.338820	0.369989	0.500082
C27	C	-0.745572	-0.128227	0.000073
C28	C	-0.245572	0.371773	0.500073
C29	C	-1.145943	-0.116866	0.000109
C30	C	-0.645943	0.383134	0.500109
C31	C	-1.239191	-0.118650	0.000112
C32	C	-0.739191	0.381350	0.500112
C33	C	-0.530615	-0.038172	0.000090
C34	C	-0.030615	0.461828	0.500090
C35	C	-0.469650	-0.079992	-0.078631
C36	C	0.030350	0.420008	0.421369
C37	C	-0.574842	-0.124999	0.000085
C38	C	-0.074842	0.375001	0.500085
C39	C	-0.469655	-0.080010	0.078783
C40	C	0.030345	0.419990	0.578783
C41	C	-0.409926	-0.121875	0.000100
C42	C	0.090074	0.378125	0.500100
C43	C	-0.515106	-0.166843	-0.078701
C44	C	-0.015106	0.333157	0.421299
C45	C	-0.515117	-0.166849	0.078783
C46	C	-0.015117	0.333151	0.578783
C47	C	-0.454170	-0.208732	0.000043
C48	C	0.045830	0.291268	0.500043
C49	C	-0.669847	-0.126797	0.000075
C50	C	-0.169847	0.373203	0.500075
C51	C	-0.314923	-0.120085	0.000102
C52	C	0.185077	0.379915	0.500102
C53	C	-0.986441	-0.288265	0.000100
C54	C	-0.486441	0.211735	0.500100
C55	C	-0.988215	-0.388346	0.000102
C56	C	-0.488215	0.111654	0.500102
N57	N	-0.992360	-0.123434	0.248844
N58	N	-0.492360	0.376566	0.748844
C59	C	-0.912540	0.553895	0.000094
C60	C	-0.412540	1.053895	0.500094
C61	C	-1.065556	0.575372	0.000108
C62	C	-0.565556	1.075372	0.500108
C63	C	-1.067224	0.481341	0.000102
C64	C	-0.567224	0.981341	0.500102
C65	C	-0.991549	0.423582	0.000094
C66	C	-0.491549	0.923582	0.500094
C67	C	-0.914206	0.459854	0.000091
C68	C	-0.414206	0.959854	0.500091
C69	C	-1.144565	0.445061	0.000115
C70	C	-0.644565	0.945061	0.500115
C71	C	-1.146236	0.351024	0.000111
C72	C	-0.646236	0.851024	0.500111
C73	C	-1.070560	0.293263	0.000095
C74	C	-0.570560	0.793263	0.500095
C75	C	-0.993214	0.329541	0.000091
C76	C	-0.493214	0.829541	0.500091
C77	C	-0.917539	0.271782	0.000083
C78	C	-0.417539	0.771782	0.500083
C79	C	-0.840192	0.308058	0.000072
C80	C	-0.340192	0.808058	0.500072
C81	C	-0.838530	0.402093	0.000076
C82	C	-0.338530	0.902093	0.500076
C83	C	-1.072223	0.199228	0.000092
C84	C	-0.572223	0.699228	0.500092
C85	C	-0.919205	0.177741	0.000080
C86	C	-0.419205	0.677741	0.500080
N87	N	-0.992410	-0.123437	-0.248650
N88	N	-0.492410	0.376563	0.251350
C89	C	-0.935359	-0.184703	0.701109
C90	C	-0.435359	0.315297	1.201109
C91	C	-1.049451	-0.062172	0.701086
C92	C	-0.549451	0.437828	1.201086
C93	C	-1.049441	-0.062169	0.600591
C94	C	-0.549441	0.437831	1.100591
C95	C	-0.992390	-0.123435	0.550349
C96	C	-0.492390	0.376565	1.050349
C97	C	-0.935349	-0.184704	0.600604
C98	C	-0.435349	0.315296	1.100604
C99	C	-1.106486	-0.000907	0.550329
C100	C	-0.606486	0.499093	1.050329
C101	C	-1.106479	-0.000903	0.449827
C102	C	-0.606479	0.499097	0.949827
C103	C	-1.049423	-0.062165	0.399584
C104	C	-0.549423	0.437835	0.899584
C105	C	-0.992380	-0.123436	0.449844
C106	C	-0.492380	0.376564	0.949844
C107	C	-0.935329	-0.184702	0.399603
C108	C	-0.435329	0.315298	0.899603
C109	C	-0.878280	-0.245969	0.449862
C110	C	-0.378280	0.254031	0.949862
C111	C	-0.878293	-0.245966	0.550361
C112	C	-0.378293	0.254034	1.050361
C113	C	-1.049410	-0.062168	0.299085
C114	C	-0.549410	0.437832	0.799085
C115	C	-0.935319	-0.184702	0.299098
C116	C	-0.435319	0.315298	0.799098
H117	H	-0.563867	0.033887	-0.000008
H118	H	-0.063867	0.533887	0.499992
C119	C	-0.835954	0.114213	0.000068
C120	C	-0.335954	0.614213	0.500068
N121	N	-0.773249	0.066364	0.000059
N122	N	-0.273249	0.566364	0.500059
H123	H	-0.831847	-0.295848	0.591288
H124	H	-0.331847	0.204152	1.091288
H125	H	-1.152930	0.048985	0.408912
H126	H	-0.652930	0.548985	0.908912
H127	H	-0.449506	-0.043269	-0.145185
H128	H	0.050494	0.456731	0.354815
H129	H	-0.831832	-0.295856	0.408944
H130	H	-0.331832	0.204144	0.908944
C131	C	-1.112203	0.005217	0.756355
C132	C	-0.612203	0.505217	1.256355
N133	N	-1.159469	0.055979	0.797988
N134	N	-0.659469	0.555979	1.297988
H135	H	-0.888908	-0.234583	0.742032
H136	H	-0.388908	0.265417	1.242032
H137	H	-1.127167	0.622405	0.000123
H138	H	-0.627167	1.122405	0.500123
C139	C	-0.542172	-0.216413	-0.168715
C140	C	-0.042172	0.283587	0.331285
N141	N	-0.562560	-0.253744	-0.236514
N142	N	-0.062560	0.246256	0.263486
C143	C	-1.112160	0.005221	0.243805
C144	C	-0.612160	0.505221	0.743805
N145	N	-1.159425	0.055984	0.202169
N146	N	-0.659425	0.555984	0.702169
C147	C	-1.169238	0.066480	0.605600
C148	C	-0.669238	0.566480	1.105600
N149	N	-1.216502	0.117242	0.647235
N150	N	-0.716502	0.617242	1.147235
H151	H	-0.421092	-0.280866	0.000001
H152	H	0.078908	0.219134	0.500001
C153	C	-0.872578	-0.252124	0.243841
C154	C	-0.372578	0.247876	0.743841
N155	N	-0.825330	-0.302916	0.202222
N156	N	-0.325330	0.197084	0.702222
C157	C	-0.542367	-0.216415	0.168700
C158	C	-0.042367	0.283585	0.668700
N159	N	-0.562896	-0.253741	0.236434
N160	N	-0.062896	0.246259	0.736434
H161	H	-1.206176	0.492094	0.000131
H162	H	-0.706176	0.992094	0.500131
C163	C	-0.756952	0.244511	0.000063
C164	C	-0.256952	0.744511	0.500063
N165	N	-0.694258	0.196644	0.000054
N166	N	-0.194258	0.696644	0.500054
C167	C	-0.442455	-0.030375	0.168691
C168	C	0.057545	0.469625	0.668691
N169	N	-0.421972	0.007015	0.236406
N170	N	0.078028	0.507015	0.736406
H171	H	-0.775558	0.431638	0.000068
H172	H	-0.275558	0.931638	0.500068
H173	H	-0.849566	0.583435	0.000081
H174	H	-0.349566	1.083435	0.500081
C175	C	-1.231319	0.311129	0.000115
C176	C	-0.731319	0.811129	0.500115
N177	N	-1.295403	0.281079	0.000115
N178	N	-0.795403	0.781079	0.500115
C179	C	-1.157299	0.159328	0.000104
C180	C	-0.657299	0.659328	0.500104
N181	N	-1.221383	0.129277	0.000110
N182	N	-0.721383	0.629277	0.500110
