data_functionalizedCrystal
_audit_creation_method	'MofGen! by Chris Wilmer'
_symmetry_space_group_name_H-M	'P1'
_symmetry_Int_Tables_number	1
_symmetry_cell_setting	triclinic
loop_
_symmetry_equiv_pos_as_xyz
  x,y,z
_cell_length_a	19.851628
_cell_length_b	14.809374
_cell_length_c	14.809374
_cell_angle_alpha	61.589507
_cell_angle_beta	98.955818
_cell_angle_gamma	55.129219
loop_
_atom_site_label
_atom_site_type_symbol
_atom_site_fract_x
_atom_site_fract_y
_atom_site_fract_z
Zr1	Zr	0.475472	1.187579	-0.306961
O2	O	0.320534	1.413972	-0.488611
O3	O	0.544063	0.961202	-0.226544
O4	O	0.491502	1.187576	-0.452918
O5	O	0.390560	1.187595	-0.111801
O6	O	0.602369	1.187555	-0.452897
O7	O	0.373095	1.187598	-0.262236
O8	O	0.696391	0.782613	-0.047954
O9	O	0.296538	1.592537	-0.516744
O10	O	0.630569	1.054292	-0.222111
O11	O	0.560864	1.054305	-0.109859
O12	O	0.498981	1.320832	-0.376386
O13	O	0.429276	1.320845	-0.264134
Zr14	Zr	0.680146	1.187540	-0.067000
Zr15	Zr	0.652291	1.187545	-0.306926
Zr16	Zr	0.503326	1.187573	-0.067035
Zr17	Zr	0.437201	1.472368	-0.351830
Zr18	Zr	0.718417	0.902750	-0.022131
O19	O	0.611554	1.413917	-0.147417
O20	O	0.571949	1.413925	-0.488562
O21	O	0.360139	1.413965	-0.147466
O22	O	0.835083	0.961147	0.114649
O23	O	0.795478	0.961154	-0.226495
O24	O	0.583669	0.961194	0.114600
O25	O	0.765058	1.187524	-0.262160
O26	O	0.664115	1.187543	0.078957
O27	O	0.553248	1.187564	0.078935
O28	O	0.782522	1.187521	-0.111725
O29	O	0.437086	1.592510	-0.516716
O30	O	0.718531	0.782609	0.142755
O31	O	0.859079	0.782582	0.142783
O32	O	0.836939	0.782586	-0.047927
O33	O	0.318678	1.592532	-0.326034
O34	O	0.459226	1.592506	-0.326007
O35	O	0.656637	1.054287	0.002425
O36	O	0.726342	1.054274	-0.109827
O37	O	0.594753	1.320813	-0.264102
O38	O	0.525048	1.320827	-0.151850
C39	C	0.625680	0.831331	-0.130856
C40	C	0.641927	0.710430	-0.111808
C41	C	0.569418	0.750030	-0.196817
C42	C	0.586209	0.625075	-0.177132
C43	C	0.356634	1.187601	-0.187024
C44	C	0.281570	1.187615	-0.187038
C45	C	0.028486	1.332910	-0.271113
C46	C	0.010737	1.260266	-0.304027
C47	C	0.144172	1.187576	-0.187000
C48	C	0.028177	1.260229	-0.154108
C49	C	0.011447	1.187548	-0.186965
C50	C	0.127405	1.114931	-0.219976
C51	C	0.144846	1.114915	-0.070001
C52	C	0.127167	1.042165	-0.102872
C53	C	0.220629	1.187596	-0.187023
C54	C	-0.065004	1.187517	-0.186942
C55	C	0.798983	1.187518	-0.186937
C56	C	0.874048	1.187503	-0.186923
C57	C	0.542967	1.187566	-0.487092
C58	C	0.531142	1.187568	-0.588947
C59	C	0.529937	1.543788	-0.243105
C60	C	0.513690	1.664689	-0.262153
C61	C	0.583915	1.187558	-0.634346
C62	C	0.571695	1.187561	-0.739618
C63	C	0.612650	1.187553	0.113131
C64	C	0.624475	1.187551	0.214986
C65	C	0.846854	0.831289	-0.130813
C66	C	0.938166	0.710374	-0.111750
C67	C	0.660521	0.831324	0.169255
C68	C	0.688593	0.710421	0.290158
C69	C	0.881696	0.831282	0.169298
C70	C	0.984832	0.710365	0.290216
C71	C	0.273921	1.543836	-0.543259
C72	C	0.170785	1.664754	-0.664177
C73	C	0.308763	1.543830	-0.243148
C74	C	0.217451	1.664745	-0.262211
C75	C	0.495096	1.543795	-0.543216
C76	C	0.467024	1.664697	-0.664119
C77	C	0.931054	0.653601	-0.161419
C78	C	1.016839	0.540004	-0.143533
C79	C	1.109738	0.483175	-0.075969
C80	C	1.116847	0.539960	-0.026300
C81	C	1.031061	0.653562	-0.044195
C82	C	0.751770	0.653635	0.405557
C83	C	0.778142	0.540049	0.519165
C84	C	0.741343	0.483245	0.517373
C85	C	0.678159	0.540043	0.401961
C86	C	0.651781	0.653634	0.288355
C87	C	1.069659	0.653574	0.288406
C88	C	1.166570	0.539976	0.402009
C89	C	1.178654	0.483162	0.517422
C90	C	1.093817	0.539964	0.519229
C91	C	0.996907	0.653569	0.405625
C92	C	0.085956	1.721558	-0.662369
C93	C	-0.010960	1.835192	-0.775978
C94	C	-0.023044	1.892012	-0.891392
C95	C	0.061794	1.835202	-0.893197
C96	C	0.158707	1.721578	-0.779591
C97	C	0.224561	1.721530	-0.212554
C98	C	0.138768	1.835158	-0.230472
C99	C	0.045869	1.891991	-0.298039
C100	C	0.038760	1.835201	-0.347703
C101	C	0.124550	1.721583	-0.329793
C102	C	0.503840	1.721466	-0.662286
C103	C	0.477483	1.835052	-0.775875
C104	C	0.414303	1.891875	-0.891299
C105	C	0.377487	1.835096	-0.893128
C106	C	0.403851	1.721504	-0.779539
H107	H	0.439179	0.791101	-0.349516
H108	H	0.517467	1.187563	-0.778677
H109	H	0.373862	1.675296	-0.781050
H110	H	0.660723	0.498661	-0.089774
N111	N	0.312986	1.893059	-1.011001
N112	N	0.225003	1.956438	-1.049598
H113	H	0.179464	1.997340	-1.132836
N114	N	0.515073	1.893066	-0.773995
N115	N	0.454059	2.032534	-0.836297
H116	H	0.480605	2.073506	-0.834968
H117	H	0.638148	1.187540	-0.595274
H118	H	-0.036890	1.881492	-0.402718
H119	H	0.118749	1.675351	-0.370228
H120	H	0.392844	1.984370	-0.983782
H121	H	0.494913	0.876441	-0.284174
N122	N	0.568391	1.663401	-0.544380
N123	N	0.591938	1.561973	-0.442957
H124	H	0.637533	1.520962	-0.359686
H125	H	0.716435	0.584019	-0.024457
N126	N	0.692515	1.187520	-0.735994
N127	N	0.702352	1.187510	-0.650542
H128	H	0.750405	1.187487	-0.615918
H129	H	1.059839	0.699815	0.194442
N130	N	0.463125	1.187563	-0.637952
N131	N	0.453298	1.187556	-0.723394
H132	H	0.405260	1.187550	-0.758003
N133	N	-0.097597	1.893190	-0.774094
N134	N	-0.086783	1.842425	-0.671030
H135	H	-0.147968	1.883382	-0.669694
H136	H	-0.012498	1.455797	-0.342315
H137	H	1.257570	0.390658	0.609916
H138	H	0.300198	1.675265	-0.157527
N139	N	-0.061302	1.337333	-0.428136
N140	N	-0.116538	1.475179	-0.521282
H141	H	-0.167416	1.529617	-0.608938
H142	H	0.855415	0.699869	-0.216450
H143	H	0.144576	1.881377	-0.190021
H144	H	0.169984	1.053552	-0.247894
N145	N	1.009545	0.482031	-0.194282
N146	N	0.926594	0.532780	-0.254589
H147	H	0.921439	0.491840	-0.290431
H148	H	0.168311	0.919178	-0.031727
N149	N	1.197382	0.367004	-0.057578
N150	N	1.191028	0.316244	-0.101848
H151	H	1.252935	0.234145	-0.088811
N152	N	1.211753	0.481883	0.042712
N153	N	1.288334	0.380444	0.058680
H154	H	1.355366	0.339416	0.107427
H155	H	0.202260	1.053542	0.028900
H156	H	1.103671	0.493690	0.613213
H157	H	-0.014531	1.321680	-0.126304
H158	H	0.829592	0.493818	0.613126
N159	N	0.049422	1.893251	-1.011105
N160	N	0.013668	1.880582	-1.075580
H161	H	0.004926	1.921578	-1.158856
H162	H	1.036867	0.699772	-0.003738
H163	H	0.781741	0.699872	0.407039
N164	N	0.910282	0.711517	0.407523
N165	N	0.907010	0.622707	0.471465
H166	H	0.845837	0.663621	0.472820
N167	N	0.768318	0.367180	0.633432
N168	N	0.815243	0.240386	0.669979
H169	H	0.834302	0.158408	0.751951
H170	H	0.648202	0.493776	0.400521
N171	N	0.587247	0.711614	0.170492
N172	N	0.554406	0.660870	0.168925
H173	H	0.508826	0.701814	0.085686
H174	H	1.235637	0.493739	0.400517
H175	H	0.095778	1.675302	-0.568403
H176	H	-0.101962	1.984531	-0.983889
N177	N	0.245343	1.663575	-0.781470
N178	N	0.234528	1.714328	-0.884533
H179	H	0.295712	1.673371	-0.885871
N180	N	-0.041751	2.008054	-0.316322
N181	N	-0.035377	2.058732	-0.271971
H182	H	-0.097254	2.140700	-0.284877
