data_functionalizedCrystal
_audit_creation_method	'MofGen! by Chris Wilmer'
_symmetry_space_group_name_H-M	'P1'
_symmetry_Int_Tables_number	1
_symmetry_cell_setting	triclinic
loop_
_symmetry_equiv_pos_as_xyz
  x,y,z
_cell_length_a	21.395362
_cell_length_b	12.759401
_cell_length_c	12.759393
_cell_angle_alpha	90.020938
_cell_angle_beta	89.966019
_cell_angle_gamma	89.970095
loop_
_atom_site_label
_atom_site_type_symbol
_atom_site_fract_x
_atom_site_fract_y
_atom_site_fract_z
Zn1	Zn	-0.249383	-1.606167	-0.593995
Zn2	Zn	0.250617	-1.106167	-0.093995
Zn3	Zn	-0.354173	-1.606016	-0.418304
Zn4	Zn	0.145827	-1.106016	0.081696
Zn5	Zn	-0.249416	-1.430465	-0.418330
Zn6	Zn	0.250584	-0.930465	0.081670
Zn7	Zn	-0.354129	-1.430415	-0.593941
Zn8	Zn	0.145871	-0.930415	-0.093941
O9	O	-0.301775	-1.518266	-0.506142
O10	O	0.198225	-1.018266	-0.006142
O11	O	-0.263288	-1.753168	-0.570700
O12	O	0.236712	-1.253168	-0.070700
O13	O	-0.340309	-1.582686	-0.271286
O14	O	0.159691	-1.082686	0.228714
O15	O	-0.161734	-1.453856	-0.441665
O16	O	0.338266	-0.953856	0.058335
O17	O	-0.340277	-1.753057	-0.441621
O18	O	0.159723	-1.253057	0.058379
O19	O	-0.161709	-1.582943	-0.570725
O20	O	0.338291	-1.082943	-0.070725
O21	O	-0.263345	-1.453710	-0.271305
O22	O	0.236655	-0.953710	0.228695
O23	O	-0.263302	-1.283438	-0.441613
O24	O	0.236698	-0.783438	0.058387
O25	O	-0.340202	-1.453771	-0.740969
O26	O	0.159798	-0.953771	-0.240969
O27	O	-0.340234	-1.283401	-0.570634
O28	O	0.159766	-0.783401	-0.070634
O29	O	-0.263245	-1.582895	-0.741009
O30	O	0.236755	-1.082895	-0.241009
O31	O	-0.441845	-1.582638	-0.441570
O32	O	0.058155	-1.082638	0.058430
O33	O	-0.441813	-1.453625	-0.570610
O34	O	0.058187	-0.953625	-0.070610
C35	C	-0.301768	-1.245298	-0.506122
C36	C	0.198232	-0.745298	-0.006122
C37	C	-0.301779	-1.128522	-0.506138
C38	C	0.198221	-0.628522	-0.006138
C39	C	-0.464563	-1.518138	-0.506104
C40	C	0.035437	-1.018138	-0.006104
C41	C	-0.534204	-1.518180	-0.506123
C42	C	-0.034204	-1.018180	-0.006123
C43	C	-1.035934	-1.585612	-0.573479
C44	C	-0.535934	-1.085612	-0.073479
C45	C	-0.970499	-1.585581	-0.573463
C46	C	-0.470499	-1.085581	-0.073463
C47	C	-0.937842	-1.518409	-0.506208
C48	C	-0.437842	-1.018409	-0.006208
C49	C	-0.970626	-1.451281	-0.438947
C50	C	-0.470626	-0.951281	0.061053
C51	C	-1.036061	-1.451321	-0.438958
C52	C	-0.536061	-0.951321	0.061042
C53	C	-0.834229	-1.423693	-0.497810
C54	C	-0.334229	-0.923693	0.002190
C55	C	-0.768796	-1.423652	-0.497806
C56	C	-0.268796	-0.923652	0.002194
C57	C	-0.736022	-1.518285	-0.506168
C58	C	-0.236022	-1.018285	-0.006168
C59	C	-0.768688	-1.612964	-0.514556
C60	C	-0.268688	-1.112964	-0.014556
C61	C	-0.834123	-1.613004	-0.514567
C62	C	-0.334123	-1.113004	-0.014567
C63	C	-0.866890	-1.518358	-0.506188
C64	C	-0.366890	-1.018358	-0.006188
C65	C	-0.632293	-1.585381	-0.573403
C66	C	-0.132293	-1.085381	-0.073403
C67	C	-0.566856	-1.585351	-0.573379
C68	C	-0.066856	-1.085351	-0.073379
C69	C	-0.566985	-1.451042	-0.438868
C70	C	-0.066985	-0.951042	0.061132
C71	C	-0.632420	-1.451080	-0.438887
C72	C	-0.132420	-0.951080	0.061113
C73	C	-0.665070	-1.518248	-0.506159
C74	C	-0.165070	-1.018248	-0.006159
C75	C	-0.301715	-1.518344	-0.780176
C76	C	0.198285	-1.018344	-0.280176
C77	C	-0.301689	-1.518378	-0.896953
C78	C	0.198311	-1.018378	-0.396953
C79	C	-0.138352	-1.518422	-0.506204
C80	C	0.361648	-1.018422	-0.006204
C81	C	-0.068711	-1.518489	-0.506230
C82	C	0.431289	-1.018489	-0.006230
C83	C	-0.301783	-1.792299	-0.506164
C84	C	0.198217	-1.292299	-0.006164
C85	C	-0.301787	-1.909076	-0.506173
C86	C	0.198213	-1.409076	-0.006173
C87	C	-0.341899	-1.073668	-0.573213
C88	C	0.158101	-0.573668	-0.073213
C89	C	-0.341901	-0.963944	-0.573234
C90	C	0.158099	-0.463944	-0.073234
C91	C	-0.261663	-0.963937	-0.439095
C92	C	0.238337	-0.463937	0.060905
C93	C	-0.261658	-1.073659	-0.439080
C94	C	0.238342	-0.573659	0.060920
C95	C	-0.261612	-1.585618	-0.951837
C96	C	0.238388	-1.085618	-0.451837
C97	C	-0.261585	-1.585635	-1.061561
C98	C	0.238415	-1.085635	-0.561561
C99	C	-0.341719	-1.451171	-1.061507
C100	C	0.158281	-0.951171	-0.561507
C101	C	-0.341742	-1.451148	-0.951785
C102	C	0.158258	-0.951148	-0.451785
C103	C	-0.301790	-1.518248	-0.233175
C104	C	0.198210	-1.018248	0.266825
C105	C	-0.301639	-1.518418	-0.116399
C106	C	0.198361	-1.018418	0.383601
H107	H	-1.062514	-1.640314	-0.628250
H108	H	-0.562514	-1.140314	-0.128250
H109	H	-0.374570	-0.919287	-0.627855
H110	H	0.125430	-0.419287	-0.127855
H111	H	-0.228948	-1.640387	-1.106243
H112	H	0.271052	-1.140387	-0.606243
F113	F	-0.218966	-0.905539	-0.367730
F114	F	0.281034	-0.405539	0.132270
H115	H	-0.228997	-1.640357	-0.907195
H116	H	0.271003	-1.140357	-0.407195
H117	H	-0.374567	-1.118334	-0.627818
H118	H	0.125433	-0.618334	-0.127818
H119	H	-0.228984	-1.118322	-0.384459
H120	H	0.271016	-0.618322	0.115541
F121	F	-0.868887	-1.713765	-0.523490
F122	F	-0.368887	-1.213765	-0.023490
H123	H	-0.374329	-1.396437	-1.106165
H124	H	0.125671	-0.896437	-0.606165
H125	H	-0.374378	-1.396386	-0.907097
H126	H	0.125622	-0.896386	-0.407097
H127	H	-0.658878	-1.640065	-0.628188
H128	H	-0.158878	-1.140065	-0.128188
H129	H	-0.943808	-1.640243	-0.628226
H130	H	-0.443808	-1.140243	-0.128226
H131	H	-0.540169	-1.640017	-0.628137
H132	H	-0.040169	-1.140017	-0.128137
F133	F	-0.532234	-1.379559	-0.367283
F134	F	-0.032234	-0.879559	0.132717
F135	F	-0.667305	-1.379632	-0.367316
F136	F	-0.167305	-0.879632	0.132684
F137	F	-0.733813	-1.713689	-0.523454
F138	F	-0.233813	-1.213689	-0.023454
H139	H	-0.742201	-1.346560	-0.490983
H140	H	-0.242201	-0.846560	0.009017
H141	H	-0.944034	-1.396590	-0.384185
H142	H	-0.444034	-0.896590	0.115815
F143	F	-0.869103	-1.322965	-0.488900
F144	F	-0.369103	-0.822965	0.011100
F145	F	-1.070944	-1.379876	-0.367380
F146	F	-0.570944	-0.879876	0.132620
