data_functionalizedCrystal
_audit_creation_method	'MofGen! by Chris Wilmer'
_symmetry_space_group_name_H-M	'P1'
_symmetry_Int_Tables_number	1
_symmetry_cell_setting	triclinic
loop_
_symmetry_equiv_pos_as_xyz
  x,y,z
_cell_length_a	29.839134
_cell_length_b	12.827892
_cell_length_c	12.827885
_cell_angle_alpha	90.029786
_cell_angle_beta	90.030984
_cell_angle_gamma	90.010254
loop_
_atom_site_label
_atom_site_type_symbol
_atom_site_fract_x
_atom_site_fract_y
_atom_site_fract_z
Zn1	Zn	0.686841	-0.416126	0.591175
Zn2	Zn	1.186841	0.083874	1.091175
Zn3	Zn	0.686795	-0.590903	0.416435
Zn4	Zn	1.186795	-0.090903	0.916435
Zn5	Zn	0.611712	-0.416161	0.416413
Zn6	Zn	1.111712	0.083839	0.916413
Zn7	Zn	0.611706	-0.590810	0.591100
Zn8	Zn	1.111706	-0.090810	1.091100
O9	O	0.649263	-0.503500	0.503781
O10	O	1.149263	-0.003500	1.003781
O11	O	0.749702	-0.439334	0.568037
O12	O	1.249702	0.060666	1.068037
O13	O	0.676819	-0.567777	0.270196
O14	O	1.176819	-0.067777	0.770196
O15	O	0.621700	-0.269920	0.439618
O16	O	1.121700	0.230080	0.939618
O17	O	0.749668	-0.567743	0.439656
O18	O	1.249668	-0.067743	0.939656
O19	O	0.676897	-0.269894	0.568015
O20	O	1.176897	0.230106	1.068015
O21	O	0.621655	-0.439395	0.270180
O22	O	1.121655	0.060605	0.770180
O23	O	0.548844	-0.439304	0.439545
O24	O	1.048844	0.060696	0.939545
O25	O	0.621689	-0.567584	0.737346
O26	O	1.121689	-0.067584	1.237346
O27	O	0.548839	-0.567618	0.567886
O28	O	1.048839	-0.067618	1.067886
O29	O	0.676890	-0.439244	0.737401
O30	O	1.176890	0.060756	1.237401
O31	O	0.676813	-0.737127	0.439583
O32	O	1.176813	-0.237127	0.939583
O33	O	0.621645	-0.737058	0.567908
O34	O	1.121645	-0.237058	1.067908
C35	C	0.649235	-0.775010	0.503762
C36	C	1.149235	-0.275010	1.003762
C37	C	0.649264	-0.891163	0.503789
C38	C	1.149264	-0.391163	1.003789
C39	C	0.532541	-0.503455	0.503705
C40	C	1.032541	-0.003455	1.003705
C41	C	0.482606	-0.503462	0.503698
C42	C	0.982606	-0.003462	1.003698
C43	C	0.676596	-0.942947	0.440361
C44	C	1.176596	-0.442947	0.940361
C45	C	0.676626	-1.062997	0.440387
C46	C	1.176626	-0.562997	0.940387
C47	C	0.172970	-0.570411	0.570526
C48	C	0.672970	-0.070411	1.070526
C49	C	-0.014703	-0.570441	0.570573
C50	C	0.485297	-0.070441	1.070573
O51	O	-0.038962	-0.627315	0.627348
O52	O	0.461038	-0.127315	1.127348
N53	N	-0.038179	-0.503538	0.503860
N54	N	0.461821	-0.003538	1.003860
C55	C	-0.014733	-0.436618	0.437135
C56	C	0.485267	0.063382	0.937135
O57	O	-0.039007	-0.379706	0.380400
O58	O	0.460993	0.120294	0.880400
C59	C	0.172939	-0.436584	0.437094
C60	C	0.672939	0.063416	0.937094
C61	C	0.196412	-0.503499	0.503804
C62	C	0.696412	-0.003499	1.003804
C63	C	0.196443	-0.637320	0.637232
C64	C	0.696443	-0.137320	1.137232
C65	C	0.243359	-0.637316	0.637216
C66	C	0.743359	-0.137316	1.137216
C67	C	0.266801	-0.570403	0.570494
C68	C	0.766801	-0.070403	1.070494
C69	C	0.243328	-0.503495	0.503788
C70	C	0.743328	-0.003495	1.003788
C71	C	0.196384	-0.369660	0.370376
C72	C	0.696384	0.130340	0.870376
C73	C	0.243305	-0.369655	0.370373
C74	C	0.743305	0.130345	0.870373
C75	C	0.266778	-0.436570	0.437083
C76	C	0.766778	0.063430	0.937083
C77	C	0.313685	-0.436578	0.437050
C78	C	0.813685	0.063422	0.937050
N79	N	0.337161	-0.503481	0.503763
N80	N	0.837161	-0.003481	1.003763
C81	C	0.313719	-0.570394	0.570485
C82	C	0.813719	-0.070394	1.070485
C83	C	-0.113264	-0.436642	0.437159
C84	C	0.386736	0.063358	0.937159
C85	C	-0.160182	-0.436652	0.437168
C86	C	0.339818	0.063348	0.937168
C87	C	-0.160148	-0.570473	0.570608
C88	C	0.339852	-0.070473	1.070608
C89	C	-0.113230	-0.570468	0.570593
C90	C	0.386770	-0.070468	1.070593
C91	C	-0.089788	-0.503545	0.503873
C92	C	0.410212	-0.003545	1.003873
C93	C	0.412245	-0.570381	0.570445
C94	C	0.912245	-0.070381	1.070445
C95	C	0.459164	-0.570374	0.570420
C96	C	0.959164	-0.070374	1.070420
C97	C	0.459127	-0.436549	0.436984
C98	C	0.959127	0.063451	0.936984
C99	C	0.412211	-0.436559	0.437005
C100	C	0.912211	0.063441	0.937005
C101	C	0.388771	-0.503479	0.503744
C102	C	0.888771	-0.003479	1.003744
O103	O	0.337973	-0.379726	0.380313
O104	O	0.837973	0.120274	0.880313
O105	O	0.338001	-0.627281	0.627228
O106	O	0.838001	-0.127281	1.127228
C107	C	0.126055	-0.570416	0.570543
C108	C	0.626055	-0.070416	1.070543
C109	C	0.102581	-0.503507	0.503837
C110	C	0.602581	-0.003507	1.003837
C111	C	0.126023	-0.436595	0.437115
C112	C	0.626023	0.063405	0.937115
C113	C	0.055663	-0.503517	0.503846
C114	C	0.555663	-0.003517	1.003846
C115	C	0.032221	-0.570429	0.570568
C116	C	0.532221	-0.070429	1.070568
C117	C	0.055697	-0.637332	0.637281
C118	C	0.555697	-0.137332	1.137281
C119	C	0.102612	-0.637328	0.637265
C120	C	0.602612	-0.137328	1.137265
C121	C	0.102548	-0.369692	0.370402
C122	C	0.602548	0.130308	0.870402
C123	C	0.055632	-0.369702	0.370423
C124	C	0.555632	0.130298	0.870423
C125	C	0.032190	-0.436614	0.437145
C126	C	0.532190	0.063386	0.937145
C127	C	0.766442	-0.503545	0.503857
C128	C	1.266442	-0.003545	1.003857
C129	C	0.816376	-0.503564	0.503890
C130	C	1.316376	-0.003564	1.003890
C131	C	0.649294	-0.503399	0.776351
C132	C	1.149294	-0.003399	1.276351
C133	C	0.649307	-0.503357	0.892504
C134	C	1.149307	-0.003357	1.392504
C135	C	0.649304	-0.230930	0.503822
C136	C	1.149304	0.269070	1.003822
C137	C	0.649321	-0.114776	0.503840
C138	C	1.149321	0.385224	1.003840
C139	C	0.649259	-0.503524	0.232271
C140	C	1.149259	-0.003524	0.732271
C141	C	0.649333	-0.503273	0.116118
C142	C	1.149333	-0.003273	0.616118
C143	C	0.676625	-0.439838	0.944317
C144	C	1.176625	0.060162	1.444317
C145	C	0.676640	-0.439792	1.064367
C146	C	1.176640	0.060208	1.564367
H147	H	0.699974	-0.898407	0.386040
H148	H	1.199974	-0.398407	0.886040
Br149	Br	0.610303	-0.965392	0.594347
Br150	Br	1.110303	-0.465392	1.094347
H151	H	0.625945	-0.557660	1.071568
H152	H	1.125945	-0.057660	1.571568
Br153	Br	0.610336	-0.593936	0.966694
Br154	Br	1.110336	-0.093936	1.466694
Br155	Br	0.164638	-0.728141	0.727797
Br156	Br	0.664638	-0.228141	1.227797
Br157	Br	0.715626	-1.137214	0.349863
Br158	Br	1.215626	-0.637214	0.849863
H159	H	0.625919	-1.070251	0.558143
H160	H	1.125919	-0.570251	1.058143
Br161	Br	0.134355	-0.278868	0.279845
Br162	Br	0.634355	0.221132	0.779845
Br163	Br	0.380441	-0.661200	0.661020
Br164	Br	0.880441	-0.161200	1.161020
H165	H	0.393098	-0.382074	0.382682
H166	H	0.893098	0.117926	0.882682
H167	H	0.478274	-0.624868	0.624744
H168	H	0.978274	-0.124868	1.124744
H169	H	-0.179243	-0.624956	0.624935
H170	H	0.320757	-0.124956	1.124935
H171	H	-0.094121	-0.624955	0.624916
H172	H	0.405879	-0.124955	1.124916
Br173	Br	0.275208	-0.728129	0.727761
Br174	Br	0.775208	-0.228129	1.227761
Br175	Br	-0.192032	-0.345852	0.346612
Br176	Br	0.307968	0.154148	0.846612
H177	H	0.700002	-0.385487	0.899798
H178	H	1.200002	0.114513	1.399798
H179	H	-0.094182	-0.382144	0.382822
H180	H	0.405818	0.117856	0.882822
H181	H	0.177280	-0.315173	0.316050
H182	H	0.677280	0.184827	0.816050
Br183	Br	0.023873	-0.728148	0.727824
Br184	Br	0.523873	-0.228148	1.227824
H185	H	0.262388	-0.315151	0.316046
H186	H	0.762388	0.184849	0.816046
Br187	Br	0.490950	-0.345744	0.346437
Br188	Br	0.990950	0.154256	0.846437
Br189	Br	0.715628	-0.349156	1.138624
Br190	Br	1.215628	0.150844	1.638624
Br191	Br	0.023782	-0.278885	0.279874
Br192	Br	0.523782	0.221115	0.779874
H193	H	0.121720	-0.691817	0.691587
H194	H	0.621720	-0.191817	1.191587
