data_functionalizedCrystal
_audit_creation_method	'MofGen! by Chris Wilmer'
_symmetry_space_group_name_H-M	'P1'
_symmetry_Int_Tables_number	1
_symmetry_cell_setting	triclinic
loop_
_symmetry_equiv_pos_as_xyz
  x,y,z
_cell_length_a	12.759400
_cell_length_b	13.032951
_cell_length_c	12.759401
_cell_angle_alpha	82.823643
_cell_angle_beta	90.010485
_cell_angle_gamma	97.182956
loop_
_atom_site_label
_atom_site_type_symbol
_atom_site_fract_x
_atom_site_fract_y
_atom_site_fract_z
Zn1	Zn	-0.622831	-1.597523	0.797730
Zn2	Zn	-0.798478	-1.597468	0.622043
Zn3	Zn	-0.600466	-1.422811	0.599786
Zn4	Zn	-0.776106	-1.422750	0.775401
O5	O	-0.699470	-1.510138	0.698740
O6	O	-0.664854	-1.743753	0.793084
O7	O	-0.772214	-1.574302	0.472070
O8	O	-0.456418	-1.446036	0.626074
O9	O	-0.793901	-1.743712	0.664007
O10	O	-0.472849	-1.574396	0.771502
O11	O	-0.626736	-1.445982	0.455718
O12	O	-0.605042	-1.276566	0.604423
O13	O	-0.755770	-1.445932	0.925383
O14	O	-0.734084	-1.276521	0.733446
O15	O	-0.643160	-1.574337	0.941788
O16	O	-0.942525	-1.574242	0.642356
O17	O	-0.926088	-1.445878	0.755027
C18	C	-0.664709	-1.238626	0.664097
C19	C	-0.649864	-1.122472	0.649301
C20	C	-0.707195	-1.070693	0.706448
C21	C	-0.691853	-0.950641	0.691157
C22	C	-0.972430	-1.510076	0.698710
C23	C	-1.089215	-1.510145	0.698745
C24	C	-1.152610	-1.577058	0.640160
C25	C	-1.262343	-1.577123	0.640201
C26	C	-1.245273	-1.443351	0.757412
C27	C	-1.135544	-1.443293	0.757377
C28	C	-1.162466	-1.654287	0.572486
C29	C	-1.272198	-1.654351	0.572527
C30	C	-0.425449	-1.510229	0.698796
C31	C	-0.308677	-1.510267	0.698821
C32	C	-0.699464	-1.510134	0.972773
C33	C	-0.699462	-1.510132	1.089549
C34	C	-0.734356	-0.782710	0.733512
C35	C	-0.749192	-0.898864	0.748311
C36	C	-0.640839	-1.576986	1.152954
C37	C	-0.640840	-1.576979	1.262677
C38	C	-0.758097	-1.443262	1.245580
C39	C	-0.758089	-1.443264	1.135859
C40	C	-0.573145	-1.654189	1.162826
C41	C	-0.573147	-1.654183	1.272549
C42	C	-0.699491	-1.510132	1.425772
C43	C	-0.699472	-1.510124	1.308994
H44	H	-1.083929	-1.388817	0.805091
C45	C	-0.459482	-1.624945	1.118885
H46	H	-0.459482	-1.624959	1.044429
H47	H	-0.432670	-1.557514	1.135095
H48	H	-0.416176	-1.674341	1.150013
H49	H	-0.631403	-0.906098	0.630912
H50	H	-0.767633	-1.115239	0.766696
H51	H	-0.589418	-1.077925	0.589061
H52	H	-1.142968	-1.735191	0.604656
H53	H	-1.283008	-1.388924	0.805149
H54	H	-1.315991	-1.731235	0.611544
C55	C	-0.822562	-1.369718	1.066111
H56	H	-0.814155	-1.379287	0.994130
H57	H	-0.895110	-1.384975	1.086020
H58	H	-0.798180	-1.299508	1.075140
C59	C	-0.830849	-0.959022	0.829706
H60	H	-0.864822	-0.910966	0.863581
H61	H	-0.881966	-1.001592	0.794826
H62	H	-0.796126	-1.001611	0.880944
C63	C	-0.822590	-1.369722	1.296526
H64	H	-0.814205	-1.379299	1.370954
H65	H	-0.798228	-1.299514	1.269589
H66	H	-0.895140	-1.385002	1.280477
H67	H	-0.605305	-1.735112	1.312649
H68	H	-0.612137	-1.731059	1.138594
C69	C	-1.111550	-1.615182	0.463046
H70	H	-1.037351	-1.616465	0.466755
H71	H	-1.140141	-1.659060	0.413247
H72	H	-1.125732	-1.545875	0.441628
C73	C	-1.308772	-1.625164	0.458876
H74	H	-1.249349	-1.613106	0.412110
H75	H	-1.357193	-1.680596	0.438962
H76	H	-1.342325	-1.563762	0.455442
H77	H	-0.492144	-1.625215	1.302902
