data_functionalizedCrystal
_audit_creation_method	'MofGen! by Chris Wilmer'
_symmetry_space_group_name_H-M	'P1'
_symmetry_Int_Tables_number	1
_symmetry_cell_setting	triclinic
loop_
_symmetry_equiv_pos_as_xyz
  x,y,z
_cell_length_a	14.853558
_cell_length_b	14.853559
_cell_length_c	9.130313
_cell_angle_alpha	90.000938
_cell_angle_beta	90.000288
_cell_angle_gamma	83.631294
loop_
_atom_site_label
_atom_site_type_symbol
_atom_site_fract_x
_atom_site_fract_y
_atom_site_fract_z
O1	O	1.196361	0.117661	-0.121774
O2	O	0.933900	0.131691	-0.121780
O3	O	1.072145	-0.006555	-0.121775
O4	O	1.058116	0.255906	-0.121779
O5	O	1.072144	-0.006551	0.121823
O6	O	0.933898	0.131695	0.121819
O7	O	1.196360	0.117664	0.121825
Cu8	Cu	1.065129	0.124680	0.144064
Cu9	Cu	1.065131	0.124676	-0.144020
O10	O	1.058114	0.255910	0.121820
C11	C	0.900310	0.131059	0.000018
C12	C	0.800226	0.129158	0.000016
C13	C	0.753207	0.128265	-0.132775
C14	C	0.753204	0.128258	0.132805
C15	C	0.659170	0.126468	0.132808
C16	C	0.612151	0.125574	0.000017
C17	C	0.659165	0.126471	-0.132777
C18	C	0.612150	0.125561	0.265599
C19	C	0.518111	0.123770	0.265607
C20	C	0.471089	0.122883	0.132814
C21	C	0.518109	0.123781	0.000015
C22	C	0.471090	0.122888	-0.132776
C23	C	0.518107	0.123792	-0.265577
C24	C	0.612143	0.125585	-0.265570
C25	C	0.377052	0.121091	0.132807
C26	C	0.377048	0.121094	-0.132778
C27	C	1.071510	-0.040142	0.000021
C28	C	1.069609	-0.140226	0.000013
C29	C	1.061547	-0.563402	-0.132773
C30	C	1.061545	-0.563393	0.132808
C31	C	1.063338	-0.469360	0.132809
C32	C	1.064234	-0.422343	0.000017
C33	C	1.063337	-0.469360	-0.132776
C34	C	1.064226	-0.422335	0.265600
C35	C	1.066018	-0.328296	0.265606
C36	C	1.066921	-0.281278	0.132813
C37	C	1.066025	-0.328301	0.000014
C38	C	1.066922	-0.281285	-0.132777
C39	C	1.066032	-0.328306	-0.265577
C40	C	1.064240	-0.422343	-0.265569
C41	C	1.068713	-0.187242	0.132805
C42	C	1.068712	-0.187242	-0.132780
C43	C	1.229949	0.118297	0.000023
C44	C	1.330033	0.120197	0.000016
C45	C	1.058749	0.289497	0.000020
C46	C	1.060650	0.389581	0.000019
N47	N	1.065134	0.124682	0.346687
N48	N	1.065133	0.124666	-0.346642
C49	C	1.126365	0.063488	0.423341
C50	C	1.126362	0.063477	0.576678
C51	C	1.003896	0.185863	0.576693
C52	C	1.003894	0.185869	0.423359
C53	C	1.197072	-0.007168	0.423333
C54	C	1.197070	-0.007179	0.576670
H55	H	0.650434	0.126320	-0.373689
O56	O	1.168704	-0.093703	0.639662
H57	H	1.169863	-0.090139	0.761066
H58	H	1.066755	-0.290013	-0.373696
O59	O	1.288685	0.012608	0.631802
H60	H	1.280656	0.075117	0.699342
O61	O	0.662858	0.126511	0.408820
H62	H	0.636839	0.187555	0.472518
H63	H	0.791493	0.128978	0.240918
H64	H	0.479812	0.123060	-0.373695
H65	H	0.338770	0.120372	-0.240914
H66	H	0.479837	0.123032	0.373741
H67	H	0.954036	0.235679	0.639136
O68	O	0.803911	0.129224	-0.276009
H69	H	0.877202	0.130612	-0.253708
H70	H	0.338774	0.120362	0.240931
O71	O	1.069671	-0.136530	-0.276007
H72	H	1.068743	-0.185026	-0.368341
O73	O	1.063266	-0.473054	-0.408796
H74	H	1.061856	-0.546340	-0.386481
O75	O	1.060580	-0.614108	-0.276006
H76	H	1.059179	-0.687396	-0.253705
H77	H	1.060809	-0.601679	0.240921
O78	O	1.063282	-0.473043	0.408820
H79	H	1.061907	-0.546335	0.386508
O80	O	1.066997	-0.277583	0.408830
H81	H	1.066083	-0.326077	0.501166
H82	H	1.069417	-0.148959	0.240929
O83	O	0.937850	0.251866	0.340674
H84	H	0.895275	0.294415	0.419754
H85	H	1.182198	-0.076352	0.381714
H86	H	1.262367	0.014300	0.375776
