data_functionalizedCrystal
_audit_creation_method	'MofGen! by Chris Wilmer'
_symmetry_space_group_name_H-M	'P1'
_symmetry_Int_Tables_number	1
_symmetry_cell_setting	triclinic
loop_
_symmetry_equiv_pos_as_xyz
  x,y,z
_cell_length_a	11.792241
_cell_length_b	10.540539
_cell_length_c	10.268362
_cell_angle_alpha	89.996859
_cell_angle_beta	89.999626
_cell_angle_gamma	84.359454
loop_
_atom_site_label
_atom_site_type_symbol
_atom_site_fract_x
_atom_site_fract_y
_atom_site_fract_z
O1	O	1.507362	0.173992	-0.108167
O2	O	2.007362	0.673992	0.391833
O3	O	1.177067	0.191924	-0.108197
O4	O	1.677067	0.691924	0.391803
O5	O	1.349750	-0.001773	-0.108180
O6	O	1.849750	0.498227	0.391820
O7	O	1.334679	0.367689	-0.108184
O8	O	1.834679	0.867689	0.391816
O9	O	1.349735	-0.001781	0.108421
O10	O	1.849735	0.498219	0.608421
O11	O	1.177052	0.191916	0.108404
O12	O	1.677052	0.691916	0.608404
O13	O	1.507347	0.173984	0.108433
O14	O	2.007347	0.673984	0.608433
Cu15	Cu	1.342198	0.182949	0.128196
Cu16	Cu	1.842198	0.682949	0.628196
Cu17	Cu	1.342216	0.182959	-0.127959
Cu18	Cu	1.842216	0.682959	0.372041
O19	O	1.334664	0.367681	0.108416
O20	O	1.834664	0.867681	0.608416
C21	C	1.134766	0.190793	0.000100
C22	C	1.634766	0.690793	0.500100
C23	C	1.008743	0.187422	0.000088
C24	C	1.508743	0.687422	0.500088
C25	C	0.778015	0.181223	0.000126
C26	C	1.278015	0.681223	0.500126
C27	C	0.906409	0.184667	0.000105
C28	C	1.406409	0.684667	0.500105
C29	C	1.348612	-0.049076	0.000118
C30	C	1.848612	0.450924	0.500118
C31	C	1.345231	-0.190014	0.000111
C32	C	1.845231	0.309986	0.500111
C33	C	1.215660	-0.373018	-0.000387
C34	C	1.715660	0.126982	0.499613
C35	C	1.219087	-0.226411	0.000101
C36	C	1.719087	0.273589	0.500101
C37	C	1.405928	-0.251874	0.123806
C38	C	1.905928	0.248126	0.623806
C39	C	1.401623	-0.398404	0.123910
C40	C	1.901623	0.101596	0.623910
C41	C	1.404206	-0.398921	-0.122405
C42	C	1.904206	0.101079	0.377595
C43	C	1.405368	-0.251943	-0.124041
C44	C	1.905368	0.248057	0.375959
C45	C	1.549648	0.175114	0.000134
C46	C	2.049648	0.675114	0.500134
C47	C	1.675671	0.178486	0.000137
C48	C	2.175671	0.678486	0.500137
C49	C	1.335802	0.414984	0.000116
C50	C	1.835802	0.914984	0.500116
C51	C	1.339183	0.555921	0.000114
C52	C	1.839183	1.055921	0.500114
N53	N	1.342194	0.182942	0.308362
N54	N	1.842194	0.682942	0.808362
N55	N	1.342229	0.182956	-0.308125
N56	N	1.842229	0.682956	0.191875
C57	C	1.342210	0.182956	0.574032
C58	C	1.842210	0.682956	1.074032
C59	C	1.342197	0.182952	0.426195
C60	C	1.842197	0.682952	0.926195
H61	H	1.165836	-0.401453	-0.089091
H62	H	1.665836	0.098547	0.410909
H63	H	1.363386	-0.430338	-0.216158
H64	H	1.863386	0.069662	0.283842
H65	H	1.492343	-0.446668	0.129529
H66	H	1.992343	0.053332	0.629529
C67	C	1.531072	-0.222096	0.130042
C68	C	2.031072	0.277904	0.630042
H69	H	1.566156	-0.260404	0.205555
H70	H	2.066156	0.239596	0.705555
H71	H	1.533974	-0.132424	0.133748
H72	H	2.033974	0.367576	0.633748
H73	H	1.570299	-0.255117	0.054670
H74	H	2.070299	0.244883	0.554670
C75	C	1.348945	-0.194167	0.248150
C76	C	1.848945	0.305833	0.748150
H77	H	1.288174	-0.132392	0.224947
H78	H	1.788174	0.367608	0.724947
H79	H	1.403462	-0.154774	0.298203
H80	H	1.903462	0.345226	0.798203
H81	H	1.320017	-0.259746	0.298000
H82	H	1.820017	0.240254	0.798000
H83	H	1.360956	-0.210937	-0.215547
H84	H	1.860956	0.289063	0.284453
H85	H	1.497336	-0.228021	-0.131502
H86	H	1.997336	0.271979	0.368498
H87	H	1.356752	-0.426461	0.216366
H88	H	1.856752	0.073539	0.716366
H89	H	1.495319	-0.446444	-0.123229
H90	H	1.995319	0.053556	0.376771
H91	H	1.166026	-0.403067	0.087812
H92	H	1.666026	0.096933	0.587812
C93	C	1.154553	-0.168634	-0.119669
C94	C	1.654553	0.331366	0.380331
H95	H	1.125996	-0.234758	-0.169060
H96	H	1.625996	0.265242	0.330940
H97	H	1.204917	-0.125397	-0.172001
H98	H	1.704917	0.374603	0.327999
H99	H	1.092905	-0.110119	-0.091829
H100	H	1.592905	0.389881	0.408171
C101	C	1.154116	-0.169788	0.120083
C102	C	1.654116	0.330212	0.620083
H103	H	1.125531	-0.236402	0.168723
H104	H	1.625531	0.263598	0.668723
H105	H	1.092482	-0.111131	0.092503
H106	H	1.592482	0.388869	0.592503
H107	H	1.204268	-0.126917	0.173065
H108	H	1.704268	0.373083	0.673065
