data_functionalizedCrystal
_audit_creation_method	'MofGen! by Chris Wilmer'
_symmetry_space_group_name_H-M	'P1'
_symmetry_Int_Tables_number	1
_symmetry_cell_setting	triclinic
loop_
_symmetry_equiv_pos_as_xyz
  x,y,z
_cell_length_a	11.792241
_cell_length_b	16.992695
_cell_length_c	10.868271
_cell_angle_alpha	89.994605
_cell_angle_beta	90.000107
_cell_angle_gamma	92.569181
loop_
_atom_site_label
_atom_site_type_symbol
_atom_site_fract_x
_atom_site_fract_y
_atom_site_fract_z
O1	O	1.515703	-0.107512	0.102204
O2	O	2.015703	0.392488	0.602204
O3	O	1.186268	-0.118593	0.102232
O4	O	1.686268	0.381407	0.602232
O5	O	1.349665	0.001096	0.102208
O6	O	1.849665	0.501096	0.602208
O7	O	1.352306	-0.227201	0.102228
O8	O	1.852306	0.272799	0.602228
O9	O	1.349650	0.001101	-0.102436
O10	O	1.849650	0.501101	0.397564
O11	O	1.186253	-0.118588	-0.102412
O12	O	1.686253	0.381412	0.397588
O13	O	1.515688	-0.107508	-0.102441
O14	O	2.015688	0.392492	0.397559
Zn15	Zn	1.350968	-0.113047	-0.134918
Zn16	Zn	1.850968	0.386953	0.365082
Zn17	Zn	1.350988	-0.113053	0.134710
Zn18	Zn	1.850988	0.386947	0.634710
O19	O	1.352291	-0.227196	-0.102417
O20	O	1.852291	0.272804	0.397583
C21	C	1.143913	-0.117894	-0.000086
C22	C	1.643913	0.382106	0.499914
C23	C	1.017729	-0.115811	-0.000076
C24	C	1.517729	0.384189	0.499924
N25	N	1.350963	-0.113042	-0.318933
N26	N	1.850963	0.386958	0.181067
C27	C	1.346260	0.030325	-0.000114
C28	C	1.846260	0.530325	0.499886
C29	C	1.336121	0.117412	-0.000112
C30	C	1.836121	0.617412	0.499888
C31	C	0.786703	-0.111980	-0.000111
C32	C	1.286703	0.388020	0.499889
C33	C	0.915262	-0.114109	-0.000092
C34	C	1.415262	0.385891	0.499908
C35	C	1.558043	-0.108206	-0.000120
C36	C	2.058043	0.391794	0.499880
C37	C	1.684227	-0.110289	-0.000122
C38	C	2.184227	0.389711	0.499878
C39	C	1.355696	-0.256425	-0.000092
C40	C	1.855696	0.243575	0.499908
C41	C	1.365834	-0.343513	-0.000086
C42	C	1.865834	0.156487	0.499914
C43	C	1.433939	0.167237	-0.000122
C44	C	1.933939	0.667237	0.499878
C45	C	1.424407	0.249064	-0.000110
C46	C	1.924407	0.749064	0.499890
C47	C	1.317056	0.281065	-0.000096
C48	C	1.817056	0.781065	0.499904
C49	C	1.219230	0.231234	-0.000083
C50	C	1.719230	0.731234	0.499917
C51	C	1.228764	0.149408	-0.000086
C52	C	1.728764	0.649408	0.499914
C53	C	1.277543	0.524831	-0.000076
C54	C	1.777543	1.024831	0.499924
C55	C	1.268017	0.606663	-0.000076
C56	C	1.768017	1.106663	0.499924
C57	C	1.473194	0.624487	-0.000101
C58	C	1.973194	1.124487	0.499899
C59	C	1.482718	0.542659	-0.000112
C60	C	1.982718	1.042659	0.499888
C61	C	1.384893	0.492835	-0.000092
C62	C	1.884893	0.992835	0.499908
N63	N	1.307309	0.364705	-0.000087
N64	N	1.807309	0.864705	0.499913
N65	N	1.394640	0.409197	-0.000092
N66	N	1.894640	0.909197	0.499908
C67	C	1.350982	-0.113052	-0.569939
C68	C	1.850982	0.386948	-0.069939
C69	C	1.350968	-0.113049	-0.430261
C70	C	1.850968	0.386951	0.069739
N71	N	1.351001	-0.113052	0.318724
N72	N	1.851001	0.386948	0.818724
H73	H	1.504061	0.289629	-0.000120
H74	H	2.004061	0.789629	0.499880
O75	O	1.598504	0.508143	-0.000096
O76	O	2.098504	1.008143	0.499904
H77	H	1.664924	0.556537	-0.000082
H78	H	2.164924	1.056537	0.499918
O79	O	1.123256	0.095669	-0.000081
O80	O	1.623256	0.595669	0.499919
H81	H	1.147919	0.033395	-0.000074
H82	H	1.647919	0.533395	0.499926
H83	H	1.131822	0.257296	-0.000064
H84	H	1.631822	0.757296	0.499936
O85	O	1.578702	0.678224	-0.000120
O86	O	2.078702	1.178224	0.499880
H87	H	1.579283	0.715921	0.083295
H88	H	2.079283	1.215921	0.583295
O89	O	1.549729	0.132727	-0.000123
O90	O	2.049729	0.632727	0.499877
H91	H	1.597095	0.152719	-0.083527
H92	H	2.097095	0.652719	0.416473
O93	O	1.152226	0.641183	-0.000047
O94	O	1.652226	1.141183	0.499953
H95	H	1.085802	0.592791	-0.000020
H96	H	1.585802	1.092791	0.499980
H97	H	1.197886	0.484273	-0.000060
H98	H	1.697886	0.984273	0.499940
