data_functionalizedCrystal
_audit_creation_method	'MofGen! by Chris Wilmer'
_symmetry_space_group_name_H-M	'P1'
_symmetry_Int_Tables_number	1
_symmetry_cell_setting	triclinic
loop_
_symmetry_equiv_pos_as_xyz
  x,y,z
_cell_length_a	18.050591
_cell_length_b	18.215405
_cell_length_c	18.215399
_cell_angle_alpha	89.969449
_cell_angle_beta	89.974300
_cell_angle_gamma	90.020891
loop_
_atom_site_label
_atom_site_type_symbol
_atom_site_fract_x
_atom_site_fract_y
_atom_site_fract_z
Zn1	Zn	1.135345	-0.293070	-0.416218
Zn2	Zn	1.135252	-0.416141	-0.293146
Zn3	Zn	1.011154	-0.293085	-0.293152
Zn4	Zn	1.011119	-0.416091	-0.416158
O5	O	1.073217	-0.354597	-0.354669
O6	O	1.239257	-0.309411	-0.399914
O7	O	1.118766	-0.399845	-0.190162
O8	O	1.027681	-0.190099	-0.309505
O9	O	1.239189	-0.399831	-0.309494
O10	O	1.118924	-0.190088	-0.399921
O11	O	1.027591	-0.309436	-0.190167
O12	O	0.907224	-0.309387	-0.309447
O13	O	1.027622	-0.399745	-0.519150
O14	O	0.907199	-0.399759	-0.399819
O15	O	1.118890	-0.309362	-0.519194
O16	O	1.118733	-0.519119	-0.309436
O17	O	1.027533	-0.519082	-0.399813
C18	C	1.073139	-0.545803	-0.354633
C19	C	1.073173	-0.627602	-0.354643
C20	C	0.880265	-0.354569	-0.354628
C21	C	0.797720	-0.354575	-0.354628
C22	C	1.120773	-0.815791	-0.307670
C23	C	1.120806	-0.892650	-0.307688
C24	C	1.025757	-0.892651	-0.401720
C25	C	1.025728	-0.815794	-0.401705
C26	C	1.073235	-0.777365	-0.354676
C27	C	1.073297	-0.931082	-0.354709
C28	C	1.073333	-1.014415	-0.354728
C29	C	1.073201	-0.694027	-0.354657
C30	C	0.598261	-0.305374	-0.305597
C31	C	0.548844	-0.372499	-0.287483
C32	C	0.646589	-0.354598	-0.354661
C33	C	0.548925	-0.287496	-0.372773
C34	C	0.500604	-0.354613	-0.354692
C35	C	0.598259	-0.421758	-0.336512
C36	C	0.598344	-0.336710	-0.421833
C37	C	0.548949	-0.403881	-0.403745
C38	C	0.730687	-0.354588	-0.354642
C39	C	0.416508	-0.354631	-0.354712
C40	C	1.266923	-0.354625	-0.354710
C41	C	1.349469	-0.354637	-0.354727
C42	C	1.073263	-0.354546	-0.546622
C43	C	1.073282	-0.354524	-0.628420
C44	C	1.073316	-0.162644	-0.354720
C45	C	1.073359	-0.080845	-0.354742
C46	C	1.120822	-0.307418	-0.816639
C47	C	1.120831	-0.307397	-0.893497
C48	C	1.025794	-0.401517	-0.893440
C49	C	1.025782	-0.401534	-0.816583
C50	C	1.073300	-0.354486	-0.778184
C51	C	1.073321	-0.354447	-0.931900
C52	C	1.073331	-0.354424	-1.015234
C53	C	1.073290	-0.354508	-0.694845
C54	C	1.073215	-0.354594	-0.163462
C55	C	1.073340	-0.354409	-0.081664
H56	H	1.159457	-0.784504	-0.269377
H57	H	0.619840	-0.478528	-0.321143
C58	C	0.519480	-0.392965	-0.210760
C59	C	0.538932	-0.344792	-0.144045
C60	C	0.509578	-0.365258	-0.067320
C61	C	0.460772	-0.433897	-0.057309
C62	C	0.441317	-0.482074	-0.124027
C63	C	0.470671	-0.461609	-0.200752
H64	H	0.575063	-0.293978	-0.151454
H65	H	0.523979	-0.329593	-0.017931
H66	H	0.439042	-0.449046	-0.000513
H67	H	0.405186	-0.532889	-0.116618
H68	H	0.456269	-0.497273	-0.250140
C69	C	0.627521	-0.249200	-0.249488
C70	C	0.711549	-0.238419	-0.239638
C71	C	0.740811	-0.182249	-0.183528
C72	C	0.686044	-0.136862	-0.137270
C73	C	0.602011	-0.147642	-0.147119
C74	C	0.572749	-0.203812	-0.203229
H75	H	0.752096	-0.272018	-0.273882
H76	H	0.803018	-0.174269	-0.176238
H77	H	0.707705	-0.095282	-0.095735
H78	H	0.561464	-0.114043	-0.112875
H79	H	0.510542	-0.211792	-0.210519
H80	H	0.987108	-0.439824	-0.924714
H81	H	1.159517	-0.923932	-0.269412
C82	C	1.173107	-0.255622	-0.935797
C83	C	1.225372	-0.203872	-0.893557
C84	C	1.277649	-0.152094	-0.935856
C85	C	1.277662	-0.152066	-1.020396
C86	C	1.225396	-0.203818	-1.062642
C87	C	1.173118	-0.255596	-1.020342
H88	H	1.225364	-0.203891	-0.830971
H89	H	1.316340	-0.113783	-0.904583
H90	H	1.316361	-0.113737	-1.051709
H91	H	1.225404	-0.203799	-1.125228
H92	H	1.134428	-0.293907	-1.051615
C93	C	0.973499	-0.934924	-0.453447
C94	C	0.973526	-1.019464	-0.453465
C95	C	0.921266	-1.061734	-0.505193
C96	C	0.868979	-1.019465	-0.556903
C97	C	0.868949	-0.934920	-0.556887
C98	C	0.921209	-0.892650	-0.505159
H99	H	1.012235	-1.050758	-0.415185
H100	H	0.921288	-1.124320	-0.505204
H101	H	0.830292	-1.050757	-0.595195
H102	H	0.830241	-0.903626	-0.595167
H103	H	0.921187	-0.830064	-0.505147
C104	C	0.627736	-0.316249	-0.498543
C105	C	0.711786	-0.313166	-0.512740
C106	C	0.741174	-0.292703	-0.589454
C107	C	0.686512	-0.275324	-0.651970
C108	C	0.602456	-0.278407	-0.637774
C109	C	0.573068	-0.298869	-0.561060
H110	H	0.752256	-0.326031	-0.466461
H111	H	0.803398	-0.290421	-0.599962
H112	H	0.708266	-0.260177	-0.708758
H113	H	0.561987	-0.265541	-0.684054
H114	H	0.510844	-0.301151	-0.550552
C115	C	0.973433	-0.773521	-0.453416
C116	C	0.889014	-0.784148	-0.447326
C117	C	0.836725	-0.741875	-0.499038
C118	C	0.868854	-0.688975	-0.556839
C119	C	0.953278	-0.678345	-0.562932
C120	C	1.005567	-0.720618	-0.511220
H121	H	0.865226	-0.823310	-0.404536
H122	H	0.774229	-0.749745	-0.494527
H123	H	0.830147	-0.657682	-0.595119
H124	H	0.977066	-0.639183	-0.605722
H125	H	1.068063	-0.712749	-0.515731
H126	H	0.527215	-0.230750	-0.388054
H127	H	0.527434	-0.445563	-0.445250
H128	H	1.159513	-0.269106	-0.785376
C129	C	0.973505	-0.453313	-0.774277
C130	C	0.921243	-0.505071	-0.816511
C131	C	0.868967	-0.556845	-0.774205
C132	C	0.868952	-0.556860	-0.689665
C133	C	0.921216	-0.505100	-0.647426
C134	C	0.973492	-0.453326	-0.689732
H135	H	0.921253	-0.505061	-0.879097
H136	H	0.830278	-0.595161	-0.805473
H137	H	0.830254	-0.595186	-0.658347
H138	H	0.921207	-0.505110	-0.584840
H139	H	1.012181	-0.415010	-0.658464
