data_functionalizedCrystal
_audit_creation_method	'MofGen! by Chris Wilmer'
_symmetry_space_group_name_H-M	'P1'
_symmetry_Int_Tables_number	1
_symmetry_cell_setting	triclinic
loop_
_symmetry_equiv_pos_as_xyz
  x,y,z
_cell_length_a	16.109301
_cell_length_b	15.995350
_cell_length_c	15.186229
_cell_angle_alpha	89.998487
_cell_angle_beta	89.999362
_cell_angle_gamma	83.476928
loop_
_atom_site_label
_atom_site_type_symbol
_atom_site_fract_x
_atom_site_fract_y
_atom_site_fract_z
O1	O	1.103160	0.107624	-0.073168
O2	O	0.861101	0.121018	-0.073182
O3	O	0.988747	-0.007569	-0.073174
O4	O	0.975514	0.236210	-0.073176
O5	O	0.988739	-0.007570	0.073283
O6	O	0.861093	0.121016	0.073275
O7	O	1.103151	0.107622	0.073289
Zn8	Zn	0.982121	0.114319	0.096535
Zn9	Zn	0.982132	0.114321	-0.096428
O10	O	0.975505	0.236208	0.073281
C11	C	0.830122	0.120474	0.000045
C12	C	0.737826	0.118848	0.000040
C13	C	0.515573	0.191366	0.000049
C14	C	0.428853	0.189831	0.000055
C15	C	0.448686	0.037268	0.000053
C16	C	0.535405	0.038804	0.000053
C17	C	0.568846	0.115855	0.000047
C18	C	0.395406	0.112785	0.000052
C19	C	0.301380	0.111120	0.000058
C20	C	0.662879	0.117520	0.000043
C21	C	0.988196	-0.038764	0.000053
C22	C	0.986556	-0.131714	0.000048
C23	C	0.980665	-0.469460	0.000050
C24	C	0.889758	-0.422001	-0.000283
C25	C	0.891399	-0.325311	0.000047
C26	C	0.983587	-0.301900	0.000049
C27	C	1.028421	-0.342991	0.083684
C28	C	1.026137	-0.439626	0.083754
C29	C	1.028025	-0.439983	-0.082795
C30	C	1.028003	-0.343037	-0.083901
C31	C	0.985243	-0.207203	0.000051
C32	C	0.979012	-0.564157	0.000054
C33	C	1.134130	0.108166	0.000060
C34	C	1.226426	0.109792	0.000059
C35	C	0.976056	0.267404	0.000052
C36	C	0.977697	0.360354	0.000051
N37	N	0.982119	0.114317	0.228228
N38	N	0.982140	0.114317	-0.228121
C39	C	1.038660	0.057398	0.453954
C40	C	1.038662	0.057396	0.546144
C41	C	0.925593	0.171238	0.546146
C42	C	0.925587	0.171236	0.453958
C43	C	0.982125	0.114316	0.407865
C44	C	0.982134	0.114317	0.592242
C45	C	0.982136	0.114315	0.692198
C46	C	0.982122	0.114317	0.307902
H47	H	0.421447	-0.025465	0.000063
O48	O	0.551642	0.274470	0.000062
H49	H	0.530237	0.310765	-0.059623
O50	O	0.864626	0.232641	0.595860
H51	H	0.824225	0.197392	0.637877
H52	H	1.095050	-0.471762	-0.083356
O53	O	1.118132	-0.324297	0.087820
H54	H	1.151890	-0.349964	0.028250
O55	O	0.592874	-0.042643	0.000053
H56	H	0.555053	-0.096480	0.000045
O57	O	0.988661	-0.467166	-0.166769
H58	H	0.934897	-0.501994	-0.150390
H59	H	0.385481	0.251320	0.000058
O60	O	0.844701	-0.287636	-0.079353
H61	H	0.820738	-0.338472	-0.118333
H62	H	0.997275	-0.314602	0.145921
H63	H	0.853427	-0.440522	-0.060260
H64	H	0.853581	-0.441586	0.059355
H65	H	0.879546	0.217586	0.416429
H66	H	0.993437	-0.457919	0.146271
O67	O	0.984652	-0.306865	-0.165866
H68	H	0.931694	-0.259780	-0.146903
O69	O	0.844412	-0.288379	0.079601
H70	H	0.820434	-0.339592	0.117992
O71	O	1.099627	-0.003999	0.404235
H72	H	1.138933	-0.043585	0.451776
H73	H	1.092880	-0.471892	0.087550
O74	O	1.099649	-0.003984	0.595859
H75	H	1.138966	-0.043554	0.548316
H76	H	1.095231	-0.327694	-0.088949
