data_functionalizedCrystal
_audit_creation_method	'MofGen! by Chris Wilmer'
_symmetry_space_group_name_H-M	'P1'
_symmetry_Int_Tables_number	1
_symmetry_cell_setting	triclinic
loop_
_symmetry_equiv_pos_as_xyz
  x,y,z
_cell_length_a	23.096457
_cell_length_b	23.096457
_cell_length_c	14.560438
_cell_angle_alpha	60.001285
_cell_angle_beta	89.999359
_cell_angle_gamma	59.998275
loop_
_atom_site_label
_atom_site_type_symbol
_atom_site_fract_x
_atom_site_fract_y
_atom_site_fract_z
Zr1	Zr	0.557749	0.633762	-0.120540
O2	O	0.465296	0.754552	-0.267179
O3	O	0.586093	0.512972	-0.075589
O4	O	0.586088	0.633764	-0.267190
O5	O	0.465304	0.633758	0.075562
O6	O	0.681368	0.633766	-0.267195
O7	O	0.465302	0.633760	-0.075579
O8	O	0.681378	0.417691	0.075543
O9	O	0.465294	0.849833	-0.267176
O10	O	0.669286	0.562656	-0.056419
O11	O	0.598181	0.562653	0.056379
O12	O	0.598174	0.704870	-0.169206
O13	O	0.527070	0.704868	-0.056407
Zr14	Zr	0.709715	0.633762	0.120504
Zr15	Zr	0.709711	0.633764	-0.120548
Zr16	Zr	0.557753	0.633759	0.120513
Zr17	Zr	0.557746	0.785725	-0.120535
Zr18	Zr	0.709718	0.481799	0.120499
O19	O	0.681371	0.754552	0.075553
O20	O	0.681365	0.754556	-0.267192
O21	O	0.465302	0.754548	0.075566
O22	O	0.802168	0.512972	0.267143
O23	O	0.802162	0.512976	-0.075602
O24	O	0.586099	0.512968	0.267156
O25	O	0.802160	0.633766	-0.075598
O26	O	0.681376	0.633760	0.267154
O27	O	0.586096	0.633758	0.267160
O28	O	0.802162	0.633764	0.075543
O29	O	0.586083	0.849835	-0.267183
O30	O	0.681381	0.417689	0.267148
O31	O	0.802170	0.417691	0.267141
O32	O	0.802167	0.417693	0.075536
O33	O	0.465297	0.849831	-0.075572
O34	O	0.586086	0.849833	-0.075579
O35	O	0.669290	0.562653	0.169170
O36	O	0.740394	0.562656	0.056371
O37	O	0.669283	0.704870	-0.056415
O38	O	0.598178	0.704868	0.056384
C39	C	0.633736	0.443680	-0.000024
C40	C	0.633737	0.379168	-0.000025
C41	C	0.670849	-0.081349	-0.058879
C42	C	0.670848	-0.020729	-0.058889
C43	C	0.633733	0.009582	-0.000009
C44	C	0.596602	-0.020716	0.058862
C45	C	0.596599	-0.081329	0.058861
N46	N	0.638887	0.071975	0.095809
N47	N	0.638893	0.129554	0.095807
C48	C	0.633738	0.192208	-0.000006
N49	N	0.628589	0.195101	-0.095816
N50	N	0.628587	0.137514	-0.095812
C51	C	0.633731	0.075308	-0.000003
C52	C	0.670861	0.288235	-0.058891
C53	C	0.670854	0.348859	-0.058905
C54	C	0.596613	0.348865	0.058858
C55	C	0.596615	0.288247	0.058860
C56	C	0.633743	0.257933	-0.000012
C57	C	0.443652	0.633759	-0.000007
C58	C	0.379140	0.633758	-0.000003
C59	C	0.385954	0.559525	0.058859
C60	C	0.325338	0.559524	0.058864
C61	C	0.257910	0.633760	-0.000015
C62	C	0.251098	0.708002	-0.058880
C63	C	0.311714	0.708001	-0.058874
N64	N	0.135111	0.689018	-0.095841
N65	N	0.077532	0.689013	-0.095845
C66	C	0.075277	0.633767	-0.000035
N67	N	0.132783	0.578512	0.095776
N68	N	0.190369	0.578514	0.095778
C69	C	0.192178	0.633769	-0.000028
C70	C	0.016367	0.559528	0.058838
C71	C	-0.044251	0.559530	0.058846
C72	C	-0.118491	0.708010	-0.058910
C73	C	-0.057873	0.708006	-0.058907
C74	C	0.009553	0.633763	-0.000036
C75	C	0.823812	0.633765	-0.000029
C76	C	0.888324	0.633766	-0.000033
C77	C	0.633727	0.633765	-0.301537
C78	C	0.633726	0.633766	-0.403870
C79	C	0.633728	0.823844	-0.000012
C80	C	0.633727	0.888356	-0.000010
C81	C	0.596607	0.707999	-0.510820
C82	C	0.596615	0.707996	-0.606969
C83	C	0.670862	0.559519	-0.489205
C84	C	0.670857	0.559523	-0.393058
C85	C	0.633737	0.633759	0.301502
C86	C	0.633738	0.633758	0.403835
C87	C	0.823816	0.443683	-0.000035
C88	C	0.888329	0.379172	-0.000040
C89	C	0.633741	0.443677	0.301496
C90	C	0.633744	0.379163	0.403827
C91	C	0.823821	0.443680	0.301485
C92	C	0.888336	0.379168	0.403812
C93	C	0.443643	0.823844	-0.301521
C94	C	0.379128	0.888356	-0.403848
C95	C	0.443648	0.823841	-0.000001
C96	C	0.379135	0.888352	0.000004
C97	C	0.633723	0.823847	-0.301532
C98	C	0.633720	0.888360	-0.403863
C99	C	0.881507	0.348877	-0.058929
C100	C	0.942118	0.288270	-0.058956
C101	C	1.009550	0.257956	-0.000089
C102	C	1.016371	0.288257	0.058801
C103	C	0.955761	0.348866	0.058822
C104	C	0.670863	0.348867	0.510768
C105	C	0.670863	0.288259	0.606928
C106	C	0.633748	0.257943	0.596145
C107	C	0.596624	0.288245	0.489192
C108	C	0.596620	0.348857	0.393034
C109	C	0.955755	0.348873	0.392986
C110	C	1.016379	0.288266	0.489124
C111	C	1.009582	0.257950	0.596087
C112	C	0.942156	0.288250	0.606911
C113	C	0.881533	0.348860	0.510774
C114	C	0.311709	0.918658	-0.393022
C115	C	0.251085	0.979284	-0.489160
C116	C	0.257882	1.009604	-0.596123
C117	C	0.325308	0.979299	-0.606947
C118	C	0.385931	0.918678	-0.510810
C119	C	0.385957	0.918653	0.058883
C120	C	0.325346	0.979277	0.058884
C121	C	0.257914	1.009593	0.000013
C122	C	0.251093	0.979289	-0.058873
C123	C	0.311703	0.918671	-0.058880
C124	C	0.670843	0.918657	-0.393043
C125	C	0.670854	0.979266	-0.489185
C126	C	0.633738	1.009581	-0.596145
C127	C	0.596614	0.979279	-0.606963
C128	C	0.596607	0.918667	-0.510822
H129	H	0.566381	0.003969	0.106800
H130	H	0.701090	0.263554	-0.106832
H131	H	0.701067	0.893983	-0.305959
H132	H	0.566395	0.373516	0.305961
H133	H	1.071282	0.263566	0.106729
H134	H	0.440858	0.893974	0.106830
C135	C	0.555756	0.885359	-0.522743
N136	N	0.524982	0.860276	-0.531730
C137	C	0.711691	1.012591	-0.477260
N138	N	0.742448	1.037690	-0.468275
C139	C	0.555818	1.012606	-0.724630
N140	N	0.525099	1.037702	-0.813260
C141	C	0.332865	1.012593	0.123675
N142	N	0.338530	1.037684	0.172479
C143	C	0.711670	-0.114671	-0.123673
N144	N	0.742410	-0.139762	-0.172487
H145	H	0.208513	1.058965	-0.674395
C146	C	0.304187	0.885337	-0.123640
N147	N	0.298521	0.860231	-0.172418
C148	C	0.191247	1.076272	0.000038
N149	N	0.141036	1.126491	0.000065
H150	H	0.701092	0.499073	-0.480415
C151	C	0.555784	-0.114680	0.123664
N152	N	0.525051	-0.139809	0.172489
H153	H	0.330887	0.499073	0.106798
H154	H	0.566372	0.768453	-0.519630
H155	H	0.306162	0.893975	-0.305936
C156	C	0.176911	1.012635	-0.123608
N157	N	0.121035	1.037747	-0.172356
H158	H	0.961302	0.373548	0.305900
C159	C	0.633751	1.076258	-0.701892
N160	N	0.633761	1.126481	-0.781537
C161	C	0.807374	0.382176	0.522702
N162	N	0.751517	0.407267	0.531694
H163	H	0.566390	0.768444	-0.694049
H164	H	0.701080	0.373530	-0.106849
C165	C	0.711692	0.012597	-0.123644
N166	N	0.742458	0.037695	-0.172415
H167	H	0.701087	0.373543	0.519570
H168	H	-0.173392	0.768454	-0.106852
H169	H	0.566389	0.373548	0.106793
C170	C	0.555818	0.254880	0.123687
N171	N	0.525099	0.229737	0.172536
H172	H	0.701087	0.499070	-0.305969
H173	H	0.440852	0.499071	0.106790
H174	H	0.196194	0.768445	-0.106820
C175	C	-0.036751	0.477864	0.123595
N176	N	-0.031101	0.416351	0.172360
C177	C	0.090538	0.477860	0.123611
N178	N	0.146403	0.416347	0.172401
C179	C	-0.065370	0.789668	-0.123679
N180	N	-0.071020	0.851181	-0.172470
C181	C	0.807337	0.382216	-0.123700
N182	N	0.751474	0.407327	-0.172495
C183	C	0.711712	0.254930	0.724565
N184	N	0.742482	0.229826	0.813167
C185	C	0.934599	0.254943	-0.123731
N186	N	0.928934	0.229841	-0.172516
H187	H	1.058897	0.208603	-0.000114
C188	C	0.633766	0.191261	0.701933
N189	N	0.633787	0.141031	0.781616
H190	H	0.306160	0.768452	-0.106805
C191	C	0.555803	0.254885	0.477349
N192	N	0.525062	0.229752	0.468432
H193	H	0.961325	0.373525	0.106782
H194	H	1.071275	0.263601	0.480292
H195	H	1.058951	0.208596	0.674359
C196	C	0.176923	1.012606	-0.477229
N197	N	0.121066	1.037703	-0.468239
H198	H	0.936633	0.263557	0.694013
H199	H	0.330834	1.003993	-0.694047
H200	H	0.440825	0.894007	-0.519638
