data_functionalizedCrystal
_audit_creation_method	'MofGen! by Chris Wilmer'
_symmetry_space_group_name_H-M	'P1'
_symmetry_Int_Tables_number	1
_symmetry_cell_setting	triclinic
loop_
_symmetry_equiv_pos_as_xyz
  x,y,z
_cell_length_a	21.295417
_cell_length_b	19.077267
_cell_length_c	19.076919
_cell_angle_alpha	85.333063
_cell_angle_beta	92.266620
_cell_angle_gamma	92.268319
loop_
_atom_site_label
_atom_site_type_symbol
_atom_site_fract_x
_atom_site_fract_y
_atom_site_fract_z
Zn1	Zn	-0.301557	-1.061619	-0.355285
Zn2	Zn	0.031777	-0.728286	-0.021952
Zn3	Zn	0.365110	-0.394952	0.311382
Zn4	Zn	-0.402757	-1.066262	-0.237396
Zn5	Zn	-0.069423	-0.732929	0.095937
Zn6	Zn	0.263910	-0.399595	0.429271
Zn7	Zn	-0.293441	-0.948477	-0.242149
Zn8	Zn	0.039892	-0.615144	0.091184
Zn9	Zn	0.373225	-0.281811	0.424518
Zn10	Zn	-0.402721	-0.943693	-0.359974
Zn11	Zn	-0.069388	-0.610360	-0.026641
Zn12	Zn	0.263946	-0.277027	0.306693
O13	O	-0.350119	-1.005013	-0.298701
O14	O	-0.016786	-0.671680	0.034632
O15	O	0.316548	-0.338346	0.367966
O16	O	-0.318392	-1.160881	-0.335695
O17	O	0.014941	-0.827547	-0.002362
O18	O	0.348274	-0.494214	0.330971
O19	O	-0.384875	-1.054583	-0.139379
O20	O	-0.051541	-0.721250	0.193954
O21	O	0.281792	-0.387916	0.527287
O22	O	-0.206432	-0.963545	-0.257184
O23	O	0.126902	-0.630211	0.076150
O24	O	0.460235	-0.296878	0.409483
O25	O	-0.392744	-1.164292	-0.249083
O26	O	-0.059410	-0.830959	0.084251
O27	O	0.273923	-0.497625	0.417584
O28	O	-0.212394	-1.046669	-0.340304
O29	O	0.120939	-0.713336	-0.006971
O30	O	0.454273	-0.380003	0.326362
O31	O	-0.304561	-0.968047	-0.142871
O32	O	0.028772	-0.634714	0.190462
O33	O	0.362106	-0.301380	0.523795
O34	O	-0.304526	-0.849197	-0.261730
O35	O	0.028807	-0.515864	0.071603
O36	O	0.362140	-0.182530	0.404936
O37	O	-0.392683	-0.955391	-0.457999
O38	O	-0.059349	-0.622058	-0.124666
O39	O	0.273984	-0.288724	0.208668
O40	O	-0.384813	-0.845682	-0.348296
O41	O	-0.051480	-0.512349	-0.014962
O42	O	0.281853	-0.179015	0.318371
O43	O	-0.318358	-1.042031	-0.454554
O44	O	0.014976	-0.708697	-0.121221
O45	O	0.348309	-0.375364	0.212112
O46	O	-0.490838	-1.049944	-0.253629
O47	O	-0.157505	-0.716611	0.079704
O48	O	0.175828	-0.383278	0.413037
O49	O	-0.490812	-0.959893	-0.343687
O50	O	-0.157479	-0.626560	-0.010353
O51	O	0.175855	-0.293227	0.322980
C52	C	-0.343786	-0.821862	-0.306038
C53	C	-0.010453	-0.488528	0.027295
C54	C	0.322881	-0.155195	0.360629
C55	C	-0.341092	-0.743508	-0.309194
C56	C	-0.007759	-0.410175	0.024140
C57	C	0.325574	-0.076842	0.357473
C58	C	-0.378470	-0.708473	-0.265514
C59	C	-0.045136	-0.375140	0.067819
C60	C	0.288197	-0.041807	0.401152
C61	C	-0.375939	-0.634852	-0.268489
C62	C	-0.042606	-0.301518	0.064845
C63	C	0.290727	0.031815	0.398178
C64	C	-0.336028	-0.596266	-0.315139
C65	C	-0.002694	-0.262933	0.018194
C66	C	0.330639	0.070401	0.351528
C67	C	-0.298649	-0.631306	-0.358823
C68	C	0.034685	-0.297972	-0.025490
C69	C	0.368018	0.035361	0.307844
C70	C	-0.301183	-0.704926	-0.355852
C71	C	0.032150	-0.371593	-0.022518
C72	C	0.365484	-0.038259	0.310815
C73	C	-0.324308	-0.375894	-0.328871
C74	C	0.009026	-0.042560	0.004462
C75	C	0.342359	0.290773	0.337795
C76	C	-0.321775	-0.302268	-0.331838
C77	C	0.011558	0.031065	0.001496
C78	C	0.344892	0.364398	0.334829
C79	C	-0.399067	-0.305819	-0.241504
C80	C	-0.065733	0.027514	0.091829
C81	C	0.267600	0.360847	0.425163
C82	C	-0.401595	-0.379441	-0.238534
C83	C	-0.068261	-0.046108	0.094799
C84	C	0.265072	0.287226	0.428133
C85	C	-0.364218	-0.414474	-0.282220
C86	C	-0.030885	-0.081141	0.051113
C87	C	0.302449	0.252192	0.384446
N88	N	-0.333439	-0.521013	-0.318179
N89	N	-0.000105	-0.187679	0.015155
N90	N	0.333228	0.145654	0.348488
N91	N	-0.366811	-0.489726	-0.279184
N92	N	-0.033477	-0.156393	0.054150
N93	N	0.299856	0.176940	0.387483
C94	C	-0.513666	-1.004922	-0.298666
C95	C	-0.180333	-0.671589	0.034668
C96	C	0.153001	-0.338255	0.368001
C97	C	-0.583635	-1.004947	-0.298672
C98	C	-0.250302	-0.671613	0.034662
C99	C	0.083031	-0.338280	0.367995
C100	C	-0.616498	-1.051874	-0.251823
C101	C	-0.283164	-0.718541	0.081510
C102	C	0.050169	-0.385208	0.414844
C103	C	-0.682242	-1.051907	-0.251838
C104	C	-0.348909	-0.718573	0.081496
C105	C	-0.015575	-0.385240	0.414829
C106	C	-0.715120	-1.004999	-0.298694
C107	C	-0.381787	-0.671666	0.034640
C108	C	-0.048454	-0.338333	0.367973
C109	C	-0.682250	-0.958068	-0.345551
C110	C	-0.348917	-0.624735	-0.012218
C111	C	-0.015584	-0.291401	0.321116
C112	C	-0.616508	-0.958042	-0.345540
C113	C	-0.283174	-0.624708	-0.012207
C114	C	0.050159	-0.291375	0.321127
N115	N	-0.816443	-0.943117	-0.306538
N116	N	-0.483110	-0.609783	0.026795
N117	N	-0.149777	-0.276450	0.360129
N118	N	-0.878896	-0.943144	-0.306544
N119	N	-0.545563	-0.609810	0.026789
N120	N	-0.212229	-0.276477	0.360122
C121	C	-0.913199	-1.005077	-0.298731
C122	C	-0.579866	-0.671743	0.034602
C123	C	-0.246533	-0.338410	0.367936
N124	N	-0.882690	-1.066983	-0.290897
N125	N	-0.549357	-0.733650	0.042436
N126	N	-0.216023	-0.400317	0.375770
N127	N	-0.820232	-1.066956	-0.290887
N128	N	-0.486898	-0.733622	0.042446
N129	N	-0.153565	-0.400289	0.375780
C130	C	-0.786407	-1.005023	-0.298711
C131	C	-0.453074	-0.671689	0.034622
C132	C	-0.119741	-0.338356	0.367955
C133	C	-1.017349	-1.052043	-0.251896
C134	C	-0.684016	-0.718710	0.081438
C135	C	-0.350682	-0.385377	0.414771
C136	C	-1.083095	-1.052077	-0.251915
C137	C	-0.749761	-0.718743	0.081418
C138	C	-0.416428	-0.385410	0.414752
C139	C	-1.083101	-0.958232	-0.345625
C140	C	-0.749768	-0.624898	-0.012292
C141	C	-0.416435	-0.291565	0.321042
C142	C	-1.017357	-0.958205	-0.345609
C143	C	-0.684024	-0.624871	-0.012276
C144	C	-0.350691	-0.291538	0.321058
C145	C	-0.984485	-1.005109	-0.298741
C146	C	-0.651152	-0.671776	0.034593
C147	C	-0.317818	-0.338443	0.367926
C148	C	-0.185934	-1.005123	-0.298751
C149	C	0.147399	-0.671789	0.034582
C150	C	0.480732	-0.338456	0.367916
C151	C	-0.115969	-1.005169	-0.298772
C152	C	0.217365	-0.671836	0.034561
C153	C	0.550698	-0.338503	0.367894
C154	C	-0.356421	-0.997659	-0.482570
C155	C	-0.023088	-0.664326	-0.149237
C156	C	0.310245	-0.330993	0.184097
C157	C	-0.359107	-0.994526	-0.560924
C158	C	-0.025774	-0.661192	-0.227591
C159	C	0.307560	-0.327859	0.105743
C160	C	-0.356469	-0.188880	-0.291326
C161	C	-0.023135	0.144454	0.042007
C162	C	0.310198	0.477787	0.375341
C163	C	-0.359152	-0.267234	-0.288159
C164	C	-0.025819	0.066100	0.045175
C165	C	0.307514	0.399433	0.378508
C166	C	-0.321674	-1.038160	-0.595943
C167	C	0.011660	-0.704826	-0.262609
C168	C	0.344993	-0.371493	0.070724
C169	C	-0.324194	-1.035207	-0.669565
C170	C	0.009139	-0.701873	-0.336231
C171	C	0.342472	-0.368540	-0.002898
C172	C	-0.364152	-0.988623	-0.708167
C173	C	-0.030819	-0.655289	-0.374834
C174	C	0.302514	-0.321956	-0.041500
C175	C	-0.401587	-0.944984	-0.673144
C176	C	-0.068254	-0.611651	-0.339810
C177	C	0.265079	-0.278317	-0.006477
C178	C	-0.399063	-0.947934	-0.599523
C179	C	-0.065729	-0.614600	-0.266189
C180	C	0.267604	-0.281267	0.067144
C181	C	-0.375849	-0.974960	-0.928542
C182	C	-0.042516	-0.641627	-0.595209
C183	C	0.290818	-0.308293	-0.261876
C184	C	-0.378372	-0.972015	-1.002168
C185	C	-0.045039	-0.638681	-0.668835
C186	C	0.288294	-0.305348	-0.335501
C187	C	-0.300978	-1.062237	-0.998584
C188	C	0.032355	-0.728904	-0.665251
C189	C	0.365689	-0.395570	-0.331918
C190	C	-0.298460	-1.065186	-0.924962
C191	C	0.034873	-0.731852	-0.591629
C192	C	0.368207	-0.398519	-0.258295
C193	C	-0.335892	-1.021544	-0.889945
C194	C	-0.002559	-0.688211	-0.556612
C195	C	0.330774	-0.354878	-0.223278
N196	N	-0.366732	-0.985605	-0.783421
N197	N	-0.033398	-0.652271	-0.450088
N198	N	0.299935	-0.318938	-0.116754
N199	N	-0.333310	-1.024559	-0.814693
N200	N	0.000024	-0.691226	-0.481359
N201	N	0.333357	-0.357893	-0.148026
C202	C	-0.343797	-1.012378	-0.115546
C203	C	-0.010464	-0.679045	0.217788
C204	C	0.322870	-0.345712	0.551121
C205	C	-0.340939	-1.015649	-0.037187
C206	C	-0.007605	-0.682315	0.296147
C207	C	0.325728	-0.348982	0.629480
H208	H	-0.289269	-0.270854	-0.369824
H209	H	0.044064	0.062479	-0.036491
H210	H	0.377398	0.395813	0.296842
N211	N	-0.442357	-0.418861	-0.190880
N212	N	-0.109024	-0.085528	0.142453
N213	N	0.224310	0.247806	0.475787
N214	N	-0.420019	-0.461733	-0.144348
N215	N	-0.086686	-0.128399	0.188985
N216	N	0.246647	0.204934	0.522319
H217	H	-0.448806	-0.489574	-0.110689
H218	H	-0.115473	-0.156240	0.222644
H219	H	0.217860	0.177093	0.555978
H220	H	-0.709004	-1.090123	-0.213688
H221	H	-0.375670	-0.756790	0.119645
H222	H	-0.042337	-0.423457	0.452979
H223	H	-1.109850	-1.090295	-0.213767
H224	H	-0.776517	-0.756962	0.119567
H225	H	-0.443184	-0.423628	0.452900
H226	H	-0.429497	-0.277287	-0.205938
H227	H	-0.096164	0.056046	0.127395
H228	H	0.237169	0.389379	0.460729
N229	N	-0.582938	-0.910111	-0.393405
N230	N	-0.249604	-0.576778	-0.060071
N231	N	0.083729	-0.243444	0.273262
N232	N	-0.592637	-0.912140	-0.458272
N233	N	-0.259303	-0.578807	-0.124939
N234	N	0.074030	-0.245473	0.208394
H235	H	-0.568927	-0.878288	-0.492078
H236	H	-0.235594	-0.544955	-0.158745
H237	H	0.097740	-0.211622	0.174588
H238	H	-0.429539	-0.912395	-0.571012
H239	H	-0.096205	-0.579062	-0.237679
H240	H	0.237128	-0.245729	0.095655
N241	N	-0.983758	-1.099965	-0.204045
N242	N	-0.650424	-0.766631	0.129289
N243	N	-0.317091	-0.433298	0.462622
N244	N	-0.925060	-1.099938	-0.204043
N245	N	-0.591726	-0.766604	0.129290
N246	N	-0.258393	-0.433271	0.462624
H247	H	-0.901336	-1.133785	-0.170251
H248	H	-0.568003	-0.800452	0.163082
H249	H	-0.234669	-0.467118	0.496416
H250	H	-0.293874	-0.404409	-0.364445
H251	H	0.039459	-0.071076	-0.031111
H252	H	0.372793	0.262258	0.302222
N253	N	-1.116688	-0.910325	-0.393488
N254	N	-0.783354	-0.576991	-0.060154
N255	N	-0.450021	-0.243658	0.273179
N256	N	-1.175386	-0.910355	-0.393494
N257	N	-0.842053	-0.577022	-0.060161
N258	N	-0.508719	-0.243689	0.273173
H259	H	-1.199110	-0.876521	-0.427300
H260	H	-0.865777	-0.543188	-0.093966
H261	H	-0.532444	-0.209855	0.239367
N262	N	-0.983795	-0.910263	-0.393468
N263	N	-0.650462	-0.576929	-0.060135
N264	N	-0.317128	-0.243596	0.273199
N265	N	-1.013156	-0.868386	-0.435304
N266	N	-0.679822	-0.535052	-0.101970
N267	N	-0.346489	-0.201719	0.231363
H268	H	-0.989453	-0.834526	-0.469108
H269	H	-0.656120	-0.501192	-0.135775
H270	H	-0.322787	-0.167859	0.197558
H271	H	-0.265924	-1.103121	-0.893537
H272	H	0.067410	-0.769788	-0.560203
H273	H	0.400743	-0.436455	-0.226870
H274	H	-0.289138	-1.076096	-0.564518
H275	H	0.044196	-0.742762	-0.231184
H276	H	0.377529	-0.409429	0.102149
N277	N	-0.285953	-1.079783	-0.705324
N278	N	0.047381	-0.746449	-0.371991
N279	N	0.380714	-0.413116	-0.038657
N280	N	-0.250282	-1.121376	-0.670850
N281	N	0.083051	-0.788043	-0.337516
N282	N	0.416384	-0.454709	-0.004183
H283	H	-0.223272	-1.152861	-0.696104
H284	H	0.110061	-0.819527	-0.362770
H285	H	0.443395	-0.486194	-0.029437
N286	N	-0.414079	-0.930374	-0.892785
N287	N	-0.080746	-0.597041	-0.559451
N288	N	0.252587	-0.263707	-0.226118
N289	N	-0.407933	-0.865002	-0.903619
N290	N	-0.074600	-0.531668	-0.570286
N291	N	0.258734	-0.198335	-0.236953
H292	H	-0.434935	-0.833509	-0.878365
H293	H	-0.101602	-0.500175	-0.545031
H294	H	0.231732	-0.166842	-0.211698
H295	H	-0.270502	-1.097766	-1.027103
H296	H	0.062831	-0.764433	-0.693770
H297	H	0.396165	-0.431100	-0.360436
N298	N	-0.414114	-0.599050	-0.223877
N299	N	-0.080780	-0.265717	0.109456
N300	N	0.252553	0.067617	0.442789
N301	N	-0.453694	-0.556967	-0.250251
N302	N	-0.120361	-0.223633	0.083082
N303	N	0.212972	0.109700	0.416415
H304	H	-0.480656	-0.531679	-0.218743
H305	H	-0.147322	-0.198346	0.114590
H306	H	0.186011	0.134987	0.447923
N307	N	-0.442395	-0.897397	-0.712583
N308	N	-0.109062	-0.564064	-0.379250
N309	N	0.224272	-0.230731	-0.045917
N310	N	-0.444645	-0.894769	-0.778315
N311	N	-0.111311	-0.561436	-0.444982
N312	N	0.222022	-0.228102	-0.111649
H313	H	-0.473467	-0.861161	-0.806170
H314	H	-0.140133	-0.527827	-0.472837
H315	H	0.193200	-0.194494	-0.139503
H316	H	-0.266155	-0.599883	-0.396810
H317	H	0.067178	-0.266550	-0.063476
H318	H	0.400512	0.066783	0.269857
H319	H	-0.270746	-0.733450	-0.391420
H320	H	0.062588	-0.400117	-0.058086
H321	H	0.395921	-0.066784	0.275247
H322	H	-0.410912	-0.934078	-1.033596
H323	H	-0.077579	-0.600745	-0.700263
H324	H	0.255754	-0.267412	-0.366930
N325	N	-0.582929	-1.099780	-0.203936
N326	N	-0.249596	-0.766447	0.129397
N327	N	0.083738	-0.433113	0.462730
N328	N	-0.587924	-1.097750	-0.139074
N329	N	-0.254591	-0.764416	0.194259
N330	N	0.078743	-0.431083	0.527592
H331	H	-0.564218	-1.131583	-0.105250
H332	H	-0.230885	-0.798250	0.228083
H333	H	0.102449	-0.464917	0.561416
N334	N	-0.419236	-0.747874	-0.217851
N335	N	-0.085903	-0.414541	0.115483
N336	N	0.247430	-0.081207	0.448816
N337	N	-0.452605	-0.716580	-0.178855
N338	N	-0.119272	-0.383247	0.154479
N339	N	0.214062	-0.049914	0.487812
H340	H	-0.481398	-0.744404	-0.145191
H341	H	-0.148065	-0.411071	0.188143
H342	H	0.185268	-0.077738	0.521476
H343	H	-0.709024	-0.919877	-0.383703
H344	H	-0.375691	-0.586544	-0.050369
H345	H	-0.042358	-0.253210	0.282964
