data_functionalizedCrystal
_audit_creation_method	'MofGen! by Chris Wilmer'
_symmetry_space_group_name_H-M	'P1'
_symmetry_Int_Tables_number	1
_symmetry_cell_setting	triclinic
loop_
_symmetry_equiv_pos_as_xyz
  x,y,z
_cell_length_a	23.532407
_cell_length_b	27.731996
_cell_length_c	22.010155
_cell_angle_alpha	89.998256
_cell_angle_beta	89.994271
_cell_angle_gamma	82.735067
loop_
_atom_site_label
_atom_site_type_symbol
_atom_site_fract_x
_atom_site_fract_y
_atom_site_fract_z
O1	O	0.755125	0.058674	-0.050495
O2	O	1.255125	0.558674	0.449505
O3	O	0.589242	0.067164	-0.050505
O4	O	1.089242	0.567164	0.449495
O5	O	0.677351	-0.007472	-0.050486
O6	O	1.177351	0.492528	0.449514
O7	O	0.667016	0.133310	-0.050513
O8	O	1.167016	0.633310	0.449487
O9	O	0.677335	-0.007460	0.050564
O10	O	1.177335	0.492540	0.550564
O11	O	0.589226	0.067175	0.050545
O12	O	1.089226	0.567175	0.550545
O13	O	0.755109	0.058685	0.050556
O14	O	1.255109	0.558685	0.550556
Cu15	Cu	0.672166	0.062931	0.059777
Cu16	Cu	1.172166	0.562931	0.559777
Cu17	Cu	0.672185	0.062918	-0.059727
Cu18	Cu	1.172185	0.562918	0.440273
O19	O	0.667000	0.133321	0.050537
O20	O	1.167000	0.633321	0.550537
C21	C	0.568019	0.066954	0.000019
C22	C	1.068019	0.566954	0.500019
C23	C	0.504803	0.066303	0.000015
C24	C	1.004803	0.566303	0.500015
C25	C	0.238746	0.019455	0.000041
C26	C	0.738746	0.519455	0.500041
C27	C	0.298145	0.020059	0.000040
C28	C	0.798145	0.520059	0.500040
O29	O	0.334977	-0.017106	0.000069
O30	O	0.834977	0.482894	0.500069
N31	N	0.320666	0.064430	0.000028
N32	N	0.820666	0.564430	0.500028
C33	C	0.283786	0.108200	0.000022
C34	C	0.783786	0.608200	0.500022
O35	O	0.308396	0.145996	0.000011
O36	O	0.808396	0.645996	0.500011
C37	C	0.224388	0.107595	0.000026
C38	C	0.724388	0.607595	0.500026
C39	C	0.201870	0.063221	0.000033
C40	C	0.701870	0.563221	0.500033
C41	C	0.216227	-0.024915	0.000048
C42	C	0.716227	0.475085	0.500048
C43	C	0.156832	-0.025519	0.000047
C44	C	0.656832	0.474481	0.500047
C45	C	0.119956	0.018248	0.000039
C46	C	0.619956	0.518248	0.500039
C47	C	0.142475	0.062618	0.000032
C48	C	0.642475	0.562618	0.500032
C49	C	0.187509	0.151365	0.000024
C50	C	0.687509	0.651365	0.500024
C51	C	0.128108	0.150757	0.000030
C52	C	0.628108	0.650757	0.500030
C53	C	0.105589	0.106383	0.000036
C54	C	0.605589	0.606383	0.500036
C55	C	0.046205	0.105781	0.000023
C56	C	0.546205	0.605781	0.500023
N57	N	0.023683	0.061410	0.000036
N58	N	0.523683	0.561410	0.500036
C59	C	0.060559	0.017643	0.000044
C60	C	0.560559	0.517643	0.500044
C61	C	0.408525	0.109465	0.000013
C62	C	0.908525	0.609465	0.500013
C63	C	0.467922	0.110070	0.000004
C64	C	0.967922	0.610070	0.500004
C65	C	0.482277	0.021929	0.000024
C66	C	0.982277	0.521929	0.500024
C67	C	0.422879	0.021325	0.000029
C68	C	0.922879	0.521325	0.500029
C69	C	0.386004	0.065095	0.000026
C70	C	0.886004	0.565095	0.500026
C71	C	-0.064175	0.016379	0.000041
C72	C	0.435825	0.516379	0.500041
C73	C	-0.123576	0.015779	0.000038
C74	C	0.376424	0.515779	0.500038
C75	C	-0.137925	0.103920	0.000021
C76	C	0.362075	0.603920	0.500021
C77	C	-0.078530	0.104520	0.000021
C78	C	0.421470	0.604520	0.500021
C79	C	-0.041656	0.060745	0.000033
C80	C	0.458344	0.560745	0.500033
O81	O	0.009338	0.142926	-0.000003
O82	O	0.509338	0.642926	0.499997
O83	O	0.035940	-0.020147	0.000062
O84	O	0.535940	0.479853	0.500062
C85	C	0.677131	-0.025474	0.000041
C86	C	1.177131	0.474526	0.500041
C87	C	0.676491	-0.079131	0.000047
C88	C	1.176491	0.420869	0.500047
C89	C	0.672477	-0.411860	-0.055066
C90	C	1.172477	0.088140	0.444934
C91	C	0.670049	-0.613522	-0.055076
C92	C	1.170049	-0.113522	0.444924
O93	O	0.669718	-0.639598	-0.101922
O94	O	1.169718	-0.139598	0.398078
N95	N	0.669738	-0.638733	0.000006
N96	N	1.169738	-0.138733	0.500006
C97	C	0.670031	-0.613526	0.055094
C98	C	1.170031	-0.113526	0.555094
O99	O	0.669706	-0.639596	0.101945
O100	O	1.169706	-0.139596	0.601945
C101	C	0.672456	-0.411864	0.055104
C102	C	1.172456	0.088136	0.555104
C103	C	0.672772	-0.386656	0.000019
C104	C	1.172772	0.113344	0.500019
C105	C	0.672792	-0.386651	-0.110147
C106	C	1.172792	0.113349	0.389853
C107	C	0.673403	-0.336239	-0.110143
C108	C	1.173403	0.163761	0.389857
C109	C	0.673697	-0.311035	-0.055059
C110	C	1.173697	0.188965	0.444941
C111	C	0.673382	-0.336244	0.000022
C112	C	1.173382	0.163756	0.500022
C113	C	0.672744	-0.386657	0.110192
C114	C	1.172744	0.113343	0.610192
C115	C	0.673349	-0.336238	0.110190
C116	C	1.173349	0.163762	0.610190
C117	C	0.673665	-0.311030	0.055104
C118	C	1.173665	0.188970	0.555104
C119	C	0.674287	-0.260628	0.055110
C120	C	1.174287	0.239372	0.555110
N121	N	0.674597	-0.235416	0.000028
N122	N	1.174597	0.264584	0.500028
C123	C	0.674302	-0.260620	-0.055057
C124	C	1.174302	0.239380	0.444943
C125	C	0.668760	-0.719401	0.055085
C126	C	1.168760	-0.219401	0.555085
C127	C	0.668155	-0.769816	0.055083
C128	C	1.168155	-0.269816	0.555083
C129	C	0.668171	-0.769809	-0.055088
C130	C	1.168171	-0.269809	0.444912
C131	C	0.668780	-0.719393	-0.055085
C132	C	1.168780	-0.219393	0.444915
C133	C	0.669070	-0.694189	0.000003
C134	C	1.169070	-0.194189	0.500003
C135	C	0.675584	-0.154751	-0.055046
C136	C	1.175584	0.345249	0.444954
C137	C	0.676197	-0.104335	-0.055037
C138	C	1.176197	0.395665	0.444963
C139	C	0.676177	-0.104346	0.055133
C140	C	1.176177	0.395654	0.555133
C141	C	0.675568	-0.154759	0.055125
C142	C	1.175568	0.345241	0.555125
C143	C	0.675269	-0.179959	0.000031
C144	C	1.175269	0.320041	0.500031
O145	O	0.674612	-0.234520	0.101931
O146	O	1.174612	0.265480	0.601931
O147	O	0.674615	-0.234539	-0.101900
O148	O	1.174615	0.265461	0.398100
C149	C	0.671867	-0.462272	-0.055069
C150	C	1.171867	0.037728	0.444931
C151	C	0.671551	-0.487480	0.000012
C152	C	1.171551	0.012520	0.500012
C153	C	0.671846	-0.462276	0.055097
C154	C	1.171846	0.037724	0.555097
C155	C	0.670946	-0.537895	0.000010
C156	C	1.170946	-0.037895	0.500010
C157	C	0.670652	-0.563099	-0.055075
C158	C	1.170652	-0.063099	0.444925
C159	C	0.670962	-0.537888	-0.110157
C160	C	1.170962	-0.037888	0.389843
C161	C	0.671572	-0.487475	-0.110153
C162	C	1.171572	0.012525	0.389847
C163	C	0.671536	-0.487488	0.110179
C164	C	1.171536	0.012512	0.610179
C165	C	0.670926	-0.537900	0.110171
C166	C	1.170926	-0.037900	0.610171
C167	C	0.670632	-0.563104	0.055087
C168	C	1.170632	-0.063104	0.555087
C169	C	0.776333	0.058896	0.000030
C170	C	1.276333	0.558896	0.500030
C171	C	0.839548	0.059546	0.000030
C172	C	1.339548	0.559546	0.500030
C173	C	0.667221	0.151323	0.000008
C174	C	1.167221	0.651323	0.500008
C175	C	0.667860	0.204980	-0.000002
C176	C	1.167860	0.704980	0.499998
N177	N	0.672157	0.062940	0.143830
N178	N	1.172157	0.562940	0.643830
N179	N	0.672199	0.062905	-0.143779
N180	N	1.172199	0.562905	0.356221
C181	C	0.711202	0.029874	0.563617
C182	C	1.211202	0.529874	1.063617
C183	C	0.711205	0.029871	0.627225
C184	C	1.211205	0.529871	1.127225
O185	O	0.744379	0.001763	0.660123
O186	O	1.244379	0.501763	1.160123
N187	N	0.672185	0.062908	0.659037
N188	N	1.172185	0.562908	1.159037
C189	C	0.633156	0.095947	0.627238
C190	C	1.133156	0.595947	1.127238
O191	O	0.599966	0.124048	0.660137
O192	O	1.099966	0.624048	1.160137
C193	C	0.633151	0.095948	0.563631
C194	C	1.133151	0.595948	1.063631
C195	C	0.672177	0.062912	0.531823
C196	C	1.172177	0.562912	1.031823
C197	C	0.750225	-0.003160	0.531809
C198	C	1.250225	0.496840	1.031809
C199	C	0.750223	-0.003156	0.468206
C200	C	1.250223	0.496844	0.968206
C201	C	0.711198	0.029882	0.436411
C202	C	1.211198	0.529882	0.936411
C203	C	0.672175	0.062916	0.468219
C204	C	1.172175	0.562916	0.968219
C205	C	0.594120	0.128985	0.531833
C206	C	1.094120	0.628985	1.031833
C207	C	0.594118	0.128982	0.468222
C208	C	1.094118	0.628982	0.968222
C209	C	0.633144	0.095946	0.436414
C210	C	1.133144	0.595946	0.936414
C211	C	0.633148	0.095958	0.372822
C212	C	1.133148	0.595958	0.872822
N213	N	0.672168	0.062921	0.341010
N214	N	1.172168	0.562921	0.841010
C215	C	0.711193	0.029883	0.372804
C216	C	1.211193	0.529883	0.872804
C217	C	0.633169	0.095943	0.760815
C218	C	1.133169	0.595943	1.260815
C219	C	0.633176	0.095945	0.824421
C220	C	1.133176	0.595945	1.324421
C221	C	0.711224	0.029867	0.824404
C222	C	1.211224	0.529867	1.324404
C223	C	0.711219	0.029868	0.760797
C224	C	1.211219	0.529868	1.260797
C225	C	0.672189	0.062906	0.729004
C226	C	1.172189	0.562906	1.229004
C227	C	0.711186	0.029894	0.239233
C228	C	1.211186	0.529894	0.739233
C229	C	0.711182	0.029902	0.175624
C230	C	1.211182	0.529902	0.675624
C231	C	0.633132	0.095978	0.175647
C232	C	1.133132	0.595978	0.675647
C233	C	0.633138	0.095971	0.239250
C234	C	1.133138	0.595971	0.739250
C235	C	0.672167	0.062925	0.271042
C236	C	1.172167	0.562925	0.771042
O237	O	0.599989	0.124050	0.339883
O238	O	1.099989	0.624050	0.839883
O239	O	0.744372	0.001783	0.339898
O240	O	1.244372	0.501783	0.839898
H241	H	0.404549	-0.014808	0.000034
H242	H	0.904549	0.485192	0.500034
H243	H	0.675338	-0.175263	-0.099909
H244	H	1.175338	0.324737	0.400091
H245	H	0.676455	-0.083813	-0.099897
H246	H	1.176455	0.416187	0.400103
O247	O	0.670768	-0.562361	-0.163684
O248	O	1.170768	-0.062361	0.336316
C249	C	0.720252	-0.555753	-0.197212
C250	C	1.220252	-0.055753	0.302788
H251	H	0.754912	-0.545895	-0.164988
H252	H	1.254912	-0.045895	0.335012
H253	H	0.709452	-0.525195	-0.231556
H254	H	1.209452	-0.025195	0.268444
C255	C	0.699505	-0.615239	-0.270547
C256	C	1.199505	-0.115239	0.229453
C257	C	0.742077	-0.603135	-0.230969
C258	C	1.242077	-0.103135	0.269031
H259	H	0.712967	-0.644465	-0.291373
H260	H	1.212967	-0.144465	0.208627
H261	H	0.666166	-0.619690	-0.247961
H262	H	1.166166	-0.119690	0.252039
H263	H	0.690508	-0.589770	-0.299162
H264	H	1.190508	-0.089770	0.200838
H265	H	0.751068	-0.628600	-0.202350
H266	H	1.251068	-0.128600	0.297650
H267	H	0.775419	-0.598689	-0.253551
H268	H	1.275419	-0.098689	0.246449
O269	O	0.749108	-0.002296	0.855228
O270	O	1.249108	0.497704	1.355228
C271	C	0.740273	-0.050109	0.839701
C272	C	1.240273	0.449891	1.339701
H273	H	0.718323	-0.049955	0.793520
H274	H	1.218323	0.450045	1.293520
H275	H	0.712058	-0.064933	0.875502
H276	H	1.212058	0.435067	1.375502
C277	C	0.825347	-0.082709	0.893482
C278	C	1.325347	0.417291	1.393482
C279	C	0.798392	-0.082520	0.836759
C280	C	1.298392	0.417480	1.336759
H281	H	0.861196	-0.102703	0.891670
H282	H	1.361196	0.397297	1.391670
H283	H	0.831299	-0.050497	0.903945
H284	H	1.331299	0.449503	1.403945
H285	H	0.801829	-0.095061	0.923310
H286	H	1.301829	0.404939	1.423310
H287	H	0.821907	-0.070162	0.806933
H288	H	1.321907	0.429838	1.306933
H289	H	0.792445	-0.114731	0.826291
H290	H	1.292445	0.385269	1.326291
O291	O	0.667906	-0.794224	-0.108653
O292	O	1.167906	-0.294224	0.391347
C293	C	0.668290	-0.761165	-0.157276
C294	C	1.168290	-0.261165	0.342724
H295	H	0.686762	-0.727317	-0.141135
H296	H	1.186762	-0.227317	0.358865
H297	H	0.622647	-0.750509	-0.174208
H298	H	1.122647	-0.250509	0.325792
C299	C	0.682726	-0.826747	-0.229145
C300	C	1.182726	-0.326747	0.270855
C301	C	0.705418	-0.785175	-0.209322
C302	C	1.205418	-0.285175	0.290678
H303	H	0.705626	-0.841557	-0.261251
H304	H	1.205626	-0.341557	0.238749
H305	H	0.682465	-0.849019	-0.196388
H306	H	1.182465	-0.349019	0.303612
H307	H	0.644691	-0.817861	-0.243251
H308	H	1.144691	-0.317861	0.256749
H309	H	0.743450	-0.794062	-0.195210
H310	H	1.243450	-0.294062	0.304790
H311	H	0.705686	-0.762904	-0.242079
H312	H	1.205686	-0.262904	0.257921
H313	H	0.676420	-0.083817	0.099981
H314	H	1.176420	0.416183	0.599981
O315	O	-0.173833	0.146388	0.000043
O316	O	0.326167	0.646388	0.500043
C317	C	-0.231085	0.136335	0.000032
C318	C	0.268915	0.636335	0.500032
H319	H	-0.233023	0.098377	0.019165
H320	H	0.266977	0.598377	0.519165
H321	H	-0.248280	0.138250	-0.048446
H322	H	0.251720	0.638250	0.451554
C323	C	-0.265402	0.220660	0.016162
C324	C	0.234598	0.720660	0.516162
C325	C	-0.267782	0.174042	0.039666
C326	C	0.232218	0.674042	0.539666
H327	H	-0.288039	0.243920	0.040607
H328	H	0.211961	0.743920	0.540607
H329	H	-0.226830	0.227434	0.016166
H330	H	0.273170	0.727434	0.516166
H331	H	-0.279730	0.222249	-0.024236
H332	H	0.220270	0.722249	0.475764
H333	H	-0.253447	0.172452	0.080060
H334	H	0.246553	0.672452	0.580060
H335	H	-0.306352	0.167268	0.039669
H336	H	0.193648	0.667268	0.539669
O337	O	0.749123	-0.002140	0.270175
O338	O	1.249123	0.497860	0.770175
C339	C	0.784037	0.023593	0.306951
C340	C	1.284037	0.523593	0.806951
H341	H	0.761011	0.061515	0.316495
H342	H	1.261011	0.561515	0.816495
H343	H	0.826091	0.026703	0.282425
H344	H	1.326091	0.526703	0.782425
C345	C	0.824751	-0.050301	0.355638
C346	C	1.324751	0.449699	0.855638
C347	C	0.796468	-0.003726	0.367365
C348	C	1.296468	0.496274	0.867365
H349	H	0.832422	-0.067153	0.392903
H350	H	1.332422	0.432847	0.892903
H351	H	0.801231	-0.067638	0.330860
H352	H	1.301231	0.432362	0.830860
H353	H	0.859793	-0.047703	0.335198
H354	H	1.359793	0.452297	0.835198
H355	H	0.761424	-0.006325	0.387797
H356	H	1.261424	0.493675	0.887797
H357	H	0.819983	0.013610	0.392148
H358	H	1.319983	0.513610	0.892148
H359	H	0.673658	-0.315719	-0.155000
H360	H	1.173658	0.184281	0.345000
H361	H	0.667906	-0.790337	0.099939
H362	H	1.167906	-0.290337	0.599939
O363	O	0.595203	0.128116	0.144849
O364	O	1.095203	0.628116	0.644849
C365	C	0.560746	0.157267	0.186559
C366	C	1.060746	0.657267	0.686559
H367	H	0.584087	0.157717	0.231898
H368	H	1.084087	0.657717	0.731898
H369	H	0.518585	0.141749	0.193329
H370	H	1.018585	0.641749	0.693329
C371	C	0.519859	0.208911	0.106043
C372	C	1.019859	0.708911	0.606043
C373	C	0.548530	0.209468	0.161728
C374	C	1.048530	0.709468	0.661728
H375	H	0.512321	0.241110	0.090725
H376	H	1.012321	0.741110	0.590725
H377	H	0.543072	0.189270	0.077942
H378	H	1.043072	0.689270	0.577942
H379	H	0.484728	0.195977	0.111692
H380	H	0.984728	0.695977	0.611692
H381	H	0.583663	0.222396	0.156076
H382	H	1.083663	0.722396	0.656076
H383	H	0.525323	0.229112	0.189827
H384	H	1.025323	0.729112	0.689827
O385	O	0.595210	0.127997	0.270222
O386	O	1.095210	0.627997	0.770222
C387	C	0.560303	0.102254	0.307001
C388	C	1.060303	0.602254	0.807001
H389	H	0.583329	0.064329	0.316522
H390	H	1.083329	0.564329	0.816522
H391	H	0.518243	0.099153	0.282491
H392	H	1.018243	0.599153	0.782491
C393	C	0.519600	0.176133	0.355734
C394	C	1.019600	0.676133	0.855734
C395	C	0.547884	0.129554	0.367431
C396	C	1.047884	0.629554	0.867431
H397	H	0.511937	0.192973	0.393009
H398	H	1.011937	0.692973	0.893009
H399	H	0.543116	0.193477	0.330953
H400	H	1.043116	0.693477	0.830953
H401	H	0.484554	0.173542	0.335307
H402	H	0.984554	0.673542	0.835307
H403	H	0.582933	0.132145	0.387851
H404	H	1.082933	0.632145	0.887851
H405	H	0.524374	0.112210	0.392216
H406	H	1.024374	0.612210	0.892216
H407	H	0.668999	-0.698885	0.099947
H408	H	1.168999	-0.198885	0.599947
O409	O	0.788115	-0.035321	0.562621
O410	O	1.288115	0.464679	1.062621
C411	C	0.779285	-0.083134	0.547088
C412	C	1.279285	0.416866	1.047088
H413	H	0.757320	-0.082976	0.500915
H414	H	1.257320	0.417024	1.000915
H415	H	0.751086	-0.097968	0.582897
H416	H	1.251086	0.402032	1.082897
C417	C	0.864381	-0.115730	0.600834
C418	C	1.364381	0.384270	1.100834
C419	C	0.837408	-0.115537	0.544120
C420	C	1.337408	0.384463	1.044120
H421	H	0.900233	-0.135719	0.599005
H422	H	1.400233	0.364281	1.099005
H423	H	0.870330	-0.083518	0.611301
H424	H	1.370330	0.416482	1.111301
H425	H	0.840876	-0.128091	0.630668
H426	H	1.340876	0.371909	1.130668
H427	H	0.860910	-0.103171	0.514288
H428	H	1.360910	0.396829	1.014288
H429	H	0.831465	-0.147748	0.533648
H430	H	1.331465	0.352252	1.033648
H431	H	0.670673	-0.558421	0.155032
H432	H	1.170673	-0.058421	0.655032
O433	O	0.672409	-0.411058	0.163758
O434	O	1.172409	0.088942	0.663758
C435	C	0.672809	-0.377993	0.212369
C436	C	1.172809	0.122007	0.712369
H437	H	0.655212	-0.339968	0.196208
H438	H	1.155212	0.160032	0.696208
H439	H	0.718576	-0.377925	0.229316
H440	H	1.218576	0.122075	0.729316
C441	C	0.656805	-0.440035	0.284256
C442	C	1.156805	0.059965	0.784256
C443	C	0.635187	-0.393332	0.264408
C444	C	1.135187	0.106668	0.764408
H445	H	0.633601	-0.449497	0.316358
H446	H	1.133601	0.050503	0.816358
H447	H	0.656538	-0.462312	0.251506
H448	H	1.156538	0.037688	0.751506
H449	H	0.694944	-0.439972	0.298374
H450	H	1.194944	0.060028	0.798374
H451	H	0.597052	-0.393397	0.250283
H452	H	1.097052	0.106603	0.750283
H453	H	0.635447	-0.371055	0.297157
H454	H	1.135447	0.128945	0.797157
H455	H	0.486250	0.146204	-0.000010
H456	H	0.986250	0.646204	0.499990
H457	H	0.246247	-0.060558	0.000056
H458	H	0.746247	0.439442	0.500056
H459	H	-0.141906	-0.020357	0.000042
H460	H	0.358094	0.479643	0.500042
H461	H	0.669037	-0.698871	-0.099941
H462	H	1.169037	-0.198871	0.400059
O463	O	-0.028442	-0.026187	0.000021
O464	O	0.471558	0.473813	0.500021
C465	C	-0.061065	-0.065474	0.000041
C466	C	0.438935	0.434526	0.500041
H467	H	-0.105508	-0.052979	-0.019089
H468	H	0.394492	0.447021	0.480911
H469	H	-0.065180	-0.079087	0.048521
H470	H	0.434820	0.420913	0.548521
C471	C	0.023478	-0.122226	-0.016091
C472	C	0.523478	0.377774	0.483909
C473	C	-0.031105	-0.106880	-0.039591
C474	C	0.468895	0.393120	0.460409
H475	H	0.041959	-0.147769	-0.040535
H476	H	0.541959	0.352231	0.459465
H477	H	0.045458	-0.095758	-0.016102
H478	H	0.545458	0.404242	0.483898
H479	H	0.020042	-0.133567	0.024309
H480	H	0.520042	0.366433	0.524309
H481	H	-0.027667	-0.095535	-0.079987
H482	H	0.472333	0.404465	0.420013
H483	H	-0.053084	-0.133347	-0.039588
H484	H	0.446916	0.366653	0.460412
H485	H	0.512312	-0.013708	0.000031
H486	H	1.012312	0.486292	0.500031
O487	O	0.673530	-0.311721	0.163687
O488	O	1.173530	0.188279	0.663687
C489	C	0.624545	-0.276834	0.166971
C490	C	1.124545	0.223166	0.666971
H491	H	0.589881	-0.288031	0.135705
H492	H	1.089881	0.211969	0.635705
H493	H	0.636166	-0.239918	0.152175
H494	H	1.136166	0.260082	0.652175
C495	C	0.644740	-0.259718	0.271178
C496	C	1.144740	0.240282	0.771178
C497	C	0.602163	-0.273472	0.232781
C498	C	1.102163	0.226528	0.732781
H499	H	0.630935	-0.257641	0.311773
H500	H	1.130935	0.242359	0.811773
H501	H	0.677743	-0.283220	0.268965
H502	H	1.177743	0.216780	0.768965
H503	H	0.654420	-0.228955	0.258841
H504	H	1.154420	0.271045	0.758841
H505	H	0.592490	-0.304236	0.245113
H506	H	1.092490	0.195764	0.745113
H507	H	0.569158	-0.249975	0.234997
H508	H	1.069158	0.250025	0.734997
H509	H	0.378504	0.145110	0.000006
H510	H	0.878504	0.645110	0.500006
H511	H	0.782000	-0.030058	0.442311
H512	H	1.282000	0.469942	0.942311
H513	H	0.205832	0.187499	0.000016
H514	H	0.705832	0.687499	0.500016
H515	H	-0.060195	0.140653	0.000015
H516	H	0.439805	0.640653	0.500015
H517	H	0.098086	0.186400	0.000030
H518	H	0.598086	0.686400	0.500030
H519	H	0.742997	0.002967	0.734902
H520	H	1.242997	0.502967	1.234902
H521	H	0.672550	-0.407167	-0.155006
H522	H	1.172550	0.092833	0.344994
H523	H	0.601387	0.122850	0.734932
H524	H	1.101387	0.622850	1.234932
O525	O	0.595215	0.128058	0.855222
O526	O	1.095215	0.628058	1.355222
C527	C	0.560783	0.157225	0.813511
C528	C	1.060783	0.657225	1.313511
H529	H	0.560323	0.137408	0.768171
H530	H	1.060323	0.637408	1.268171
H531	H	0.578949	0.193056	0.806744
H532	H	1.078949	0.693056	1.306744
C533	C	0.499821	0.191793	0.894025
C534	C	0.999821	0.691793	1.394025
C535	C	0.499252	0.167451	0.838339
C536	C	0.999252	0.667451	1.338339
H537	H	0.461866	0.198103	0.909340
H538	H	0.961866	0.698103	1.409340
H539	H	0.523019	0.172144	0.922126
H540	H	1.023019	0.672144	1.422126
H541	H	0.514962	0.221649	0.888378
H542	H	1.014962	0.721649	1.388378
H543	H	0.484118	0.137593	0.843988
H544	H	0.984118	0.637593	1.343988
H545	H	0.476050	0.187096	0.810238
H546	H	0.976050	0.687096	1.310238
H547	H	0.675316	-0.175285	0.099980
H548	H	1.175316	0.324715	0.599980
O549	O	0.671763	-0.463012	-0.163689
O550	O	1.171763	0.036988	0.336311
C551	C	0.622278	-0.469647	-0.197187
C552	C	1.122278	0.030353	0.302813
H553	H	0.587628	-0.479502	-0.164939
H554	H	1.087628	0.020498	0.335061
H555	H	0.633083	-0.500218	-0.231514
H556	H	1.133083	-0.000218	0.268486
C557	C	0.642990	-0.410184	-0.270578
C558	C	1.142990	0.089816	0.229422
C559	C	0.600431	-0.422284	-0.230970
C560	C	1.100431	0.077716	0.269030
H561	H	0.629515	-0.380969	-0.291419
H562	H	1.129515	0.119031	0.208581
H563	H	0.676331	-0.405715	-0.248011
H564	H	1.176331	0.094285	0.251989
H565	H	0.651991	-0.435663	-0.299178
H566	H	1.151991	0.064337	0.200822
H567	H	0.591437	-0.396808	-0.202366
H568	H	1.091437	0.103192	0.297634
H569	H	0.567089	-0.426747	-0.253533
H570	H	1.067089	0.073253	0.246467
H571	H	0.671777	-0.466972	0.155036
H572	H	1.171777	0.033028	0.655036
O573	O	0.749115	-0.002239	0.144820
O574	O	1.249115	0.497761	0.644820
C575	C	0.783566	-0.031391	0.186528
C576	C	1.283566	0.468609	0.686528
H577	H	0.760221	-0.031837	0.231871
H578	H	1.260221	0.468163	0.731871
H579	H	0.825729	-0.015878	0.193289
H580	H	1.325729	0.484122	0.693289
C581	C	0.824450	-0.083042	0.106012
C582	C	1.324450	0.416958	0.606012
C583	C	0.795775	-0.083593	0.161702
C584	C	1.295775	0.416407	0.661702
H585	H	0.831984	-0.115242	0.090698
H586	H	1.331984	0.384758	0.590698
H587	H	0.801241	-0.063400	0.077912
H588	H	1.301241	0.436600	0.577912
H589	H	0.859582	-0.070112	0.111654
H590	H	1.359582	0.429888	0.611654
H591	H	0.760640	-0.096518	0.156058
H592	H	1.260640	0.403482	0.656058
H593	H	0.818979	-0.103238	0.189800
H594	H	1.318979	0.396762	0.689800
O595	O	0.556153	0.161094	0.562628
O596	O	1.056153	0.661094	1.062628
C597	C	0.521721	0.190256	0.520913
C598	C	1.021721	0.690256	1.020913
H599	H	0.521265	0.170435	0.475575
H600	H	1.021265	0.670435	0.975575
H601	H	0.539882	0.226088	0.514143
H602	H	1.039882	0.726088	1.014143
C603	C	0.460752	0.224824	0.601420
C604	C	0.960752	0.724824	1.101420
C605	C	0.460188	0.200479	0.545737
C606	C	0.960188	0.700479	1.045737
H607	H	0.422796	0.231133	0.616733
H608	H	0.922796	0.731133	1.116733
H609	H	0.483950	0.205179	0.629525
H610	H	0.983950	0.705179	1.129525
H611	H	0.475889	0.254682	0.595771
H612	H	0.975889	0.754682	1.095771
H613	H	0.445058	0.170619	0.551388
H614	H	0.945058	0.670619	1.051388
H615	H	0.436985	0.220119	0.517633
H616	H	0.936985	0.720119	1.017633
H617	H	0.562333	0.155885	0.442339
H618	H	1.062333	0.655885	0.942339
H619	H	0.138504	-0.061653	0.000055
H620	H	0.638504	0.438347	0.500055
