data_functionalizedCrystal
_audit_creation_method	'MofGen! by Chris Wilmer'
_symmetry_space_group_name_H-M	'P1'
_symmetry_Int_Tables_number	1
_symmetry_cell_setting	triclinic
loop_
_symmetry_equiv_pos_as_xyz
  x,y,z
_cell_length_a	16.625548
_cell_length_b	14.908178
_cell_length_c	14.908694
_cell_angle_alpha	90.159098
_cell_angle_beta	86.683146
_cell_angle_gamma	93.314952
loop_
_atom_site_label
_atom_site_type_symbol
_atom_site_fract_x
_atom_site_fract_y
_atom_site_fract_z
Zn1	Zn	1.237872	-0.387291	-0.487731
Zn2	Zn	1.222280	-0.529002	-0.328690
Zn3	Zn	1.095730	-0.378654	-0.337387
Zn4	Zn	1.094812	-0.537620	-0.479002
O5	O	1.162673	-0.458142	-0.408202
O6	O	1.348636	-0.406097	-0.466647
O7	O	1.199351	-0.501837	-0.204017
O8	O	1.121495	-0.253965	-0.364623
O9	O	1.337181	-0.510212	-0.349800
O10	O	1.225926	-0.260311	-0.475080
O11	O	1.106375	-0.391377	-0.210407
O12	O	0.982775	-0.399733	-0.356159
O13	O	1.119931	-0.524899	-0.605986
O14	O	0.982101	-0.516524	-0.460203
O15	O	1.225036	-0.414454	-0.612399
O16	O	1.198461	-0.655979	-0.341336
O17	O	1.104811	-0.662311	-0.451770
C18	C	1.149867	-0.691773	-0.394682
C19	C	1.144464	-0.791724	-0.388928
C20	C	0.953182	-0.458127	-0.408178
C21	C	0.863560	-0.458144	-0.408188
C22	C	1.242983	-0.986006	-0.493258
C23	C	1.237909	-1.079918	-0.487854
C24	C	1.129240	-1.073463	-0.372723
C25	C	1.134313	-0.979551	-0.378126
C26	C	1.191188	-0.935825	-0.438395
C27	C	1.196265	-0.841911	-0.443793
C28	C	1.087592	-0.835458	-0.328666
C29	C	1.082518	-0.929370	-0.323263
C30	C	0.535386	-0.458152	-0.408226
C31	C	0.626694	-0.458147	-0.408212
C32	C	0.699470	-0.458148	-0.408206
C33	C	0.790784	-0.458143	-0.408194
C34	C	1.372983	-0.458157	-0.408227
C35	C	1.462604	-0.458163	-0.408238
C36	C	1.174120	-0.471601	-0.642730
C37	C	1.178998	-0.477337	-0.742671
C38	C	1.175552	-0.223599	-0.421795
C39	C	1.181040	-0.123650	-0.427588
C40	C	1.091330	-0.373095	-0.937127
C41	C	1.095911	-0.378481	-1.031032
C42	C	1.192736	-0.493499	-1.024386
C43	C	1.188155	-0.488113	-0.930482
C44	C	1.137451	-0.427908	-0.886856
C45	C	1.132876	-0.422518	-0.792950
C46	C	1.229695	-0.537540	-0.786306
C47	C	1.234276	-0.542926	-0.880210
C48	C	1.151321	-0.444669	-0.174591
C49	C	1.146613	-0.438680	-0.074664
H50	H	1.289298	-0.950404	-0.542325
H51	H	1.280083	-1.120772	-0.532534
H52	H	1.234004	-0.542527	-1.059922
O53	O	1.279458	-0.596656	-0.732089
H54	H	1.262649	-0.668267	-0.746024
H55	H	1.082932	-1.109081	-0.323659
H56	H	1.036211	-0.964984	-0.274196
H57	H	1.275554	-0.591946	-0.915743
H58	H	1.058354	-0.333847	-1.071960
O59	O	1.031721	-0.781341	-0.269481
H60	H	0.994931	-0.740887	-0.312132
O61	O	1.257610	-0.794743	-0.508787
H62	H	1.292770	-0.845419	-0.546032
H63	H	1.091593	-0.373492	-0.757432
O64	O	1.036650	-0.308157	-0.890071
H65	H	1.073169	-0.259954	-0.849952
