data_functionalizedCrystal
_audit_creation_method	'MofGen! by Chris Wilmer'
_symmetry_space_group_name_H-M	'P1'
_symmetry_Int_Tables_number	1
_symmetry_cell_setting	triclinic
loop_
_symmetry_equiv_pos_as_xyz
  x,y,z
_cell_length_a	23.096457
_cell_length_b	20.919151
_cell_length_c	20.919309
_cell_angle_alpha	60.700880
_cell_angle_beta	89.999561
_cell_angle_gamma	58.213384
loop_
_atom_site_label
_atom_site_type_symbol
_atom_site_fract_x
_atom_site_fract_y
_atom_site_fract_z
Zr1	Zr	0.525501	0.731839	-0.119831
O2	O	0.430148	0.864514	-0.225282
O3	O	0.559416	0.593561	-0.082309
O4	O	0.557695	0.723756	-0.217793
O5	O	0.427897	0.742649	0.011163
O6	O	0.652978	0.723753	-0.217795
O7	O	0.431869	0.734319	-0.089799
O8	O	0.656056	0.490859	0.024560
O9	O	0.424820	0.975543	-0.231192
O10	O	0.639329	0.652510	-0.072585
O11	O	0.565257	0.658728	0.002763
O12	O	0.563231	0.812016	-0.156751
O13	O	0.489159	0.818234	-0.081403
Zr14	Zr	0.671131	0.745119	0.041188
Zr15	Zr	0.677465	0.731834	-0.119834
Zr16	Zr	0.519167	0.745124	0.041191
Zr17	Zr	0.517002	0.908918	-0.129256
Zr18	Zr	0.679630	0.568040	0.050614
O19	O	0.637216	0.883397	0.003667
O20	O	0.646223	0.864507	-0.225287
O21	O	0.421142	0.883403	0.003671
O22	O	0.766483	0.612444	0.146639
O23	O	0.775490	0.593555	-0.082314
O24	O	0.550409	0.612451	0.146644
O25	O	0.768735	0.734309	-0.089806
O26	O	0.638937	0.753202	0.139150
O27	O	0.543654	0.753205	0.139152
O28	O	0.764763	0.742639	0.011156
O29	O	0.545611	0.975540	-0.231194
O30	O	0.651021	0.501419	0.152552
O31	O	0.771812	0.501415	0.152549
O32	O	0.776847	0.490855	0.024558
O33	O	0.419785	0.986103	-0.103200
O34	O	0.540576	0.986099	-0.103203
O35	O	0.633401	0.664943	0.078108
O36	O	0.707473	0.658724	0.002760
O37	O	0.631375	0.818230	-0.081406
O38	O	0.557303	0.824448	-0.006058
C39	C	0.608947	0.516980	-0.027532
C40	C	0.612555	0.441805	-0.023530
C41	C	0.561007	0.463088	-0.080539
C42	C	0.564400	0.392465	-0.076806
C43	C	0.619337	0.300559	-0.016061
C44	C	0.670890	0.279277	0.040950
C45	C	0.667500	0.349899	0.037214
C46	C	0.632240	0.084493	-0.001837
C47	C	0.635625	0.013870	0.001896
C48	C	0.529135	0.127063	-0.115862
C49	C	0.525747	0.197682	-0.119590
C50	C	0.577302	0.176393	-0.062581
C51	C	0.622805	0.228369	-0.012243
C52	C	0.573837	0.248582	-0.066403
C53	C	0.408231	0.738485	-0.039317
C54	C	0.343718	0.738487	-0.039316
C55	C	0.315603	0.733904	-0.094941
C56	C	0.254992	0.733896	-0.094940
C57	C	0.222488	0.738488	-0.039322
C58	C	0.250613	0.743066	0.016313
C59	C	0.311228	0.743065	0.016316
N60	N	0.100881	0.793895	-0.025358
N61	N	0.043298	0.793898	-0.025366
C62	C	0.039859	0.738488	-0.039325
N63	N	0.096172	0.683087	-0.053293
N64	N	0.153758	0.683089	-0.053289
C65	C	0.156761	0.738489	-0.039318
C66	C	-0.053978	0.733895	-0.094953
C67	C	-0.114588	0.733881	-0.094947
C68	C	-0.118970	0.743060	0.016303
C69	C	-0.058356	0.743065	0.016301
C70	C	-0.025866	0.738487	-0.039331
C71	C	0.788401	0.738473	-0.039325
C72	C	0.852914	0.738472	-0.039327
C73	C	0.606239	0.721862	-0.240736
C74	C	0.608928	0.716222	-0.309094
C75	C	0.587685	0.959978	-0.051111
C76	C	0.584077	1.035153	-0.055112
C77	C	0.570471	0.796830	-0.385143
C78	C	0.573007	0.791526	-0.449370
C79	C	0.613997	0.705612	-0.437546
C80	C	0.652459	0.624997	-0.361490
C81	C	0.649927	0.630303	-0.297265
C82	C	0.623634	0.685427	-0.629267
C83	C	0.626161	0.680128	-0.693500
C84	C	0.546710	0.846657	-0.781376
C85	C	0.544178	0.851955	-0.717145
C86	C	0.582643	0.771340	-0.641095
C87	C	0.616588	0.700187	-0.503195
C88	C	0.580055	0.776766	-0.575447
C89	C	0.590393	0.755096	0.162093
C90	C	0.587704	0.760736	0.230451
C91	C	0.799031	0.516975	-0.027536
C92	C	0.867152	0.441798	-0.023536
C93	C	0.601023	0.533597	0.173883
C94	C	0.601942	0.464063	0.246242
C95	C	0.791108	0.533592	0.173879
C96	C	0.856540	0.464055	0.246237
C97	C	0.405524	0.943366	-0.252522
C98	C	0.340092	1.012903	-0.324880
C99	C	0.397601	0.959984	-0.051107
C100	C	0.329480	1.035160	-0.055107
C101	C	0.595609	0.943361	-0.252526
C102	C	0.594690	1.012895	-0.324885
C103	C	0.863572	0.403250	-0.060993
C104	C	0.927573	0.332622	-0.057251
C105	C	0.995154	0.300539	-0.016045
C106	C	0.998732	0.339094	0.021414
C107	C	0.934732	0.409725	0.017666
C108	C	0.637944	0.434653	0.319559
C109	C	0.638804	0.369328	0.387554
C110	C	0.603666	0.333409	0.382231
C111	C	0.567660	0.362825	0.308906
C112	C	0.566796	0.428154	0.240913
C113	C	0.925939	0.428154	0.240886
C114	C	0.987424	0.362826	0.308868
C115	C	0.979510	0.333396	0.382200
C116	C	0.910104	0.369304	0.387549
C117	C	0.848619	0.434635	0.319568
C118	C	0.270693	1.048813	-0.319530
C119	C	0.209206	1.114163	-0.387512
C120	C	0.217120	1.143597	-0.460844
C121	C	0.286527	1.107684	-0.466193
C122	C	0.348012	1.042340	-0.398211
C123	C	0.333060	1.073715	-0.017657
C124	C	0.269058	1.144361	-0.021418
C125	C	0.201478	1.176446	-0.062626
C126	C	0.197900	1.137888	-0.100081
C127	C	0.261900	1.067248	-0.096324
C128	C	0.629835	1.048794	-0.319537
C129	C	0.628986	1.114120	-0.387519
C130	C	0.592986	1.143552	-0.460850
C131	C	0.557840	1.107647	-0.466197
C132	C	0.558694	1.042317	-0.398215
H133	H	0.487163	0.144386	-0.162276
Br134	Br	0.297255	1.147638	-0.565722
Br135	Br	0.349388	0.749283	0.091813
H136	H	0.674219	0.067148	0.044583
Br137	Br	0.114626	1.272317	-0.067718
H138	H	0.680362	-0.060968	0.051365
Br139	Br	0.508980	1.147608	-0.565725
Br140	Br	0.771864	0.446777	-0.116923
H141	H	0.142867	1.164023	-0.133632
Br142	Br	0.675805	0.576021	-0.526064
H143	H	-0.027521	0.730163	-0.140249
Br144	Br	1.090455	0.295540	0.077335
H145	H	0.529109	0.323414	-0.115863
H146	H	0.264235	1.024851	-0.259825
Br147	Br	0.517934	0.468055	0.141414
Br148	Br	1.082006	0.204681	-0.010966
H149	H	-0.035466	0.746802	0.061593
Br150	Br	0.206508	0.749288	0.091802
H151	H	0.924646	0.301239	-0.087754
H152	H	0.342057	0.730173	-0.140238
Br153	Br	0.936700	0.468085	0.141373
Br154	Br	0.424768	1.030190	0.038272
H155	H	0.271986	1.175744	0.009086
H156	H	0.258975	1.035858	-0.126819
Br157	Br	0.591833	1.232218	-0.553106
Br158	Br	0.745452	0.154547	0.123387
Br159	Br	0.737464	0.321013	0.114581
H160	H	0.152699	1.143392	-0.383142
H161	H	1.043932	0.333596	0.304499
Br162	Br	-0.152742	0.727650	-0.170437
H163	H	0.530072	1.013095	-0.402581
H164	H	0.541692	0.857166	-0.511290
Br165	Br	0.486442	0.587816	-0.162978
Br166	Br	0.494439	0.421355	-0.154177
Br167	Br	0.685641	0.483381	0.326806
H168	H	0.667535	0.153532	0.037215
Br169	Br	-0.163070	0.749278	0.091794
Br170	Br	0.451180	0.322410	-0.202026
Br171	Br	1.062962	0.244730	0.474453
H172	H	0.167049	1.196804	-0.516193
Br173	Br	0.678697	1.008866	-0.220025
Br174	Br	0.216829	0.727675	-0.170436
H175	H	0.604375	0.280215	0.437602
H176	H	0.537087	0.866791	-0.394779
Br177	Br	0.488507	0.968557	-0.733198
Br178	Br	0.939603	0.462028	0.068512
H179	H	0.681243	0.564662	-0.235342
H180	H	0.657605	1.143348	-0.383151
Br181	Br	0.754437	0.483347	0.326844
Br182	Br	0.494510	0.956056	-0.884587
H183	H	0.659540	0.610162	-0.683864
Br184	Br	0.442195	0.993608	-0.405486
Br185	Br	0.708092	0.508398	-0.345442
H186	H	0.668127	0.345385	0.447252
Br187	Br	0.524433	0.893360	-0.591490
H188	H	0.649962	0.630236	-0.493576
Br189	Br	0.899375	0.329353	0.487077
Br190	Br	0.519976	0.314069	0.301695
