data_functionalizedCrystal
_audit_creation_method	'MofGen! by Chris Wilmer'
_symmetry_space_group_name_H-M	'P1'
_symmetry_Int_Tables_number	1
_symmetry_cell_setting	triclinic
loop_
_symmetry_equiv_pos_as_xyz
  x,y,z
_cell_length_a	25.639242
_cell_length_b	25.639240
_cell_length_c	25.639233
_cell_angle_alpha	89.974071
_cell_angle_beta	89.977834
_cell_angle_gamma	90.028283
loop_
_atom_site_label
_atom_site_type_symbol
_atom_site_fract_x
_atom_site_fract_y
_atom_site_fract_z
Zn1	Zn	0.799247	-0.208277	-0.295716
Zn2	Zn	1.132580	0.125057	0.037617
Zn3	Zn	1.465913	0.458390	0.370951
Zn4	Zn	0.799179	-0.295696	-0.208270
Zn5	Zn	1.132512	0.037638	0.125064
Zn6	Zn	1.465846	0.370971	0.458397
Zn7	Zn	0.711823	-0.208269	-0.208280
Zn8	Zn	1.045156	0.125064	0.125053
Zn9	Zn	1.378490	0.458398	0.458386
Zn10	Zn	0.711777	-0.295676	-0.295659
Zn11	Zn	1.045110	0.037657	0.037674
Zn12	Zn	1.378444	0.370990	0.371007
O13	O	0.755506	-0.251979	-0.251981
O14	O	1.088840	0.081354	0.081352
O15	O	1.422173	0.414687	0.414685
O16	O	0.872403	-0.219884	-0.284135
O17	O	1.205736	0.113449	0.049198
O18	O	1.539069	0.446782	0.382531
O19	O	0.787582	-0.284103	-0.135106
O20	O	1.120915	0.049230	0.198228
O21	O	1.454249	0.382563	0.531561
O22	O	0.723467	-0.135105	-0.219907
O23	O	1.056801	0.198228	0.113426
O24	O	1.390134	0.531562	0.446760
O25	O	0.872353	-0.284111	-0.219889
O26	O	1.205687	0.049223	0.113445
O27	O	1.539020	0.382556	0.446778
O28	O	0.787697	-0.135111	-0.284146
O29	O	1.121030	0.198223	0.049188
O30	O	1.454364	0.531556	0.382521
O31	O	0.723402	-0.219871	-0.135114
O32	O	1.056735	0.113462	0.198220
O33	O	1.390069	0.446795	0.531553
O34	O	0.638652	-0.219853	-0.219852
O35	O	0.971985	0.113481	0.113481
O36	O	1.305318	0.446814	0.446815
O37	O	0.723389	-0.284078	-0.368832
O38	O	1.056722	0.049256	-0.035499
O39	O	1.390056	0.382589	0.297834
O40	O	0.638618	-0.284070	-0.284049
O41	O	0.971951	0.049263	0.049284
O42	O	1.305285	0.382597	0.382618
O43	O	0.787653	-0.219866	-0.368874
O44	O	1.120986	0.113468	-0.035540
O45	O	1.454319	0.446801	0.297793
O46	O	0.787538	-0.368858	-0.219834
O47	O	1.120871	-0.035525	0.113500
O48	O	1.454204	0.297808	0.446833
O49	O	0.723324	-0.368844	-0.284039
O50	O	1.056657	-0.035511	0.049295
O51	O	1.389990	0.297823	0.382628
C52	C	0.619664	-0.251959	-0.251946
C53	C	0.952997	0.081375	0.081387
C54	C	1.286331	0.414708	0.414721
C55	C	0.561550	-0.251963	-0.251943
C56	C	0.894883	0.081371	0.081390
C57	C	1.228216	0.414704	0.414724
C58	C	0.201178	-0.285473	-0.285377
C59	C	0.534511	0.047860	0.047956
C60	C	0.867845	0.381193	0.381290
C61	C	0.146574	-0.285477	-0.285385
C62	C	0.479907	0.047857	0.047948
C63	C	0.813240	0.381190	0.381281
O64	O	0.118330	-0.313943	-0.313782
O65	O	0.451663	0.019390	0.019551
O66	O	0.784996	0.352724	0.352885
N67	N	0.119267	-0.251994	-0.252015
N68	N	0.452601	0.081340	0.081318
N69	N	0.785934	0.414673	0.414651
C70	C	0.146568	-0.218502	-0.218639
C71	C	0.479901	0.114831	0.114694
C72	C	0.813235	0.448165	0.448028
O73	O	0.118328	-0.190022	-0.190256
O74	O	0.451661	0.143311	0.143077
O75	O	0.784994	0.476645	0.476410
C76	C	0.201171	-0.218496	-0.218634
C77	C	0.534505	0.114837	0.114700
C78	C	0.867838	0.448170	0.448033
C79	C	0.228475	-0.251985	-0.252002
C80	C	0.561808	0.081348	0.081331
C81	C	0.895142	0.414681	0.414665
C82	C	0.228482	-0.318959	-0.318743
C83	C	0.561815	0.014374	0.014590
C84	C	0.895148	0.347708	0.347924
C85	C	0.283082	-0.318956	-0.318734
C86	C	0.616416	0.014377	0.014599
C87	C	0.949749	0.347710	0.347933
C88	C	0.310379	-0.285468	-0.285359
C89	C	0.643713	0.047865	0.047974
C90	C	0.977046	0.381199	0.381308
C91	C	0.283076	-0.251983	-0.251993
C92	C	0.616409	0.081351	0.081340
C93	C	0.949742	0.414684	0.414674
C94	C	0.228471	-0.185002	-0.185260
C95	C	0.561804	0.148331	0.148073
C96	C	0.895138	0.481664	0.481407
C97	C	0.283078	-0.184999	-0.185258
C98	C	0.616411	0.148334	0.148075
C99	C	0.949745	0.481667	0.481409
C100	C	0.310382	-0.218488	-0.218626
C101	C	0.643715	0.114845	0.114707
C102	C	0.977048	0.448178	0.448040
C103	C	0.364973	-0.218492	-0.218609
C104	C	0.698306	0.114842	0.114725
C105	C	1.031640	0.448175	0.448058
N106	N	0.392279	-0.251974	-0.251979
N107	N	0.725613	0.081359	0.081355
N108	N	1.058946	0.414692	0.414688
C109	C	0.364983	-0.285463	-0.285354
C110	C	0.698316	0.047871	0.047980
C111	C	1.031649	0.381204	0.381313
C112	C	0.031897	-0.218515	-0.218653
C113	C	0.365231	0.114818	0.114680
C114	C	0.698564	0.448151	0.448014
C115	C	-0.022705	-0.218523	-0.218655
C116	C	0.310628	0.114810	0.114678
C117	C	0.643962	0.448144	0.448011
C118	C	-0.022695	-0.285497	-0.285402
C119	C	0.310638	0.047836	0.047931
C120	C	0.643971	0.381170	0.381264
C121	C	0.031908	-0.285492	-0.285397
C122	C	0.365241	0.047842	0.047936
C123	C	0.698575	0.381175	0.381269
C124	C	0.059204	-0.251998	-0.252023
C125	C	0.392537	0.081335	0.081310
C126	C	0.725871	0.414669	0.414644
C127	C	0.479648	-0.285455	-0.285332
C128	C	0.812981	0.047878	0.048002
C129	C	1.146314	0.381212	0.381335
C130	C	0.534253	-0.285451	-0.285318
C131	C	0.867586	0.047883	0.048015
C132	C	1.200920	0.381216	0.381348
C133	C	0.534239	-0.218475	-0.218573
C134	C	0.867572	0.114858	0.114760
C135	C	1.200905	0.448192	0.448094
C136	C	0.479638	-0.218481	-0.218585
C137	C	0.812971	0.114853	0.114749
C138	C	1.146305	0.448186	0.448082
C139	C	0.452344	-0.251972	-0.251968
C140	C	0.785677	0.081361	0.081365
C141	C	1.119011	0.414694	0.414699
O142	O	0.393252	-0.190038	-0.190228
O143	O	0.726585	0.143295	0.143105
O144	O	1.059918	0.476628	0.476439
O145	O	0.393229	-0.313933	-0.313736
O146	O	0.726563	0.019401	0.019597
O147	O	1.059896	0.352734	0.352930
C148	C	0.755433	-0.387822	-0.251940
C149	C	1.088766	-0.054489	0.081393
C150	C	1.422099	0.278845	0.414726
C151	C	0.755449	-0.445936	-0.251940
C152	C	1.088782	-0.112603	0.081393
C153	C	1.422115	0.220731	0.414726
C154	C	0.788967	-0.806264	-0.285491
C155	C	1.122301	-0.472930	0.047843
C156	C	1.455634	-0.139597	0.381176
C157	C	0.788983	-0.860868	-0.285501
C158	C	1.122316	-0.527534	0.047832
C159	C	1.455650	-0.194201	0.381165
O160	O	0.817394	-0.889074	-0.313985
O161	O	1.150727	-0.555741	0.019348
O162	O	1.484060	-0.222408	0.352682
N163	N	0.755579	-0.888218	-0.252032
N164	N	1.088912	-0.554885	0.081301
N165	N	1.422246	-0.221552	0.414635
C166	C	0.722154	-0.860962	-0.218553
C167	C	1.055487	-0.527629	0.114780
C168	C	1.388820	-0.194295	0.448113
O169	O	0.693742	-0.889240	-0.190086
O170	O	1.027075	-0.555906	0.143247
O171	O	1.360409	-0.222573	0.476581
C172	C	0.722136	-0.806359	-0.218546
C173	C	1.055469	-0.473025	0.114788
C174	C	1.388803	-0.139692	0.448121
C175	C	0.755546	-0.779011	-0.252014
C176	C	1.088879	-0.445678	0.081320
C177	C	1.422213	-0.112344	0.414653
C178	C	0.822374	-0.778916	-0.318956
C179	C	1.155708	-0.445582	0.014377
C180	C	1.489041	-0.112249	0.347710
C181	C	0.822359	-0.724315	-0.318945
C182	C	1.155693	-0.390982	0.014388
C183	C	1.489026	-0.057648	0.347722
C184	C	0.788938	-0.697062	-0.285468
C185	C	1.122271	-0.363729	0.047865
C186	C	1.455604	-0.030396	0.381199
C187	C	0.755531	-0.724410	-0.252002
C188	C	1.088864	-0.391077	0.081331
C189	C	1.422198	-0.057744	0.414664
C190	C	0.688708	-0.779103	-0.185070
C191	C	1.022042	-0.445770	0.148263
C192	C	1.355375	-0.112436	0.481597
C193	C	0.688693	-0.724496	-0.185066
C194	C	1.022027	-0.391163	0.148268
C195	C	1.355360	-0.057829	0.481601
C196	C	0.722103	-0.697148	-0.218534
C197	C	1.055437	-0.363815	0.114800
C198	C	1.388770	-0.030482	0.448133
C199	C	0.722095	-0.642557	-0.218514
C200	C	1.055428	-0.309224	0.114820
C201	C	1.388761	0.024110	0.448153
N202	N	0.755498	-0.615206	-0.251983
N203	N	1.088832	-0.281873	0.081350
N204	N	1.422165	0.051460	0.414684
C205	C	0.788920	-0.642459	-0.285460
C206	C	1.122253	-0.309126	0.047873
C207	C	1.455587	0.024208	0.381206
C208	C	0.722193	-0.975633	-0.218572
C209	C	1.055526	-0.642299	0.114761
C210	C	1.388859	-0.308966	0.448094
C211	C	0.722213	-1.030235	-0.218577
C212	C	1.055546	-0.696902	0.114756
C213	C	1.388879	-0.363568	0.448090
C214	C	0.789041	-1.030137	-0.285526
C215	C	1.122375	-0.696804	0.047807
C216	C	1.455708	-0.363470	0.381141
C217	C	0.789024	-0.975534	-0.285518
C218	C	1.122357	-0.642200	0.047815
C219	C	1.455690	-0.308867	0.381148
C220	C	0.755597	-0.948282	-0.252042
C221	C	1.088930	-0.614949	0.081291
C222	C	1.422263	-0.281615	0.414625
C223	C	0.788887	-0.527794	-0.285433
C224	C	1.122220	-0.194461	0.047900
C225	C	1.455553	0.138873	0.381233
C226	C	0.788870	-0.473189	-0.285417
C227	C	1.122204	-0.139855	0.047916
C228	C	1.455537	0.193478	0.381249
C229	C	0.722040	-0.473291	-0.218471
C230	C	1.055373	-0.139958	0.114863
C231	C	1.388707	0.193375	0.448196
C232	C	0.722058	-0.527892	-0.218484
C233	C	1.055391	-0.194559	0.114849
C234	C	1.388725	0.138775	0.448182
C235	C	0.755483	-0.555142	-0.251970
C236	C	1.088816	-0.221809	0.081363
C237	C	1.422150	0.111525	0.414697
O238	O	0.693697	-0.614316	-0.190046
O239	O	1.027030	-0.280983	0.143287
O240	O	1.360363	0.052351	0.476621
O241	O	0.817322	-0.614175	-0.313927
O242	O	1.150655	-0.280841	0.019406
O243	O	1.483989	0.052492	0.352739
C244	C	0.891879	-0.252000	-0.252017
C245	C	1.225213	0.081333	0.081316
C246	C	1.558546	0.414666	0.414649
C247	C	0.949993	-0.252009	-0.252032
C248	C	1.283327	0.081324	0.081301
C249	C	1.616660	0.414657	0.414634
C250	C	0.755523	-0.251970	-0.388354
C251	C	1.088857	0.081363	-0.055021
C252	C	1.422190	0.414696	0.278312
C253	C	0.755530	-0.251966	-0.446468
C254	C	1.088864	0.081367	-0.113135
C255	C	1.422197	0.414700	0.220198
C256	C	0.755595	-0.115606	-0.252034
C257	C	1.088928	0.217727	0.081299
C258	C	1.422261	0.551060	0.414633
C259	C	0.755632	-0.057492	-0.252056
C260	C	1.088966	0.275841	0.081277
C261	C	1.422299	0.609174	0.414610
C262	C	0.789035	-0.218432	-0.806859
C263	C	1.122368	0.114902	-0.473526
C264	C	1.455702	0.448235	-0.140192
C265	C	0.789041	-0.218417	-0.861463
C266	C	1.122375	0.114916	-0.528130
C267	C	1.455708	0.448249	-0.194797
O268	O	0.817486	-0.189967	-0.889723
O269	O	1.150819	0.143367	-0.556390
O270	O	1.484152	0.476700	-0.223057
N271	N	0.755588	-0.251844	-0.888751
N272	N	1.088921	0.081490	-0.555418
N273	N	1.422255	0.414823	-0.222084
C274	C	0.722122	-0.285283	-0.861432
C275	C	1.055456	0.048050	-0.528098
C276	C	1.388789	0.381384	-0.194765
O277	O	0.693668	-0.313713	-0.889656
O278	O	1.027001	0.019620	-0.556323
O279	O	1.360335	0.352954	-0.222989
C280	C	0.722114	-0.285294	-0.806828
C281	C	1.055447	0.048039	-0.473495
C282	C	1.388780	0.381372	-0.140162
C283	C	0.755573	-0.251870	-0.779543
C284	C	1.088906	0.081464	-0.446210
C285	C	1.422240	0.414797	-0.112877
C286	C	0.822491	-0.185009	-0.779574
C287	C	1.155824	0.148324	-0.446241
C288	C	1.489158	0.481657	-0.112907
C289	C	0.822485	-0.185025	-0.724973
C290	C	1.155818	0.148309	-0.391640
C291	C	1.489152	0.481642	-0.058307
C292	C	0.789023	-0.218462	-0.697658
C293	C	1.122356	0.114871	-0.364325
C294	C	1.455690	0.448204	-0.030991
C295	C	0.755567	-0.251885	-0.724943
C296	C	1.088900	0.081448	-0.391610
C297	C	1.422234	0.414782	-0.058276
C298	C	0.688646	-0.318731	-0.779510
C299	C	1.021979	0.014603	-0.446177
C300	C	1.355313	0.347936	-0.112843
C301	C	0.688640	-0.318739	-0.724903
C302	C	1.021973	0.014594	-0.391570
C303	C	1.355306	0.347928	-0.058236
C304	C	0.722099	-0.285314	-0.697618
C305	C	1.055432	0.048019	-0.364285
C306	C	1.388766	0.381353	-0.030951
C307	C	0.722099	-0.285338	-0.643027
C308	C	1.055433	0.047995	-0.309693
C309	C	1.388766	0.381329	0.023640
N310	N	0.755552	-0.251912	-0.615739
N311	N	1.088886	0.081422	-0.282406
N312	N	1.422219	0.414755	0.050928
C313	C	0.789014	-0.218474	-0.643055
C314	C	1.122348	0.114860	-0.309721
C315	C	1.455681	0.448193	0.023612
C316	C	0.722143	-0.285256	-0.976102
C317	C	1.055476	0.048077	-0.642769
C318	C	1.388809	0.381411	-0.309436
C319	C	0.722154	-0.285247	-1.030705
C320	C	1.055487	0.048086	-0.697371
C321	C	1.388820	0.381419	-0.364038
C322	C	0.789072	-0.218381	-1.030733
C323	C	1.122405	0.114952	-0.697399
C324	C	1.455739	0.448286	-0.364066
C325	C	0.789063	-0.218392	-0.976129
C326	C	1.122397	0.114941	-0.642796
C327	C	1.455730	0.448274	-0.309463
C328	C	0.755596	-0.251829	-0.948815
C329	C	1.088929	0.081504	-0.615481
C330	C	1.422263	0.414837	-0.282148
C331	C	0.789000	-0.218509	-0.528389
C332	C	1.122333	0.114825	-0.195056
C333	C	1.455666	0.448158	0.138277
C334	C	0.788992	-0.218529	-0.473784
C335	C	1.122326	0.114805	-0.140451
C336	C	1.455659	0.448138	0.192883
C337	C	0.722072	-0.285393	-0.473761
C338	C	1.055406	0.047940	-0.140428
C339	C	1.388739	0.381274	0.192906
C340	C	0.722081	-0.285375	-0.528362
C341	C	1.055415	0.047958	-0.195028
C342	C	1.388748	0.381291	0.138305
C343	C	0.755547	-0.251929	-0.555674
C344	C	1.088880	0.081404	-0.222341
C345	C	1.422214	0.414738	0.110992
O346	O	0.693668	-0.313773	-0.614732
O347	O	1.027001	0.019561	-0.281399
O348	O	1.360334	0.352894	0.051935
O349	O	0.817459	-0.190044	-0.614823
O350	O	1.150792	0.143290	-0.281490
O351	O	1.484126	0.476623	0.051843
C352	C	0.755520	-0.251951	-0.116139
C353	C	1.088853	0.081383	0.217195
C354	C	1.422186	0.414716	0.550528
C355	C	0.755614	-0.251807	-0.058025
C356	C	1.088947	0.081526	0.275308
C357	C	1.422281	0.414859	0.608642
H358	H	0.556474	-0.191211	-0.191398
H359	H	0.889807	0.142122	0.141935
H360	H	1.223140	0.475455	0.475268
N361	N	0.824939	-0.557185	-0.321543
N362	N	1.158272	-0.223852	0.011790
N363	N	1.491605	0.109481	0.345123
H364	H	0.803683	-0.579841	-0.345757
H365	H	1.137017	-0.246507	-0.012423
H366	H	1.470350	0.086826	0.320910
H367	H	0.846093	-0.531539	-0.342705
H368	H	1.179426	-0.198206	-0.009372
H369	H	1.512759	0.135127	0.323961
H370	H	0.694913	-0.312471	-1.052916
H371	H	1.028247	0.020862	-0.719582
H372	H	1.361580	0.354196	-0.386249
N373	N	0.686040	-0.321319	-0.946643
N374	N	1.019373	0.012014	-0.613310
N375	N	1.352707	0.345348	-0.279977
H376	H	0.664850	-0.342488	-0.972219
H377	H	0.998183	-0.009155	-0.638886
H378	H	1.331517	0.324178	-0.305553
H379	H	0.707296	-0.345527	-0.923984
H380	H	1.040629	-0.012194	-0.590651
H381	H	1.373962	0.321139	-0.257318
H382	H	0.695013	-1.052497	-0.191318
H383	H	1.028346	-0.719164	0.142015
H384	H	1.361679	-0.385830	0.475348
N385	N	0.652541	-0.354808	-0.695449
N386	N	0.985874	-0.021475	-0.362116
N387	N	1.319208	0.311858	-0.028782
H388	H	0.673767	-0.379050	-0.672795
H389	H	1.007100	-0.045717	-0.339462
H390	H	1.340433	0.287617	-0.006128
H391	H	0.628328	-0.333527	-0.672822
H392	H	0.961661	-0.000194	-0.339489
H393	H	1.294995	0.333140	-0.006156
N394	N	0.824901	-0.443690	-0.321520
N395	N	1.158234	-0.110357	0.011813
N396	N	1.491568	0.222976	0.345146
H397	H	0.849141	-0.421031	-0.300297
H398	H	1.182474	-0.087697	0.033037
H399	H	1.515808	0.245636	0.366370
H400	H	0.846038	-0.469275	-0.342724
H401	H	1.179372	-0.135942	-0.009391
H402	H	1.512705	0.197391	0.323942
N403	N	0.858572	-0.148967	-0.695555
N404	N	1.191905	0.184367	-0.362222
N405	N	1.525239	0.517700	-0.028889
H406	H	0.850471	-0.111610	-0.705071
H407	H	1.183804	0.221724	-0.371738
H408	H	1.517138	0.555057	-0.038405
H409	H	0.853482	-0.154084	-0.656826
H410	H	1.186815	0.179249	-0.323493
H411	H	1.520148	0.512583	0.009840
N412	N	0.685997	-0.443887	-0.182365
N413	N	1.019331	-0.110554	0.150969
N414	N	1.352664	0.222779	0.484302
H415	H	0.661751	-0.421238	-0.203588
H416	H	0.995084	-0.087905	0.129746
H417	H	1.328418	0.245428	0.463079
H418	H	0.664868	-0.469525	-0.161168
H419	H	0.998201	-0.136192	0.172165
H420	H	1.331534	0.197142	0.505498
H421	H	0.661400	-0.345949	-0.801716
H422	H	0.994733	-0.012615	-0.468383
H423	H	1.328066	0.320718	-0.135049
N424	N	0.450180	-0.182380	-0.182582
N425	N	0.783514	0.150953	0.150752
N426	N	1.116847	0.484286	0.484085
H427	H	0.427542	-0.158182	-0.203872
H428	H	0.760875	0.175152	0.129462
H429	H	1.094209	0.508485	0.462795
H430	H	0.427537	-0.203646	-0.158331
H431	H	0.760871	0.129688	0.175003
H432	H	1.094204	0.463021	0.508336
H433	H	0.694841	-0.312597	-0.550578
H434	H	1.028174	0.020736	-0.217245
H435	H	1.361508	0.354069	0.116089
H436	H	0.816228	-0.953270	-0.312771
H437	H	1.149562	-0.619937	0.020562
H438	H	1.482895	-0.286604	0.353896
H439	H	0.694974	-0.953447	-0.191308
H440	H	1.028307	-0.620114	0.142026
H441	H	1.361641	-0.286780	0.475359
H442	H	0.305300	-0.157721	-0.158083
H443	H	0.638633	0.175612	0.175250
H444	H	0.971966	0.508945	0.508584
N445	N	0.825090	-1.059536	-0.321635
N446	N	1.158423	-0.726203	0.011698
N447	N	1.491757	-0.392869	0.345032
H448	H	0.820028	-1.098276	-0.316560
H449	H	1.153361	-0.764943	0.016773
H450	H	1.486694	-0.431609	0.350107
H451	H	0.816923	-1.049977	-0.358966
H452	H	1.150256	-0.716644	-0.025633
H453	H	1.483590	-0.383311	0.307701
H454	H	0.816317	-0.191153	-1.052983
H455	H	1.149651	0.142181	-0.719650
H456	H	1.482984	0.475514	-0.386316
H457	H	0.816241	-0.191310	-0.451571
H458	H	1.149574	0.142024	-0.118238
H459	H	1.482907	0.475357	0.215096
N460	N	-0.052149	-0.182410	-0.182657
N461	N	0.281185	0.150923	0.150677
N462	N	0.614518	0.484257	0.484010
H463	H	-0.042624	-0.145065	-0.190847
H464	H	0.290709	0.188269	0.142486
H465	H	0.624042	0.521602	0.475819
H466	H	-0.090873	-0.187535	-0.187738
H467	H	0.242460	0.145798	0.145595
H468	H	0.575793	0.479132	0.478928
H469	H	0.816249	-0.191272	-0.550621
H470	H	1.149582	0.142061	-0.217288
H471	H	1.482915	0.475395	0.116046
H472	H	0.694830	-0.312619	-0.451511
H473	H	1.028163	0.020715	-0.118177
H474	H	1.361497	0.354048	0.215156
N475	N	0.652674	-0.808591	-0.148971
N476	N	0.986007	-0.475258	0.184362
N477	N	1.319341	-0.141924	0.517696
H478	H	0.631500	-0.783033	-0.127768
H479	H	0.964834	-0.449700	0.205566
H480	H	1.298167	-0.116366	0.538899
H481	H	0.628469	-0.831251	-0.170231
H482	H	0.961802	-0.497918	0.163102
H483	H	1.295135	-0.164584	0.496436
N484	N	0.858390	-0.694822	-0.355047
N485	N	1.191724	-0.361489	-0.021713
N486	N	1.525057	-0.028156	0.311620
H487	H	0.879560	-0.720379	-0.376255
H488	H	1.212894	-0.387046	-0.042922
H489	H	1.546227	-0.053712	0.290412
H490	H	0.837082	-0.672172	-0.379217
H491	H	1.170416	-0.338838	-0.045884
H492	H	1.503749	-0.005505	0.287450
N493	N	0.858430	-0.808293	-0.355072
N494	N	1.191763	-0.474960	-0.021738
N495	N	1.525096	-0.141626	0.311595
H496	H	0.882687	-0.830940	-0.333860
H497	H	1.216021	-0.497606	-0.000526
H498	H	1.549354	-0.164273	0.332807
H499	H	0.837143	-0.830920	-0.379283
H500	H	1.170477	-0.497586	-0.045949
H501	H	1.503810	-0.164253	0.287384
H502	H	0.694857	-0.550160	-0.191228
H503	H	1.028190	-0.216826	0.142105
H504	H	1.361524	0.116507	0.475439
N505	N	-0.052142	-0.321618	-0.321401
N506	N	0.281191	0.011715	0.011932
N507	N	0.614524	0.345049	0.345265
H508	H	-0.090876	-0.316536	-0.316340
H509	H	0.242458	0.016798	0.016993
H510	H	0.575791	0.350131	0.350327
H511	H	-0.042578	-0.313534	-0.358757
H512	H	0.290756	0.019799	-0.025424
H513	H	0.624089	0.353132	0.307909
N514	N	0.450211	-0.321579	-0.321333
N515	N	0.783544	0.011754	0.012000
N516	N	1.116878	0.345088	0.345334
H517	H	0.459740	-0.313517	-0.358704
H518	H	0.793073	0.019816	-0.025371
H519	H	1.126407	0.353150	0.307962
H520	H	0.459709	-0.358907	-0.313089
H521	H	0.793042	-0.025574	0.020244
H522	H	1.126376	0.307760	0.353578
N523	N	0.858579	-0.148936	-0.809031
N524	N	1.191913	0.184398	-0.475697
N525	N	1.525246	0.517731	-0.142364
H526	H	0.879767	-0.127766	-0.783452
H527	H	1.213100	0.205567	-0.450119
H528	H	1.546434	0.538901	-0.116786
H529	H	0.882769	-0.170212	-0.831687
H530	H	1.216103	0.163122	-0.498354
H531	H	1.549436	0.496455	-0.165020
H532	H	0.054118	-0.191241	-0.191472
H533	H	0.387452	0.142092	0.141862
H534	H	0.720785	0.475425	0.475195
H535	H	0.305308	-0.346225	-0.345907
H536	H	0.638641	-0.012892	-0.012574
H537	H	0.971975	0.320441	0.320760
H538	H	0.816308	-0.191174	-0.953917
H539	H	1.149641	0.142159	-0.620584
H540	H	1.482974	0.475493	-0.287251
N541	N	0.563702	-0.321574	-0.321307
N542	N	0.897035	0.011759	0.012026
N543	N	1.230368	0.345092	0.345359
H544	H	0.538120	-0.342787	-0.342452
H545	H	0.871454	-0.009454	-0.009118
H546	H	1.204787	0.323879	0.324215
H547	H	0.586381	-0.300329	-0.345542
H548	H	0.919714	0.033005	-0.012209
H549	H	1.253047	0.366338	0.321125
N550	N	0.199045	-0.355084	-0.354740
N551	N	0.532379	-0.021751	-0.021407
N552	N	0.865712	0.311582	0.311926
H553	H	0.224635	-0.376294	-0.375872
H554	H	0.557969	-0.042961	-0.042539
H555	H	0.891302	0.290373	0.290794
H556	H	0.176374	-0.379252	-0.333410
H557	H	0.509708	-0.045919	-0.000077
H558	H	0.843041	0.287415	0.333257
N559	N	0.652642	-0.695100	-0.148958
N560	N	0.985975	-0.361767	0.184375
N561	N	1.319308	-0.028434	0.517708
H562	H	0.615282	-0.704627	-0.157041
H563	H	0.948616	-0.371294	0.176292
H564	H	1.281949	-0.037961	0.509625
H565	H	0.660834	-0.704633	-0.111626
H566	H	0.994167	-0.371299	0.221707
H567	H	1.327501	-0.037966	0.555041
N568	N	0.061355	-0.321611	-0.321386
N569	N	0.394688	0.011722	0.011947
N570	N	0.728022	0.345055	0.345280
H571	H	0.035772	-0.342826	-0.342527
H572	H	0.369105	-0.009493	-0.009194
H573	H	0.702439	0.323841	0.324140
H574	H	0.084029	-0.300365	-0.345624
H575	H	0.417363	0.032969	-0.012291
H576	H	0.750696	0.366302	0.321042
H577	H	0.206250	-0.157734	-0.158087
H578	H	0.539583	0.175600	0.175247
H579	H	0.872916	0.508933	0.508580
