data_functionalizedCrystal
_audit_creation_method	'MofGen! by Chris Wilmer'
_symmetry_space_group_name_H-M	'P1'
_symmetry_Int_Tables_number	1
_symmetry_cell_setting	triclinic
loop_
_symmetry_equiv_pos_as_xyz
  x,y,z
_cell_length_a	19.805407
_cell_length_b	19.805405
_cell_length_c	19.805399
_cell_angle_alpha	90.029301
_cell_angle_beta	90.017803
_cell_angle_gamma	90.023727
loop_
_atom_site_label
_atom_site_type_symbol
_atom_site_fract_x
_atom_site_fract_y
_atom_site_fract_z
Zn1	Zn	1.034736	-0.269527	0.382680
Zn2	Zn	1.534736	0.230473	0.882680
Zn3	Zn	1.034650	-0.382716	0.269488
Zn4	Zn	1.534650	0.117284	0.769488
Zn5	Zn	0.921550	-0.269541	0.269508
Zn6	Zn	1.421550	0.230459	0.769508
Zn7	Zn	0.921514	-0.382674	0.382638
Zn8	Zn	1.421514	0.117326	0.882638
O9	O	0.978113	-0.326115	0.326078
O10	O	1.478113	0.173885	0.826078
O11	O	1.129441	-0.284554	0.367674
O12	O	1.629441	0.215446	0.867674
O13	O	1.019627	-0.367726	0.174774
O14	O	1.519627	0.132274	0.674774
O15	O	0.936615	-0.174822	0.284546
O16	O	1.436615	0.325178	0.784546
O17	O	1.129378	-0.367713	0.284512
O18	O	1.629378	0.132287	0.784512
O19	O	1.019772	-0.174813	0.367693
O20	O	1.519772	0.325187	0.867693
O21	O	0.936533	-0.284576	0.174788
O22	O	1.436533	0.215424	0.674788
O23	O	0.826829	-0.284536	0.284506
O24	O	1.326829	0.215464	0.784506
O25	O	0.936553	-0.367642	0.477360
O26	O	1.436553	0.132358	0.977360
O27	O	0.826802	-0.367655	0.367622
O28	O	1.326802	0.132345	0.867622
O29	O	1.019737	-0.284514	0.477391
O30	O	1.519737	0.215486	0.977391
O31	O	1.019592	-0.477427	0.284472
O32	O	1.519592	0.022573	0.784472
O33	O	0.936471	-0.477397	0.367603
O34	O	1.436471	0.022603	0.867603
C35	C	0.802257	-0.326093	0.326062
C36	C	1.302257	0.173907	0.826062
C37	C	0.727025	-0.326101	0.326071
C38	C	1.227025	0.173899	0.826071
C39	C	0.691714	-0.282876	0.369439
C40	C	1.191714	0.217124	0.869439
C41	C	0.621025	-0.282880	0.369442
C42	C	1.121025	0.217120	0.869442
C43	C	0.585649	-0.326112	0.326079
C44	C	1.085649	0.173888	0.826079
C45	C	0.620965	-0.369338	0.282706
C46	C	1.120965	0.130662	0.782706
C47	C	0.691652	-0.369330	0.282701
C48	C	1.191652	0.130670	0.782701
C49	C	0.335892	-0.369368	0.282727
C50	C	0.835892	0.130632	0.782727
C51	C	0.265199	-0.369374	0.282737
C52	C	0.765199	0.130626	0.782737
C53	C	0.265265	-0.282918	0.369468
C54	C	0.765265	0.217082	0.869468
C55	C	0.335952	-0.282910	0.369462
C56	C	0.835952	0.217090	0.869462
C57	C	0.371262	-0.326134	0.326087
C58	C	0.871262	0.173866	0.826087
C59	C	0.447910	-0.326128	0.326084
C60	C	0.947910	0.173872	0.826084
C61	C	0.509002	-0.326121	0.326085
C62	C	1.009002	0.173879	0.826085
C63	C	0.978036	-0.501971	0.326046
C64	C	1.478036	-0.001971	0.826046
C65	C	0.978066	-0.577203	0.326054
C66	C	1.478066	-0.077203	0.826054
C67	C	1.021389	-0.612540	0.282813
C68	C	1.521389	-0.112540	0.782813
C69	C	1.021418	-0.683228	0.282828
C70	C	1.521418	-0.183228	0.782828
C71	C	0.978119	-0.718578	0.326081
C72	C	1.478119	-0.218578	0.826081
C73	C	0.934794	-0.683236	0.369327
C74	C	1.434794	-0.183236	0.869327
C75	C	0.934769	-0.612549	0.369315
C76	C	1.434769	-0.112549	0.869315
C77	C	0.934894	-0.968309	0.369377
C78	C	1.434894	-0.468309	0.869377
C79	C	0.934921	-1.039001	0.369384
C80	C	1.434921	-0.539001	0.869384
C81	C	1.021542	-1.038989	0.282890
C82	C	1.521542	-0.538989	0.782890
C83	C	1.021517	-0.968302	0.282878
C84	C	1.521517	-0.468302	0.782878
C85	C	0.978195	-0.932965	0.326126
C86	C	1.478195	-0.432965	0.826126
C87	C	0.978165	-0.856317	0.326110
C88	C	1.478165	-0.356317	0.826110
C89	C	0.978145	-0.795225	0.326094
C90	C	1.478145	-0.295225	0.826094
C91	C	1.154655	-0.326136	0.326095
C92	C	1.654655	0.173864	0.826095
C93	C	1.229887	-0.326146	0.326102
C94	C	1.729887	0.173854	0.826102
C95	C	0.978151	-0.326072	0.502621
C96	C	1.478151	0.173928	1.002621
C97	C	0.978167	-0.326054	0.577853
C98	C	1.478167	0.173946	1.077853
C99	C	0.978207	-0.149572	0.326126
C100	C	1.478207	0.350428	0.826126
C101	C	0.978248	-0.074340	0.326146
C102	C	1.478248	0.425660	0.826146
C103	C	0.978114	-0.326108	0.150222
C104	C	1.478114	0.173892	0.650222
C105	C	0.978229	-0.325936	0.074991
C106	C	1.478229	0.174064	0.574991
C107	C	1.021481	-0.282767	0.613214
C108	C	1.521481	0.217233	1.113214
C109	C	1.021488	-0.282747	0.683903
C110	C	1.521488	0.217253	1.183903
C111	C	0.978184	-0.326018	0.719229
C112	C	1.478184	0.173982	1.219229
C113	C	0.934864	-0.369308	0.683863
C114	C	1.434864	0.130692	1.183863
C115	C	0.934854	-0.369323	0.613176
C116	C	1.434854	0.130677	1.113176
C117	C	0.934902	-0.369244	0.968936
C118	C	1.434902	0.130756	1.468936
C119	C	0.934917	-0.369227	1.039628
C120	C	1.434917	0.130773	1.539628
C121	C	1.021536	-0.282668	1.039663
C122	C	1.521536	0.217332	1.539663
C123	C	1.021527	-0.282684	0.968976
C124	C	1.521527	0.217316	1.468976
C125	C	0.978205	-0.325970	0.933616
C126	C	1.478205	0.174030	1.433616
C127	C	0.978197	-0.325990	0.856968
C128	C	1.478197	0.174010	1.356968
C129	C	0.978194	-0.326002	0.795876
C130	C	1.478194	0.173998	1.295876
H131	H	0.592156	-0.404535	0.247397
H132	H	1.092156	0.095465	0.747397
H133	H	0.364632	-0.404564	0.247409
H134	H	0.864632	0.095436	0.747409
O135	O	0.729743	-0.415951	0.235927
O136	O	1.229743	0.084049	0.735927
H137	H	0.693270	-0.446019	0.205778
H138	H	1.193270	0.053981	0.705778
H139	H	0.236507	-0.247721	0.404783
H140	H	0.736507	0.252279	0.904783
H141	H	1.056644	-0.583763	0.247589
H142	H	1.556644	-0.083763	0.747589
O143	O	1.068140	-0.721345	0.236186
O144	O	1.568140	-0.221345	0.736186
H145	H	1.098237	-0.684889	0.206101
H146	H	1.598237	-0.184889	0.706101
H147	H	0.899576	-0.404565	0.584385
H148	H	1.399576	0.095435	1.084385
H149	H	1.056809	-0.247420	1.068462
H150	H	1.556809	0.252580	1.568462
H151	H	0.899650	-0.404465	1.068389
H152	H	1.399650	0.095535	1.568389
H153	H	1.056773	-0.939522	0.247655
H154	H	1.556773	-0.439522	0.747655
H155	H	0.899492	-0.583777	0.404527
H156	H	1.399492	-0.083777	0.904527
O157	O	0.888155	-0.415979	0.721963
O158	O	1.388155	0.084021	1.221963
H159	H	0.835038	-0.404359	0.708394
H160	H	1.335038	0.095641	1.208394
H161	H	1.056820	-1.067768	0.247678
H162	H	1.556820	-0.567768	0.747678
H163	H	1.056792	-0.247450	0.940217
H164	H	1.556792	0.252550	1.440217
O165	O	1.068189	-0.236095	0.575113
O166	O	1.568189	0.263905	1.075113
H167	H	1.098305	-0.205987	0.611581
H168	H	1.598305	0.294013	1.111581
O169	O	0.888224	-1.077133	0.416043
O170	O	1.388224	-0.577133	0.916043
H171	H	0.858100	-1.040686	0.446120
H172	H	1.358100	-0.540686	0.946120
O173	O	0.374104	-0.236280	0.416233
O174	O	0.874104	0.263720	0.916233
H175	H	0.429190	-0.243541	0.408947
H176	H	0.929190	0.256459	0.908947
H177	H	0.236398	-0.404580	0.247424
H178	H	0.736398	0.095420	0.747424
H179	H	0.899618	-0.939544	0.404590
H180	H	1.399618	-0.439544	0.904590
H181	H	0.592278	-0.247684	0.404757
H182	H	1.092278	0.252316	0.904757
H183	H	1.056761	-0.247500	0.712691
H184	H	1.556761	0.252500	1.212691
O185	O	0.729869	-0.236243	0.416205
O186	O	1.229869	0.263757	0.916205
H187	H	0.693436	-0.206182	0.446355
H188	H	1.193436	0.293818	0.946355
O189	O	0.888084	-0.721358	0.415973
O190	O	1.388084	-0.221358	0.915973
H191	H	0.895371	-0.776448	0.408710
H192	H	1.395371	-0.276448	0.908710
O193	O	0.888145	-0.415895	0.930801
O194	O	1.388145	0.084105	1.430801
H195	H	0.858027	-0.445971	0.967244
H196	H	1.358027	0.054029	1.467244
