data_functionalizedCrystal
_audit_creation_method	'MofGen! by Chris Wilmer'
_symmetry_space_group_name_H-M	'P1'
_symmetry_Int_Tables_number	1
_symmetry_cell_setting	triclinic
loop_
_symmetry_equiv_pos_as_xyz
  x,y,z
_cell_length_a	18.215407
_cell_length_b	18.215405
_cell_length_c	18.215407
_cell_angle_alpha	89.985182
_cell_angle_beta	89.989002
_cell_angle_gamma	90.024806
loop_
_atom_site_label
_atom_site_type_symbol
_atom_site_fract_x
_atom_site_fract_y
_atom_site_fract_z
Zn1	Zn	-1.125002	0.293108	0.416117
Zn2	Zn	-1.124931	0.416145	0.293045
Zn3	Zn	-1.001955	0.293097	0.293063
Zn4	Zn	-1.001901	0.416137	0.416069
O5	O	-1.063447	0.354622	0.354574
O6	O	-1.227977	0.309437	0.399805
O7	O	-1.108611	0.399821	0.190064
O8	O	-1.018330	0.190114	0.309414
O9	O	-1.227925	0.399832	0.309384
O10	O	-1.108732	0.190122	0.399822
O11	O	-1.018262	0.309418	0.190076
O12	O	-0.898964	0.309410	0.309367
O13	O	-1.018237	0.399818	0.519059
O14	O	-0.898924	0.399807	0.399739
O15	O	-1.108679	0.309429	0.519095
O16	O	-1.108558	0.519128	0.309337
O17	O	-1.018168	0.519122	0.399722
C18	C	-0.872241	0.354607	0.354550
C19	C	-0.790442	0.354619	0.354557
C20	C	-0.602247	0.401761	0.401552
C21	C	-0.525388	0.401762	0.401560
C22	C	-0.525400	0.307487	0.307598
C23	C	-0.602257	0.307482	0.307594
C24	C	-0.640679	0.354623	0.354570
C25	C	-0.486963	0.354629	0.354582
C26	C	-0.403629	0.354631	0.354591
C27	C	-0.724018	0.354621	0.354563
C28	C	-1.063370	0.545828	0.354538
C29	C	-1.063404	0.627627	0.354548
C30	C	-0.255400	0.354634	0.354594
C31	C	-0.337199	0.354634	0.354595
C32	C	-1.063460	0.354624	0.546527
C33	C	-1.063465	0.354624	0.628325
C34	C	-1.063545	0.162669	0.354625
C35	C	-1.063587	0.080870	0.354647
C36	C	-1.110580	0.815799	0.307571
C37	C	-1.110613	0.892658	0.307589
C38	C	-1.016409	0.892692	0.401629
C39	C	-1.016380	0.815834	0.401614
C40	C	-1.063465	0.777390	0.354581
C41	C	-1.063526	0.931106	0.354614
C42	C	-1.063562	1.014440	0.354633
C43	C	-1.063431	0.694051	0.354562
C44	C	-1.110544	0.307567	0.816539
C45	C	-1.110540	0.307566	0.893398
C46	C	-1.016363	0.401693	0.893349
C47	C	-1.016364	0.401689	0.816492
C48	C	-1.063459	0.354627	0.778089
C49	C	-1.063454	0.354631	0.931805
C50	C	-1.063449	0.354631	1.015139
C51	C	-1.063463	0.354626	0.694750
C52	C	-1.063435	0.354636	1.163367
C53	C	-1.063447	0.354633	1.081568
H54	H	-0.633550	0.269092	0.269335
O55	O	-1.161370	0.774331	0.256854
H56	H	-1.194144	0.813955	0.224175
O57	O	-0.965569	0.452450	0.934771
H58	H	-0.998486	0.489902	0.969779
H59	H	-0.978013	0.784560	0.439899
H60	H	-1.148981	0.923928	0.269309
H61	H	-0.978073	0.924002	0.439921
H62	H	-1.148890	0.269244	0.785274
O63	O	-0.483933	0.452685	0.452151
H64	H	-0.523565	0.485494	0.484781
H65	H	-1.148880	0.269244	0.924701
H66	H	-0.978016	0.440011	0.785185
H67	H	-0.494108	0.269107	0.269350
O68	O	-0.643690	0.452594	0.452225
H69	H	-0.604050	0.485366	0.484902
