data_functionalizedCrystal
_audit_creation_method	'MofGen! by Chris Wilmer'
_symmetry_space_group_name_H-M	'P1'
_symmetry_Int_Tables_number	1
_symmetry_cell_setting	triclinic
loop_
_symmetry_equiv_pos_as_xyz
  x,y,z
_cell_length_a	16.992701
_cell_length_b	26.809956
_cell_length_c	16.992695
_cell_angle_alpha	89.995583
_cell_angle_beta	90.667696
_cell_angle_gamma	90.009475
loop_
_atom_site_label
_atom_site_type_symbol
_atom_site_fract_x
_atom_site_fract_y
_atom_site_fract_z
O1	O	1.050856	0.041484	0.166896
O2	O	0.822456	0.041484	0.165067
O3	O	0.935740	0.041480	0.051782
O4	O	0.937571	0.041488	0.280182
O5	O	0.935718	-0.041479	0.051799
O6	O	0.822434	-0.041475	0.165084
O7	O	1.050834	-0.041475	0.166913
Zn8	Zn	0.936631	-0.054646	0.166001
Zn9	Zn	0.936659	0.054656	0.165979
O10	O	0.937550	-0.041471	0.280199
C11	C	0.793085	0.000005	0.162720
C12	C	0.705600	0.000005	0.155692
C13	C	0.213682	0.000005	0.108471
C14	C	0.295882	0.000002	0.115080
C15	C	0.332089	0.000007	0.189508
C16	C	0.286091	0.000010	0.257331
C17	C	0.203892	0.000009	0.250720
C18	C	0.577403	0.000007	0.216905
C19	C	0.659608	0.000009	0.223510
C20	C	0.669394	0.000001	0.081258
C21	C	0.587192	0.000003	0.074655
C22	C	0.541202	0.000003	0.142477
N23	N	0.416111	0.000006	0.196266
N24	N	0.457181	0.000000	0.135719
N25	N	0.936617	-0.129242	0.166017
C26	C	0.986815	-0.473870	0.115829
C27	C	0.986833	-0.682748	0.115818
O28	O	1.029482	-0.709753	0.073150
N29	N	0.936662	-0.708870	0.165962
C30	C	0.886480	-0.682768	0.216108
O31	O	0.843801	-0.709779	0.258753
C32	C	0.886458	-0.473892	0.216114
C33	C	0.936638	-0.447773	0.165973
C34	C	1.036991	-0.447751	0.065691
C35	C	1.036989	-0.395535	0.065697
C36	C	0.986812	-0.369438	0.115842
C37	C	0.936636	-0.395557	0.165979
C38	C	0.836272	-0.447792	0.266256
C39	C	0.836270	-0.395569	0.266252
C40	C	0.886450	-0.369450	0.216111
C41	C	0.886457	-0.317243	0.216130
N42	N	0.936628	-0.291121	0.165986
C43	C	0.986805	-0.317219	0.115842
C44	C	0.886495	-0.792432	0.216103
C45	C	0.886502	-0.844651	0.216102
C46	C	0.986854	-0.844627	0.115811
C47	C	0.986852	-0.792407	0.115816
C48	C	0.936666	-0.766310	0.165959
C49	C	0.986798	-0.207561	0.115859
C50	C	0.986794	-0.155340	0.115872
C51	C	0.886438	-0.155369	0.216160
C52	C	0.886445	-0.207585	0.216151
C53	C	0.936627	-0.233680	0.165994
O54	O	0.843824	-0.290205	0.258770
O55	O	1.029465	-0.290199	0.073192
C56	C	0.986817	-0.526087	0.115823
C57	C	0.936642	-0.552205	0.165961
C58	C	0.886465	-0.526108	0.216105
C59	C	0.936648	-0.604424	0.165960
C60	C	0.986825	-0.630522	0.115816
C61	C	1.036996	-0.604400	0.065672
C62	C	1.036994	-0.552184	0.065679
C63	C	0.836294	-0.552230	0.266248
C64	C	0.836301	-0.604446	0.266239
C65	C	0.886478	-0.630543	0.216095
C66	C	1.080205	0.000006	0.169260
C67	C	1.167689	0.000009	0.176288
N68	N	0.936679	0.129252	0.165958
C69	C	0.933373	0.000001	0.022430
C70	C	0.926345	0.000001	-0.065055
C71	C	0.994163	0.000000	-0.111046
C72	C	0.987554	0.000005	-0.193247
C73	C	0.913126	0.000007	-0.229454
C74	C	0.845303	0.000009	-0.183457
C75	C	0.851913	0.000008	-0.101258
C76	C	0.885732	0.000014	-0.474768
C77	C	0.879127	0.000013	-0.556974
C78	C	1.021378	0.000011	-0.566758
C79	C	1.027981	0.000006	-0.484557
C80	C	0.960158	0.000011	-0.438566
N81	N	0.906369	0.000010	-0.313476
N82	N	0.966916	0.000011	-0.354546
C83	C	0.939916	0.000010	0.309550
C84	C	0.946945	0.000013	0.397035
H85	H	0.539967	0.000009	0.272131
H86	H	0.830505	0.000017	-0.437333
O87	O	0.698660	0.000012	0.303791
H88	H	0.735876	-0.033797	0.310205
O89	O	1.060706	0.000001	-0.242845
H90	H	1.061119	0.033818	-0.280525
O91	O	0.325137	0.000015	0.337610
H92	H	0.390022	0.000020	0.330815
O93	O	1.091104	-0.367371	0.011603
H94	H	1.131448	-0.343579	0.047150
H95	H	1.076596	0.000008	-0.604212
H96	H	1.088588	0.000005	-0.455083
H97	H	0.845592	-0.228851	0.256988
O98	O	0.778768	0.000003	-0.051646
H99	H	0.725902	-0.000001	-0.090631
H100	H	0.184208	0.000004	0.047863
O101	O	1.091116	-0.632552	0.011583
H102	H	1.082676	-0.673250	0.020005
H103	H	0.166446	0.000010	0.305945
H104	H	1.027659	-0.134075	0.075041
O105	O	1.040932	-0.235703	0.061774
H106	H	1.075824	-0.208761	0.026923
H107	H	0.818516	0.000007	-0.586451
O108	O	1.040952	-0.764235	0.061717
H109	H	1.081291	-0.740436	0.097258
H110	H	0.845587	-0.134112	0.256990
H111	H	0.795440	-0.625708	0.307077
H112	H	1.077851	-0.468995	0.024854
O113	O	0.832363	-0.764287	0.270188
H114	H	0.867887	-0.740490	0.310542
H115	H	0.795432	-0.530985	0.307081
O116	O	0.345491	-0.000005	0.041935
H117	H	0.306504	-0.000003	-0.010929
O118	O	0.548140	-0.000012	-0.005621
H119	H	0.593932	-0.000022	-0.051670
O120	O	0.782132	-0.367419	0.320324
H121	H	0.817651	-0.343620	0.360681
O122	O	0.718995	-0.000009	0.008109
H123	H	0.782237	-0.000014	0.025205
H124	H	0.784702	0.000014	-0.212943
O125	O	1.074439	0.000003	-0.071994
H126	H	1.120485	0.000010	-0.117788
O127	O	0.782166	-0.475944	0.320369
H128	H	0.720170	-0.465929	0.306470
O129	O	1.040971	-0.872778	0.061718
H130	H	1.032534	-0.913476	0.070142
H131	H	1.077855	-0.530922	0.024849
O132	O	0.832407	-0.872820	0.270210
H133	H	0.797520	-0.845895	0.305077
