data_functionalizedCrystal
_audit_creation_method	'MofGen! by Chris Wilmer'
_symmetry_space_group_name_H-M	'P1'
_symmetry_Int_Tables_number	1
_symmetry_cell_setting	triclinic
loop_
_symmetry_equiv_pos_as_xyz
  x,y,z
_cell_length_a	14.853566
_cell_length_b	23.532409
_cell_length_c	13.330367
_cell_angle_alpha	89.998407
_cell_angle_beta	89.995295
_cell_angle_gamma	83.241987
loop_
_atom_site_label
_atom_site_type_symbol
_atom_site_fract_x
_atom_site_fract_y
_atom_site_fract_z
O1	O	1.195557	0.074349	-0.083350
O2	O	0.933001	0.083207	-0.083366
O3	O	1.072195	-0.004119	-0.083359
O4	O	1.056363	0.161675	-0.083357
O5	O	1.072175	-0.004121	0.083488
O6	O	0.932981	0.083205	0.083481
O7	O	1.195537	0.074347	0.083497
Cu8	Cu	1.064257	0.078776	0.098724
Cu9	Cu	1.064281	0.078778	-0.098593
O10	O	1.056343	0.161673	0.083490
C11	C	0.899406	0.082805	0.000056
C12	C	0.799336	0.081603	0.000049
C13	C	0.376217	0.076518	-0.090882
C14	C	0.376217	0.076516	0.091022
C15	C	0.470239	0.077645	0.091019
C16	C	0.517254	0.078212	0.000064
C17	C	0.470247	0.077649	-0.090887
C18	C	0.517251	0.078214	0.181968
C19	C	0.611278	0.079344	0.181969
C20	C	0.658296	0.079906	0.091013
C21	C	0.611284	0.079343	0.000058
C22	C	0.658299	0.079909	-0.090896
C23	C	0.611290	0.079341	-0.181853
C24	C	0.517265	0.078211	-0.181843
C25	C	0.752321	0.081036	0.091004
C26	C	0.752329	0.081040	-0.090902
C27	C	1.071782	-0.025338	0.000062
C28	C	1.070569	-0.088560	0.000055
C29	C	1.065421	-0.361826	-0.090898
C30	C	1.066547	-0.302421	-0.090898
O31	O	1.067171	-0.271693	-0.168244
N32	N	1.067094	-0.272718	0.000052
C33	C	1.066523	-0.302423	0.091008
O34	O	1.067093	-0.271703	0.168368
C35	C	1.065403	-0.361828	0.091007
C36	C	1.064847	-0.391527	0.000051
C37	C	1.064866	-0.391526	-0.181847
C38	C	1.063738	-0.450927	-0.181846
C39	C	1.063165	-0.480628	-0.090897
C40	C	1.063719	-0.450928	0.000051
C41	C	1.064839	-0.391533	0.181962
C42	C	1.063720	-0.450941	0.181953
C43	C	1.063164	-0.480641	0.090997
C44	C	1.062018	-0.540030	0.091001
N45	N	1.061471	-0.569734	0.000051
C46	C	1.062045	-0.540033	-0.090898
C47	C	1.068877	-0.177670	0.091002
C48	C	1.069991	-0.118266	0.091004
C49	C	1.070016	-0.118268	-0.090902
C50	C	1.068896	-0.177673	-0.090903
C51	C	1.068330	-0.207373	0.000053
C52	C	1.059675	-0.664779	-0.090890
C53	C	1.058543	-0.724185	-0.090882
C54	C	1.058522	-0.724178	0.091024
C55	C	1.059649	-0.664776	0.091016
C56	C	1.060228	-0.635079	0.000051
O57	O	1.061397	-0.570797	0.168306
O58	O	1.061487	-0.570761	-0.168245
C59	C	1.229132	0.074749	0.000073
C60	C	1.329202	0.075952	0.000073
C61	C	1.056756	0.182892	0.000067
C62	C	1.057969	0.246114	0.000067
N63	N	1.064247	0.078774	0.237505
N64	N	1.064298	0.078776	-0.237374
C65	C	1.002643	0.117431	0.710125
C66	C	1.125943	0.040121	0.710099
C67	C	1.125933	0.040119	0.605081
C68	C	1.064278	0.078775	0.552580
C69	C	1.002633	0.117432	0.605097
C70	C	1.187583	0.001467	0.552556
C71	C	1.187576	0.001464	0.447531
C72	C	1.125916	0.040117	0.395028
C73	C	1.064267	0.078775	0.447551
C74	C	1.002612	0.117431	0.395050
C75	C	0.940959	0.156086	0.447572
C76	C	0.940972	0.156085	0.552594
C77	C	1.125902	0.040119	0.290006
C78	C	1.002602	0.117431	0.290022
H79	H	0.649546	0.079805	0.256031
H80	H	0.952391	0.148907	0.247282
H81	H	0.890763	0.187562	0.404813
N82	N	0.466568	0.077609	-0.279942
H83	H	0.490551	0.042531	-0.319709
H84	H	0.399880	0.076832	-0.266057
H85	H	1.068442	-0.201850	-0.164967
H86	H	0.649581	0.079807	-0.255908
H87	H	1.063292	-0.475104	-0.255912
H88	H	1.065301	-0.367362	0.256028
H89	H	1.065336	-0.367350	-0.255912
H90	H	1.068408	-0.201848	0.165074
H91	H	0.337931	0.076059	0.165073
N92	N	0.803023	0.081655	0.189092
H93	H	0.758971	0.081128	0.246712
H94	H	0.849658	0.046847	0.193059
H95	H	1.237785	-0.030002	0.595305
N96	N	1.057993	-0.756222	-0.188987
H97	H	1.058548	-0.728390	-0.246601
H98	H	1.113437	-0.785425	-0.192907
N99	N	0.874480	0.197774	0.609240
H100	H	0.883846	0.191909	0.683737
H101	H	0.884526	0.238188	0.590877
H102	H	1.060147	-0.640606	-0.164963
H103	H	1.070480	-0.094074	-0.164958
H104	H	1.237776	-0.030012	0.404774
N105	N	0.325524	0.075900	-0.188981
H106	H	0.258826	0.075095	-0.175182
H107	H	0.334333	0.111374	-0.228702
N108	N	1.070575	-0.086234	0.189106
H109	H	1.070040	-0.114069	0.246717
H110	H	1.126937	-0.066156	0.193077
H111	H	0.952443	0.148903	0.752891
H112	H	1.176145	0.008652	0.752849
H113	H	0.478963	0.077757	0.256019
N114	N	1.063114	-0.482976	0.280057
H115	H	1.063637	-0.455143	0.337670
H116	H	1.006753	-0.503056	0.284023
H117	H	1.060066	-0.640591	0.165080
N118	N	1.057918	-0.756219	0.189116
H119	H	1.057130	-0.798358	0.175306
H120	H	1.114013	-0.750401	0.228818
N121	N	1.192396	-0.001564	0.233357
H122	H	1.231459	-0.026050	0.282552
H123	H	1.158111	-0.026784	0.189792
H124	H	0.790603	0.081499	-0.164969
