data_functionalizedCrystal
_audit_creation_method	'MofGen! by Chris Wilmer'
_symmetry_space_group_name_H-M	'P1'
_symmetry_Int_Tables_number	1
_symmetry_cell_setting	triclinic
loop_
_symmetry_equiv_pos_as_xyz
  x,y,z
_cell_length_a	13.897449
_cell_length_b	12.827893
_cell_length_c	12.827885
_cell_angle_alpha	90.019272
_cell_angle_beta	89.976701
_cell_angle_gamma	89.997220
loop_
_atom_site_label
_atom_site_type_symbol
_atom_site_fract_x
_atom_site_fract_y
_atom_site_fract_z
Zn1	Zn	0.383964	1.597762	0.590896
Zn2	Zn	0.883964	2.097762	1.090896
Zn3	Zn	0.545290	1.597695	0.416176
Zn4	Zn	1.045290	2.097695	0.916176
Zn5	Zn	0.384011	1.423004	0.416169
Zn6	Zn	0.884011	1.923004	0.916169
Zn7	Zn	0.545219	1.423028	0.590876
Zn8	Zn	1.045219	1.923028	1.090876
O9	O	0.464621	1.510372	0.503529
O10	O	0.964621	2.010372	1.003529
O11	O	0.405374	1.743989	0.567730
O12	O	0.905374	2.243989	1.067730
O13	O	0.523946	1.574484	0.269939
O14	O	1.023946	2.074484	0.769939
O15	O	0.249024	1.446204	0.439353
O16	O	0.749024	1.946204	0.939353
O17	O	0.523900	1.743940	0.439364
O18	O	1.023900	2.243940	0.939364
O19	O	0.248989	1.574598	0.567724
O20	O	0.748989	2.074598	1.067724
O21	O	0.405455	1.446139	0.269934
O22	O	0.905455	1.946139	0.769934
O23	O	0.405386	1.276771	0.439334
O24	O	0.905386	1.776771	0.939334
O25	O	0.523779	1.446245	0.737115
O26	O	1.023779	1.946245	1.237115
O27	O	0.523825	1.276789	0.567690
O28	O	1.023825	1.776789	1.067690
O29	O	0.405305	1.574622	0.737129
O30	O	0.905305	2.074622	1.237129
O31	O	0.680263	1.574508	0.439345
O32	O	1.180263	2.074508	0.939345
O33	O	0.680210	1.446180	0.567696
O34	O	1.180210	1.946180	1.067696
C35	C	0.464603	1.238862	0.503509
C36	C	0.964603	1.738862	1.003509
C37	C	0.464619	1.122709	0.503526
C38	C	0.964619	1.622709	1.003526
C39	C	0.406073	1.070949	0.567144
C40	C	0.906073	1.570949	1.067144
C41	C	0.406088	0.950898	0.567162
C42	C	0.906088	1.450898	1.067162
C43	C	0.213028	1.510406	0.503540
C44	C	0.713028	2.010406	1.003540
C45	C	0.105814	1.510420	0.503544
C46	C	0.605814	2.010420	1.003544
C47	C	-0.090481	1.510452	0.503577
C48	C	0.409519	2.010452	1.003577
C49	C	0.018752	1.510437	0.503562
C50	C	0.518752	2.010437	1.003562
C51	C	0.715236	1.510368	0.503542
C52	C	1.215236	2.010368	1.003542
C53	C	0.822449	1.510461	0.503582
C54	C	1.322449	2.010461	1.003582
C55	C	0.464529	1.510443	0.776100
C56	C	0.964529	2.010443	1.276100
C57	C	0.464489	1.510474	0.892253
C58	C	0.964489	2.010474	1.392253
C59	C	0.464640	1.782942	0.503550
C60	C	0.964640	2.282942	1.003550
C61	C	0.464648	1.899096	0.503559
C62	C	0.964648	2.399096	1.003559
C63	C	0.464644	1.510362	0.232019
C64	C	0.964644	2.010362	0.732019
C65	C	0.464412	1.510534	0.115867
C66	C	0.964412	2.010534	0.615867
C67	C	0.405853	1.574005	0.944045
C68	C	0.905853	2.074005	1.444045
C69	C	0.405811	1.574038	1.064095
C70	C	0.905811	2.074038	1.564095
H71	H	0.514752	1.078147	0.449071
H72	H	1.014752	1.578147	0.949071
H73	H	0.355967	0.906385	0.621632
H74	H	0.855967	1.406385	1.121632
H75	H	0.355614	1.628434	1.108635
H76	H	0.855614	2.128434	1.608635
Cl77	Cl	0.541930	1.426555	1.047113
Cl78	Cl	1.041930	1.926555	1.547113
Cl79	Cl	0.542047	0.967807	0.419465
Cl80	Cl	1.042047	1.467807	0.919465
Cl81	Cl	0.328662	1.139741	0.651217
Cl82	Cl	0.828662	1.639741	1.151217
Cl83	Cl	0.328368	1.657923	0.875294
Cl84	Cl	0.828368	2.157923	1.375294
Cl85	Cl	0.541945	1.426524	0.961004
Cl86	Cl	1.041945	1.926524	1.461004
