data_functionalizedCrystal
_audit_creation_method	'MofGen! by Chris Wilmer'
_symmetry_space_group_name_H-M	'P1'
_symmetry_Int_Tables_number	1
_symmetry_cell_setting	triclinic
loop_
_symmetry_equiv_pos_as_xyz
  x,y,z
_cell_length_a	10.723022
_cell_length_b	15.500227
_cell_length_c	10.723024
_cell_angle_alpha	92.856340
_cell_angle_beta	95.532452
_cell_angle_gamma	92.871138
loop_
_atom_site_label
_atom_site_type_symbol
_atom_site_fract_x
_atom_site_fract_y
_atom_site_fract_z
O1	O	1.662944	0.071936	-0.169275
O2	O	2.162944	0.571936	0.330725
O3	O	1.299792	0.071939	-0.186030
O4	O	1.799792	0.571939	0.313970
O5	O	1.489745	0.071934	0.003924
O6	O	1.989745	0.571934	0.503924
O7	O	1.472992	0.071941	-0.359228
O8	O	1.972992	0.571941	0.140772
O9	O	1.478217	-0.071954	-0.007558
O10	O	1.978217	0.428046	0.492442
O11	O	1.288265	-0.071950	-0.197511
O12	O	1.788265	0.428050	0.302489
O13	O	1.651417	-0.071952	-0.180756
O14	O	2.151417	0.428048	0.319244
Cu15	Cu	1.468788	-0.085089	-0.190182
Cu16	Cu	1.968788	0.414911	0.309818
Cu17	Cu	1.482421	0.085076	-0.176604
Cu18	Cu	1.982421	0.585076	0.323396
O19	O	1.461465	-0.071948	-0.370710
O20	O	1.961465	0.428052	0.129290
C21	C	1.247529	-0.000005	-0.190552
C22	C	1.747529	0.499995	0.309448
C23	C	1.108974	-0.000004	-0.186905
C24	C	1.608974	0.499996	0.313095
N25	N	1.459209	-0.204774	-0.199731
N26	N	1.959209	0.295226	0.300269
C27	C	1.060413	-0.000005	-0.077365
C28	C	1.560413	0.499995	0.422635
C29	C	0.917211	-0.000004	-0.073593
C30	C	1.417211	0.499996	0.426407
C31	C	1.539727	-0.250052	-0.119271
C32	C	2.039727	0.249948	0.380729
C33	C	1.532494	-0.340625	-0.126505
C34	C	2.032494	0.159375	0.373495
C35	C	1.444749	-0.385917	-0.214205
C36	C	1.944749	0.114083	0.285795
C37	C	1.364222	-0.340632	-0.294669
C38	C	1.864222	0.159368	0.205331
C39	C	1.371450	-0.250061	-0.287428
C40	C	1.871450	0.249939	0.212572
C41	C	1.418711	-0.659384	-0.240268
C42	C	1.918711	-0.159384	0.259732
C43	C	1.411492	-0.749961	-0.247505
C44	C	1.911492	-0.249961	0.252495
C45	C	1.579763	-0.749947	-0.079339
C46	C	2.079763	-0.249947	0.420661
C47	C	1.586988	-0.659375	-0.072111
C48	C	2.086988	-0.159375	0.427889
C49	C	1.506457	-0.614098	-0.152570
C50	C	2.006457	-0.114098	0.347430
C51	C	1.437356	-0.478497	-0.221604
C52	C	1.937356	0.021503	0.278396
C53	C	1.513845	-0.521519	-0.145164
C54	C	2.013845	-0.021519	0.354836
C55	C	1.703680	-0.000006	-0.176234
C56	C	2.203680	0.499994	0.323766
C57	C	1.842235	-0.000002	-0.179881
C58	C	2.342235	0.499998	0.320119
N59	N	1.492010	0.204760	-0.167045
N60	N	1.992010	0.704760	0.332955
C61	C	1.482762	-0.000009	0.044683
C62	C	1.982762	0.499991	0.544683
C63	C	1.479114	-0.000006	0.183237
C64	C	1.979114	0.499994	0.683237
C65	C	1.468447	-0.000003	-0.411469
C66	C	1.968447	0.499997	0.088531
C67	C	1.472095	0.000000	-0.550023
C68	C	1.972095	0.500000	-0.050023
C69	C	1.585402	-0.000005	0.258220
C70	C	2.085402	0.499995	0.758220
C71	C	1.581635	-0.000002	0.401424
C72	C	2.081635	0.499998	0.901424
H73	H	1.124856	-0.000003	0.013624
H74	H	1.624856	0.499997	0.513624
F75	F	1.024750	0.000005	-0.305838
F76	F	1.524750	0.500005	0.194162
H77	H	1.292771	-0.377515	-0.366072
H78	H	1.792771	0.122485	0.133928
H79	H	0.875400	0.000016	0.020196
H80	H	1.375400	0.500016	0.520196
H81	H	0.884038	-0.000006	-0.273673
H82	H	1.384038	0.499994	0.226327
H83	H	1.611184	-0.213181	-0.047862
H84	H	2.111184	0.286819	0.452138
F85	F	1.700570	-0.000008	0.485638
F86	F	2.200570	0.499992	0.985638
H87	H	1.598058	-0.377490	-0.060988
H88	H	2.098058	0.122510	0.439012
H89	H	1.385329	0.000001	0.225059
H90	H	1.885329	0.500001	0.725059
F91	F	1.707992	-0.000001	0.203564
F92	F	2.207992	0.499999	0.703564
H93	H	1.658438	-0.622499	-0.000699
H94	H	2.158438	-0.122499	0.499301
F95	F	1.665461	-0.798140	0.006288
F96	F	2.165461	-0.298140	0.506288
F97	F	1.318096	-0.798159	-0.340856
F98	F	1.818096	-0.298159	0.159144
H99	H	1.305882	-0.213196	-0.352946
H100	H	1.805882	0.286804	0.147054
F101	F	1.333008	-0.611203	-0.325901
F102	F	1.833008	-0.111203	0.174099
H103	H	1.585283	-0.484640	-0.073754
H104	H	2.085283	0.015360	0.426246
F105	F	1.353154	-0.000007	0.365770
F106	F	1.853154	0.499993	0.865770
F107	F	1.343973	-0.526706	-0.314943
F108	F	1.843973	-0.026706	0.185057
