data_functionalizedCrystal
_audit_creation_method	'MofGen! by Chris Wilmer'
_symmetry_space_group_name_H-M	'P1'
_symmetry_Int_Tables_number	1
_symmetry_cell_setting	triclinic
loop_
_symmetry_equiv_pos_as_xyz
  x,y,z
_cell_length_a	14.044220
_cell_length_b	19.188930
_cell_length_c	13.101039
_cell_angle_alpha	93.345801
_cell_angle_beta	86.340132
_cell_angle_gamma	88.166830
loop_
_atom_site_label
_atom_site_type_symbol
_atom_site_fract_x
_atom_site_fract_y
_atom_site_fract_z
O1	O	1.262233	0.164759	-0.085127
O2	O	0.986290	0.158685	-0.085152
O3	O	1.132223	0.060581	-0.085119
O4	O	1.116300	0.262863	-0.085160
O5	O	1.121753	0.067633	0.085309
O6	O	0.975820	0.165737	0.085275
O7	O	1.251762	0.171810	0.085300
Zn8	Zn	1.112128	0.169893	0.112347
Zn9	Zn	1.125924	0.160602	-0.112199
O10	O	1.105829	0.269914	0.085267
C11	C	0.945752	0.159553	0.000059
C12	C	0.840559	0.151623	0.000050
C13	C	0.647957	0.137129	0.000073
C14	C	0.590091	0.193363	0.000066
C15	C	0.482920	0.185298	0.000079
C16	C	0.755137	0.145193	0.000060
C17	C	1.126472	0.038063	0.000098
C18	C	1.124923	-0.039541	0.000106
C19	C	1.210553	-0.078939	0.000119
C20	C	1.209099	-0.151857	0.000103
C21	C	1.122010	-0.185374	0.000094
C22	C	1.036370	-0.145968	0.000075
C23	C	1.037827	-0.073051	0.000082
N24	N	1.051878	-0.295275	0.058088
N25	N	1.050500	-0.364543	0.058084
C26	C	1.117617	-0.405067	0.000073
N27	N	1.186177	-0.373707	-0.057921
N28	N	1.187558	-0.304433	-0.057913
C29	C	1.120421	-0.264440	0.000086
C30	C	1.201676	-0.523532	0.000066
C31	C	1.200219	-0.596452	0.000043
C32	C	1.027487	-0.590560	0.000026
C33	C	1.028947	-0.517642	0.000039
C34	C	1.116043	-0.484132	0.000064
C35	C	1.292301	0.170943	0.000087
C36	C	1.397494	0.178872	0.000089
C37	C	1.111580	0.292433	0.000048
C38	C	1.113129	0.370037	0.000033
N39	N	1.102720	0.176234	0.265593
N40	N	1.135340	0.154257	-0.265445
C41	C	1.089920	0.184867	0.474633
C42	C	1.148137	0.145626	0.525522
C43	C	1.141014	0.150429	0.641839
C44	C	1.097041	0.180064	0.358306
H45	H	1.278831	-0.183941	0.000109
H46	H	1.281474	-0.051660	0.000136
O47	O	0.610891	0.072520	0.000039
C48	C	0.510585	0.078751	0.000072
H49	H	0.489248	0.130471	-0.032195
H50	H	0.478061	0.077067	0.081837
C51	C	0.499981	-0.045556	-0.027127
C52	C	0.473775	0.017965	-0.066766
H53	H	0.477273	-0.083053	-0.068351
H54	H	0.567559	-0.049755	-0.027145
H55	H	0.472876	-0.046949	0.041010
H56	H	0.500891	0.019361	-0.134896
H57	H	0.406201	0.022163	-0.066760
H58	H	0.965462	-0.173262	0.000066
H59	H	0.621038	0.247564	0.000050
O60	O	0.942821	-0.623026	0.000153
C61	C	0.885222	-0.599792	0.088427
H62	H	0.909026	-0.546474	0.117866
H63	H	0.892576	-0.638691	0.150230
C64	C	0.750976	-0.659377	0.025446
C65	C	0.780207	-0.593888	0.061597
H66	H	0.686198	-0.655738	0.008898
H67	H	0.789782	-0.675033	-0.034025
H68	H	0.757113	-0.691786	0.076954
H69	H	0.774082	-0.561483	0.010085
H70	H	0.741397	-0.578227	0.121059
O71	O	0.954552	-0.034880	0.000120
C72	C	0.877371	-0.080096	0.000077
H73	H	0.899666	-0.131607	0.032337
H74	H	0.855687	-0.090314	-0.081690
C75	C	0.764856	0.017168	0.027285
C76	C	0.792237	-0.046098	0.066915
H77	H	0.712339	0.038139	0.068510
H78	H	0.816854	0.047631	0.027311
H79	H	0.746792	0.008644	-0.040854
H80	H	0.810312	-0.037572	0.135048
H81	H	0.740240	-0.076559	0.066903
O82	O	1.286364	-0.491089	0.000026
C83	C	1.361633	-0.541502	0.000045
H84	H	1.337255	-0.593947	-0.032225
H85	H	1.383019	-0.546791	0.081806
C86	C	1.477836	-0.454169	-0.027156
C87	C	1.447897	-0.518582	-0.066798
H88	H	1.531050	-0.440030	-0.068383
H89	H	1.427126	-0.420204	-0.027164
H90	H	1.495651	-0.458585	0.040978
H91	H	1.430072	-0.514163	-0.134925
H92	H	1.498606	-0.552546	-0.066803
O93	O	1.283392	-0.634761	-0.000130
C94	C	1.293137	-0.680764	-0.088391
H95	H	1.248360	-0.659661	-0.150088
H96	H	1.267607	-0.734414	-0.068451
C97	C	1.453750	-0.712966	-0.052620
C98	C	1.398761	-0.687044	-0.128400
H99	H	1.518904	-0.716843	-0.077298
H100	H	1.447184	-0.681975	0.006845
H101	H	1.432464	-0.757671	-0.036010
H102	H	1.420039	-0.642336	-0.144999
H103	H	1.405333	-0.718027	-0.187869
H104	H	0.959218	-0.485564	0.000034
O105	O	1.213783	0.101164	0.473132
C106	C	1.206232	0.106091	0.366975
H107	H	1.171824	0.158886	0.352371
H108	H	1.160341	0.062531	0.336707
C109	C	1.348717	0.034152	0.329569
C110	C	1.306463	0.098999	0.311631
H111	H	1.410543	0.029775	0.295428
H112	H	1.353803	0.030831	0.401088
H113	H	1.310465	-0.002140	0.304345
H114	H	1.344709	0.135289	0.336866
H115	H	1.301386	0.102326	0.240114
H116	H	1.034735	0.222068	0.518417
