data_functionalizedCrystal
_audit_creation_method	'MofGen! by Chris Wilmer'
_symmetry_space_group_name_H-M	'P1'
_symmetry_Int_Tables_number	1
_symmetry_cell_setting	triclinic
loop_
_symmetry_equiv_pos_as_xyz
  x,y,z
_cell_length_a	10.540539
_cell_length_b	23.532407
_cell_length_c	9.016244
_cell_angle_alpha	89.993097
_cell_angle_beta	89.994699
_cell_angle_gamma	83.687085
loop_
_atom_site_label
_atom_site_type_symbol
_atom_site_fract_x
_atom_site_fract_y
_atom_site_fract_z
O1	O	1.683259	0.080251	-0.123287
O2	O	1.313598	0.087813	-0.123307
O3	O	1.509576	0.001174	-0.123270
O4	O	1.487282	0.166890	-0.123325
O5	O	1.509547	0.001176	0.123411
O6	O	1.313570	0.087815	0.123373
O7	O	1.683231	0.080253	0.123393
Cu8	Cu	1.498398	0.084034	0.145907
Cu9	Cu	1.498431	0.084032	-0.145821
O10	O	1.487253	0.166892	0.123356
C11	C	1.266300	0.087246	0.000031
C12	C	1.125407	0.085550	0.000024
C13	C	0.944114	0.020541	0.000622
C14	C	1.090676	0.022261	0.000050
C15	C	1.062751	0.116006	-0.140847
C16	C	0.916278	0.113846	-0.140949
C17	C	0.915715	0.115136	0.139573
C18	C	1.062677	0.115719	0.141419
C19	C	1.508994	-0.020045	0.000075
C20	C	1.507287	-0.083273	0.000086
C21	C	1.612557	-0.481681	0.000010
C22	C	1.610971	-0.541092	-0.000001
O23	O	1.708557	-0.577192	-0.000051
N24	N	1.494462	-0.564488	-0.000006
C25	C	1.379532	-0.528469	-0.000015
O26	O	1.280287	-0.553824	-0.000022
C27	C	1.381119	-0.469060	-0.000015
C28	C	1.497635	-0.445667	0.000006
C29	C	1.729064	-0.458288	0.000029
C30	C	1.730649	-0.398882	0.000043
C31	C	1.615727	-0.362868	0.000038
C32	C	1.499220	-0.386261	0.000020
C33	C	1.266190	-0.433042	-0.000034
C34	C	1.267787	-0.373629	-0.000035
C35	C	1.384303	-0.350237	-0.000014
C36	C	1.385883	-0.290840	0.000029
N37	N	1.502392	-0.267444	0.000035
C38	C	1.617314	-0.303458	0.000039
C39	C	1.376208	-0.653234	-0.000019
C40	C	1.374620	-0.712642	-0.000010
C41	C	1.606059	-0.725261	0.000002
C42	C	1.607646	-0.665851	0.000003
C43	C	1.492717	-0.629838	-0.000014
C44	C	1.620634	-0.178700	0.000070
C45	C	1.622209	-0.119287	0.000090
C46	C	1.390770	-0.106674	0.000071
C47	C	1.389194	-0.166081	0.000059
C48	C	1.504137	-0.202093	0.000053
O49	O	1.288349	-0.254705	0.000073
O50	O	1.716543	-0.278095	0.000026
C51	C	1.730530	0.080819	0.000052
C52	C	1.871422	0.082516	0.000048
C53	C	1.487835	0.188111	0.000008
C54	C	1.489542	0.251339	-0.000013
N55	N	1.498383	0.084035	0.351093
N56	N	1.498456	0.084026	-0.351007
C57	C	1.393236	0.130226	0.586106
C58	C	1.393460	0.130399	0.414215
C59	C	1.630663	0.097553	0.413434
C60	C	1.630086	0.097880	0.585378
C61	C	1.472574	0.024176	0.585655
C62	C	1.469516	0.024564	0.413701
H63	H	0.884828	0.094655	0.246352
N64	N	1.853025	-0.497127	0.000035
H65	H	1.927061	-0.473283	0.000048
H66	H	1.857400	-0.522052	0.091488
N67	N	1.736867	0.055038	0.640450
H68	H	1.797860	0.075260	0.702491
H69	H	1.700101	0.025128	0.702655
H70	H	1.717094	-0.100245	0.000111
N71	N	1.744611	-0.217531	0.000083
H72	H	1.749102	-0.242465	0.091526
H73	H	1.749072	-0.242420	-0.091424
H74	H	1.409454	0.174378	0.629285
H75	H	1.295110	0.122265	0.372069
H76	H	1.133225	-0.001874	-0.101092
N77	N	1.415172	0.189246	0.359851
H78	H	1.495407	0.186643	0.297844
H79	H	1.339942	0.205389	0.297787
H80	H	0.866816	0.159363	-0.147358
H81	H	1.378259	0.011310	0.629103
H82	H	1.702524	-0.646810	0.000018
N83	N	1.736812	0.054198	0.359289
H84	H	1.700086	0.025309	0.293668
H85	H	1.800455	0.074300	0.300961
N86	N	1.564508	-0.023166	0.356814
H87	H	1.543567	-0.060809	0.398868
H88	H	1.560182	-0.024440	0.244979
N89	N	1.117878	0.086251	0.279474
H90	H	1.183248	0.053495	0.250565
H91	H	1.159965	0.114474	0.341940
N92	N	1.574212	-0.021372	0.639551
H93	H	1.533134	-0.050957	0.698424
H94	H	1.620844	-0.040273	0.551611
H95	H	1.134064	-0.001703	0.101034
N96	N	1.340617	0.011011	0.359722
H97	H	1.351142	-0.025614	0.300421
H98	H	1.283292	0.006348	0.447642
H99	H	0.866987	0.160849	0.140509
H100	H	0.914735	-0.004357	-0.099826
H101	H	0.916337	-0.004461	0.101650
N102	N	1.090349	0.177569	-0.147839
H103	H	1.143860	0.186329	-0.059543
H104	H	1.138256	0.184074	-0.242256
H105	H	1.174194	-0.344309	-0.000050
N106	N	1.120090	0.087984	-0.279709
H107	H	1.186637	0.055567	-0.251687
H108	H	1.050745	0.072585	-0.340058
H109	H	1.825528	-0.379842	0.000053
N110	N	1.140524	-0.458268	-0.000076
H111	H	1.134678	-0.482641	0.091362
H112	H	1.068041	-0.426403	-0.000145
H113	H	0.888818	0.091335	-0.246237
N114	N	1.661781	0.154736	0.356360
H115	H	1.590387	0.171964	0.290138
H116	H	1.671844	0.181132	0.442863
N117	N	1.730016	-0.764110	0.000007
H118	H	1.711321	-0.805294	-0.000002
H119	H	1.780836	-0.756479	-0.091438
N120	N	1.248950	-0.737869	0.000009
H121	H	1.176395	-0.706035	0.000014
H122	H	1.243246	-0.762238	-0.091440
H123	H	1.653007	0.141545	0.625454
H124	H	1.294317	-0.185128	0.000083
N125	N	1.092744	0.176841	0.152675
H126	H	1.188220	0.177572	0.158948
H127	H	1.058860	0.198766	0.062106
N128	N	1.252240	-0.614392	-0.000024
H129	H	1.178200	-0.638233	-0.000026
H130	H	1.247842	-0.589473	0.091425
H131	H	1.297204	-0.077341	0.000073
N132	N	1.262540	0.119625	0.640930
H133	H	1.270262	0.084772	0.707069
H134	H	1.223830	0.153964	0.698876
