data_functionalizedCrystal
_audit_creation_method	'MofGen! by Chris Wilmer'
_symmetry_space_group_name_H-M	'P1'
_symmetry_Int_Tables_number	1
_symmetry_cell_setting	triclinic
loop_
_symmetry_equiv_pos_as_xyz
  x,y,z
_cell_length_a	17.699083
_cell_length_b	14.184957
_cell_length_c	17.699083
_cell_angle_alpha	103.127403
_cell_angle_beta	96.716985
_cell_angle_gamma	103.127349
loop_
_atom_site_label
_atom_site_type_symbol
_atom_site_fract_x
_atom_site_fract_y
_atom_site_fract_z
O1	O	1.021246	0.083283	-0.078537
O2	O	1.354579	0.416617	0.254796
O3	O	1.687912	0.749950	0.588129
O4	O	0.800874	0.083316	-0.090983
O5	O	1.134207	0.416650	0.242350
O6	O	1.467541	0.749983	0.575684
O7	O	0.917284	0.083290	0.025427
O8	O	1.250617	0.416623	0.358760
O9	O	1.583951	0.749957	0.692094
O10	O	0.904836	0.083310	-0.194947
O11	O	1.238169	0.416643	0.138386
O12	O	1.571502	0.749976	0.471719
O13	O	0.882877	-0.083554	-0.008974
O14	O	1.216210	0.249779	0.324359
O15	O	1.549544	0.583113	0.657692
O16	O	0.766467	-0.083528	-0.125384
O17	O	1.099800	0.249806	0.207949
O18	O	1.433134	0.583139	0.541282
O19	O	0.986839	-0.083561	-0.112939
O20	O	1.320172	0.249773	0.220395
O21	O	1.653505	0.583106	0.553728
Cu22	Cu	0.873511	-0.098778	-0.122303
Cu23	Cu	1.206845	0.234555	0.211031
Cu24	Cu	1.540178	0.567888	0.544364
Cu25	Cu	0.914202	0.098534	-0.081619
Cu26	Cu	1.247535	0.431867	0.251714
Cu27	Cu	1.580868	0.765201	0.585048
O28	O	0.870429	-0.083534	-0.229349
O29	O	1.203762	0.249799	0.103985
O30	O	1.537095	0.583132	0.437318
C31	C	0.755474	-0.000101	-0.107737
C32	C	1.088808	0.333232	0.225597
C33	C	1.422141	0.666565	0.558930
C34	C	0.671459	-0.000089	-0.106395
C35	C	1.004792	0.333244	0.226938
C36	C	1.338126	0.666578	0.560271
C37	C	0.622839	-0.000083	-0.174728
C38	C	0.956173	0.333250	0.158606
C39	C	1.289506	0.666583	0.491939
C40	C	0.543893	-0.000096	-0.173468
C41	C	0.877227	0.333237	0.159865
C42	C	1.210560	0.666570	0.493199
C43	C	0.513570	-0.000108	-0.103874
C44	C	0.846903	0.333225	0.229459
C45	C	1.180237	0.666559	0.562793
C46	C	0.562195	-0.000117	-0.035537
C47	C	0.895529	0.333216	0.297796
C48	C	1.228862	0.666550	0.631129
C49	C	0.641138	-0.000111	-0.036799
C50	C	0.974472	0.333222	0.296534
C51	C	1.307805	0.666556	0.629868
C52	C	0.243827	-0.000142	-0.030447
C53	C	0.577160	0.333191	0.302886
C54	C	0.910494	0.666525	0.636220
C55	C	0.164878	-0.000145	-0.029190
C56	C	0.498212	0.333188	0.304143
C57	C	0.831545	0.666522	0.637477
C58	C	0.146582	-0.000128	-0.167116
C59	C	0.479915	0.333206	0.166217
C60	C	0.813249	0.666539	0.499550
C61	C	0.225525	-0.000122	-0.168378
C62	C	0.558858	0.333212	0.164955
C63	C	0.892192	0.666545	0.498289
C64	C	0.274142	-0.000136	-0.100043
C65	C	0.607476	0.333198	0.233291
C66	C	0.940809	0.666531	0.566624
C67	C	0.359744	-0.000123	-0.101410
C68	C	0.693077	0.333210	0.231924
C69	C	1.026411	0.666543	0.565257
C70	C	0.427971	-0.000113	-0.102505
C71	C	0.761305	0.333220	0.230829
C72	C	1.094638	0.666553	0.564162
N73	N	0.844898	-0.237557	-0.150917
N74	N	1.178231	0.095776	0.182416
N75	N	1.511564	0.429110	0.515750
C76	C	1.026875	-0.605157	0.030994
C77	C	1.360208	-0.271824	0.364327
C78	C	1.693542	0.061509	0.697660
C79	C	1.005203	-0.710185	0.009341
C80	C	1.338536	-0.376852	0.342674
C81	C	1.671869	-0.043518	0.676008
C82	C	0.902090	-0.710174	-0.093713
C83	C	1.235424	-0.376841	0.239621
C84	C	1.568757	-0.043507	0.572954
C85	C	0.923756	-0.605144	-0.072071
C86	C	1.257090	-0.271811	0.261262
C87	C	1.590423	0.061522	0.594596
C88	C	0.986149	-0.552644	-0.009717
C89	C	1.319482	-0.219311	0.323617
C90	C	1.652815	0.114022	0.656950
C91	C	0.883030	-0.552631	-0.112781
C92	C	1.216363	-0.219298	0.220552
C93	C	1.549697	0.114035	0.553885
C94	C	0.904692	-0.447611	-0.091138
C95	C	1.238025	-0.114278	0.242195
C96	C	1.571359	0.219056	0.575528
C97	C	0.967080	-0.395104	-0.028785
C98	C	1.300414	-0.061770	0.304548
C99	C	1.633747	0.271563	0.637882
C100	C	1.007811	-0.447624	0.011926
C101	C	1.341144	-0.114291	0.345260
C102	C	1.674477	0.219043	0.678593
C103	C	0.820634	-0.605133	-0.175132
C104	C	1.153968	-0.271800	0.158202
C105	C	1.487301	0.061533	0.491535
C106	C	0.779908	-0.552620	-0.215842
C107	C	1.113242	-0.219287	0.117491
C108	C	1.446575	0.114046	0.450825
C109	C	0.801574	-0.447598	-0.194203
C110	C	1.134907	-0.114265	0.139131
C111	C	1.468240	0.219069	0.472464
C112	C	0.863962	-0.395091	-0.131850
C113	C	1.197295	-0.061757	0.201484
C114	C	1.530629	0.271576	0.534817
C115	C	0.760843	-0.395078	-0.234914
C116	C	1.094177	-0.061744	0.098419
C117	C	1.427510	0.271589	0.431753
C118	C	0.782505	-0.290057	-0.213271
C119	C	1.115839	0.043276	0.120062
C120	C	1.449172	0.376610	0.453395
C121	C	0.885624	-0.290070	-0.110207
C122	C	1.218957	0.043263	0.223127
C123	C	1.552290	0.376597	0.556460
C124	C	1.032239	-0.000141	-0.096185
C125	C	1.365572	0.333193	0.237149
C126	C	1.698905	0.666526	0.570482
C127	C	1.116256	-0.000146	-0.097524
C128	C	1.449589	0.333187	0.235809
C129	C	1.782922	0.666520	0.569142
C130	C	0.899634	-0.000132	0.036423
C131	C	1.232968	0.333201	0.369757
C132	C	1.566301	0.666535	0.703090
C133	C	0.898296	-0.000132	0.120441
C134	C	1.231629	0.333201	0.453775
C135	C	1.564962	0.666534	0.787108
N136	N	0.942821	0.237313	-0.052999
N137	N	1.276155	0.570646	0.280335
N138	N	1.609488	0.903979	0.613668
C139	C	0.888079	-0.000110	-0.240345
C140	C	1.221412	0.333223	0.092989
C141	C	1.554746	0.666557	0.426322
C142	C	0.889419	-0.000103	-0.324361
C143	C	1.222752	0.333230	0.008972
C144	C	1.556086	0.666563	0.342305
C145	C	0.966627	-0.000144	0.169060
C146	C	1.299960	0.333189	0.502393
C147	C	1.633293	0.666523	0.835727
C148	C	0.965366	-0.000135	0.248005
C149	C	1.298700	0.333199	0.581338
C150	C	1.632033	0.666532	0.914672
C151	C	0.895773	-0.000121	0.278329
C152	C	1.229106	0.333212	0.611662
C153	C	1.562439	0.666545	0.944995
C154	C	0.827437	-0.000107	0.229705
C155	C	1.160770	0.333227	0.563038
C156	C	1.494104	0.666560	0.896371
C157	C	0.828700	-0.000108	0.150762
C158	C	1.162033	0.333225	0.484096
C159	C	1.495366	0.666558	0.817429
C160	C	0.822344	-0.000098	0.548069
C161	C	1.155677	0.333236	0.881403
C162	C	1.489010	0.666569	1.214736
C163	C	0.821086	-0.000099	0.627017
C164	C	1.154419	0.333235	0.960351
C165	C	1.487752	0.666568	1.293684
C166	C	0.959010	-0.000124	0.645312
C167	C	1.292344	0.333209	0.978645
C168	C	1.625677	0.666543	1.311979
C169	C	0.960273	-0.000126	0.566370
C170	C	1.293606	0.333207	0.899703
C171	C	1.626940	0.666541	1.233037
C172	C	0.891939	-0.000106	0.517754
C173	C	1.225272	0.333227	0.851087
C174	C	1.558605	0.666561	1.184421
C175	C	0.893307	-0.000114	0.432153
C176	C	1.226640	0.333219	0.765486
C177	C	1.559973	0.666553	1.098820
C178	C	0.894403	-0.000121	0.363926
C179	C	1.227736	0.333213	0.697260
C180	C	1.561069	0.666546	1.030593
H181	H	0.106987	-0.000122	-0.222759
H182	H	0.440320	0.333212	0.110574
H183	H	0.773653	0.666545	0.443907
H184	H	1.021008	-0.000147	0.287587
H185	H	1.354341	0.333187	0.620921
H186	H	1.687675	0.666520	0.954254
H187	H	0.749341	-0.247301	-0.246422
H188	H	1.082674	0.086033	0.086912
H189	H	1.416007	0.419366	0.420245
F190	F	0.295559	-0.000157	0.042282
F191	F	0.628893	0.333176	0.375615
F192	F	0.962226	0.666510	0.708948
F193	F	0.529920	-0.000136	0.038529
F194	F	0.863253	0.333198	0.371862
F195	F	1.196586	0.666531	0.705196
H196	H	0.773058	-0.000099	0.111177
H197	H	1.106391	0.333235	0.444511
H198	H	1.439724	0.666568	0.777844
H199	H	0.140193	-0.000156	0.027485
H200	H	0.473526	0.333177	0.360818
H201	H	0.806859	0.666511	0.694152
H202	H	0.647522	-0.000073	-0.231399
H203	H	0.980855	0.333260	0.101934
H204	H	1.314188	0.666594	0.435268
F205	F	0.257794	-0.000103	-0.242448
F206	F	0.591127	0.333230	0.090885
F207	F	0.924460	0.666563	0.424219
F208	F	0.952037	-0.234193	-0.043848
F209	F	1.285370	0.099140	0.289485
F210	F	1.618703	0.432474	0.622818
F211	F	0.692883	-0.000121	0.035929
F212	F	1.026216	0.333213	0.369262
F213	F	1.359549	0.666546	0.702595
H214	H	0.770774	-0.000089	0.254401
H215	H	1.104107	0.333244	0.587735
H216	H	1.437441	0.666577	0.921068
H217	H	0.984714	-0.309589	-0.011162
H218	H	1.318048	0.023744	0.322171
H219	H	1.651381	0.357077	0.655505
F220	F	1.031739	-0.000142	0.697060
F221	F	1.365072	0.333192	1.030393
F222	F	1.698406	0.666525	1.363727
H223	H	0.504310	-0.000091	-0.229111
H224	H	0.837643	0.333243	0.104222
H225	H	1.170976	0.666576	0.437556
H226	H	1.058622	-0.404876	0.062696
H227	H	1.391955	-0.071543	0.396029
H228	H	1.725289	0.261790	0.729363
H229	H	0.764410	-0.000090	0.651703
H230	H	1.097744	0.333244	0.985036
H231	H	1.431077	0.666577	1.318369
F232	F	0.749617	-0.000074	0.496339
F233	F	1.082950	0.333260	0.829672
F234	F	1.416283	0.666593	1.163006
H235	H	1.077686	-0.562410	0.081763
H236	H	1.411020	-0.229077	0.415097
H237	H	1.744353	0.104257	0.748430
H238	H	1.038372	-0.752936	0.042499
H239	H	1.371705	-0.419603	0.375832
H240	H	1.705039	-0.086269	0.709165
F241	F	0.835687	-0.766057	-0.160071
F242	F	1.169021	-0.432724	0.173262
F243	F	1.502354	-0.099390	0.506596
H244	H	0.802997	-0.690648	-0.192748
H245	H	1.136331	-0.357314	0.140585
H246	H	1.469664	-0.023981	0.473918
F247	F	1.040697	-0.000168	0.136793
F248	F	1.374030	0.333165	0.470126
F249	F	1.707364	0.666499	0.803460
H250	H	0.729106	-0.595378	-0.266610
H251	H	1.062439	-0.262045	0.066724
H252	H	1.395772	0.071289	0.400057
H253	H	0.710038	-0.437837	-0.285679
H254	H	1.043371	-0.104503	0.047655
H255	H	1.376705	0.228830	0.380988
H256	H	1.016942	-0.000142	0.541684
H257	H	1.350275	0.333191	0.875018
H258	H	1.683609	0.666525	1.208351
