data_functionalizedCrystal
_audit_creation_method	'MofGen! by Chris Wilmer'
_symmetry_space_group_name_H-M	'P1'
_symmetry_Int_Tables_number	1
_symmetry_cell_setting	triclinic
loop_
_symmetry_equiv_pos_as_xyz
  x,y,z
_cell_length_a	6.817900
_cell_length_b	14.125369
_cell_length_c	14.858340
_cell_angle_alpha	95.620569
_cell_angle_beta	104.519754
_cell_angle_gamma	100.397648
loop_
_atom_site_label
_atom_site_type_symbol
_atom_site_fract_x
_atom_site_fract_y
_atom_site_fract_z
V1	V	-4.022529	-0.133726	-0.289593
V2	V	-3.689196	0.199607	0.043740
V3	V	-3.355862	0.532940	0.377074
O4	O	-4.026252	0.005795	-0.284457
O5	O	-3.692918	0.339128	0.048877
O6	O	-3.359585	0.672461	0.382210
O7	O	-3.958563	-0.264549	-0.287251
O8	O	-3.625230	0.068784	0.046083
O9	O	-3.291896	0.402117	0.379416
O10	O	-3.979360	-0.131946	-0.416060
O11	O	-3.646026	0.201387	-0.082726
O12	O	-3.312693	0.534720	0.250607
O13	O	-4.005311	-0.127726	-0.154756
O14	O	-3.671978	0.205607	0.178577
O15	O	-3.338645	0.538940	0.511911
V16	V	-4.507496	-0.117005	-0.273509
V17	V	-4.174163	0.216328	0.059824
V18	V	-3.840830	0.549662	0.393157
O19	O	-4.280620	-0.170405	-0.324874
O20	O	-3.947286	0.162928	0.008459
O21	O	-3.613953	0.496261	0.341793
O22	O	-4.699603	-0.080326	-0.238229
O23	O	-4.366270	0.253007	0.095105
O24	O	-4.032937	0.586341	0.428438
O25	O	-4.348256	0.013818	-0.275852
O26	O	-4.014923	0.347151	0.057482
O27	O	-3.681589	0.680485	0.390815
O28	O	-4.621171	-0.256526	-0.278646
O29	O	-4.287837	0.076807	0.054687
O30	O	-3.954504	0.410141	0.388021
O31	O	-4.642111	-0.123005	-0.408347
O32	O	-4.308778	0.210328	-0.075013
O33	O	-3.975444	0.543662	0.258320
O34	O	-4.327459	-0.118785	-0.147043
O35	O	-3.994126	0.214548	0.186291
O36	O	-3.660793	0.547882	0.519624
C37	C	-3.799608	-0.296433	-0.282589
C38	C	-3.466274	0.036901	0.050744
C39	C	-3.132941	0.370234	0.384078
C40	C	-3.828630	-0.403384	-0.281517
C41	C	-3.495296	-0.070051	0.051817
C42	C	-3.161963	0.263283	0.385150
C43	C	-3.826135	-0.127283	-0.446896
C44	C	-3.492802	0.206050	-0.113563
C45	C	-3.159468	0.539384	0.219770
C46	C	-3.872020	-0.126693	-0.550281
C47	C	-3.538686	0.206640	-0.216948
C48	C	-3.205353	0.539973	0.116386
C49	C	-3.909281	-0.126213	-0.634241
C50	C	-3.575948	0.207120	-0.300908
C51	C	-3.242614	0.540453	0.032426
C52	C	-3.956043	-0.125607	-0.739572
C53	C	-3.622709	0.207726	-0.406238
C54	C	-3.289376	0.541060	-0.072905
C55	C	-3.993328	-0.125124	-0.823525
C56	C	-3.659995	0.208209	-0.490191
C57	C	-3.326662	0.541543	-0.156858
C58	C	-4.040094	-0.124520	-0.928863
C59	C	-3.706761	0.208814	-0.595529
C60	C	-3.373428	0.542147	-0.262196
C61	C	-4.067532	-0.651529	-0.283517
C62	C	-3.734199	-0.318196	0.049816
C63	C	-3.400865	0.015138	0.383149
C64	C	-3.881873	-0.599203	-0.279589
C65	C	-3.548539	-0.265869	0.053745
C66	C	-3.215206	0.067464	0.387078
C67	C	-3.852249	-0.490239	-0.280662
C68	C	-3.518916	-0.156906	0.052672
C69	C	-3.185582	0.176428	0.386005
C70	C	-4.097164	-0.760502	-0.282445
C71	C	-3.763830	-0.427169	0.050889
C72	C	-3.430497	-0.093836	0.384222
C73	C	-4.170552	0.045696	-0.280511
C74	C	-3.837219	0.379029	0.052822
C75	C	-3.503886	0.712363	0.386156
C76	C	-4.120769	0.152647	-0.281589
C77	C	-3.787436	0.485980	0.051744
C78	C	-3.454102	0.819313	0.385077
C79	C	-4.144025	-0.123452	-0.116201
C80	C	-3.810692	0.209882	0.217132
C81	C	-3.477359	0.543215	0.550465
C82	C	-4.077380	-0.124036	-0.012816
C83	C	-3.744046	0.209297	0.320518
C84	C	-3.410713	0.542630	0.653851
H85	H	-3.745173	-0.636239	-0.275419
H86	H	-3.411839	-0.302905	0.057914
H87	H	-3.078506	0.030428	0.391248
H88	H	-4.204220	-0.614495	-0.287685
H89	H	-3.870887	-0.281161	0.045648
H90	H	-3.537553	0.052172	0.378981
