data_functionalizedCrystal
_audit_creation_method	'MofGen! by Chris Wilmer'
_symmetry_space_group_name_H-M	'P1'
_symmetry_Int_Tables_number	1
_symmetry_cell_setting	triclinic
loop_
_symmetry_equiv_pos_as_xyz
  x,y,z
_cell_length_a	19.805407
_cell_length_b	16.959454
_cell_length_c	19.805399
_cell_angle_alpha	89.977613
_cell_angle_beta	89.980427
_cell_angle_gamma	90.020075
loop_
_atom_site_label
_atom_site_type_symbol
_atom_site_fract_x
_atom_site_fract_y
_atom_site_fract_z
Zn1	Zn	1.034765	-0.314700	-0.382744
Zn2	Zn	1.534765	0.185300	0.117256
Zn3	Zn	1.034693	-0.446882	-0.269566
Zn4	Zn	1.534693	0.053118	0.230434
Zn5	Zn	0.921580	-0.314722	-0.269569
Zn6	Zn	1.421580	0.185278	0.230431
Zn7	Zn	0.921556	-0.446840	-0.382713
Zn8	Zn	1.421556	0.053160	0.117287
O9	O	0.978149	-0.380786	-0.326148
O10	O	1.478149	0.119214	0.173852
O11	O	1.129472	-0.332243	-0.367743
O12	O	1.629472	0.167757	0.132257
O13	O	1.019668	-0.429378	-0.174850
O14	O	1.519668	0.070622	0.325150
O15	O	0.936635	-0.204108	-0.284596
O16	O	1.436635	0.295892	0.215404
O17	O	1.129419	-0.429356	-0.284591
O18	O	1.629419	0.070644	0.215409
O19	O	1.019792	-0.204092	-0.367745
O20	O	1.519792	0.295908	0.132255
O21	O	0.936564	-0.332280	-0.174852
O22	O	1.436564	0.167720	0.325148
O23	O	0.826860	-0.332239	-0.284565
O24	O	1.326860	0.167761	0.215435
O25	O	0.936594	-0.429285	-0.477434
O26	O	1.436594	0.070715	0.022566
O27	O	0.826843	-0.429306	-0.367692
O28	O	1.326843	0.070694	0.132308
O29	O	1.019768	-0.332202	-0.477457
O30	O	1.519768	0.167798	0.022543
O31	O	1.019645	-0.557488	-0.284561
O32	O	1.519645	-0.057488	0.215439
O33	O	0.936524	-0.557457	-0.367690
O34	O	1.436524	-0.057457	0.132310
C35	C	0.802293	-0.380771	-0.326126
C36	C	1.302293	0.119229	0.173874
C37	C	0.727061	-0.380783	-0.326133
C38	C	1.227061	0.119217	0.173867
C39	C	0.978092	-0.586152	-0.326136
C40	C	1.478092	-0.086152	0.173864
C41	C	0.978130	-0.674009	-0.326154
C42	C	1.478130	-0.174009	0.173846
C43	C	0.691725	-0.431402	-0.369347
C44	C	1.191725	0.068598	0.130653
C45	C	0.621037	-0.431404	-0.369356
C46	C	1.121037	0.068596	0.130644
C47	C	0.585685	-0.380790	-0.326148
C48	C	1.085685	0.119210	0.173852
C49	C	0.621026	-0.330165	-0.282932
C50	C	1.121026	0.169835	0.217068
C51	C	0.691713	-0.330160	-0.282926
C52	C	1.191713	0.169840	0.217074
C53	C	0.335952	-0.330183	-0.282954
C54	C	0.835952	0.169817	0.217046
C55	C	0.265260	-0.330193	-0.282962
C56	C	0.765260	0.169807	0.217038
C57	C	0.265276	-0.431426	-0.369384
C58	C	0.765276	0.068574	0.130616
C59	C	0.335963	-0.431421	-0.369379
C60	C	0.835963	0.068579	0.130621
C61	C	0.371298	-0.380794	-0.326166
C62	C	0.871298	0.119206	0.173834
C63	C	0.447946	-0.380792	-0.326157
C64	C	0.947946	0.119208	0.173843
C65	C	0.509038	-0.380795	-0.326153
C66	C	1.009038	0.119205	0.173847
C67	C	0.934930	-1.045498	-0.369428
C68	C	1.434930	-0.545498	0.130572
C69	C	1.021555	-1.045470	-0.282937
C70	C	1.521555	-0.545470	0.217063
C71	C	1.021532	-0.962925	-0.282930
C72	C	1.521532	-0.462925	0.217070
C73	C	0.978206	-0.921662	-0.326173
C74	C	1.478206	-0.421662	0.173827
C75	C	0.934904	-0.962945	-0.369422
C76	C	1.434904	-0.462945	0.130578
C77	C	1.064828	-0.921635	-0.239677
C78	C	1.564828	-0.421635	0.260323
C79	C	1.064806	-0.839085	-0.239669
C80	C	1.564806	-0.339085	0.260331
C81	C	1.021483	-0.797820	-0.282915
C82	C	1.521483	-0.297820	0.217085
C83	C	0.978180	-0.839108	-0.326167
C84	C	1.478180	-0.339108	0.173833
C85	C	0.934854	-0.797845	-0.369409
C86	C	1.434854	-0.297845	0.130591
C87	C	0.891553	-0.839132	-0.412665
C88	C	1.391553	-0.339132	0.087335
C89	C	0.891581	-0.921680	-0.412669
C90	C	1.391581	-0.421680	0.087331
C91	C	1.021455	-0.715272	-0.282911
C92	C	1.521455	-0.215272	0.217089
C93	C	0.934827	-0.715292	-0.369403
C94	C	1.434827	-0.215292	0.130597
C95	C	1.154691	-0.380802	-0.326170
C96	C	1.654691	0.119198	0.173830
C97	C	1.229923	-0.380808	-0.326180
C98	C	1.729923	0.119192	0.173820
C99	C	0.978187	-0.380736	-0.502691
C100	C	1.478187	0.119264	-0.002691
C101	C	0.978203	-0.380715	-0.577923
C102	C	1.478203	0.119285	-0.077923
C103	C	0.978224	-0.174618	-0.326174
C104	C	1.478224	0.325382	0.173826
C105	C	0.978256	-0.086761	-0.326186
C106	C	1.478256	0.413239	0.173814
C107	C	1.021513	-0.330161	-0.613280
C108	C	1.521513	0.169839	-0.113280
C109	C	1.021520	-0.330138	-0.683968
C110	C	1.521520	0.169862	-0.183968
C111	C	0.978220	-0.380674	-0.719298
C112	C	1.478220	0.119326	-0.219298
C113	C	0.934905	-0.431230	-0.683936
C114	C	1.434905	0.068770	-0.183936
C115	C	0.934895	-0.431248	-0.613249
C116	C	1.434895	0.068752	-0.113249
C117	C	0.934943	-0.431156	-0.969010
C118	C	1.434943	0.068844	-0.469010
C119	C	0.934958	-0.431135	-1.039702
C120	C	1.434958	0.068865	-0.539702
C121	C	1.021568	-0.330046	-1.039729
C122	C	1.521568	0.169954	-0.539729
C123	C	1.021558	-0.330065	-0.969042
C124	C	1.521558	0.169935	-0.469042
C125	C	0.978241	-0.380617	-0.933686
C126	C	1.478241	0.119383	-0.433686
C127	C	0.978233	-0.380641	-0.857037
C128	C	1.478233	0.119359	-0.357037
C129	C	0.978230	-0.380655	-0.795946
C130	C	1.478230	0.119345	-0.295946
C131	C	0.978150	-0.380779	-0.150292
C132	C	1.478150	0.119221	0.349708
C133	C	0.978265	-0.380577	-0.075060
C134	C	1.478265	0.119423	0.424940
H135	H	0.720503	-0.472621	-0.404530
H136	H	1.220503	0.027379	0.095470
C137	C	0.156924	-0.476385	-0.407782
C138	C	0.656924	0.023615	0.092218
C139	C	0.226434	-0.487069	-0.416894
C140	C	0.726434	0.012931	0.083106
H141	H	0.132948	-0.510734	-0.437114
H142	H	0.632948	-0.010734	0.062886
H143	H	0.145319	-0.487885	-0.362295
H144	H	0.645319	0.012115	0.137705
H145	H	0.145365	-0.423290	-0.417769
H146	H	0.645365	0.076710	0.082231
H147	H	0.237995	-0.540163	-0.406901
H148	H	0.737995	-0.040163	0.093099
H149	H	0.238045	-0.475575	-0.462391
H150	H	0.738045	0.024425	0.037609
H151	H	1.100064	-0.805474	-0.204449
H152	H	1.600064	-0.305474	0.295551
C153	C	0.628152	-0.531493	-0.454762
C154	C	1.128152	-0.031493	0.045238
C155	C	0.582196	-0.487059	-0.416847
C156	C	1.082196	0.012941	0.083153
H157	H	0.604172	-0.565858	-0.484077
H158	H	1.104172	-0.065858	0.015923
H159	H	0.655738	-0.497098	-0.480708
H160	H	1.155738	0.002902	0.019292
H161	H	0.655707	-0.561668	-0.425213
H162	H	1.155707	-0.061668	0.074787
H163	H	0.554644	-0.456879	-0.446397
H164	H	1.054644	0.043121	0.053603
H165	H	0.554599	-0.521458	-0.390900
H166	H	1.054599	-0.021458	0.109100
C167	C	0.776956	-0.947166	-0.445537
C168	C	1.276956	-0.447166	0.054463
C169	C	0.843984	-0.967059	-0.460209
C170	C	1.343984	-0.467059	0.039791
H171	H	0.747573	-0.975180	-0.474889
H172	H	1.247573	-0.475180	0.025111
H173	H	0.767087	-0.960731	-0.400057
H174	H	1.267087	-0.460731	0.099943
H175	H	0.770751	-0.892097	-0.451725
H176	H	1.270751	-0.392097	0.048275
H177	H	0.850191	-1.022129	-0.454016
H178	H	1.350191	-0.522129	0.045984
H179	H	0.853856	-0.953501	-0.505700
H180	H	1.353856	-0.453501	-0.005700
C181	C	0.849318	-0.531060	-0.976093
C182	C	1.349318	-0.031060	-0.476093
C183	C	0.887322	-0.486713	-0.930152
C184	C	1.387322	0.013287	-0.430152
H185	H	0.819917	-0.565359	-0.952101
H186	H	1.319917	-0.065359	-0.452101
H187	H	0.823460	-0.496606	-1.003670
H188	H	1.323460	0.003394	-0.503670
H189	H	0.878806	-0.561302	-1.003658
H190	H	1.378806	-0.061302	-0.503658
H191	H	0.857833	-0.456466	-0.902591
H192	H	1.357833	0.043534	-0.402591
H193	H	0.913182	-0.521171	-0.902564
H194	H	1.413182	-0.021171	-0.402564
H195	H	0.236479	-0.288972	-0.247776
H196	H	0.736479	0.211028	0.252224
C197	C	1.107186	-0.230124	-1.032654
C198	C	1.607186	0.269876	-0.532654
C199	C	1.069179	-0.274470	-1.078594
C200	C	1.569179	0.225530	-0.578594
H201	H	1.136582	-0.195820	-1.056648
H202	H	1.636582	0.304180	-0.556648
H203	H	1.077704	-0.199895	-1.005083
H204	H	1.577704	0.300105	-0.505083
H205	H	1.133056	-0.264585	-1.005084
H206	H	1.633056	0.235415	-0.505084
H207	H	1.043305	-0.240010	-1.106161
H208	H	1.543305	0.259990	-0.606161
H209	H	1.098665	-0.304701	-1.106177
H210	H	1.598665	0.195299	-0.606177
H211	H	0.592237	-0.288951	-0.247754
H212	H	1.092237	0.211049	0.252246
C213	C	0.328826	-0.230116	-0.197530
C214	C	0.828826	0.269884	0.302470
C215	C	0.374786	-0.274535	-0.235454
C216	C	0.874786	0.225465	0.264546
H217	H	0.352804	-0.195763	-0.168203
H218	H	0.852804	0.304237	0.331797
H219	H	0.301274	-0.199936	-0.227068
H220	H	0.801274	0.300064	0.272932
H221	H	0.301238	-0.264527	-0.171591
H222	H	0.801238	0.235473	0.328409
H223	H	0.402371	-0.240125	-0.261398
H224	H	0.902371	0.259875	0.238602
H225	H	0.402349	-0.304718	-0.205913
H226	H	0.902349	0.195282	0.294087
H227	H	0.899549	-0.681701	-0.404619
H228	H	1.399549	-0.181701	0.095381
H229	H	1.056707	-0.681660	-0.247691
H230	H	1.556707	-0.181660	0.252309
C231	C	0.853054	-0.712597	-0.451050
C232	C	1.353054	-0.212597	0.048950
C233	C	0.843931	-0.793770	-0.460197
C234	C	1.343931	-0.293770	0.039803
H235	H	0.823657	-0.684592	-0.480397
H236	H	1.323657	-0.184592	0.019603
H237	H	0.843168	-0.699114	-0.405567
H238	H	1.343168	-0.199114	0.094433
H239	H	0.898524	-0.699033	-0.460996
H240	H	1.398524	-0.199033	0.039004
H241	H	0.798462	-0.807335	-0.450247
H242	H	1.298462	-0.307335	0.049753
H243	H	0.853812	-0.807258	-0.505691
H244	H	1.353812	-0.307258	-0.005691
H245	H	0.899678	-1.079117	-0.404647
H246	H	1.399678	-0.579117	0.095353
H247	H	1.056825	-1.079072	-0.247726
H248	H	1.556825	-0.579072	0.252274
C249	C	1.107121	-0.230228	-0.620414
C250	C	1.607121	0.269772	-0.120414
C251	C	1.069109	-0.274609	-0.574449
C252	C	1.569109	0.225391	-0.074449
H253	H	1.136501	-0.195927	-0.596441
H254	H	1.636501	0.304073	-0.096441
H255	H	1.133003	-0.264662	-0.647983
H256	H	1.633003	0.235338	-0.147983
H257	H	1.077637	-0.199988	-0.647985
H258	H	1.577637	0.300012	-0.147985
H259	H	1.098593	-0.304854	-0.546881
H260	H	1.598593	0.195146	-0.046881
H261	H	1.043225	-0.240171	-0.546868
H262	H	1.543225	0.259829	-0.046868
H263	H	0.899647	-0.472373	-0.712708
H264	H	1.399647	0.027627	-0.212708
C265	C	0.771223	-0.223814	-0.273669
C266	C	1.271223	0.276186	0.226331
C267	C	0.730554	-0.274519	-0.235422
C268	C	1.230554	0.225481	0.264578
H269	H	0.795197	-0.189458	-0.244341
H270	H	1.295197	0.310542	0.255659
H271	H	0.802391	-0.253956	-0.299394
H272	H	1.302391	0.246044	0.200606
H273	H	0.743659	-0.193631	-0.303204
H274	H	1.243659	0.306369	0.196796
H275	H	0.758119	-0.304706	-0.205891
H276	H	1.258119	0.195294	0.294109
H277	H	0.699383	-0.244374	-0.209685
H278	H	1.199383	0.255626	0.290315
C279	C	1.103230	-1.048165	-0.201191
C280	C	1.603230	-0.548165	0.298809
C281	C	1.112379	-0.966992	-0.192077
C282	C	1.612379	-0.466992	0.307923
H283	H	1.132571	-1.076167	-0.171786
H284	H	1.632571	-0.576167	0.328214
H285	H	1.057744	-1.061691	-0.191311
H286	H	1.557744	-0.561691	0.308689
H287	H	1.113182	-1.061690	-0.246658
H288	H	1.613182	-0.561690	0.253342
H289	H	1.102422	-0.953466	-0.146612
H290	H	1.602422	-0.453466	0.353388
H291	H	1.157875	-0.953461	-0.201952
H292	H	1.657875	-0.453461	0.298048
H293	H	1.056788	-0.288974	-0.712753
H294	H	1.556788	0.211026	-0.212753
C295	C	1.030972	-0.223757	-0.889574
C296	C	1.530972	0.276243	-0.389574
C297	C	1.069147	-0.274502	-0.930212
C298	C	1.569147	0.225498	-0.430212
H299	H	1.060350	-0.189453	-0.865602
H300	H	1.560350	0.310547	-0.365602
H301	H	1.001499	-0.193527	-0.917154
H302	H	1.501499	0.306473	-0.417154
H303	H	1.005185	-0.253878	-0.858398
H304	H	1.505185	0.246122	-0.358398
H305	H	1.094930	-0.244381	-0.961391
H306	H	1.594930	0.255619	-0.461391
H307	H	1.098632	-0.304735	-0.902630
H308	H	1.598632	0.195265	-0.402630
H309	H	0.899695	-0.472289	-1.068466
H310	H	1.399695	0.027711	-0.568466
C311	C	0.849301	-0.531193	-0.620318
C312	C	1.349301	-0.031193	-0.120318
C313	C	0.887299	-0.486832	-0.574382
C314	C	1.387299	0.013168	-0.074382
H315	H	0.819922	-0.565513	-0.596322
H316	H	1.319922	-0.065513	-0.096322
H317	H	0.823421	-0.496748	-0.647882
H318	H	1.323421	0.003252	-0.147882
H319	H	0.878794	-0.561412	-0.647895
H320	H	1.378794	-0.061412	-0.147895
H321	H	0.857806	-0.456608	-0.546807
H322	H	1.357806	0.043392	-0.046807
H323	H	0.913182	-0.521280	-0.546806
H324	H	1.413182	-0.021280	-0.046806
H325	H	0.364743	-0.472639	-0.404561
H326	H	0.864743	0.027361	0.095439
