data_functionalizedCrystal
_audit_creation_method	'MofGen! by Chris Wilmer'
_symmetry_space_group_name_H-M	'P1'
_symmetry_Int_Tables_number	1
_symmetry_cell_setting	triclinic
loop_
_symmetry_equiv_pos_as_xyz
  x,y,z
_cell_length_a	11.026607
_cell_length_b	10.967829
_cell_length_c	14.586319
_cell_angle_alpha	77.868327
_cell_angle_beta	89.997031
_cell_angle_gamma	96.380563
loop_
_atom_site_label
_atom_site_type_symbol
_atom_site_fract_x
_atom_site_fract_y
_atom_site_fract_z
O1	O	1.614526	0.523511	-0.158948
O2	O	1.260722	0.463899	-0.149532
O3	O	1.445783	0.313888	-0.125827
O4	O	1.429465	0.673522	-0.182653
O5	O	1.445770	0.313882	0.026654
O6	O	1.260709	0.463893	0.002950
O7	O	1.614513	0.523506	-0.006467
Cu8	Cu	1.437610	0.493699	0.012164
Cu9	Cu	1.437625	0.493706	-0.168163
O10	O	1.429452	0.673517	-0.030171
C11	C	1.215413	0.452899	-0.071554
C12	C	1.080426	0.420115	-0.066375
C13	C	1.007375	0.510636	-0.080678
C14	C	0.867858	0.476755	-0.075326
C15	C	1.444588	0.267128	-0.042200
C16	C	1.441033	0.127805	-0.020192
C17	C	1.439455	0.065700	-0.089371
C18	C	1.435780	-0.078298	-0.066626
C19	C	1.659822	0.534506	-0.084447
C20	C	1.794809	0.567290	-0.089632
C21	C	1.430647	0.720276	-0.113800
C22	C	1.434202	0.859599	-0.135815
N23	N	1.437608	0.493695	0.138997
N24	N	1.437637	0.493701	-0.294994
C25	C	1.519580	0.427305	0.384494
C26	C	1.519584	0.427303	0.480476
C27	C	1.355655	0.560094	0.459502
C28	C	1.355647	0.560088	0.363523
C29	C	1.437616	0.493697	0.326021
C30	C	1.437628	0.493700	0.517982
C31	C	1.437631	0.493698	0.622049
C32	C	1.437612	0.493696	0.221948
H33	H	0.827117	0.374166	-0.059140
O34	O	1.433972	-0.142177	0.024095
C35	C	1.326907	-0.227357	0.042459
H36	H	1.291380	-0.249996	-0.026152
H37	H	1.254586	-0.183613	0.076608
C38	C	1.399278	-0.321110	0.193343
C39	C	1.355648	-0.348923	0.109073
H40	H	1.417004	-0.396096	0.234436
H41	H	1.471408	-0.263720	0.180972
H42	H	1.339003	-0.284654	0.221788
H43	H	1.415929	-0.385364	0.080624
H44	H	1.283529	-0.406323	0.121440
O45	O	0.843448	0.689664	-0.109142
C46	C	0.916046	0.713994	-0.191950
H47	H	0.885433	0.641943	-0.235752
H48	H	1.015788	0.707500	-0.173071
C49	C	0.939566	0.935165	-0.194944
C50	C	0.901959	0.846677	-0.248745
H51	H	0.930883	1.017012	-0.229976
H52	H	0.890660	0.918774	-0.139152
H53	H	1.022682	0.929738	-0.179214
H54	H	0.818842	0.852094	-0.264463
H55	H	0.950852	0.863072	-0.304541
O56	O	1.275979	0.624697	0.306840
C57	C	1.203619	0.683280	0.360522
H58	H	1.253477	0.695927	0.426937
H59	H	1.112970	0.622348	0.380368
C60	C	1.118441	0.796965	0.221063
C61	C	1.179683	0.812508	0.302632
H62	H	1.103670	0.876676	0.185354
H63	H	1.167187	0.757493	0.184896
H64	H	1.042907	0.746184	0.237613
H65	H	1.255221	0.863275	0.286081
H66	H	1.130948	0.851992	0.338795
H67	H	1.586325	0.373239	0.528083
O68	O	1.031972	0.297687	-0.047153
C69	C	1.071102	0.237859	-0.116684
H70	H	1.159397	0.291574	-0.151499
H71	H	0.997853	0.235962	-0.171682
C72	C	0.985075	0.036539	-0.028550
C73	C	1.093526	0.102506	-0.071306
H74	H	0.998903	-0.046956	-0.000561
H75	H	0.958708	0.076845	0.018292
H76	H	0.924045	0.034970	-0.074390
H77	H	1.154549	0.104087	-0.025465
H78	H	1.119904	0.062196	-0.118140
H79	H	1.288920	0.614150	0.490045
H80	H	1.048122	0.613218	-0.096882
O81	O	1.439351	0.064259	0.070609
C82	C	1.441566	0.149966	0.130515
H83	H	1.405528	0.239862	0.092036
H84	H	1.539285	0.172619	0.152506
C85	C	1.404923	-0.018862	0.265485
C86	C	1.360652	0.091547	0.218227
H87	H	1.355017	-0.054897	0.319592
H88	H	1.403436	-0.076605	0.225126
H89	H	1.486356	0.000032	0.283802
H90	H	1.279227	0.072651	0.199900
H91	H	1.362123	0.149286	0.258585
H92	H	1.435557	-0.086973	-0.211885
H93	H	1.440819	0.119134	-0.165436
H94	H	1.586323	0.373243	0.353963
