data_functionalizedCrystal
_audit_creation_method	'MofGen! by Chris Wilmer'
_symmetry_space_group_name_H-M	'P1'
_symmetry_Int_Tables_number	1
_symmetry_cell_setting	triclinic
loop_
_symmetry_equiv_pos_as_xyz
  x,y,z
_cell_length_a	10.654562
_cell_length_b	23.532407
_cell_length_c	9.130313
_cell_angle_alpha	89.991153
_cell_angle_beta	89.995234
_cell_angle_gamma	83.669390
loop_
_atom_site_label
_atom_site_type_symbol
_atom_site_fract_x
_atom_site_fract_y
_atom_site_fract_z
O1	O	1.665292	0.080019	-0.121912
O2	O	1.299574	0.087632	-0.121896
O3	O	1.493462	0.000966	-0.121878
O4	O	1.471405	0.166685	-0.121930
O5	O	1.493454	0.000964	0.121721
O6	O	1.299567	0.087630	0.121703
O7	O	1.665285	0.080017	0.121687
Cu8	Cu	1.482425	0.083823	0.143937
Cu9	Cu	1.482434	0.083826	-0.144146
O10	O	1.471398	0.166683	0.121669
C11	C	1.252791	0.087070	-0.000094
C12	C	1.113401	0.085393	-0.000086
C13	C	1.047891	0.084610	0.132688
C14	C	0.916919	0.083039	0.132664
C15	C	0.916977	0.083037	-0.132921
C16	C	1.047949	0.084604	-0.132895
C17	C	1.047856	0.084613	0.286022
C18	C	0.916884	0.083042	0.285998
C19	C	1.492896	-0.020255	-0.000074
C20	C	1.491207	-0.083483	-0.000063
C21	C	1.595354	-0.481905	-0.000148
C22	C	1.593785	-0.541316	-0.000159
O23	O	1.690330	-0.577430	-0.000218
N24	N	1.478520	-0.564696	-0.000153
C25	C	1.364815	-0.528661	-0.000150
O26	O	1.266628	-0.554002	-0.000147
C27	C	1.366385	-0.469252	-0.000150
C28	C	1.481658	-0.445876	-0.000141
C29	C	1.710618	-0.458529	-0.000141
C30	C	1.712186	-0.399122	-0.000127
C31	C	1.598490	-0.363093	-0.000121
C32	C	1.483227	-0.386469	-0.000128
C33	C	1.252682	-0.433218	-0.000158
C34	C	1.254262	-0.373806	-0.000158
C35	C	1.369535	-0.350430	-0.000150
C36	C	1.371099	-0.291033	-0.000107
N37	N	1.486365	-0.267654	-0.000113
C38	C	1.600060	-0.303683	-0.000120
C39	C	1.361527	-0.653425	-0.000154
C40	C	1.359955	-0.712833	-0.000144
C41	C	1.588926	-0.725484	-0.000156
C42	C	1.590496	-0.666075	-0.000155
C43	C	1.476792	-0.630046	-0.000160
C44	C	1.603345	-0.178925	-0.000090
C45	C	1.604903	-0.119513	-0.000070
C46	C	1.375933	-0.106867	-0.000066
C47	C	1.374374	-0.166274	-0.000078
C48	C	1.488091	-0.202302	-0.000095
O49	O	1.274605	-0.254885	-0.000054
O50	O	1.698231	-0.278334	-0.000142
C51	C	1.712068	0.080578	-0.000119
C52	C	1.851458	0.082255	-0.000136
C53	C	1.471963	0.187904	-0.000138
C54	C	1.473652	0.251132	-0.000159
N55	N	1.482428	0.083821	0.346560
N56	N	1.482441	0.083823	-0.346769
C57	C	1.406714	0.048958	0.423251
C58	C	1.406717	0.048960	0.576588
C59	C	1.558158	0.118690	0.576529
C60	C	1.558148	0.118690	0.423195
C61	C	1.319285	0.008698	0.423286
C62	C	1.319288	0.008700	0.576622
H63	H	1.101285	0.085233	-0.241013
H64	H	1.076113	0.126145	0.333585
C65	C	1.410725	-0.087196	0.473306
C66	C	1.374470	-0.049183	0.359081
H67	H	1.444789	-0.122930	0.433664
H68	H	1.472762	-0.072019	0.531832
H69	H	1.339203	-0.092426	0.531875
H70	H	1.445994	-0.043950	0.300518
H71	H	1.312429	-0.064363	0.300530
C72	C	1.118035	-0.492685	0.125032
C73	C	1.125969	-0.458904	-0.000183
H74	H	1.039799	-0.508538	0.125014
H75	H	1.185504	-0.522649	0.125026
H76	H	1.123399	-0.469775	0.209978
H77	H	1.120614	-0.481815	-0.085129
H78	H	1.058481	-0.428936	-0.000190
H79	H	1.219786	0.022692	0.381687
C80	C	0.800971	0.039233	0.472425
C81	C	0.878690	0.026979	0.350240
H82	H	0.777384	0.004622	0.512070
H83	H	0.845431	0.058247	0.544302
H84	H	0.727379	0.063134	0.443758
H85	H	0.952288	0.003082	0.378909
H86	H	0.834230	0.007957	0.278348
H87	H	1.224134	0.026593	0.624188
H88	H	0.869349	0.122398	0.344850
C89	C	1.831079	-0.137995	-0.000094
C90	C	1.731620	-0.093819	-0.000073
H91	H	1.909304	-0.122132	-0.000108
H92	H	1.825703	-0.160909	0.084846
H93	H	1.825690	-0.160896	-0.085052
H94	H	1.737003	-0.070920	0.084891
H95	H	1.736999	-0.070896	-0.085021
H96	H	1.619804	0.147081	0.638944
C97	C	1.907827	-0.391621	-0.125375
C98	C	1.838900	-0.373433	-0.000139
H99	H	1.986055	-0.375761	-0.125388
H100	H	1.923143	-0.432155	-0.125366
H101	H	1.861033	-0.379271	-0.210307
H102	H	1.885690	-0.385786	0.084793
H103	H	1.823587	-0.332890	-0.000135
H104	H	1.351638	-0.036207	0.618252
H105	H	1.266088	-0.731860	-0.000126
H106	H	0.863670	0.082395	-0.241049
C107	C	1.734460	-0.253055	-0.125334
C108	C	1.728343	-0.218521	-0.000102
H109	H	1.811633	-0.277497	-0.125336
H110	H	1.665608	-0.275485	-0.125329
H111	H	1.730311	-0.229603	-0.210268
H112	H	1.732484	-0.241973	0.084833
H113	H	1.797215	-0.196089	-0.000093
H114	H	1.803208	-0.487859	-0.000152
C115	C	1.816660	-0.684560	-0.000177
C116	C	1.717207	-0.640383	-0.000169
H117	H	1.894888	-0.668700	-0.000198
H118	H	1.811282	-0.707470	0.084771
H119	H	1.811268	-0.707466	-0.085126
H120	H	1.722593	-0.617479	0.084787
H121	H	1.722587	-0.617464	-0.085125
C122	C	1.135039	-0.646897	-0.000119
C123	C	1.236531	-0.613824	-0.000132
H124	H	1.057875	-0.622450	-0.000097
H125	H	1.139193	-0.670324	-0.085065
H126	H	1.139210	-0.670341	0.084832
H127	H	1.232366	-0.590383	-0.085088
H128	H	1.232375	-0.590387	0.084824
H129	H	1.681503	-0.754831	-0.000167
H130	H	1.161668	-0.344473	-0.000165
C131	C	1.148205	-0.147799	-0.000081
C132	C	1.247666	-0.191973	-0.000090
H133	H	1.069981	-0.163662	-0.000111
H134	H	1.153569	-0.124904	0.084876
H135	H	1.153601	-0.124878	-0.085021
H136	H	1.242275	-0.214892	0.084856
H137	H	1.242300	-0.214877	-0.085056
H138	H	1.283365	-0.077521	-0.000055
H139	H	1.095361	0.045258	0.344917
H140	H	1.619790	0.147084	0.360759
