data_functionalizedCrystal
_audit_creation_method	'MofGen! by Chris Wilmer'
_symmetry_space_group_name_H-M	'P1'
_symmetry_Int_Tables_number	1
_symmetry_cell_setting	triclinic
loop_
_symmetry_equiv_pos_as_xyz
  x,y,z
_cell_length_a	19.288864
_cell_length_b	14.853567
_cell_length_c	18.366186
_cell_angle_alpha	89.997562
_cell_angle_beta	89.977106
_cell_angle_gamma	83.385589
loop_
_atom_site_label
_atom_site_type_symbol
_atom_site_fract_x
_atom_site_fract_y
_atom_site_fract_z
O1	O	0.921732	0.112464	-0.060777
O2	O	0.719523	0.127635	-0.060727
O3	O	0.826029	-0.011211	-0.060755
O4	O	0.815226	0.251310	-0.060748
O5	O	0.826011	-0.011217	0.060344
O6	O	0.719505	0.127629	0.060373
O7	O	0.921714	0.112457	0.060322
Zn8	Zn	0.820607	0.120042	0.079575
Zn9	Zn	0.820631	0.120051	-0.079979
O10	O	0.815208	0.251304	0.060351
C11	C	0.693636	0.127144	-0.000171
C12	C	0.616527	0.125679	-0.000152
C13	C	0.572106	0.207147	-0.000161
C14	C	0.499654	0.205770	-0.000169
C15	C	0.471627	0.122920	-0.000182
C16	C	0.516058	0.041441	-0.000169
C17	C	0.588508	0.042820	-0.000154
C18	C	0.363152	0.057794	-0.042635
C19	C	0.290702	0.056418	-0.042655
C20	C	0.248167	0.118664	-0.000227
C21	C	0.278088	0.182300	0.042212
C22	C	0.350538	0.183679	0.042228
C23	C	0.393068	0.121416	-0.000199
C24	C	0.125185	0.198645	-0.000243
C25	C	0.052732	0.197265	-0.000247
C26	C	0.069138	0.032933	-0.000254
C27	C	0.141589	0.034316	-0.000244
C28	C	0.169608	0.117174	-0.000242
C29	C	0.825530	-0.044800	-0.000208
C30	C	0.824064	-0.144875	-0.000214
C31	C	0.754596	-0.557014	-0.000182
C32	C	0.881128	-0.579015	-0.000214
C33	C	0.882507	-0.484989	-0.000219
C34	C	0.819930	-0.426971	-0.000204
C35	C	0.755974	-0.462979	-0.000185
C36	C	0.946462	-0.448973	-0.000231
C37	C	0.947844	-0.354942	-0.000235
C38	C	0.885266	-0.296923	-0.000225
C39	C	0.821307	-0.332936	-0.000207
C40	C	0.758730	-0.274918	-0.000192
C41	C	0.694770	-0.310930	-0.000179
C42	C	0.693396	-0.404960	-0.000176
C43	C	0.886641	-0.202893	-0.000228
C44	C	0.760107	-0.180883	-0.000194
C45	C	0.947601	0.112949	-0.000236
C46	C	1.024710	0.114414	-0.000259
C47	C	0.815707	0.284893	-0.000198
C48	C	0.817174	0.384968	-0.000197
N49	N	0.820595	0.120035	0.188466
N50	N	0.820647	0.120050	-0.188870
C51	C	0.867772	0.058584	0.226553
C52	C	0.867776	0.058580	0.302781
C53	C	0.820611	0.120043	0.340918
C54	C	0.773426	0.181498	0.302822
C55	C	0.773418	0.181495	0.226595
C56	C	0.811590	0.202186	0.461682
C57	C	0.811602	0.202191	0.537907
C58	C	0.820631	0.120054	0.576026
C59	C	0.829661	0.037908	0.537910
C60	C	0.829653	0.037905	0.461684
C61	C	0.820614	0.120053	0.423573
C62	C	0.867814	0.058594	0.696769
C63	C	0.867814	0.058588	0.772998
C64	C	0.773467	0.181514	0.773037
C65	C	0.773464	0.181512	0.696809
C66	C	0.820641	0.120052	0.658679
H67	H	0.147999	0.266113	-0.000231
N68	N	0.839390	-0.050686	0.420572
H69	H	0.845112	-0.102723	0.456281
H70	H	0.797187	-0.055809	0.388969
H71	H	0.243457	0.232986	0.076762
N72	N	0.636420	-0.045057	-0.000142
H73	H	0.627421	-0.081217	-0.045037
H74	H	0.686550	-0.031540	-0.000105
H75	H	0.641323	-0.434289	-0.000164
H76	H	0.709148	-0.133651	-0.000186
N77	N	0.918670	-0.007692	0.343871
H78	H	0.911517	0.001640	0.397946
H79	H	0.910596	-0.071628	0.330562
H80	H	0.493234	-0.026016	-0.000190
H81	H	0.702522	-0.586339	-0.000175
H82	H	0.735022	0.231541	0.333877
N83	N	0.948622	-0.641579	-0.000233
H84	H	0.976515	-0.630022	0.044650
H85	H	0.937991	-0.706586	-0.000255
H86	H	0.997409	-0.496218	-0.000236
H87	H	0.374897	0.235492	0.076785
H88	H	0.804254	0.269079	0.568935
H89	H	0.938716	-0.173576	-0.000234
H90	H	0.837012	-0.028975	0.568945
N91	N	0.801853	0.290782	0.420572
H92	H	0.796142	0.342819	0.456282
H93	H	0.844051	0.295900	0.388924
N94	N	0.918693	-0.007692	0.655636
H95	H	0.948577	-0.046629	0.691335
H96	H	0.892064	-0.047460	0.624023
H97	H	0.906185	0.008539	0.195510
N98	N	0.189500	-0.053559	-0.000236
H99	H	0.180502	-0.089718	-0.045132
H100	H	0.239630	-0.040045	-0.000196
H101	H	0.643820	-0.263680	-0.000162
N102	N	0.004816	0.285139	-0.000199
H103	H	0.033563	0.337834	-0.000179
H104	H	-0.025603	0.288189	-0.045079
H105	H	0.266346	0.004605	-0.077214
H106	H	0.735051	0.231554	0.665796
N107	N	1.016824	-0.316103	-0.000249
H108	H	1.056257	-0.367126	-0.000257
H109	H	1.020159	-0.277572	-0.045145
H110	H	0.906229	0.008543	0.804009
H111	H	0.046319	-0.034525	-0.000311
N112	N	0.409024	-0.009351	-0.088399
H113	H	0.395608	-0.001188	-0.141341
H114	H	0.459444	0.001211	-0.081888
N115	N	0.602327	0.296511	-0.000164
H116	H	0.563188	0.347913	-0.000173
H117	H	0.632005	0.300670	0.044734
N118	N	0.451730	0.293643	-0.000180
H119	H	0.480474	0.346341	-0.000176
H120	H	0.421342	0.296641	-0.045082
N121	N	0.722589	0.247801	0.814159
H122	H	0.729750	0.238478	0.868229
H123	H	0.730668	0.311732	0.800828
N124	N	0.722530	0.247773	0.185510
H125	H	0.692648	0.286708	0.221233
H126	H	0.749152	0.287543	0.153866
