data_functionalizedCrystal
_audit_creation_method	'MofGen! by Chris Wilmer'
_symmetry_space_group_name_H-M	'P1'
_symmetry_Int_Tables_number	1
_symmetry_cell_setting	triclinic
loop_
_symmetry_equiv_pos_as_xyz
  x,y,z
_cell_length_a	10.654556
_cell_length_b	10.967829
_cell_length_c	9.130313
_cell_angle_alpha	77.870844
_cell_angle_beta	89.999332
_cell_angle_gamma	84.601137
loop_
_atom_site_label
_atom_site_type_symbol
_atom_site_fract_x
_atom_site_fract_y
_atom_site_fract_z
O1	O	1.667803	0.175306	-0.166058
O2	O	1.302323	0.191997	-0.170270
O3	O	1.493494	0.002076	-0.122328
O4	O	1.476633	0.365227	-0.213999
O5	O	1.493491	0.002081	0.121269
O6	O	1.302321	0.192002	0.073328
O7	O	1.667801	0.175311	0.077540
Cu8	Cu	1.485061	0.183657	0.097676
Cu9	Cu	1.485063	0.183651	-0.190406
O10	O	1.476630	0.365232	0.029599
C11	C	1.255524	0.190773	-0.048161
C12	C	1.116082	0.187101	-0.047234
C13	C	1.492265	-0.044421	0.011205
C14	C	1.488594	-0.182976	0.046172
C15	C	0.919554	0.181932	-0.178727
C16	C	1.050576	0.185374	-0.179590
C17	C	1.050561	0.185373	0.085996
C18	C	0.919543	0.181921	0.086859
C19	C	0.919563	0.181938	-0.332062
C20	C	1.050584	0.185381	-0.332925
C21	C	1.486959	-0.244745	-0.064432
C22	C	1.483165	-0.387949	-0.028295
C23	C	1.714600	0.176536	-0.044572
C24	C	1.854042	0.180207	-0.045508
C25	C	1.477859	0.411730	-0.103938
C26	C	1.481530	0.550285	-0.138914
N27	N	1.485068	0.183661	0.300298
N28	N	1.485066	0.183638	-0.393025
C29	C	1.569740	0.099593	0.398171
C30	C	1.569737	0.099578	0.551512
C31	C	1.400385	0.267710	0.509090
C32	C	1.400383	0.267718	0.355754
C33	C	1.667518	0.002526	0.422663
C34	C	1.667514	0.002511	0.576004
H35	H	0.866211	0.180492	0.195345
H36	H	0.867844	0.270811	-0.402074
H37	H	1.075405	0.273498	-0.414026
Cl38	Cl	0.881247	0.045906	-0.388623
Cl39	Cl	1.483656	-0.367691	-0.326432
Cl40	Cl	1.480980	-0.469970	0.159220
Cl41	Cl	1.293919	0.373389	0.232716
H42	H	1.488362	-0.191609	-0.185876
Cl43	Cl	1.486410	-0.265002	0.233678
H44	H	1.646089	-0.093392	0.405256
Cl45	Cl	1.293929	0.373376	0.578816
H46	H	1.637015	-0.088131	0.646432
Cl47	Cl	1.132914	0.187530	0.252390
H48	H	1.102305	0.096502	-0.358069
Cl49	Cl	1.808281	0.049470	0.337374
H50	H	1.764022	0.023895	0.612222
