data_functionalizedCrystal
_audit_creation_method	'MofGen! by Chris Wilmer'
_symmetry_space_group_name_H-M	'P1'
_symmetry_Int_Tables_number	1
_symmetry_cell_setting	triclinic
loop_
_symmetry_equiv_pos_as_xyz
  x,y,z
_cell_length_a	13.262522
_cell_length_b	14.971494
_cell_length_c	14.048226
_cell_angle_alpha	89.995286
_cell_angle_beta	74.077797
_cell_angle_gamma	84.040953
loop_
_atom_site_label
_atom_site_type_symbol
_atom_site_fract_x
_atom_site_fract_y
_atom_site_fract_z
O1	O	1.392850	0.120478	-0.439747
O2	O	1.087279	0.133578	-0.360640
O3	O	1.248250	-0.003149	-0.402311
O4	O	1.231879	0.257204	-0.398077
O5	O	1.248230	-0.003157	-0.243984
O6	O	1.087259	0.133570	-0.202314
O7	O	1.392830	0.120470	-0.281421
Zn8	Zn	1.240042	0.127018	-0.216730
Zn9	Zn	1.240067	0.127029	-0.425331
O10	O	1.231859	0.257196	-0.239750
C11	C	1.048163	0.132840	-0.271353
C12	C	0.931641	0.130642	-0.241188
C13	C	0.876896	0.129606	-0.140707
C14	C	0.767419	0.127532	-0.112358
C15	C	0.712675	0.126501	-0.184486
C16	C	0.767420	0.127543	-0.284969
C17	C	0.876909	0.129610	-0.313321
C18	C	0.712689	0.126505	-0.357100
C19	C	0.767433	0.127547	-0.457583
C20	C	0.876911	0.129614	-0.485930
C21	C	0.931654	0.130646	-0.413802
C22	C	0.603200	0.124438	-0.328748
C23	C	0.603213	0.124442	-0.501362
C24	C	0.712690	0.126515	-0.529711
C25	C	1.247506	-0.036480	-0.322959
C26	C	1.245307	-0.135782	-0.322394
C27	C	1.244287	-0.182426	-0.408432
C28	C	1.242215	-0.275730	-0.407897
C29	C	1.241170	-0.322391	-0.321324
C30	C	1.242186	-0.275741	-0.235279
C31	C	1.244252	-0.182437	-0.235813
C32	C	1.237885	-0.470216	-0.234171
C33	C	1.235821	-0.563527	-0.233637
C34	C	1.235848	-0.563510	-0.406255
C35	C	1.237913	-0.470206	-0.406789
C36	C	1.238932	-0.423562	-0.320744
C37	C	1.431945	0.121208	-0.370710
C38	C	1.548467	0.123406	-0.400881
C39	C	1.232603	0.290527	-0.319104
C40	C	1.234801	0.389830	-0.319675
N41	N	1.240032	0.127010	-0.074366
N42	N	1.240085	0.127030	-0.567697
C43	C	1.311332	0.066493	-0.043006
C44	C	1.311339	0.066493	0.056650
C45	C	1.240050	0.127015	0.124942
C46	C	1.168742	0.187535	0.093577
C47	C	1.168731	0.187530	-0.006076
C48	C	1.168773	0.187541	0.301283
C49	C	1.168785	0.187547	0.400943
C50	C	1.311381	0.066504	0.364009
C51	C	1.311370	0.066499	0.264357
C52	C	1.240063	0.127021	0.232998
H53	H	0.921479	0.130438	-0.081992
H54	H	1.369423	0.017222	0.208750
H55	H	1.369441	0.017225	0.389547
H56	H	1.238691	-0.432240	-0.164098
Br57	Br	1.408095	-0.015642	-0.135681
H58	H	0.558641	0.123603	-0.560095
H59	H	1.369397	0.017214	0.082182
Br60	Br	0.564096	0.123693	-0.146011
Br61	Br	1.071992	0.269675	0.258729
H62	H	1.110670	0.236808	-0.031607
Br63	Br	1.072031	0.269688	0.493619
Br64	Br	1.071982	0.269668	0.186258
Br65	Br	0.693128	0.126130	0.024005
H66	H	0.921483	0.130451	-0.567750
H67	H	1.020799	0.132337	-0.436879
Br68	Br	0.786999	0.127928	-0.666077
H69	H	1.241389	-0.313704	-0.477959
Br70	Br	1.239345	-0.406882	-0.524285
Br71	Br	1.245717	-0.119110	-0.525933
Br72	Br	1.234460	-0.626809	-0.523030
Br73	Br	1.240751	-0.339064	-0.117781
Br74	Br	1.234408	-0.626853	-0.116146
H75	H	1.245067	-0.144460	-0.165748
H76	H	0.558636	0.123596	-0.246934
