data_functionalizedCrystal
_audit_creation_method	'MofGen! by Chris Wilmer'
_symmetry_space_group_name_H-M	'P1'
_symmetry_Int_Tables_number	1
_symmetry_cell_setting	triclinic
loop_
_symmetry_equiv_pos_as_xyz
  x,y,z
_cell_length_a	19.077105
_cell_length_b	12.645330
_cell_length_c	19.076919
_cell_angle_alpha	92.276250
_cell_angle_beta	90.076224
_cell_angle_gamma	87.714233
loop_
_atom_site_label
_atom_site_type_symbol
_atom_site_fract_x
_atom_site_fract_y
_atom_site_fract_z
Zn1	Zn	1.058309	-0.512860	-0.440444
Zn2	Zn	1.558309	-0.012860	0.059556
Zn3	Zn	1.062962	-0.683311	-0.322946
Zn4	Zn	1.562962	-0.183311	0.177054
Zn5	Zn	0.945526	-0.498659	-0.318237
Zn6	Zn	1.445526	0.001341	0.181763
Zn7	Zn	0.940784	-0.682672	-0.435699
Zn8	Zn	1.440784	-0.182672	0.064301
O9	O	1.001896	-0.594376	-0.379332
O10	O	1.501896	-0.094376	0.120668
O11	O	1.157259	-0.541682	-0.428815
O12	O	1.657259	-0.041682	0.071185
O13	O	1.051316	-0.653141	-0.223990
O14	O	1.551316	-0.153141	0.276010
O15	O	0.960524	-0.352199	-0.334463
O16	O	1.460524	0.147801	0.165537
O17	O	1.160677	-0.666911	-0.342490
O18	O	1.660677	-0.166911	0.157510
O19	O	1.043386	-0.362632	-0.424248
O20	O	1.543386	0.137368	0.075752
O21	O	0.965036	-0.517478	-0.220530
O22	O	1.465036	-0.017478	0.279470
O23	O	0.846565	-0.516858	-0.329862
O24	O	1.346565	-0.016858	0.170138
O25	O	0.952442	-0.665822	-0.534660
O26	O	1.452442	-0.165822	-0.034660
O27	O	0.843081	-0.652051	-0.416161
O28	O	1.343081	-0.152051	0.083839
O29	O	1.038788	-0.541062	-0.538146
O30	O	1.538788	-0.041062	-0.038146
O31	O	1.046718	-0.831570	-0.337888
O32	O	1.546718	-0.331570	0.162112
O33	O	0.956954	-0.831101	-0.420727
O34	O	1.456954	-0.331101	0.079273
C35	C	0.819326	-0.582845	-0.371986
C36	C	1.319326	-0.082845	0.128014
C37	C	0.741222	-0.577939	-0.368860
C38	C	1.241222	-0.077939	0.131140
C39	C	1.001845	-0.869801	-0.379320
C40	C	1.501845	-0.369801	0.120680
C41	C	1.001886	-0.987635	-0.379341
C42	C	1.501886	-0.487635	0.120659
C43	C	0.702735	-0.646120	-0.412251
C44	C	1.202735	-0.146120	0.087749
C45	C	0.629348	-0.641496	-0.409318
C46	C	1.129348	-0.141496	0.090682
C47	C	0.594448	-0.568695	-0.362988
C48	C	1.094448	-0.068695	0.137012
C49	C	0.632940	-0.500507	-0.319594
C50	C	1.132940	-0.000507	0.180406
C51	C	0.706326	-0.505126	-0.322532
C52	C	1.206326	-0.005126	0.177468
C53	C	0.375159	-0.547316	-0.349394
C54	C	0.875159	-0.047316	0.150606
C55	C	0.301768	-0.542704	-0.346458
C56	C	0.801768	-0.042704	0.153542
C57	C	0.298181	-0.683692	-0.436183
C58	C	0.798181	-0.183692	0.063817
C59	C	0.371569	-0.688309	-0.439113
C60	C	0.871569	-0.188309	0.060887
C61	C	0.410054	-0.620117	-0.395722
C62	C	0.910054	-0.120117	0.104278
N63	N	0.519434	-0.563970	-0.359986
N64	N	1.019434	-0.063970	0.140014
N65	N	0.485066	-0.624839	-0.398728
N66	N	0.985066	-0.124839	0.101272
C67	C	0.945633	-1.154972	-0.431631
C68	C	1.445633	-0.654972	0.068369
C69	C	0.945363	-1.032385	-0.431445
C70	C	1.445363	-0.532385	0.068555
C71	C	0.984820	-1.026659	-0.304483
C72	C	1.484820	-0.526659	0.195517
C73	C	0.984477	-1.149256	-0.304800
C74	C	1.484477	-0.649256	0.195200
C75	C	1.075561	-1.160522	-0.401321
C76	C	1.575561	-0.660522	0.098679
C77	C	1.075039	-1.037980	-0.402922
C78	C	1.575039	-0.537980	0.097078
C79	C	1.185178	-0.605952	-0.386707
C80	C	1.685178	-0.105952	0.113293
C81	C	1.263281	-0.610885	-0.389850
C82	C	1.763281	-0.110885	0.110150
C83	C	0.994567	-0.604955	-0.562612
C84	C	1.494567	-0.104955	-0.062612
C85	C	0.991444	-0.609463	-0.640716
C86	C	1.491444	-0.109463	-0.140716
C87	C	1.001965	-0.317876	-0.379360
C88	C	1.501965	0.182124	0.120640
C89	C	1.001995	-0.200049	-0.379372
C90	C	1.501995	0.299951	0.120628
C91	C	1.034930	-0.546628	-0.679225
C92	C	1.534930	-0.046628	-0.179225
C93	C	1.031987	-0.550859	-0.752611
C94	C	1.531987	-0.050859	-0.252611
C95	C	0.985561	-0.617932	-0.787487
C96	C	1.485561	-0.117932	-0.287487
C97	C	0.942070	-0.680769	-0.748972
C98	C	1.442070	-0.180769	-0.248972
C99	C	0.945010	-0.676531	-0.675587
C100	C	1.445010	-0.176531	-0.175587
C101	C	0.971944	-0.637565	-1.006769
C102	C	1.471944	-0.137565	-0.506769
C103	C	0.969009	-0.641800	-1.080159
C104	C	1.469009	-0.141800	-0.580159
C105	C	1.058925	-0.511889	-1.083793
C106	C	1.558925	-0.011889	-0.583793
C107	C	1.061864	-0.507662	-1.010407
C108	C	1.561864	-0.007662	-0.510407
C109	C	1.018371	-0.570495	-0.971898
C110	C	1.518371	-0.070495	-0.471898
N111	N	0.982553	-0.622261	-0.862499
N112	N	1.482553	-0.122261	-0.362499
N113	N	1.021376	-0.566159	-0.896887
N114	N	1.521376	-0.066159	-0.396887
C115	C	1.009236	-0.583764	-0.196766
C116	C	1.509236	-0.083764	0.303234
C117	C	1.012495	-0.578966	-0.118668
C118	C	1.512495	-0.078966	0.381332
H119	H	0.598015	-0.697017	-0.444651
H120	H	1.098015	-0.197017	0.055349
N121	N	0.877567	-1.188511	-0.413311
N122	N	1.377567	-0.688511	0.086689
N123	N	0.870386	-1.245467	-0.361934
N124	N	1.370386	-0.745467	0.138066
H125	H	0.822315	-1.269158	-0.348993
H126	H	1.322315	-0.769158	0.151007
N127	N	1.095816	-1.204507	-0.468841
N128	N	1.595816	-0.704507	0.031159
N129	N	1.106806	-1.144767	-0.517970
N130	N	1.606806	-0.644767	-0.017970
H131	H	1.121103	-1.175831	-0.565658
H132	H	1.621103	-0.675831	-0.065658
H133	H	0.890765	-0.998945	-0.416668
H134	H	1.390765	-0.498945	0.083332
N135	N	0.927515	-0.701731	-0.967433
N136	N	1.427515	-0.201731	-0.467433
N137	N	0.884383	-0.659233	-0.924691
N138	N	1.384383	-0.159233	-0.424691
H139	H	0.853000	-0.704551	-0.896908
H140	H	1.353000	-0.204551	-0.396908
H141	H	0.604518	-0.441227	-0.281874
H142	H	1.104518	0.058773	0.218126
H143	H	0.955696	-1.006214	-0.486858
H144	H	1.455696	-0.506214	0.013142
H145	H	0.930788	-1.173588	-0.286552
H146	H	1.430788	-0.673588	0.213448
H147	H	0.955843	-1.188371	-0.487220
H148	H	1.455843	-0.688371	0.012780
N149	N	1.033928	-1.186376	-0.254071
N150	N	1.533928	-0.686376	0.245929
N151	N	1.068581	-1.121735	-0.218543
N152	N	1.568581	-0.621735	0.281457
H153	H	1.103499	-1.147944	-0.182708
H154	H	1.603499	-0.647944	0.317292
H155	H	1.099671	-0.453047	-0.982016
H156	H	1.599671	0.046953	-0.482016
N157	N	0.921569	-0.710280	-1.115797
N158	N	1.421569	-0.210280	-0.615797
N159	N	0.875177	-0.672481	-1.154948
N160	N	1.375177	-0.172481	-0.654948
H161	H	0.841673	-0.720835	-1.180123
H162	H	1.341673	-0.220835	-0.680123
H163	H	0.399979	-0.747594	-0.476839
H164	H	0.899979	-0.247594	0.023161
H165	H	0.737661	-0.449601	-0.287201
H166	H	1.237661	0.050399	0.212799
H167	H	0.904267	-0.735377	-0.777373
H168	H	1.404267	-0.235377	-0.277373
N169	N	1.034848	-0.990043	-0.254140
N170	N	1.534848	-0.490043	0.245860
N171	N	1.042044	-0.892915	-0.243453
N172	N	1.542044	-0.392915	0.256547
H173	H	1.077378	-0.867051	-0.207901
H174	H	1.577378	-0.367051	0.292099
H175	H	0.406485	-0.491797	-0.314057
H176	H	0.906485	0.008203	0.185943
N177	N	1.091247	-1.006579	-0.472053
N178	N	1.591247	-0.506579	0.027947
N179	N	1.049117	-0.947342	-0.503876
N180	N	1.549117	-0.447342	-0.003876
H181	H	1.060561	-0.925160	-0.552701
H182	H	1.560561	-0.425160	-0.052701
N183	N	0.900581	-0.740715	-0.636259
N184	N	1.400581	-0.240715	-0.136259
N185	N	0.859130	-0.800595	-0.667404
N186	N	1.359130	-0.300595	-0.167404
H187	H	0.827747	-0.845923	-0.639629
H188	H	1.327747	-0.345923	-0.139629
N189	N	1.076408	-0.486691	-0.791958
N190	N	1.576408	0.013309	-0.291958
N191	N	1.073777	-0.490479	-0.857479
N192	N	1.573777	0.009521	-0.357479
H193	H	1.105151	-0.445157	-0.885269
H194	H	1.605151	0.054843	-0.385269
H195	H	0.931710	-0.991707	-0.285967
H196	H	1.431710	-0.491707	0.214033
H197	H	0.731145	-0.705405	-0.449976
H198	H	1.231145	-0.205405	0.050024
H199	H	0.266839	-0.739209	-0.471510
H200	H	0.766839	-0.239209	0.028490
H201	H	1.072737	-0.492014	-0.650835
H202	H	1.572737	0.007986	-0.150835
N203	N	0.266128	-0.468330	-0.299126
N204	N	0.766128	0.031670	0.200874
N205	N	0.300497	-0.407450	-0.260389
N206	N	0.800497	0.092550	0.239611
H207	H	0.275327	-0.354925	-0.226962
H208	H	0.775327	0.145075	0.273038
H209	H	1.119004	-1.007870	-0.367868
H210	H	1.619004	-0.507870	0.132132
H211	H	1.094334	-0.460732	-1.115154
H212	H	1.594334	0.039268	-0.615154
H213	H	1.117515	-1.189748	-0.363295
H214	H	1.617515	-0.689748	0.136705
