data_functionalizedCrystal
_audit_creation_method	'MofGen! by Chris Wilmer'
_symmetry_space_group_name_H-M	'P1'
_symmetry_Int_Tables_number	1
_symmetry_cell_setting	triclinic
loop_
_symmetry_equiv_pos_as_xyz
  x,y,z
_cell_length_a	12.759401
_cell_length_b	19.121063
_cell_length_c	19.120915
_cell_angle_alpha	94.738654
_cell_angle_beta	92.426716
_cell_angle_gamma	92.470439
loop_
_atom_site_label
_atom_site_type_symbol
_atom_site_fract_x
_atom_site_fract_y
_atom_site_fract_z
Zn1	Zn	1.560981	-0.297061	-0.409735
Zn2	Zn	1.560857	-0.409714	-0.297086
Zn3	Zn	1.393131	-0.292071	-0.292092
Zn4	Zn	1.377407	-0.414691	-0.414710
O5	O	1.473094	-0.353384	-0.353406
O6	O	1.707984	-0.312010	-0.394800
O7	O	1.545136	-0.389936	-0.197964
O8	O	1.422028	-0.194270	-0.303525
O9	O	1.707893	-0.394775	-0.312037
O10	O	1.545347	-0.197936	-0.389957
O11	O	1.421908	-0.303505	-0.194294
O12	O	1.244025	-0.308331	-0.308350
O13	O	1.395230	-0.403259	-0.512510
O14	O	1.232473	-0.398420	-0.398437
O15	O	1.530101	-0.316836	-0.508855
O16	O	1.529889	-0.508837	-0.316862
O17	O	1.395110	-0.512494	-0.403279
C18	C	1.200128	-0.353375	-0.353392
C19	C	1.083350	-0.353389	-0.353403
C20	C	1.022500	-0.400363	-0.400243
C21	C	0.912775	-0.400367	-0.400257
C22	C	0.924759	-0.306418	-0.306584
C23	C	1.034482	-0.306412	-0.306574
C24	C	0.755653	-0.429159	-0.484282
C25	C	0.694800	-0.476144	-0.531117
C26	C	0.725092	-0.545268	-0.544718
C27	C	0.816237	-0.567420	-0.511475
C28	C	0.877085	-0.520438	-0.464635
C29	C	0.846793	-0.451305	-0.451047
C30	C	1.191606	-0.277627	-0.222549
C31	C	1.252456	-0.230648	-0.175705
C32	C	1.222165	-0.161523	-0.162096
C33	C	1.131018	-0.139373	-0.195327
C34	C	1.070168	-0.186352	-0.242171
C35	C	1.100466	-0.255476	-0.255781
C36	C	1.460807	-0.536196	-0.361168
C37	C	1.455646	-0.614405	-0.364512
C38	C	1.523443	-0.649221	-0.321127
C39	C	1.518595	-0.722707	-0.324276
C40	C	1.445943	-0.761374	-0.370807
C41	C	1.378143	-0.726553	-0.414197
C42	C	1.382997	-0.653069	-0.411051
C43	C	1.427777	-0.983346	-0.382559
C44	C	1.422926	-1.056835	-0.385700
C45	C	1.563380	-1.052984	-0.295780
C46	C	1.568224	-0.979499	-0.292635
C47	C	1.500427	-0.944683	-0.336027
C48	C	1.440983	-0.836489	-0.374026
C49	C	1.505393	-0.869571	-0.332812
C50	C	1.747125	-0.353394	-0.353421
C51	C	1.863901	-0.353398	-0.353427
C52	C	1.460925	-0.361160	-0.536926
C53	C	1.455740	-0.364473	-0.615132
C54	C	1.485456	-0.169859	-0.345629
C55	C	1.490723	-0.091652	-0.342315
C56	C	1.422896	-0.385509	-1.057543
C57	C	1.427765	-0.382386	-0.984061
C58	C	1.500425	-0.335832	-0.945420
C59	C	1.568212	-0.292395	-0.980265
C60	C	1.563338	-0.295515	-1.053746
C61	C	1.518652	-0.324156	-0.723458
C62	C	1.523524	-0.321040	-0.649972
C63	C	1.383075	-0.411031	-0.653773
C64	C	1.378211	-0.414150	-0.727255
C65	C	1.445995	-0.370710	-0.762094
C66	C	1.505406	-0.332640	-0.870309
C67	C	1.441008	-0.373899	-0.837204
C68	C	1.485279	-0.345588	-0.170597
C69	C	1.490681	-0.342077	-0.092384
H70	H	0.951292	-0.538474	-0.437569
H71	H	1.326672	-0.248689	-0.148647
H72	H	1.271715	-0.123275	-0.123946
C73	C	1.076256	-0.452030	-0.451759
C74	C	1.149996	-0.505927	-0.423519
C75	C	1.203749	-0.557593	-0.475038
C76	C	1.183762	-0.555362	-0.554796
C77	C	1.110019	-0.501463	-0.583040
C78	C	1.056266	-0.449797	-0.531521
H79	H	1.164795	-0.507580	-0.364474
H80	H	1.258339	-0.597493	-0.454130
H81	H	1.223553	-0.593609	-0.592934
H82	H	1.095220	-0.499810	-0.642085
H83	H	1.001676	-0.409897	-0.552429
C84	C	0.722334	-0.353118	-0.469327
C85	C	0.622077	-0.328760	-0.505885
C86	C	0.588752	-0.252718	-0.490929
C87	C	0.655684	-0.201034	-0.439414
C88	C	0.755947	-0.225391	-0.402853
C89	C	0.789272	-0.301433	-0.417809
H90	H	0.572525	-0.367020	-0.544022
H91	H	0.514531	-0.234687	-0.517994
H92	H	0.631015	-0.144743	-0.428343
H93	H	0.805500	-0.187130	-0.364715
H94	H	0.863494	-0.319463	-0.390743
H95	H	1.381844	-0.411799	-0.868668
H96	H	1.582692	-0.283127	-0.618512
H97	H	1.618578	-1.081339	-0.260454
H98	H	0.840887	-0.623710	-0.522548
C99	C	1.637905	-0.247741	-1.092074
C100	C	1.717833	-0.196534	-1.049574
C101	C	1.792399	-0.148756	-1.087901
C102	C	1.787038	-0.152184	-1.168727
C103	C	1.707107	-0.203393	-1.211231
C104	C	1.632540	-0.251171	-1.172905
H105	H	1.721805	-0.193995	-0.989737
H106	H	1.851570	-0.110848	-1.056436
H107	H	1.842236	-0.116816	-1.197099
H108	H	1.703135	-0.205932	-1.271068
H109	H	1.573370	-0.289079	-1.204370
H110	H	1.372579	-0.417761	-0.955697
H111	H	0.675538	-0.583524	-0.582853
H112	H	1.363776	-1.088317	-0.423604
H113	H	1.106344	-0.083089	-0.184236
H114	H	0.620590	-0.458102	-0.558184
C115	C	1.361059	-0.879022	-0.425206
C116	C	1.364894	-0.872270	-0.504764
C117	C	1.284972	-0.914805	-0.555946
C118	C	1.201214	-0.964091	-0.527569
C119	C	1.197376	-0.970845	-0.448007
C120	C	1.277298	-0.928310	-0.396825
H121	H	1.426899	-0.835784	-0.525773
H122	H	1.287814	-0.909805	-0.614843
H123	H	1.142051	-0.995577	-0.565457
H124	H	1.135371	-1.007331	-0.426998
H125	H	1.274456	-0.933310	-0.337928
H126	H	1.363733	-0.423421	-1.089000
H127	H	1.564568	-0.294738	-0.838839
H128	H	1.216283	-0.333913	-0.233632
C129	C	1.603362	-0.606690	-0.269942
C130	C	1.599525	-0.613447	-0.190384
C131	C	1.679449	-0.570917	-0.139200
C132	C	1.763211	-0.521632	-0.167572
C133	C	1.767052	-0.514873	-0.247134
C134	C	1.687127	-0.557402	-0.298318
H135	H	1.537517	-0.649933	-0.169378
H136	H	1.676605	-0.575921	-0.080303
H137	H	1.822375	-0.490149	-0.129682
H138	H	1.829060	-0.478387	-0.268140
H139	H	1.689971	-0.552399	-0.357215
H140	H	1.327790	-0.624722	-0.446380
C141	C	1.593179	-0.761001	-0.276552
C142	C	1.590672	-0.747550	-0.196129
C143	C	1.665266	-0.785841	-0.148405
C144	C	1.742368	-0.837585	-0.181103
C145	C	1.744878	-0.851039	-0.261530
C146	C	1.670284	-0.812747	-0.309254
H147	H	1.533594	-0.709244	-0.171921
H148	H	1.663407	-0.775881	-0.088868
H149	H	1.797587	-0.865931	-0.145775
H150	H	1.801957	-0.889345	-0.285739
H151	H	1.672143	-0.822707	-0.368792
C152	C	1.593219	-0.276374	-0.761771
C153	C	1.712937	-0.281696	-0.751916
C154	C	1.787508	-0.233910	-0.790231
C155	C	1.742361	-0.180802	-0.838401
C156	C	1.622638	-0.175478	-0.848259
C157	C	1.548067	-0.223264	-0.809944
H158	H	1.746362	-0.321011	-0.716255
H159	H	1.876135	-0.237851	-0.782933
H160	H	1.797564	-0.145428	-0.866764
H161	H	1.589212	-0.136163	-0.883919
H162	H	1.459439	-0.219323	-0.817242
C163	C	1.298228	-0.769086	-0.465383
C164	C	1.214462	-0.818370	-0.437012
C165	C	1.134544	-0.860902	-0.488199
C166	C	1.138392	-0.854152	-0.567756
C167	C	1.222162	-0.804866	-0.596131
C168	C	1.302079	-0.762333	-0.544945
H169	H	1.211610	-0.823369	-0.378115
H170	H	1.072532	-0.897387	-0.467193
H171	H	1.079232	-0.885637	-0.605648
H172	H	1.225013	-0.799867	-0.655028
H173	H	1.364091	-0.725849	-0.565950
H174	H	1.564550	-0.838086	-0.294929
H175	H	1.319045	-0.452059	-0.758712
H176	H	0.884957	-0.268173	-0.268457
H177	H	0.995956	-0.168310	-0.269234
H178	H	1.627382	-0.948017	-0.254746
H179	H	1.372573	-0.955005	-0.417889
H180	H	1.327889	-0.446396	-0.625399
H181	H	1.627369	-0.254487	-0.948798
