data_functionalizedCrystal
_audit_creation_method	'MofGen! by Chris Wilmer'
_symmetry_space_group_name_H-M	'P1'
_symmetry_Int_Tables_number	1
_symmetry_cell_setting	triclinic
loop_
_symmetry_equiv_pos_as_xyz
  x,y,z
_cell_length_a	13.032831
_cell_length_b	13.897447
_cell_length_c	13.032268
_cell_angle_alpha	97.149071
_cell_angle_beta	90.886977
_cell_angle_gamma	82.824382
loop_
_atom_site_label
_atom_site_type_symbol
_atom_site_fract_x
_atom_site_fract_y
_atom_site_fract_z
Zn1	Zn	1.498459	-0.651421	-0.780831
Zn2	Zn	1.520196	-0.795136	-0.608850
Zn3	Zn	1.348318	-0.611126	-0.587072
Zn4	Zn	1.326445	-0.789920	-0.758975
O5	O	1.423354	-0.711901	-0.683932
O6	O	1.645262	-0.689531	-0.776278
O7	O	1.515648	-0.756045	-0.462045
O8	O	1.368292	-0.481500	-0.612807
O9	O	1.661233	-0.795118	-0.649925
O10	O	1.478599	-0.511105	-0.755161
O11	O	1.389370	-0.620854	-0.446044
O12	O	1.201497	-0.615797	-0.591615
O13	O	1.331011	-0.786229	-0.905791
O14	O	1.185426	-0.747157	-0.717911
O15	O	1.457389	-0.684474	-0.921848
O16	O	1.494438	-0.929415	-0.628732
O17	O	1.352089	-0.925583	-0.739028
C18	C	1.156144	-0.676539	-0.650029
C19	C	1.041828	-0.661437	-0.635549
C20	C	0.982950	-0.719783	-0.691489
C21	C	0.864797	-0.704175	-0.676525
C22	C	1.423274	-0.962502	-0.683898
C23	C	1.423329	-1.069726	-0.683929
C24	C	1.423376	-1.156804	-0.683959
C25	C	1.423445	-1.266049	-0.683995
C26	C	1.691608	-0.747401	-0.717969
C27	C	1.805921	-0.762529	-0.732473
C28	C	1.389335	-0.739265	-0.952179
C29	C	1.374838	-0.750926	-1.066490
C30	C	1.423460	-0.460327	-0.683993
C31	C	1.423506	-0.353122	-0.684019
C32	C	1.430904	-0.705778	-1.125398
C33	C	1.415923	-0.717829	-1.243545
C34	C	1.457300	-0.684581	-0.416736
C35	C	1.471996	-0.672675	-0.302451
H36	H	0.842979	-0.824035	-0.791454
N37	N	1.300689	-0.810590	-1.112939
N38	N	1.227619	-0.774044	-1.164593
H39	H	1.175246	-0.816181	-1.197397
H40	H	1.020014	-0.781286	-0.750463
H41	H	0.827737	-0.642661	-0.617555
H42	H	1.531087	-0.625091	-1.265423
N43	N	0.995324	-0.584272	-0.561582
N44	N	0.899410	-0.571700	-0.549535
H45	H	0.866568	-0.517199	-0.497296
N46	N	1.505025	-0.646090	-1.078933
N47	N	1.517087	-0.636381	-0.983024
H48	H	1.569436	-0.594224	-0.950208
H49	H	1.356820	-0.765399	-1.280573
