data_functionalizedCrystal
_audit_creation_method	'MofGen! by Chris Wilmer'
_symmetry_space_group_name_H-M	'P1'
_symmetry_Int_Tables_number	1
_symmetry_cell_setting	triclinic
loop_
_symmetry_equiv_pos_as_xyz
  x,y,z
_cell_length_a	10.489763
_cell_length_b	14.421503
_cell_length_c	10.489716
_cell_angle_alpha	89.991626
_cell_angle_beta	95.461252
_cell_angle_gamma	89.994189
loop_
_atom_site_label
_atom_site_type_symbol
_atom_site_fract_x
_atom_site_fract_y
_atom_site_fract_z
O1	O	-1.694029	0.077062	0.180089
O2	O	-1.322835	0.077072	0.196952
O3	O	-1.516895	0.077070	0.002921
O4	O	-1.499969	0.077064	0.374120
O5	O	-1.516863	-0.077153	0.002950
O6	O	-1.322803	-0.077151	0.196981
O7	O	-1.693997	-0.077161	0.180118
Cu8	Cu	-1.508397	-0.091238	0.188552
Cu9	Cu	-1.508435	0.091149	0.188518
O10	O	-1.499937	-0.077159	0.374148
C11	C	-1.275288	-0.000038	0.195687
C12	C	-1.133660	-0.000034	0.191858
C13	C	-1.065532	-0.000042	0.068386
C14	C	-0.973417	0.075995	0.126689
C15	C	-0.973419	-0.076057	0.126747
C16	C	-1.043411	0.076065	0.250211
C17	C	-1.043422	-0.076055	0.250252
C18	C	-0.951335	-0.000001	0.308644
N19	N	-1.508379	-0.219519	0.188575
C20	C	-1.418630	-0.469172	0.278254
C21	C	-1.534117	-0.530979	0.304081
C22	C	-1.508410	-0.408681	0.188545
C23	C	-1.392953	-0.530968	0.162748
C24	C	-1.508430	-0.591402	0.188519
C25	C	-1.623956	-0.469126	0.214429
C26	C	-1.482716	-0.469111	0.073046
C27	C	-1.598286	-0.530889	0.098825
C28	C	-1.508397	-0.303420	0.188563
C29	C	-1.508456	-0.696661	0.188499
C30	C	-0.741546	-0.000051	0.181363
C31	C	-0.883181	-0.000057	0.185131
C32	C	-1.515607	-0.000039	-0.044597
C33	C	-1.511802	-0.000030	-0.186228
N34	N	-1.508463	0.219430	0.188484
C35	C	-1.630806	-0.000042	-0.283892
C36	C	-1.567937	0.075998	-0.361272
C37	C	-1.567878	-0.076054	-0.361208
C38	C	-1.448984	0.076072	-0.261742
C39	C	-1.448942	-0.076048	-0.261673
C40	C	-1.385986	0.000010	-0.339004
C41	C	-1.501225	-0.000048	0.421666
C42	C	-1.505030	-0.000051	0.563297
H43	H	-0.942421	0.140281	0.074433
H44	H	-1.074450	-0.140345	0.302465
H45	H	-0.942432	-0.140341	0.074493
H46	H	-1.295305	-0.558135	0.140942
C47	C	-1.770644	0.000058	-0.250538
N48	N	-1.875967	0.000137	-0.225414
H49	H	-1.555868	-0.558153	0.401744
H50	H	-1.398788	0.140429	-0.218455
H51	H	-1.721626	-0.442076	0.236354
H52	H	-1.342784	-0.442074	0.354180
H53	H	-1.674302	-0.557818	0.022946
H54	H	-1.460929	-0.441914	-0.024586
C55	C	-1.635824	0.162839	-0.420055
N56	N	-1.686965	0.228243	-0.464331
H57	H	-1.074247	0.140422	0.302402
C58	C	-1.246042	0.000068	-0.372026
N59	N	-1.140637	0.000116	-0.396901
C60	C	-1.635755	-0.162905	-0.419901
N61	N	-1.686888	-0.228319	-0.464104
H62	H	-0.901902	0.000039	0.410245
H63	H	-1.115230	0.000056	-0.033106
C64	C	-1.381111	-0.162899	-0.202878
N65	N	-1.330026	-0.228323	-0.158597
