data_functionalizedCrystal
_audit_creation_method	'MofGen! by Chris Wilmer'
_symmetry_space_group_name_H-M	'P1'
_symmetry_Int_Tables_number	1
_symmetry_cell_setting	triclinic
loop_
_symmetry_equiv_pos_as_xyz
  x,y,z
_cell_length_a	13.897448
_cell_length_b	12.759395
_cell_length_c	12.759387
_cell_angle_alpha	90.020509
_cell_angle_beta	89.967288
_cell_angle_gamma	89.980771
loop_
_atom_site_label
_atom_site_type_symbol
_atom_site_fract_x
_atom_site_fract_y
_atom_site_fract_z
Zn1	Zn	-0.383924	-1.606247	-0.593991
Zn2	Zn	-0.545252	-1.606128	-0.418306
Zn3	Zn	-0.383977	-1.430545	-0.418328
Zn4	Zn	-0.545184	-1.430528	-0.593945
O5	O	-0.464584	-1.518362	-0.506142
O6	O	-0.405332	-1.753252	-0.570696
O7	O	-0.523909	-1.582794	-0.271287
O8	O	-0.248988	-1.453909	-0.441659
O9	O	-0.523858	-1.753165	-0.441621
O10	O	-0.248950	-1.582996	-0.570718
O11	O	-0.405421	-1.453794	-0.271304
O12	O	-0.405355	-1.283522	-0.441614
O13	O	-0.523741	-1.453880	-0.740972
O14	O	-0.523792	-1.283509	-0.570639
O15	O	-0.405265	-1.582980	-0.741006
O16	O	-0.680225	-1.582778	-0.441576
O17	O	-0.680174	-1.453765	-0.570617
C18	C	-0.715199	-1.518285	-0.506112
C19	C	-0.822413	-1.518349	-0.506134
C20	C	-0.464573	-1.245395	-0.506124
C21	C	-0.464591	-1.128618	-0.506142
C22	C	-0.464490	-1.518441	-0.780176
C23	C	-0.464449	-1.518475	-0.896953
C24	C	-1.018708	-1.518459	-0.506200
C25	C	-0.909475	-1.518395	-0.506167
C26	C	-0.212991	-1.518468	-0.506196
C27	C	-0.105777	-1.518513	-0.506219
C28	C	-0.464597	-1.792395	-0.506161
C29	C	-0.464602	-1.909172	-0.506169
C30	C	-0.588119	-1.128644	-0.640278
C31	C	-0.649891	-1.073796	-0.707349
C32	C	-0.649903	-0.964074	-0.707362
C33	C	-0.588134	-0.909198	-0.640299
C34	C	-0.526362	-0.964046	-0.573227
C35	C	-0.526359	-1.073770	-0.573220
C36	C	-0.402830	-0.964020	-0.439098
C37	C	-0.402822	-1.073742	-0.439078
C38	C	-0.341061	-0.909144	-0.372035
C39	C	-0.279293	-0.963992	-0.304957
C40	C	-0.279284	-1.073720	-0.304946
C41	C	-0.341050	-1.128590	-0.372007
C42	C	-0.341088	-1.652916	-0.897008
C43	C	-0.279393	-1.720151	-0.951896
C44	C	-0.279358	-1.720176	-1.061618
C45	C	-0.341022	-1.652958	-1.116454
C46	C	-0.402718	-1.585723	-1.061565
C47	C	-0.402748	-1.585707	-0.951841
C48	C	-0.526072	-1.451278	-1.061510
C49	C	-0.526114	-1.451256	-0.951789
C50	C	-0.587737	-1.384059	-1.116346
C51	C	-0.649438	-1.316828	-1.061458
C52	C	-0.649472	-1.316806	-0.951729
C53	C	-0.587809	-1.384021	-0.896900
C54	C	-0.464609	-1.518344	-0.233175
C55	C	-0.464377	-1.518513	-0.116399
H56	H	-0.700181	-1.118488	-0.761952
H57	H	-0.587700	-1.384081	-1.205687
H58	H	-0.229114	-1.774918	-1.106308
O59	O	-0.715932	-1.244327	-1.120603
H60	H	-0.791649	-1.262293	-1.099534
O61	O	-0.588168	-0.790855	-0.640328
H62	H	-0.515449	-0.761936	-0.661721
O63	O	-0.341131	-1.652918	-0.778665
H64	H	-0.413898	-1.674121	-0.749733
O65	O	-0.716582	-0.904906	-0.779637
H66	H	-0.759556	-0.961492	-0.826243
O67	O	-0.587862	-1.384006	-0.778557
H68	H	-0.568374	-1.304768	-0.749611
O69	O	-0.341101	-0.790801	-0.372056
H70	H	-0.268386	-0.761873	-0.393451
H71	H	-0.699701	-1.262044	-0.907046
O72	O	-0.212696	-0.904810	-0.232607
H73	H	-0.223090	-0.819300	-0.243877
H74	H	-0.228975	-1.118371	-0.250335
H75	H	-0.341052	-1.217931	-0.372002
H76	H	-0.229186	-1.774877	-0.907237
H77	H	-0.340980	-1.652975	-1.205795
H78	H	-0.588123	-1.217985	-0.640266
