data_functionalizedCrystal
_audit_creation_method	'MofGen! by Chris Wilmer'
_symmetry_space_group_name_H-M	'P1'
_symmetry_Int_Tables_number	1
_symmetry_cell_setting	triclinic
loop_
_symmetry_equiv_pos_as_xyz
  x,y,z
_cell_length_a	17.639617
_cell_length_b	17.641144
_cell_length_c	12.759401
_cell_angle_alpha	78.791584
_cell_angle_beta	101.229682
_cell_angle_gamma	92.183191
loop_
_atom_site_label
_atom_site_type_symbol
_atom_site_fract_x
_atom_site_fract_y
_atom_site_fract_z
Zn1	Zn	1.222111	-0.068145	0.941349
Zn2	Zn	1.247698	-0.195104	0.806710
Zn3	Zn	1.095131	-0.093758	0.738391
Zn4	Zn	1.120711	-0.220713	0.955050
O5	O	1.171413	-0.144430	0.860375
O6	O	1.331791	-0.063550	0.946347
O7	O	1.227462	-0.181661	0.650627
O8	O	1.090562	0.015904	0.730988
O9	O	1.350590	-0.156826	0.847428
O10	O	1.183854	0.034721	0.880101
O11	O	1.115372	-0.107203	0.600434
O12	O	0.992238	-0.132035	0.744273
O13	O	1.134158	-0.200473	1.100253
O14	O	1.011031	-0.225308	0.903452
O15	O	1.208657	-0.088383	1.090187
O16	O	1.252266	-0.304765	0.860713
O17	O	1.158969	-0.323579	0.969698
C18	C	0.974076	-0.184230	0.817937
C19	C	0.889658	-0.201275	0.799812
C20	C	1.211190	-0.341721	0.924133
C21	C	1.228276	-0.426109	0.951459
C22	C	1.041884	-0.752875	0.652971
C23	C	1.057951	-0.832167	0.678653
C24	C	1.154986	-0.812467	0.833967
C25	C	1.138923	-0.733172	0.808301
C26	C	1.082372	-0.703382	0.717801
C27	C	1.179412	-0.683679	0.873131
C28	C	1.163353	-0.604390	0.847464
C29	C	1.106807	-0.574593	0.756967
C30	C	1.066314	-0.624093	0.692134
C31	C	1.235967	-0.713469	0.963626
C32	C	1.276455	-0.663977	1.028456
C33	C	1.260393	-0.584687	1.002794
C34	C	1.203846	-0.554890	0.912297
C35	C	1.300886	-0.535188	1.067627
C36	C	1.284827	-0.455898	1.041959
C37	C	1.187788	-0.475601	0.886629
C38	C	0.563136	-0.014924	0.998320
C39	C	0.483817	-0.030960	0.981274
C40	C	0.503381	-0.127927	0.878024
C41	C	0.582704	-0.111902	0.895066
C42	C	0.612575	-0.055399	0.955213
C43	C	0.632143	-0.152377	0.851959
C44	C	0.711459	-0.136351	0.868995
C45	C	0.741336	-0.079849	0.929137
C46	C	0.691891	-0.039373	0.972249
C47	C	0.602270	-0.208875	0.791805
C48	C	0.651709	-0.249351	0.748699
C49	C	0.731027	-0.233328	0.765741
C50	C	0.760904	-0.176827	0.825883
C51	C	0.780472	-0.273804	0.722629
C52	C	0.859787	-0.257778	0.739664
C53	C	0.840219	-0.160800	0.842919
C54	C	1.369520	-0.104475	0.902980
C55	C	1.453941	-0.087448	0.921136
C56	C	1.171407	-0.144428	1.134406
C57	C	1.171405	-0.144427	1.251182
C58	C	1.131501	0.053636	0.796395
C59	C	1.114492	0.138039	0.769131
C60	C	1.113050	-0.105660	1.279918
C61	C	1.113053	-0.105667	1.389645
C62	C	1.229771	-0.183207	1.441891
C63	C	1.229765	-0.183205	1.332167
C64	C	1.045666	-0.060889	1.249754
C65	C	1.045668	-0.060896	1.359481
C66	C	1.171415	-0.144447	1.587413
C67	C	1.171414	-0.144436	1.470633
H68	H	1.141732	-0.451347	0.812942
Br69	Br	0.494624	-0.230619	0.768673
H70	H	1.277274	-0.214786	1.308778
Br71	Br	1.085008	-0.466986	0.722131
H72	H	0.990011	-0.088499	1.212419
Br73	Br	1.308968	-0.235836	1.551804
H74	H	0.900042	-0.290737	0.704563
Br75	Br	0.848978	-0.058088	0.952246
Br76	Br	0.959620	-0.114805	1.407539
Br77	Br	1.062026	0.039304	1.170501
Br78	Br	0.603685	0.061750	1.079965
Br79	Br	1.052030	0.042428	1.383074
Br80	Br	1.231734	-0.852903	0.956780
Br81	Br	0.732439	0.037301	1.053894
Br82	Br	0.416720	0.023984	1.039772
H83	H	1.020258	-0.599839	0.618446
H84	H	0.995828	-0.728620	0.579283
H85	H	1.024976	-0.872463	0.625855
H86	H	0.479048	-0.173929	0.829048
H87	H	1.322501	-0.688242	1.102139
Br88	Br	1.339782	-0.388723	1.129936
Br89	Br	1.377641	-0.575624	1.190431
Br90	Br	0.739920	-0.350472	0.640984
H91	H	1.249041	-0.778032	0.984519
Br92	Br	0.611161	-0.326026	0.667066
H93	H	0.864542	-0.114793	0.891902
