data_functionalizedCrystal
_audit_creation_method	'MofGen! by Chris Wilmer'
_symmetry_space_group_name_H-M	'P1'
_symmetry_Int_Tables_number	1
_symmetry_cell_setting	triclinic
loop_
_symmetry_equiv_pos_as_xyz
  x,y,z
_cell_length_a	23.532407
_cell_length_b	27.731996
_cell_length_c	22.010155
_cell_angle_alpha	89.998256
_cell_angle_beta	89.996931
_cell_angle_gamma	82.735033
loop_
_atom_site_label
_atom_site_type_symbol
_atom_site_fract_x
_atom_site_fract_y
_atom_site_fract_z
O1	O	0.755125	0.058673	-0.050457
O2	O	1.005125	0.308673	0.199543
O3	O	1.255125	0.558673	0.449543
O4	O	1.505125	0.808673	0.699543
O5	O	0.589242	0.067164	-0.050476
O6	O	0.839242	0.317164	0.199524
O7	O	1.089242	0.567164	0.449524
O8	O	1.339242	0.817164	0.699524
O9	O	0.677351	-0.007472	-0.050453
O10	O	0.927351	0.242528	0.199547
O11	O	1.177351	0.492528	0.449547
O12	O	1.427351	0.742528	0.699547
O13	O	0.667016	0.133309	-0.050480
O14	O	0.917016	0.383309	0.199520
O15	O	1.167016	0.633309	0.449520
O16	O	1.417016	0.883309	0.699520
O17	O	0.677335	-0.007461	0.050597
O18	O	0.927335	0.242539	0.300597
O19	O	1.177335	0.492539	0.550597
O20	O	1.427335	0.742539	0.800597
O21	O	0.589226	0.067175	0.050574
O22	O	0.839226	0.317175	0.300574
O23	O	1.089226	0.567175	0.550574
O24	O	1.339226	0.817175	0.800574
O25	O	0.755109	0.058685	0.050593
O26	O	1.005109	0.308685	0.300593
O27	O	1.255109	0.558685	0.550593
O28	O	1.505109	0.808685	0.800593
Cu29	Cu	0.672166	0.062931	0.059810
Cu30	Cu	0.922166	0.312931	0.309810
Cu31	Cu	1.172166	0.562931	0.559810
Cu32	Cu	1.422166	0.812931	0.809810
Cu33	Cu	0.672185	0.062918	-0.059693
Cu34	Cu	0.922185	0.312918	0.190307
Cu35	Cu	1.172185	0.562918	0.440307
Cu36	Cu	1.422185	0.812918	0.690307
O37	O	0.667000	0.133320	0.050570
O38	O	0.917000	0.383320	0.300570
O39	O	1.167000	0.633320	0.550570
O40	O	1.417000	0.883320	0.800570
C41	C	0.568019	0.066953	0.000047
C42	C	0.818019	0.316953	0.250047
C43	C	1.068019	0.566953	0.500047
C44	C	1.318019	0.816953	0.750047
C45	C	0.504803	0.066303	0.000040
C46	C	0.754803	0.316303	0.250040
C47	C	1.004803	0.566303	0.500040
C48	C	1.254803	0.816303	0.750040
C49	C	0.677131	-0.025474	0.000074
C50	C	0.927131	0.224526	0.250074
C51	C	1.177131	0.474526	0.500074
C52	C	1.427131	0.724526	0.750074
C53	C	0.676491	-0.079131	0.000080
C54	C	0.926491	0.170869	0.250080
C55	C	1.176491	0.420869	0.500080
C56	C	1.426491	0.670869	0.750080
C57	C	0.105606	0.106394	0.000060
C58	C	0.355606	0.356394	0.250060
C59	C	0.605606	0.606394	0.500060
C60	C	0.855606	0.856394	0.750060
C61	C	0.046207	0.105790	0.000064
C62	C	0.296207	0.355790	0.250064
C63	C	0.546207	0.605790	0.500064
C64	C	0.796207	0.855790	0.750064
O65	O	0.009375	0.142955	0.000079
O66	O	0.259375	0.392955	0.250079
O67	O	0.509375	0.642955	0.500079
O68	O	0.759375	0.892955	0.750079
N69	N	0.023685	0.061419	0.000071
N70	N	0.273685	0.311419	0.250071
N71	N	0.523685	0.561419	0.500071
N72	N	0.773685	0.811419	0.750071
C73	C	0.060566	0.017649	0.000081
C74	C	0.310566	0.267649	0.250081
C75	C	0.560566	0.517649	0.500081
C76	C	0.810566	0.767649	0.750081
O77	O	0.035955	-0.020147	0.000089
O78	O	0.285955	0.229853	0.250089
O79	O	0.535955	0.479853	0.500089
O80	O	0.785955	0.729853	0.750089
C81	C	0.119963	0.018253	0.000082
C82	C	0.369963	0.268253	0.250082
C83	C	0.619963	0.518253	0.500082
C84	C	0.869963	0.768253	0.750082
C85	C	0.142482	0.062627	0.000068
C86	C	0.392482	0.312627	0.250068
C87	C	0.642482	0.562627	0.500068
C88	C	0.892482	0.812627	0.750068
C89	C	0.128124	0.150764	0.000047
C90	C	0.378124	0.400764	0.250047
C91	C	0.628124	0.650764	0.500047
C92	C	0.878124	0.900764	0.750047
C93	C	0.187519	0.151368	0.000042
C94	C	0.437519	0.401368	0.250042
C95	C	0.687519	0.651368	0.500042
C96	C	0.937519	0.901368	0.750042
C97	C	0.224395	0.107601	0.000050
C98	C	0.474395	0.357601	0.250050
C99	C	0.724395	0.607601	0.500050
C100	C	0.974395	0.857601	0.750050
C101	C	0.201876	0.063231	0.000063
C102	C	0.451876	0.313231	0.250063
C103	C	0.701876	0.563231	0.500063
C104	C	0.951876	0.813231	0.750063
C105	C	0.156843	-0.025516	0.000096
C106	C	0.406843	0.224484	0.250096
C107	C	0.656843	0.474484	0.500096
C108	C	0.906843	0.724484	0.750096
C109	C	0.216244	-0.024908	0.000097
C110	C	0.466244	0.225092	0.250097
C111	C	0.716244	0.475092	0.500097
C112	C	0.966244	0.725092	0.750097
C113	C	0.238762	0.019466	0.000083
C114	C	0.488762	0.269466	0.250083
C115	C	0.738762	0.519466	0.500083
C116	C	0.988762	0.769466	0.750083
C117	C	0.298147	0.020068	0.000066
C118	C	0.548147	0.270068	0.250066
C119	C	0.798147	0.520068	0.500066
C120	C	1.048147	0.770068	0.750066
N121	N	0.320669	0.064439	0.000059
N122	N	0.570669	0.314439	0.250059
N123	N	0.820669	0.564439	0.500059
N124	N	1.070669	0.814439	0.750059
C125	C	0.283793	0.108206	0.000051
C126	C	0.533793	0.358206	0.250051
C127	C	0.783793	0.608206	0.500051
C128	C	1.033793	0.858206	0.750051
C129	C	-0.064174	0.016383	0.000081
C130	C	0.185826	0.266383	0.250081
C131	C	0.435826	0.516383	0.500081
C132	C	0.685826	0.766383	0.750081
C133	C	-0.123570	0.015778	0.000077
C134	C	0.126430	0.265778	0.250077
C135	C	0.376430	0.515778	0.500077
C136	C	0.626430	0.765778	0.750077
C137	C	-0.137925	0.103920	0.000060
C138	C	0.112075	0.353920	0.250060
C139	C	0.362075	0.603920	0.500060
C140	C	0.612075	0.853920	0.750060
C141	C	-0.078528	0.104524	0.000061
C142	C	0.171472	0.354524	0.250061
C143	C	0.421472	0.604524	0.500061
C144	C	0.671472	0.854524	0.750061
C145	C	-0.041652	0.060754	0.000074
C146	C	0.208348	0.310754	0.250074
C147	C	0.458348	0.560754	0.500074
C148	C	0.708348	0.810754	0.750074
C149	C	0.408526	0.109470	0.000040
C150	C	0.658526	0.359470	0.250040
C151	C	0.908526	0.609470	0.500040
C152	C	1.158526	0.859470	0.750040
C153	C	0.467927	0.110070	0.000032
C154	C	0.717927	0.360070	0.250032
C155	C	0.967927	0.610070	0.500032
C156	C	1.217927	0.860070	0.750032
C157	C	0.482277	0.021929	0.000052
C158	C	0.732277	0.271929	0.250052
C159	C	0.982277	0.521929	0.500052
C160	C	1.232277	0.771929	0.750052
C161	C	0.422881	0.021329	0.000056
C162	C	0.672881	0.271329	0.250056
C163	C	0.922881	0.521329	0.500056
C164	C	1.172881	0.771329	0.750056
C165	C	0.386007	0.065103	0.000052
C166	C	0.636007	0.315103	0.250052
C167	C	0.886007	0.565103	0.500052
C168	C	1.136007	0.815103	0.750052
O169	O	0.335014	-0.017077	0.000054
O170	O	0.585014	0.232923	0.250054
O171	O	0.835014	0.482923	0.500054
O172	O	1.085014	0.732923	0.750054
O173	O	0.308412	0.145996	0.000051
O174	O	0.558412	0.395996	0.250051
O175	O	0.808412	0.645996	0.500051
O176	O	1.058412	0.895996	0.750051
C177	C	0.672477	-0.411860	-0.055032
C178	C	0.922477	-0.161860	0.194968
C179	C	1.172477	0.088140	0.444968
C180	C	1.422477	0.338140	0.694968
C181	C	0.670049	-0.613522	-0.055043
C182	C	0.920049	-0.363522	0.194957
C183	C	1.170049	-0.113522	0.444957
C184	C	1.420049	0.136478	0.694957
O185	O	0.669718	-0.639598	-0.101889
O186	O	0.919718	-0.389598	0.148111
O187	O	1.169718	-0.139598	0.398111
O188	O	1.419718	0.110402	0.648111
N189	N	0.669738	-0.638733	0.000039
N190	N	0.919738	-0.388733	0.250039
N191	N	1.169738	-0.138733	0.500039
N192	N	1.419738	0.111267	0.750039
C193	C	0.670031	-0.613526	0.055127
C194	C	0.920031	-0.363526	0.305127
C195	C	1.170031	-0.113526	0.555127
C196	C	1.420031	0.136474	0.805127
O197	O	0.669706	-0.639596	0.101978
O198	O	0.919706	-0.389596	0.351978
O199	O	1.169706	-0.139596	0.601978
O200	O	1.419706	0.110404	0.851978
C201	C	0.672456	-0.411864	0.055138
C202	C	0.922456	-0.161864	0.305138
C203	C	1.172456	0.088136	0.555138
C204	C	1.422456	0.338136	0.805138
C205	C	0.672772	-0.386656	0.000052
C206	C	0.922772	-0.136656	0.250052
C207	C	1.172772	0.113344	0.500052
C208	C	1.422772	0.363344	0.750052
C209	C	0.672792	-0.386652	-0.110113
C210	C	0.922792	-0.136652	0.139887
C211	C	1.172792	0.113348	0.389887
C212	C	1.422792	0.363348	0.639887
C213	C	0.673403	-0.336239	-0.110110
C214	C	0.923403	-0.086239	0.139890
C215	C	1.173403	0.163761	0.389890
C216	C	1.423403	0.413761	0.639890
C217	C	0.673697	-0.311036	-0.055026
C218	C	0.923697	-0.061036	0.194974
C219	C	1.173697	0.188964	0.444974
C220	C	1.423697	0.438964	0.694974
C221	C	0.673382	-0.336244	0.000055
C222	C	0.923382	-0.086244	0.250055
C223	C	1.173382	0.163756	0.500055
C224	C	1.423382	0.413756	0.750055
C225	C	0.672745	-0.386657	0.110226
C226	C	0.922745	-0.136657	0.360226
C227	C	1.172745	0.113343	0.610226
C228	C	1.422745	0.363343	0.860226
C229	C	0.673349	-0.336239	0.110223
C230	C	0.923349	-0.086239	0.360223
C231	C	1.173349	0.163761	0.610223
C232	C	1.423349	0.413761	0.860223
C233	C	0.673665	-0.311030	0.055138
C234	C	0.923665	-0.061030	0.305138
C235	C	1.173665	0.188970	0.555138
C236	C	1.423665	0.438970	0.805138
C237	C	0.674287	-0.260628	0.055143
C238	C	0.924287	-0.010628	0.305143
C239	C	1.174287	0.239372	0.555143
C240	C	1.424287	0.489372	0.805143
N241	N	0.674597	-0.235417	0.000061
N242	N	0.924597	0.014583	0.250061
N243	N	1.174597	0.264583	0.500061
N244	N	1.424597	0.514583	0.750061
C245	C	0.674302	-0.260620	-0.055023
C246	C	0.924302	-0.010620	0.194977
C247	C	1.174302	0.239380	0.444977
C248	C	1.424302	0.489380	0.694977
C249	C	0.668760	-0.719401	0.055118
C250	C	0.918760	-0.469401	0.305118
C251	C	1.168760	-0.219401	0.555118
C252	C	1.418760	0.030599	0.805118
C253	C	0.668155	-0.769816	0.055116
C254	C	0.918155	-0.519816	0.305116
C255	C	1.168155	-0.269816	0.555116
C256	C	1.418155	-0.019816	0.805116
C257	C	0.668171	-0.769809	-0.055055
C258	C	0.918171	-0.519809	0.194945
C259	C	1.168171	-0.269809	0.444945
C260	C	1.418171	-0.019809	0.694945
C261	C	0.668780	-0.719393	-0.055052
C262	C	0.918780	-0.469393	0.194948
C263	C	1.168780	-0.219393	0.444948
C264	C	1.418780	0.030607	0.694948
C265	C	0.669070	-0.694190	0.000036
C266	C	0.919070	-0.444190	0.250036
C267	C	1.169070	-0.194190	0.500036
C268	C	1.419070	0.055810	0.750036
C269	C	0.675584	-0.154751	-0.055012
C270	C	0.925584	0.095249	0.194988
C271	C	1.175584	0.345249	0.444988
C272	C	1.425584	0.595249	0.694988
C273	C	0.676197	-0.104335	-0.055004
C274	C	0.926197	0.145665	0.194996
C275	C	1.176197	0.395665	0.444996
C276	C	1.426197	0.645665	0.694996
C277	C	0.676177	-0.104347	0.055167
C278	C	0.926177	0.145653	0.305167
C279	C	1.176177	0.395653	0.555167
C280	C	1.426177	0.645653	0.805167
C281	C	0.675568	-0.154759	0.055159
C282	C	0.925568	0.095241	0.305159
C283	C	1.175568	0.345241	0.555159
C284	C	1.425568	0.595241	0.805159
C285	C	0.675269	-0.179960	0.000064
C286	C	0.925269	0.070040	0.250064
C287	C	1.175269	0.320040	0.500064
C288	C	1.425269	0.570040	0.750064
O289	O	0.674612	-0.234520	0.101965
O290	O	0.924612	0.015480	0.351965
O291	O	1.174612	0.265480	0.601965
O292	O	1.424612	0.515480	0.851965
O293	O	0.674615	-0.234540	-0.101867
O294	O	0.924615	0.015460	0.148133
O295	O	1.174615	0.265460	0.398133
O296	O	1.424615	0.515460	0.648133
C297	C	0.671867	-0.462272	-0.055036
C298	C	0.921867	-0.212272	0.194964
C299	C	1.171867	0.037728	0.444964
C300	C	1.421867	0.287728	0.694964
C301	C	0.671551	-0.487480	0.000046
C302	C	0.921551	-0.237480	0.250046
C303	C	1.171551	0.012520	0.500046
C304	C	1.421551	0.262520	0.750046
C305	C	0.671846	-0.462277	0.055130
C306	C	0.921846	-0.212277	0.305130
C307	C	1.171846	0.037723	0.555130
C308	C	1.421846	0.287723	0.805130
C309	C	0.670946	-0.537896	0.000043
C310	C	0.920946	-0.287896	0.250043
C311	C	1.170946	-0.037896	0.500043
C312	C	1.420946	0.212104	0.750043
C313	C	0.670652	-0.563099	-0.055041
C314	C	0.920652	-0.313099	0.194959
C315	C	1.170652	-0.063099	0.444959
C316	C	1.420652	0.186901	0.694959
C317	C	0.670962	-0.537888	-0.110123
C318	C	0.920962	-0.287888	0.139877
C319	C	1.170962	-0.037888	0.389877
C320	C	1.420962	0.212112	0.639877
C321	C	0.671572	-0.487476	-0.110120
C322	C	0.921572	-0.237476	0.139880
C323	C	1.171572	0.012524	0.389880
C324	C	1.421572	0.262524	0.639880
C325	C	0.671536	-0.487488	0.110212
C326	C	0.921536	-0.237488	0.360212
C327	C	1.171536	0.012512	0.610212
C328	C	1.421536	0.262512	0.860212
C329	C	0.670926	-0.537900	0.110204
C330	C	0.920926	-0.287900	0.360204
C331	C	1.170926	-0.037900	0.610204
C332	C	1.420926	0.212100	0.860204
C333	C	0.670632	-0.563104	0.055120
C334	C	0.920632	-0.313104	0.305120
C335	C	1.170632	-0.063104	0.555120
C336	C	1.420632	0.186896	0.805120
C337	C	0.776333	0.058895	0.000069
C338	C	1.026333	0.308895	0.250069
C339	C	1.276333	0.558895	0.500069
C340	C	1.526333	0.808895	0.750069
C341	C	0.839549	0.059545	0.000072
C342	C	1.089549	0.309545	0.250072
C343	C	1.339549	0.559545	0.500072
C344	C	1.589549	0.809545	0.750072
C345	C	0.667221	0.151323	0.000041
C346	C	0.917221	0.401323	0.250041
C347	C	1.167221	0.651323	0.500041
C348	C	1.417221	0.901323	0.750041
C349	C	0.667860	0.204980	0.000031
C350	C	0.917860	0.454980	0.250031
C351	C	1.167860	0.704980	0.500031
C352	C	1.417860	0.954980	0.750031
N353	N	0.672157	0.062940	0.143863
N354	N	0.922157	0.312940	0.393863
N355	N	1.172157	0.562940	0.643863
N356	N	1.422157	0.812940	0.893863
N357	N	0.672199	0.062905	-0.143746
N358	N	0.922199	0.312905	0.106254
N359	N	1.172199	0.562905	0.356254
N360	N	1.422199	0.812905	0.606254
C361	C	0.711202	0.029874	0.563653
C362	C	0.961202	0.279874	0.813653
C363	C	1.211202	0.529874	1.063653
C364	C	1.461202	0.779874	1.313653
C365	C	0.711205	0.029870	0.627260
C366	C	0.961205	0.279870	0.877260
C367	C	1.211205	0.529870	1.127260
C368	C	1.461205	0.779870	1.377260
O369	O	0.744379	0.001762	0.660160
O370	O	0.994379	0.251762	0.910160
O371	O	1.244379	0.501762	1.160160
O372	O	1.494379	0.751762	1.410160
N373	N	0.672185	0.062907	0.659070
N374	N	0.922185	0.312907	0.909070
N375	N	1.172185	0.562907	1.159070
N376	N	1.422185	0.812907	1.409070
C377	C	0.633156	0.095947	0.627269
C378	C	0.883156	0.345947	0.877269
C379	C	1.133156	0.595947	1.127269
C380	C	1.383156	0.845947	1.377269
O381	O	0.599967	0.124047	0.660166
O382	O	0.849967	0.374047	0.910166
O383	O	1.099967	0.624047	1.160166
O384	O	1.349967	0.874047	1.410166
C385	C	0.633151	0.095948	0.563663
C386	C	0.883151	0.345948	0.813663
C387	C	1.133151	0.595948	1.063663
C388	C	1.383151	0.845948	1.313663
C389	C	0.672177	0.062911	0.531856
C390	C	0.922177	0.312911	0.781856
C391	C	1.172177	0.562911	1.031856
C392	C	1.422177	0.812911	1.281856
C393	C	0.750225	-0.003160	0.531846
C394	C	1.000225	0.246840	0.781846
C395	C	1.250225	0.496840	1.031846
C396	C	1.500225	0.746840	1.281846
C397	C	0.750223	-0.003156	0.468243
C398	C	1.000223	0.246844	0.718243
C399	C	1.250223	0.496844	0.968243
C400	C	1.500223	0.746844	1.218243
C401	C	0.711198	0.029882	0.436446
C402	C	0.961198	0.279882	0.686446
C403	C	1.211198	0.529882	0.936446
C404	C	1.461198	0.779882	1.186446
C405	C	0.672175	0.062916	0.468253
C406	C	0.922175	0.312916	0.718253
C407	C	1.172175	0.562916	0.968253
C408	C	1.422175	0.812916	1.218253
C409	C	0.594120	0.128984	0.531863
C410	C	0.844120	0.378984	0.781863
C411	C	1.094120	0.628984	1.031863
C412	C	1.344120	0.878984	1.281863
C413	C	0.594118	0.128982	0.468252
C414	C	0.844118	0.378982	0.718252
C415	C	1.094118	0.628982	0.968252
C416	C	1.344118	0.878982	1.218252
C417	C	0.633144	0.095946	0.436445
C418	C	0.883144	0.345946	0.686445
C419	C	1.133144	0.595946	0.936445
C420	C	1.383144	0.845946	1.186445
C421	C	0.633148	0.095958	0.372853
C422	C	0.883148	0.345958	0.622853
C423	C	1.133148	0.595958	0.872853
C424	C	1.383148	0.845958	1.122853
N425	N	0.672168	0.062920	0.341043
N426	N	0.922168	0.312920	0.591043
N427	N	1.172168	0.562920	0.841043
N428	N	1.422168	0.812920	1.091043
C429	C	0.711193	0.029882	0.372840
C430	C	0.961193	0.279882	0.622840
C431	C	1.211193	0.529882	0.872840
C432	C	1.461193	0.779882	1.122840
C433	C	0.633169	0.095943	0.760847
C434	C	0.883169	0.345943	1.010847
C435	C	1.133169	0.595943	1.260847
C436	C	1.383169	0.845943	1.510847
C437	C	0.633176	0.095945	0.824452
C438	C	0.883176	0.345945	1.074452
C439	C	1.133176	0.595945	1.324452
C440	C	1.383176	0.845945	1.574452
C441	C	0.711224	0.029867	0.824439
C442	C	0.961224	0.279867	1.074439
C443	C	1.211224	0.529867	1.324439
C444	C	1.461224	0.779867	1.574439
C445	C	0.711219	0.029868	0.760832
C446	C	0.961219	0.279868	1.010832
C447	C	1.211219	0.529868	1.260832
C448	C	1.461219	0.779868	1.510832
C449	C	0.672189	0.062905	0.729037
C450	C	0.922189	0.312905	0.979037
C451	C	1.172189	0.562905	1.229037
C452	C	1.422189	0.812905	1.479037
C453	C	0.711186	0.029894	0.239268
C454	C	0.961186	0.279894	0.489268
C455	C	1.211186	0.529894	0.739268
C456	C	1.461186	0.779894	0.989268
C457	C	0.711182	0.029902	0.175660
C458	C	0.961182	0.279902	0.425660
C459	C	1.211182	0.529902	0.675660
C460	C	1.461182	0.779902	0.925660
C461	C	0.633132	0.095978	0.175678
C462	C	0.883132	0.345978	0.425678
C463	C	1.133132	0.595978	0.675678
C464	C	1.383132	0.845978	0.925678
C465	C	0.633138	0.095971	0.239282
C466	C	0.883138	0.345971	0.489282
C467	C	1.133138	0.595971	0.739282
C468	C	1.383138	0.845971	0.989282
C469	C	0.672167	0.062925	0.271075
C470	C	0.922167	0.312925	0.521075
C471	C	1.172167	0.562925	0.771075
C472	C	1.422167	0.812925	1.021075
O473	O	0.599989	0.124050	0.339912
O474	O	0.849989	0.374050	0.589912
O475	O	1.099989	0.624050	0.839912
O476	O	1.349989	0.874050	1.089912
O477	O	0.744372	0.001783	0.339935
O478	O	0.994372	0.251783	0.589935
O479	O	1.244372	0.501783	0.839935
O480	O	1.494372	0.751783	1.089935
H481	H	0.378510	0.145116	0.000038
H482	H	0.628510	0.395116	0.250038
H483	H	0.878510	0.645116	0.500038
H484	H	1.128510	0.895116	0.750038
H485	H	0.673658	-0.315719	-0.154966
H486	H	0.923658	-0.065719	0.095034
H487	H	1.173658	0.184281	0.345034
H488	H	1.423658	0.434281	0.595034
H489	H	0.486258	0.146206	0.000020
H490	H	0.736258	0.396206	0.250020
H491	H	0.986258	0.646206	0.500020
H492	H	1.236258	0.896206	0.750020
N493	N	0.753304	-0.005764	0.726522
N494	N	1.003304	0.244236	0.976522
N495	N	1.253304	0.494236	1.226522
N496	N	1.503304	0.744236	1.476522
H497	H	0.793674	-0.000373	0.737583
H498	H	1.043674	0.249627	0.987583
H499	H	1.293674	0.499627	1.237583
H500	H	1.543674	0.749627	1.487583
H501	H	0.747007	-0.040029	0.737608
H502	H	0.997007	0.209971	0.987608
H503	H	1.247007	0.459971	1.237608
H504	H	1.497007	0.709971	1.487608
N505	N	-0.054239	0.152382	0.000054
N506	N	0.195761	0.402382	0.250054
N507	N	0.445761	0.652382	0.500054
N508	N	0.695761	0.902382	0.750054
H509	H	-0.029912	0.154595	-0.037405
H510	H	0.220088	0.404595	0.212595
H511	H	0.470088	0.654595	0.462595
H512	H	0.720088	0.904595	0.712595
H513	H	-0.086648	0.179987	0.000071
H514	H	0.163352	0.429987	0.250071
H515	H	0.413352	0.679987	0.500071
H516	H	0.663352	0.929987	0.750071
N517	N	0.672514	-0.413835	-0.169531
N518	N	0.922514	-0.163835	0.080469
N519	N	1.172514	0.086165	0.330469
N520	N	1.422514	0.336165	0.580469
H521	H	0.672819	-0.390210	-0.204418
H522	H	0.922819	-0.140210	0.045582
H523	H	1.172819	0.109790	0.295582
H524	H	1.422819	0.359790	0.545582
H525	H	0.707597	-0.438829	-0.171899
H526	H	0.957597	-0.188829	0.078101
H527	H	1.207597	0.061171	0.328101
H528	H	1.457597	0.311171	0.578101
N529	N	0.211794	0.199232	0.000036
N530	N	0.461794	0.449232	0.250036
N531	N	0.711794	0.699232	0.500036
N532	N	0.961794	0.949232	0.750036
H533	H	0.236114	0.201454	0.037496
H534	H	0.486114	0.451454	0.287496
H535	H	0.736114	0.701454	0.537496
H536	H	0.986114	0.951454	0.787496
H537	H	0.236090	0.201423	-0.037448
H538	H	0.486090	0.451423	0.212552
H539	H	0.736090	0.701423	0.462552
H540	H	0.986090	0.951423	0.712552
H541	H	0.601360	0.122878	0.149780
H542	H	0.851360	0.372878	0.399780
H543	H	1.101360	0.622878	0.649780
H544	H	1.351360	0.872878	0.899780
H545	H	0.676455	-0.083813	-0.099863
H546	H	0.926455	0.166187	0.150137
H547	H	1.176455	0.416187	0.400137
H548	H	1.426455	0.666187	0.650137
H549	H	0.098105	0.186406	0.000042
H550	H	0.348105	0.436406	0.250042
H551	H	0.598105	0.686406	0.500042
H552	H	0.848105	0.936406	0.750042
H553	H	0.742964	0.003000	0.149765
H554	H	0.992964	0.253000	0.399765
H555	H	1.242964	0.503000	0.649765
H556	H	1.492964	0.753000	0.899765
H557	H	0.601365	0.122877	0.265179
H558	H	0.851365	0.372877	0.515179
H559	H	1.101365	0.622877	0.765179
H560	H	1.351365	0.872877	1.015179
H561	H	0.562341	0.155885	0.557751
H562	H	0.812341	0.405885	0.807751
H563	H	1.062341	0.655885	1.057751
H564	H	1.312341	0.905885	1.307751
N565	N	0.256015	-0.072119	0.000105
N566	N	0.506015	0.177881	0.250105
N567	N	0.756015	0.427881	0.500105
N568	N	1.006015	0.677881	0.750105
H569	H	0.297062	-0.065007	0.000101
H570	H	0.547062	0.184993	0.250101
H571	H	0.797062	0.434993	0.500101
H572	H	1.047062	0.684993	0.750101
H573	H	0.248765	-0.091462	0.037572
H574	H	0.498765	0.158538	0.287572
H575	H	0.748765	0.408538	0.537572
H576	H	0.998765	0.658538	0.787572
N577	N	0.753317	-0.005768	0.858740
N578	N	1.003317	0.244232	1.108740
N579	N	1.253317	0.494232	1.358740
N580	N	1.503317	0.744232	1.608740
H581	H	0.747393	-0.000754	0.903860
H582	H	0.997393	0.249246	1.153860
H583	H	1.247393	0.499246	1.403860
H584	H	1.497393	0.749246	1.653860
H585	H	0.747048	-0.040033	0.847625
H586	H	0.997048	0.209967	1.097625
H587	H	1.247048	0.459967	1.347625
H588	H	1.497048	0.709967	1.597625
H589	H	0.512312	-0.013705	0.000056
H590	H	0.762312	0.236295	0.250056
H591	H	1.012312	0.486295	0.500056
H592	H	1.262312	0.736295	0.750056
N593	N	-0.177690	0.151135	0.000064
N594	N	0.072310	0.401135	0.250064
N595	N	0.322310	0.651135	0.500064
N596	N	0.572310	0.901135	0.750064
H597	H	-0.202659	0.152856	-0.037391
H598	H	0.047341	0.402856	0.212609
H599	H	0.297341	0.652856	0.462609
H600	H	0.547341	0.902856	0.712609
H601	H	-0.202613	0.152823	0.037553
H602	H	0.047387	0.402823	0.287553
H603	H	0.297387	0.652823	0.537553
H604	H	0.547387	0.902823	0.787553
N605	N	-0.147854	-0.032082	0.000080
N606	N	0.102146	0.217918	0.250080
N607	N	0.352146	0.467918	0.500080
N608	N	0.602146	0.717918	0.750080
H609	H	-0.115476	-0.059713	0.000084
H610	H	0.134524	0.190287	0.250084
H611	H	0.384524	0.440287	0.500084
H612	H	0.634524	0.690287	0.750084
H613	H	-0.172186	-0.034251	0.037543
H614	H	0.077814	0.215749	0.287543
H615	H	0.327814	0.465749	0.537543
H616	H	0.577814	0.715749	0.787543
N617	N	0.675242	-0.181954	0.114570
N618	N	0.925242	0.068046	0.364570
N619	N	1.175242	0.318046	0.614570
N620	N	1.425242	0.568046	0.864570
H621	H	0.639672	-0.198780	0.117025
H622	H	0.889672	0.051220	0.367025
H623	H	1.139672	0.301220	0.617025
H624	H	1.389672	0.551220	0.867025
H625	H	0.710332	-0.206937	0.116984
H626	H	0.960332	0.043063	0.366984
H627	H	1.210332	0.293063	0.616984
H628	H	1.460332	0.543063	0.866984
N629	N	0.792329	-0.038791	0.566132
N630	N	1.042329	0.211209	0.816132
N631	N	1.292329	0.461209	1.066132
N632	N	1.542329	0.711209	1.316132
H633	H	0.786091	-0.073073	0.555063
H634	H	1.036091	0.176927	0.805063
H635	H	1.286091	0.426927	1.055063
H636	H	1.536091	0.676927	1.305063
H637	H	0.832670	-0.033342	0.555029
H638	H	1.082670	0.216658	0.805029
H639	H	1.332670	0.466658	1.055029
H640	H	1.582670	0.716658	1.305029
H641	H	-0.034152	-0.019262	0.000087
H642	H	0.215848	0.230738	0.250087
H643	H	0.465848	0.480738	0.500087
H644	H	0.715848	0.730738	0.750087
N645	N	0.132565	-0.073377	0.000114
N646	N	0.382565	0.176623	0.250114
N647	N	0.632565	0.426623	0.500114
N648	N	0.882565	0.676623	0.750114
H649	H	0.164947	-0.101006	0.000124
H650	H	0.414947	0.148994	0.250124
H651	H	0.664947	0.398994	0.500124
H652	H	0.914947	0.648994	0.750124
H653	H	0.108235	-0.075542	0.037578
H654	H	0.358235	0.174458	0.287578
H655	H	0.608235	0.424458	0.537578
H656	H	0.858235	0.674458	0.787578
H657	H	0.671777	-0.466972	0.155069
H658	H	0.921777	-0.216972	0.405069
H659	H	1.171777	0.033028	0.655069
H660	H	1.421777	0.283028	0.905069
H661	H	0.404547	-0.014804	0.000058
H662	H	0.654547	0.235196	0.250058
H663	H	0.904547	0.485196	0.500058
H664	H	1.154547	0.735196	0.750058
N665	N	0.675278	-0.181930	-0.114433
N666	N	0.925278	0.068070	0.135567
N667	N	1.175278	0.318070	0.385567
N668	N	1.425278	0.568070	0.635567
H669	H	0.675577	-0.158305	-0.149322
H670	H	0.925577	0.091695	0.100678
H671	H	1.175577	0.341695	0.350678
H672	H	1.425577	0.591695	0.600678
H673	H	0.710351	-0.206934	-0.116820
H674	H	0.960351	0.043066	0.133180
H675	H	1.210351	0.293066	0.383180
H676	H	1.460351	0.543066	0.633180
N677	N	0.669121	-0.692206	-0.114465
N678	N	0.919121	-0.442206	0.135535
N679	N	1.169121	-0.192206	0.385535
N680	N	1.419121	0.057794	0.635535
H681	H	0.668844	-0.715827	-0.149358
H682	H	0.918844	-0.465827	0.100642
H683	H	1.168844	-0.215827	0.350642
H684	H	1.418844	0.034173	0.600642
H685	H	0.634053	-0.667199	-0.116872
H686	H	0.884053	-0.417199	0.133128
H687	H	1.134053	-0.167199	0.383128
H688	H	1.384053	0.082801	0.633128
N689	N	0.676501	-0.077158	0.114577
N690	N	0.926501	0.172842	0.364577
N691	N	1.176501	0.422842	0.614577
N692	N	1.426501	0.672842	0.864577
H693	H	0.676933	-0.041396	0.106215
H694	H	0.926933	0.208604	0.356215
H695	H	1.176933	0.458604	0.606215
H696	H	1.426933	0.708604	0.856215
H697	H	0.641070	-0.081877	0.138626
H698	H	0.891070	0.168123	0.388626
H699	H	1.141070	0.418123	0.638626
H700	H	1.391070	0.668123	0.888626
N701	N	0.667854	-0.796998	-0.114469
N702	N	0.917854	-0.546998	0.135531
N703	N	1.167854	-0.296998	0.385531
N704	N	1.417854	-0.046998	0.635531
H705	H	0.667423	-0.832760	-0.106107
H706	H	0.917423	-0.582760	0.143893
H707	H	1.167423	-0.332760	0.393893
H708	H	1.417423	-0.082760	0.643893
H709	H	0.632642	-0.784096	-0.138524
H710	H	0.882642	-0.534096	0.111476
H711	H	1.132642	-0.284096	0.361476
H712	H	1.382642	-0.034096	0.611476
N713	N	0.753284	-0.005745	0.273554
N714	N	1.003284	0.244255	0.523554
N715	N	1.253284	0.494255	0.773554
N716	N	1.503284	0.744255	1.023554
H717	H	0.778003	-0.026667	0.243746
H718	H	1.028003	0.223333	0.493746
H719	H	1.278003	0.473333	0.743746
H720	H	1.528003	0.723333	0.993746
H721	H	0.778293	0.012655	0.299940
H722	H	1.028293	0.262655	0.549940
H723	H	1.278293	0.512655	0.799940
H724	H	1.528293	0.762655	1.049940
H725	H	0.667906	-0.790338	0.099972
H726	H	0.917906	-0.540338	0.349972
H727	H	1.167906	-0.290338	0.599972
H728	H	1.417906	-0.040338	0.849972
H729	H	0.601387	0.122850	0.734962
H730	H	0.851387	0.372850	0.984962
H731	H	1.101387	0.622850	1.234962
H732	H	1.351387	0.872850	1.484962
N733	N	0.792313	-0.038790	0.433942
N734	N	1.042313	0.211210	0.683942
N735	N	1.292313	0.461210	0.933942
N736	N	1.542313	0.711210	1.183942
H737	H	0.817031	-0.059718	0.463744
H738	H	1.067031	0.190282	0.713744
H739	H	1.317031	0.440282	0.963744
H740	H	1.567031	0.690282	1.213744
H741	H	0.770704	-0.060068	0.407555
H742	H	1.020704	0.189932	0.657555
H743	H	1.270704	0.439932	0.907555
H744	H	1.520704	0.689932	1.157555
H745	H	0.668999	-0.698885	0.099980
H746	H	0.918999	-0.448885	0.349980
H747	H	1.168999	-0.198885	0.599980
H748	H	1.418999	0.051115	0.849980
H749	H	0.562333	0.155885	0.442367
H750	H	0.812333	0.405885	0.692367
H751	H	1.062333	0.655885	0.942367
H752	H	1.312333	0.905885	1.192367
N753	N	0.672405	-0.413838	0.169640
N754	N	0.922405	-0.163838	0.419640
N755	N	1.172405	0.086162	0.669640
N756	N	1.422405	0.336162	0.919640
H757	H	0.672680	-0.390214	0.204531
H758	H	0.922680	-0.140214	0.454531
H759	H	1.172680	0.109786	0.704531
H760	H	1.422680	0.359786	0.954531
H761	H	0.636832	-0.430663	0.172036
H762	H	0.886832	-0.180663	0.422036
H763	H	1.136832	0.069337	0.672036
H764	H	1.386832	0.319337	0.922036
H765	H	0.601403	0.122851	0.850345
H766	H	0.851403	0.372851	1.100345
H767	H	1.101403	0.622851	1.350345
H768	H	1.351403	0.872851	1.600345
H769	H	0.673577	-0.315719	0.155084
H770	H	0.923577	-0.065719	0.405084
H771	H	1.173577	0.184281	0.655084
H772	H	1.423577	0.434281	0.905084
H773	H	0.671829	-0.466956	-0.154976
H774	H	0.921829	-0.216956	0.095024
H775	H	1.171829	0.033044	0.345024
H776	H	1.421829	0.283044	0.595024
H777	H	0.670725	-0.558418	-0.154975
H778	H	0.920725	-0.308418	0.095025
H779	H	1.170725	-0.058418	0.345025
H780	H	1.420725	0.191582	0.595025
H781	H	0.670673	-0.558421	0.155065
H782	H	0.920673	-0.308421	0.405065
H783	H	1.170673	-0.058421	0.655065
H784	H	1.420673	0.191579	0.905065
