data_functionalizedCrystal
_audit_creation_method	'MofGen! by Chris Wilmer'
_symmetry_space_group_name_H-M	'P1'
_symmetry_Int_Tables_number	1
_symmetry_cell_setting	triclinic
loop_
_symmetry_equiv_pos_as_xyz
  x,y,z
_cell_length_a	15.995350
_cell_length_b	11.026607
_cell_length_c	10.065875
_cell_angle_alpha	100.697662
_cell_angle_beta	98.791555
_cell_angle_gamma	83.960804
loop_
_atom_site_label
_atom_site_type_symbol
_atom_site_fract_x
_atom_site_fract_y
_atom_site_fract_z
O1	O	0.340991	-1.627917	-0.113481
O2	O	0.301065	-1.274611	-0.113484
O3	O	0.200596	-1.460922	-0.113481
O4	O	0.441460	-1.441606	-0.113484
O5	O	0.219853	-1.425395	0.113507
O6	O	0.320322	-1.239084	0.113504
O7	O	0.360247	-1.592390	0.113508
Zn8	Zn	0.343342	-1.410096	0.149545
Zn9	Zn	0.317971	-1.456905	-0.149522
O10	O	0.460716	-1.406079	0.113504
C11	C	0.303328	-1.211637	0.000010
C12	C	0.281371	-1.076923	0.000008
C13	C	0.178909	-1.442360	0.000011
C14	C	0.085597	-1.439967	0.000003
N15	N	0.360658	-1.378160	0.353650
C16	C	-0.253446	-1.431369	0.000007
C17	C	-0.226055	-1.298762	-0.000503
C18	C	-0.128960	-1.301076	0.000009
C19	C	-0.085243	-1.435634	0.000004
C20	C	-0.105459	-1.480793	0.129624
C21	C	-0.202588	-1.477442	0.129732
C22	C	-0.224432	-1.520584	-0.128396
C23	C	-0.127636	-1.520821	-0.130109
C24	C	0.009819	-1.438051	0.000007
C25	C	-0.348507	-1.428955	0.000014
C26	C	0.482403	-1.424641	0.000010
C27	C	0.575714	-1.427036	0.000009
C28	C	0.357984	-1.655365	0.000011
C29	C	0.379940	-1.790080	0.000003
C30	C	0.341997	-1.003118	0.000007
C31	C	0.319305	-0.863884	0.000005
N32	N	0.300649	-1.488851	-0.353627
C33	C	0.323989	-1.445785	0.421430
C34	C	0.337324	-1.421215	0.578597
H35	H	-0.116175	-1.264174	-0.092908
H36	H	0.448650	-0.829963	0.000012
H37	H	0.259377	-1.564938	0.588054
H38	H	0.410702	-1.043008	0.000014
C39	C	0.226486	-0.810013	-0.000002
H40	H	0.223410	-0.723501	-0.000013
H41	H	0.206104	-0.824256	0.079150
H42	H	0.192683	-0.849036	-0.079171
H43	H	0.401920	-1.302069	0.411975
H44	H	0.212664	-1.037037	-0.000026
H45	H	-0.241521	-1.618551	-0.129270
C46	C	-0.065703	-1.613319	0.136145
H47	H	-0.078711	-1.638785	0.215274
H48	H	-0.005886	-1.615037	0.140028
H49	H	-0.088002	-1.667902	0.057153
C50	C	0.268240	-1.548573	0.342656
H51	H	0.246959	-1.587809	0.405561
H52	H	0.301200	-1.607889	0.286897
H53	H	0.222153	-1.513424	0.286928
H54	H	-0.098149	-1.620171	-0.137938
C55	C	-0.111474	-1.476552	-0.259654
H56	H	-0.079022	-1.406453	-0.234565
H57	H	-0.164185	-1.454711	-0.310550
H58	H	-0.081223	-1.541183	-0.313756
H59	H	0.378589	-1.345120	0.636917
H60	H	-0.245765	-1.231496	0.091931
C61	C	-0.272536	-1.246757	-0.126068
H62	H	-0.255118	-1.166685	-0.124471
H63	H	-0.332035	-1.241409	-0.124353
H64	H	-0.259118	-1.300093	-0.206858
C65	C	-0.091188	-1.211450	0.125752
H66	H	-0.135191	-1.173490	0.176728
H67	H	-0.064677	-1.149562	0.096857
H68	H	-0.050398	-1.256016	0.181270
H69	H	-0.219863	-1.414554	0.226628
C70	C	-0.225646	-1.607789	0.137699
H71	H	-0.175665	-1.662551	0.140867
H72	H	-0.264272	-1.636763	0.059541
H73	H	-0.251213	-1.604466	0.217636
H74	H	-0.075746	-1.420240	0.226085
H75	H	-0.259845	-1.492579	-0.226640
