data_functionalizedCrystal
_audit_creation_method	'MofGen! by Chris Wilmer'
_symmetry_space_group_name_H-M	'P1'
_symmetry_Int_Tables_number	1
_symmetry_cell_setting	triclinic
loop_
_symmetry_equiv_pos_as_xyz
  x,y,z
_cell_length_a	11.792254
_cell_length_b	10.540535
_cell_length_c	10.268362
_cell_angle_alpha	89.993370
_cell_angle_beta	89.995475
_cell_angle_gamma	84.361120
loop_
_atom_site_label
_atom_site_type_symbol
_atom_site_fract_x
_atom_site_fract_y
_atom_site_fract_z
O1	O	1.507351	0.174069	-0.108303
O2	O	2.007351	0.674069	0.391697
O3	O	1.177058	0.191984	-0.108307
O4	O	1.677058	0.691984	0.391693
O5	O	1.349743	-0.001705	-0.108292
O6	O	1.849743	0.498295	0.391708
O7	O	1.334666	0.367758	-0.108318
O8	O	1.834666	0.867758	0.391682
O9	O	1.349727	-0.001713	0.108309
O10	O	1.849727	0.498287	0.608309
O11	O	1.177043	0.191976	0.108294
O12	O	1.677043	0.691976	0.608294
O13	O	1.507336	0.174061	0.108297
O14	O	2.007336	0.674061	0.608297
Cu15	Cu	1.342188	0.183018	0.128073
Cu16	Cu	1.842188	0.683018	0.628073
Cu17	Cu	1.342206	0.183027	-0.128082
Cu18	Cu	1.842206	0.683027	0.371918
O19	O	1.334651	0.367750	0.108282
O20	O	1.834651	0.867750	0.608282
C21	C	1.134757	0.190851	-0.000007
C22	C	1.634757	0.690851	0.499993
C23	C	1.008735	0.187474	-0.000008
C24	C	1.508735	0.687474	0.499992
C25	C	0.906391	0.184729	-0.000013
C26	C	1.406391	0.684729	0.499987
C27	C	0.777996	0.181297	-0.000014
C28	C	1.277996	0.681297	0.499986
C29	C	1.348605	-0.049008	0.000009
C30	C	1.848605	0.450992	0.500009
C31	C	1.345226	-0.189946	0.000011
C32	C	1.845226	0.310054	0.500011
C33	C	1.219145	-0.226212	0.000000
C34	C	1.719145	0.273788	0.500000
C35	C	1.215589	-0.372801	-0.000515
C36	C	1.715589	0.127199	0.499485
C37	C	1.402789	-0.399450	-0.123467
C38	C	1.902789	0.100550	0.376533
C39	C	1.405471	-0.252693	-0.123548
C40	C	1.905471	0.247307	0.376452
C41	C	1.407288	-0.252847	0.122777
C42	C	1.907288	0.247153	0.622777
C43	C	1.401457	-0.399175	0.124376
C44	C	1.901457	0.100825	0.624376
C45	C	1.549637	0.175194	-0.000006
C46	C	2.049637	0.675194	0.499994
C47	C	1.675659	0.178571	-0.000013
C48	C	2.175659	0.678571	0.499987
C49	C	1.335788	0.415053	-0.000021
C50	C	1.835788	0.915053	0.499979
C51	C	1.339168	0.555991	-0.000032
C52	C	1.839168	1.055991	0.499968
N53	N	1.342184	0.183010	0.308239
N54	N	1.842184	0.683010	0.808239
N55	N	1.342219	0.183025	-0.308248
N56	N	1.842219	0.683025	0.191752
C57	C	1.342200	0.183025	0.573909
C58	C	1.842200	0.683025	1.073909
C59	C	1.342187	0.183020	0.426071
C60	C	1.842187	0.683020	0.926071
H61	H	1.165823	-0.401989	0.087943
H62	H	1.665823	0.098011	0.587943
H63	H	1.491653	-0.448500	0.132202
H64	H	1.991653	0.051500	0.632202
H65	H	1.497900	-0.229958	-0.128803
H66	H	1.997900	0.270042	0.371197
H67	H	1.493778	-0.447098	-0.127711
H68	H	1.993778	0.052902	0.372289
H69	H	1.500049	-0.230949	0.123981
H70	H	2.000049	0.269051	0.623981
H71	H	1.359151	-0.430199	-0.215688
H72	H	1.859151	0.069801	0.284312
H73	H	1.171546	-0.182591	-0.088389
H74	H	1.671546	0.317409	0.411611
H75	H	1.170723	-0.184098	0.088510
H76	H	1.670723	0.315902	0.588510
H77	H	1.355160	-0.427643	0.215696
H78	H	1.855160	0.072357	0.715696
H79	H	1.166095	-0.401084	-0.089531
H80	H	1.666095	0.098916	0.410469
H81	H	1.362518	-0.212373	-0.216173
H82	H	1.862518	0.287627	0.283827
H83	H	1.367939	-0.210273	0.216374
H84	H	1.867939	0.289727	0.716374
