data_functionalizedCrystal
_audit_creation_method	'MofGen! by Chris Wilmer'
_symmetry_space_group_name_H-M	'P1'
_symmetry_Int_Tables_number	1
_symmetry_cell_setting	triclinic
loop_
_symmetry_equiv_pos_as_xyz
  x,y,z
_cell_length_a	8.597340
_cell_length_b	13.262508
_cell_length_c	7.681481
_cell_angle_alpha	100.048420
_cell_angle_beta	103.474906
_cell_angle_gamma	82.751928
loop_
_atom_site_label
_atom_site_type_symbol
_atom_site_fract_x
_atom_site_fract_y
_atom_site_fract_z
O1	O	2.107705	0.140579	0.240679
O2	O	1.644549	0.156775	0.178164
O3	O	1.880541	0.000698	0.139227
O4	O	1.871713	0.296656	0.279615
O5	O	1.909586	-0.018556	0.427271
O6	O	1.673594	0.137521	0.466208
O7	O	2.136749	0.121325	0.528723
Zn8	Zn	1.909783	0.126366	0.543199
Zn9	Zn	1.871516	0.151734	0.163688
O10	O	1.900757	0.277402	0.567660
C11	C	1.599651	0.146482	0.312851
C12	C	1.422595	0.144483	0.285030
C13	C	1.891898	-0.046801	0.264629
C14	C	1.882445	-0.159647	0.209144
C15	C	1.919120	-0.519738	0.680810
C16	C	1.927989	-0.413712	0.732942
C17	C	1.916604	-0.350191	0.601997
C18	C	1.896348	-0.392705	0.418911
C19	C	1.887465	-0.498740	0.366773
C20	C	1.884949	-0.329193	0.287960
C21	C	1.864693	-0.371708	0.104875
C22	C	1.855812	-0.477733	0.052746
C23	C	1.867197	-0.541254	0.183691
C24	C	1.893832	-0.223158	0.340098
C25	C	1.862177	-0.202161	0.026061
C26	C	1.853308	-0.308186	-0.026070
C27	C	2.181648	0.131619	0.394032
C28	C	2.358702	0.133619	0.421842
C29	C	1.889401	0.324901	0.442254
C30	C	1.898852	0.437748	0.497728
N31	N	1.935911	0.109052	0.802206
N32	N	1.845400	0.169040	-0.095321
H33	H	1.439456	0.125839	0.560260
F34	F	1.317041	0.154638	0.104086
H35	H	1.753007	0.230268	0.844785
H36	H	1.859985	-0.627590	0.141255
H37	H	1.923824	-0.263861	0.644453
F38	F	1.915391	-0.177924	0.534944
H39	H	1.839304	-0.512343	-0.096336
H40	H	2.028322	0.047827	0.862113
H41	H	1.944499	-0.379106	0.882011
F42	F	1.850033	-0.134560	-0.113314
F43	F	1.831753	-0.353447	-0.220919
F44	F	1.931209	-0.587344	0.820146
