data_functionalizedCrystal
_audit_creation_method	'MofGen! by Chris Wilmer'
_symmetry_space_group_name_H-M	'P1'
_symmetry_Int_Tables_number	1
_symmetry_cell_setting	triclinic
loop_
_symmetry_equiv_pos_as_xyz
  x,y,z
_cell_length_a	14.971486
_cell_length_b	14.971486
_cell_length_c	13.448316
_cell_angle_alpha	89.999879
_cell_angle_beta	90.003864
_cell_angle_gamma	96.385871
loop_
_atom_site_label
_atom_site_type_symbol
_atom_site_fract_x
_atom_site_fract_y
_atom_site_fract_z
O1	O	0.116561	-1.186946	0.082578
O2	O	0.616561	-0.686946	0.582578
O3	O	0.130520	-0.926545	0.082605
O4	O	0.630520	-0.426545	0.582605
O5	O	-0.006660	-1.063725	0.082584
O6	O	0.493340	-0.563725	0.582584
O7	O	0.253741	-1.049766	0.082599
O8	O	0.753741	-0.549766	0.582599
O9	O	-0.006661	-1.063711	-0.082800
O10	O	0.493339	-0.563711	0.417200
O11	O	0.130519	-0.926532	-0.082779
O12	O	0.630519	-0.426532	0.417221
O13	O	0.116560	-1.186932	-0.082806
O14	O	0.616560	-0.686932	0.417194
Cu15	Cu	0.123539	-1.056731	-0.097893
Cu16	Cu	0.623539	-0.556731	0.402107
Cu17	Cu	0.123541	-1.056747	0.097692
Cu18	Cu	0.623541	-0.556747	0.597692
O19	O	0.253739	-1.049752	-0.082784
O20	O	0.753739	-0.549752	0.417216
C21	C	-0.039985	-1.063094	-0.000108
C22	C	0.460015	-0.563094	0.499892
C23	C	-0.139282	-1.061223	-0.000107
C24	C	0.360718	-0.561223	0.499893
C25	C	0.129895	-0.893214	-0.000083
C26	C	0.629895	-0.393214	0.499917
C27	C	0.128024	-0.793917	-0.000073
C28	C	0.628024	-0.293917	0.499927
C29	C	0.117185	-1.220263	-0.000115
C30	C	0.617185	-0.720263	0.499885
C31	C	0.119056	-1.319561	-0.000119
C32	C	0.619056	-0.819561	0.499881
C33	C	-0.196507	-1.141812	-0.000116
C34	C	0.303493	-0.641812	0.499884
C35	C	-0.289807	-1.140049	-0.000106
C36	C	0.210193	-0.640049	0.499894
C37	C	-0.325879	-1.057696	-0.000093
C38	C	0.174121	-0.557696	0.499907
C39	C	-0.268646	-0.977101	-0.000081
C40	C	0.231354	-0.477101	0.499919
C41	C	-0.175349	-0.978865	-0.000084
C42	C	0.324651	-0.478865	0.499916
C43	C	-0.463109	-0.973430	-0.000077
C44	C	0.036891	-0.473430	0.499923
C45	C	-0.556413	-0.971665	-0.000076
C46	C	-0.056413	-0.471665	0.499924
C47	C	-0.577567	-1.134614	-0.000099
C48	C	-0.077567	-0.634614	0.499901
C49	C	-0.484269	-1.136378	-0.000102
C50	C	0.015731	-0.636378	0.499898
C51	C	-0.427043	-1.055782	-0.000091
C52	C	0.072957	-0.555782	0.499909
C53	C	0.287065	-1.050384	-0.000091
C54	C	0.787065	-0.550384	0.499909
C55	C	0.386362	-1.052254	-0.000085
C56	C	0.886362	-0.552254	0.499915
N57	N	0.123538	-1.056726	-0.235457
N58	N	0.623538	-0.556726	0.264543
C59	C	0.208614	-0.736692	-0.000070
C60	C	0.708614	-0.236692	0.499930
C61	C	0.206850	-0.643392	-0.000085
C62	C	0.706850	-0.143392	0.499915
C63	C	0.124497	-0.607320	-0.000096
C64	C	0.624497	-0.107320	0.499904
C65	C	0.043902	-0.664552	-0.000102
C66	C	0.543902	-0.164552	0.499898
C67	C	0.045666	-0.757850	-0.000095
C68	C	0.545666	-0.257850	0.499905
C69	C	0.040231	-0.470090	-0.000116
C70	C	0.540231	0.029910	0.499884
C71	C	0.038466	-0.376786	-0.000122
C72	C	0.538466	0.123214	0.499878
C73	C	0.201415	-0.355632	-0.000106
C74	C	0.701415	0.144368	0.499894
C75	C	0.203179	-0.448930	-0.000099
C76	C	0.703179	0.051070	0.499901
C77	C	0.122584	-0.506156	-0.000103
C78	C	0.622584	-0.006156	0.499897
C79	C	0.177879	-1.111028	-0.287496
C80	C	0.677879	-0.611028	0.212504
C81	C	0.177875	-1.111039	-0.391599
C82	C	0.677875	-0.611039	0.108401
C83	C	0.123534	-1.056743	-0.443662
C84	C	0.623534	-0.556743	0.056338
C85	C	0.069187	-1.002438	-0.391616
C86	C	0.569187	-0.502438	0.108384
C87	C	0.069186	-1.002432	-0.287515
C88	C	0.569186	-0.502432	0.212485
C89	C	0.069193	-1.002452	-0.608596
C90	C	0.569193	-0.502452	-0.108596
C91	C	0.069194	-1.002456	-0.712705
C92	C	0.569194	-0.502456	-0.212705
C93	C	0.177881	-1.111059	-0.712681
C94	C	0.677881	-0.611059	-0.212681
C95	C	0.177881	-1.111053	-0.608579
C96	C	0.677881	-0.611053	-0.108579
C97	C	0.123535	-1.056747	-0.556541
C98	C	0.623535	-0.556747	-0.056541
N99	N	0.123535	-1.056759	0.235257
N100	N	0.623535	-0.556759	0.735257
H101	H	-0.167145	-1.208874	-0.000132
H102	H	0.332855	-0.708874	0.499868
Br103	Br	0.251627	-1.184739	-0.462220
Br104	Br	0.751627	-0.684739	0.037780
Br105	Br	-0.063710	-0.835515	-0.000108
Br106	Br	0.436290	-0.335515	0.499892
Br107	Br	-0.067865	-0.615598	-0.000128
Br108	Br	0.432135	-0.115598	0.499872
Br109	Br	0.251655	-1.184717	-0.537923
Br110	Br	0.751655	-0.684717	-0.037923
H111	H	-0.128756	-0.913240	-0.000077
H112	H	0.371244	-0.413240	0.499923
Br113	Br	0.310796	-0.277969	-0.000099
Br114	Br	0.810796	0.222031	0.499901
H115	H	-0.025399	-0.516682	-0.000121
H116	H	0.474601	-0.016682	0.499879
H117	H	-0.028593	-0.347419	-0.000133
H118	H	0.471407	0.152581	0.499867
Br119	Br	-0.385445	-0.864048	-0.000060
Br120	Br	0.114555	-0.364048	0.499940
Br121	Br	-0.004581	-0.928768	-0.537973
Br122	Br	0.495419	-0.428768	-0.037973
Br123	Br	0.251635	-1.184717	-0.216849
Br124	Br	0.751635	-0.684717	0.283151
Br125	Br	-0.004566	-0.928752	-0.462272
Br126	Br	0.495434	-0.428752	0.037728
Br127	Br	-0.004578	-0.928746	-0.216889
Br128	Br	0.495422	-0.428746	0.283111
H129	H	0.275675	-0.766054	-0.000060
H130	H	0.775675	-0.266054	0.499940
Br131	Br	0.251636	-1.184762	-0.783303
Br132	Br	0.751636	-0.684762	-0.283303
H133	H	-0.336396	-1.205673	-0.000115
H134	H	0.163604	-0.705673	0.499885
Br135	Br	-0.004559	-0.928771	-0.783362
Br136	Br	0.495441	-0.428771	-0.283362
H137	H	0.272474	-0.596802	-0.000081
H138	H	0.772474	-0.096802	0.499919
H139	H	-0.298024	-0.910047	-0.000065
H140	H	0.201976	-0.410047	0.499935
H141	H	-0.454903	-1.203437	-0.000119
H142	H	0.045097	-0.703437	0.499881
H143	H	-0.624165	-1.200238	-0.000104
H144	H	-0.124165	-0.700238	0.499896
Br145	Br	-0.605368	-0.859899	-0.000064
Br146	Br	-0.105368	-0.359899	0.499936
Br147	Br	0.314946	-0.497885	-0.000068
Br148	Br	0.814946	0.002115	0.499932
