data_functionalizedCrystal
_audit_creation_method	'MofGen! by Chris Wilmer'
_symmetry_space_group_name_H-M	'P1'
_symmetry_Int_Tables_number	1
_symmetry_cell_setting	triclinic
loop_
_symmetry_equiv_pos_as_xyz
  x,y,z
_cell_length_a	17.000383
_cell_length_b	17.038272
_cell_length_c	14.586319
_cell_angle_alpha	89.995924
_cell_angle_beta	89.993336
_cell_angle_gamma	83.355929
loop_
_atom_site_label
_atom_site_type_symbol
_atom_site_fract_x
_atom_site_fract_y
_atom_site_fract_z
O1	O	1.057999	0.028051	-0.076304
O2	O	1.307999	0.278051	0.173696
O3	O	1.557999	0.528051	0.423696
O4	O	1.807999	0.778051	0.673696
O5	O	0.828179	0.056294	-0.076292
O6	O	1.078179	0.306294	0.173708
O7	O	1.328179	0.556294	0.423708
O8	O	1.578179	0.806294	0.673708
O9	O	0.941723	-0.071549	-0.076290
O10	O	1.191723	0.178451	0.173710
O11	O	1.441723	0.428451	0.423710
O12	O	1.691723	0.678451	0.673710
O13	O	0.944455	0.155895	-0.076305
O14	O	1.194455	0.405895	0.173695
O15	O	1.444455	0.655895	0.423695
O16	O	1.694455	0.905895	0.673695
O17	O	0.941714	-0.071550	0.076190
O18	O	1.191714	0.178450	0.326190
O19	O	1.441714	0.428450	0.576190
O20	O	1.691714	0.678450	0.826190
O21	O	0.828170	0.056293	0.076189
O22	O	1.078170	0.306293	0.326189
O23	O	1.328170	0.556293	0.576189
O24	O	1.578170	0.806293	0.826189
O25	O	1.057990	0.028050	0.076177
O26	O	1.307990	0.278050	0.326177
O27	O	1.557990	0.528050	0.576177
O28	O	1.807990	0.778050	0.826177
Cu29	Cu	0.943079	0.042171	0.090106
Cu30	Cu	1.193079	0.292171	0.340106
Cu31	Cu	1.443079	0.542171	0.590106
Cu32	Cu	1.693079	0.792171	0.840106
Cu33	Cu	0.943089	0.042173	-0.090221
Cu34	Cu	1.193089	0.292173	0.159779
Cu35	Cu	1.443089	0.542173	0.409779
Cu36	Cu	1.693089	0.792173	0.659779
O37	O	0.944446	0.155893	0.076176
O38	O	1.194446	0.405893	0.326176
O39	O	1.444446	0.655893	0.576176
O40	O	1.694446	0.905893	0.826176
C41	C	0.798624	0.057810	-0.000050
C42	C	1.048624	0.307810	0.249950
C43	C	1.298624	0.557810	0.499950
C44	C	1.548624	0.807810	0.749950
C45	C	0.710571	0.062321	-0.000045
C46	C	0.960571	0.312321	0.249955
C47	C	1.210571	0.562321	0.499955
C48	C	1.460571	0.812321	0.749955
C49	C	0.212326	0.091445	-0.000082
C50	C	0.462326	0.341445	0.249918
C51	C	0.712326	0.591445	0.499918
C52	C	0.962326	0.841445	0.749918
C53	C	0.295061	0.087201	-0.000081
C54	C	0.545061	0.337201	0.249919
C55	C	0.795061	0.587201	0.499919
C56	C	1.045061	0.837201	0.749919
C57	C	0.341068	0.013535	-0.000069
C58	C	0.591068	0.263535	0.249931
C59	C	0.841068	0.513535	0.499931
C60	C	1.091068	0.763535	0.749931
C61	C	0.304335	-0.055892	-0.000067
C62	C	0.554335	0.194108	0.249933
C63	C	0.804335	0.444108	0.499933
C64	C	1.054335	0.694108	0.749933
C65	C	0.221601	-0.051647	-0.000075
C66	C	0.471601	0.198353	0.249925
C67	C	0.721601	0.448353	0.499925
C68	C	0.971601	0.698353	0.749925
C69	C	0.591103	-0.002861	-0.000052
C70	C	0.841103	0.247139	0.249948
C71	C	1.091103	0.497139	0.499948
C72	C	1.341103	0.747139	0.749948
C73	C	0.673843	-0.007101	-0.000041
C74	C	0.923843	0.242899	0.249959
C75	C	1.173843	0.492899	0.499959
C76	C	1.423843	0.742899	0.749959
C77	C	0.664564	0.135993	-0.000056
C78	C	0.914564	0.385993	0.249944
C79	C	1.164564	0.635993	0.499944
C80	C	1.414564	0.885993	0.749944
C81	C	0.581828	0.140231	-0.000058
C82	C	0.831828	0.390231	0.249942
C83	C	1.081828	0.640231	0.499942
C84	C	1.331828	0.890231	0.749942
C85	C	0.545103	0.070804	-0.000062
C86	C	0.795103	0.320804	0.249938
C87	C	1.045103	0.570804	0.499938
C88	C	1.295103	0.820804	0.749938
C89	C	0.425637	0.009195	-0.000065
C90	C	0.675637	0.259195	0.249935
C91	C	0.925637	0.509195	0.499935
C92	C	1.175637	0.759195	0.749935
C93	C	0.460535	0.075145	-0.000072
C94	C	0.710535	0.325145	0.249928
C95	C	0.960535	0.575145	0.499928
C96	C	1.210535	0.825145	0.749928
C97	C	0.939234	-0.100508	-0.000050
C98	C	1.189234	0.149492	0.249950
C99	C	1.439234	0.399492	0.499950
C100	C	1.689234	0.649492	0.749950
C101	C	0.931821	-0.186793	-0.000050
C102	C	1.181821	0.063207	0.249950
C103	C	1.431821	0.313207	0.499950
C104	C	1.681821	0.563207	0.749950
C105	C	0.999879	-0.241568	-0.000052
C106	C	1.249879	0.008432	0.249948
C107	C	1.499879	0.258432	0.499948
C108	C	1.749879	0.508432	0.749948
C109	C	0.992910	-0.322641	-0.000061
C110	C	1.242910	-0.072641	0.249939
C111	C	1.492910	0.177359	0.499939
C112	C	1.742910	0.427359	0.749939
C113	C	0.917881	-0.348938	-0.000060
C114	C	1.167881	-0.098938	0.249940
C115	C	1.417881	0.151062	0.499940
C116	C	1.667881	0.401062	0.749940
C117	C	0.849817	-0.294156	-0.000060
C118	C	1.099817	-0.044156	0.249940
C119	C	1.349817	0.205844	0.499940
C120	C	1.599817	0.455844	0.749940
C121	C	0.856788	-0.213085	-0.000059
C122	C	1.106788	0.036915	0.249941
C123	C	1.356788	0.286915	0.499941
C124	C	1.606788	0.536915	0.749941
C125	C	0.893255	-0.593009	-0.000071
C126	C	1.143255	-0.343009	0.249929
C127	C	1.393255	-0.093009	0.499929
C128	C	1.643255	0.156991	0.749929
C129	C	0.886289	-0.674088	-0.000070
C130	C	1.136289	-0.424088	0.249930
C131	C	1.386289	-0.174088	0.499930
C132	C	1.636289	0.075912	0.749930
C133	C	1.029382	-0.702567	-0.000073
C134	C	1.279382	-0.452567	0.249927
C135	C	1.529382	-0.202567	0.499927
C136	C	1.779382	0.047433	0.749927
C137	C	1.036346	-0.621493	-0.000065
C138	C	1.286346	-0.371493	0.249935
C139	C	1.536346	-0.121493	0.499935
C140	C	1.786346	0.128507	0.749935
C141	C	0.968283	-0.566718	-0.000070
C142	C	1.218283	-0.316718	0.249930
C143	C	1.468283	-0.066718	0.499930
C144	C	1.718283	0.183282	0.749930
C145	C	0.910755	-0.431807	-0.000066
C146	C	1.160755	-0.181807	0.249934
C147	C	1.410755	0.068193	0.499934
C148	C	1.660755	0.318193	0.749934
C149	C	0.975410	-0.483850	-0.000071
C150	C	1.225410	-0.233850	0.249929
C151	C	1.475410	0.016150	0.499929
C152	C	1.725410	0.266150	0.749929
C153	C	1.087545	0.026534	-0.000067
C154	C	1.337545	0.276534	0.249933
C155	C	1.587545	0.526534	0.499933
C156	C	1.837545	0.776534	0.749933
C157	C	1.175598	0.022024	-0.000077
C158	C	1.425598	0.272024	0.249923
C159	C	1.675598	0.522024	0.499923
C160	C	1.925598	0.772024	0.749923
C161	C	0.946935	0.184852	-0.000067
C162	C	1.196935	0.434852	0.249933
C163	C	1.446935	0.684852	0.499933
C164	C	1.696935	0.934852	0.749933
C165	C	0.954348	0.271137	-0.000073
C166	C	1.204348	0.521137	0.249927
C167	C	1.454348	0.771137	0.499927
C168	C	1.704348	1.021137	0.749927
N169	N	0.943078	0.042170	0.216937
N170	N	1.193078	0.292170	0.466937
N171	N	1.443078	0.542170	0.716937
N172	N	1.693078	0.792170	0.966937
N173	N	0.943097	0.042168	-0.217052
N174	N	1.193097	0.292168	0.032948
N175	N	1.443097	0.542168	0.282948
N176	N	1.693097	0.792168	0.532948
C177	C	0.993374	-0.014423	0.451945
C178	C	1.243374	0.235577	0.701945
C179	C	1.493374	0.485577	0.951945
C180	C	1.743374	0.735577	1.201945
C181	C	0.993376	-0.014425	0.547926
C182	C	1.243376	0.235575	0.797926
C183	C	1.493376	0.485575	1.047926
C184	C	1.743376	0.735575	1.297926
C185	C	0.892795	0.098764	0.547934
C186	C	1.142795	0.348764	0.797934
C187	C	1.392795	0.598764	1.047934
C188	C	1.642795	0.848764	1.297934
C189	C	0.892789	0.098761	0.451954
C190	C	1.142789	0.348761	0.701954
C191	C	1.392789	0.598761	0.951954
C192	C	1.642789	0.848761	1.201954
C193	C	0.943083	0.042169	0.403962
C194	C	1.193083	0.292169	0.653962
C195	C	1.443083	0.542169	0.903962
C196	C	1.693083	0.792169	1.153962
C197	C	0.943091	0.042169	0.595923
C198	C	1.193091	0.292169	0.845923
C199	C	1.443091	0.542169	1.095923
C200	C	1.693091	0.792169	1.345923
C201	C	0.943093	0.042167	0.699990
C202	C	1.193093	0.292167	0.949990
C203	C	1.443093	0.542167	1.199990
C204	C	1.693093	0.792167	1.449990
C205	C	0.943081	0.042169	0.299888
C206	C	1.193081	0.292169	0.549888
C207	C	1.443081	0.542169	0.799888
C208	C	1.693081	0.792169	1.049888
H209	H	0.711300	-0.067092	-0.000036
H210	H	0.961300	0.182908	0.249964
H211	H	1.211300	0.432908	0.499964
H212	H	1.461300	0.682908	0.749964
H213	H	1.034326	-0.060505	0.412872
H214	H	1.284326	0.189495	0.662872
H215	H	1.534326	0.439495	0.912872
H216	H	1.784326	0.689495	1.162872
N217	N	0.532208	0.219685	0.000051
N218	N	0.782208	0.469685	0.250051
N219	N	1.032208	0.719685	0.500051
N220	N	1.282208	0.969685	0.750051
H221	H	0.568030	0.263021	0.000087
H222	H	0.818030	0.513021	0.250087
H223	H	1.068030	0.763021	0.500087
H224	H	1.318030	1.013021	0.750087
H225	H	0.497641	0.224635	-0.056439
H226	H	0.747641	0.474635	0.193561
H227	H	0.997641	0.724635	0.443561
H228	H	1.247641	0.974635	0.693561
H229	H	0.561212	-0.059393	-0.000052
H230	H	0.811212	0.190607	0.249948
H231	H	1.061212	0.440607	0.499948
H232	H	1.311212	0.690607	0.749948
H233	H	0.463105	-0.050784	-0.000052
H234	H	0.713105	0.199216	0.249948
H235	H	0.963105	0.449216	0.499948
H236	H	1.213105	0.699216	0.749948
H237	H	0.341800	-0.115872	-0.000063
H238	H	0.591800	0.134128	0.249937
H239	H	0.841800	0.384128	0.499937
H240	H	1.091800	0.634128	0.749937
H241	H	0.191699	-0.108177	-0.000073
H242	H	0.441699	0.141823	0.249927
H243	H	0.691699	0.391823	0.499927
H244	H	0.941699	0.641823	0.749927
N245	N	0.704182	0.210866	-0.000067
N246	N	0.954182	0.460866	0.249933
N247	N	1.204182	0.710866	0.499933
N248	N	1.454182	0.960866	0.749933
H249	H	0.687764	0.242877	-0.056598
H250	H	0.937764	0.492877	0.193402
H251	H	1.187764	0.742877	0.443402
H252	H	1.437764	0.992877	0.693402
H253	H	0.687736	0.242827	0.056489
H254	H	0.937736	0.492827	0.306489
H255	H	1.187736	0.742827	0.556489
H256	H	1.437736	0.992827	0.806489
H257	H	0.423073	0.135124	-0.000086
H258	H	0.673073	0.385124	0.249914
H259	H	0.923073	0.635124	0.499914
H260	H	1.173073	0.885124	0.749914
H261	H	1.034327	-0.060508	0.586990
H262	H	1.284327	0.189492	0.836990
H263	H	1.534327	0.439492	1.086990
H264	H	1.784327	0.689492	1.336990
H265	H	0.851847	0.144841	0.587019
H266	H	1.101847	0.394841	0.837019
H267	H	1.351847	0.644841	1.087019
H268	H	1.601847	0.894841	1.337019
H269	H	1.060976	-0.220165	-0.000047
H270	H	1.310976	0.029835	0.249953
H271	H	1.560976	0.279835	0.499953
H272	H	1.810976	0.529835	0.749953
N273	N	0.838542	0.159807	0.400204
N274	N	1.088542	0.409807	0.650204
N275	N	1.338542	0.659807	0.900204
N276	N	1.588542	0.909807	1.150204
H277	H	0.871145	0.192199	0.360368
H278	H	1.121145	0.442199	0.610368
H279	H	1.371145	0.692199	0.860368
H280	H	1.621145	0.942199	1.110368
H281	H	0.801458	0.132401	0.360448
H282	H	1.051458	0.382401	0.610448
H283	H	1.301458	0.632401	0.860448
H284	H	1.551458	0.882401	1.110448
H285	H	1.097443	-0.600089	-0.000066
H286	H	1.347443	-0.350089	0.249934
H287	H	1.597443	-0.100089	0.499934
H288	H	1.847443	0.149911	0.749934
N289	N	1.066315	-0.381721	-0.000058
N290	N	1.316315	-0.131721	0.249942
N291	N	1.566315	0.118279	0.499942
N292	N	1.816315	0.368279	0.749942
H293	H	1.114902	-0.352760	-0.000050
H294	H	1.364902	-0.102760	0.249950
H295	H	1.614902	0.147240	0.499950
H296	H	1.864902	0.397240	0.749950
H297	H	1.066529	-0.415980	0.056468
H298	H	1.316529	-0.165980	0.306468
H299	H	1.566529	0.084020	0.556468
H300	H	1.816529	0.334020	0.806468
H301	H	0.174873	0.151432	-0.000084
H302	H	0.424873	0.401432	0.249916
H303	H	0.674873	0.651432	0.499916
H304	H	0.924873	0.901432	0.749916
H305	H	1.084795	-0.747173	-0.000070
H306	H	1.334795	-0.497173	0.249930
H307	H	1.584795	-0.247173	0.499930
H308	H	1.834795	0.002827	0.749930
N309	N	0.805362	-0.702453	-0.000071
N310	N	1.055362	-0.452453	0.249929
N311	N	1.305362	-0.202453	0.499929
N312	N	1.555362	0.047547	0.749929
H313	H	0.763301	-0.655452	-0.000077
H314	H	1.013301	-0.405452	0.249923
H315	H	1.263301	-0.155452	0.499923
H316	H	1.513301	0.094548	0.749923
H317	H	0.799365	-0.735470	-0.056597
H318	H	1.049365	-0.485470	0.193403
H319	H	1.299365	-0.235470	0.443403
H320	H	1.549365	0.014530	0.693403
H321	H	0.837832	-0.548421	-0.000075
H322	H	1.087832	-0.298421	0.249925
H323	H	1.337832	-0.048421	0.499925
H324	H	1.587832	0.201579	0.749925
N325	N	0.334676	0.162076	-0.000100
N326	N	0.584676	0.412076	0.249900
N327	N	0.834676	0.662076	0.499900
N328	N	1.084676	0.912076	0.749900
H329	H	0.292976	0.209387	-0.000108
H330	H	0.542976	0.459387	0.249892
H331	H	0.792976	0.709387	0.499892
H332	H	1.042976	0.959387	0.749892
H333	H	0.368797	0.163440	0.056423
H334	H	0.618797	0.413440	0.306423
H335	H	0.868797	0.663440	0.556423
H336	H	1.118797	0.913440	0.806423
H337	H	0.801367	-0.168486	-0.000057
H338	H	1.051367	0.081514	0.249943
H339	H	1.301367	0.331514	0.499943
H340	H	1.551367	0.581514	0.749943
N341	N	0.768892	-0.322514	-0.000066
N342	N	1.018892	-0.072514	0.249934
N343	N	1.268892	0.177486	0.499934
N344	N	1.518892	0.427486	0.749934
H345	H	0.774801	-0.382185	-0.000064
H346	H	1.024801	-0.132185	0.249936
H347	H	1.274801	0.117815	0.499936
H348	H	1.524801	0.367815	0.749936
H349	H	0.738864	-0.302126	0.056462
H350	H	0.988864	-0.052126	0.306462
H351	H	1.238864	0.197874	0.556462
H352	H	1.488864	0.447874	0.806462
N353	N	1.056330	-0.455488	-0.000065
N354	N	1.306330	-0.205488	0.249935
N355	N	1.556330	0.044512	0.499935
N356	N	1.806330	0.294512	0.749935
H357	H	1.086386	-0.475825	0.056463
H358	H	1.336386	-0.225825	0.306463
H359	H	1.586386	0.024175	0.556463
H360	H	1.836386	0.274175	0.806463
H361	H	1.086343	-0.475821	-0.056624
H362	H	1.336343	-0.225821	0.193376
H363	H	1.586343	0.024179	0.443376
H364	H	1.836343	0.274179	0.693376
N365	N	0.829830	-0.460168	-0.000057
N366	N	1.079830	-0.210168	0.249943
N367	N	1.329830	0.039832	0.499943
N368	N	1.579830	0.289832	0.749943
H369	H	0.823753	-0.493166	-0.056582
H370	H	1.073753	-0.243166	0.193418
H371	H	1.323753	0.006834	0.443418
H372	H	1.573753	0.256834	0.693418
H373	H	0.823802	-0.493140	0.056505
H374	H	1.073802	-0.243140	0.306505
H375	H	1.323802	0.006860	0.556505
H376	H	1.573802	0.256860	0.806505
