data_functionalizedCrystal
_audit_creation_method	'MofGen! by Chris Wilmer'
_symmetry_space_group_name_H-M	'P1'
_symmetry_Int_Tables_number	1
_symmetry_cell_setting	triclinic
loop_
_symmetry_equiv_pos_as_xyz
  x,y,z
_cell_length_a	12.759401
_cell_length_b	12.594516
_cell_length_c	12.759393
_cell_angle_alpha	89.969200
_cell_angle_beta	89.981433
_cell_angle_gamma	90.010860
loop_
_atom_site_label
_atom_site_type_symbol
_atom_site_fract_x
_atom_site_fract_y
_atom_site_fract_z
Zn1	Zn	1.606276	-0.423706	-0.593989
Zn2	Zn	1.606180	-0.601726	-0.418311
Zn3	Zn	1.430578	-0.423759	-0.418328
Zn4	Zn	1.430576	-0.601640	-0.593953
O5	O	1.518403	-0.512708	-0.506145
O6	O	1.753285	-0.447335	-0.570693
O7	O	1.582846	-0.578176	-0.271292
O8	O	1.453927	-0.274806	-0.441652
O9	O	1.753213	-0.578125	-0.441624
O10	O	1.583011	-0.274768	-0.570709
O11	O	1.453833	-0.447424	-0.271305
O12	O	1.283557	-0.447341	-0.441617
O13	O	1.453922	-0.577979	-0.740979
O14	O	1.283555	-0.578030	-0.570647
O15	O	1.583009	-0.447252	-0.741005
O16	O	1.582844	-0.750660	-0.441588
O17	O	1.453829	-0.750597	-0.570631
C18	C	1.245435	-0.512683	-0.506131
C19	C	1.128659	-0.512698	-0.506149
C20	C	1.073827	-0.444724	-0.573460
C21	C	0.964103	-0.444744	-0.573467
C22	C	0.964052	-0.580722	-0.438849
C23	C	1.073774	-0.580695	-0.438838
C24	C	1.073855	-0.366222	-0.651184
C25	C	0.964131	-0.366242	-0.651190
C26	C	1.518354	-0.789249	-0.506127
C27	C	1.518429	-0.907554	-0.506154
C28	C	1.588682	-0.976803	-0.436043
C29	C	1.614358	-1.047495	-0.531935
C30	C	1.492885	-1.047661	-0.410323
C31	C	1.544154	-0.976688	-0.602097
C32	C	1.422637	-0.976848	-0.480420
C33	C	1.448276	-1.047508	-0.576379
C34	C	1.792436	-0.512734	-0.506161
C35	C	1.909212	-0.512745	-0.506167
C36	C	1.518476	-0.512600	-0.780179
C37	C	1.518507	-0.512555	-0.896955
C38	C	1.518480	-0.235087	-0.506187
C39	C	1.518513	-0.116782	-0.506204
C40	C	1.585732	-0.444479	-0.951833
C41	C	1.585757	-0.444440	-1.061557
C42	C	1.451330	-0.580563	-1.061516
C43	C	1.451300	-0.580595	-0.951794
C44	C	1.663346	-0.365892	-0.951858
C45	C	1.663371	-0.365854	-1.061582
C46	C	1.518390	-0.512738	-0.233178
C47	C	1.518562	-0.512484	-0.116402
H48	H	0.934387	-0.388424	-0.732526
H49	H	1.471245	-1.078835	-0.329259
H50	H	1.744742	-0.387933	-1.091360
C51	C	1.313184	-0.934876	-0.450932
N52	N	1.230745	-0.903257	-0.428709
C53	C	1.114068	-0.254814	-0.621925
N54	N	1.144356	-0.170904	-0.599885
C55	C	0.918131	-0.260409	-0.612016
N56	N	0.883483	-0.180697	-0.582512
C57	C	1.573524	-0.934755	-0.711642
N58	N	1.595650	-0.903168	-0.794148
C59	C	1.119883	-0.406230	-0.755528
N60	N	1.154552	-0.436369	-0.834119
C61	C	1.767748	-0.405785	-0.905872
N62	N	1.846387	-0.435827	-0.871235
C63	C	1.624084	-0.260028	-1.107583
N64	N	1.594506	-0.180318	-1.142232
H65	H	1.695404	-1.078530	-0.553730
C66	C	1.377405	-0.655402	-1.121849
N67	N	1.321722	-0.711773	-1.167291
C68	C	1.633924	-0.254538	-0.911652
N69	N	1.611760	-0.170668	-0.881370
H70	H	1.648102	-0.945756	-0.376805
H71	H	1.388901	-1.078358	-0.635760
H72	H	1.118414	-0.636036	-0.384017
C73	C	0.903669	-0.655518	-0.364814
N74	N	0.858189	-0.711859	-0.309051
C75	C	1.377333	-0.655468	-0.891433
N76	N	1.321615	-0.711863	-0.845969
