data_functionalizedCrystal
_audit_creation_method	'MofGen! by Chris Wilmer'
_symmetry_space_group_name_H-M	'P1'
_symmetry_Int_Tables_number	1
_symmetry_cell_setting	triclinic
loop_
_symmetry_equiv_pos_as_xyz
  x,y,z
_cell_length_a	10.489741
_cell_length_b	8.559649
_cell_length_c	7.681481
_cell_angle_alpha	85.069100
_cell_angle_beta	95.784933
_cell_angle_gamma	77.158919
loop_
_atom_site_label
_atom_site_type_symbol
_atom_site_fract_x
_atom_site_fract_y
_atom_site_fract_z
O1	O	1.656827	0.240139	-0.146313
O2	O	1.283403	0.261279	-0.146340
O3	O	1.503014	0.018485	-0.146322
O4	O	1.437216	0.482933	-0.146331
O5	O	1.530052	-0.011467	0.146538
O6	O	1.310441	0.231327	0.146520
O7	O	1.683864	0.210187	0.146547
Zn8	Zn	1.501445	0.216001	0.193031
Zn9	Zn	1.465823	0.255465	-0.192824
O10	O	1.464253	0.452981	0.146529
C11	C	1.249558	0.244707	0.000087
C12	C	1.108431	0.239932	0.000076
C13	C	1.521519	-0.055963	0.000105
C14	C	1.536361	-0.233171	0.000096
C15	C	1.056559	0.085448	0.000096
C16	C	0.943417	0.173191	-0.144297
C17	C	0.970104	0.143698	0.144440
C18	C	0.997137	0.327750	-0.144436
C19	C	1.023847	0.298222	0.144431
C20	C	0.910718	0.386081	0.000003
C21	C	1.717709	0.226760	0.000116
C22	C	1.858836	0.231536	0.000115
C23	C	1.445748	0.527429	0.000098
C24	C	1.430906	0.704639	0.000095
N25	N	1.525766	0.189068	0.456367
N26	N	1.441513	0.282385	-0.456161
H27	H	1.329266	-0.213034	0.000094
H28	H	1.355509	0.377634	0.468636
N29	N	1.633652	0.069559	0.550726
N30	N	1.612240	-0.040358	0.653637
H31	H	1.688430	-0.124766	0.720278
N32	N	1.135635	-0.073857	-0.000054
N33	N	1.224645	-0.132763	0.123967
H34	H	1.280494	-0.245270	0.123858
N35	N	1.663873	-0.336474	0.000136
N36	N	1.676162	-0.485114	0.000161
H37	H	1.766217	-0.558075	0.000192
H38	H	0.908016	0.120312	-0.266371
N39	N	1.013034	0.425395	-0.297720
N40	N	1.124724	0.444796	-0.322493
H41	H	1.135955	0.513766	-0.430741
N42	N	0.831922	0.545575	-0.000108
N43	N	0.829132	0.651277	-0.124202
H44	H	0.773480	0.763921	-0.124288
H45	H	0.957281	0.065820	0.266513
N46	N	1.068301	0.364481	0.297589
N47	N	1.065617	0.296520	0.447414
H48	H	1.097017	0.343303	0.555597
