data_functionalizedCrystal
_audit_creation_method	'MofGen! by Chris Wilmer'
_symmetry_space_group_name_H-M	'P1'
_symmetry_Int_Tables_number	1
_symmetry_cell_setting	triclinic
loop_
_symmetry_equiv_pos_as_xyz
  x,y,z
_cell_length_a	6.817900
_cell_length_b	15.301048
_cell_length_c	16.418042
_cell_angle_alpha	95.181704
_cell_angle_beta	103.389568
_cell_angle_gamma	104.176180
loop_
_atom_site_label
_atom_site_type_symbol
_atom_site_fract_x
_atom_site_fract_y
_atom_site_fract_z
V1	V	-4.029047	-0.125493	-0.261413
O2	O	-4.012948	0.005276	-0.256171
O3	O	-3.983980	-0.248106	-0.259881
O4	O	-3.980077	-0.123893	-0.375308
O5	O	-4.016878	-0.119796	-0.139945
V6	V	-4.512316	-0.109812	-0.246854
O7	O	-4.290860	-0.159890	-0.293351
O8	O	-4.700700	-0.075416	-0.214916
O9	O	-4.334176	0.012801	-0.248386
O10	O	-4.645812	-0.240581	-0.252096
O11	O	-4.641881	-0.115509	-0.368322
O12	O	-4.338080	-0.111412	-0.132959
C13	C	-3.829810	-0.277986	-0.255823
C14	C	-3.874246	-0.378226	-0.255329
C15	C	-4.025355	-0.796899	-0.176443
C16	C	-3.983597	-0.702714	-0.176912
C17	C	-4.002990	-0.668716	-0.253879
C18	C	-4.064125	-0.728910	-0.330383
C19	C	-4.105868	-0.823093	-0.329913
C20	C	-3.977123	-0.532601	-0.331357
C21	C	-3.935381	-0.438412	-0.331827
C22	C	-3.854852	-0.412222	-0.178356
C23	C	-3.896595	-0.506405	-0.177886
C24	C	-3.957731	-0.566592	-0.254390
C25	C	-3.824830	-0.119539	-0.403061
C26	C	-3.866097	-0.119043	-0.496172
C27	C	-4.143211	-0.122397	-0.714665
C28	C	-4.181967	-0.121923	-0.802151
C29	C	-3.817508	-0.112903	-0.793590
C30	C	-3.778752	-0.113371	-0.706104
C31	C	-3.941613	-0.118123	-0.666645
C32	C	-4.019124	-0.117181	-0.841617
C33	C	-4.061143	-0.116667	-0.936474
C34	C	-3.899591	-0.118635	-0.571782
C35	C	-4.151688	0.042676	-0.252442
C36	C	-4.086491	0.142915	-0.252941
C37	C	-4.156669	-0.115769	-0.105202
C38	C	-4.094640	-0.116260	-0.012090
H39	H	-4.079900	-0.701222	-0.393051
H40	H	-4.346124	-0.125403	-0.841246
H41	H	-3.614575	-0.109883	-0.667004
H42	H	-4.026890	-0.581604	-0.393654
C43	C	-4.173101	-0.889301	-0.414061
C44	C	-4.194423	-0.851910	-0.498725
C45	C	-4.261634	-0.918117	-0.582875
C46	C	-4.307522	-1.021715	-0.582362
C47	C	-4.286201	-1.059111	-0.497695
C48	C	-4.218990	-0.992904	-0.413545
H49	H	-4.160453	-0.775216	-0.499108
H50	H	-4.277418	-0.890433	-0.645551
H51	H	-4.357276	-1.070725	-0.644655
H52	H	-4.320171	-1.135805	-0.497312
H53	H	-4.203206	-1.020588	-0.350869
C54	C	-3.916469	-0.636533	-0.092753
C55	C	-4.050385	-0.572607	-0.075984
C56	C	-3.983306	-0.506438	0.008185
C57	C	-3.782311	-0.504196	0.075585
C58	C	-3.648382	-0.568125	0.058818
C59	C	-3.715461	-0.634294	-0.025351
H60	H	-4.199186	-0.574265	-0.125879
H61	H	-4.082451	-0.459114	0.020596
H62	H	-3.732655	-0.455214	0.137891
H63	H	-3.499582	-0.566467	0.108713
H64	H	-3.616317	-0.681618	-0.037762
H65	H	-4.009568	-0.824571	-0.113768
C66	C	-3.787665	-0.346037	-0.094192
C67	C	-3.921542	-0.282095	-0.077415
C68	C	-3.854402	-0.215914	0.006749
C69	C	-3.653386	-0.213675	0.074135
C70	C	-3.519496	-0.277619	0.057359
C71	C	-3.586636	-0.343800	-0.026804
H72	H	-4.070358	-0.283751	-0.127299
H73	H	-3.953518	-0.168579	0.019167
H74	H	-3.603685	-0.164684	0.136438
H75	H	-3.370680	-0.275963	0.107244
H76	H	-3.487521	-0.391135	-0.039222
C77	C	-3.956686	-0.401007	-0.416487
C78	C	-3.822023	-0.420359	-0.475730
C79	C	-3.843323	-0.382951	-0.560390
C80	C	-3.999285	-0.326191	-0.585807
C81	C	-4.133958	-0.306836	-0.526563
C82	C	-4.112659	-0.344243	-0.441903
H83	H	-3.706561	-0.462379	-0.456916
H84	H	-3.743628	-0.397279	-0.604246
H85	H	-4.015052	-0.298499	-0.648477
H86	H	-4.249421	-0.264816	-0.545377
H87	H	-4.212354	-0.329915	-0.398047
H88	H	-3.880816	-0.534083	-0.115213
H89	H	-4.275825	-0.126265	-0.682540
H90	H	-3.684919	-0.109036	-0.825729
