data_functionalizedCrystal
_audit_creation_method	'MofGen! by Chris Wilmer'
_symmetry_space_group_name_H-M	'P1'
_symmetry_Int_Tables_number	1
_symmetry_cell_setting	triclinic
loop_
_symmetry_equiv_pos_as_xyz
  x,y,z
_cell_length_a	18.050591
_cell_length_b	25.639239
_cell_length_c	18.050582
_cell_angle_alpha	89.975362
_cell_angle_beta	89.979078
_cell_angle_gamma	90.034692
loop_
_atom_site_label
_atom_site_type_symbol
_atom_site_fract_x
_atom_site_fract_y
_atom_site_fract_z
Zn1	Zn	1.135238	-0.208240	-0.420021
Zn2	Zn	1.468572	0.125094	-0.086687
Zn3	Zn	1.801905	0.458427	0.246646
Zn4	Zn	1.135126	-0.295667	-0.295826
Zn5	Zn	1.468460	0.037666	0.037507
Zn6	Zn	1.801793	0.370999	0.370840
Zn7	Zn	1.011058	-0.208242	-0.295832
Zn8	Zn	1.344391	0.125092	0.037502
Zn9	Zn	1.677724	0.458425	0.370835
Zn10	Zn	1.010983	-0.295640	-0.419962
Zn11	Zn	1.344316	0.037693	-0.086628
Zn12	Zn	1.677650	0.371027	0.246705
O13	O	1.073101	-0.251947	-0.357910
O14	O	1.406435	0.081386	-0.024577
O15	O	1.739768	0.414719	0.308757
O16	O	1.239148	-0.219848	-0.403568
O17	O	1.572482	0.113485	-0.070235
O18	O	1.905815	0.446819	0.263098
O19	O	1.118653	-0.284083	-0.191902
O20	O	1.451986	0.049251	0.141431
O21	O	1.785320	0.382584	0.474764
O22	O	1.027609	-0.135076	-0.312333
O23	O	1.360942	0.198257	0.021001
O24	O	1.694275	0.531590	0.354334
O25	O	1.239066	-0.284081	-0.312323
O26	O	1.572399	0.049253	0.021010
O27	O	1.905733	0.382586	0.354343
O28	O	1.118844	-0.135075	-0.403574
O29	O	1.452177	0.198259	-0.070241
O30	O	1.785510	0.531592	0.263093
O31	O	1.027500	-0.219851	-0.191906
O32	O	1.360833	0.113482	0.141427
O33	O	1.694167	0.446815	0.474760
O34	O	0.907123	-0.219825	-0.312276
O35	O	1.240457	0.113509	0.021058
O36	O	1.573790	0.446842	0.354391
O37	O	1.027481	-0.284034	-0.523894
O38	O	1.360815	0.049300	-0.190561
O39	O	1.694148	0.382633	0.142772
O40	O	0.907068	-0.284036	-0.403473
O41	O	1.240402	0.049298	-0.070140
O42	O	1.573735	0.382631	0.263193
O43	O	1.118771	-0.219821	-0.523938
O44	O	1.452105	0.113512	-0.190604
O45	O	1.785438	0.446846	0.142729
O46	O	1.118580	-0.368829	-0.312266
O47	O	1.451914	-0.035496	0.021067
O48	O	1.785247	0.297838	0.354401
O49	O	1.027373	-0.368809	-0.403468
O50	O	1.360706	-0.035475	-0.070135
O51	O	1.694039	0.297858	0.263199
C52	C	0.880149	-0.251928	-0.357869
C53	C	1.213483	0.081406	-0.024536
C54	C	1.546816	0.414739	0.308798
C55	C	0.797604	-0.251932	-0.357869
C56	C	1.130937	0.081401	-0.024536
C57	C	1.464270	0.414735	0.308798
C58	C	1.072977	-0.387790	-0.357876
C59	C	1.406310	-0.054456	-0.024543
C60	C	1.739643	0.278877	0.308791
C61	C	1.072991	-0.445904	-0.357886
C62	C	1.406324	-0.112570	-0.024553
C63	C	1.739658	0.220763	0.308780
C64	C	0.598161	-0.216974	-0.308390
C65	C	0.931495	0.116360	0.024943
C66	C	1.264828	0.449693	0.358277
C67	C	0.548729	-0.264661	-0.290112
C68	C	0.882062	0.068672	0.043222
C69	C	1.215396	0.402006	0.376555
C70	C	0.646473	-0.251948	-0.357903
C71	C	0.979806	0.081385	-0.024569
C72	C	1.313140	0.414719	0.308764
C73	C	0.548824	-0.204277	-0.376179
C74	C	0.882157	0.129056	-0.042846
C75	C	1.215490	0.462390	0.290487
C76	C	0.500488	-0.251959	-0.357934
C77	C	0.833821	0.081374	-0.024600
C78	C	1.167155	0.414708	0.308733
C79	C	0.598128	-0.299660	-0.339589
C80	C	0.931462	0.033673	-0.006255
C81	C	1.264795	0.367006	0.327078
C82	C	0.598227	-0.239244	-0.425688
C83	C	0.931560	0.094089	-0.092355
C84	C	1.264894	0.427423	0.240979
C85	C	0.548817	-0.286965	-0.407435
C86	C	0.882151	0.046369	-0.074102
C87	C	1.215484	0.379702	0.259231
C88	C	0.730571	-0.251941	-0.357883
C89	C	1.063905	0.081393	-0.024550
C90	C	1.397238	0.414726	0.308784
C91	C	0.416392	-0.251971	-0.357954
C92	C	0.749725	0.081362	-0.024620
C93	C	1.083058	0.414695	0.308713
C94	C	1.120717	-0.806265	-0.310502
C95	C	1.454051	-0.472932	0.022831
C96	C	1.787384	-0.139598	0.356164
C97	C	1.120746	-0.860869	-0.310512
C98	C	1.454079	-0.527536	0.022821
C99	C	1.787413	-0.194202	0.356154
O100	O	1.161195	-0.889104	-0.270187
O101	O	1.494528	-0.555771	0.063146
O102	O	1.827862	-0.222438	0.396479
N103	N	1.073232	-0.888186	-0.357959
N104	N	1.406565	-0.554853	-0.024626
N105	N	1.739899	-0.221520	0.308707
C106	C	1.025691	-0.860896	-0.405405
C107	C	1.359025	-0.527563	-0.072072
C108	C	1.692358	-0.194230	0.261262
O109	O	0.985280	-0.889145	-0.445764
O110	O	1.318613	-0.555812	-0.112431
O111	O	1.651947	-0.222479	0.220903
C112	C	1.025667	-0.806293	-0.405398
C113	C	1.359000	-0.472960	-0.072065
C114	C	1.692334	-0.139626	0.261268
C115	C	1.073179	-0.778979	-0.357943
C116	C	1.406512	-0.445645	-0.024609
C117	C	1.739845	-0.112312	0.308724
C118	C	1.168226	-0.778951	-0.263051
C119	C	1.501559	-0.445617	0.070282
C120	C	1.834892	-0.112284	0.403615
C121	C	1.168196	-0.724350	-0.263040
C122	C	1.501529	-0.391017	0.070293
C123	C	1.834862	-0.057683	0.403626
C124	C	1.120657	-0.697064	-0.310481
C125	C	1.453991	-0.363730	0.022853
C126	C	1.787324	-0.030397	0.356186
C127	C	1.073149	-0.724378	-0.357932
C128	C	1.406482	-0.391045	-0.024599
C129	C	1.739815	-0.057711	0.308735
C130	C	0.978131	-0.779004	-0.452847
C131	C	1.311464	-0.445670	-0.119514
C132	C	1.644797	-0.112337	0.213820
C133	C	0.978111	-0.724397	-0.452837
C134	C	1.311444	-0.391063	-0.119503
C135	C	1.644777	-0.057730	0.213830
C136	C	1.025622	-0.697083	-0.405381
C137	C	1.358956	-0.363749	-0.072048
C138	C	1.692289	-0.030416	0.261286
C139	C	1.025580	-0.642491	-0.405362
C140	C	1.358914	-0.309158	-0.072028
C141	C	1.692247	0.024175	0.261305
N142	N	1.073094	-0.615174	-0.357914
N143	N	1.406428	-0.281841	-0.024581
N144	N	1.739761	0.051492	0.308752
C145	C	1.120633	-0.642460	-0.310474
C146	C	1.453966	-0.309127	0.022859
C147	C	1.787299	0.024206	0.356193
C148	C	1.025747	-0.975567	-0.405416
C149	C	1.359081	-0.642233	-0.072083
C150	C	1.692414	-0.308900	0.261250
C151	C	1.025768	-1.030169	-0.405420
C152	C	1.359101	-0.696836	-0.072087
C153	C	1.692434	-0.363502	0.261247
C154	C	1.120823	-1.030138	-0.310528
C155	C	1.454157	-0.696805	0.022805
C156	C	1.787490	-0.363472	0.356139
C157	C	1.120799	-0.975535	-0.310521
C158	C	1.454132	-0.642202	0.022812
C159	C	1.787465	-0.308868	0.356145
C160	C	1.073261	-0.948250	-0.357969
C161	C	1.406595	-0.614916	-0.024636
C162	C	1.739928	-0.281583	0.308697
C163	C	1.120566	-0.527795	-0.310455
C164	C	1.453899	-0.194462	0.022879
C165	C	1.787233	0.138871	0.356212
C166	C	1.120530	-0.473190	-0.310446
C167	C	1.453863	-0.139857	0.022887
C168	C	1.787196	0.193477	0.356221
C169	C	1.025477	-0.473226	-0.405340
C170	C	1.358810	-0.139892	-0.072007
C171	C	1.692144	0.193441	0.261326
C172	C	1.025510	-0.527826	-0.405347
C173	C	1.358843	-0.194493	-0.072013
C174	C	1.692177	0.138840	0.261320
C175	C	1.073061	-0.555110	-0.357901
C176	C	1.406394	-0.221776	-0.024568
C177	C	1.739727	0.111557	0.308765
O178	O	0.985154	-0.614222	-0.445668
O179	O	1.318488	-0.280888	-0.112335
O180	O	1.651821	0.052445	0.220999
O181	O	1.161044	-0.614205	-0.270129
O182	O	1.494377	-0.280871	0.063204
O183	O	1.827711	0.052462	0.396538
C184	C	1.266807	-0.251967	-0.357952
C185	C	1.600140	0.081366	-0.024618
C186	C	1.933474	0.414700	0.308715
C187	C	1.349353	-0.251976	-0.357970
C188	C	1.682686	0.081358	-0.024636
C189	C	2.016019	0.414691	0.308697
C190	C	1.073131	-0.251924	-0.551616
C191	C	1.406464	0.081409	-0.218282
C192	C	1.739797	0.414743	0.115051
C193	C	1.073143	-0.251914	-0.634162
C194	C	1.406476	0.081419	-0.300828
C195	C	1.739810	0.414753	0.032505
C196	C	1.073247	-0.115574	-0.357961
C197	C	1.406580	0.217759	-0.024627
C198	C	1.739914	0.551093	0.308706
C199	C	1.073309	-0.057460	-0.357982
C200	C	1.406642	0.275873	-0.024649
C201	C	1.739976	0.609207	0.308685
C202	C	1.023537	-0.286785	-0.833589
C203	C	1.356871	0.046548	-0.500256
C204	C	1.690204	0.379881	-0.166922
C205	C	1.091289	-0.299569	-0.882987
C206	C	1.424623	0.033764	-0.549653
C207	C	1.757956	0.367098	-0.216320
C208	C	1.073180	-0.251874	-0.785292
C209	C	1.406513	0.081459	-0.451959
C210	C	1.739846	0.414792	-0.118625
C211	C	1.005465	-0.239076	-0.882976
C212	C	1.338798	0.094257	-0.549643
C213	C	1.672132	0.427591	-0.216309
C214	C	1.073209	-0.251837	-0.931277
C215	C	1.406542	0.081497	-0.597944
C216	C	1.739876	0.414830	-0.264611
C217	C	1.140967	-0.264683	-0.833603
C218	C	1.474300	0.068650	-0.500269
C219	C	1.807634	0.401984	-0.166936
C220	C	1.055097	-0.204168	-0.833588
C221	C	1.388430	0.129166	-0.500254
C222	C	1.721764	0.462499	-0.166921
C223	C	1.122896	-0.216933	-0.882963
C224	C	1.456229	0.116400	-0.549630
C225	C	1.789562	0.449733	-0.216297
C226	C	1.073162	-0.251897	-0.701194
C227	C	1.406495	0.081436	-0.367860
C228	C	1.739828	0.414769	-0.034527
C229	C	1.073235	-0.251814	-1.015374
C230	C	1.406568	0.081520	-0.682041
C231	C	1.739901	0.414853	-0.348707
C232	C	1.073115	-0.251933	-0.164958
C233	C	1.406449	0.081401	0.168375
C234	C	1.739782	0.414734	0.501709
C235	C	1.073247	-0.251795	-0.082413
C236	C	1.406580	0.081538	0.250921
C237	C	1.739913	0.414871	0.584254
H238	H	0.619827	-0.187429	-0.266473
H239	H	0.953160	0.145905	0.066860
H240	H	1.286493	0.479238	0.400193
N241	N	0.967981	-0.325938	-0.804864
N242	N	1.301315	0.007395	-0.471531
N243	N	1.634648	0.340729	-0.138198
H244	H	0.981753	-0.361952	-0.822834
H245	H	1.315086	-0.028619	-0.489500
H246	H	1.648420	0.304715	-0.156167
H247	H	0.968055	-0.325395	-0.748919
H248	H	1.301388	0.007939	-0.415585
H249	H	1.634721	0.341272	-0.082252
N250	N	0.519929	-0.278910	-0.214200
N251	N	0.853262	0.054423	0.119133
N252	N	1.186596	0.387757	0.452467
H253	H	0.537521	-0.252301	-0.176891
H254	H	0.870854	0.081032	0.156442
H255	H	1.204188	0.414365	0.489776
H256	H	0.463989	-0.279443	-0.215072
H257	H	0.797322	0.053890	0.118261
H258	H	1.130656	0.387224	0.451595
H259	H	0.619696	-0.339992	-0.324080
H260	H	0.953030	-0.006659	0.009254
H261	H	1.286363	0.326675	0.342587
N262	N	1.219454	-0.694895	-0.211868
N263	N	1.552788	-0.361561	0.121465
N264	N	1.886121	-0.028228	0.454798
H265	H	1.189298	-0.672271	-0.177409
H266	H	1.522632	-0.338938	0.155924
H267	H	1.855965	-0.005604	0.489258
H268	H	1.249562	-0.720507	-0.181875
H269	H	1.582895	-0.387173	0.151458
H270	H	1.916228	-0.053840	0.484792
H271	H	0.527288	-0.316580	-0.449320
H272	H	0.860621	0.016753	-0.115986
H273	H	1.193955	0.350087	0.217347
N274	N	1.034786	-0.150767	-0.804812
N275	N	1.368120	0.182566	-0.471479
N276	N	1.701453	0.515900	-0.138146
H277	H	1.035407	-0.151103	-0.748864
H278	H	1.368740	0.182231	-0.415531
H279	H	1.702073	0.515564	-0.082197
H280	H	1.071767	-0.124306	-0.823605
H281	H	1.405100	0.209027	-0.490272
H282	H	1.738433	0.542361	-0.156938
N283	N	1.216867	-0.279078	-0.805035
N284	N	1.550201	0.054255	-0.471702
N285	N	1.883534	0.387588	-0.138369
H286	H	1.237013	-0.249610	-0.773852
H287	H	1.570346	0.083723	-0.440519
H288	H	1.903679	0.417057	-0.107186
H289	H	1.213159	-0.311725	-0.773923
H290	H	1.546492	0.021608	-0.440590
H291	H	1.879826	0.354941	-0.107256
N292	N	1.111575	-0.352983	-0.911744
N293	N	1.444909	-0.019650	-0.578411
N294	N	1.778242	0.313684	-0.245077
H295	H	1.162367	-0.362908	-0.893012
H296	H	1.495701	-0.029575	-0.559679
H297	H	1.829034	0.303758	-0.226345
H298	H	1.073993	-0.379310	-0.893785
H299	H	1.407327	-0.045977	-0.560452
H300	H	1.740660	0.287357	-0.227119
H301	H	1.164937	-0.187394	-0.904505
H302	H	1.498271	0.145939	-0.571172
H303	H	1.831604	0.479272	-0.237839
N304	N	0.974209	-0.443793	-0.456514
N305	N	1.307542	-0.110460	-0.123180
N306	N	1.640875	0.222873	0.210153
H307	H	0.921156	-0.453333	-0.444933
H308	H	1.254489	-0.119999	-0.111600
H309	H	1.587823	0.213334	0.221733
H310	H	0.981467	-0.405067	-0.449284
H311	H	1.314800	-0.071734	-0.115951
H312	H	1.648134	0.261599	0.217382
N313	N	0.929600	-0.224749	-0.911708
N314	N	1.262933	0.108585	-0.578375
N315	N	1.596267	0.441918	-0.245041
H316	H	0.909767	-0.254116	-0.943281
H317	H	1.243100	0.079217	-0.609948
H318	H	1.576433	0.412551	-0.276614
H319	H	0.895077	-0.218583	-0.868552
H320	H	1.228410	0.114751	-0.535219
H321	H	1.561743	0.448084	-0.201886
N322	N	0.627048	-0.224987	-0.501583
N323	N	0.960382	0.108347	-0.168250
N324	N	1.293715	0.441680	0.165083
H325	H	0.609146	-0.188947	-0.515335
H326	H	0.942480	0.144386	-0.182001
H327	H	1.275813	0.477720	0.151332
H328	H	0.682993	-0.225456	-0.501070
H329	H	1.016326	0.107877	-0.167737
H330	H	1.349660	0.441210	0.165597
H331	H	0.527126	-0.163963	-0.391599
H332	H	0.860460	0.169371	-0.058266
H333	H	1.193793	0.502704	0.275068
N334	N	1.171779	-0.443728	-0.259265
N335	N	1.505113	-0.110395	0.074068
N336	N	1.838446	0.222939	0.407401
H337	H	1.160290	-0.453261	-0.206193
H338	H	1.493623	-0.119928	0.127141
H339	H	1.826956	0.213406	0.460474
H340	H	1.224817	-0.453203	-0.270924
H341	H	1.558150	-0.119870	0.062409
H342	H	1.891484	0.213464	0.395743
N343	N	1.171845	-0.557222	-0.259282
N344	N	1.505178	-0.223889	0.074051
N345	N	1.838511	0.109444	0.407385
H346	H	1.224895	-0.547677	-0.270865
H347	H	1.558228	-0.214344	0.062469
H348	H	1.891561	0.118990	0.395802
H349	H	1.160271	-0.547734	-0.206229
H350	H	1.493605	-0.214401	0.127105
H351	H	1.826938	0.118933	0.460438
N352	N	1.219504	-0.808375	-0.211880
N353	N	1.552838	-0.475042	0.121453
N354	N	1.886171	-0.141709	0.454787
H355	H	1.249592	-0.782779	-0.181824
H356	H	1.582926	-0.449445	0.151509
H357	H	1.916259	-0.116112	0.484843
H358	H	1.189308	-0.831061	-0.177480
H359	H	1.522641	-0.497728	0.155853
H360	H	1.855975	-0.164394	0.489187
N361	N	0.974457	-0.946144	-0.456587
N362	N	1.307791	-0.612811	-0.123253
N363	N	1.641124	-0.279477	0.210080
H364	H	0.940050	-0.923524	-0.426367
H365	H	1.273384	-0.590191	-0.093033
H366	H	1.606717	-0.256857	0.240300
H367	H	1.004648	-0.923486	-0.491028
H368	H	1.337982	-0.590153	-0.157695
H369	H	1.671315	-0.256819	0.175639
N370	N	1.172045	-0.946076	-0.259341
N371	N	1.505379	-0.612743	0.073993
N372	N	1.838712	-0.279410	0.407326
H373	H	1.202161	-0.971653	-0.229290
H374	H	1.535494	-0.638319	0.104043
H375	H	1.868828	-0.304986	0.437376
H376	H	1.206386	-0.923390	-0.289603
H377	H	1.539720	-0.590057	0.043730
H378	H	1.873053	-0.256723	0.377064
H379	H	0.987072	-1.052404	-0.444056
H380	H	1.320405	-0.719070	-0.110723
H381	H	1.653738	-0.385737	0.222611
N382	N	1.172099	-1.059574	-0.259358
N383	N	1.505432	-0.726240	0.073976
N384	N	1.838765	-0.392907	0.407309
H385	H	1.164902	-1.098309	-0.266568
H386	H	1.498236	-0.764975	0.066765
H387	H	1.831569	-0.431642	0.400098
H388	H	1.225127	-1.049992	-0.270970
H389	H	1.558460	-0.716658	0.062363
H390	H	1.891793	-0.383325	0.395697
H391	H	0.939438	-0.801234	-0.491487
H392	H	1.272771	-0.467900	-0.158154
H393	H	1.606104	-0.134567	0.175180
N394	N	0.926829	-0.694973	-0.504012
N395	N	1.260162	-0.361640	-0.170679
N396	N	1.593496	-0.028307	0.162655
H397	H	0.892419	-0.672355	-0.473794
H398	H	1.225752	-0.339021	-0.140460
H399	H	1.559085	-0.005688	0.192873
H400	H	0.957024	-0.672314	-0.538448
H401	H	1.290357	-0.338980	-0.205114
H402	H	1.623690	-0.005647	0.128219
H403	H	0.986824	-0.550067	-0.443991
H404	H	1.320158	-0.216733	-0.110658
H405	H	1.653491	0.116600	0.222676
