data_functionalizedCrystal
_audit_creation_method	'MofGen! by Chris Wilmer'
_symmetry_space_group_name_H-M	'P1'
_symmetry_Int_Tables_number	1
_symmetry_cell_setting	triclinic
loop_
_symmetry_equiv_pos_as_xyz
  x,y,z
_cell_length_a	15.995350
_cell_length_b	14.519709
_cell_length_c	13.596369
_cell_angle_alpha	90.006934
_cell_angle_beta	90.001679
_cell_angle_gamma	83.586260
loop_
_atom_site_label
_atom_site_type_symbol
_atom_site_fract_x
_atom_site_fract_y
_atom_site_fract_z
O1	O	-1.111164	-0.118875	-0.081710
O2	O	-0.611164	0.381125	0.418290
O3	O	-0.867411	-0.133554	-0.081731
O4	O	-0.367411	0.366446	0.418269
O5	O	-0.995750	0.008036	-0.081711
O6	O	-0.495750	0.508036	0.418289
O7	O	-0.982825	-0.260464	-0.081730
O8	O	-0.482825	0.239536	0.418270
O9	O	-0.995738	0.008043	0.081872
O10	O	-0.495738	0.508043	0.581872
O11	O	-0.867398	-0.133546	0.081852
O12	O	-0.367398	0.366454	0.581852
O13	O	-1.111152	-0.118867	0.081873
O14	O	-0.611152	0.381133	0.581873
Zn15	Zn	-0.989273	-0.126206	0.107835
Zn16	Zn	-0.489273	0.373794	0.607835
Zn17	Zn	-0.989290	-0.126215	-0.107693
Zn18	Zn	-0.489290	0.373785	0.392307
O19	O	-0.982812	-0.260457	0.081853
O20	O	-0.482812	0.239543	0.581853
C21	C	-0.836209	-0.132943	0.000058
C22	C	-0.336209	0.367057	0.500058
C23	C	-0.743256	-0.131124	0.000051
C24	C	-0.243256	0.368876	0.500051
C25	C	-0.995142	0.042398	0.000081
C26	C	-0.495142	0.542398	0.500081
C27	C	-0.993337	0.144776	0.000081
C28	C	-0.493337	0.644776	0.500081
C29	C	-1.142354	-0.119478	0.000082
C30	C	-0.642354	0.380522	0.500082
C31	C	-1.235307	-0.121297	0.000083
C32	C	-0.735307	0.378703	0.500083
C33	C	-0.405499	-0.124590	0.000072
C34	C	0.094501	0.375410	0.500072
C35	C	-0.452782	-0.023752	0.000444
C36	C	0.047218	0.476248	0.500444
C37	C	-0.549475	-0.025572	0.000068
C38	C	-0.049475	0.474428	0.500068
C39	C	-0.573064	-0.127831	0.000062
C40	C	-0.073064	0.372169	0.500062
C41	C	-0.532059	-0.177572	-0.093352
C42	C	-0.032059	0.322428	0.406648
C43	C	-0.435419	-0.175039	-0.093423
C44	C	0.064581	0.324961	0.406577
C45	C	-0.435069	-0.177114	0.092601
C46	C	0.064931	0.322886	0.592601
C47	C	-0.532014	-0.177090	0.093829
C48	C	-0.032014	0.322910	0.593829
C49	C	-0.667764	-0.129668	0.000053
C50	C	-0.167764	0.370332	0.500053
C51	C	-0.310798	-0.122756	0.000074
C52	C	0.189202	0.377244	0.500074
C53	C	-0.983421	-0.294819	0.000059
C54	C	-0.483421	0.205181	0.500059
C55	C	-0.985226	-0.397197	0.000052
C56	C	-0.485226	0.102803	0.500052
N57	N	-0.989267	-0.126198	0.254927
N58	N	-0.489267	0.373802	0.754927
C59	C	-0.986691	0.519660	0.000055
C60	C	-0.486691	1.019660	0.500055
C61	C	-0.988537	0.415355	0.000062
C62	C	-0.488537	0.915355	0.500062
C63	C	-0.990014	0.332221	0.000069
C64	C	-0.490014	0.832221	0.500069
C65	C	-0.991859	0.227910	0.000075
C66	C	-0.491859	0.727910	0.500075
N67	N	-0.989302	-0.126215	-0.254785
N68	N	-0.489302	0.373785	0.245215
C69	C	-0.989289	-0.126216	0.656218
C70	C	-0.489289	0.373784	1.156218
C71	C	-0.989280	-0.126215	0.544566
C72	C	-0.489280	0.373785	1.044566
C73	C	-0.989278	-0.126208	0.455576
C74	C	-0.489278	0.373792	0.955576
C75	C	-0.989269	-0.126205	0.343917
C76	C	-0.489269	0.373795	0.843917
H77	H	-0.577840	0.013526	0.067031
H78	H	-0.077840	0.513526	0.567031
F79	F	-0.408160	-0.134018	0.185150
F80	F	0.091840	0.365982	0.685150
F81	F	-0.567557	-0.129555	0.184156
F82	F	-0.067557	0.370445	0.684156
F83	F	-0.393411	-0.271804	-0.098970
F84	F	0.106589	0.228196	0.401030
F85	F	-0.428482	0.028936	0.088006
F86	F	0.071518	0.528936	0.588006
F87	F	-0.550687	-0.275761	-0.097916
F88	F	-0.050687	0.224239	0.402084
F89	F	-0.427096	0.028691	-0.086622
F90	F	0.072904	0.528691	0.413378
H91	H	-0.577279	0.013785	-0.067006
H92	H	-0.077279	0.513785	0.432994
F93	F	-0.569083	-0.132425	-0.184216
F94	F	-0.069083	0.367575	0.315784
F95	F	-0.411422	-0.127635	-0.184687
F96	F	0.088578	0.372365	0.315313
H97	H	-0.547490	-0.251660	0.099467
H98	H	-0.047490	0.248340	0.599467
H99	H	-0.403419	-0.251460	0.093229
H100	H	0.096581	0.248540	0.593229
