data_functionalizedCrystal
_audit_creation_method	'MofGen! by Chris Wilmer'
_symmetry_space_group_name_H-M	'P1'
_symmetry_Int_Tables_number	1
_symmetry_cell_setting	triclinic
loop_
_symmetry_equiv_pos_as_xyz
  x,y,z
_cell_length_a	21.395364
_cell_length_b	19.120786
_cell_length_c	21.395355
_cell_angle_alpha	92.459295
_cell_angle_beta	90.024516
_cell_angle_gamma	92.460890
loop_
_atom_site_label
_atom_site_type_symbol
_atom_site_fract_x
_atom_site_fract_y
_atom_site_fract_z
Zn1	Zn	0.947234	-0.279788	0.343608
Zn2	Zn	1.447234	0.220212	0.843608
Zn3	Zn	0.942676	-0.397226	0.234359
Zn4	Zn	1.442676	0.102774	0.734359
Zn5	Zn	0.842449	-0.279779	0.238845
Zn6	Zn	1.342449	0.220221	0.738845
Zn7	Zn	0.837959	-0.397200	0.339100
Zn8	Zn	1.337959	0.102800	0.839100
O9	O	0.892579	-0.338498	0.288978
O10	O	1.392579	0.161502	0.788978
O11	O	1.034306	-0.295381	0.329125
O12	O	1.534306	0.204619	0.829125
O13	O	0.929353	-0.381654	0.147275
O14	O	1.429353	0.118346	0.647275
O15	O	0.860135	-0.181491	0.256506
O16	O	1.360135	0.318509	0.756506
O17	O	1.030958	-0.381663	0.248860
O18	O	1.530958	0.118337	0.748860
O19	O	0.937120	-0.181498	0.333475
O20	O	1.437120	0.318502	0.833475
O21	O	0.855716	-0.295367	0.150571
O22	O	1.355716	0.204633	0.650571
O23	O	0.754176	-0.295341	0.252135
O24	O	1.254176	0.204659	0.752135
O25	O	0.852483	-0.381617	0.427376
O26	O	1.352483	0.118383	0.927376
O27	O	0.750877	-0.381609	0.325792
O28	O	1.250877	0.118391	0.825792
O29	O	0.932766	-0.295355	0.430688
O30	O	1.432766	0.204645	0.930688
O31	O	0.924999	-0.495512	0.244489
O32	O	1.424999	0.004488	0.744489
O33	O	0.848063	-0.495492	0.321442
O34	O	1.348063	0.004508	0.821442
C35	C	0.729793	-0.338471	0.288961
C36	C	1.229793	0.161529	0.788961
C37	C	0.660151	-0.338477	0.288968
C38	C	1.160151	0.161523	0.788968
C39	C	0.160093	-0.293678	0.330842
C40	C	0.660093	0.206322	0.830842
C41	C	0.225529	-0.293672	0.330842
C42	C	0.725529	0.206328	0.830842
C43	C	0.256511	-0.338520	0.288991
C44	C	0.756511	0.161480	0.788991
C45	C	0.222052	-0.383389	0.247148
C46	C	0.722052	0.116611	0.747148
C47	C	0.156618	-0.383398	0.247153
C48	C	0.656618	0.116602	0.747153
C49	C	0.359941	-0.343959	0.232317
C50	C	0.859941	0.156041	0.732317
C51	C	0.425375	-0.343945	0.232310
C52	C	0.925375	0.156055	0.732310
C53	C	0.458333	-0.338496	0.288975
C54	C	0.958333	0.161504	0.788975
C55	C	0.425850	-0.333047	0.345647
C56	C	0.925850	0.166953	0.845647
C57	C	0.360416	-0.333056	0.345653
C58	C	0.860416	0.166944	0.845653
C59	C	0.327464	-0.338515	0.288981
C60	C	0.827464	0.161485	0.788981
C61	C	0.563737	-0.293628	0.330818
C62	C	1.063737	0.206372	0.830818
C63	C	0.629173	-0.293628	0.330819
C64	C	1.129173	0.206372	0.830819
C65	C	0.625696	-0.383341	0.247120
C66	C	1.125696	0.116659	0.747120
C67	C	0.560260	-0.383345	0.247124
C68	C	1.060260	0.116655	0.747124
C69	C	0.529285	-0.338485	0.288973
C70	C	1.029285	0.161515	0.788973
C71	C	0.885566	-0.520988	0.282003
C72	C	1.385566	-0.020988	0.782003
C73	C	0.882623	-0.599057	0.279040
C74	C	1.382623	-0.099057	0.779040
C75	C	0.921293	-0.635677	0.317754
C76	C	1.421293	-0.135677	0.817754
C77	C	0.918525	-0.709032	0.314971
C78	C	1.418525	-0.209032	0.814971
C79	C	0.877091	-0.745765	0.273471
C80	C	1.377091	-0.245765	0.773471
C81	C	0.838417	-0.709140	0.234755
C82	C	1.338417	-0.209140	0.734755
C83	C	0.841182	-0.635787	0.237541
C84	C	1.341182	-0.135787	0.737541
C85	C	0.866736	-0.967248	0.263054
C86	C	1.366736	-0.467248	0.763054
C87	C	0.863975	-1.040607	0.260269
C88	C	1.363975	-0.540607	0.760269
C89	C	0.944083	-1.040494	0.340486
C90	C	1.444083	-0.540494	0.840486
C91	C	0.946846	-0.967139	0.343267
C92	C	1.446846	-0.467139	0.843267
C93	C	0.908171	-0.930520	0.304553
C94	C	1.408171	-0.430520	0.804553
C95	C	0.874262	-0.820746	0.270624
C96	C	1.374262	-0.320746	0.770624
C97	C	0.910996	-0.855541	0.307404
C98	C	1.410996	-0.355541	0.807404
C99	C	1.056002	-0.338526	0.288995
C100	C	1.556002	0.161474	0.788995
C101	C	1.125642	-0.338538	0.289002
C102	C	1.625642	0.161462	0.789002
C103	C	0.892632	-0.338484	0.452402
C104	C	1.392632	0.161516	0.952402
C105	C	0.892654	-0.338478	0.522043
C106	C	1.392654	0.161522	1.022043
C107	C	0.899637	-0.155296	0.295993
C108	C	1.399637	0.344704	0.795993
C109	C	0.902644	-0.077227	0.298983
C110	C	1.402644	0.422773	0.798983
C111	C	0.892565	-0.338462	0.126192
C112	C	1.392565	0.161538	0.626192
C113	C	0.892672	-0.338270	0.056558
C114	C	1.392672	0.161730	0.556558
C115	C	0.934456	-0.293560	0.556482
C116	C	1.434456	0.206440	1.056482
C117	C	0.934457	-0.293529	0.621918
C118	C	1.434457	0.206471	1.121918
C119	C	0.892661	-0.338430	0.652913
C120	C	1.392661	0.161570	1.152913
C121	C	0.850851	-0.383352	0.618467
C122	C	1.350851	0.116648	1.118467
C123	C	0.850848	-0.383376	0.553032
C124	C	1.350848	0.116624	1.053032
C125	C	0.885283	-0.401673	0.754171
C126	C	1.385283	0.098327	1.254171
C127	C	0.885291	-0.401650	0.819605
C128	C	1.385291	0.098350	1.319605
C129	C	0.892668	-0.338356	0.854737
C130	C	1.392668	0.161644	1.354737
C131	C	0.900050	-0.275083	0.824427
C132	C	1.400050	0.224917	1.324427
C133	C	0.900047	-0.275107	0.758992
C134	C	1.400047	0.224893	1.258992
C135	C	0.892660	-0.338409	0.723867
C136	C	1.392660	0.161591	1.223867
C137	C	0.934472	-0.293401	0.960130
C138	C	1.434472	0.206599	1.460130
C139	C	0.934468	-0.293370	1.025567
C140	C	1.434468	0.206630	1.525567
C141	C	0.850866	-0.383198	1.022114
C142	C	1.350866	0.116802	1.522114
C143	C	0.850867	-0.383223	0.956678
C144	C	1.350867	0.116777	1.456678
C145	C	0.892673	-0.338326	0.925689
C146	C	1.392673	0.161674	1.425689
H147	H	0.650921	-0.419862	0.213049
H148	H	1.150921	0.080138	0.713049
H149	H	0.980586	-0.937232	0.377060
H150	H	1.480586	-0.437232	0.877060
H151	H	0.955036	-0.605774	0.351546
H152	H	1.455036	-0.105774	0.851546
H153	H	0.835245	-0.937439	0.231531
H154	H	1.335245	-0.437439	0.731531
H155	H	0.816830	-0.419805	0.928637
H156	H	1.316830	0.080195	1.428637
H157	H	0.944730	-0.825631	0.341196
H158	H	1.444730	-0.325631	0.841196
H159	H	0.906058	-0.223543	0.853031
H160	H	1.406058	0.276457	1.353031
H161	H	0.451817	-0.348378	0.186164
H162	H	0.951817	0.151622	0.686164
H163	H	0.532210	-0.419872	0.213051
H164	H	1.032210	0.080128	0.713051
H165	H	0.840528	-0.850662	0.236832
H166	H	1.340528	-0.350662	0.736832
H167	H	0.879284	-0.453171	0.844278
H168	H	1.379284	0.046829	1.344278
H169	H	0.968498	-0.256999	0.531255
H170	H	1.468498	0.243001	1.031255
H171	H	0.968496	-0.256948	0.649964
H172	H	1.468496	0.243052	1.149964
H173	H	0.906056	-0.223587	0.734317
H174	H	1.406056	0.276413	1.234317
H175	H	0.975570	-1.070317	0.372005
H176	H	1.475570	-0.570317	0.872005
H177	H	0.452684	-0.328607	0.391789
H178	H	0.952684	0.171393	0.891789
H179	H	0.134877	-0.257152	0.364921
H180	H	0.634877	0.242848	0.864921
H181	H	0.968510	-0.256839	0.934898
H182	H	1.468510	0.243161	1.434898
H183	H	0.253584	-0.257139	0.364912
H184	H	0.753584	0.242861	0.864912
H185	H	0.879109	-0.453201	0.725572
H186	H	1.379109	0.046799	1.225572
H187	H	0.968508	-0.256787	1.053607
H188	H	1.468508	0.243213	1.553607
H189	H	0.816829	-0.419750	1.047350
H190	H	1.316829	0.080250	1.547350
H191	H	0.816819	-0.419908	0.643707
H192	H	1.316819	0.080092	1.143707
H193	H	0.950019	-0.738845	0.346492
H194	H	1.450019	-0.238845	0.846492
H195	H	0.816805	-0.419953	0.524992
H196	H	1.316805	0.080047	1.024992
H197	H	0.333971	-0.328620	0.391797
H198	H	0.833971	0.171380	0.891797
H199	H	0.830231	-1.070513	0.226474
H200	H	1.330231	-0.570513	0.726474
H201	H	0.247282	-0.419906	0.213074
H202	H	0.747282	0.080094	0.713074
H203	H	0.538515	-0.257101	0.364894
H204	H	1.038515	0.242899	0.864894
H205	H	0.809692	-0.605971	0.206017
H206	H	1.309692	-0.105971	0.706017
H207	H	0.333112	-0.348398	0.186171
H208	H	0.833112	0.151602	0.686171
H209	H	0.128568	-0.419929	0.213081
H210	H	0.628568	0.080071	0.713081
H211	H	0.804678	-0.739054	0.200967
H212	H	1.304678	-0.239054	0.700967
H213	H	0.657222	-0.257100	0.364894
H214	H	1.157222	0.242900	0.864894
