data_functionalizedCrystal
_audit_creation_method	'MofGen! by Chris Wilmer'
_symmetry_space_group_name_H-M	'P1'
_symmetry_Int_Tables_number	1
_symmetry_cell_setting	triclinic
loop_
_symmetry_equiv_pos_as_xyz
  x,y,z
_cell_length_a	10.489741
_cell_length_b	14.971486
_cell_length_c	13.448316
_cell_angle_alpha	90.001801
_cell_angle_beta	89.993703
_cell_angle_gamma	95.923349
loop_
_atom_site_label
_atom_site_type_symbol
_atom_site_fract_x
_atom_site_fract_y
_atom_site_fract_z
O1	O	0.166222	-1.187893	-0.082577
O2	O	0.666222	-0.687893	0.417423
O3	O	0.186128	-0.927607	-0.082604
O4	O	0.686128	-0.427607	0.417396
O5	O	-0.009491	-1.063673	-0.082584
O6	O	0.490509	-0.563673	0.417416
O7	O	0.361841	-1.051827	-0.082597
O8	O	0.861841	-0.551827	0.417403
O9	O	-0.009503	-1.063655	0.082800
O10	O	0.490497	-0.563655	0.582800
O11	O	0.186116	-0.927589	0.082780
O12	O	0.686116	-0.427589	0.582780
O13	O	0.166210	-1.187876	0.082807
O14	O	0.666210	-0.687876	0.582807
Cu15	Cu	0.176162	-1.057731	0.097894
Cu16	Cu	0.676162	-0.557731	0.597894
Cu17	Cu	0.176176	-1.057752	-0.097691
Cu18	Cu	0.676176	-0.557752	0.402309
O19	O	0.361829	-1.051810	0.082787
O20	O	0.861829	-0.551810	0.582787
C21	C	0.185232	-0.894268	0.000085
C22	C	0.685232	-0.394268	0.500085
C23	C	0.182564	-0.794956	0.000074
C24	C	0.682564	-0.294956	0.500074
C25	C	-0.057019	-1.062769	0.000107
C26	C	0.442981	-0.562769	0.500107
C27	C	-0.198617	-1.060093	0.000105
C28	C	0.301383	-0.560093	0.500105
C29	C	0.167106	-1.221215	0.000116
C30	C	0.667106	-0.721215	0.500116
C31	C	0.169774	-1.320527	0.000120
C32	C	0.669774	-0.820527	0.500120
C33	C	-0.265755	-0.973518	0.000089
C34	C	0.234245	-0.473518	0.500089
C35	C	-0.358357	-1.014406	0.081636
C36	C	0.141643	-0.514406	0.581636
C37	C	-0.358320	-1.014444	-0.081419
C38	C	0.141680	-0.514444	0.418581
C39	C	-0.289354	-1.101017	0.081720
C40	C	0.210646	-0.601017	0.581720
C41	C	-0.289307	-1.101043	-0.081409
C42	C	0.210693	-0.601043	0.418591
C43	C	-0.381882	-1.141994	0.000158
C44	C	0.118118	-0.641994	0.500158
C45	C	0.409357	-1.052713	0.000094
C46	C	0.909357	-0.552713	0.500094
C47	C	0.550955	-1.055390	0.000089
C48	C	1.050955	-0.555390	0.500089
N49	N	0.176151	-1.057723	0.235459
N50	N	0.676151	-0.557723	0.735459
C51	C	0.297485	-0.738385	0.000072
C52	C	0.797485	-0.238385	0.500072
C53	C	0.294971	-0.645071	0.000087
C54	C	0.794971	-0.145071	0.500087
C55	C	0.177534	-0.608330	0.000097
C56	C	0.677534	-0.108330	0.500097
C57	C	0.062604	-0.664909	0.000103
C58	C	0.562604	-0.164909	0.500103
C59	C	0.065120	-0.758221	0.000095
C60	C	0.565120	-0.258221	0.500095
C61	C	0.057369	-0.470416	0.000117
C62	C	0.557369	0.029584	0.500117
C63	C	0.054853	-0.377098	0.000123
C64	C	0.554853	0.122902	0.500123
C65	C	0.287220	-0.357267	0.000108
C66	C	0.787220	0.142733	0.500108
C67	C	0.289736	-0.450579	0.000101
C68	C	0.789736	0.049421	0.500101
C69	C	0.174805	-0.507151	0.000104
C70	C	0.674805	-0.007151	0.500104
N71	N	0.176177	-1.057766	-0.235255
N72	N	0.676177	-0.557766	0.264745
C73	C	0.089567	-1.117992	0.287508
C74	C	0.589567	-0.617992	0.787508
C75	C	0.089566	-1.117998	0.391611
C76	C	0.589566	-0.617998	0.891611
C77	C	0.176156	-1.057738	0.443663
C78	C	0.676156	-0.557738	0.943663
C79	C	0.262745	-0.997462	0.391607
C80	C	0.762745	-0.497462	0.891607
C81	C	0.262739	-0.997453	0.287505
C82	C	0.762739	-0.497453	0.787505
C83	C	0.262753	-0.997487	0.608587
C84	C	0.762753	-0.497487	1.108587
C85	C	0.262761	-0.997497	0.712695
C86	C	0.762761	-0.497497	1.212695
C87	C	0.089580	-1.118032	0.712693
C88	C	0.589580	-0.618032	1.212693
C89	C	0.089574	-1.118023	0.608591
C90	C	0.589574	-0.618023	1.108591
C91	C	0.176165	-1.057748	0.556542
C92	C	0.676165	-0.557748	1.056542
H93	H	-0.215280	-0.902336	0.000164
H94	H	0.284720	-0.402336	0.500164
H95	H	0.333261	-0.948402	0.566212
H96	H	0.833261	-0.448402	1.066212
H97	H	-0.036219	-0.516476	0.000121
H98	H	0.463781	-0.016476	0.500121
H99	H	0.388551	-0.599014	0.000083
H100	H	0.888551	-0.099014	0.500083
H101	H	-0.040774	-0.347187	0.000132
H102	H	0.459226	0.152813	0.500132
H103	H	0.019072	-1.167095	0.566211
H104	H	0.519072	-0.667095	1.066211
H105	H	-0.258681	-1.137650	-0.150347
H106	H	0.241319	-0.637650	0.349653
H107	H	-0.388950	-0.977767	0.150571
H108	H	0.111050	-0.477767	0.650571
H109	H	-0.033015	-0.634987	0.000126
H110	H	0.466985	-0.134987	0.500126
H111	H	0.333243	-0.948375	0.245128
H112	H	0.833243	-0.448375	0.745128
H113	H	0.019060	-1.167067	0.245134
H114	H	0.519060	-0.667067	0.745134
H115	H	0.333244	-0.948393	0.433993
H116	H	0.833244	-0.448393	0.933993
H117	H	0.380801	-0.311201	0.000110
H118	H	0.880801	0.188799	0.500110
H119	H	-0.258951	-1.137610	0.150739
H120	H	0.241049	-0.637610	0.650739
H121	H	-0.028461	-0.804281	0.000097
H122	H	0.471539	-0.304281	0.500097
H123	H	-0.432131	-1.213239	0.000211
H124	H	0.067869	-0.713239	0.500211
H125	H	-0.388855	-0.977809	-0.150368
H126	H	0.111145	-0.477809	0.349632
H127	H	0.019061	-1.167073	0.433989
H128	H	0.519061	-0.667073	0.933989
H129	H	0.333271	-0.948426	0.755071
H130	H	0.833271	-0.448426	1.255071
H131	H	0.019075	-1.167109	0.755077
H132	H	0.519075	-0.667109	1.255077
H133	H	0.393115	-0.768291	0.000063
H134	H	0.893115	-0.268291	0.500063
H135	H	0.385363	-0.480489	0.000083
H136	H	0.885363	0.019511	0.500083
