data_functionalizedCrystal
_audit_creation_method	'MofGen! by Chris Wilmer'
_symmetry_space_group_name_H-M	'P1'
_symmetry_Int_Tables_number	1
_symmetry_cell_setting	triclinic
loop_
_symmetry_equiv_pos_as_xyz
  x,y,z
_cell_length_a	8.559649
_cell_length_b	10.489716
_cell_length_c	7.088929
_cell_angle_alpha	83.717280
_cell_angle_beta	95.325015
_cell_angle_gamma	77.153900
loop_
_atom_site_label
_atom_site_type_symbol
_atom_site_fract_x
_atom_site_fract_y
_atom_site_fract_z
O1	O	2.103403	-0.028523	-0.158959
O2	O	1.638949	0.037276	-0.158963
O3	O	1.881764	-0.182338	-0.158968
O4	O	1.860588	0.191091	-0.158955
O5	O	1.914213	-0.211746	0.159006
O6	O	1.671398	0.007868	0.159011
O7	O	2.135852	-0.057931	0.159015
Cu8	Cu	1.906588	-0.027717	0.188047
Cu9	Cu	1.868213	0.007062	-0.187995
O10	O	1.893037	0.161682	0.159020
C11	C	1.595700	0.027559	0.000023
C12	C	1.418489	0.042402	0.000021
C13	C	1.896397	-0.244406	0.000013
C14	C	1.891634	-0.385534	-0.000004
C15	C	2.040539	-0.498889	0.000015
C16	C	1.945857	-0.553465	-0.156759
C17	C	1.977814	-0.582419	0.156739
C18	C	1.797001	-0.438239	-0.156907
C19	C	1.828996	-0.467204	0.156731
C20	C	1.734200	-0.521716	-0.000081
C21	C	2.179100	-0.048213	0.000024
C22	C	2.356310	-0.063055	0.000014
C23	C	1.878404	0.223751	0.000034
C24	C	1.883165	0.364880	0.000039
N25	N	1.933590	-0.052180	0.452534
N26	N	1.841223	0.031514	-0.452482
H27	H	1.438647	-0.164696	0.000001
C28	C	1.711888	0.148682	0.437219
N29	N	1.614468	0.236934	0.354131
H30	H	2.029336	-0.138910	0.534188
H31	H	1.336141	0.144050	0.000014
C32	C	1.762419	-0.416047	0.335802
N33	N	1.712282	-0.377521	0.470694
C34	C	1.559084	-0.536278	-0.000194
N35	N	1.427187	-0.547249	-0.000289
C36	C	2.012505	-0.604619	-0.335809
N37	N	2.062716	-0.643151	-0.470660
C38	C	1.693854	-0.354229	-0.336178
N39	N	1.616172	-0.290951	-0.471206
H40	H	2.170042	-0.487836	-0.000143
C41	C	2.081041	-0.666641	0.335803
N42	N	2.158801	-0.730072	0.470669
