data_functionalizedCrystal
_audit_creation_method	'MofGen! by Chris Wilmer'
_symmetry_space_group_name_H-M	'P1'
_symmetry_Int_Tables_number	1
_symmetry_cell_setting	triclinic
loop_
_symmetry_equiv_pos_as_xyz
  x,y,z
_cell_length_a	14.519731
_cell_length_b	14.519709
_cell_length_c	8.140239
_cell_angle_alpha	89.995533
_cell_angle_beta	89.997185
_cell_angle_gamma	83.684499
loop_
_atom_site_label
_atom_site_type_symbol
_atom_site_fract_x
_atom_site_fract_y
_atom_site_fract_z
O1	O	1.223853	0.120983	-0.136621
O2	O	0.955379	0.135199	-0.136624
O3	O	1.096734	-0.006147	-0.136607
O4	O	1.082498	0.262329	-0.136637
O5	O	1.096726	-0.006148	0.136620
O6	O	0.955371	0.135198	0.136604
O7	O	1.223845	0.120982	0.136607
Zn8	Zn	1.089607	0.128090	0.179986
Zn9	Zn	1.089617	0.128092	-0.180003
O10	O	1.082490	0.262328	0.136590
C11	C	0.921016	0.134532	-0.000010
C12	C	0.818635	0.132536	-0.000011
C13	C	0.735491	0.130915	-0.000017
C14	C	0.631182	0.128888	-0.000018
C15	C	0.548043	0.127280	-0.000017
C16	C	0.443728	0.125253	-0.000021
C17	C	1.096067	-0.040507	0.000007
C18	C	1.094079	-0.142889	0.000008
C19	C	1.086759	-0.517785	-0.000035
C20	C	1.088792	-0.413477	-0.000023
C21	C	1.090419	-0.330340	-0.000012
C22	C	1.092452	-0.226025	-0.000003
C23	C	1.258209	0.121649	-0.000010
C24	C	1.360589	0.123645	-0.000021
C25	C	1.083157	0.296688	-0.000027
C26	C	1.085146	0.399070	-0.000039
N27	N	1.089607	0.128088	0.425668
N28	N	1.089625	0.128086	-0.425685
