data_functionalizedCrystal
_audit_creation_method	'MofGen! by Chris Wilmer'
_symmetry_space_group_name_H-M	'P1'
_symmetry_Int_Tables_number	1
_symmetry_cell_setting	triclinic
loop_
_symmetry_equiv_pos_as_xyz
  x,y,z
_cell_length_a	12.837943
_cell_length_b	10.654550
_cell_length_c	11.892095
_cell_angle_alpha	93.928097
_cell_angle_beta	85.689438
_cell_angle_gamma	89.656922
loop_
_atom_site_label
_atom_site_type_symbol
_atom_site_fract_x
_atom_site_fract_y
_atom_site_fract_z
O1	O	1.384377	0.319511	-0.093978
O2	O	1.082456	0.303370	-0.093985
O3	O	1.240358	0.129459	-0.093977
O4	O	1.226475	0.493422	-0.093986
O5	O	1.227192	0.143935	0.094030
O6	O	1.069290	0.317845	0.094022
O7	O	1.371211	0.333987	0.094029
Zn8	Zn	1.218160	0.328214	0.123876
Zn9	Zn	1.235507	0.309142	-0.123831
O10	O	1.213309	0.507898	0.094021
C11	C	1.037213	0.305155	0.000018
C12	C	0.922020	0.288892	0.000015
C13	C	1.232756	0.089788	0.000025
C14	C	1.229706	-0.049989	0.000021
C15	C	0.682466	0.484397	0.000027
C16	C	0.574230	0.469123	0.000025
C17	C	0.597310	0.243071	0.000018
C18	C	0.705546	0.258345	0.000020
C19	C	0.748119	0.379012	0.000023
C20	C	0.856358	0.394285	0.000016
C21	C	0.879435	0.168234	0.000017
C22	C	0.771199	0.152960	0.000016
C23	C	1.322676	-0.119329	0.000027
C24	C	1.319805	-0.250664	0.000019
C25	C	1.130985	-0.243306	0.000004
C26	C	1.133858	-0.111974	0.000004
C27	C	1.418525	-0.057343	0.000044
C28	C	1.511502	-0.126683	0.000050
C29	C	1.508631	-0.258018	0.000042
C30	C	1.412782	-0.320013	0.000028
C31	C	1.416454	0.332202	0.000024
C32	C	1.531648	0.348464	0.000019
C33	C	1.220912	0.547569	0.000017
C34	C	1.223962	0.687345	0.000013
N35	N	1.206330	0.341231	0.292929
N36	N	1.247346	0.296117	-0.292885
C37	C	1.329670	0.205471	0.529583
C38	C	1.321408	0.214579	0.647925
C39	C	1.181539	0.368549	0.647956
C40	C	1.189801	0.359440	0.529614
C41	C	1.263870	0.277900	0.470432
C42	C	1.272137	0.268799	0.352089
C43	C	1.132263	0.422761	0.352122
C44	C	1.124001	0.431870	0.470463
H45	H	0.891019	0.492538	0.000020
H46	H	1.589541	-0.076201	0.000034
H47	H	1.410452	-0.426956	0.000009
H48	H	1.058153	-0.055516	0.000001
C49	C	1.026826	-0.310384	-0.000060
C50	C	0.946020	-0.221550	-0.000094
C51	C	0.850055	-0.283293	-0.000166
H52	H	1.017042	-0.356417	0.065485
H53	H	1.026320	-0.366483	-0.065648
H54	H	0.946524	-0.165472	0.065487
H55	H	0.955770	-0.175512	-0.065634
H56	H	0.849549	-0.339393	-0.065754
H57	H	0.840282	-0.329325	0.065380
H58	H	0.795218	-0.223030	-0.000200
C59	C	0.728569	0.615459	-0.000154
C60	C	0.702032	0.672496	-0.096868
C61	C	0.744471	0.793237	-0.097065
H62	H	0.802435	0.609635	-0.000211
H63	H	0.701473	0.664508	0.065373
H64	H	0.729133	0.623459	-0.162377
H65	H	0.628174	0.678353	-0.096831
H66	H	0.717375	0.842286	-0.031539
H67	H	0.818335	0.787400	-0.097119
H68	H	0.726464	0.831955	-0.162679
H69	H	1.332450	0.202409	0.303903
H70	H	0.736520	0.054717	0.000027
H71	H	0.562621	0.144837	0.000110
C72	C	1.410119	0.116833	0.465525
C73	C	1.465966	0.055333	0.542658
C74	C	1.540076	-0.026342	0.483690
H75	H	1.456949	0.163559	0.419345
H76	H	1.375672	0.056400	0.419393
H77	H	1.500412	0.115757	0.588770
H78	H	1.419164	0.008582	0.588840
H79	H	1.505628	-0.086775	0.437558
H80	H	1.586898	0.020394	0.437513
H81	H	1.577970	-0.068088	0.536016
H82	H	1.121227	0.434928	0.696157
H83	H	0.932903	0.082421	0.000006
C84	C	1.392678	0.135784	0.712209
C85	C	1.332116	0.057401	0.780139
C86	C	1.397735	-0.015218	0.839363
H87	H	1.432989	0.189609	0.758457
H88	H	1.437954	0.085847	0.660046
H89	H	1.286858	0.107334	0.832296
H90	H	1.291807	0.003552	0.733919
H91	H	1.443011	-0.065156	0.787200
H92	H	1.438042	0.038616	0.885604
H93	H	1.356654	-0.068418	0.885452
C94	C	1.060932	0.501631	0.287963
C95	C	1.076660	0.629380	0.316735
C96	C	1.010985	0.702076	0.257646
H97	H	0.990197	0.481308	0.307323
H98	H	1.076464	0.484622	0.208995
H99	H	1.061121	0.646382	0.395686
H100	H	1.147383	0.649742	0.297373
H101	H	1.026517	0.685067	0.178677
H102	H	0.940253	0.681742	0.277010
H103	H	1.021654	0.788761	0.277151
C104	C	1.043690	0.520372	0.534928
C105	C	1.050552	0.512871	0.651228
C106	C	0.976598	0.594398	0.710644
H107	H	0.975648	0.496995	0.515685
H108	H	1.056926	0.604153	0.515597
H109	H	1.037309	0.429107	0.670551
H110	H	1.118578	0.536259	0.670504
H111	H	0.989833	0.678179	0.691313
H112	H	0.908561	0.571014	0.691392
H113	H	0.981250	0.589328	0.789559
H114	H	1.420873	0.049596	0.000054
H115	H	0.520778	0.554939	0.000032
H116	H	1.584339	-0.314472	0.000036
