data_functionalizedCrystal
_audit_creation_method	'MofGen! by Chris Wilmer'
_symmetry_space_group_name_H-M	'P1'
_symmetry_Int_Tables_number	1
_symmetry_cell_setting	triclinic
loop_
_symmetry_equiv_pos_as_xyz
  x,y,z
_cell_length_a	19.077212
_cell_length_b	19.077068
_cell_length_c	21.395355
_cell_angle_alpha	92.279051
_cell_angle_beta	87.671116
_cell_angle_gamma	94.708021
loop_
_atom_site_label
_atom_site_type_symbol
_atom_site_fract_x
_atom_site_fract_y
_atom_site_fract_z
Zn1	Zn	1.066497	-0.237549	-0.400997
Zn2	Zn	1.566497	0.262451	0.099003
Zn3	Zn	1.061658	-0.355424	-0.300257
Zn4	Zn	1.561658	0.144576	0.199743
Zn5	Zn	0.948595	-0.242274	-0.292174
Zn6	Zn	1.448595	0.257726	0.207826
Zn7	Zn	0.943833	-0.360127	-0.400940
Zn8	Zn	1.443833	0.139873	0.099060
O9	O	1.005146	-0.298843	-0.348592
O10	O	1.505146	0.201157	0.151408
O11	O	1.164507	-0.249240	-0.391040
O12	O	1.664507	0.250760	0.108960
O13	O	1.046629	-0.340423	-0.211506
O14	O	1.546629	0.159577	0.288494
O15	O	0.968253	-0.142994	-0.303250
O16	O	1.468253	0.357006	0.196750
O17	O	1.160953	-0.335842	-0.317027
O18	O	1.660953	0.164158	0.182973
O19	O	1.054875	-0.139523	-0.383202
O20	O	1.554875	0.360477	0.116798
O21	O	0.963562	-0.257292	-0.205567
O22	O	1.463562	0.242708	0.294433
O23	O	0.849311	-0.261853	-0.303195
O24	O	1.349311	0.238147	0.196805
O25	O	0.960136	-0.343858	-0.488626
O26	O	1.460136	0.156142	0.011374
O27	O	0.845812	-0.348439	-0.383105
O28	O	1.345812	0.151561	0.116895
O29	O	1.050257	-0.253800	-0.488668
O30	O	1.550257	0.246200	0.011332
O31	O	1.042010	-0.454700	-0.316972
O32	O	1.542010	0.045300	0.183028
O33	O	0.955444	-0.458156	-0.390943
O34	O	1.455444	0.041844	0.109057
C35	C	0.821982	-0.306169	-0.342267
C36	C	1.321982	0.193831	0.157733
C37	C	0.743623	-0.309321	-0.339577
C38	C	1.243623	0.190679	0.160423
C39	C	0.302345	-0.331891	-0.320310
C40	C	0.802345	0.168109	0.179690
C41	C	0.375972	-0.328927	-0.322833
C42	C	0.875972	0.171073	0.177167
C43	C	0.414635	-0.282429	-0.362697
C44	C	0.914635	0.217571	0.137303
C45	C	0.379668	-0.238888	-0.400035
C46	C	0.879668	0.261112	0.099965
C47	C	0.306043	-0.241850	-0.397509
C48	C	0.806043	0.258150	0.102491
C49	C	0.635030	-0.268741	-0.374389
C50	C	1.135030	0.231259	0.125611
C51	C	0.708661	-0.265785	-0.376914
C52	C	1.208661	0.234215	0.123086
C53	C	0.704959	-0.355822	-0.299711
C54	C	1.204959	0.144178	0.200289
C55	C	0.631333	-0.358783	-0.297190
C56	C	1.131333	0.141217	0.202810
C57	C	0.596372	-0.315239	-0.334527
C58	C	1.096372	0.184761	0.165473
N59	N	0.489894	-0.279399	-0.365278
N60	N	0.989894	0.220601	0.134722
N61	N	0.521115	-0.318266	-0.331942
N62	N	1.021115	0.181734	0.168058
C63	C	0.997705	-0.482007	-0.354843
C64	C	1.497705	0.017993	0.145157
C65	C	0.994586	-0.560362	-0.357541
C66	C	1.494586	-0.060362	0.142459
C67	C	1.038226	-0.595350	-0.320330
C68	C	1.538226	-0.095350	0.179670
C69	C	1.035297	-0.668974	-0.322870
C70	C	1.535297	-0.168974	0.177130
C71	C	0.988724	-0.707608	-0.362620
C72	C	1.488724	-0.207608	0.137380
C73	C	0.945082	-0.672615	-0.399835
C74	C	1.445082	-0.172615	0.100165
C75	C	0.948015	-0.598993	-0.397297
C76	C	1.448015	-0.098993	0.102703
C77	C	0.975118	-0.927990	-0.374340
C78	C	1.475118	-0.427990	0.125660
C79	C	0.972186	-1.001617	-0.376874
C80	C	1.472186	-0.501617	0.123126
C81	C	1.062403	-0.997971	-0.299910
C82	C	1.562403	-0.497971	0.200090
C83	C	1.065329	-0.924348	-0.297372
C84	C	1.565329	-0.424348	0.202628
C85	C	1.021690	-0.889361	-0.334590
C86	C	1.521690	-0.389361	0.165410
N87	N	0.985727	-0.782863	-0.365216
N88	N	1.485727	-0.282863	0.134784
N89	N	1.024690	-0.814107	-0.331996
N90	N	1.524690	-0.314107	0.168004
C91	C	1.189025	-0.291489	-0.354942
C92	C	1.689025	0.208511	0.145058
C93	C	1.267383	-0.288355	-0.357647
C94	C	1.767383	0.211645	0.142353
C95	C	1.005205	-0.298827	-0.512017
C96	C	1.505205	0.201173	-0.012017
C97	C	1.005230	-0.298820	-0.581659
C98	C	1.505230	0.201180	-0.081659
C99	C	1.012635	-0.114964	-0.342331
C100	C	1.512635	0.385036	0.157669
C101	C	1.015826	-0.036605	-0.339662
C102	C	1.515826	0.463395	0.160338
C103	C	1.052154	-0.251925	-0.614394
C104	C	1.552154	0.248075	-0.114394
C105	C	1.052154	-0.251895	-0.679829
C106	C	1.552154	0.248105	-0.179829
C107	C	1.005237	-0.298771	-0.712526
C108	C	1.505237	0.201229	-0.212526
C109	C	0.958304	-0.345670	-0.679782
C110	C	1.458304	0.154330	-0.179782
C111	C	0.958301	-0.345694	-0.614348
C112	C	1.458301	0.154306	-0.114348
C113	C	0.997092	-0.362471	-0.818175
C114	C	1.497092	0.137529	-0.318175
C115	C	0.997101	-0.362448	-0.883608
C116	C	1.497101	0.137552	-0.383608
C117	C	1.005245	-0.298697	-0.914344
C118	C	1.505245	0.201303	-0.414344
C119	C	1.013395	-0.234966	-0.879641
C120	C	1.513395	0.265034	-0.379641
C121	C	1.013391	-0.234990	-0.814207
C122	C	1.513391	0.265010	-0.314207
C123	C	1.005236	-0.298750	-0.783477
C124	C	1.505236	0.201250	-0.283477
C125	C	1.052172	-0.251765	-1.018031
C126	C	1.552172	0.248235	-0.518031
C127	C	1.052167	-0.251734	-1.083466
C128	C	1.552167	0.248266	-0.583466
C129	C	0.958321	-0.345515	-1.083419
C130	C	1.458321	0.154485	-0.583419
C131	C	0.958322	-0.345540	-1.017984
C132	C	1.458322	0.154460	-0.517984
C133	C	1.005251	-0.298666	-0.985295
C134	C	1.505251	0.201334	-0.485295
C135	C	1.005129	-0.298807	-0.185802
C136	C	1.505129	0.201193	0.314198
C137	C	1.005249	-0.298610	-0.116159
C138	C	1.505249	0.201390	0.383841
H139	H	0.270871	-0.369758	-0.287852
H140	H	0.770871	0.130242	0.212148
H141	H	1.020028	-0.183054	-0.904665
H142	H	1.520028	0.316946	-0.404665
H143	H	0.934269	-1.033071	-0.409253
H144	H	1.434269	-0.533071	0.090747
C145	C	1.110407	-1.036454	-0.258977
C146	C	1.610407	-0.536454	0.241023
H147	H	1.138560	-1.002900	-0.234938
H148	H	1.638560	-0.502900	0.265062
H149	H	1.139967	-1.063906	-0.285014
H150	H	1.639967	-0.563906	0.214986
H151	H	1.082305	-1.066290	-0.231714
H152	H	1.582305	-0.566290	0.268286
H153	H	0.939583	-0.899510	-0.404642
H154	H	1.439583	-0.399510	0.095358
H155	H	0.277578	-0.206396	-0.427911
H156	H	0.777578	0.293604	0.072089
C157	C	0.596583	-0.220850	-0.415461
C158	C	1.096583	0.279150	0.084539
H159	H	0.630155	-0.192740	-0.439568
H160	H	1.130155	0.307260	0.060432
H161	H	0.569093	-0.191246	-0.389506
H162	H	1.069093	0.308754	0.110494
H163	H	0.566784	-0.249021	-0.442661
H164	H	1.066784	0.250979	0.057339
C165	C	1.103772	-0.200311	-0.715849
C166	C	1.603772	0.299689	-0.215849
H167	H	1.097049	-0.207008	-0.759500
H168	H	1.597049	0.292992	-0.259500
H169	H	1.150718	-0.208740	-0.707127
H170	H	1.650718	0.291260	-0.207127
H171	H	1.095383	-0.153356	-0.703145
H172	H	1.595383	0.346644	-0.203145
H173	H	0.404435	-0.364377	-0.292428
H174	H	0.904435	0.135623	0.207572
H175	H	0.907164	-0.704077	-0.432202
H176	H	1.407164	-0.204077	0.067798
C177	C	1.103765	-0.200360	-0.578436
C178	C	1.603765	0.299640	-0.078436
H179	H	1.097047	-0.207092	-0.534777
H180	H	1.597047	0.292908	-0.034777
H181	H	1.095378	-0.153403	-0.587180
H182	H	1.595378	0.346597	-0.087180
H183	H	1.150715	-0.208784	-0.591160
H184	H	1.650715	0.291216	-0.091160
H185	H	1.090377	-0.213543	-1.110119
H186	H	1.590377	0.286457	-0.610119
H187	H	0.599858	-0.396645	-0.264728
H188	H	1.099858	0.103355	0.235272
C189	C	1.103779	-0.200196	-0.982069
C190	C	1.603779	0.299804	-0.482069
H191	H	1.131717	-0.172253	-1.010939
H192	H	1.631717	0.327747	-0.510939
H193	H	1.133400	-0.225939	-0.958535
H194	H	1.633400	0.274061	-0.458535
H195	H	1.078051	-0.170568	-0.954554
H196	H	1.578051	0.329432	-0.454554
C197	C	0.900012	-0.560506	-0.438230
C198	C	1.400012	-0.060506	0.061770
H199	H	0.871851	-0.594059	-0.462264
H200	H	1.371851	-0.094059	0.037736
H201	H	0.928113	-0.530670	-0.465487
H202	H	1.428113	-0.030670	0.034513
H203	H	0.870447	-0.533055	-0.412190
H204	H	1.370447	-0.033055	0.087810
C205	C	0.743418	-0.403709	-0.258639
C206	C	1.243418	0.096291	0.241361
H207	H	0.792804	-0.395283	-0.265847
H208	H	1.292804	0.104717	0.234153
H209	H	0.729438	-0.451577	-0.268937
H210	H	1.229438	0.048423	0.231063
H211	H	0.731744	-0.393797	-0.215786
H212	H	1.231744	0.106203	0.284214
C213	C	1.022347	-0.164895	-0.776032
C214	C	1.522347	0.335105	-0.276032
H215	H	1.021182	-0.174043	-0.732662
H216	H	1.521182	0.325957	-0.232662
H217	H	0.985206	-0.136770	-0.784405
H218	H	1.485206	0.363230	-0.284405
H219	H	1.066188	-0.140631	-0.787473
H220	H	1.566188	0.359369	-0.287473
C221	C	1.116531	-0.881853	-0.253624
C222	C	1.616531	-0.381853	0.246376
H223	H	1.112014	-0.832995	-0.257430
H224	H	1.612014	-0.332995	0.242570
H225	H	1.163425	-0.891959	-0.264850
H226	H	1.663425	-0.391959	0.235150
H227	H	1.105720	-0.894380	-0.211587
H228	H	1.605720	-0.394380	0.288413
H229	H	0.920113	-0.383676	-1.110039
H230	H	1.420113	0.116324	-0.610039
H231	H	0.920115	-0.383731	-0.991331
H232	H	1.420115	0.116269	-0.491331
H233	H	0.990469	-0.414341	-0.911858
H234	H	1.490469	0.085659	-0.411858
H235	H	0.990272	-0.414380	-0.793148
H236	H	1.490272	0.085620	-0.293148
C237	C	0.906697	-0.397234	-0.715743
C238	C	1.406697	0.102766	-0.215743
H239	H	0.878745	-0.425165	-0.686872
H240	H	1.378745	0.074835	-0.186872
H241	H	0.932413	-0.426864	-0.743259
H242	H	1.432413	0.073136	-0.243259
H243	H	0.877078	-0.371481	-0.739275
H244	H	1.377078	0.128519	-0.239275
C245	C	0.751189	-0.214635	-0.420766
C246	C	1.251189	0.285365	0.079234
H247	H	0.719824	-0.189122	-0.442637
H248	H	1.219824	0.310878	0.057363
H249	H	0.778831	-0.240495	-0.449933
H250	H	1.278831	0.259505	0.050067
H251	H	0.781143	-0.182723	-0.396775
H252	H	1.281143	0.317277	0.103225
C253	C	0.422196	-0.187743	-0.443886
C254	C	0.922196	0.312257	0.056114
H255	H	0.471052	-0.192219	-0.440048
H256	H	0.971052	0.307781	0.059952
H257	H	0.412045	-0.140845	-0.432758
H258	H	0.912045	0.359155	0.067242
H259	H	0.409733	-0.198623	-0.485911
H260	H	0.909733	0.301377	0.014089
H261	H	0.920086	-0.383880	-0.587695
H262	H	1.420086	0.116120	-0.087695
H263	H	1.076148	-0.563899	-0.287959
H264	H	1.576148	-0.063899	0.212041
H265	H	1.070833	-0.697457	-0.292569
H266	H	1.570833	-0.197457	0.207431
