data_functionalizedCrystal
_audit_creation_method	'MofGen! by Chris Wilmer'
_symmetry_space_group_name_H-M	'P1'
_symmetry_Int_Tables_number	1
_symmetry_cell_setting	triclinic
loop_
_symmetry_equiv_pos_as_xyz
  x,y,z
_cell_length_a	19.288859
_cell_length_b	14.519731
_cell_length_c	13.596369
_cell_angle_alpha	89.999010
_cell_angle_beta	89.992880
_cell_angle_gamma	83.411289
loop_
_atom_site_label
_atom_site_type_symbol
_atom_site_fract_x
_atom_site_fract_y
_atom_site_fract_z
O1	O	0.921774	0.115009	-0.081813
O2	O	1.255107	0.448342	0.251520
O3	O	1.588441	0.781675	0.584854
O4	O	0.719569	0.130534	-0.081811
O5	O	1.052903	0.463867	0.251522
O6	O	1.386236	0.797200	0.584856
O7	O	0.826025	-0.011500	-0.081803
O8	O	1.159358	0.321833	0.251530
O9	O	1.492692	0.655167	0.584864
O10	O	0.815318	0.257042	-0.081821
O11	O	1.148651	0.590376	0.251513
O12	O	1.481985	0.923709	0.584846
O13	O	0.826011	-0.011491	0.081780
O14	O	1.159344	0.321842	0.415113
O15	O	1.492678	0.655176	0.748447
O16	O	0.719555	0.130543	0.081772
O17	O	1.052889	0.463876	0.415105
O18	O	1.386222	0.797209	0.748439
O19	O	0.921760	0.115018	0.081770
O20	O	1.255093	0.448351	0.415103
O21	O	1.588427	0.781684	0.748437
Zn22	Zn	0.820655	0.122782	0.107743
Zn23	Zn	1.153989	0.456115	0.441077
Zn24	Zn	1.487322	0.789448	0.774410
Zn25	Zn	0.820674	0.122770	-0.107784
Zn26	Zn	1.154007	0.456103	0.225549
Zn27	Zn	1.487340	0.789436	0.558882
O28	O	0.815304	0.257051	0.081762
O29	O	1.148638	0.590385	0.415095
O30	O	1.481971	0.923718	0.748429
C31	C	0.693684	0.130040	-0.000019
C32	C	1.027017	0.463373	0.333314
C33	C	1.360351	0.796706	0.666648
C34	C	0.616575	0.128543	-0.000018
C35	C	0.949908	0.461876	0.333315
C36	C	1.283241	0.795210	0.666649
C37	C	0.052802	0.201757	-0.000024
C38	C	0.386135	0.535090	0.333309
C39	C	0.719468	0.868424	0.666642
C40	C	0.125253	0.203171	-0.000030
C41	C	0.458587	0.536505	0.333304
C42	C	0.791920	0.869838	0.666637
C43	C	0.169655	0.119832	-0.000022
C44	C	0.502989	0.453166	0.333311
C45	C	0.836322	0.786499	0.666644
C46	C	0.141601	0.035073	-0.000035
C47	C	0.474934	0.368406	0.333298
C48	C	0.808267	0.701739	0.666632
C49	C	0.069150	0.033661	-0.000039
C50	C	0.402483	0.366994	0.333294
C51	C	0.735817	0.700327	0.666627
C52	C	0.290694	0.057682	0.057296
C53	C	0.624027	0.391015	0.390629
C54	C	0.957360	0.724348	0.723963
C55	C	0.363142	0.059097	0.057307
C56	C	0.696476	0.392431	0.390640
C57	C	1.029809	0.725764	0.723973
C58	C	0.393117	0.124184	-0.000012
C59	C	0.726451	0.457517	0.333321
C60	C	1.059784	0.790851	0.666654
C61	C	0.350633	0.187871	-0.057329
C62	C	0.683966	0.521204	0.276004
C63	C	1.017299	0.854537	0.609337
C64	C	0.278182	0.186459	-0.057334
C65	C	0.611516	0.519792	0.275999
C66	C	0.944849	0.853125	0.609333
C67	C	0.248217	0.121354	-0.000018
C68	C	0.581550	0.454687	0.333315
C69	C	0.914883	0.788021	0.666649
C70	C	0.499724	0.210472	-0.000012
C71	C	0.833058	0.543805	0.333321
C72	C	1.166391	0.877139	0.666654
C73	C	0.572178	0.211883	-0.000024
C74	C	0.905511	0.545216	0.333310
C75	C	1.238844	0.878549	0.666643
C76	C	0.588524	0.043782	-0.000019
C77	C	0.921857	0.377115	0.333314
C78	C	1.255190	0.710448	0.666647
C79	C	0.516071	0.042373	-0.000018
C80	C	0.849405	0.375707	0.333316
C81	C	1.182738	0.709040	0.666649
C82	C	0.471676	0.125721	-0.000010
C83	C	0.805009	0.459054	0.333324
C84	C	1.138343	0.792388	0.666657
C85	C	0.825516	-0.045852	-0.000011
C86	C	1.158850	0.287482	0.333322
C87	C	1.492183	0.620815	0.666655
C88	C	0.824013	-0.148222	-0.000011
C89	C	1.157346	0.185111	0.333323
C90	C	1.490680	0.518444	0.666656
C91	C	0.822792	-0.231359	-0.000013
C92	C	1.156125	0.101975	0.333320
C93	C	1.489458	0.435308	0.666654
C94	C	0.821265	-0.335658	-0.000020
C95	C	1.154599	-0.002324	0.333313
C96	C	1.487932	0.331009	0.666646
C97	C	0.820054	-0.418789	-0.000027
C98	C	1.153387	-0.085456	0.333307
C99	C	1.486720	0.247878	0.666640
C100	C	0.818528	-0.523095	-0.000032
C101	C	1.151861	-0.189762	0.333301
C102	C	1.485194	0.143572	0.666634
C103	C	0.947645	0.115512	-0.000024
C104	C	1.280979	0.448845	0.333309
C105	C	1.614312	0.782178	0.666643
C106	C	1.024755	0.117008	-0.000031
C107	C	1.358088	0.450342	0.333302
C108	C	1.691421	0.783675	0.666635
C109	C	0.815813	0.291403	-0.000032
C110	C	1.149146	0.624736	0.333302
C111	C	1.482480	0.958070	0.666635
C112	C	0.817316	0.393774	-0.000039
C113	C	1.150650	0.727107	0.333295
C114	C	1.483983	1.060440	0.666628
N115	N	0.820648	0.122789	0.254835
N116	N	1.153981	0.456123	0.588168
N117	N	1.487315	0.789456	0.921502
C118	C	0.820651	0.122792	0.343833
C119	C	1.153984	0.456125	0.677166
C120	C	1.487318	0.789459	1.010500
C121	C	0.820657	0.122786	0.455484
C122	C	1.153991	0.456120	0.788818
C123	C	1.487324	0.789453	1.122151
C124	C	0.820666	0.122776	0.544475
C125	C	1.153999	0.456110	0.877808
C126	C	1.487333	0.789443	1.211142
C127	C	0.820673	0.122772	0.656133
C128	C	1.154007	0.456105	0.989467
C129	C	1.487340	0.789438	1.322800
N130	N	0.820682	0.122762	0.745124
N131	N	1.154015	0.456095	1.078457
N132	N	1.487349	0.789428	1.411791
H133	H	0.148094	0.272186	-0.000015
H134	H	0.481427	0.605519	0.333319
H135	H	0.814761	0.938853	0.666652
H136	H	0.375036	0.240873	-0.104002
H137	H	0.708369	0.574206	0.229332
H138	H	1.041703	0.907539	0.562665
H139	H	0.016659	0.269625	-0.000023
H140	H	0.349992	0.602959	0.333311
H141	H	0.683325	0.936292	0.666644
H142	H	0.397728	0.007244	0.103983
H143	H	0.731061	0.340577	0.437316
H144	H	1.064394	0.673911	0.770649
Cl145	Cl	0.480810	-0.064174	-0.000030
Cl146	Cl	0.814143	0.269159	0.333303
Cl147	Cl	1.147477	0.602492	0.666636
Cl148	Cl	0.644337	-0.060989	-0.000025
Cl149	Cl	0.977670	0.272344	0.333308
Cl150	Cl	1.311003	0.605678	0.666641
H151	H	0.463575	0.278339	-0.000008
H152	H	0.796909	0.611672	0.333326
H153	H	1.130242	0.945005	0.666659
Cl154	Cl	0.197419	-0.069696	-0.000030
Cl155	Cl	0.530753	0.263637	0.333303
Cl156	Cl	0.864086	0.596970	0.666637
Cl157	Cl	0.253024	-0.024195	0.129303
Cl158	Cl	0.586357	0.309138	0.462637
Cl159	Cl	0.919691	0.642471	0.795970
H160	H	0.243594	0.238313	-0.104005
H161	H	0.576928	0.571646	0.229328
H162	H	0.910261	0.904980	0.562661
Cl163	Cl	0.033889	-0.072889	-0.000051
Cl164	Cl	0.367222	0.260444	0.333283
Cl165	Cl	0.700556	0.593777	0.666616
H166	H	0.595011	0.280898	-0.000026
H167	H	0.928345	0.614231	0.333307
H168	H	1.261678	0.947565	0.666640
