data_functionalizedCrystal
_audit_creation_method	'MofGen! by Chris Wilmer'
_symmetry_space_group_name_H-M	'P1'
_symmetry_Int_Tables_number	1
_symmetry_cell_setting	triclinic
loop_
_symmetry_equiv_pos_as_xyz
  x,y,z
_cell_length_a	14.971507
_cell_length_b	9.616153
_cell_length_c	14.971486
_cell_angle_alpha	89.997534
_cell_angle_beta	83.618395
_cell_angle_gamma	89.992022
loop_
_atom_site_label
_atom_site_type_symbol
_atom_site_fract_x
_atom_site_fract_y
_atom_site_fract_z
O1	O	-1.186937	0.115682	-0.116648
O2	O	-0.926539	0.115677	-0.130587
O3	O	-1.063717	0.115670	0.006582
O4	O	-1.049758	0.115689	-0.253817
O5	O	-1.063698	-0.115622	0.006579
O6	O	-0.926520	-0.115614	-0.130590
O7	O	-1.186918	-0.115609	-0.116651
Zn8	Zn	-1.056716	-0.152334	-0.123621
Zn9	Zn	-1.056741	0.152402	-0.123617
O10	O	-1.049740	-0.115602	-0.253820
C11	C	-0.893205	0.000031	-0.129962
C12	C	-0.793909	0.000029	-0.128084
C13	C	-0.355627	0.000039	-0.201501
C14	C	-0.448927	0.000047	-0.203259
C15	C	-0.506147	0.000036	-0.122666
C16	C	-0.470062	0.000031	-0.040311
C17	C	-0.376764	0.000033	-0.038554
C18	C	-0.664525	0.000024	-0.043978
C19	C	-0.757830	0.000019	-0.045735
C20	C	-0.736688	0.000038	-0.208683
C21	C	-0.643390	0.000040	-0.206926
C22	C	-0.607312	0.000032	-0.124570
N23	N	-1.056706	-0.360309	-0.123623
C24	C	-0.983104	-0.580675	-0.196757
C25	C	-0.983263	-0.419507	-0.197028
C26	C	-1.150058	-0.418755	-0.144116
C27	C	-1.149656	-0.579973	-0.144633
C28	C	-1.037888	-0.580228	-0.029751
C29	C	-1.035737	-0.419001	-0.030378
C30	C	-0.220252	0.000035	-0.117276
C31	C	-0.319548	0.000030	-0.119152
C32	C	-1.063084	0.000025	0.039905
C33	C	-1.061213	0.000026	0.139202
N34	N	-1.056758	0.360377	-0.123608
C35	C	-1.050373	0.000046	-0.287143
C36	C	-1.052244	0.000054	-0.386441
C37	C	-1.141801	0.000026	0.196422
C38	C	-1.140038	0.000040	0.289721
C39	C	-1.057686	0.000044	0.325800
C40	C	-0.977091	0.000047	0.268573
C41	C	-0.978855	0.000043	0.175275
C42	C	-0.973420	0.000052	0.463036
C43	C	-0.971656	0.000054	0.556340
C44	C	-1.134603	0.000049	0.577482
C45	C	-1.136367	0.000045	0.484184
C46	C	-1.055772	0.000046	0.426964
H47	H	-0.596803	0.000040	-0.272551
Br48	Br	-0.327799	0.000025	0.073209
H49	H	-0.766067	0.000043	-0.275740
Br50	Br	-1.119329	-0.351868	0.064615
H51	H	-0.913232	0.000043	0.128688
H52	H	-0.913876	-0.379995	-0.184802
H53	H	-0.635155	0.000024	0.023084
Br54	Br	-1.243593	-0.354850	-0.057687
H55	H	-0.516658	0.000030	0.025308
Br56	Br	-1.249413	0.000041	0.367374
H57	H	-0.913498	-0.619488	-0.184729
Br58	Br	-1.002937	-0.648133	-0.312193
H59	H	-0.804417	0.000022	0.019890
H60	H	-0.309044	0.000037	-0.267129
Br61	Br	-0.497887	0.000073	-0.315023
Br62	Br	-1.003312	-0.355183	-0.313126
H63	H	-1.200227	0.000053	0.624075
Br64	Br	-1.177346	-0.642621	-0.258723
H65	H	-0.910038	0.000059	0.297955
H66	H	-1.206181	-0.618963	-0.093461
H67	H	-1.167060	-0.378359	-0.211790
Br68	Br	-0.926875	-0.648080	0.003033
Br69	Br	-0.921279	-0.355343	-0.004457
Br70	Br	-1.127409	-0.643758	0.060980
H71	H	-1.208862	0.000015	0.167054
H72	H	-0.907791	0.000057	0.416449
H73	H	-1.203426	0.000032	0.454812
Br74	Br	-0.859891	0.000052	0.605304
