data_functionalizedCrystal
_audit_creation_method	'MofGen! by Chris Wilmer'
_symmetry_space_group_name_H-M	'P1'
_symmetry_Int_Tables_number	1
_symmetry_cell_setting	triclinic
loop_
_symmetry_equiv_pos_as_xyz
  x,y,z
_cell_length_a	16.109295
_cell_length_b	14.586319
_cell_length_c	16.109301
_cell_angle_alpha	90.005214
_cell_angle_beta	96.539666
_cell_angle_gamma	89.999424
loop_
_atom_site_label
_atom_site_type_symbol
_atom_site_fract_x
_atom_site_fract_y
_atom_site_fract_z
O1	O	-1.103134	0.076181	0.106844
O2	O	-0.861071	0.076197	0.120148
O3	O	-0.988752	0.076179	-0.007535
O4	O	-0.975453	0.076199	0.234527
O5	O	-0.988743	-0.076302	-0.007537
O6	O	-0.861062	-0.076284	0.120146
O7	O	-1.103125	-0.076300	0.106842
Cu8	Cu	-0.982093	-0.090215	0.113494
Cu9	Cu	-0.982103	0.090111	0.113496
O10	O	-0.975444	-0.076282	0.234525
C11	C	-0.830092	-0.000042	0.119609
C12	C	-0.737796	-0.000036	0.117996
C13	C	-0.515523	-0.000040	0.190008
C14	C	-0.428803	-0.000046	0.188486
C15	C	-0.448677	-0.000054	0.036996
C16	C	-0.535396	-0.000055	0.038520
C17	C	-0.568816	-0.000043	0.115028
C18	C	-0.395377	-0.000048	0.111982
C19	C	-0.301351	-0.000054	0.110331
C20	C	-0.662849	-0.000039	0.116679
N21	N	-0.982091	-0.217046	0.113492
C22	C	-1.038647	-0.452061	0.056973
C23	C	-1.038650	-0.548042	0.056971
C24	C	-0.925549	-0.548036	0.170014
C25	C	-0.925544	-0.452056	0.170011
C26	C	-0.982097	-0.404071	0.113491
C27	C	-0.982105	-0.596032	0.113492
C28	C	-0.982108	-0.700099	0.113490
C29	C	-0.982094	-0.299997	0.113492
C30	C	-0.134104	-0.000058	0.107386
C31	C	-0.226397	-0.000055	0.109014
C32	C	-0.988209	-0.000062	-0.038511
C33	C	-0.986594	-0.000063	-0.130806
N34	N	-0.982111	0.216943	0.113492
C35	C	-1.058602	-0.000053	-0.353080
C36	C	-1.057078	-0.000046	-0.439800
C37	C	-0.905588	-0.000039	-0.419923
C38	C	-0.907113	-0.000040	-0.333204
C39	C	-0.983622	-0.000052	-0.299785
C40	C	-0.980573	-0.000043	-0.473225
C41	C	-0.978920	-0.000035	-0.567251
C42	C	-0.985276	-0.000058	-0.205754
C43	C	-0.975987	-0.000039	0.265501
C44	C	-0.977602	-0.000032	0.357796
H45	H	-0.421455	-0.000069	-0.025294
H46	H	-0.578790	-0.000060	-0.022542
H47	H	-0.846052	-0.000037	-0.289809
O48	O	-1.099643	-0.599806	-0.003988
H49	H	-1.140032	-0.643534	0.031026
H50	H	-1.118133	-0.000045	-0.483190
O51	O	-0.551573	-0.000035	0.272524
H52	H	-0.590611	-0.062181	0.276832
O53	O	-1.099632	-0.400301	-0.003993
H54	H	-1.138948	-0.449800	-0.043301
H55	H	-1.120900	-0.000061	-0.325874
H56	H	-0.879506	-0.587115	0.216032
H57	H	-0.385414	-0.000045	0.249542
H58	H	-0.879490	-0.412981	0.216036
H59	H	-0.843297	-0.000032	-0.447144
