data_functionalizedCrystal
_audit_creation_method	'MofGen! by Chris Wilmer'
_symmetry_space_group_name_H-M	'P1'
_symmetry_Int_Tables_number	1
_symmetry_cell_setting	triclinic
loop_
_symmetry_equiv_pos_as_xyz
  x,y,z
_cell_length_a	17.699083
_cell_length_b	19.188925
_cell_length_c	16.176319
_cell_angle_alpha	89.993545
_cell_angle_beta	89.998611
_cell_angle_gamma	83.212782
loop_
_atom_site_label
_atom_site_type_symbol
_atom_site_fract_x
_atom_site_fract_y
_atom_site_fract_z
O1	O	1.003961	0.088295	-0.068630
O2	O	0.783567	0.099782	-0.068657
O3	O	0.900126	-0.007610	-0.068638
O4	O	0.887401	0.195687	-0.068649
O5	O	0.900110	-0.007617	0.068855
O6	O	0.783551	0.099775	0.068836
O7	O	1.003945	0.088288	0.068863
Cu8	Cu	0.893746	0.094031	0.081404
Cu9	Cu	0.893765	0.094039	-0.081198
O10	O	0.887386	0.195680	0.068844
C11	C	0.755362	0.099367	0.000086
C12	C	0.671346	0.098132	0.000076
C13	C	0.622641	0.161169	0.000073
C14	C	0.543699	0.160005	0.000084
C15	C	0.513464	0.095803	0.000092
C16	C	0.562176	0.032761	0.000097
C17	C	0.641116	0.033926	0.000092
C18	C	0.243819	0.028060	0.000118
C19	C	0.164872	0.026900	0.000120
C20	C	0.146402	0.154139	0.000109
C21	C	0.225342	0.155304	0.000104
C22	C	0.274047	0.092263	0.000114
C23	C	0.359644	0.093526	0.000104
C24	C	0.427868	0.094538	0.000096
C25	C	0.899707	-0.033625	0.000108
C26	C	0.898472	-0.111131	0.000106
C27	C	0.958596	-0.672834	0.000093
C28	C	0.959763	-0.600010	0.000100
C29	C	0.891370	-0.555152	0.000092
C30	C	0.821804	-0.583124	0.000096
C31	C	0.820639	-0.655947	0.000097
N32	N	0.841861	-0.434525	-0.046714
N33	N	0.842973	-0.365346	-0.046716
C34	C	0.894875	-0.335739	0.000091
N35	N	0.945637	-0.377925	0.046891
N36	N	0.944527	-0.447110	0.046890
C37	C	0.892625	-0.476186	0.000091
C38	C	0.965702	-0.228811	0.000101
C39	C	0.966866	-0.155984	0.000113
C40	C	0.828905	-0.139100	0.000101
C41	C	0.827743	-0.211925	0.000097
C42	C	0.896143	-0.256776	0.000093
C43	C	1.032149	0.088703	0.000118
C44	C	1.116166	0.089938	0.000123
C45	C	0.887805	0.221695	0.000096
C46	C	0.889040	0.299201	0.000093
N47	N	0.893739	0.094025	0.195769
N48	N	0.893779	0.094040	-0.195563
C49	C	0.945366	0.046491	0.239042
C50	C	0.945370	0.046490	0.325589
C51	C	0.893749	0.094027	0.368862
C52	C	0.842116	0.141563	0.325583
C53	C	0.842109	0.141560	0.239038
C54	C	0.842142	0.141577	0.674611
C55	C	0.842154	0.141577	0.761163
C56	C	0.945403	0.046506	0.761163
C57	C	0.945396	0.046503	0.674617
C58	C	0.893760	0.094037	0.631346
C59	C	0.893756	0.094036	0.537502
C60	C	0.893757	0.094032	0.462704
H61	H	0.647251	0.213450	0.000066
Br62	Br	0.728984	-0.522248	0.000093
Br63	Br	0.477601	0.245559	0.000077
H64	H	0.987445	0.007800	0.796403
Br65	Br	0.772069	0.206085	0.615891
H66	H	0.140259	-0.025384	0.000128
H67	H	0.987405	0.007784	0.203815
Br68	Br	0.266371	0.242439	0.000086
Br69	Br	0.707218	-0.051628	0.000104
H70	H	1.014293	-0.709348	0.000094
Br71	Br	0.309908	-0.057496	0.000133
H72	H	0.800115	0.180289	0.796394
H73	H	0.106737	0.205471	0.000105
Br74	Br	0.772051	0.206075	0.384307
Br75	Br	0.521144	-0.054372	0.000116
H76	H	1.016405	-0.577237	0.000100
Br77	Br	0.733340	-0.249879	0.000092
Br78	Br	0.726234	-0.693902	0.000098
Br79	Br	1.015459	-0.018009	0.615892
Br80	Br	1.058528	-0.289684	0.000097
Br81	Br	1.015435	-0.018024	0.384319
Br82	Br	1.061272	-0.118032	0.000112
Br83	Br	0.772035	0.206069	0.180310
H84	H	0.773218	-0.102577	0.000102
