data_functionalizedCrystal
_audit_creation_method	'MofGen! by Chris Wilmer'
_symmetry_space_group_name_H-M	'P1'
_symmetry_Int_Tables_number	1
_symmetry_cell_setting	triclinic
loop_
_symmetry_equiv_pos_as_xyz
  x,y,z
_cell_length_a	10.654545
_cell_length_b	14.044190
_cell_length_c	9.730223
_cell_angle_alpha	89.990718
_cell_angle_beta	89.997167
_cell_angle_gamma	88.837428
loop_
_atom_site_label
_atom_site_type_symbol
_atom_site_fract_x
_atom_site_fract_y
_atom_site_fract_z
O1	O	1.681233	0.133211	-0.114293
O2	O	1.317030	0.145909	-0.114301
O3	O	1.493661	0.001539	-0.114270
O4	O	1.504603	0.277581	-0.114324
O5	O	1.493648	0.001535	0.114310
O6	O	1.317018	0.145905	0.114279
O7	O	1.681220	0.133207	0.114287
Zn8	Zn	1.499117	0.139555	0.150575
Zn9	Zn	1.499134	0.139561	-0.150589
O10	O	1.504590	0.277577	0.114256
C11	C	1.270132	0.144976	-0.000011
C12	C	1.130409	0.142189	-0.000013
C13	C	1.064765	0.140875	0.124587
C14	C	0.933481	0.138241	0.124588
C15	C	0.933495	0.138239	-0.124623
C16	C	1.064777	0.140866	-0.124622
C17	C	1.488867	-0.033808	0.000024
C18	C	1.474588	-0.139128	0.000035
C19	C	1.549753	-0.388921	-0.000017
C20	C	1.448503	-0.331957	-0.000009
C21	C	1.463020	-0.224657	0.000016
C22	C	1.535238	-0.496231	-0.000042
C23	C	1.728119	0.134141	-0.000006
C24	C	1.867842	0.136927	-0.000013
C25	C	1.509384	0.312925	-0.000041
C26	C	1.523663	0.418244	-0.000062
N27	N	1.499115	0.139551	0.356111
N28	N	1.499145	0.139557	-0.356125
C29	C	1.577358	0.075652	0.428051
C30	C	1.577371	0.075652	0.571934
C31	C	1.420893	0.203460	0.571925
C32	C	1.420875	0.203454	0.428045
H33	H	1.118226	0.141933	-0.226092
O34	O	0.869668	0.137131	-0.245624
C35	C	0.788668	0.217609	-0.253078
H36	H	0.824709	0.275717	-0.182382
H37	H	0.785490	0.245109	-0.363288
H38	H	0.690310	0.197080	-0.219595
H39	H	1.357194	0.255490	0.630508
O40	O	1.332172	-0.370061	0.000044
C41	C	1.343382	-0.470266	-0.000012
H42	H	1.438899	-0.492745	0.043255
H43	H	1.266042	-0.501244	0.066347
H44	H	1.334268	-0.497836	-0.109679
O45	O	1.653142	0.013495	0.358053
C46	C	1.579226	-0.045514	0.274931
H47	H	1.485143	-0.008388	0.253351
H48	H	1.629982	-0.060219	0.173762
H49	H	1.562785	-0.115650	0.330463
O50	O	1.666075	-0.350818	0.000070
C51	C	1.654854	-0.250613	0.000061
H52	H	1.559325	-0.228160	0.043323
H53	H	1.732177	-0.219660	0.066446
H54	H	1.663987	-0.222993	-0.109592
H55	H	1.357153	0.255490	0.369468
O56	O	1.128330	0.142103	0.245750
C57	C	1.042231	0.140400	0.355723
H58	H	0.950494	0.108551	0.319195
H59	H	1.082982	0.095183	0.442878
H60	H	1.023596	0.216085	0.394025
O61	O	0.869673	0.136794	0.245591
C62	C	0.798761	0.053273	0.253055
H63	H	0.841853	-0.003251	0.182356
H64	H	0.798968	0.025715	0.363266
H65	H	0.698123	0.069817	0.219583
H66	H	1.641082	0.023618	0.630503
