data_functionalizedCrystal
_audit_creation_method	'MofGen! by Chris Wilmer'
_symmetry_space_group_name_H-M	'P1'
_symmetry_Int_Tables_number	1
_symmetry_cell_setting	triclinic
loop_
_symmetry_equiv_pos_as_xyz
  x,y,z
_cell_length_a	10.540539
_cell_length_b	9.065218
_cell_length_c	7.540329
_cell_angle_alpha	90.001757
_cell_angle_beta	90.000905
_cell_angle_gamma	84.770688
loop_
_atom_site_label
_atom_site_type_symbol
_atom_site_fract_x
_atom_site_fract_y
_atom_site_fract_z
O1	O	-1.686653	-0.207930	-0.147391
O2	O	-1.317313	-0.227521	-0.147412
O3	O	-1.509617	-0.003045	-0.147398
O4	O	-1.494349	-0.432406	-0.147406
O5	O	-1.509606	-0.003042	0.147568
O6	O	-1.317301	-0.227519	0.147553
O7	O	-1.686642	-0.207927	0.147574
Cu8	Cu	-1.501970	-0.217723	0.174496
Cu9	Cu	-1.501984	-0.217726	-0.174334
O10	O	-1.494337	-0.432403	0.147559
C11	C	-1.269999	-0.226051	0.000068
C12	C	-1.129034	-0.221655	0.000059
C13	C	-1.508144	0.051936	0.000082
C14	C	-1.503757	0.215757	0.000073
C15	C	-1.733956	-0.209398	0.000090
C16	C	-1.874920	-0.213794	0.000087
C17	C	-0.944985	-0.053221	0.000751
C18	C	-1.091619	-0.057677	0.000068
C19	C	-1.067660	-0.300570	-0.168375
C20	C	-0.921095	-0.294974	-0.168498
C21	C	-0.920606	-0.298306	0.166933
C22	C	-1.067593	-0.299817	0.169141
C23	C	-1.495811	-0.487384	0.000076
C24	C	-1.500198	-0.651205	0.000073
N25	N	-1.501970	-0.217719	0.419845
N26	N	-1.501995	-0.217718	-0.419683
H27	H	-1.133999	0.004416	0.120809
H28	H	-0.916155	0.011561	0.121545
C29	C	-1.147721	0.026766	-0.163333
H30	H	-1.237636	0.024337	-0.164303
H31	H	-1.112635	-0.018622	-0.268098
H32	H	-1.127519	0.126695	-0.158391
H33	H	-0.873817	-0.416747	0.168068
H34	H	-0.914544	0.011285	-0.119368
H35	H	-1.092261	-0.419367	0.179308
H36	H	-0.892674	-0.236651	-0.294402
H37	H	-0.888858	-0.245238	0.294605
C38	C	-0.856876	-0.454277	-0.178875
H39	H	-0.920394	-0.522123	-0.183010
H40	H	-0.804773	-0.474095	-0.077313
H41	H	-0.805859	-0.464895	-0.282751
H42	H	-1.090458	-0.420991	-0.174644
C43	C	-1.124914	-0.226529	-0.337723
H44	H	-1.087169	-0.275073	-0.438945
H45	H	-1.108636	-0.125182	-0.339235
H46	H	-1.214265	-0.233675	-0.339472
C47	C	-1.122622	-0.221937	0.337479
H48	H	-1.182796	-0.142124	0.304874
H49	H	-1.055652	-0.184994	0.403634
H50	H	-1.163401	-0.290651	0.407768
