data_functionalizedCrystal
_audit_creation_method	'MofGen! by Chris Wilmer'
_symmetry_space_group_name_H-M	'P1'
_symmetry_Int_Tables_number	1
_symmetry_cell_setting	triclinic
loop_
_symmetry_equiv_pos_as_xyz
  x,y,z
_cell_length_a	17.000383
_cell_length_b	15.500215
_cell_length_c	17.699083
_cell_angle_alpha	93.188936
_cell_angle_beta	79.441659
_cell_angle_gamma	93.374105
loop_
_atom_site_label
_atom_site_type_symbol
_atom_site_fract_x
_atom_site_fract_y
_atom_site_fract_z
O1	O	1.059345	0.072005	0.030207
O2	O	1.559345	0.572005	0.530207
O3	O	0.827559	0.071994	0.057677
O4	O	1.327559	0.571994	0.557677
O5	O	0.950000	0.071992	-0.066672
O6	O	1.450000	0.571992	0.433328
O7	O	0.936904	0.072007	0.154556
O8	O	1.436904	0.572007	0.654556
O9	O	0.943400	-0.071898	-0.072512
O10	O	1.443400	0.428102	0.427488
O11	O	0.820959	-0.071896	0.051837
O12	O	1.320959	0.428104	0.551837
O13	O	1.052744	-0.071885	0.024366
O14	O	1.552744	0.428115	0.524366
Cu15	Cu	0.936249	-0.085029	0.037568
Cu16	Cu	1.436249	0.414971	0.537568
Cu17	Cu	0.944055	0.085138	0.044475
Cu18	Cu	1.444055	0.585138	0.544475
O19	O	0.930303	-0.071883	0.148715
O20	O	1.430303	0.428117	0.648715
C21	C	0.794602	0.000047	0.056232
C22	C	1.294602	0.500047	0.556232
C23	C	0.706235	0.000043	0.060619
C24	C	1.206235	0.500043	0.560619
C25	C	0.205965	0.000077	0.088949
C26	C	0.705965	0.500077	0.588949
C27	C	0.288996	0.000076	0.084821
C28	C	0.788996	0.500076	0.584821
C29	C	0.340129	0.000065	0.013167
C30	C	0.840129	0.500065	0.513167
C31	C	0.308228	0.000063	-0.054362
C32	C	0.808228	0.500063	0.445638
C33	C	0.225198	0.000071	-0.050232
C34	C	0.725198	0.500071	0.449768
C35	C	0.591305	0.000049	-0.002781
C36	C	1.091305	0.500049	0.497219
C37	C	0.674339	0.000039	-0.006905
C38	C	1.174339	0.500039	0.493095
C39	C	0.655102	0.000053	0.132278
C40	C	1.155102	0.500053	0.632278
C41	C	0.572072	0.000055	0.136400
C42	C	1.072072	0.500055	0.636400
C43	C	0.540178	0.000058	0.068872
C44	C	1.040178	0.500058	0.568872
C45	C	0.425000	0.000061	0.008946
C46	C	0.925000	0.500061	0.508946
C47	C	0.455308	0.000068	0.073094
C48	C	0.955308	0.500068	0.573094
N49	N	0.930764	-0.204715	0.032709
N50	N	1.430764	0.295285	0.532709
C51	C	0.976879	-0.249983	0.073598
C52	C	1.476879	0.250017	0.573598
C53	C	0.972741	-0.340556	0.069918
C54	C	1.472741	0.159444	0.569918
C55	C	0.922485	-0.385861	0.025352
C56	C	1.422485	0.114139	0.525352
C57	C	0.876369	-0.340587	-0.015541
C58	C	1.376369	0.159413	0.484459
C59	C	0.880511	-0.250015	-0.011865
C60	C	1.380511	0.249985	0.488135
C61	C	0.907572	-0.659330	0.012111
C62	C	1.407572	-0.159330	0.512111
C63	C	0.903432	-0.749909	0.008439
C64	C	1.403432	-0.249909	0.508439
C65	C	0.999805	-0.749872	0.093897
C66	C	1.499805	-0.249872	0.593897
C67	C	1.003939	-0.659298	0.097573
C68	C	1.503939	-0.159298	0.597573
C69	C	0.957827	-0.614032	0.056676
C70	C	1.457827	-0.114032	0.556676
C71	C	0.918253	-0.478441	0.021591
C72	C	1.418253	0.021559	0.521591
C73	C	0.962063	-0.521453	0.060434
C74	C	1.462063	-0.021453	0.560434
C75	C	1.085701	0.000063	0.025811
C76	C	1.585701	0.500063	0.525811
C77	C	1.174069	0.000073	0.021425
C78	C	1.674069	0.500073	0.521425
C79	C	0.946231	0.000047	-0.097759
C80	C	1.446231	0.500047	0.402241
C81	C	0.944823	0.000046	-0.181686
C82	C	1.444823	0.500046	0.318314
N83	N	0.949546	0.204824	0.049328
N84	N	1.449546	0.704824	0.549328
C85	C	1.016693	0.000049	-0.234963
C86	C	1.516693	0.500049	0.265037
C87	C	1.015366	0.000056	-0.313820
C88	C	1.515366	0.500056	0.186180
C89	C	0.942167	0.000055	-0.339398
C90	C	1.442167	0.500055	0.160602
C91	C	0.870291	0.000056	-0.286114
C92	C	1.370291	0.500056	0.213886
C93	C	0.871620	0.000055	-0.207258
C94	C	1.371620	0.500055	0.292742
C95	C	0.864933	0.000063	-0.604129
C96	C	1.364933	0.500063	-0.104129
C97	C	0.863610	0.000061	-0.682992
C98	C	1.363610	0.500061	-0.182992
C99	C	1.008679	0.000064	-0.710691
C100	C	1.508679	0.500064	-0.210691
C101	C	1.010007	0.000063	-0.631836
C102	C	1.510007	0.500063	-0.131836
C103	C	0.938132	0.000068	-0.578558
C104	C	1.438132	0.500068	-0.078558
C105	C	0.939572	0.000061	-0.493053
C106	C	1.439572	0.500061	0.006947
C107	C	0.940726	0.000056	-0.424902
C108	C	1.440726	0.500056	0.075098
C109	C	0.934073	0.000064	0.179802
C110	C	1.434073	0.500064	0.679802
C111	C	0.935481	0.000070	0.263729
C112	C	1.435481	0.500070	0.763729
H113	H	0.413673	0.000081	0.131434
H114	H	0.913673	0.500081	0.631434
H115	H	0.803999	0.000059	-0.703813
H116	H	1.303999	0.500059	-0.203813
H117	H	0.565347	0.000049	-0.057768
H118	H	1.065347	0.500049	0.442232
H119	H	0.715971	0.000034	-0.065256
H120	H	1.215971	0.500034	0.434744
H121	H	0.349867	0.000059	-0.112703
H122	H	0.849867	0.500059	0.387297
H123	H	0.314962	0.000088	0.139806
H124	H	0.814962	0.500088	0.639806
H125	H	1.076300	0.000044	-0.214145
H126	H	1.576300	0.500044	0.285855
H127	H	1.002985	-0.484563	0.096715
H128	H	1.502985	0.015437	0.596715
H129	H	1.069613	0.000059	-0.611016
H130	H	1.569613	0.500059	-0.111016
H131	H	0.842960	-0.213159	-0.045161
H132	H	1.342960	0.286841	0.454839
H133	H	0.877334	-0.515338	-0.014693
H134	H	1.377334	-0.015338	0.485307
H135	H	0.813095	0.000053	-0.163879
H136	H	1.313095	0.500053	0.336121
H137	H	0.835453	-0.377481	-0.051831
H138	H	1.335453	0.122519	0.448169
H139	H	1.010294	-0.377409	0.103212
H140	H	1.510294	0.122591	0.603212
H141	H	1.073890	0.000056	-0.357197
H142	H	1.573890	0.500056	0.142803
H143	H	1.017798	-0.213102	0.109893
H144	H	1.517798	0.286898	0.609893
H145	H	0.164337	0.000080	0.147296
H146	H	0.664337	0.500080	0.647296
H147	H	0.806407	0.000067	-0.560759
H148	H	1.306407	0.500067	-0.060759
H149	H	0.530444	0.000067	0.194748
H150	H	1.030444	0.500067	0.694748
H151	H	0.810692	0.000061	-0.306945
H152	H	1.310692	0.500061	0.193055
H153	H	0.681079	0.000052	0.187256
H154	H	1.181079	0.500052	0.687256
H155	H	0.199230	0.000069	-0.105218
H156	H	0.699230	0.500069	0.394782
H157	H	1.067203	0.000065	-0.754080
H158	H	1.567203	0.500065	-0.254080
H159	H	1.044866	-0.622418	0.133861
H160	H	1.544866	-0.122418	0.633861
H161	H	1.037348	-0.786738	0.127192
H162	H	1.537348	-0.286738	0.627192
H163	H	0.466641	0.000049	-0.049394
H164	H	0.966641	0.500049	0.450606
H165	H	0.862503	-0.786793	-0.027851
H166	H	1.362503	-0.286793	0.472149
H167	H	0.870024	-0.622486	-0.021191
H168	H	1.370024	-0.122486	0.478809
