data_functionalizedCrystal
_audit_creation_method	'MofGen! by Chris Wilmer'
_symmetry_space_group_name_H-M	'P1'
_symmetry_Int_Tables_number	1
_symmetry_cell_setting	triclinic
loop_
_symmetry_equiv_pos_as_xyz
  x,y,z
_cell_length_a	16.959455
_cell_length_b	18.101395
_cell_length_c	16.959447
_cell_angle_alpha	90.029468
_cell_angle_beta	90.020374
_cell_angle_gamma	90.028124
loop_
_atom_site_label
_atom_site_type_symbol
_atom_site_fract_x
_atom_site_fract_y
_atom_site_fract_z
Zn1	Zn	1.208323	-0.294874	0.447041
Zn2	Zn	1.208220	-0.418727	0.314864
Zn3	Zn	1.076152	-0.294897	0.314865
Zn4	Zn	1.076091	-0.418672	0.446989
O5	O	1.142197	-0.356792	0.380940
O6	O	1.318920	-0.311317	0.429529
O7	O	1.190683	-0.402333	0.204253
O8	O	1.093753	-0.191261	0.332420
O9	O	1.318845	-0.402311	0.332420
O10	O	1.190859	-0.191244	0.429529
O11	O	1.093653	-0.311356	0.204254
O12	O	0.965533	-0.311303	0.332369
O13	O	1.093649	-0.402217	0.557607
O14	O	0.965488	-0.402239	0.429441
O15	O	1.190800	-0.311263	0.557645
O16	O	1.190625	-0.522352	0.332369
O17	O	1.093550	-0.522312	0.429441
C18	C	0.936830	-0.356768	0.380900
C19	C	0.848974	-0.356776	0.380902
C20	C	0.477448	-0.404126	0.330349
C21	C	0.477548	-0.309520	0.431627
C22	C	0.560094	-0.309508	0.431607
C23	C	0.601321	-0.356806	0.380959
C24	C	0.560002	-0.404117	0.330330
C25	C	0.601419	-0.262203	0.482241
C26	C	0.683970	-0.262190	0.482225
C27	C	0.725198	-0.309485	0.431572
C28	C	0.683874	-0.356797	0.380940
C29	C	0.725101	-0.404096	0.330292
C30	C	0.683778	-0.451404	0.279655
C31	C	0.601230	-0.451412	0.279677
C32	C	0.807747	-0.309477	0.431550
C33	C	0.807655	-0.404086	0.330272
C34	C	1.142091	-0.549203	0.380916
C35	C	1.142118	-0.631517	0.380933
C36	C	1.142291	-0.930608	0.380976
C37	C	1.081356	-0.899288	0.442202
C38	C	1.081066	-0.813670	0.442010
C39	C	1.142205	-0.782225	0.380955
C40	C	1.119658	-0.813379	0.297648
C41	C	1.119266	-0.899024	0.298015
C42	C	1.225907	-0.898955	0.402323
C43	C	1.225415	-0.813304	0.404150
C44	C	1.142158	-0.698366	0.380938
C45	C	1.142337	-1.014467	0.380987
C46	C	1.348365	-0.356817	0.380980
C47	C	1.436221	-0.356828	0.380997
C48	C	1.142229	-0.356731	0.587108
C49	C	1.142243	-0.356705	0.674965
C50	C	1.142324	-0.163630	0.380980
C51	C	1.142379	-0.081316	0.380998
C52	C	1.142209	-0.356800	0.175573
C53	C	1.142348	-0.356618	0.087717
C54	C	1.091756	-0.403982	1.046423
C55	C	1.192920	-0.309271	1.046458
C56	C	1.192899	-0.309287	0.963912
C57	C	1.142306	-0.356652	0.922618
C58	C	1.091735	-0.404001	0.963870
C59	C	1.243475	-0.261944	0.922654
C60	C	1.243456	-0.261959	0.840103
C61	C	1.192859	-0.309320	0.798807
C62	C	1.142285	-0.356671	0.840064
C63	C	1.091693	-0.404035	0.798770
C64	C	1.041115	-0.451383	0.840025
C65	C	1.041138	-0.451363	0.922574
C66	C	1.192836	-0.309340	0.716259
C67	C	1.091672	-0.404054	0.716216
H68	H	0.841388	-0.270961	0.472779
Br69	Br	1.104575	-0.778555	0.544966
H70	H	1.095322	-0.919834	0.504173
Br71	Br	1.301579	-0.932727	0.328011
Br72	Br	1.190021	-0.933565	0.219383
H73	H	0.567846	-0.223700	0.523482
H74	H	1.050466	-0.442618	0.682600
Br75	Br	1.191304	-0.779438	0.219536
H76	H	1.242418	-0.792939	0.465459
H77	H	0.999926	-0.489950	0.806393
Br78	Br	0.977764	-0.779619	0.418448
Br79	Br	0.863599	-0.468274	0.261525
Br80	Br	0.972505	-0.515616	0.978567
Br81	Br	1.305093	-0.777615	0.335249
H82	H	1.284669	-0.223387	0.956282
H83	H	1.234018	-0.270793	0.682673
Br84	Br	1.023113	-0.468232	1.102408
H85	H	0.717356	-0.489919	0.238421
H86	H	1.058143	-0.919064	0.279932
Br87	Br	0.545145	-0.515612	0.210963
H88	H	1.234114	-0.270713	1.080085
H89	H	0.717608	-0.223668	0.523456
Br90	Br	1.312095	-0.197702	0.784121
H91	H	1.019755	-0.920872	0.428239
H92	H	1.059184	-0.791992	0.279242
H93	H	1.246464	-0.920502	0.462035
H94	H	0.443976	-0.271016	0.472867
Br95	Br	0.421371	-0.468323	0.261626
