data_functionalizedCrystal
_audit_creation_method	'MofGen! by Chris Wilmer'
_symmetry_space_group_name_H-M	'P1'
_symmetry_Int_Tables_number	1
_symmetry_cell_setting	triclinic
loop_
_symmetry_equiv_pos_as_xyz
  x,y,z
_cell_length_a	18.215405
_cell_length_b	17.077404
_cell_length_c	17.077396
_cell_angle_alpha	89.978543
_cell_angle_beta	90.031591
_cell_angle_gamma	89.976011
loop_
_atom_site_label
_atom_site_type_symbol
_atom_site_fract_x
_atom_site_fract_y
_atom_site_fract_z
Zn1	Zn	-0.293002	-1.200044	0.443867
Zn2	Zn	0.206998	-0.700044	0.943867
Zn3	Zn	-0.416075	-1.199946	0.312594
Zn4	Zn	0.083925	-0.699946	0.812594
Zn5	Zn	-0.293025	-1.068776	0.312610
Zn6	Zn	0.206975	-0.568776	0.812610
Zn7	Zn	-0.416029	-1.068739	0.443813
Zn8	Zn	0.083971	-0.568739	0.943813
O9	O	-0.354533	-1.134376	0.378221
O10	O	0.145467	-0.634376	0.878221
O11	O	-0.309337	-1.309878	0.426469
O12	O	0.190663	-0.809878	0.926469
O13	O	-0.399782	-1.182521	0.202749
O14	O	0.100218	-0.682521	0.702749
O15	O	-0.190038	-1.086245	0.330051
O16	O	0.309962	-0.586245	0.830051
O17	O	-0.399759	-1.309806	0.330023
O18	O	0.100241	-0.809806	0.830023
O19	O	-0.190021	-1.182687	0.426485
O20	O	0.309979	-0.682687	0.926485
O21	O	-0.309377	-1.086150	0.202761
O22	O	0.190623	-0.586150	0.702761
O23	O	-0.309333	-0.958924	0.329999
O24	O	0.190667	-0.458924	0.829999
O25	O	-0.399680	-1.086182	0.553667
O26	O	0.100320	-0.586182	1.053667
O27	O	-0.399703	-0.958897	0.426393
O28	O	0.100297	-0.458897	0.926393
O29	O	-0.309293	-1.182651	0.553707
O30	O	0.190707	-0.682651	1.053707
O31	O	-0.519054	-1.182485	0.329970
O32	O	-0.019054	-0.682485	0.829970
O33	O	-0.519020	-1.086088	0.426377
O34	O	-0.019020	-0.586088	0.926377
C35	C	-0.354516	-0.930428	0.378192
C36	C	0.145484	-0.430428	0.878192
C37	C	-0.354526	-0.843178	0.378199
C38	C	0.145474	-0.343178	0.878199
C39	C	-0.401652	-0.802195	0.428309
C40	C	0.098348	-0.302195	0.928309
C41	C	-0.401653	-0.720214	0.428319
C42	C	0.098347	-0.220214	0.928319
C43	C	-0.354530	-0.679219	0.378213
C44	C	0.145470	-0.179219	0.878213
C45	C	-0.307398	-0.720208	0.328101
C46	C	0.192602	-0.220208	0.828101
C47	C	-0.307395	-0.802187	0.328096
C48	C	0.192605	-0.302187	0.828096
C49	C	-0.307410	-0.549338	0.328114
C50	C	0.192590	-0.049338	0.828114
C51	C	-0.307414	-0.467354	0.328118
C52	C	0.192586	0.032646	0.828118
C53	C	-0.401667	-0.467365	0.428337
C54	C	0.098333	0.032635	0.928337
C55	C	-0.401664	-0.549344	0.428332
C56	C	0.098336	-0.049344	0.928332
C57	C	-0.354533	-0.590328	0.378218
C58	C	0.145467	-0.090328	0.878218
C59	C	-0.545739	-1.134293	0.378183
C60	C	-0.045739	-0.634293	0.878183
C61	C	-0.627538	-1.134330	0.378193
C62	C	-0.127538	-0.634330	0.878193
C63	C	-0.815725	-1.184642	0.328087
C64	C	-0.315725	-0.684642	0.828087
C65	C	-0.892584	-1.184677	0.328106
C66	C	-0.392584	-0.684677	0.828106
C67	C	-0.892589	-1.084211	0.428411
C68	C	-0.392589	-0.584211	0.928411
C69	C	-0.815731	-1.084181	0.428396
C70	C	-0.315731	-0.584181	0.928396
C71	C	-0.777302	-1.134395	0.378229
C72	C	-0.277302	-0.634395	0.878229
C73	C	-0.931018	-1.134460	0.378264
C74	C	-0.431018	-0.634460	0.878264
C75	C	-1.014351	-1.134498	0.378285
C76	C	-0.514351	-0.634498	0.878285
C77	C	-0.693963	-1.134358	0.378209
C78	C	-0.193963	-0.634358	0.878209
C79	C	-0.162580	-1.134481	0.378276
C80	C	0.337420	-0.634481	0.878276
C81	C	-0.080781	-1.134525	0.378299
C82	C	0.419219	-0.634525	0.878299
C83	C	-0.354479	-1.134424	0.582965
C84	C	0.145521	-0.634424	1.082965
C85	C	-0.354456	-1.134444	0.670215
C86	C	0.145544	-0.634444	1.170215
C87	C	-0.354546	-0.339120	0.378241
C88	C	0.145454	0.160880	0.878241
C89	C	-0.354540	-0.426370	0.378228
C90	C	0.145460	0.073630	0.878228
C91	C	-0.354534	-1.134374	0.174273
C92	C	0.145466	-0.634374	0.674273
C93	C	-0.354350	-1.134506	0.087024
C94	C	0.145650	-0.634506	0.587024
C95	C	-0.307387	-1.184677	0.711227
C96	C	0.192613	-0.684677	1.211227
C97	C	-0.307362	-1.184687	0.793208
C98	C	0.192638	-0.684687	1.293208
C99	C	-0.354411	-1.134466	0.834175
C100	C	0.145589	-0.634466	1.334175
C101	C	-0.401482	-1.084227	0.793157
C102	C	0.098518	-0.584227	1.293157
C103	C	-0.401502	-1.084214	0.711178
C104	C	0.098498	-0.584214	1.211178
C105	C	-0.401438	-1.084259	0.964027
C106	C	0.098562	-0.584259	1.464027
C107	C	-0.401418	-1.084273	1.046011
C108	C	0.098582	-0.584273	1.546011
C109	C	-0.307298	-1.184731	1.046057
C110	C	0.192702	-0.684731	1.546057
C111	C	-0.307318	-1.184718	0.964078
C112	C	0.192682	-0.684718	1.464078
C113	C	-0.354390	-1.134480	0.923066
C114	C	0.145610	-0.634480	1.423066
H115	H	-0.440028	-0.835567	0.469108
H116	H	0.059972	-0.335567	0.969108
H117	H	-0.923865	-1.225594	0.287276
H118	H	-0.423865	-0.725594	0.787276
H119	H	-0.784438	-1.225530	0.287239
H120	H	-0.284438	-0.725530	0.787239
H121	H	-0.269033	-0.433978	0.287327
H122	H	0.230967	0.066022	0.787327
H123	H	-0.923887	-1.043327	0.469254
H124	H	-0.423887	-0.543327	0.969254
C125	C	-0.255564	-0.594419	0.272993
C126	C	0.244436	-0.094419	0.772993
H127	H	-0.227504	-0.558264	0.243148
H128	H	0.272496	-0.058264	0.743148
H129	H	-0.223534	-0.626424	0.303082
H130	H	0.276466	-0.126424	0.803082
H131	H	-0.283677	-0.626373	0.238730
H132	H	0.216323	-0.126373	0.738730
C133	C	-0.773462	-1.028905	0.483553
C134	C	-0.273462	-0.528905	0.983553
H135	H	-0.807356	-0.998996	0.513425
H136	H	-0.307356	-0.498996	1.013425
H137	H	-0.743434	-1.058900	0.517778
H138	H	-0.243434	-0.558900	1.017778
H139	H	-0.743527	-0.994708	0.453479
H140	H	-0.243527	-0.494708	0.953479
H141	H	-0.269077	-1.225575	0.677878
H142	H	0.230923	-0.725575	1.177878
H143	H	-0.440028	-0.686849	0.469123
H144	H	0.059972	-0.186849	0.969123
C145	C	-0.255590	-1.239947	0.838318
C146	C	0.244410	-0.739947	1.338318
H147	H	-0.227580	-1.269862	0.802178
H148	H	0.272420	-0.769862	1.302178
H149	H	-0.223511	-1.209946	0.870301
H150	H	0.276489	-0.709946	1.370301
H151	H	-0.283744	-1.274139	0.870296
H152	H	0.216256	-0.774139	1.370296
H153	H	-0.269011	-1.225616	0.930725
H154	H	0.230989	-0.725616	1.430725
H155	H	-0.268969	-1.225635	1.079453
H156	H	0.231031	-0.725635	1.579453
H157	H	-0.439728	-1.043377	1.079365
H158	H	0.060272	-0.543377	1.579365
H159	H	-0.439757	-1.043338	0.930637
H160	H	0.060243	-0.543338	1.430637
H161	H	-0.439823	-1.043301	0.677787
H162	H	0.060177	-0.543301	1.177787
C163	C	-0.453497	-0.594438	0.483446
C164	C	0.046503	-0.094438	0.983446
H165	H	-0.481562	-0.558290	0.513299
H166	H	0.018438	-0.058290	1.013299
H167	H	-0.485523	-0.626394	0.453355
H168	H	0.014477	-0.126394	0.953355
H169	H	-0.425377	-0.626442	0.517702
H170	H	0.074623	-0.126442	1.017702
C171	C	-0.453506	-0.422287	0.483466
C172	C	0.046494	0.077713	0.983466
H173	H	-0.446754	-0.367592	0.476301
H174	H	0.053246	0.132408	0.976301
H175	H	-0.502938	-0.435695	0.471880
H176	H	-0.002938	0.064305	0.971880
H177	H	-0.442794	-0.435753	0.536230
H178	H	0.057206	0.064247	1.036230
H179	H	-0.439787	-1.043334	0.826518
H180	H	0.060213	-0.543334	1.326518
H181	H	-0.269016	-0.835555	0.287295
H182	H	0.230984	-0.335555	0.787295
H183	H	-0.269027	-0.686823	0.287308
H184	H	0.230973	-0.186823	0.787308
