data_functionalizedCrystal
_audit_creation_method	'MofGen! by Chris Wilmer'
_symmetry_space_group_name_H-M	'P1'
_symmetry_Int_Tables_number	1
_symmetry_cell_setting	triclinic
loop_
_symmetry_equiv_pos_as_xyz
  x,y,z
_cell_length_a	6.817900
_cell_length_b	9.582860
_cell_length_c	14.858572
_cell_angle_alpha	92.654604
_cell_angle_beta	104.524003
_cell_angle_gamma	111.206767
loop_
_atom_site_label
_atom_site_type_symbol
_atom_site_fract_x
_atom_site_fract_y
_atom_site_fract_z
V1	V	-4.078434	-0.207997	-0.289789
V2	V	-3.828434	0.042003	-0.039789
V3	V	-3.578434	0.292003	0.210211
V4	V	-3.328434	0.542003	0.460211
O5	O	-4.023872	0.009026	-0.284448
O6	O	-3.773872	0.259026	-0.034448
O7	O	-3.523872	0.509026	0.215552
O8	O	-3.273872	0.759026	0.465552
O9	O	-4.069119	-0.411491	-0.287638
O10	O	-3.819119	-0.161491	-0.037638
O11	O	-3.569119	0.088509	0.212362
O12	O	-3.319119	0.338509	0.462362
O13	O	-4.034539	-0.205223	-0.416253
O14	O	-3.784539	0.044777	-0.166253
O15	O	-3.534539	0.294777	0.083747
O16	O	-3.284539	0.544777	0.333747
O17	O	-4.058691	-0.198670	-0.154943
O18	O	-3.808691	0.051330	0.095057
O19	O	-3.558691	0.301330	0.345057
O20	O	-3.308691	0.551330	0.595057
V21	V	-4.556414	-0.181988	-0.273681
V22	V	-4.306414	0.068012	-0.023681
V23	V	-4.056414	0.318012	0.226319
V24	V	-3.806414	0.568012	0.476319
O25	O	-4.351852	-0.265049	-0.325124
O26	O	-4.101852	-0.015049	-0.075124
O27	O	-3.851852	0.234951	0.174876
O28	O	-3.601852	0.484951	0.424876
O29	O	-4.733193	-0.124936	-0.238346
O30	O	-4.483193	0.125064	0.011654
O31	O	-4.233193	0.375064	0.261654
O32	O	-3.983193	0.625064	0.511654
O33	O	-4.342523	0.021506	-0.275831
O34	O	-4.092523	0.271506	-0.025831
O35	O	-3.842523	0.521506	0.224169
O36	O	-3.592523	0.771506	0.474169
O37	O	-4.728373	-0.399011	-0.279022
O38	O	-4.478373	-0.149011	-0.029022
O39	O	-4.228373	0.100989	0.220978
O40	O	-3.978373	0.350989	0.470978
O41	O	-4.693554	-0.191315	-0.408527
O42	O	-4.443554	0.058685	-0.158527
O43	O	-4.193554	0.308685	0.091473
O44	O	-3.943554	0.558685	0.341473
O45	O	-4.377102	-0.184762	-0.147217
O46	O	-4.127102	0.065238	0.102783
O47	O	-3.877102	0.315238	0.352783
O48	O	-3.627102	0.565238	0.602783
C49	C	-3.923482	-0.461085	-0.283023
C50	C	-3.673482	-0.211085	-0.033023
C51	C	-3.423482	0.038915	0.216977
C52	C	-3.173482	0.288915	0.466977
C53	C	-3.997182	-0.627447	-0.282108
C54	C	-3.747182	-0.377447	-0.032108
C55	C	-3.497182	-0.127447	0.217892
C56	C	-3.247182	0.122553	0.467892
C57	C	-3.879371	-0.197968	-0.447083
C58	C	-3.629371	0.052032	-0.197083
C59	C	-3.379371	0.302032	0.052917
C60	C	-3.129371	0.552032	0.302917
C61	C	-3.925024	-0.197046	-0.550467
C62	C	-3.675024	0.052954	-0.300467
C63	C	-3.425024	0.302954	-0.050467
C64	C	-3.175024	0.552954	0.199533
C65	C	-4.092116	-0.193677	-0.929037
C66	C	-3.842116	0.056323	-0.679037
C67	C	-3.592116	0.306323	-0.429037
C68	C	-3.342116	0.556323	-0.179037
C69	C	-4.045618	-0.194615	-0.823707
C70	C	-3.795618	0.055385	-0.573707
C71	C	-3.545618	0.305385	-0.323707
C72	C	-3.295618	0.555385	-0.073707
C73	C	-4.008572	-0.195363	-0.739755
C74	C	-3.758572	0.054637	-0.489755
C75	C	-3.508572	0.304637	-0.239755
C76	C	-3.258572	0.554637	0.010245
C77	C	-3.962070	-0.196298	-0.634418
C78	C	-3.712070	0.053702	-0.384418
C79	C	-3.462070	0.303702	-0.134418
C80	C	-3.212070	0.553702	0.115582
C81	C	-4.151503	0.071092	-0.280444
C82	C	-3.901503	0.321092	-0.030444
C83	C	-3.651503	0.571092	0.219556
C84	C	-3.401503	0.821092	0.469556
C85	C	-4.057041	0.237452	-0.281365
C86	C	-3.807041	0.487452	-0.031365
C87	C	-3.557041	0.737452	0.218635
C88	C	-3.307041	0.987452	0.468635
C89	C	-4.195614	-0.192022	-0.116382
C90	C	-3.945614	0.057978	0.133618
C91	C	-3.695614	0.307978	0.383618
C92	C	-3.445614	0.557978	0.633618
C93	C	-4.129197	-0.192936	-0.012997
C94	C	-3.879197	0.057064	0.237003
C95	C	-3.629197	0.307064	0.487003
C96	C	-3.379197	0.557064	0.737003
