data_functionalizedCrystal
_audit_creation_method	'MofGen! by Chris Wilmer'
_symmetry_space_group_name_H-M	'P1'
_symmetry_Int_Tables_number	1
_symmetry_cell_setting	triclinic
loop_
_symmetry_equiv_pos_as_xyz
  x,y,z
_cell_length_a	23.532407
_cell_length_b	16.109301
_cell_length_c	14.586319
_cell_angle_alpha	90.005214
_cell_angle_beta	89.998161
_cell_angle_gamma	83.155079
loop_
_atom_site_label
_atom_site_type_symbol
_atom_site_fract_x
_atom_site_fract_y
_atom_site_fract_z
O1	O	-0.755631	-0.100925	-0.076129
O2	O	-0.589822	-0.115528	-0.076156
O3	O	-0.677281	0.012841	-0.076132
O4	O	-0.668171	-0.229293	-0.076153
O5	O	-0.677275	0.012843	0.076348
O6	O	-0.589816	-0.115526	0.076325
O7	O	-0.755625	-0.100923	0.076352
Cu8	Cu	-0.672720	-0.108224	0.090261
Cu9	Cu	-0.672727	-0.108226	-0.090065
O10	O	-0.668165	-0.229291	0.076328
C11	C	-0.568601	-0.115155	0.000081
C12	C	-0.505380	-0.114037	0.000071
C13	C	-0.676909	0.043814	0.000108
C14	C	-0.675803	0.136100	0.000110
C15	C	-0.776846	-0.101295	0.000113
C16	C	-0.840067	-0.102414	0.000117
C17	C	-0.106531	-0.182990	0.000107
C18	C	-0.047127	-0.181951	0.000112
O19	O	-0.010619	-0.245872	0.000140
N20	N	-0.024220	-0.105636	0.000117
C21	C	-0.060719	-0.030355	0.000126
O22	O	-0.035780	0.034652	0.000131
C23	C	-0.120122	-0.031395	0.000126
C24	C	-0.143027	-0.107715	0.000112
C25	C	-0.129436	-0.259304	0.000093
C26	C	-0.188836	-0.260342	0.000086
C27	C	-0.225331	-0.185066	0.000092
C28	C	-0.202427	-0.108753	0.000105
C29	C	-0.156621	0.043886	0.000141
C30	C	-0.216027	0.042840	0.000143
C31	C	-0.238932	-0.033480	0.000129
C32	C	-0.298322	-0.034516	0.000103
N33	N	-0.321229	-0.110831	0.000098
C34	C	-0.284734	-0.186106	0.000093
C35	C	0.064031	-0.028178	0.000125
C36	C	0.123433	-0.027138	0.000118
C37	C	0.137021	-0.178734	0.000106
C38	C	0.077618	-0.179774	0.000107
C39	C	0.041123	-0.104493	0.000120
C40	C	-0.409479	-0.188281	0.000076
C41	C	-0.468885	-0.189312	0.000065
C42	C	-0.482468	-0.037716	0.000081
C43	C	-0.423067	-0.036684	0.000088
C44	C	-0.386574	-0.111973	0.000088
O45	O	-0.334865	0.029371	0.000079
O46	O	-0.309682	-0.251102	0.000099
C47	C	-0.668537	-0.260264	0.000085
C48	C	-0.669644	-0.352551	0.000078
N49	N	-0.672719	-0.108222	0.217093
C50	C	-0.725127	0.358760	0.000103
C51	C	-0.724083	0.445473	0.000095
C52	C	-0.620315	0.424782	0.000082
C53	C	-0.621360	0.338072	0.000083
C54	C	-0.673768	0.305063	0.000098
C55	C	-0.671679	0.478486	0.000089
C56	C	-0.670547	0.572503	0.000081
C57	C	-0.674900	0.211040	0.000105
N58	N	-0.672732	-0.108222	-0.216897
C59	C	-0.711459	-0.051399	0.452110
C60	C	-0.711460	-0.051397	0.548091
C61	C	-0.633988	-0.165047	0.548079
C62	C	-0.633984	-0.165045	0.452100
C63	C	-0.672723	-0.108222	0.404117
C64	C	-0.672728	-0.108222	0.596078
C65	C	-0.672730	-0.108220	0.700145
C66	C	-0.672721	-0.108222	0.300044
H67	H	-0.487530	-0.251464	0.000053
C68	C	-0.591374	-0.227554	0.399305
H69	H	-0.568309	-0.261404	0.441626
H70	H	-0.567674	-0.197821	0.361868
H71	H	-0.611856	-0.262011	0.361858
H72	H	-0.767801	0.331888	0.000114
C73	C	-0.131439	0.127839	0.000169
H74	H	-0.161690	0.172513	0.000187
H75	H	-0.108545	0.131413	-0.052998
H76	H	-0.108555	0.131392	0.053356
C77	C	-0.780579	0.504536	0.000106
H78	H	-0.811938	0.472455	0.000122
H79	H	-0.782333	0.538787	-0.053067
H80	H	-0.782325	0.538796	0.053286
C81	C	-0.564862	0.279001	0.000080
H82	H	-0.533500	0.311077	0.000085
H83	H	-0.563114	0.244740	-0.053092
H84	H	-0.563113	0.244752	0.053261
C85	C	-0.754064	0.011110	0.399332
H86	H	-0.777130	0.044957	0.441665
H87	H	-0.777764	-0.018616	0.361883
H88	H	-0.733579	0.045570	0.361899
C89	C	-0.754072	0.011104	0.600879
H90	H	-0.777144	0.044939	0.558553
H91	H	-0.733598	0.045563	0.638326
H92	H	-0.777774	-0.018635	0.638314
H93	H	-0.245739	0.104144	0.000154
H94	H	-0.577647	0.451669	0.000071
C95	C	-0.522617	0.045082	0.000083
H96	H	-0.500472	0.090687	0.000083
H97	H	-0.546076	0.047824	0.053253
H98	H	-0.546068	0.047823	-0.053100
C99	C	-0.369345	-0.271096	0.000065
H100	H	-0.391501	-0.316689	0.000046
H101	H	-0.345888	-0.273856	0.053236
H102	H	-0.345890	-0.273841	-0.053117
C103	C	-0.214023	-0.344294	0.000088
H104	H	-0.183774	-0.388970	0.000097
H105	H	-0.236914	-0.347866	-0.053082
H106	H	-0.236912	-0.347848	0.053272
C107	C	-0.089300	-0.342114	0.000079
H108	H	-0.111457	-0.387705	0.000064
H109	H	-0.065841	-0.344874	0.053248
H110	H	-0.065847	-0.344861	-0.053106
C111	C	-0.397871	0.047265	0.000094
H112	H	-0.428116	0.091947	0.000098
H113	H	-0.374974	0.050822	-0.053073
H114	H	-0.374988	0.050822	0.053280
C115	C	-0.591366	-0.227530	0.600858
H116	H	-0.568287	-0.261359	0.558527
H117	H	-0.611829	-0.261998	0.638308
H118	H	-0.567672	-0.197770	0.638290
C119	C	0.052429	-0.263724	0.000100
H120	H	0.082676	-0.308402	0.000101
H121	H	0.029537	-0.267286	-0.053071
H122	H	0.029540	-0.267283	0.053282
H123	H	0.142076	0.035010	0.000115
C124	C	0.177171	-0.261539	0.000107
H125	H	0.155025	-0.307144	0.000096
H126	H	0.200624	-0.264278	0.053281
H127	H	0.200628	-0.264282	-0.053072
C128	C	0.023892	0.054636	0.000120
H129	H	0.046047	0.100230	0.000113
H130	H	0.000432	0.057394	0.053290
H131	H	0.000441	0.057380	-0.053063
