data_functionalizedCrystal
_audit_creation_method	'MofGen! by Chris Wilmer'
_symmetry_space_group_name_H-M	'P1'
_symmetry_Int_Tables_number	1
_symmetry_cell_setting	triclinic
loop_
_symmetry_equiv_pos_as_xyz
  x,y,z
_cell_length_a	23.532407
_cell_length_b	23.532407
_cell_length_c	22.010155
_cell_angle_alpha	90.000423
_cell_angle_beta	89.996931
_cell_angle_gamma	97.151322
loop_
_atom_site_label
_atom_site_type_symbol
_atom_site_fract_x
_atom_site_fract_y
_atom_site_fract_z
O1	O	0.755264	-0.069127	-0.050455
O2	O	0.589400	-0.079130	-0.050474
O3	O	0.677334	0.008803	-0.050453
O4	O	0.667330	-0.157060	-0.050476
O5	O	0.677318	0.008790	0.050597
O6	O	0.589384	-0.079143	0.050576
O7	O	0.755248	-0.069140	0.050595
Cu8	Cu	0.672315	-0.074143	0.059812
Cu9	Cu	0.672333	-0.074127	-0.059691
O10	O	0.667314	-0.157073	0.050574
C11	C	0.568176	-0.078882	0.000049
C12	C	0.504959	-0.078116	0.000042
C13	C	0.677071	0.030013	0.000074
C14	C	0.676305	0.093230	0.000078
C15	C	0.105856	-0.125350	0.000063
C16	C	0.046456	-0.124638	0.000067
O17	O	0.009711	-0.168424	0.000083
N18	N	0.023830	-0.072362	0.000073
C19	C	0.060607	-0.020794	0.000082
O20	O	0.035908	0.023737	0.000088
C21	C	0.120006	-0.021506	0.000082
C22	C	0.142629	-0.073785	0.000070
C23	C	0.128479	-0.177625	0.000051
C24	C	0.187876	-0.178336	0.000046
C25	C	0.224649	-0.126772	0.000053
C26	C	0.202025	-0.074497	0.000065
C27	C	0.156783	0.030062	0.000096
C28	C	0.216185	0.029345	0.000097
C29	C	0.238808	-0.022934	0.000084
C30	C	0.298194	-0.023643	0.000067
N31	N	0.320820	-0.075920	0.000061
C32	C	0.284048	-0.127484	0.000054
C33	C	-0.064135	-0.019302	0.000082
C34	C	-0.123533	-0.018589	0.000077
C35	C	-0.137680	-0.122434	0.000063
C36	C	-0.078281	-0.123146	0.000064
C37	C	-0.041509	-0.071578	0.000076
C38	C	0.408784	-0.128974	0.000043
C39	C	0.468186	-0.129680	0.000035
C40	C	0.482329	-0.025836	0.000052
C41	C	0.422932	-0.025129	0.000057
C42	C	0.386160	-0.076702	0.000054
O43	O	0.334974	0.020119	0.000054
O44	O	0.308755	-0.172007	0.000055
C45	C	0.776472	-0.069388	0.000071
C46	C	0.839689	-0.070154	0.000073
C47	C	0.667577	-0.178283	0.000046
C48	C	0.668343	-0.241500	0.000037
N49	N	0.672305	-0.074153	0.143865
C50	C	0.723539	0.492333	0.000050
C51	C	0.722827	0.551733	0.000046
O52	O	0.766613	0.588478	0.000028
N53	N	0.670551	0.574359	0.000040
C54	C	0.618983	0.537582	0.000033
O55	O	0.574452	0.562281	0.000027
C56	C	0.619695	0.478182	0.000033
C57	C	0.671974	0.455560	0.000045
C58	C	0.775814	0.469710	0.000061
C59	C	0.776525	0.410313	0.000067
C60	C	0.724961	0.373540	0.000062
C61	C	0.672685	0.396164	0.000051
C62	C	0.568127	0.441406	0.000022
C63	C	0.568844	0.382004	0.000022
C64	C	0.621123	0.359381	0.000034
C65	C	0.621832	0.299995	0.000052
N66	N	0.674109	0.277368	0.000057
C67	C	0.725673	0.314141	0.000062
C68	C	0.617491	0.662324	0.000031
C69	C	0.616778	0.721722	0.000035
C70	C	0.720623	0.735869	0.000047
C71	C	0.721335	0.676470	0.000047
C72	C	0.669767	0.639698	0.000037
C73	C	0.727163	0.189405	0.000075
C74	C	0.727869	0.130003	0.000083
C75	C	0.624025	0.115860	0.000069
C76	C	0.623318	0.175257	0.000064
C77	C	0.674891	0.212029	0.000065
O78	O	0.578070	0.263215	0.000067
O79	O	0.770196	0.289433	0.000060
N80	N	0.672347	-0.074112	-0.143744
C81	C	0.711273	-0.035196	0.563653
C82	C	0.711275	-0.035192	0.627261
O83	O	0.744384	-0.002076	0.660160
N84	N	0.672333	-0.074115	0.659072
C85	C	0.633382	-0.113041	0.627272
O86	O	0.600259	-0.146148	0.660170
C87	C	0.633377	-0.113042	0.563665
C88	C	0.672326	-0.074120	0.531858
C89	C	0.750217	0.003723	0.531846
C90	C	0.750215	0.003719	0.468243
C91	C	0.711268	-0.035205	0.436447
C92	C	0.672324	-0.074125	0.468255
C93	C	0.594424	-0.151965	0.531866
C94	C	0.594422	-0.151962	0.468256
C95	C	0.633370	-0.113040	0.436448
C96	C	0.633374	-0.113054	0.372856
N97	N	0.672317	-0.074130	0.341045
C98	C	0.711263	-0.035206	0.372841
C99	C	0.633395	-0.113036	0.760850
C100	C	0.633402	-0.113039	0.824455
C101	C	0.711294	-0.035188	0.824440
C102	C	0.711290	-0.035189	0.760833
C103	C	0.672337	-0.074113	0.729039
C104	C	0.711256	-0.035220	0.239269
C105	C	0.711252	-0.035229	0.175660
C106	C	0.633358	-0.113077	0.175681
C107	C	0.633364	-0.113070	0.239284
C108	C	0.672315	-0.074136	0.271077
O109	O	0.600282	-0.146151	0.339916
O110	O	0.744376	-0.002100	0.339935
H111	H	0.486602	-0.172255	0.000025
O112	O	0.778606	0.107933	0.000118
C113	C	0.768183	0.047620	0.000107
H114	H	0.723656	0.033425	0.019235
H115	H	0.801611	0.029568	0.029448
H116	H	0.770853	0.031097	-0.048371
O117	O	0.595537	-0.150910	0.730061
C118	C	0.561162	-0.185252	0.771783
H119	H	0.584515	-0.185769	0.817119
H120	H	0.552215	-0.230782	0.753414
H121	H	0.518962	-0.166976	0.778555
H122	H	0.574207	0.740136	0.000036
O123	O	0.749148	0.002622	0.270052
C124	C	0.783506	0.036978	0.228328
H125	H	0.784009	0.013622	0.182992
H126	H	0.829038	0.045902	0.246695
H127	H	0.765255	0.079191	0.221559
O128	O	0.556508	-0.189717	0.562725
C129	C	0.500191	-0.180745	0.547167
H130	H	0.500181	-0.135145	0.529687
H131	H	0.471566	-0.187442	0.588993
H132	H	0.483286	-0.212391	0.510240
H133	H	0.817806	0.499645	0.000063
O134	O	0.595548	-0.150773	0.855416
C135	C	0.560577	-0.120451	0.892197
H136	H	0.583513	-0.075770	0.901727
H137	H	0.551429	-0.144269	0.936925
H138	H	0.518512	-0.116794	0.867683
O139	O	0.770700	0.771619	-0.000063
C140	C	0.773389	0.806407	-0.052394
H141	H	0.744143	0.784485	-0.088971
H142	H	0.819303	0.813342	-0.069960
H143	H	0.758894	0.849522	-0.040566
O144	O	0.209869	-0.229110	-0.000077
C145	C	0.243812	-0.232621	-0.052409
H146	H	0.229937	-0.202926	-0.088977
H147	H	0.238212	-0.278546	-0.069990
H148	H	0.290733	-0.219230	-0.040578
O149	O	0.556639	-0.189854	0.437399
C150	C	0.565565	-0.246184	0.452958
H151	H	0.611159	-0.246231	0.470438
H152	H	0.558846	-0.274805	0.411133
H153	H	0.533907	-0.263066	0.489886
H154	H	-0.167632	-0.164421	0.000060
O155	O	0.092739	-0.227704	0.000148
C156	C	0.057938	-0.230414	0.052471
H157	H	0.079842	-0.201170	0.089061
H158	H	0.051013	-0.276332	0.070024
H159	H	0.014819	-0.215931	0.040639
O160	O	0.567342	0.626686	0.000057
C161	C	0.521054	0.659400	0.000037
H162	H	0.535773	0.703815	0.019168
H163	H	0.484941	0.637295	0.029373
H164	H	0.505020	0.663543	-0.048443
H165	H	0.404512	0.017441	0.000058
H166	H	0.781929	0.035414	0.442349
O167	O	-0.145437	0.032231	0.000001
C168	C	-0.126626	0.063642	-0.052338
H169	H	-0.085512	0.048358	-0.069791
H170	H	-0.118114	0.111115	-0.040561
H171	H	-0.161037	0.056854	-0.088983
H172	H	0.781933	0.035423	0.557728
H173	H	0.525555	0.459814	0.000009
H174	H	0.769159	0.219337	0.000073
H175	H	-0.059867	-0.165717	0.000057
H176	H	0.582043	0.085909	0.000067
H177	H	0.526850	0.352066	0.000013
H178	H	0.819097	0.391900	0.000074
O179	O	0.572485	0.197142	0.000028
C180	C	0.527126	0.151944	0.000042
H181	H	0.542861	0.111674	-0.019075
H182	H	0.490613	0.164152	-0.029307
H183	H	0.511225	0.143460	0.048519
O184	O	0.772169	0.654592	0.000025
C185	C	0.817524	0.699793	0.000047
H186	H	0.801793	0.740059	-0.019083
H187	H	0.854049	0.687586	-0.029289
H188	H	0.833406	0.708284	0.048527
O189	O	0.748978	0.002669	0.144735
C190	C	0.718621	0.037652	0.108009
H191	H	0.673960	0.014684	0.098445
H192	H	0.742441	0.046883	0.063295
H193	H	0.714914	0.079675	0.132589
O194	O	-0.028359	0.030758	0.000002
C195	C	0.006415	0.033468	-0.052341
H196	H	0.009178	-0.011717	-0.069793
H197	H	0.051177	0.054948	-0.040571
H198	H	-0.012989	0.059363	-0.088986
H199	H	0.743004	-0.003495	0.734939
H200	H	0.743006	-0.003493	0.850339
H201	H	0.601654	-0.144769	0.265183
O202	O	0.595582	-0.150963	0.144815
C203	C	0.604501	-0.207298	0.160363
H204	H	0.650092	-0.207353	0.177847
H205	H	0.597785	-0.235910	0.118530
H206	H	0.572836	-0.224186	0.197282
O207	O	0.373151	-0.179124	0.000009
C208	C	0.405867	-0.225410	0.000011
H209	H	0.450283	-0.210684	-0.019117
H210	H	0.383764	-0.261514	-0.029335
H211	H	0.410009	-0.241460	0.048486
H212	H	0.246123	0.071339	0.000107
O213	O	0.134912	0.080897	0.000140
C214	C	0.180116	0.126249	0.000137
H215	H	0.220380	0.110505	0.019258
H216	H	0.167911	0.162763	0.029489
H217	H	0.188612	0.142151	-0.048338
H218	H	0.512280	0.016146	0.000056
