data_functionalizedCrystal
_audit_creation_method	'MofGen! by Chris Wilmer'
_symmetry_space_group_name_H-M	'P1'
_symmetry_Int_Tables_number	1
_symmetry_cell_setting	triclinic
loop_
_symmetry_equiv_pos_as_xyz
  x,y,z
_cell_length_a	16.120484
_cell_length_b	21.395364
_cell_length_c	16.120256
_cell_angle_alpha	92.878538
_cell_angle_beta	95.616173
_cell_angle_gamma	92.921329
loop_
_atom_site_label
_atom_site_type_symbol
_atom_site_fract_x
_atom_site_fract_y
_atom_site_fract_z
Zn1	Zn	-0.356854	0.925600	-0.489462
Zn2	Zn	-0.489540	0.925521	-0.356772
Zn3	Zn	-0.349776	0.826419	-0.349707
Zn4	Zn	-0.496575	0.815201	-0.496495
O5	O	-0.423186	0.873185	-0.423109
O6	O	-0.374474	1.013266	-0.471875
O7	O	-0.465094	0.917037	-0.238873
O8	O	-0.233750	0.844304	-0.362346
O9	O	-0.471957	1.013208	-0.374388
O10	O	-0.238951	0.917171	-0.465024
O11	O	-0.362410	0.844227	-0.233682
O12	O	-0.369231	0.737255	-0.369165
O13	O	-0.483947	0.825184	-0.612524
O14	O	-0.477083	0.729012	-0.477009
O15	O	-0.381295	0.906293	-0.607358
O16	O	-0.607438	0.906159	-0.381207
O17	O	-0.612606	0.825107	-0.483860
C18	C	-0.423153	0.710400	-0.423084
C19	C	-0.423160	0.640758	-0.423094
C20	C	-0.372558	0.138981	-0.473976
C21	C	-0.372552	0.204416	-0.473975
C22	C	-0.423213	0.237116	-0.423129
C23	C	-0.473900	0.204374	-0.372296
C24	C	-0.473911	0.138939	-0.372304
C25	C	-0.425876	0.343515	-0.348130
C26	C	-0.425859	0.408949	-0.348120
C27	C	-0.423184	0.438939	-0.423105
C28	C	-0.420508	0.403488	-0.498101
C29	C	-0.420519	0.338053	-0.498109
C30	C	-0.423207	0.308069	-0.423115
C31	C	-0.372497	0.542626	-0.473939
C32	C	-0.372497	0.608063	-0.473940
C33	C	-0.473841	0.608019	-0.372253
C34	C	-0.473846	0.542584	-0.372259
C35	C	-0.423170	0.509891	-0.423101
C36	C	-0.640351	0.864424	-0.434081
C37	C	-0.733256	0.860731	-0.438803
C38	C	-0.903356	0.853994	-0.447441
C39	C	-0.942177	0.892489	-0.398791
C40	C	-1.036826	0.888740	-0.403597
C41	C	-0.808698	0.857742	-0.442636
C42	C	-0.205175	0.881998	-0.412112
C43	C	-0.112271	0.885753	-0.407426
C44	C	-0.434195	0.864496	-0.641116
C45	C	-0.438886	0.860793	-0.734018
C46	C	-0.423220	1.036606	-0.423135
C47	C	-0.423235	1.106247	-0.423146
C48	C	-0.398701	0.892495	-0.942944
C49	C	-0.447416	0.854013	-0.904103
C50	C	-0.442669	0.857786	-0.809459
C51	C	-0.403447	0.888722	-1.037596
C52	C	-0.412160	0.881879	-0.205947
C53	C	-0.407234	0.885713	-0.113034
H54	H	-0.331297	0.112366	-0.515379
H55	H	-0.904329	0.928260	-0.353530
H56	H	-0.515109	0.515931	-0.330864
H57	H	-0.353433	0.928273	-0.905119
H58	H	-0.941201	0.818224	-0.492698
C59	C	-0.508585	0.805679	-0.955198
C60	C	-0.513313	0.801928	-1.051207
C61	C	-0.574481	0.753598	-1.102306
C62	C	-0.630922	0.709021	-1.057396
C63	C	-0.626195	0.712771	-0.961382
C64	C	-0.565027	0.761100	-0.910283
H65	H	-0.471531	0.834928	-1.084456
H66	H	-0.577980	0.750823	-1.173382
H67	H	-0.676202	0.673245	-1.095223
H68	H	-0.667977	0.679771	-0.928133
H69	H	-0.561528	0.763876	-0.839207
H70	H	-0.331281	0.231074	-0.515366
H71	H	-0.428057	0.319102	-0.287064
C72	C	-0.417587	0.299056	-0.580600
C73	C	-0.414645	0.332035	-0.663087
C74	C	-0.411716	0.293038	-0.745579
C75	C	-0.411729	0.221062	-0.745584
C76	C	-0.414671	0.188079	-0.663094
C77	C	-0.417600	0.227077	-0.580602
H78	H	-0.414635	0.385319	-0.663086
H79	H	-0.409538	0.317454	-0.806643
H80	H	-0.409561	0.192194	-0.806650
H81	H	-0.414681	0.134795	-0.663095
H82	H	-0.419778	0.202661	-0.519538
H83	H	-0.418326	0.427905	-0.559160
H84	H	-0.331234	0.516006	-0.515337
H85	H	-0.515097	0.634643	-0.330860
C86	C	-0.316749	0.644073	-0.529858
C87	C	-0.261009	0.608109	-0.585776
C88	C	-0.205259	0.644121	-0.641694
C89	C	-0.205249	0.716096	-0.641694
C90	C	-0.260991	0.752064	-0.585773
C91	C	-0.316741	0.716053	-0.529855
H92	H	-0.261014	0.554825	-0.585779
H93	H	-0.163995	0.617494	-0.683091
H94	H	-0.163980	0.742754	-0.683087
H95	H	-0.260986	0.805348	-0.585770
H96	H	-0.358005	0.742679	-0.488459
H97	H	-0.428032	0.437808	-0.287053
C98	C	-0.529655	0.102928	-0.316382
C99	C	-0.517893	0.115979	-0.221023
C100	C	-0.573635	0.079967	-0.165100
C101	C	-0.641140	0.030904	-0.204535
C102	C	-0.652906	0.017851	-0.299899
C103	C	-0.597163	0.053863	-0.355823
H104	H	-0.467919	0.152300	-0.191826
H105	H	-0.564926	0.089630	-0.094504
H106	H	-0.682405	0.004246	-0.163137
H107	H	-0.702880	-0.018471	-0.329096
H108	H	-0.605873	0.044200	-0.426418
H109	H	-0.515151	0.231002	-0.330899
