data_functionalizedCrystal
_audit_creation_method	'MofGen! by Chris Wilmer'
_symmetry_space_group_name_H-M	'P1'
_symmetry_Int_Tables_number	1
_symmetry_cell_setting	triclinic
loop_
_symmetry_equiv_pos_as_xyz
  x,y,z
_cell_length_a	16.109302
_cell_length_b	19.188930
_cell_length_c	17.666332
_cell_angle_alpha	89.989658
_cell_angle_beta	89.988804
_cell_angle_gamma	83.303281
loop_
_atom_site_label
_atom_site_type_symbol
_atom_site_fract_x
_atom_site_fract_y
_atom_site_fract_z
O1	O	1.102840	0.089747	-0.062991
O2	O	1.602840	0.589747	0.437009
O3	O	0.860741	0.100915	-0.062986
O4	O	1.360741	0.600915	0.437014
O5	O	0.988777	-0.006308	-0.062974
O6	O	1.488777	0.493692	0.437026
O7	O	0.974804	0.196970	-0.063003
O8	O	1.474804	0.696970	0.436997
O9	O	0.988754	-0.006311	0.062923
O10	O	1.488754	0.493689	0.562923
O11	O	0.860718	0.100912	0.062911
O12	O	1.360718	0.600912	0.562911
O13	O	1.102817	0.089744	0.062906
O14	O	1.602817	0.589744	0.562906
Cu15	Cu	0.981766	0.095328	0.074404
Cu16	Cu	1.481766	0.595328	0.574404
Cu17	Cu	0.981792	0.095331	-0.074484
Cu18	Cu	1.481792	0.595331	0.425516
O19	O	0.974781	0.196967	0.062894
O20	O	1.474781	0.696967	0.562894
C21	C	0.829756	0.100461	-0.000037
C22	C	1.329756	0.600461	0.499963
C23	C	0.737466	0.099105	-0.000034
C24	C	1.237466	0.599105	0.499966
C25	C	0.525123	0.095966	0.068585
C26	C	1.025123	0.595966	0.568585
C27	C	0.438407	0.094684	0.068582
C28	C	0.938407	0.594684	0.568582
C29	C	0.438442	0.094691	-0.068677
C30	C	0.938442	0.594691	0.431323
C31	C	0.525157	0.095968	-0.068674
C32	C	1.025157	0.595968	0.431326
C33	C	0.568495	0.096609	-0.000041
C34	C	1.068495	0.596609	0.499959
C35	C	0.395064	0.094050	-0.000046
C36	C	0.895064	0.594050	0.499954
C37	C	0.301043	0.092660	-0.000050
C38	C	0.801043	0.592660	0.499950
C39	C	0.662522	0.097998	-0.000037
C40	C	1.162522	0.597998	0.499963
C41	C	0.988313	-0.032322	-0.000023
C42	C	1.488313	0.467678	0.499977
C43	C	0.986955	-0.109829	-0.000017
C44	C	1.486955	0.390171	0.499983
C45	C	1.062082	-0.154578	-0.000015
C46	C	1.562082	0.345422	0.499985
C47	C	1.060806	-0.227404	-0.000027
C48	C	1.560806	0.272596	0.499973
C49	C	0.984398	-0.255480	-0.000026
C50	C	1.484398	0.244520	0.499974
C51	C	0.909261	-0.210722	-0.000032
C52	C	1.409261	0.289278	0.499968
C53	C	0.910539	-0.137897	-0.000028
C54	C	1.410539	0.362103	0.499972
N55	N	0.925986	-0.363622	0.042820
N56	N	1.425986	0.136378	0.542820
N57	N	0.924777	-0.432804	0.042818
N58	N	1.424777	0.067196	0.542818
C59	C	0.980542	-0.474897	-0.000041
C60	C	1.480542	0.025103	0.499959
N61	N	1.037575	-0.445197	-0.042888
N62	N	1.537575	0.054803	0.457112
N63	N	1.038787	-0.376010	-0.042882
N64	N	1.538787	0.123990	0.457118
C65	C	0.983004	-0.334446	-0.000031
C66	C	1.483004	0.165554	0.499969
C67	C	1.054291	-0.598613	-0.000053
C68	C	1.554291	-0.098613	0.499947
C69	C	1.053012	-0.671441	-0.000070
C70	C	1.553012	-0.171441	0.499930
C71	C	0.901465	-0.654757	-0.000068
C72	C	1.401465	-0.154757	0.499932
C73	C	0.902746	-0.581931	-0.000059
C74	C	1.402746	-0.081931	0.499941
C75	C	0.979162	-0.553864	-0.000048
C76	C	1.479162	-0.053864	0.499952
C77	C	1.133802	0.090198	-0.000045
C78	C	1.633802	0.590198	0.499955
C79	C	1.226093	0.091555	-0.000053
C80	C	1.726093	0.591555	0.499947
C81	C	0.975245	0.222981	-0.000059
C82	C	1.475245	0.722981	0.499941
C83	C	0.976604	0.300489	-0.000070
C84	C	1.476604	0.800489	0.499930
N85	N	0.981753	0.095325	0.179123
N86	N	1.481753	0.595325	0.679123
N87	N	0.981812	0.095329	-0.179203
N88	N	1.481812	0.595329	0.320797
C89	C	1.032015	0.137688	0.218719
C90	C	1.532015	0.637688	0.718719
C91	C	1.032028	0.137686	0.297966
C92	C	1.532028	0.637686	0.797966
C93	C	0.981764	0.095329	0.337615
C94	C	1.481764	0.595329	0.837615
C95	C	0.931500	0.052957	0.298010
C96	C	1.431500	0.552957	0.798010
C97	C	0.931494	0.052955	0.218764
C98	C	1.431494	0.552955	0.718764
N99	N	0.908950	0.093438	0.462057
N100	N	1.408950	0.593438	0.962057
N101	N	0.908958	0.093444	0.537337
N102	N	1.408958	0.593444	1.037337
C103	C	0.981779	0.095331	0.576379
C104	C	1.481779	0.595331	1.076379
N105	N	1.054594	0.097226	0.537297
N106	N	1.554594	0.597226	1.037297
N107	N	1.054586	0.097223	0.462009
N108	N	1.554586	0.597223	0.962009
C109	C	0.981765	0.095326	0.423544
C110	C	1.481765	0.595326	0.923544
C111	C	1.032060	0.137694	0.701904
C112	C	1.532060	0.637694	1.201904
C113	C	1.032075	0.137687	0.781153
C114	C	1.532075	0.637687	1.281153
C115	C	0.931539	0.052963	0.781195
C116	C	1.431539	0.552963	1.281195
C117	C	0.931531	0.052966	0.701948
C118	C	1.431531	0.552966	1.201948
C119	C	0.981791	0.095335	0.662307
C120	C	1.481791	0.595335	1.162307
H121	H	0.403097	0.094161	0.124464
H122	H	0.903097	0.594161	0.624464
C123	C	0.305527	0.092744	-0.129629
C124	C	0.805527	0.592744	0.370371
C125	C	0.390801	0.093996	-0.144116
C126	C	0.890801	0.593996	0.355884
H127	H	0.276118	0.092321	-0.176204
H128	H	0.776118	0.592321	0.323796
H129	H	0.297801	0.051844	-0.101434
H130	H	0.797801	0.551844	0.398566
H131	H	0.284830	0.133227	-0.101433
H132	H	0.784830	0.633227	0.398567
H133	H	0.411499	0.053511	-0.172308
H134	H	0.911499	0.553511	0.327692
H135	H	0.398532	0.134900	-0.172323
H136	H	0.898532	0.634900	0.327677
C137	C	0.832119	-0.030789	0.226767
C138	C	1.332119	0.469211	0.726767
C139	C	0.876236	0.006392	0.175235
C140	C	1.376236	0.506392	0.675235
H141	H	0.798000	-0.059531	0.199891
H142	H	1.298000	0.440469	0.699891
H143	H	0.870487	-0.059390	0.257668
H144	H	1.370487	0.440610	0.757668
H145	H	0.797939	0.001340	0.257681
H146	H	1.297939	0.501340	0.757681
H147	H	0.910421	-0.025738	0.144324
H148	H	1.410421	0.474262	0.644324
H149	H	0.837862	0.034995	0.144321
H150	H	1.337862	0.534995	0.644321
C151	C	0.773982	-0.545281	-0.064767
C152	C	1.273982	-0.045281	0.435233
C153	C	0.820161	-0.532740	-0.000050
C154	C	1.320161	-0.032740	0.499950
H155	H	0.722993	-0.514916	-0.064759
H156	H	1.222993	-0.014916	0.435241
H157	H	0.805330	-0.536759	-0.108662
H158	H	1.305330	-0.036759	0.391338
H159	H	0.762294	-0.592673	-0.064762
H160	H	1.262294	-0.092673	0.435238
H161	H	0.831855	-0.485350	-0.000057
H162	H	1.331855	0.014650	0.499943
H163	H	0.788807	-0.541257	0.043856
H164	H	1.288807	-0.041257	0.543856
H165	H	1.072984	0.172193	0.669627
H166	H	1.572984	0.672193	1.169627
C167	C	1.123541	-0.494383	-0.000036
C168	C	1.623541	0.005617	0.499964
C169	C	1.138284	-0.567755	-0.000049
C170	C	1.638284	-0.067755	0.499951
H171	H	1.175396	-0.475336	-0.000029
H172	H	1.675396	0.024664	0.499971
H173	H	1.092631	-0.479014	-0.043934
H174	H	1.592631	0.020986	0.456066
H175	H	1.092610	-0.479040	0.043873
H176	H	1.592610	0.020960	0.543873
H177	H	1.169210	-0.583098	-0.043960
H178	H	1.669210	-0.083098	0.456040
H179	H	1.169207	-0.583130	0.043854
H180	H	1.669207	-0.083130	0.543854
H181	H	1.072943	0.172185	0.186448
H182	H	1.572943	0.672185	0.686448
C183	C	0.516487	0.095855	-0.204355
C184	C	1.016487	0.595855	0.295645
C185	C	0.572837	0.096678	-0.144113
C186	C	1.072837	0.596678	0.355887
H187	H	0.545925	0.096296	-0.250925
H188	H	1.045925	0.596296	0.249075
H189	H	0.489155	0.054669	-0.201501
H190	H	0.989155	0.554669	0.298499
H191	H	0.476173	0.136051	-0.201502
H192	H	0.976173	0.636051	0.298498
H193	H	0.613148	0.056480	-0.146964
H194	H	1.113148	0.556480	0.353036
H195	H	0.600183	0.137869	-0.146969
H196	H	1.100183	0.637869	0.353031
H197	H	1.124305	-0.131731	-0.000008
H198	H	1.624305	0.368269	0.499992
C199	C	1.202936	-0.680613	-0.000051
C200	C	1.702936	-0.180613	0.499949
C201	C	1.135599	-0.720632	-0.000066
C202	C	1.635599	-0.220632	0.499934
H203	H	1.253921	-0.710984	-0.000043
H204	H	1.753921	-0.210984	0.499957
H205	H	1.200297	-0.651854	-0.043948
H206	H	1.700297	-0.151854	0.456052
H207	H	1.200262	-0.651869	0.043858
H208	H	1.700262	-0.151869	0.543858
H209	H	1.138269	-0.749372	-0.043978
H210	H	1.638269	-0.249372	0.456022
H211	H	1.138239	-0.749404	0.043836
H212	H	1.638239	-0.249404	0.543836
H213	H	0.847049	-0.233585	-0.000033
H214	H	1.347049	0.266415	0.499967
C215	C	0.886810	0.015388	0.419507
C216	C	1.386810	0.515388	0.919507
C217	C	0.876245	0.006399	0.341587
C218	C	1.376245	0.506399	0.841587
H219	H	0.852694	-0.013355	0.446407
H220	H	1.352694	0.486645	0.946407
H221	H	0.943731	0.002453	0.432511
H222	H	1.443731	0.502453	0.932511
H223	H	0.871157	0.063162	0.432449
H224	H	1.371157	0.563162	0.932449
H225	H	0.891904	-0.041374	0.328644
H226	H	1.391904	0.458626	0.828644
H227	H	0.819312	0.019330	0.328578
H228	H	1.319312	0.519330	0.828578
C229	C	1.131387	0.221446	0.289973
C230	C	1.631387	0.721446	0.789973
C231	C	1.087275	0.184258	0.341503
C232	C	1.587275	0.684258	0.841503
H233	H	1.165489	0.250200	0.316851
H234	H	1.665489	0.750200	0.816851
H235	H	1.165576	0.189326	0.259068
H236	H	1.665576	0.689326	0.759068
H237	H	1.093009	0.250041	0.259064
H238	H	1.593009	0.750041	0.759064
H239	H	1.125653	0.155659	0.372409
H240	H	1.625653	0.655659	0.872409
H241	H	1.053084	0.216382	0.372422
H242	H	1.553084	0.716382	0.872422
C243	C	0.832152	-0.030771	0.709951
C244	C	1.332152	0.469229	1.209951
C245	C	0.876271	0.006407	0.658419
C246	C	1.376271	0.506407	1.158419
H247	H	0.798033	-0.059513	0.683077
H248	H	1.298033	0.440487	1.183077
H249	H	0.870519	-0.059371	0.740854
H250	H	1.370519	0.440629	1.240854
H251	H	0.797971	0.001361	0.740864
H252	H	1.297971	0.501361	1.240864
H253	H	0.910456	-0.025725	0.627510
H254	H	1.410456	0.474275	1.127510
H255	H	0.837899	0.035009	0.627502
H256	H	1.337899	0.535009	1.127502
C257	C	0.832216	-0.758980	-0.000074
C258	C	1.332216	-0.258980	0.499926
C259	C	0.817475	-0.685609	-0.000069
C260	C	1.317475	-0.185609	0.499931
H261	H	0.780361	-0.778027	-0.000073
H262	H	1.280361	-0.278027	0.499927
H263	H	0.863143	-0.774327	-0.043975
H264	H	1.363143	-0.274327	0.456025
H265	H	0.863130	-0.774346	0.043831
H266	H	1.363130	-0.274346	0.543831
H267	H	0.786565	-0.670243	-0.043977
H268	H	1.286565	-0.170243	0.456023
H269	H	0.786535	-0.670256	0.043837
H270	H	1.286535	-0.170256	0.543837
H271	H	0.560406	0.096488	0.124470
H272	H	1.060406	0.596488	0.624470
C273	C	1.131431	0.221447	0.773147
C274	C	1.631431	0.721447	1.273147
C275	C	1.087325	0.184258	0.824681
C276	C	1.587325	0.684258	1.324681
H277	H	1.165536	0.250201	0.800022
H278	H	1.665536	0.750201	1.300022
H279	H	1.165616	0.189328	0.742238
H280	H	1.665616	0.689328	1.242238
H281	H	1.093049	0.250042	0.742241
H282	H	1.593049	0.750042	1.242241
H283	H	1.125708	0.155659	0.855583
H284	H	1.625708	0.655659	1.355583
H285	H	1.053137	0.216381	0.855603
H286	H	1.553137	0.716381	1.355603
C287	C	1.210732	-0.236589	-0.000009
C288	C	1.710732	0.263411	0.499991
C289	C	1.143391	-0.276604	-0.000019
C290	C	1.643391	0.223396	0.499981
H291	H	1.261715	-0.266962	0.000001
H292	H	1.761715	0.233038	0.500001
H293	H	1.208096	-0.207833	-0.043909
H294	H	1.708096	0.292167	0.456091
H295	H	1.208060	-0.207842	0.043898
H296	H	1.708060	0.292158	0.543898
H297	H	1.146059	-0.305347	-0.043928
H298	H	1.646059	0.194653	0.456072
H299	H	1.146029	-0.305372	0.043886
H300	H	1.646029	0.194628	0.543886
H301	H	0.849360	-0.101462	-0.000029
H302	H	1.349360	0.398538	0.499971
H303	H	0.890614	0.018474	0.813476
H304	H	1.390614	0.518474	1.313476
