data_functionalizedCrystal
_audit_creation_method	'MofGen! by Chris Wilmer'
_symmetry_space_group_name_H-M	'P1'
_symmetry_Int_Tables_number	1
_symmetry_cell_setting	triclinic
loop_
_symmetry_equiv_pos_as_xyz
  x,y,z
_cell_length_a	15.944551
_cell_length_b	19.188930
_cell_length_c	18.266242
_cell_angle_alpha	90.006796
_cell_angle_beta	90.001865
_cell_angle_gamma	83.321760
loop_
_atom_site_label
_atom_site_type_symbol
_atom_site_fract_x
_atom_site_fract_y
_atom_site_fract_z
O1	O	1.114190	0.090045	0.060813
O2	O	1.614190	0.590045	0.560813
O3	O	0.869599	0.101146	0.060832
O4	O	1.369599	0.601146	0.560832
O5	O	0.998953	-0.006042	0.060808
O6	O	1.498953	0.493958	0.560808
O7	O	0.984836	0.197233	0.060838
O8	O	1.484836	0.697233	0.560838
O9	O	0.998936	-0.006038	-0.060954
O10	O	1.498936	0.493962	0.439046
O11	O	0.869582	0.101150	-0.060930
O12	O	1.369582	0.601150	0.439070
O13	O	1.114173	0.090048	-0.060949
O14	O	1.614173	0.590048	0.439051
Zn15	Zn	0.991875	0.095599	-0.080272
Zn16	Zn	1.491875	0.595599	0.419728
Zn17	Zn	0.991897	0.095595	0.080155
Zn18	Zn	1.491897	0.595595	0.580155
O19	O	0.984819	0.197236	-0.060924
O20	O	1.484819	0.697236	0.439076
C21	C	0.838298	0.100687	-0.000046
C22	C	1.338298	0.600687	0.499954
C23	C	0.745057	0.099306	-0.000040
C24	C	1.245057	0.599306	0.499960
C25	C	0.998487	-0.032052	-0.000075
C26	C	1.498487	0.467948	0.499925
C27	C	0.997115	-0.109560	-0.000081
C28	C	1.497115	0.390440	0.499919
C29	C	0.530462	0.029562	-0.000064
C30	C	1.030462	0.529562	0.499936
C31	C	0.469329	0.061947	0.059976
C32	C	0.969329	0.561947	0.559976
C33	C	0.574341	0.096806	-0.000049
C34	C	1.074341	0.596806	0.499951
C35	C	0.469334	0.061966	-0.060072
C36	C	0.969334	0.561966	0.439928
C37	C	0.409437	0.094386	-0.000061
C38	C	0.909437	0.594386	0.499939
C39	C	0.514436	0.129209	0.060041
C40	C	1.014436	0.629209	0.560041
C41	C	0.514448	0.129219	-0.060061
C42	C	1.014448	0.629219	0.439939
C43	C	0.453332	0.161652	-0.000007
C44	C	0.953332	0.661652	0.499993
C45	C	0.669338	0.098198	-0.000041
C46	C	1.169338	0.598198	0.499959
C47	C	0.314441	0.093000	-0.000063
C48	C	0.814441	0.593000	0.499937
C49	C	1.073016	-0.154288	-0.000091
C50	C	1.573016	0.345712	0.499909
C51	C	1.071726	-0.227115	-0.000079
C52	C	1.571726	0.272885	0.499921
C53	C	0.994532	-0.255211	-0.000072
C54	C	1.494532	0.244789	0.499928
C55	C	0.918622	-0.210474	-0.000059
C56	C	1.418622	0.289526	0.499941
C57	C	0.919913	-0.137648	-0.000063
C58	C	1.419913	0.362352	0.499937
N59	N	0.935521	-0.363368	-0.041506
N60	N	1.435521	0.136632	0.458494
N61	N	0.934299	-0.432550	-0.041503
N62	N	1.434299	0.067450	0.458497
C63	C	0.990637	-0.474630	-0.000057
C64	C	1.490637	0.025370	0.499943
N65	N	1.048255	-0.444917	0.041376
N66	N	1.548255	0.055083	0.541376
N67	N	1.049479	-0.375729	0.041370
N68	N	1.549479	0.124271	0.541370
C69	C	0.993123	-0.334178	-0.000067
C70	C	1.493123	0.165822	0.499933
C71	C	1.065145	-0.598326	-0.000053
C72	C	1.565145	-0.098326	0.499947
C73	C	1.063852	-0.671154	-0.000037
C74	C	1.563852	-0.171154	0.499963
C75	C	0.910745	-0.654511	-0.000024
C76	C	1.410745	-0.154511	0.499976
C77	C	0.912040	-0.581685	-0.000033
C78	C	1.412040	-0.081685	0.499967
C79	C	0.989242	-0.553597	-0.000051
C80	C	1.489242	-0.053597	0.499949
C81	C	1.145474	0.090507	-0.000069
C82	C	1.645474	0.590507	0.499931
C83	C	1.238715	0.091889	-0.000070
C84	C	1.738715	0.591889	0.499930
C85	C	0.985285	0.223247	-0.000040
C86	C	1.485285	0.723247	0.499960
C87	C	0.986657	0.300755	-0.000029
C88	C	1.486657	0.800755	0.499971
N89	N	0.991866	0.095602	-0.189759
N90	N	1.491866	0.595602	0.310241
C91	C	1.042698	0.137954	-0.772033
C92	C	1.542698	0.637954	-0.272033
C93	C	1.042689	0.137961	-0.695388
C94	C	1.542689	0.637961	-0.195388
C95	C	0.991905	0.095588	-0.657071
C96	C	1.491905	0.595588	-0.157071
C97	C	0.941109	0.053218	-0.695406
C98	C	1.441109	0.553218	-0.195406
C99	C	0.941113	0.053218	-0.772049
C100	C	1.441113	0.553218	-0.272049
N101	N	0.989870	0.034422	-0.536741
N102	N	1.489870	0.534422	-0.036741
N103	N	0.989871	0.034424	-0.463933
N104	N	1.489871	0.534424	0.036067
C105	C	0.991889	0.095588	-0.426149
C106	C	1.491889	0.595588	0.073851
N107	N	0.993921	0.156750	-0.463923
N108	N	1.493921	0.656750	0.036077
N109	N	0.993924	0.156746	-0.536737
N110	N	1.493924	0.656746	-0.036737
C111	C	0.991894	0.095584	-0.573964
C112	C	1.491894	0.595584	-0.073964
C113	C	1.042667	0.137966	-0.304716
C114	C	1.542667	0.637966	0.195284
C115	C	1.042652	0.137975	-0.228070
C116	C	1.542652	0.637975	0.271930
C117	C	0.941077	0.053226	-0.228089
C118	C	1.441077	0.553226	0.271911
C119	C	0.941087	0.053224	-0.304734
C120	C	1.441087	0.553224	0.195266
C121	C	0.991887	0.095593	-0.343043
C122	C	1.491887	0.595593	0.156957
N123	N	0.991912	0.095587	0.189642
N124	N	1.491912	0.595587	0.689642
H125	H	0.449332	0.033505	0.110727
H126	H	0.949332	0.533505	0.610727
O127	O	0.409137	0.235651	0.000047
O128	O	0.909137	0.735651	0.500047
H129	H	0.339765	0.234117	-0.000432
H130	H	0.839765	0.734117	0.499568
H131	H	0.534324	0.157627	0.110855
H132	H	1.034324	0.657627	0.610855
O133	O	0.886327	0.007522	-0.346088
O134	O	1.386327	0.507522	0.153912
H135	H	0.926747	-0.029971	-0.381010
H136	H	1.426747	0.470029	0.118990
H137	H	0.899723	0.018729	-0.196893
H138	H	1.399723	0.518729	0.303107
O139	O	0.540987	0.166860	-0.127285
O140	O	1.040987	0.666860	0.372715
H141	H	0.523144	0.138838	-0.177054
H142	H	1.023144	0.638838	0.322946
O143	O	0.442863	0.024289	-0.127314
O144	O	0.942863	0.524289	0.372686
H145	H	0.474072	-0.030519	-0.127190
H146	H	0.974072	0.469481	0.372810
O147	O	1.153597	-0.275366	-0.000100
O148	O	1.653597	0.224634	0.499900
H149	H	1.139727	-0.330725	-0.000092
H150	H	1.639727	0.169275	0.499908
H151	H	0.847892	-0.677386	-0.000015
H152	H	1.347892	-0.177386	0.499985
O153	O	1.097481	0.183653	-0.813353
O154	O	1.597481	0.683653	-0.313353
H155	H	1.078995	0.239449	-0.798641
H156	H	1.578995	0.739449	-0.298641
O157	O	0.830175	-0.533435	-0.000041
O158	O	1.330175	-0.033435	0.499959
H159	H	0.776279	-0.565204	-0.000043
H160	H	1.276279	-0.065204	0.499957
O161	O	0.838046	-0.089399	-0.000066
O162	O	1.338046	0.410601	0.499934
H163	H	0.784149	-0.121167	-0.000065
H164	H	1.284149	0.378833	0.499935
H165	H	0.899756	0.018717	-0.803253
H166	H	1.399756	0.518717	-0.303253
H167	H	1.128007	-0.575456	-0.000064
H168	H	1.628007	-0.075456	0.499936
O169	O	1.097472	0.183653	-0.654036
O170	O	1.597472	0.683653	-0.154036
H171	H	1.132800	0.213110	-0.693552
H172	H	1.632800	0.713110	-0.193552
H173	H	1.135880	-0.131424	-0.000103
H174	H	1.635880	0.368576	0.499897
H175	H	0.855769	-0.233354	-0.000052
H176	H	1.355769	0.266646	0.499948
O177	O	1.145720	-0.719402	-0.000053
O178	O	1.645720	-0.219402	0.499947
H179	H	1.199616	-0.687633	-0.000075
H180	H	1.699616	-0.187633	0.499925
H181	H	0.899759	0.018719	-0.664203
H182	H	1.399759	0.518719	-0.164203
O183	O	1.097458	0.183661	-0.346038
O184	O	1.597458	0.683661	0.153962
H185	H	1.088943	0.176533	-0.405773
H186	H	1.588943	0.676533	0.094227
H187	H	1.084006	0.172479	-0.196867
H188	H	1.584006	0.672479	0.303133
H189	H	0.564003	-0.026244	0.000002
H190	H	1.064003	0.473756	0.500002
