data_functionalizedCrystal
_audit_creation_method	'MofGen! by Chris Wilmer'
_symmetry_space_group_name_H-M	'P1'
_symmetry_Int_Tables_number	1
_symmetry_cell_setting	triclinic
loop_
_symmetry_equiv_pos_as_xyz
  x,y,z
_cell_length_a	16.120530
_cell_length_b	25.639240
_cell_length_c	16.120297
_cell_angle_alpha	87.138170
_cell_angle_beta	89.871860
_cell_angle_gamma	87.127770
loop_
_atom_site_label
_atom_site_type_symbol
_atom_site_fract_x
_atom_site_fract_y
_atom_site_fract_z
Zn1	Zn	1.247376	-0.264883	0.534485
Zn2	Zn	1.254307	-0.348114	0.395403
Zn3	Zn	1.115369	-0.256048	0.388406
Zn4	Zn	1.108263	-0.347633	0.527372
O5	O	1.181329	-0.304169	0.461417
O6	O	1.364661	-0.279823	0.521941
O7	O	1.241750	-0.332405	0.278110
O8	O	1.132953	-0.184058	0.407832
O9	O	1.369753	-0.340972	0.419757
O10	O	1.229938	-0.190549	0.515156
O11	O	1.139673	-0.264765	0.272970
O12	O	0.998061	-0.264298	0.400935
O13	O	1.120843	-0.340152	0.644680
O14	O	0.992840	-0.331585	0.503033
O15	O	1.223048	-0.279356	0.649906
O16	O	1.234860	-0.421212	0.412860
O17	O	1.127563	-0.420858	0.509818
C18	C	0.965278	-0.296931	0.450453
C19	C	0.872850	-0.293847	0.445783
C20	C	0.703622	-0.288205	0.437263
C21	C	0.659873	-0.320174	0.485630
C22	C	0.565708	-0.317035	0.480890
C23	C	0.797795	-0.291344	0.442003
C24	C	1.181214	-0.440006	0.461345
C25	C	1.181240	-0.498121	0.461347
C26	C	1.231850	-0.861834	0.517397
C27	C	1.231874	-0.916440	0.517416
O28	O	1.274768	-0.947518	0.564998
N29	N	1.181440	-0.940415	0.461503
C30	C	1.130972	-0.909781	0.405574
O31	O	1.088076	-0.935187	0.358018
C32	C	1.130945	-0.855176	0.405560
C33	C	1.181389	-0.831204	0.461471
C34	C	1.282289	-0.837862	0.573304
C35	C	1.282267	-0.783260	0.573285
C36	C	1.231805	-0.752630	0.517359
C37	C	1.181366	-0.776603	0.461452
C38	C	1.080474	-0.824543	0.349636
C39	C	1.080450	-0.769935	0.349628
C40	C	1.130894	-0.745964	0.405539
C41	C	1.130882	-0.691371	0.405506
N42	N	1.181316	-0.667396	0.461419
C43	C	1.231778	-0.698026	0.517345
C44	C	1.131033	-1.024454	0.405608
C45	C	1.131064	-1.079058	0.405616
C46	C	1.231965	-1.085713	0.517459
C47	C	1.231937	-1.031109	0.517446
C48	C	1.181467	-1.000480	0.461520
C49	C	1.231727	-0.583358	0.517300
C50	C	1.231702	-0.528751	0.517273
C51	C	1.130798	-0.522100	0.405433
C52	C	1.130826	-0.576703	0.405457
C53	C	1.181292	-0.607330	0.461397
O54	O	1.088007	-0.660259	0.357950
O55	O	1.274659	-0.672612	0.564900
C56	C	1.398223	-0.311437	0.472423
C57	C	1.490650	-0.314534	0.477113
C58	C	1.170380	-0.310686	0.678309
C59	C	1.165714	-0.313462	0.770735
C60	C	1.181465	-0.167804	0.461507
C61	C	1.181523	-0.109693	0.461546
C62	C	1.192283	-0.297642	0.245371
C63	C	1.197109	-0.294724	0.152953
C64	C	1.157165	-0.318519	0.939958
C65	C	1.205656	-0.289668	0.983735
C66	C	1.200899	-0.292482	1.077896
C67	C	1.161921	-0.315706	0.845788
H68	H	1.272782	-0.509235	0.562802
H69	H	1.272815	-0.608289	0.562857
H70	H	1.323340	-0.763746	0.618814
H71	H	1.250742	-0.262854	0.950495
H72	H	0.670359	-0.258482	0.392298
H73	H	1.112083	-0.345331	0.973196
H74	H	0.693138	-0.349899	0.530600
H75	H	1.273013	-1.011594	0.562973
H76	H	1.323381	-0.862796	0.618851
H77	H	1.089716	-0.497153	0.359896
H78	H	1.273052	-1.110662	0.562999
H79	H	1.089997	-1.098571	0.360080
H80	H	1.039397	-0.844052	0.304107
H81	H	1.039348	-0.744999	0.304087
H82	H	1.089937	-0.999518	0.360059
H83	H	1.089757	-0.596221	0.359923
