data_functionalizedCrystal
_audit_creation_method	'MofGen! by Chris Wilmer'
_symmetry_space_group_name_H-M	'P1'
_symmetry_Int_Tables_number	1
_symmetry_cell_setting	triclinic
loop_
_symmetry_equiv_pos_as_xyz
  x,y,z
_cell_length_a	14.853558
_cell_length_b	14.853567
_cell_length_c	13.330367
_cell_angle_alpha	89.998602
_cell_angle_beta	90.007165
_cell_angle_gamma	83.633032
loop_
_atom_site_label
_atom_site_type_symbol
_atom_site_fract_x
_atom_site_fract_y
_atom_site_fract_z
O1	O	1.196374	0.117661	0.083403
O2	O	0.933914	0.131691	0.083406
O3	O	1.072155	-0.006554	0.083407
O4	O	1.058133	0.255906	0.083401
O5	O	1.072134	-0.006551	-0.083440
O6	O	0.933893	0.131694	-0.083441
O7	O	1.196353	0.117664	-0.083445
Cu8	Cu	1.065121	0.124679	-0.098677
Cu9	Cu	1.065146	0.124676	0.098639
O10	O	1.058112	0.255909	-0.083446
C11	C	0.900314	0.131058	-0.000017
C12	C	0.800230	0.129158	-0.000015
C13	C	0.753222	0.128265	0.090937
C14	C	0.753197	0.128257	-0.090966
C15	C	0.659163	0.126467	-0.090968
C16	C	0.612155	0.125574	-0.000015
C17	C	0.659180	0.126471	0.090938
C18	C	0.612133	0.125560	-0.181920
C19	C	0.518093	0.123768	-0.181925
C20	C	0.471082	0.122882	-0.090972
C21	C	0.518113	0.123781	-0.000014
C22	C	0.471104	0.122888	0.090938
C23	C	0.518132	0.123793	0.181897
C24	C	0.612168	0.125585	0.181892
C25	C	0.377046	0.121090	-0.090967
C26	C	0.377062	0.121094	0.090939
C27	C	1.071509	-0.040141	-0.000013
C28	C	1.069605	-0.140225	-0.000005
C29	C	0.979439	-0.552756	-0.000022
C30	C	1.143673	-0.574042	-0.000025
C31	C	1.145463	-0.480009	-0.000019
C32	C	1.064240	-0.422344	-0.000016
C33	C	0.981227	-0.458713	-0.000020
C34	C	1.228474	-0.443632	-0.000026
C35	C	1.230268	-0.349593	-0.000021
C36	C	1.149044	-0.291927	-0.000011
C37	C	1.066027	-0.328301	-0.000013
C38	C	0.984805	-0.270637	-0.000011
C39	C	0.901787	-0.307009	-0.000006
C40	C	0.900003	-0.401047	-0.000010
C41	C	1.150828	-0.197890	-0.000007
C42	C	0.986592	-0.176594	-0.000008
C43	C	1.229953	0.118296	-0.000019
C44	C	1.330037	0.120197	-0.000015
C45	C	1.058758	0.289496	-0.000023
C46	C	1.060662	0.389580	-0.000025
N47	N	1.065110	0.124681	-0.237459
C48	C	1.010370	0.069903	-0.289982
C49	C	1.119862	0.179454	-0.289964
C50	C	1.119872	0.179454	-0.394982
C51	C	1.065132	0.124676	-0.447505
C52	C	1.010380	0.069899	-0.395010
C53	C	1.174630	0.234223	-0.447485
C54	C	1.174643	0.234224	-0.552510
C55	C	1.119897	0.179450	-0.605035
C56	C	1.065143	0.124671	-0.552533
C57	C	1.010402	0.069894	-0.605056
C58	C	0.955642	0.015119	-0.552556
C59	C	0.955634	0.015125	-0.447535
C60	C	1.119905	0.179444	-0.710057
C61	C	1.010413	0.069889	-0.710084
N62	N	1.065164	0.124667	0.237420
H63	H	0.791478	0.128977	-0.165015
C64	C	0.663902	0.126566	0.281934
H65	H	0.726640	0.127749	0.268905
H66	H	0.641690	0.178803	0.319308
H67	H	0.655305	0.073733	0.319302
H68	H	0.479811	0.123030	-0.255989
C69	C	1.180130	0.239690	-0.767802
H70	H	1.212727	0.272316	-0.721480
H71	H	1.221573	0.202819	-0.808764
H72	H	1.143236	0.281123	-0.808777
C73	C	1.317810	-0.507061	-0.000035
H74	H	1.304854	-0.568275	-0.000026
H75	H	1.351834	-0.496024	-0.058222
H76	H	1.351854	-0.496029	0.058152
H77	H	0.338793	0.120373	0.165005
C78	C	0.466416	0.122811	0.281938
H79	H	0.403677	0.121617	0.268905
H80	H	0.488643	0.070579	0.319320
H81	H	0.475010	0.175648	0.319300
C82	C	0.804947	0.129256	0.190984
H83	H	0.867686	0.130448	0.177962
H84	H	0.782724	0.181493	0.228351
H85	H	0.796354	0.076424	0.228355
H86	H	0.911076	-0.029484	-0.595334
C87	C	0.950197	0.009636	-0.767856
H88	H	0.958040	0.017480	-0.837923
H89	H	0.966861	-0.052019	-0.750634
H90	H	0.888531	0.026291	-0.750664
H91	H	0.650415	0.126279	-0.255968
C92	C	0.325318	0.120095	-0.191007
H93	H	0.366783	0.120886	-0.245175
H94	H	0.295443	0.066867	-0.194781
H95	H	0.281825	0.171936	-0.194795
C96	C	0.897245	-0.113170	-0.000006
H97	H	0.847552	-0.148303	-0.000010
H98	H	0.894536	-0.076042	0.058175
H99	H	0.894520	-0.076045	-0.058199
C100	C	1.234851	0.294462	-0.389716
H101	H	1.267474	0.327072	-0.436021
H102	H	1.197965	0.335894	-0.348755
H103	H	1.276287	0.257575	-0.348737
H104	H	0.835656	-0.260047	-0.000011
C105	C	1.321581	-0.309591	-0.000013
H106	H	1.369697	-0.357403	-0.000007
H107	H	1.325690	-0.273340	-0.058190
H108	H	1.325695	-0.273359	0.058184
C109	C	0.808695	-0.441059	-0.000019
H110	H	0.819265	-0.505323	-0.000034
H111	H	0.775248	-0.421283	0.058163
H112	H	0.775246	-0.421268	-0.058211
C113	C	0.888127	-0.592761	-0.000021
H114	H	0.898690	-0.657025	-0.000028
H115	H	0.854686	-0.572975	0.058161
H116	H	0.854677	-0.572973	-0.058213
H117	H	1.209801	-0.620998	-0.000035
H118	H	1.218419	-0.168279	-0.000018
H119	H	0.911053	-0.029471	-0.404780
H120	H	1.164435	0.224046	-0.247193
C121	C	0.950141	0.009653	-0.232239
H122	H	0.957975	0.017494	-0.162168
H123	H	0.888483	0.026293	-0.249472
H124	H	0.966824	-0.052007	-0.249442
H125	H	1.219231	0.278825	-0.595247
