data_functionalizedCrystal
_audit_creation_method	'MofGen! by Chris Wilmer'
_symmetry_space_group_name_H-M	'P1'
_symmetry_Int_Tables_number	1
_symmetry_cell_setting	triclinic
loop_
_symmetry_equiv_pos_as_xyz
  x,y,z
_cell_length_a	16.109301
_cell_length_b	14.044220
_cell_length_c	15.186229
_cell_angle_alpha	89.995248
_cell_angle_beta	89.999362
_cell_angle_gamma	88.325179
loop_
_atom_site_label
_atom_site_type_symbol
_atom_site_fract_x
_atom_site_fract_y
_atom_site_fract_z
O1	O	1.112195	0.121835	-0.073175
O2	O	1.612195	0.621835	0.426825
O3	O	0.871261	0.136997	-0.073189
O4	O	1.371261	0.636997	0.426811
O5	O	0.988112	-0.008568	-0.073174
O6	O	1.488112	0.491432	0.426826
O7	O	0.995345	0.267399	-0.073191
O8	O	1.495345	0.767399	0.426809
O9	O	0.988103	-0.008570	0.073284
O10	O	1.488103	0.491430	0.573284
O11	O	0.871253	0.136995	0.073268
O12	O	1.371253	0.636995	0.573268
O13	O	1.112187	0.121832	0.073282
O14	O	1.612187	0.621832	0.573282
Zn15	Zn	0.991718	0.129413	0.096528
Zn16	Zn	1.491718	0.629413	0.596528
Zn17	Zn	0.991730	0.129416	-0.096435
Zn18	Zn	1.491730	0.629416	0.403565
O19	O	0.995336	0.267397	0.073267
O20	O	1.495336	0.767397	0.573267
C21	C	0.840236	0.136381	0.000038
C22	C	1.340236	0.636381	0.500038
C23	C	0.747804	0.134540	0.000033
C24	C	1.247804	0.634540	0.500033
C25	C	0.531640	0.216634	0.000038
C26	C	1.031640	0.716634	0.500038
C27	C	0.444790	0.214896	0.000043
C28	C	0.944790	0.714896	0.500043
C29	C	0.451815	0.042189	0.000050
C30	C	0.951815	0.542189	0.500050
C31	C	0.538663	0.043927	0.000051
C32	C	1.038663	0.543927	0.500051
C33	C	0.578573	0.131153	0.000040
C34	C	1.078573	0.631153	0.500040
C35	C	0.404875	0.127677	0.000045
C36	C	0.904875	0.627677	0.500045
C37	C	0.310709	0.125792	0.000052
C38	C	0.810709	0.625792	0.500052
C39	C	0.672745	0.133038	0.000036
C40	C	1.172745	0.633038	0.500036
C41	C	0.984941	-0.043882	0.000055
C42	C	1.484941	0.456118	0.500055
C43	C	0.975498	-0.149105	0.000056
C44	C	1.475498	0.350895	0.500056
C45	C	0.958232	-0.341761	0.000042
C46	C	1.458232	0.158239	0.500042
C47	C	1.025212	-0.399415	0.000043
C48	C	1.525212	0.100585	0.500043
C49	C	1.015605	-0.506616	0.000036
C50	C	1.515605	-0.006616	0.500036
C51	C	0.967838	-0.234551	0.000050
C52	C	1.467838	0.265449	0.500050
C53	C	1.143211	0.122448	0.000053
C54	C	1.643211	0.622448	0.500053
C55	C	1.235644	0.124289	0.000053
C56	C	1.735644	0.624289	0.500053
C57	C	0.998506	0.302711	0.000036
C58	C	1.498506	0.802711	0.500036
C59	C	1.007950	0.407934	0.000030
C60	C	1.507950	0.907934	0.500030
N61	N	0.991716	0.129411	0.228221
N62	N	1.491716	0.629411	0.728221
N63	N	0.991737	0.129411	-0.228128
N64	N	1.491737	0.629411	0.271872
C65	C	1.043479	0.064976	0.453951
C66	C	1.543479	0.564976	0.953951
C67	C	1.043481	0.064974	0.546141
C68	C	1.543481	0.564974	1.046141
C69	C	0.939969	0.193848	0.546136
C70	C	1.439969	0.693848	1.046136
C71	C	0.939963	0.193845	0.453948
C72	C	1.439963	0.693845	0.953948
C73	C	0.991723	0.129410	0.407858
C74	C	1.491723	0.629410	0.907858
C75	C	0.991731	0.129411	0.592235
C76	C	1.491731	0.629411	1.092235
C77	C	0.991734	0.129409	0.692192
C78	C	1.491734	0.629409	1.192192
C79	C	0.991719	0.129411	0.307895
C80	C	1.491719	0.629411	0.807895
H81	H	0.406580	0.284504	0.000043
H82	H	0.906580	0.784504	0.500043
C83	C	0.883035	0.264721	0.596843
C84	C	1.383035	0.764721	1.096843
N85	N	0.840151	0.318103	0.635036
N86	N	1.340151	0.818103	1.135036
H87	H	0.576877	-0.025686	0.000055
H88	H	1.076877	0.474314	0.500055
H89	H	1.089769	-0.368264	-0.000012
H90	H	1.589769	0.131736	0.499988
C91	C	0.871023	-0.383843	0.000048
C92	C	1.371023	0.116157	0.500048
N93	N	0.805338	-0.415551	0.000060
N94	N	1.305338	0.084449	0.500060
H95	H	1.085623	0.012508	0.416427
H96	H	1.585623	0.512508	0.916427
C97	C	0.883065	0.264774	0.403242
C98	C	1.383065	0.764774	0.903242
N99	N	0.840225	0.318210	0.365051
N100	N	1.340225	0.818210	0.865051
C101	C	0.575537	0.312584	0.000037
C102	C	1.075537	0.812584	0.500037
N103	N	0.608599	0.384856	0.000041
N104	N	1.108599	0.884856	0.500041
C105	C	0.407905	-0.053754	0.000054
C106	C	0.907905	0.446246	0.500054
N107	N	0.374834	-0.126020	0.000053
N108	N	0.874834	0.373980	0.500053
C109	C	1.100410	-0.005916	0.596839
C110	C	1.600410	0.494084	1.096839
N111	N	1.143288	-0.059317	0.635024
N112	N	1.643288	0.440683	1.135024
