data_functionalizedCrystal
_audit_creation_method	'MofGen! by Chris Wilmer'
_symmetry_space_group_name_H-M	'P1'
_symmetry_Int_Tables_number	1
_symmetry_cell_setting	triclinic
loop_
_symmetry_equiv_pos_as_xyz
  x,y,z
_cell_length_a	19.288864
_cell_length_b	27.732048
_cell_length_c	18.366186
_cell_angle_alpha	89.988789
_cell_angle_beta	89.977106
_cell_angle_gamma	82.889449
loop_
_atom_site_label
_atom_site_type_symbol
_atom_site_fract_x
_atom_site_fract_y
_atom_site_fract_z
O1	O	0.920977	0.060300	-0.060791
O2	O	0.718665	0.068434	-0.060742
O3	O	0.826104	-0.006011	-0.060754
O4	O	0.813538	0.134745	-0.060779
O5	O	0.826086	-0.006014	0.060345
O6	O	0.718647	0.068430	0.060357
O7	O	0.920959	0.060296	0.060309
Zn8	Zn	0.819800	0.064363	0.079560
Zn9	Zn	0.819824	0.064368	-0.079994
O10	O	0.813520	0.134741	0.060321
C11	C	0.692781	0.068171	-0.000186
C12	C	0.615683	0.067385	-0.000167
C13	C	0.570714	0.111066	-0.000186
C14	C	0.498271	0.110328	-0.000194
C15	C	0.470801	0.065906	-0.000197
C16	C	0.515780	0.022219	-0.000174
C17	C	0.588220	0.022959	-0.000159
C18	C	0.362763	0.030987	-0.042642
C19	C	0.290323	0.030250	-0.042662
C20	C	0.247370	0.063624	-0.000241
C21	C	0.276863	0.097744	0.042190
C22	C	0.349304	0.098483	0.042206
C23	C	0.392252	0.065099	-0.000213
C24	C	0.123850	0.106507	-0.000268
C25	C	0.051406	0.105767	-0.000271
C26	C	0.068916	0.017658	-0.000258
C27	C	0.141358	0.018399	-0.000248
C28	C	0.168820	0.062825	-0.000256
C29	C	0.825831	-0.024020	-0.000202
C30	C	0.825037	-0.077678	-0.000196
C31	C	0.883526	-0.416316	-0.000248
C32	C	0.880579	-0.617985	-0.000257
O33	O	0.934063	-0.649079	-0.000302
N34	N	0.816872	-0.637301	-0.000241
C35	C	0.753897	-0.606196	-0.000227
O36	O	0.699643	-0.627253	-0.000222
C37	C	0.756845	-0.404529	-0.000223
C38	C	0.820556	-0.385216	-0.000232
C39	C	0.947232	-0.397002	-0.000257
C40	C	0.947968	-0.346588	-0.000251
C41	C	0.884998	-0.315488	-0.000235
C42	C	0.821292	-0.334801	-0.000226
C43	C	0.693871	-0.373425	-0.000215
C44	C	0.694614	-0.323006	-0.000216
C45	C	0.758325	-0.303693	-0.000224
C46	C	0.759059	-0.253287	-0.000203
N47	N	0.822766	-0.233971	-0.000219
C48	C	0.885735	-0.265071	-0.000235
C49	C	0.752354	-0.712075	-0.000228
C50	C	0.751617	-0.762492	-0.000228
C51	C	0.878299	-0.774276	-0.000259
C52	C	0.879035	-0.723859	-0.000254
C53	C	0.816061	-0.692759	-0.000244
C54	C	0.887276	-0.159197	-0.000221
C55	C	0.888007	-0.108778	-0.000212
C56	C	0.761325	-0.096998	-0.000185
C57	C	0.760595	-0.147412	-0.000190
C58	C	0.823576	-0.178511	-0.000211
O59	O	0.705603	-0.222164	-0.000167
O60	O	0.939982	-0.244005	-0.000257
C61	C	0.882790	-0.466730	-0.000254
C62	C	0.819084	-0.486044	-0.000245
C63	C	0.756114	-0.454943	-0.000229
C64	C	0.818347	-0.536461	-0.000244
C65	C	0.881317	-0.567561	-0.000260
C66	C	0.945023	-0.548245	-0.000276
C67	C	0.945760	-0.497831	-0.000270
C68	C	0.692407	-0.474260	-0.000213
C69	C	0.691676	-0.524674	-0.000218
C70	C	0.754646	-0.555775	-0.000234
C71	C	0.946842	0.060560	-0.000249
C72	C	1.023941	0.061345	-0.000273
C73	C	0.813792	0.152751	-0.000233
C74	C	0.814587	0.206408	-0.000244
N75	N	0.819789	0.064359	0.188451
N76	N	0.819841	0.064367	-0.188885
C77	C	0.867378	0.031411	0.226546
C78	C	0.867383	0.031409	0.302774
C79	C	0.819804	0.064363	0.340904
C80	C	0.772206	0.097314	0.302800
C81	C	0.772198	0.097312	0.226573
C82	C	0.810231	0.108406	0.461658
C83	C	0.810244	0.108409	0.537883
C84	C	0.819824	0.064369	0.576011
C85	C	0.829406	0.020325	0.537906
C86	C	0.829398	0.020323	0.461679
C87	C	0.819807	0.064369	0.423559
C88	C	0.867421	0.031416	0.696761
C89	C	0.867420	0.031413	0.772991
C90	C	0.772247	0.097322	0.773015
C91	C	0.772244	0.097321	0.696787
C92	C	0.819835	0.064368	0.658665
H93	H	0.493409	-0.013949	-0.000187
O94	O	0.913483	-0.000601	0.189373
C95	C	0.956059	0.025087	0.145074
H96	H	0.957126	0.063178	0.168026
H97	H	1.011385	0.005119	0.143980
H98	H	0.934093	0.027734	0.087396
O99	O	0.007622	0.148157	-0.000260
C100	C	-0.062206	0.137980	-0.000288
H101	H	-0.064590	0.100021	0.022652
H102	H	-0.095348	0.165836	0.034854
H103	H	-0.083145	0.139853	-0.058390
H104	H	0.733444	0.124142	0.195556
O105	O	0.261793	-0.002939	-0.083893
C106	C	0.315236	-0.032235	-0.121336
H107	H	0.366844	-0.031647	-0.091322
H108	H	0.301993	-0.071132	-0.124070
H109	H	0.320085	-0.017616	-0.178893
O110	O	0.404551	-0.001367	-0.083898
C111	C	0.441523	0.023949	-0.134487
H112	H	0.444755	0.062328	-0.113664
H113	H	0.496510	0.004138	-0.141625
H114	H	0.413203	0.025851	-0.189077
O115	O	0.377844	0.131640	0.083492
C116	C	0.324404	0.160949	0.120918
H117	H	0.276680	0.140697	0.126034
H118	H	0.343612	0.169679	0.177531
H119	H	0.309707	0.196170	0.089455
O120	O	0.939515	-0.804443	-0.000376
C121	C	0.978222	-0.795710	-0.063118
H122	H	0.960753	-0.757424	-0.084018
H123	H	1.036192	-0.799385	-0.049036
H124	H	0.969020	-0.823260	-0.107035
O125	O	0.913583	-0.000577	0.810111
C126	C	0.903396	0.006496	0.885566
H127	H	0.847979	0.024657	0.895999
H128	H	0.911526	-0.030124	0.914544
H129	H	0.942444	0.030674	0.907171
H130	H	0.241891	0.124920	0.076734
O131	O	0.633457	-0.292776	-0.000333
C132	C	0.630110	-0.263241	-0.063038
H133	H	0.665842	-0.281771	-0.106883
H134	H	0.574102	-0.257456	-0.084081
H135	H	0.647679	-0.226616	-0.048858
H136	H	0.624835	-0.012613	-0.000144
H137	H	0.996296	-0.573576	-0.000286
H138	H	0.999848	-0.330868	-0.000261
H139	H	0.938562	-0.184513	-0.000241
H140	H	0.641991	-0.389141	-0.000212
H141	H	0.733505	0.124152	0.804060
H142	H	0.710057	-0.071667	-0.000169
O143	O	0.689772	-0.781306	-0.000310
C144	C	0.685554	-0.810098	-0.063038
H145	H	0.740440	-0.822770	-0.083958
H146	H	0.658219	-0.843055	-0.048929
H147	H	0.654593	-0.787750	-0.106949
O148	O	0.725994	0.129378	0.659890
C149	C	0.683988	0.158456	0.709887
H150	H	0.712463	0.158953	0.764209
H151	H	0.672973	0.197078	0.687854
H152	H	0.632562	0.142852	0.718026
O153	O	1.007631	-0.479050	-0.000156
C154	C	1.011841	-0.450239	0.062553
H155	H	0.975668	-0.462089	0.106400
H156	H	1.067868	-0.454889	0.083589
H157	H	0.995394	-0.410443	0.048378
H158	H	0.733466	0.124145	0.333849
O159	O	1.008470	-0.427140	-0.000238
C160	C	1.064847	-0.399272	-0.000266
H161	H	1.046786	-0.361608	0.022660
H162	H	1.108930	-0.417957	0.034888
H163	H	1.084413	-0.395714	-0.058366
O164	O	0.940879	-0.705042	-0.000366
C165	C	0.945117	-0.676237	-0.063097
H166	H	0.890237	-0.663561	-0.083994
H167	H	0.972446	-0.643282	-0.049001
H168	H	0.976093	-0.698574	-0.107021
O169	O	0.150452	0.149690	-0.000363
C170	C	0.127473	0.176309	-0.063095
H171	H	0.077375	0.163249	-0.084013
H172	H	0.116982	0.216584	-0.048992
H173	H	0.169480	0.170620	-0.107006
O174	O	0.949960	-0.090099	-0.000256
C175	C	1.005379	-0.128364	-0.000256
H176	H	0.986284	-0.162570	-0.023181
H177	H	1.049897	-0.117915	-0.035424
H178	H	1.024768	-0.135548	0.057836
H179	H	0.701070	-0.686757	-0.000220
H180	H	0.046551	-0.018511	-0.000306
H181	H	0.708716	-0.163138	-0.000163
O182	O	0.629721	-0.543351	-0.000241
C183	C	0.574305	-0.505084	-0.000209
H184	H	0.593412	-0.470871	-0.023130
H185	H	0.529800	-0.515518	-0.035366
H186	H	0.554894	-0.497920	0.057892
O187	O	0.838678	-0.022501	0.424776
C188	C	0.847154	-0.061374	0.474767
H189	H	0.822609	-0.048887	0.529115
H190	H	0.820501	-0.092824	0.452766
H191	H	0.905207	-0.073843	0.482843
H192	H	0.177973	-0.017171	-0.000236
O193	O	0.631281	-0.444003	-0.000098
C194	C	0.627897	-0.414507	0.062635
H195	H	0.682997	-0.412070	0.083530
H196	H	0.601602	-0.376559	0.048543
H197	H	0.596355	-0.431041	0.106559
H198	H	0.906137	0.004578	0.333797
H199	H	0.837207	-0.015536	0.568948
H200	H	0.802446	0.144272	0.568903
H201	H	0.593069	0.147241	-0.000194
O202	O	0.454507	0.152729	-0.000314
C203	C	0.412133	0.154937	-0.063053
H204	H	0.408899	0.116575	-0.083952
H205	H	0.357477	0.173059	-0.048968
H206	H	0.435755	0.176960	-0.106972
O207	O	0.913669	-0.000643	0.659837
C208	C	0.955682	-0.029721	0.709811
H209	H	0.927215	-0.030216	0.764162
H210	H	0.966692	-0.068343	0.687793
H211	H	1.007110	-0.014117	0.717888
H212	H	0.802418	0.144270	0.430620
