data_functionalizedCrystal
_audit_creation_method	'MofGen! by Chris Wilmer'
_symmetry_space_group_name_H-M	'P1'
_symmetry_Int_Tables_number	1
_symmetry_cell_setting	triclinic
loop_
_symmetry_equiv_pos_as_xyz
  x,y,z
_cell_length_a	17.000383
_cell_length_b	17.019294
_cell_length_c	13.330367
_cell_angle_alpha	86.116384
_cell_angle_beta	89.989271
_cell_angle_gamma	79.506204
loop_
_atom_site_label
_atom_site_type_symbol
_atom_site_fract_x
_atom_site_fract_y
_atom_site_fract_z
O1	O	1.056072	0.028436	-0.085948
O2	O	0.824307	0.057066	-0.088408
O3	O	0.946654	-0.072530	-0.077215
O4	O	0.933724	0.158032	-0.097141
O5	O	0.946636	-0.072531	0.089632
O6	O	0.824289	0.057065	0.078439
O7	O	1.056054	0.028435	0.080899
Cu8	Cu	0.940170	0.042750	0.094904
Cu9	Cu	0.940191	0.042751	-0.102413
O10	O	0.933707	0.158031	0.069706
C11	C	0.794643	0.058603	-0.005115
C12	C	0.706279	0.063175	-0.005505
C13	C	0.206029	0.092699	-0.008094
C14	C	0.289057	0.088397	-0.007722
C15	C	0.340136	0.013720	-0.001260
C16	C	0.308184	-0.056658	0.004819
C17	C	0.225157	-0.052355	0.004439
C18	C	0.591300	-0.002900	0.000194
C19	C	0.674332	-0.007198	0.000576
C20	C	0.655199	0.137857	-0.011966
C21	C	0.572172	0.142154	-0.012339
C22	C	0.540227	0.071775	-0.006266
C23	C	0.425004	0.009321	-0.000876
C24	C	0.455360	0.076175	-0.006657
C25	C	0.946155	-0.101886	0.008743
C26	C	0.944684	-0.189354	0.016297
C27	C	0.944004	-0.230442	-0.071102
C28	C	0.942616	-0.312627	-0.064002
C29	C	0.941914	-0.353723	0.030498
C30	C	0.942592	-0.312630	0.117904
C31	C	0.943973	-0.230445	0.110803
C32	C	0.937736	-0.601867	0.056490
C33	C	0.936357	-0.684057	0.063585
C34	C	0.936380	-0.684048	-0.118323
C35	C	0.937767	-0.601863	-0.125415
C36	C	0.938440	-0.560776	-0.038010
C37	C	0.940498	-0.437730	0.037758
C38	C	0.939850	-0.476770	-0.045271
C39	C	1.085718	0.026898	-0.002396
C40	C	1.174082	0.022326	-0.002013
C41	C	0.934206	0.187387	-0.016255
C42	C	0.935677	0.274855	-0.023815
N43	N	0.940161	0.042747	0.233685
N44	N	0.940206	0.042747	-0.241194
C45	C	0.886013	0.100116	0.701353
C46	C	0.994390	-0.014621	0.711231
C47	C	0.994381	-0.014622	0.606213
C48	C	0.940188	0.042746	0.548760
C49	C	0.886004	0.100117	0.596325
C50	C	1.048569	-0.071987	0.558639
C51	C	1.048563	-0.071991	0.453614
C52	C	0.994366	-0.014625	0.396160
C53	C	0.940179	0.042748	0.443732
C54	C	0.885986	0.100117	0.386279
C55	C	0.831795	0.157486	0.433849
C56	C	0.831807	0.157483	0.538871
C57	C	0.994354	-0.014621	0.291138
C58	C	0.885977	0.100118	0.281251
H59	H	0.565301	-0.060207	0.005142
H60	H	1.092687	-0.118704	0.414890
Br61	Br	1.122122	-0.149836	0.636606
H62	H	0.787687	0.204192	0.577609
H63	H	0.413768	0.136976	-0.011922
H64	H	0.199148	-0.109661	0.009389
H65	H	0.935831	-0.717511	-0.189483
Br66	Br	1.067900	-0.092468	0.226584
H67	H	0.942015	-0.346096	0.194848
Br68	Br	0.136714	0.194050	-0.016852
Br69	Br	0.758257	0.235348	0.355866
Br70	Br	0.944892	-0.174681	0.229421
H71	H	1.038516	-0.061325	0.758012
Br72	Br	0.332410	0.183908	-0.015985
H73	H	0.530588	0.202963	-0.017604
H74	H	0.681218	0.195155	-0.016912
Br75	Br	0.812419	0.177974	0.203287
H76	H	0.841889	0.146823	0.740088
H77	H	0.715920	-0.068012	0.005833
H78	H	0.349779	-0.117461	0.010074
Br79	Br	0.938725	-0.546096	-0.253671
H80	H	0.942066	-0.346077	-0.135172
H81	H	0.935781	-0.717515	0.140542
H82	H	0.940416	-0.443304	-0.122213
H83	H	0.938300	-0.568426	0.127662
H84	H	0.939929	-0.471201	0.114701
H85	H	0.466602	-0.051481	0.004388
H86	H	0.944580	-0.196988	-0.148055
