data_functionalizedCrystal
_audit_creation_method	'MofGen! by Chris Wilmer'
_symmetry_space_group_name_H-M	'P1'
_symmetry_Int_Tables_number	1
_symmetry_cell_setting	triclinic
loop_
_symmetry_equiv_pos_as_xyz
  x,y,z
_cell_length_a	11.026607
_cell_length_b	16.992694
_cell_length_c	16.053802
_cell_angle_alpha	92.750953
_cell_angle_beta	93.134017
_cell_angle_gamma	80.372880
loop_
_atom_site_label
_atom_site_type_symbol
_atom_site_fract_x
_atom_site_fract_y
_atom_site_fract_z
O1	O	0.256038	-1.079834	-0.069317
O2	O	0.253175	-0.851145	-0.069342
O3	O	0.076115	-0.946536	-0.069328
O4	O	0.433098	-0.984443	-0.069330
O5	O	0.085818	-0.941279	0.069530
O6	O	0.262878	-0.845889	0.069516
O7	O	0.265741	-1.074577	0.069541
Zn8	Zn	0.265850	-0.959398	0.091575
Zn9	Zn	0.253066	-0.966324	-0.091376
O10	O	0.442801	-0.979186	0.069528
C11	C	0.254344	-0.818785	0.000084
C12	C	0.243357	-0.730190	0.000075
C13	C	0.035078	-0.936914	0.000099
C14	C	-0.101658	-0.916068	0.000094
C15	C	0.264572	-1.106937	0.000113
C16	C	0.275558	-1.195532	0.000117
C17	C	-0.169881	-0.973629	0.000099
C18	C	-0.311205	-0.952085	0.000093
C19	C	0.483838	-0.988808	0.000099
C20	C	0.620574	-1.009655	0.000098
N21	N	0.274575	-0.954677	0.216435
C22	C	0.349355	-0.694911	0.000075
C23	C	0.339026	-0.611666	0.000086
C24	C	0.222698	-0.563702	0.000092
C25	C	0.116693	-0.598986	0.000094
C26	C	0.127024	-0.682229	0.000089
C27	C	0.179883	-0.314060	0.000114
C28	C	0.169561	-0.230811	0.000117
C29	C	0.391895	-0.243497	0.000111
C30	C	0.402215	-0.326741	0.000100
C31	C	0.296210	-0.362018	0.000107
N32	N	0.212138	-0.478612	0.000101
N33	N	0.306772	-0.447107	0.000104
N34	N	0.244332	-0.971050	-0.216236
C35	C	0.199266	-0.995289	0.260135
C36	C	0.205382	-0.991996	0.347541
C37	C	0.286813	-0.948095	0.391246
C38	C	0.362124	-0.907478	0.347540
C39	C	0.356002	-0.910767	0.260136
C40	C	0.313521	-0.933722	0.652654
C41	C	0.319641	-0.930438	0.740065
C42	C	0.162896	-1.014955	0.740059
C43	C	0.156786	-1.018244	0.652653
C44	C	0.232093	-0.977624	0.608955
N45	N	0.293068	-0.944729	0.480589
N46	N	0.225830	-0.980985	0.519613
H47	H	-0.123663	-1.038860	0.000111
C48	C	-0.373624	-0.863958	0.000083
H49	H	-0.460421	-0.861038	0.000086
H50	H	-0.352865	-0.840067	-0.048341
H51	H	-0.346108	-0.836404	0.048511
C52	C	0.122554	-1.036678	0.395607
H53	H	0.073195	-1.063305	0.357060
H54	H	0.070919	-0.999575	0.429714
H55	H	0.172459	-1.074737	0.429693
H56	H	-0.333220	-1.074893	0.000043
C57	C	-0.164083	-0.827945	0.000083
H58	H	-0.250879	-0.825025	0.000087
H59	H	-0.143324	-0.804054	-0.048341
H60	H	-0.136566	-0.800391	0.048511
H61	H	0.101583	-1.048025	0.775646
C62	C	0.477316	-0.747665	0.000068
H63	H	0.538964	-0.714728	0.000077
H64	H	0.482587	-0.782228	-0.048357
H65	H	0.489352	-0.778575	0.048495
C66	C	0.455624	-0.572863	0.000083
H67	H	0.526382	-0.613351	0.000069
H68	H	0.459607	-0.538829	0.048509
H69	H	0.452826	-0.542478	-0.048343
C70	C	0.530176	-0.379496	0.000106
H71	H	0.591827	-0.346562	0.000117
H72	H	0.535450	-0.414062	-0.048316
H73	H	0.542202	-0.410403	0.048536
H74	H	0.478198	-0.214765	0.000107
H75	H	0.132962	-1.031042	0.224556
H76	H	0.074828	-0.191760	0.000121
H77	H	0.093566	-0.342772	0.000121
H78	H	0.090478	-1.053992	0.617070
C79	C	-0.011265	-0.546228	0.000099
H80	H	-0.002239	-0.491598	0.000093
H81	H	-0.051866	-0.555437	0.048521
H82	H	-0.058628	-0.559093	-0.048331
C83	C	0.010426	-0.721037	0.000080
H84	H	-0.060335	-0.680550	0.000075
H85	H	0.013215	-0.751423	0.048499
H86	H	0.006454	-0.755070	-0.048353
C87	C	0.409149	-0.882093	0.788139
H88	H	0.453095	-0.858352	0.749596
H89	H	0.465578	-0.916600	0.822249
H90	H	0.363963	-0.841478	0.822222
C91	C	0.396367	-0.889050	0.604597
H92	H	0.445749	-0.862442	0.643147
H93	H	0.346486	-0.850989	0.570508
H94	H	0.448000	-0.926166	0.570493
C95	C	0.451698	-0.859189	0.395614
H96	H	0.444570	-0.863053	0.453928
H97	H	0.432144	-0.804781	0.381300
H98	H	0.533657	-0.879958	0.381278
H99	H	0.417324	-0.877695	0.224556
