data_functionalizedCrystal
_audit_creation_method	'MofGen! by Chris Wilmer'
_symmetry_space_group_name_H-M	'P1'
_symmetry_Int_Tables_number	1
_symmetry_cell_setting	triclinic
loop_
_symmetry_equiv_pos_as_xyz
  x,y,z
_cell_length_a	14.044220
_cell_length_b	14.519709
_cell_length_c	13.596369
_cell_angle_alpha	89.998664
_cell_angle_beta	89.998669
_cell_angle_gamma	88.434511
loop_
_atom_site_label
_atom_site_type_symbol
_atom_site_fract_x
_atom_site_fract_y
_atom_site_fract_z
O1	O	-1.258086	-0.222362	0.081691
O2	O	-1.008086	0.027638	0.331691
O3	O	-0.758086	0.277638	0.581691
O4	O	-0.508086	0.527638	0.831691
O5	O	-0.982103	-0.214338	0.081716
O6	O	-0.732103	0.035662	0.331716
O7	O	-0.482103	0.285662	0.581716
O8	O	-0.232103	0.535662	0.831716
O9	O	-1.127412	-0.084702	0.081694
O10	O	-0.877412	0.165298	0.331694
O11	O	-0.627412	0.415298	0.581694
O12	O	-0.377412	0.665298	0.831694
O13	O	-1.112778	-0.351999	0.081713
O14	O	-0.862778	-0.101999	0.331713
O15	O	-0.612778	0.148001	0.581713
O16	O	-0.362778	0.398001	0.831713
O17	O	-1.127394	-0.084708	-0.081889
O18	O	-0.877394	0.165292	0.168111
O19	O	-0.627394	0.415292	0.418111
O20	O	-0.377394	0.665292	0.668111
O21	O	-0.982086	-0.214345	-0.081867
O22	O	-0.732086	0.035655	0.168133
O23	O	-0.482086	0.285655	0.418133
O24	O	-0.232086	0.535655	0.668133
O25	O	-1.258068	-0.222369	-0.081892
O26	O	-1.008068	0.027631	0.168108
O27	O	-0.758068	0.277631	0.418108
O28	O	-0.508068	0.527631	0.668108
Zn29	Zn	-1.120074	-0.218358	-0.107852
Zn30	Zn	-0.870074	0.031642	0.142148
Zn31	Zn	-0.620074	0.281642	0.392148
Zn32	Zn	-0.370074	0.531642	0.642148
Zn33	Zn	-1.120098	-0.218349	0.107676
Zn34	Zn	-0.870098	0.031651	0.357676
Zn35	Zn	-0.620098	0.281651	0.607676
Zn36	Zn	-0.370098	0.531651	0.857676
O37	O	-1.112760	-0.352005	-0.081870
O38	O	-0.862760	-0.102005	0.168130
O39	O	-0.612760	0.147995	0.418130
O40	O	-0.362760	0.397995	0.668130
C41	C	-1.126721	-0.050290	-0.000098
C42	C	-0.876721	0.199710	0.249902
C43	C	-0.626721	0.449710	0.499902
C44	C	-0.376721	0.699710	0.749902
C45	C	-1.124677	0.052256	-0.000098
C46	C	-0.874677	0.302256	0.249902
C47	C	-0.624677	0.552256	0.499902
C48	C	-0.374677	0.802256	0.749902
C49	C	-0.946774	-0.210829	-0.000073
C50	C	-0.696774	0.039171	0.249927
C51	C	-0.446774	0.289171	0.499927
C52	C	-0.196774	0.539171	0.749927
C53	C	-0.841531	-0.200352	-0.000064
C54	C	-0.591531	0.049648	0.249936
C55	C	-0.341531	0.299648	0.499936
C56	C	-0.091531	0.549648	0.749936
C57	C	-1.293398	-0.225878	-0.000101
C58	C	-1.043398	0.024122	0.249899
C59	C	-0.793398	0.274122	0.499899
C60	C	-0.543398	0.524122	0.749899
C61	C	-1.398641	-0.236355	-0.000104
C62	C	-1.148641	0.013645	0.249896
C63	C	-0.898641	0.263645	0.499896
C64	C	-0.648641	0.513645	0.749896
C65	C	-0.648837	-0.181197	-0.000084
C66	C	-0.398837	0.068803	0.249916
C67	C	-0.148837	0.318803	0.499916
C68	C	0.101163	0.568803	0.749916
C69	C	-0.591329	-0.255505	-0.000083
C70	C	-0.341329	-0.005505	0.249917
C71	C	-0.091329	0.244495	0.499917
C72	C	0.158671	0.494495	0.749917
C73	C	-0.484108	-0.244848	-0.000095
C74	C	-0.234108	0.005152	0.249905
C75	C	0.015892	0.255152	0.499905
C76	C	0.265892	0.505152	0.749905
C77	C	-0.756068	-0.191854	-0.000073
C78	C	-0.506068	0.058146	0.249927
C79	C	-0.256068	0.308146	0.499927
C80	C	-0.006068	0.558146	0.749927
C81	C	-1.113451	-0.386417	-0.000076
C82	C	-0.863451	-0.136417	0.249924
C83	C	-0.613451	0.113583	0.499924
C84	C	-0.363451	0.363583	0.749924
C85	C	-1.115494	-0.488963	-0.000070
C86	C	-0.865494	-0.238963	0.249930
C87	C	-0.615494	0.011037	0.499930
C88	C	-0.365494	0.261037	0.749930
N89	N	-1.120065	-0.218363	-0.254944
N90	N	-0.870065	0.031637	-0.004944
N91	N	-0.620065	0.281637	0.245056
N92	N	-0.370065	0.531637	0.495056
C93	C	-1.117153	0.427758	-0.000072
C94	C	-0.867153	0.677758	0.249928
C95	C	-0.617153	0.927758	0.499928
C96	C	-0.367153	1.177758	0.749928
C97	C	-1.119243	0.323282	-0.000079
C98	C	-0.869243	0.573282	0.249921
C99	C	-0.619243	0.823282	0.499921
C100	C	-0.369243	1.073282	0.749921
C101	C	-1.120915	0.240010	-0.000086
C102	C	-0.870915	0.490010	0.249914
C103	C	-0.620915	0.740010	0.499914
C104	C	-0.370915	0.990010	0.749914
C105	C	-1.123005	0.135527	-0.000092
C106	C	-0.873005	0.385527	0.249908
C107	C	-0.623005	0.635527	0.499908
C108	C	-0.373005	0.885527	0.749908
C109	C	-1.120070	-0.218366	-0.343942
C110	C	-0.870070	0.031634	-0.093942
C111	C	-0.620070	0.281634	0.156058
C112	C	-0.370070	0.531634	0.406058
C113	C	-1.120079	-0.218360	-0.455593
C114	C	-0.870079	0.031640	-0.205593
C115	C	-0.620079	0.281640	0.044407
C116	C	-0.370079	0.531640	0.294407
C117	C	-1.120091	-0.218351	-0.544583
C118	C	-0.870091	0.031649	-0.294583
C119	C	-0.620091	0.281649	-0.044583
C120	C	-0.370091	0.531649	0.205417
C121	C	-1.120102	-0.218346	-0.656242
C122	C	-0.870102	0.031654	-0.406242
C123	C	-0.620102	0.281654	-0.156242
C124	C	-0.370102	0.531654	0.093758
N125	N	-1.120114	-0.218337	0.254767
N126	N	-0.870114	0.031663	0.504767
N127	N	-0.620114	0.281663	0.754767
N128	N	-0.370114	0.531663	1.004767
H129	H	-0.622622	-0.327127	-0.000073
H130	H	-0.372622	-0.077127	0.249927
H131	H	-0.122622	0.172873	0.499927
H132	H	0.127378	0.422873	0.749927
Br133	Br	-0.596683	-0.061830	-0.000098
Br134	Br	-0.346683	0.188170	0.249902
Br135	Br	-0.096683	0.438170	0.499902
Br136	Br	0.153317	0.688170	0.749902
