data_functionalizedCrystal
_audit_creation_method	'MofGen! by Chris Wilmer'
_symmetry_space_group_name_H-M	'P1'
_symmetry_Int_Tables_number	1
_symmetry_cell_setting	triclinic
loop_
_symmetry_equiv_pos_as_xyz
  x,y,z
_cell_length_a	17.640112
_cell_length_b	16.120444
_cell_length_c	17.640968
_cell_angle_alpha	97.806502
_cell_angle_beta	87.860920
_cell_angle_gamma	103.500183
loop_
_atom_site_label
_atom_site_type_symbol
_atom_site_fract_x
_atom_site_fract_y
_atom_site_fract_z
Zn1	Zn	1.246897	-0.023860	0.196404
Zn2	Zn	1.214803	-0.195188	0.078928
Zn3	Zn	1.092235	-0.077878	0.098047
Zn4	Zn	1.113947	-0.184257	0.230904
O5	O	1.166971	-0.120296	0.151071
O6	O	1.349575	-0.028555	0.158381
O7	O	1.176026	-0.206808	-0.023300
O8	O	1.117097	0.045508	0.104658
O9	O	1.325995	-0.154429	0.072072
O10	O	1.230726	0.085195	0.176920
O11	O	1.085976	-0.120621	-0.009254
O12	O	0.988181	-0.110022	0.138111
O13	O	1.154102	-0.135798	0.331092
O14	O	1.004132	-0.188178	0.235720
O15	O	1.251780	-0.017956	0.305745
O16	O	1.197079	-0.309959	0.105525
O17	O	1.122981	-0.301928	0.217181
C18	C	0.968429	-0.153776	0.192734
C19	C	0.883496	-0.168114	0.210577
C20	C	0.562620	-0.011353	0.015528
C21	C	0.482813	-0.024841	0.032305
C22	C	0.499437	-0.106413	0.133788
C23	C	0.579248	-0.092929	0.117022
C24	C	0.610832	-0.045400	0.057891
C25	C	0.627460	-0.126976	0.159385
C26	C	0.707263	-0.113496	0.142617
C27	C	0.738853	-0.065971	0.083487
C28	C	0.690635	-0.031920	0.041123
C29	C	0.595873	-0.174510	0.218512
C30	C	0.644085	-0.208557	0.260875
C31	C	0.723890	-0.195072	0.244111
C32	C	0.755481	-0.147547	0.184981
C33	C	0.772108	-0.229123	0.286475
C34	C	0.851911	-0.215644	0.269708
C35	C	0.835283	-0.134068	0.168214
C36	C	1.158928	-0.336071	0.163034
C37	C	1.155562	-0.428362	0.168162
C38	C	1.184652	-0.642385	0.124590
C39	C	1.149433	-0.597329	0.177529
C40	C	1.152844	-0.503307	0.172316
C41	C	1.181241	-0.736416	0.129803
C42	C	1.366287	-0.086686	0.109245
C43	C	1.451224	-0.072363	0.091422
C44	C	1.208943	-0.069632	0.346342
C45	C	1.226828	-0.048042	0.429556
C46	C	1.175070	0.096329	0.139073
C47	C	1.178521	0.188642	0.133961
C48	C	1.125208	-0.170695	-0.043454
C49	C	1.107479	-0.192026	-0.126711
C50	C	1.031404	-0.283810	0.769211
C51	C	1.048227	-0.263510	0.847398
C52	C	1.149930	-0.140811	0.820997
C53	C	1.133113	-0.161098	0.742806
C54	C	1.073849	-0.232600	0.716919
C55	C	1.175559	-0.109888	0.690514
C56	C	1.158746	-0.130177	0.612330
C57	C	1.099486	-0.201676	0.586437
C58	C	1.057036	-0.252889	0.638735
C59	C	1.234826	-0.038390	0.716401
C60	C	1.277271	0.012820	0.664110
C61	C	1.260455	-0.007465	0.585925
C62	C	1.201196	-0.078964	0.560032
C63	C	1.302905	0.043748	0.533626
C64	C	1.286092	0.023459	0.455442
C65	C	1.184383	-0.099253	0.481847
H66	H	0.861004	-0.095349	0.120074
H67	H	0.530892	-0.185484	0.232162
H68	H	1.217362	-0.610350	0.075355
Br69	Br	1.103944	-0.196283	0.446709
Br70	Br	0.976598	-0.349919	0.603597
H71	H	0.473709	-0.145115	0.181931
Br72	Br	0.847156	-0.047684	0.060723
Br73	Br	0.601210	-0.273075	0.341111
H74	H	0.746378	-0.267829	0.334615
Br75	Br	0.417381	0.021360	-0.025202
H76	H	0.891167	-0.243367	0.304205
Br77	Br	1.230360	-0.043780	0.856135
Br78	Br	0.733509	0.032595	-0.039121
H79	H	1.116719	-0.629369	0.226767
Br80	Br	1.357701	0.109851	0.699248
Br81	Br	0.950965	-0.380841	0.734073
Br82	Br	0.990614	-0.333018	0.918366
Br83	Br	1.383341	0.140771	0.568766
Br84	Br	1.343702	0.092955	0.384469
H85	H	0.588340	0.027365	-0.032612
H86	H	1.085801	-0.218197	0.522773
H87	H	1.248515	-0.021875	0.780065
