data_functionalizedCrystal
_audit_creation_method	'MofGen! by Chris Wilmer'
_symmetry_space_group_name_H-M	'P1'
_symmetry_Int_Tables_number	1
_symmetry_cell_setting	triclinic
loop_
_symmetry_equiv_pos_as_xyz
  x,y,z
_cell_length_a	6.817900
_cell_length_b	7.190334
_cell_length_c	15.866870
_cell_angle_alpha	74.030337
_cell_angle_beta	102.655915
_cell_angle_gamma	60.611776
loop_
_atom_site_label
_atom_site_type_symbol
_atom_site_fract_x
_atom_site_fract_y
_atom_site_fract_z
V1	V	-4.278433	0.767890	-0.130870
O2	O	-4.203398	0.646163	0.007859
O3	O	-4.283778	0.865652	-0.261003
O4	O	-4.314452	1.055795	-0.128168
O5	O	-4.172512	0.454703	-0.125896
V6	V	-4.744158	0.717916	-0.114358
O7	O	-4.578733	0.877511	-0.167091
O8	O	-4.894056	0.608295	-0.078137
O9	O	-4.515607	0.620154	0.015776
O10	O	-4.936591	0.839643	-0.253087
O11	O	-4.967477	1.031103	-0.119332
O12	O	-4.484933	0.430011	-0.117060
C13	C	-4.139122	0.880119	-0.292749
C14	C	-4.225342	0.961971	-0.399130
C15	C	-4.178259	1.122659	-0.123299
C16	C	-4.291433	1.363135	-0.121924
C17	C	-3.991620	0.202729	-0.682960
C18	C	-4.072667	0.279712	-0.782926
C19	C	-4.279585	0.691098	-0.809332
C20	C	-4.198544	0.614148	-0.709366
C21	C	-4.054566	0.369961	-0.646187
C22	C	-4.261489	0.781381	-0.672594
C23	C	-4.180466	0.704438	-0.572637
C24	C	-4.036496	0.460261	-0.509452
C25	C	-3.973542	0.293018	-0.546230
C26	C	-4.405482	1.025568	-0.735775
C27	C	-4.468428	1.192801	-0.699003
C28	C	-4.387389	1.115858	-0.599044
C29	C	-4.243420	0.871681	-0.535859
C30	C	-4.450344	1.283101	-0.562266
C31	C	-4.369320	1.206158	-0.462309
C32	C	-4.162396	0.794738	-0.435902
C33	C	-4.323605	0.605685	0.047516
C34	C	-4.216628	0.523848	0.153897
H35	H	-3.970535	0.397619	-0.428062
H36	H	-4.021392	0.143511	-0.812859
C37	C	-4.494612	1.110219	-0.845727
H38	H	-4.589400	1.279597	-0.878088
H39	H	-4.354901	1.042414	-0.860362
H40	H	-4.594568	1.060899	-0.866566
C41	C	-4.626787	1.461388	-0.768503
H42	H	-4.666016	1.483265	-0.833301
H43	H	-4.775848	1.542565	-0.760650
H44	H	-4.536155	1.524029	-0.754442
H45	H	-4.396827	0.889917	-0.860786
C46	C	-4.608722	1.551688	-0.631769
H47	H	-4.647956	1.573560	-0.696566
H48	H	-4.757780	1.632852	-0.623912
H49	H	-4.518106	1.614347	-0.617714
H50	H	-3.856268	0.094174	-0.494785
C51	C	-4.438542	1.390104	-0.421855
H52	H	-4.535870	1.546549	-0.473797
H53	H	-4.531064	1.377893	-0.386513
H54	H	-4.291381	1.359374	-0.380308
H55	H	-4.045122	0.595894	-0.384457
H56	H	-3.874346	0.003884	-0.631514
