data_functionalizedCrystal
_audit_creation_method	'MofGen! by Chris Wilmer'
_symmetry_space_group_name_H-M	'P1'
_symmetry_Int_Tables_number	1
_symmetry_cell_setting	triclinic
loop_
_symmetry_equiv_pos_as_xyz
  x,y,z
_cell_length_a	19.077236
_cell_length_b	13.897447
_cell_length_c	19.077271
_cell_angle_alpha	87.710805
_cell_angle_beta	90.102669
_cell_angle_gamma	92.312415
loop_
_atom_site_label
_atom_site_type_symbol
_atom_site_fract_x
_atom_site_fract_y
_atom_site_fract_z
Zn1	Zn	1.058231	-0.350310	0.440550
Zn2	Zn	1.062902	-0.504847	0.323049
Zn3	Zn	0.945469	-0.349759	0.318331
Zn4	Zn	0.940702	-0.517758	0.435787
O5	O	1.001826	-0.430668	0.379429
O6	O	1.157183	-0.365637	0.428931
O7	O	1.051275	-0.478641	0.224093
O8	O	0.960468	-0.214849	0.334562
O9	O	1.160615	-0.479175	0.342604
O10	O	1.043313	-0.215254	0.424356
O11	O	0.964997	-0.364698	0.220626
O12	O	0.846504	-0.377217	0.329944
O13	O	0.952342	-0.501179	0.534749
O14	O	0.843001	-0.500645	0.416238
O15	O	1.038690	-0.378156	0.538248
O16	O	1.046652	-0.641543	0.337985
O17	O	0.956871	-0.651028	0.420813
C18	C	0.819256	-0.440273	0.372062
C19	C	0.741151	-0.444405	0.368927
C20	C	0.702669	-0.387336	0.412469
C21	C	0.629281	-0.391214	0.409518
C22	C	0.594377	-0.452168	0.363027
C23	C	0.632866	-0.509240	0.319481
C24	C	0.706252	-0.505356	0.322429
C25	C	0.375088	-0.470107	0.349379
C26	C	0.301696	-0.473989	0.346435
C27	C	0.298116	-0.355961	0.436471
C28	C	0.371504	-0.352087	0.439419
C29	C	0.409986	-0.409155	0.395870
N30	N	0.519363	-0.456136	0.360011
N31	N	0.484999	-0.405182	0.398883
C32	C	1.001770	-0.681285	0.379410
C33	C	1.001809	-0.788498	0.379429
C34	C	1.001842	-0.875567	0.379446
C35	C	1.001891	-0.984797	0.379466
C36	C	1.185109	-0.421028	0.386825
C37	C	1.263213	-0.416919	0.389977
C38	C	0.994463	-0.441169	0.562707
C39	C	0.991326	-0.445644	0.640809
C40	C	1.001901	-0.179073	0.379464
C41	C	1.001933	-0.071858	0.379479
C42	C	1.034806	-0.383697	0.679325
C43	C	1.031849	-0.387899	0.752710
C44	C	0.985415	-0.454052	0.787578
C45	C	0.941930	-0.516001	0.749057
C46	C	0.944883	-0.511794	0.675674
C47	C	0.971757	-0.473497	1.006857
C48	C	0.968808	-0.477701	1.080246
C49	C	1.058728	-0.349597	1.083893
C50	C	1.061680	-0.345400	1.010508
C51	C	1.018192	-0.407345	0.971993
N52	N	0.982393	-0.458350	0.862590
N53	N	1.021211	-0.403042	0.896983
C54	C	1.009154	-0.420230	1.196864
C55	C	1.012289	-0.415754	1.118761
H56	H	0.737584	-0.551827	0.286972
H57	H	0.604441	-0.558865	0.281624
H58	H	0.399918	-0.302456	0.477279
O59	O	0.923636	-0.541992	1.114006
C60	C	0.834788	-0.668647	1.102650
C61	C	0.885895	-0.595871	1.064327
H62	H	0.804270	-0.712241	1.062501
H63	H	0.796634	-0.628308	1.135511
H64	H	0.865664	-0.719317	1.138320
H65	H	0.855076	-0.545182	1.028621
H66	H	0.924048	-0.636272	1.031510
H67	H	0.266777	-0.309499	0.471925
O68	O	1.074112	-0.327858	0.790207
C69	C	1.165666	-0.314626	0.876881
C70	C	1.117840	-0.382739	0.834471
H71	H	1.201043	-0.358970	0.912667
H72	H	1.132065	-0.267875	0.909983
H73	H	1.199333	-0.266598	0.839346
H74	H	1.084164	-0.430828	0.871955
H75	H	1.151482	-0.429425	0.801360
H76	H	1.072620	-0.329831	0.650941
O77	O	0.591823	-0.335921	0.451851
C78	C	0.505211	-0.332978	0.543444
C79	C	0.547573	-0.395714	0.495529
H80	H	0.469436	-0.381296	0.578781
H81	H	0.472100	-0.282458	0.509910
H82	H	0.542781	-0.288731	0.577149
H83	H	0.510054	-0.440021	0.461816
H84	H	0.580693	-0.446173	0.529104
H85	H	0.936357	-0.523951	0.975507
H86	H	1.094132	-0.299163	1.115260
O87	O	1.106803	-0.281049	0.976749
C88	C	1.195707	-0.154470	0.988115
C89	C	1.144624	-0.227282	1.026435
H90	H	1.226310	-0.110994	1.028269
H91	H	1.164877	-0.103695	0.952482
H92	H	1.233789	-0.194873	0.955217
H93	H	1.106531	-0.186960	1.059370
H94	H	1.175500	-0.278054	1.062025
O95	O	0.896883	-0.580233	0.783037
C96	C	0.852452	-0.643449	0.894469
C97	C	0.903510	-0.570674	0.856078
H98	H	0.857782	-0.635733	0.953528
H99	H	0.865346	-0.719778	0.880579
H100	H	0.796387	-0.628668	0.877710
H101	H	0.959593	-0.585367	0.872815
H102	H	0.890556	-0.494370	0.869969
H103	H	0.273280	-0.523630	0.308576
H104	H	0.909470	-0.562229	0.644315
H105	H	0.731081	-0.337703	0.450329
H106	H	0.406411	-0.516577	0.313918
