data_functionalizedCrystal
_audit_creation_method	'MofGen! by Chris Wilmer'
_symmetry_space_group_name_H-M	'P1'
_symmetry_Int_Tables_number	1
_symmetry_cell_setting	triclinic
loop_
_symmetry_equiv_pos_as_xyz
  x,y,z
_cell_length_a	13.897448
_cell_length_b	13.897449
_cell_length_c	14.908308
_cell_angle_alpha	93.279088
_cell_angle_beta	93.267188
_cell_angle_gamma	90.018972
loop_
_atom_site_label
_atom_site_type_symbol
_atom_site_fract_x
_atom_site_fract_y
_atom_site_fract_z
Zn1	Zn	-0.415437	1.443197	-0.510067
Zn2	Zn	0.084563	1.943197	-0.010067
Zn3	Zn	-0.567447	1.452409	-0.359213
Zn4	Zn	-0.067447	1.952409	0.140787
Zn5	Zn	-0.406172	1.291203	-0.359229
Zn6	Zn	0.093828	1.791203	0.140771
Zn7	Zn	-0.576693	1.281871	-0.510024
Zn8	Zn	-0.076693	1.781871	-0.010024
O9	O	-0.491437	1.367170	-0.434633
O10	O	0.008563	1.867170	0.065367
O11	O	-0.435610	1.579400	-0.490067
O12	O	0.064390	2.079400	0.009933
O13	O	-0.538306	1.438786	-0.232973
O14	O	-0.038306	1.938786	0.267027
O15	O	-0.272421	1.311416	-0.379262
O16	O	0.227579	1.811416	0.120738
O17	O	-0.547290	1.586168	-0.379235
O18	O	-0.047290	2.086168	0.120765
O19	O	-0.279228	1.423085	-0.490083
O20	O	0.220772	1.923085	0.009917
O21	O	-0.419818	1.320348	-0.232985
O22	O	0.080182	1.820348	0.267015
O23	O	-0.428784	1.154984	-0.379221
O24	O	0.071216	1.654984	0.120779
O25	O	-0.563049	1.295510	-0.636271
O26	O	-0.063049	1.795510	-0.136271
O27	O	-0.554065	1.148128	-0.490010
O28	O	-0.054065	1.648128	0.009990
O29	O	-0.444575	1.414036	-0.636303
O30	O	0.055425	1.914036	-0.136303
O31	O	-0.703653	1.429736	-0.379194
O32	O	-0.203653	1.929736	0.120806
O33	O	-0.710447	1.304442	-0.489994
O34	O	-0.210447	1.804442	0.010006
C35	C	-0.491423	1.116557	-0.434613
C36	C	0.008577	1.616557	0.065387
C37	C	-0.491442	1.009342	-0.434625
C38	C	0.008558	1.509342	0.065375
C39	C	-0.491446	0.813046	-0.434649
C40	C	0.008554	1.313046	0.065351
C41	C	-0.491441	0.922279	-0.434633
C42	C	0.008559	1.422279	0.065367
C43	C	-0.742050	1.367101	-0.434607
C44	C	-0.242050	1.867101	0.065393
C45	C	-0.849265	1.367158	-0.434626
C46	C	-0.349265	1.867158	0.065374
C47	C	-1.045564	1.367256	-0.434683
C48	C	-0.545564	1.867256	0.065317
C49	C	-0.936329	1.367199	-0.434654
C50	C	-0.436329	1.867199	0.065346
C51	C	-0.239847	1.367264	-0.434679
C52	C	0.260153	1.867264	0.065321
C53	C	-0.132634	1.367304	-0.434699
C54	C	0.367366	1.867304	0.065301
C55	C	-0.505877	1.352704	-0.669936
C56	C	-0.005877	1.852704	-0.169936
C57	C	-0.512030	1.346540	-0.770207
C58	C	-0.012030	1.846540	-0.270207
C59	C	-0.491452	1.618761	-0.434654
C60	C	0.008548	2.118761	0.065346
C61	C	-0.491459	1.725975	-0.434663
C62	C	0.008541	2.225975	0.065337
C63	C	-0.400204	1.458375	-0.958663
C64	C	0.099796	1.958375	-0.458663
C65	C	-0.405982	1.452586	-1.052878
C66	C	0.094018	1.952586	-0.552878
C67	C	-0.529360	1.329169	-1.052852
C68	C	-0.029360	1.829169	-0.552852
C69	C	-0.523582	1.334958	-0.958638
C70	C	-0.023582	1.834958	-0.458638
C71	C	-0.459002	1.399564	-0.911547
C72	C	0.040998	1.899564	-0.411547
C73	C	-0.453230	1.405357	-0.817331
C74	C	0.046770	1.905357	-0.317331
C75	C	-0.576602	1.281936	-0.817307
C76	C	-0.076602	1.781936	-0.317307
C77	C	-0.582380	1.276147	-0.911521
C78	C	-0.082380	1.776147	-0.411521
C79	C	-0.476984	1.381635	-0.200246
C80	C	0.023016	1.881635	0.299754
C81	C	-0.470559	1.387986	-0.099975
C82	C	0.029441	1.887986	0.400025
H83	H	-0.400647	1.457964	-0.778990
H84	H	0.099353	1.957964	-0.278990
H85	H	-0.347626	1.510984	-0.920321
H86	H	0.152374	2.010984	-0.420321
H87	H	-0.358100	1.500473	-1.091236
H88	H	0.141900	2.000473	-0.591236
Cl89	Cl	-0.610531	1.247950	-1.112067
Cl90	Cl	-0.110531	1.747950	-0.612067
H91	H	-0.634956	1.223545	-0.949875
H92	H	-0.134956	1.723545	-0.449875
H93	H	-0.624482	1.234050	-0.778934
H94	H	-0.124482	1.734050	-0.278934
