data_functionalizedCrystal
_audit_creation_method	'MofGen! by Chris Wilmer'
_symmetry_space_group_name_H-M	'P1'
_symmetry_Int_Tables_number	1
_symmetry_cell_setting	triclinic
loop_
_symmetry_equiv_pos_as_xyz
  x,y,z
_cell_length_a	12.837939
_cell_length_b	9.616153
_cell_length_c	12.837942
_cell_angle_alpha	90.000444
_cell_angle_beta	94.828790
_cell_angle_gamma	90.008200
loop_
_atom_site_label
_atom_site_type_symbol
_atom_site_fract_x
_atom_site_fract_y
_atom_site_fract_z
O1	O	-1.402342	-0.115631	-0.272132
O2	O	-1.099209	-0.115637	-0.258689
O3	O	-1.244054	-0.115626	-0.113844
O4	O	-1.257497	-0.115642	-0.416977
O5	O	-1.244027	0.115666	-0.113847
O6	O	-1.099182	0.115655	-0.258693
O7	O	-1.402315	0.115660	-0.272135
Zn8	Zn	-1.250744	0.152380	-0.265415
Zn9	Zn	-1.250780	-0.152357	-0.265410
O10	O	-1.257470	0.115649	-0.416981
C11	C	-1.060126	0.000008	-0.254150
C12	C	-0.943711	0.000006	-0.240606
N13	N	-1.250727	0.360354	-0.265418
C14	C	-0.718837	0.000019	-0.403436
C15	C	-0.609454	0.000018	-0.390714
C16	C	-0.615562	0.000014	-0.202443
C17	C	-0.724944	0.000014	-0.215164
C18	C	-0.776578	0.000015	-0.315664
C19	C	-0.885962	0.000006	-0.328384
C20	C	-0.892067	0.000011	-0.140114
C21	C	-0.782685	0.000011	-0.127393
C22	C	-1.172954	0.580718	-0.342594
C23	C	-1.173174	0.419551	-0.342927
C24	C	-1.362314	0.418804	-0.300067
C25	C	-1.361899	0.580022	-0.300628
C26	C	-1.217966	0.580271	-0.153418
C27	C	-1.215524	0.419045	-0.153904
C28	C	-0.441398	0.000014	-0.276675
C29	C	-0.557813	0.000013	-0.290222
C30	C	-1.239499	0.000019	-0.074776
C31	C	-1.225954	0.000017	0.041639
N32	N	-1.250780	0.639669	-0.265409
C33	C	-1.262025	0.000001	-0.456048
C34	C	-1.275569	-0.000006	-0.572463
C35	C	-1.388784	-0.000009	0.266513
C36	C	-1.376062	-0.000012	0.375896
C37	C	-1.187791	-0.000001	0.369788
C38	C	-1.200513	0.000002	0.260405
C39	C	-1.301012	-0.000000	0.208772
C40	C	-1.313733	0.000012	0.099388
C41	C	-1.125462	0.000013	0.093282
C42	C	-1.112741	0.000010	0.202664
H43	H	-0.928001	0.000009	-0.410215
H44	H	-0.939092	-0.000001	-0.068643
N45	N	-1.112488	0.371114	-0.121212
N46	N	-1.096997	0.299808	-0.039978
H47	H	-1.024227	0.265951	-0.016890
N48	N	-1.491442	0.000017	0.213781
N49	N	-1.569804	0.000028	0.265349
H50	H	-1.642309	0.000051	0.228109
H51	H	-1.053992	0.000031	0.046257
N52	N	-1.010096	0.000000	0.255427
N53	N	-0.998749	-0.000009	0.353090
H54	H	-0.926254	-0.000015	0.390354
H55	H	-1.389950	0.378410	-0.381204
N56	N	-0.771570	0.000001	-0.506094
N57	N	-0.720002	-0.000008	-0.584455
H58	H	-0.757242	-0.000021	-0.656961
N59	N	-1.200353	0.631528	-0.445965
N60	N	-1.276949	0.710965	-0.463038
H61	H	-1.296304	0.746852	-0.536043
N62	N	-0.562825	0.000012	-0.099787
N63	N	-0.614389	0.000009	-0.021422
H64	H	-0.577145	0.000010	0.051082
H65	H	-1.447536	-0.000023	0.422905
N66	N	-1.200808	0.371157	-0.446916
N67	N	-1.220001	0.456450	-0.519470
H68	H	-1.239502	0.422275	-0.592921
H69	H	-0.740630	0.000026	-0.045569
H70	H	-1.267693	0.378754	-0.092940
N71	N	-1.069462	0.369993	-0.315529
N72	N	-0.996412	0.454475	-0.296014
H73	H	-0.923125	0.419483	-0.276854
H74	H	-0.562446	0.000025	-0.462188
H75	H	-1.274595	0.618392	-0.095852
N76	N	-1.396111	0.627159	-0.403502
N77	N	-1.420125	0.540991	-0.474387
H78	H	-1.444288	0.574273	-0.547045
N79	N	-1.437250	0.370697	-0.231978
N80	N	-1.409184	0.292608	-0.156979
H81	H	-1.462106	0.258630	-0.108888
N82	N	-1.085153	0.000009	0.422564
N83	N	-1.057056	0.097498	0.482933
H84	H	-0.984567	0.097507	0.520212
N85	N	-1.117348	0.631304	-0.115013
N86	N	-1.039326	0.606564	-0.164050
H87	H	-0.968259	0.642600	-0.136938
N88	N	-1.416385	0.000037	0.046641
N89	N	-1.477985	0.097530	0.060906
H90	H	-1.550485	0.097548	0.023656
N91	N	-1.069043	0.629410	-0.314952
N92	N	-1.051130	0.708133	-0.238047
H93	H	-0.977740	0.742529	-0.218520
H94	H	-1.422193	0.619015	-0.247204
