data_functionalizedCrystal
_audit_creation_method	'MofGen! by Chris Wilmer'
_symmetry_space_group_name_H-M	'P1'
_symmetry_Int_Tables_number	1
_symmetry_cell_setting	triclinic
loop_
_symmetry_equiv_pos_as_xyz
  x,y,z
_cell_length_a	10.489741
_cell_length_b	10.489741
_cell_length_c	8.965430
_cell_angle_alpha	89.999293
_cell_angle_beta	89.994167
_cell_angle_gamma	95.460826
loop_
_atom_site_label
_atom_site_type_symbol
_atom_site_fract_x
_atom_site_fract_y
_atom_site_fract_z
O1	O	1.694053	-0.179958	-0.124108
O2	O	1.322858	-0.196851	-0.124096
O3	O	1.516902	-0.002807	-0.124093
O4	O	1.500009	-0.374003	-0.124110
O5	O	1.516886	-0.002820	0.123986
O6	O	1.322841	-0.196864	0.123983
O7	O	1.694037	-0.179971	0.123971
Cu8	Cu	1.508438	-0.188419	0.146629
Cu9	Cu	1.508457	-0.188404	-0.146753
O10	O	1.499993	-0.374016	0.123968
C11	C	1.275318	-0.195582	-0.000055
C12	C	1.133688	-0.191765	-0.000050
C13	C	1.515618	0.044718	-0.000055
C14	C	1.511801	0.186348	-0.000057
C15	C	1.741577	-0.181241	-0.000073
C16	C	1.883206	-0.185058	-0.000088
C17	C	1.951346	-0.308523	-0.000078
C18	C	2.043481	-0.250193	-0.122386
C19	C	2.043431	-0.250176	0.122200
C20	C	1.973476	-0.126677	-0.122497
C21	C	1.973416	-0.126678	0.122199
C22	C	2.065524	-0.068258	-0.000139
C23	C	1.501277	-0.421541	-0.000073
C24	C	1.505094	-0.563170	-0.000081
N25	N	1.508433	-0.188429	0.352978
C26	C	1.388336	0.254488	-0.000064
C27	C	1.446652	0.346604	0.122250
C28	C	1.446697	0.346591	-0.122337
C29	C	1.570167	0.276599	0.122358
C30	C	1.570195	0.276576	-0.122339
C31	C	1.628600	0.368665	0.000005
N32	N	1.508471	-0.188384	-0.353102
C33	C	1.418666	-0.278138	0.450282
C34	C	1.534163	-0.303949	0.549691
C35	C	1.392986	-0.162629	0.549697
C36	C	1.623988	-0.214298	0.450197
C37	C	1.482735	-0.072927	0.450194
C38	C	1.598314	-0.098690	0.549558
H39	H	1.901698	-0.410035	-0.000207
N40	N	2.084454	-0.319407	0.259172
H41	H	2.057736	-0.273693	0.351559
H42	H	2.180597	-0.320743	0.258537
N43	N	1.932666	-0.057524	-0.259626
H44	H	1.836609	-0.055404	-0.258817
H45	H	1.958828	-0.103845	-0.351824
N46	N	1.253876	0.188717	0.000084
H47	H	1.207401	0.214007	0.092570
H48	H	1.257508	0.092854	-0.000917
N49	N	1.377436	0.387677	0.259220
H50	H	1.376092	0.483822	0.258697
H51	H	1.423200	0.360897	0.351530
N52	N	1.753361	-0.243345	0.392560
H53	H	1.811971	-0.256442	0.479466
H54	H	1.791411	-0.169363	0.329716
N55	N	1.377490	0.387628	-0.259316
H56	H	1.437325	0.447901	-0.320613
H57	H	1.300846	0.432606	-0.227991
N58	N	1.639294	0.235784	0.259500
H59	H	1.716463	0.191480	0.228492
H60	H	1.579594	0.174963	0.320279
N61	N	1.318193	-0.378707	0.392546
H62	H	1.337791	-0.465908	0.428746
H63	H	1.318372	-0.377361	0.279906
H64	H	2.074509	-0.302430	-0.225791
N65	N	2.131013	0.066316	-0.000222
H66	H	2.185693	0.079968	0.092170
H67	H	2.064280	0.129653	-0.001200
H68	H	1.942361	-0.074487	0.225614
H69	H	1.460937	0.024699	0.406456
H70	H	1.555925	-0.401606	0.593394
H71	H	1.674327	-0.022803	0.592874
N72	N	1.763176	0.434150	0.000072
H73	H	1.826595	0.367491	0.000988
H74	H	1.776144	0.489999	0.091604
N75	N	1.263642	-0.133752	0.607594
H76	H	1.204654	-0.121481	0.520808
H77	H	1.273724	-0.053034	0.669589
N78	N	1.639355	0.235459	-0.259317
H79	H	1.592647	0.260646	-0.351667
H80	H	1.642137	0.139494	-0.257635
