data_functionalizedCrystal
_audit_creation_method	'MofGen! by Chris Wilmer'
_symmetry_space_group_name_H-M	'P1'
_symmetry_Int_Tables_number	1
_symmetry_cell_setting	triclinic
loop_
_symmetry_equiv_pos_as_xyz
  x,y,z
_cell_length_a	14.519731
_cell_length_b	13.596369
_cell_length_c	15.538191
_cell_angle_alpha	89.998190
_cell_angle_beta	65.480473
_cell_angle_gamma	90.006024
loop_
_atom_site_label
_atom_site_type_symbol
_atom_site_fract_x
_atom_site_fract_y
_atom_site_fract_z
O1	O	1.182318	0.081784	0.123500
O2	O	0.908962	0.081784	0.138012
O3	O	1.098851	0.081788	-0.006279
O4	O	0.992429	0.081779	0.267792
O5	O	1.098831	-0.081795	-0.006271
O6	O	0.908942	-0.081799	0.138020
O7	O	1.182298	-0.081799	0.123508
Zn8	Zn	1.045617	-0.107772	0.130765
Zn9	Zn	1.045643	0.107756	0.130755
O10	O	0.992409	-0.081804	0.267800
C11	C	0.874822	-0.000007	0.137336
C12	C	0.773127	-0.000007	0.135299
C13	C	0.690540	-0.000003	0.133643
C14	C	0.586927	-0.000002	0.131574
C15	C	0.504340	-0.000002	0.129932
C16	C	0.400720	-0.000000	0.127864
N17	N	1.045606	-0.254863	0.130772
C18	C	1.045610	-0.343861	0.130774
C19	C	1.045621	-0.455513	0.130768
C20	C	1.045637	-0.544503	0.130757
C21	C	1.045649	-0.656162	0.130752
C22	C	1.216439	-0.000006	0.124184
C23	C	1.318134	-0.000000	0.126222
C24	C	1.109976	0.000000	-0.041351
C25	C	1.143142	0.000010	-0.145867
N26	N	1.045664	0.254848	0.130741
C27	C	0.813645	-0.000011	-0.434238
C28	C	0.844833	-0.000013	-0.532449
C29	C	1.020257	-0.000013	-0.554582
C30	C	0.989084	-0.000006	-0.456372
C31	C	0.885777	-0.000006	-0.396207
C32	C	1.061216	-0.000001	-0.418340
C33	C	1.030045	0.000001	-0.320138
C34	C	0.926742	-0.000002	-0.259967
C35	C	0.854606	-0.000004	-0.298004
C36	C	1.164523	-0.000008	-0.478507
C37	C	1.236654	-0.000003	-0.440475
C38	C	1.205484	0.000006	-0.342271
C39	C	1.102181	0.000003	-0.282100
C40	C	1.277620	0.000008	-0.304234
C41	C	1.246449	0.000010	-0.206032
C42	C	1.071010	0.000005	-0.183898
C43	C	0.981285	-0.000013	0.302872
C44	C	0.948119	-0.000017	0.407387
H45	H	0.901365	-0.000006	-0.180004
H46	H	0.770483	0.000003	-0.249014
H47	H	0.729522	-0.000004	-0.385247
H48	H	1.320768	-0.000007	-0.489475
H49	H	1.305186	0.000013	-0.175066
H50	H	0.786087	-0.000031	-0.563408
H51	H	0.986887	0.000012	-0.134908
H52	H	1.104370	-0.000017	-0.603582
H53	H	1.361733	-0.000002	-0.353235
H54	H	1.189899	-0.000000	-0.558469
