data_functionalizedCrystal
_audit_creation_method	'MofGen! by Chris Wilmer'
_symmetry_space_group_name_H-M	'P1'
_symmetry_Int_Tables_number	1
_symmetry_cell_setting	triclinic
loop_
_symmetry_equiv_pos_as_xyz
  x,y,z
_cell_length_a	10.654549
_cell_length_b	19.288857
_cell_length_c	9.130313
_cell_angle_alpha	89.993335
_cell_angle_beta	89.997498
_cell_angle_gamma	83.808943
loop_
_atom_site_label
_atom_site_type_symbol
_atom_site_fract_x
_atom_site_fract_y
_atom_site_fract_z
O1	O	1.665747	0.097554	-0.121773
O2	O	1.300069	0.106848	-0.121784
O3	O	1.493479	0.001140	-0.121761
O4	O	1.472336	0.203263	-0.121797
O5	O	1.493466	0.001136	0.121838
O6	O	1.300056	0.106845	0.121814
O7	O	1.665734	0.097551	0.121825
Cu8	Cu	1.482893	0.102198	0.144062
Cu9	Cu	1.482909	0.102201	-0.144021
O10	O	1.472323	0.203259	0.121802
C11	C	1.253279	0.106164	0.000014
C12	C	1.113879	0.104123	0.000010
C13	C	0.902070	0.164439	0.000005
C14	C	1.033050	0.166362	-0.000004
C15	C	1.063724	0.039955	0.000018
C16	C	0.932747	0.038032	0.000017
C17	C	1.492794	-0.024743	0.000040
C18	C	1.490756	-0.101860	0.000044
C19	C	1.489813	-0.138075	-0.132742
C20	C	1.487881	-0.210534	-0.132753
C21	C	1.486917	-0.246776	0.000030
C22	C	1.487854	-0.210552	0.132833
C23	C	1.489774	-0.138094	0.132840
C24	C	1.557425	-0.366548	0.101751
C25	C	1.555513	-0.439005	0.101738
C26	C	1.480991	-0.470261	0.000013
C27	C	1.408398	-0.429052	-0.101725
C28	C	1.410317	-0.356594	-0.101718
C29	C	1.484835	-0.325345	0.000037
C30	C	1.477951	-0.585044	-0.132794
C31	C	1.476011	-0.657504	-0.132800
C32	C	1.475997	-0.657521	0.132790
C33	C	1.477924	-0.585062	0.132792
C34	C	1.478907	-0.548828	-0.000004
C35	C	1.712523	0.098235	0.000024
C36	C	1.851923	0.100276	0.000018
C37	C	1.473008	0.229142	-0.000002
C38	C	1.475046	0.306259	-0.000016
N39	N	1.482892	0.102195	0.346685
N40	N	1.482921	0.102199	-0.346644
C41	C	1.568562	0.055407	0.423347
C42	C	1.568574	0.055407	0.576684
C43	C	1.397241	0.148989	0.576683
C44	C	1.397224	0.148985	0.423349
H45	H	0.836267	0.215122	0.000005
H46	H	1.475203	-0.687028	0.240905
Br47	Br	1.311800	-0.300669	-0.239778
H48	H	1.478703	-0.555576	0.240921
Br49	Br	1.280939	0.212482	0.319295
H50	H	1.638316	0.017306	0.360931
H51	H	1.073873	0.218610	-0.000015
H52	H	1.347715	-0.454499	-0.184560
Br53	Br	1.479278	-0.535865	-0.313012
H54	H	1.618108	-0.341105	0.184600
Br55	Br	0.864682	-0.049052	0.000007
Br56	Br	1.684840	-0.008097	0.680723
Br57	Br	1.173420	-0.044514	0.000029
H58	H	1.487066	-0.240065	0.240945
H59	H	1.327494	0.187086	0.639118
H60	H	1.490609	-0.108578	-0.240875
Br61	Br	1.486595	-0.259694	-0.312975
H62	H	1.475236	-0.686988	-0.240934
H63	H	1.614628	-0.472552	0.184574
H64	H	1.490537	-0.108608	0.240974
