data_functionalizedCrystal
_audit_creation_method	'MofGen! by Chris Wilmer'
_symmetry_space_group_name_H-M	'P1'
_symmetry_Int_Tables_number	1
_symmetry_cell_setting	triclinic
loop_
_symmetry_equiv_pos_as_xyz
  x,y,z
_cell_length_a	14.519731
_cell_length_b	17.019294
_cell_length_c	12.996460
_cell_angle_alpha	86.114884
_cell_angle_beta	89.994327
_cell_angle_gamma	83.541199
loop_
_atom_site_label
_atom_site_type_symbol
_atom_site_fract_x
_atom_site_fract_y
_atom_site_fract_z
O1	O	1.223521	0.103487	-0.094737
O2	O	1.556855	0.436821	0.238596
O3	O	1.890188	0.770154	0.571930
O4	O	0.955008	0.115647	-0.095816
O5	O	1.288341	0.448980	0.237518
O6	O	1.621674	0.782314	0.570851
O7	O	1.096755	-0.005255	-0.085098
O8	O	1.430088	0.328079	0.248236
O9	O	1.763421	0.661412	0.581569
O10	O	1.081774	0.224389	-0.105455
O11	O	1.415107	0.557722	0.227878
O12	O	1.748441	0.891056	0.561212
O13	O	1.096740	-0.005262	0.086037
O14	O	1.430073	0.328072	0.419370
O15	O	1.763407	0.661405	0.752704
O16	O	0.954993	0.115640	0.075319
O17	O	1.288326	0.448974	0.408652
O18	O	1.621659	0.782307	0.741985
O19	O	1.223506	0.103480	0.076398
O20	O	1.556840	0.436814	0.409731
O21	O	1.890173	0.770147	0.743064
Cu22	Cu	1.089248	0.109560	0.091484
Cu23	Cu	1.422582	0.442893	0.424817
Cu24	Cu	1.755915	0.776226	0.758151
Cu25	Cu	1.089266	0.109568	-0.110902
Cu26	Cu	1.422599	0.442901	0.222431
Cu27	Cu	1.755932	0.776234	0.555764
O28	O	1.081759	0.224382	0.065679
O29	O	1.415093	0.557716	0.399013
O30	O	1.748426	0.891049	0.732346
C31	C	0.920643	0.115074	-0.010198
C32	C	1.253976	0.448407	0.323135
C33	C	1.587309	0.781741	0.656469
C34	C	0.818268	0.113367	-0.010047
C35	C	1.151601	0.446700	0.323286
C36	C	1.484935	0.780033	0.656619
C37	C	0.735128	0.111979	-0.009929
C38	C	1.068462	0.445313	0.323405
C39	C	1.401795	0.778646	0.656738
C40	C	0.630825	0.110246	-0.009775
C41	C	0.964158	0.443579	0.323558
C42	C	1.297492	0.776912	0.656891
C43	C	0.547691	0.108870	-0.009653
C44	C	0.881024	0.442203	0.323680
C45	C	1.214357	0.775537	0.657013
C46	C	0.443381	0.107137	-0.009502
C47	C	0.776714	0.440470	0.323832
C48	C	1.110047	0.773803	0.657165
C49	C	1.096179	-0.034648	0.003073
C50	C	1.429513	0.298685	0.336406
C51	C	1.762846	0.632018	0.669740
C52	C	1.094475	-0.122221	0.010829
C53	C	1.427808	0.211112	0.344163
C54	C	1.761142	0.544445	0.677496
C55	C	1.093684	-0.163355	-0.078811
C56	C	1.427018	0.169978	0.254522
C57	C	1.760351	0.503311	0.587856
C58	C	1.092077	-0.245639	-0.071520
C59	C	1.425410	0.087695	0.261814
C60	C	1.758744	0.421028	0.595147
C61	C	1.091267	-0.286788	0.025413
C62	C	1.424600	0.046546	0.358747
C63	C	1.757934	0.379879	0.692080
C64	C	1.092055	-0.245648	0.115060
C65	C	1.425388	0.087686	0.448394
C66	C	1.758721	0.421019	0.781727
C67	C	1.093655	-0.163365	0.107768
C68	C	1.426989	0.169968	0.441101
C69	C	1.760322	0.503302	0.774435
C70	C	1.086428	-0.535228	0.052098
C71	C	1.419761	-0.201895	0.385432
C72	C	1.753094	0.131438	0.718765
C73	C	1.084830	-0.617517	0.059384
C74	C	1.418163	-0.284184	0.392717
C75	C	1.751496	0.049149	0.726051
C76	C	1.084850	-0.617502	-0.127197
C77	C	1.418184	-0.284169	0.206136
C78	C	1.751517	0.049164	0.539469
C79	C	1.086457	-0.535219	-0.134481
C80	C	1.419790	-0.201885	0.198852
C81	C	1.753123	0.131448	0.532186
C82	C	1.087239	-0.494085	-0.044834
C83	C	1.420573	-0.160752	0.288500
C84	C	1.753906	0.172581	0.621833
C85	C	1.089627	-0.370895	0.032868
C86	C	1.422960	-0.037562	0.366202
C87	C	1.756294	0.295772	0.699535
C88	C	1.088873	-0.409979	-0.052290
C89	C	1.422206	-0.076645	0.281043
C90	C	1.755539	0.256688	0.614377
C91	C	1.257871	0.104054	-0.009222
C92	C	1.591205	0.437387	0.324111
C93	C	1.924538	0.770720	0.657444
C94	C	1.360246	0.105761	-0.009380
C95	C	1.693579	0.439094	0.323954
C96	C	2.026913	0.772428	0.657287
C97	C	1.082335	0.253776	-0.022493
C98	C	1.415668	0.587109	0.310840
C99	C	1.749001	0.920442	0.644173
C100	C	1.084039	0.341349	-0.030257
C101	C	1.417372	0.674682	0.303077
C102	C	1.750706	1.008016	0.636410
N103	N	1.089243	0.109554	0.233832
N104	N	1.422576	0.442887	0.567165
N105	N	1.755909	0.776220	0.900498
N106	N	1.089279	0.109568	-0.253249
N107	N	1.422612	0.442901	0.080084
N108	N	1.755945	0.776234	0.413417
C109	C	1.089264	0.109569	0.653645
C110	C	1.422598	0.442902	0.986978
C111	C	1.755931	0.776235	1.320311
C112	C	1.089256	0.109567	0.536840
C113	C	1.422589	0.442900	0.870173
C114	C	1.755922	0.776234	1.203506
C115	C	1.089254	0.109562	0.443742
C116	C	1.422587	0.442895	0.777075
C117	C	1.755921	0.776228	1.110409
C118	C	1.089244	0.109559	0.326930
C119	C	1.422578	0.442892	0.660263
C120	C	1.755911	0.776226	0.993596
H121	H	1.094349	-0.129858	-0.157744
H122	H	1.427682	0.203475	0.175589
H123	H	1.761016	0.536808	0.508922
H124	H	1.094286	-0.129873	0.180763
H125	H	1.427619	0.203460	0.514096
H126	H	1.760953	0.536793	0.847430
Cl127	Cl	1.083864	-0.669217	-0.239889
Cl128	Cl	1.417197	-0.335884	0.093444
Cl129	Cl	1.750531	-0.002551	0.426778
H130	H	1.087117	-0.501721	-0.213414
H131	H	1.420451	-0.168388	0.119919
H132	H	1.753784	0.164946	0.453253
Cl133	Cl	1.088604	-0.422631	0.154724
Cl134	Cl	1.421937	-0.089298	0.488057
Cl135	Cl	1.755271	0.244035	0.821390
H136	H	1.089526	-0.376471	-0.131212
H137	H	1.422859	-0.043138	0.202121
H138	H	1.756193	0.290196	0.535454
H139	H	1.084165	-0.651018	0.138322
H140	H	1.417499	-0.317685	0.471656
H141	H	1.750832	0.015649	0.804989
Cl142	Cl	1.091025	-0.297377	0.236920
Cl143	Cl	1.424358	0.035957	0.570253
Cl144	Cl	1.757692	0.369290	0.903587
Cl145	Cl	1.091085	-0.297347	-0.184217
Cl146	Cl	1.424418	0.035987	0.149117
Cl147	Cl	1.757752	0.369320	0.482450
Cl148	Cl	1.087397	-0.483527	0.164799
Cl149	Cl	1.420731	-0.150194	0.498132
Cl150	Cl	1.754064	0.183140	0.831466
