data_functionalizedCrystal
_audit_creation_method	'MofGen! by Chris Wilmer'
_symmetry_space_group_name_H-M	'P1'
_symmetry_Int_Tables_number	1
_symmetry_cell_setting	triclinic
loop_
_symmetry_equiv_pos_as_xyz
  x,y,z
_cell_length_a	12.759401
_cell_length_b	12.759400
_cell_length_c	19.077569
_cell_angle_alpha	87.678929
_cell_angle_beta	87.687211
_cell_angle_gamma	90.013799
loop_
_atom_site_label
_atom_site_type_symbol
_atom_site_fract_x
_atom_site_fract_y
_atom_site_fract_z
Zn1	Zn	1.630068	-0.394454	-0.397938
Zn2	Zn	2.130068	0.105546	0.102062
Zn3	Zn	1.622920	-0.577204	-0.280248
Zn4	Zn	2.122920	-0.077204	0.219752
Zn5	Zn	1.447328	-0.401537	-0.280258
Zn6	Zn	1.947328	0.098463	0.219742
Zn7	Zn	1.454357	-0.570091	-0.397910
Zn8	Zn	1.954357	-0.070091	0.102090
O9	O	1.538668	-0.485821	-0.339088
O10	O	2.038668	0.014179	0.160912
O11	O	1.776141	-0.418709	-0.382333
O12	O	2.276141	0.081291	0.117667
O13	O	1.593694	-0.559843	-0.181758
O14	O	2.093694	-0.059843	0.318242
O15	O	1.471619	-0.253575	-0.295885
O16	O	1.971619	0.246425	0.204115
O17	O	1.770889	-0.552975	-0.295867
O18	O	2.270889	-0.052975	0.204133
O19	O	1.605877	-0.248372	-0.382343
O20	O	2.105877	0.251628	0.117657
O21	O	1.464687	-0.430781	-0.181765
O22	O	1.964687	0.069219	0.318235
O23	O	1.301239	-0.423883	-0.295857
O24	O	1.801239	0.076117	0.204143
O25	O	1.483598	-0.540851	-0.496405
O26	O	1.983598	-0.040851	0.003595
O27	O	1.306403	-0.547718	-0.382295
O28	O	1.806403	-0.047718	0.117705
O29	O	1.612692	-0.411811	-0.496425
O30	O	2.112692	0.088189	0.003575
O31	O	1.600510	-0.723283	-0.295840
O32	O	2.100510	-0.223283	0.204160
O33	O	1.476667	-0.718056	-0.382285
O34	O	1.976667	-0.218056	0.117715
C35	C	1.265700	-0.485798	-0.339075
C36	C	1.765700	0.014202	0.160925
C37	C	1.148924	-0.485812	-0.339086
C38	C	1.648924	0.014188	0.160914
C39	C	1.091347	-0.421238	-0.294160
C40	C	1.591347	0.078762	0.205840
C41	C	0.981624	-0.421262	-0.294169
C42	C	1.481624	0.078738	0.205831
C43	C	0.987064	-0.550438	-0.384035
C44	C	1.487064	-0.050438	0.115965
C45	C	1.096785	-0.550419	-0.384022
C46	C	1.596785	-0.050419	0.115978
C47	C	1.143486	-0.356631	-0.249224
C48	C	1.643486	0.143369	0.250776
C49	C	1.085909	-0.292050	-0.204295
C50	C	1.585909	0.207950	0.295705
C51	C	0.976185	-0.292075	-0.204304
C52	C	1.476185	0.207925	0.295696
C53	C	0.924039	-0.356680	-0.249242
C54	C	1.424039	0.143320	0.250758
C55	C	1.538605	-0.758790	-0.339074
C56	C	2.038605	-0.258790	0.160926
C57	C	1.538675	-0.875565	-0.339091
C58	C	2.038675	-0.375565	0.160909
C59	C	1.603238	-0.933111	-0.294128
C60	C	2.103238	-0.433111	0.205872
C61	C	1.603303	-1.042834	-0.294150
C62	C	2.103303	-0.542834	0.205850
C63	C	1.474236	-1.037455	-0.384099
C64	C	1.974236	-0.537455	0.115901
C65	C	1.474176	-0.927734	-0.384080
C66	C	1.974176	-0.427734	0.115920
C67	C	1.667737	-0.880942	-0.249139
C68	C	2.167737	-0.380942	0.250861
C69	C	1.732303	-0.938488	-0.204172
C70	C	2.232303	-0.438488	0.295828
C71	C	1.732369	-1.048210	-0.204194
C72	C	2.232369	-0.548210	0.295806
C73	C	1.667868	-1.100387	-0.249183
C74	C	2.167868	-0.600387	0.250817
C75	C	1.812702	-0.485846	-0.339102
C76	C	2.312702	0.014154	0.160898
C77	C	1.929479	-0.485856	-0.339108
C78	C	2.429479	0.014144	0.160892
C79	C	1.549727	-0.474747	-0.522667
C80	C	2.049727	0.025253	-0.022667
C81	C	1.554439	-0.470028	-0.600897
C82	C	2.054439	0.029972	-0.100897
C83	C	1.538761	-0.211786	-0.339118
C84	C	2.038761	0.288214	0.160882
C85	C	1.538801	-0.095009	-0.339131
C86	C	2.038801	0.404991	0.160869
C87	C	1.489442	-0.534990	-0.637640
C88	C	1.989442	-0.034990	-0.137640
C89	C	1.493879	-0.530556	-0.711146
C90	C	1.993879	-0.030556	-0.211146
C91	C	1.563308	-0.461154	-0.747907
C92	C	2.063308	0.038846	-0.247907
C93	C	1.628312	-0.396190	-0.711158
C94	C	2.128312	0.103810	-0.211158
C95	C	1.623880	-0.400630	-0.637654
C96	C	2.123880	0.099370	-0.137654
C97	C	1.583776	-0.440675	-0.967742
C98	C	2.083776	0.059325	-0.467742
C99	C	1.588201	-0.436238	-1.041251
C100	C	2.088201	0.063762	-0.541251
C101	C	1.453768	-0.570606	-1.041233
C102	C	1.953768	-0.070606	-0.541233
C103	C	1.449338	-0.575036	-0.967728
C104	C	1.949338	-0.075036	-0.467728
C105	C	1.514346	-0.510075	-0.930986
C106	C	2.014346	-0.010075	-0.430986
N107	N	1.567843	-0.456618	-0.823041
N108	N	2.067843	0.043382	-0.323041
N109	N	1.509816	-0.514618	-0.855853
N110	N	2.009816	-0.014618	-0.355853
C111	C	1.527713	-0.496777	-0.156224
C112	C	2.027713	0.003223	0.343776
C113	C	1.523204	-0.501200	-0.077994
C114	C	2.023204	-0.001200	0.422006
H115	H	0.944597	-0.603035	-0.420622
H116	H	1.444597	-0.103035	0.079378
H117	H	1.784824	-0.895999	-0.167548
H118	H	2.284824	-0.395999	0.332452
F119	F	0.807259	-0.356716	-0.249240
F120	F	1.307259	0.143284	0.250760
F121	F	1.158066	-0.619148	-0.431836
F122	F	1.658066	-0.119148	0.068164
F123	F	1.405593	-1.092989	-0.431974
F124	F	1.905593	-0.592989	0.068026
F125	F	1.652960	-0.371535	-0.928648
F126	F	2.152960	0.128465	-0.428648
H127	H	1.421605	-0.880880	-0.420693
H128	H	1.921605	-0.380880	0.079307
H129	H	1.432893	-0.591492	-0.607714
H130	H	1.932893	-0.091492	-0.107714
H131	H	1.667687	-0.791600	-0.249114
H132	H	2.167687	-0.291600	0.250886
F133	F	1.801094	-1.109452	-0.156343
F134	F	2.301094	-0.609452	0.343657
H135	H	1.667936	-1.189731	-0.249202
H136	H	2.167936	-0.689731	0.250798
H137	H	1.440953	-0.583456	-0.741058
H138	H	1.940953	-0.083456	-0.241058
F139	F	1.375437	-0.648898	-0.928609
F140	F	1.875437	-0.148898	-0.428609
H141	H	1.128373	-0.239458	-0.167705
H142	H	1.628373	0.260542	0.332295
F143	F	1.384590	-0.639740	-1.080342
F144	F	1.884590	-0.139740	-0.580342
F145	F	1.662064	-0.362332	-1.080374
F146	F	2.162064	0.137668	-0.580374
F147	F	1.702210	-0.322332	-0.750284
F148	F	2.202210	0.177668	-0.250284
H149	H	1.676808	-0.347731	-0.607739
H150	H	2.176808	0.152269	-0.107739
H151	H	1.232828	-0.356601	-0.249213
H152	H	1.732828	0.143399	0.250787
F153	F	0.914910	-0.223351	-0.156484
F154	F	1.414910	0.276649	0.343516
