data_functionalizedCrystal
_audit_creation_method	'MofGen! by Chris Wilmer'
_symmetry_space_group_name_H-M	'P1'
_symmetry_Int_Tables_number	1
_symmetry_cell_setting	triclinic
loop_
_symmetry_equiv_pos_as_xyz
  x,y,z
_cell_length_a	27.732048
_cell_length_b	11.792241
_cell_length_c	10.268362
_cell_angle_alpha	90.005428
_cell_angle_beta	90.000911
_cell_angle_gamma	96.581965
loop_
_atom_site_label
_atom_site_type_symbol
_atom_site_fract_x
_atom_site_fract_y
_atom_site_fract_z
O1	O	0.641711	-0.135041	-0.108133
O2	O	1.141711	0.364959	0.391867
O3	O	0.501036	-0.155574	-0.108173
O4	O	1.001036	0.344426	0.391827
O5	O	0.574787	0.019972	-0.108143
O6	O	1.074787	0.519972	0.391857
O7	O	0.567960	-0.310587	-0.108163
O8	O	1.067960	0.189413	0.391837
O9	O	0.574781	0.019979	0.108458
O10	O	1.074781	0.519979	0.608458
O11	O	0.501030	-0.155567	0.108428
O12	O	1.001030	0.344433	0.608428
O13	O	0.641704	-0.135034	0.108467
O14	O	1.141704	0.364966	0.608467
Cu15	Cu	0.571366	-0.145300	0.128225
Cu16	Cu	1.071366	0.354700	0.628225
Cu17	Cu	0.571374	-0.145308	-0.127930
Cu18	Cu	1.071374	0.354692	0.372070
O19	O	0.567953	-0.310580	0.108438
O20	O	1.067953	0.189420	0.608438
C21	C	0.483024	-0.155140	0.000123
C22	C	0.983024	0.344860	0.500123
C23	C	0.429361	-0.153842	0.000108
C24	C	0.929361	0.346158	0.500108
C25	C	0.574355	0.062253	0.000157
C26	C	1.074355	0.562253	0.500157
C27	C	0.573071	0.188226	0.000155
C28	C	1.073071	0.688226	0.500155
N29	N	0.571365	-0.145293	0.308391
N30	N	1.071365	0.354707	0.808391
C31	C	0.091101	-0.249407	0.000158
C32	C	0.591101	0.250593	0.500158
C33	C	-0.110587	-0.244592	0.000170
C34	C	0.389413	0.255408	0.500170
O35	O	-0.141335	-0.331980	0.000221
O36	O	0.358665	0.168020	0.500221
N37	N	-0.130315	-0.140500	0.000174
N38	N	0.369685	0.359500	0.500174
C39	C	-0.099617	-0.037605	0.000184
C40	C	0.400383	0.462395	0.500184
O41	O	-0.121024	0.051042	0.000201
O42	O	0.378976	0.551042	0.500201
C43	C	0.102070	-0.042422	0.000181
C44	C	0.602070	0.457578	0.500181
C45	C	0.121794	-0.146520	0.000164
C46	C	0.621794	0.353480	0.500164
C47	C	0.110826	-0.353497	0.000143
C48	C	0.610826	0.146503	0.500143
C49	C	0.161245	-0.354700	0.000133
C50	C	0.661245	0.145300	0.500133
C51	C	0.191939	-0.251813	0.000138
C52	C	0.691939	0.248187	0.500138
C53	C	0.172213	-0.147723	0.000154
C54	C	0.672213	0.352277	0.500154
C55	C	0.132766	0.060472	0.000200
C56	C	0.632766	0.560472	0.500200
C57	C	0.183191	0.059259	0.000203
C58	C	0.683191	0.559259	0.500203
C59	C	0.202915	-0.044840	0.000186
C60	C	0.702915	0.455160	0.500186
C61	C	0.253326	-0.046038	0.000150
C62	C	0.753326	0.453962	0.500150
N63	N	0.273054	-0.150130	0.000146
N64	N	0.773054	0.349870	0.500146
C65	C	0.242360	-0.253017	0.000140
C66	C	0.742360	0.246983	0.500140
C67	C	-0.205506	-0.035084	0.000183
C68	C	0.294494	0.464916	0.500183
C69	C	-0.255927	-0.033879	0.000181
C70	C	0.244073	0.466121	0.500181
C71	C	-0.266894	-0.240866	0.000170
C72	C	0.233106	0.259134	0.500170
C73	C	-0.216471	-0.242070	0.000162
C74	C	0.283529	0.257930	0.500162
C75	C	-0.185778	-0.139175	0.000179
C76	C	0.314222	0.360825	0.500179
C77	C	0.348244	-0.255535	0.000118
C78	C	0.848244	0.244465	0.500118
C79	C	0.398668	-0.256729	0.000102
C80	C	0.898668	0.243271	0.500102
C81	C	0.409630	-0.049742	0.000120
C82	C	0.909630	0.450258	0.500120
C83	C	0.359210	-0.048548	0.000129
C84	C	0.859210	0.451452	0.500129
C85	C	0.328518	-0.151454	0.000132
C86	C	0.828518	0.348546	0.500132
O87	O	0.284103	0.041303	0.000113
O88	O	0.784103	0.541303	0.500113
O89	O	0.263777	-0.341651	0.000152
O90	O	0.763777	0.158349	0.500152
C91	C	0.040682	-0.248205	0.000169
C92	C	0.540682	0.251795	0.500169
C93	C	0.020957	-0.144115	0.000184
C94	C	0.520957	0.355885	0.500184
C95	C	0.051650	-0.041227	0.000190
C96	C	0.551650	0.458773	0.500190
C97	C	-0.029465	-0.142910	0.000183
C98	C	0.470535	0.357090	0.500183
C99	C	-0.060159	-0.245797	0.000177
C100	C	0.439841	0.254203	0.500177
C101	C	-0.040431	-0.349889	0.000173
C102	C	0.459569	0.150111	0.500173
C103	C	0.009988	-0.351092	0.000163
C104	C	0.509988	0.148908	0.500163
C105	C	0.031923	0.062864	0.000194
C106	C	0.531923	0.562864	0.500194
C107	C	-0.018497	0.064058	0.000203
C108	C	0.481503	0.564058	0.500203
C109	C	-0.049191	-0.038829	0.000197
C110	C	0.450809	0.461171	0.500197
C111	C	0.659717	-0.135469	0.000169
C112	C	1.159717	0.364531	0.500169
C113	C	0.713379	-0.136766	0.000175
C114	C	1.213379	0.363234	0.500175
C115	C	0.568385	-0.352861	0.000135
C116	C	1.068385	0.147139	0.500135
C117	C	0.569669	-0.478834	0.000128
C118	C	1.069669	0.021166	0.500128
C119	C	0.570711	0.418862	0.000133
C120	C	1.070711	0.918862	0.500133
C121	C	0.572023	0.290519	0.000145
C122	C	1.072023	0.790519	0.500145
N123	N	0.571380	-0.145306	-0.308096
N124	N	1.071380	0.354694	0.191904
C125	C	0.571372	-0.145306	0.574062
C126	C	1.071372	0.354694	1.074062
C127	C	0.571366	-0.145302	0.426224
C128	C	1.071366	0.354698	0.926224
H129	H	0.414724	-0.341502	0.000087
H130	H	0.914724	0.158498	0.500087
C131	C	-0.277618	0.080637	0.000191
C132	C	0.222382	0.580637	0.500191
N133	N	-0.293954	0.166895	0.000210
N134	N	0.206046	0.666895	0.500210
C135	C	0.216951	0.172454	0.000216
C136	C	0.716951	0.672454	0.500216
N137	N	0.242378	0.257713	0.000220
N138	N	0.742378	0.757713	0.500220
H139	H	-0.291893	-0.324641	0.000166
H140	H	0.208107	0.175359	0.500166
C141	C	-0.194779	-0.356585	0.000158
C142	C	0.305221	0.143415	0.500158
N143	N	-0.178443	-0.442842	0.000160
N144	N	0.321557	0.057158	0.500160
C145	C	0.337513	0.065965	0.000131
C146	C	0.837513	0.565965	0.500131
N147	N	0.321173	0.152218	0.000144
N148	N	0.821173	0.652218	0.500144
H149	H	0.323260	-0.339331	0.000124
H150	H	0.823260	0.160669	0.500124
H151	H	0.177300	-0.439467	0.000118
H152	H	0.677300	0.060533	0.500118
C153	C	-0.171749	0.078116	0.000191
C154	C	0.328251	0.578116	0.500191
N155	N	-0.146325	0.163380	0.000190
N156	N	0.353675	0.663380	0.500190
H157	H	0.116716	0.145240	0.000215
H158	H	0.616716	0.645240	0.500215
H159	H	0.085840	-0.437285	0.000143
H160	H	0.585840	0.062715	0.500143
C161	C	0.443402	0.063428	0.000142
C162	C	0.943402	0.563428	0.500142
N163	N	0.468841	0.148669	0.000172
N164	N	0.968841	0.648669	0.500172
C165	C	0.031678	-0.465609	0.000160
C166	C	0.531678	0.034391	0.500160
N167	N	0.048012	-0.551870	0.000163
N168	N	0.548012	-0.051870	0.500163
C169	C	-0.074204	-0.463065	0.000171
C170	C	0.425796	0.036935	0.500171
N171	N	-0.099644	-0.548304	0.000179
N172	N	0.400356	-0.048304	0.500179
H173	H	-0.034551	0.148834	0.000206
H174	H	0.465449	0.648834	0.500206
H175	H	0.056909	0.146649	0.000202
H176	H	0.556909	0.646649	0.500202
