data_functionalizedCrystal
_audit_creation_method	'MofGen! by Chris Wilmer'
_symmetry_space_group_name_H-M	'P1'
_symmetry_Int_Tables_number	1
_symmetry_cell_setting	triclinic
loop_
_symmetry_equiv_pos_as_xyz
  x,y,z
_cell_length_a	13.897449
_cell_length_b	16.625546
_cell_length_c	13.897441
_cell_angle_alpha	90.033447
_cell_angle_beta	90.020733
_cell_angle_gamma	90.023748
loop_
_atom_site_label
_atom_site_type_symbol
_atom_site_fract_x
_atom_site_fract_y
_atom_site_fract_z
Zn1	Zn	1.474671	-0.320948	0.545362
Zn2	Zn	1.474551	-0.455799	0.384055
Zn3	Zn	1.313360	-0.320987	0.384080
Zn4	Zn	1.313328	-0.455746	0.545308
O5	O	1.393977	-0.388370	0.464702
O6	O	1.609636	-0.338843	0.523977
O7	O	1.453132	-0.437954	0.249077
O8	O	1.334821	-0.208149	0.405508
O9	O	1.609549	-0.437917	0.405465
O10	O	1.453336	-0.208121	0.524001
O11	O	1.334705	-0.338908	0.249095
O12	O	1.178374	-0.338857	0.405455
O13	O	1.334767	-0.437826	0.680297
O14	O	1.178351	-0.437864	0.523909
O15	O	1.453305	-0.338791	0.680337
O16	O	1.453101	-0.568624	0.405413
O17	O	1.334651	-0.568585	0.523884
C18	C	1.143363	-0.388359	0.464680
C19	C	1.036149	-0.388374	0.464693
C20	C	0.839854	-0.388377	0.464718
C21	C	0.949086	-0.388373	0.464702
C22	C	1.393886	-0.597861	0.464661
C23	C	1.393935	-0.687482	0.464676
C24	C	1.394104	-1.015657	0.464777
C25	C	1.394054	-0.924349	0.464751
C26	C	1.394019	-0.851573	0.464726
C27	C	1.393970	-0.760258	0.464702
C28	C	1.645570	-0.388381	0.464724
C29	C	1.752784	-0.388386	0.464734
C30	C	1.394046	-0.388299	0.716295
C31	C	1.394075	-0.388268	0.823509
C32	C	1.394095	-0.178061	0.464763
C33	C	1.394146	-0.088440	0.464789
C34	C	1.393965	-0.388383	0.214087
C35	C	1.394122	-0.388186	0.106874
C36	C	1.394101	-0.388214	1.019804
C37	C	1.394084	-0.388246	0.910571
