data_functionalizedCrystal
_audit_creation_method	'MofGen! by Chris Wilmer'
_symmetry_space_group_name_H-M	'P1'
_symmetry_Int_Tables_number	1
_symmetry_cell_setting	triclinic
loop_
_symmetry_equiv_pos_as_xyz
  x,y,z
_cell_length_a	18.101398
_cell_length_b	18.101396
_cell_length_c	10.685884
_cell_angle_alpha	85.614225
_cell_angle_beta	85.628900
_cell_angle_gamma	89.964825
loop_
_atom_site_label
_atom_site_type_symbol
_atom_site_fract_x
_atom_site_fract_y
_atom_site_fract_z
Zn1	Zn	1.099910	0.262879	0.713346
Zn2	Zn	1.109312	0.396189	0.502339
Zn3	Zn	0.985586	0.272361	0.502373
Zn4	Zn	0.976009	0.386681	0.713300
O5	O	1.042704	0.329528	0.607839
O6	O	1.204790	0.280574	0.685360
O7	O	1.100842	0.387711	0.325763
O8	O	1.000825	0.167469	0.530391
O9	O	1.211697	0.378516	0.530335
O10	O	1.084818	0.160502	0.685393
O11	O	1.009942	0.296734	0.325787
O12	O	0.880683	0.287515	0.530347
O13	O	0.984501	0.362311	0.889887
O14	O	0.873647	0.371505	0.685315
O15	O	1.075531	0.271354	0.889921
O16	O	1.091555	0.498562	0.530291
O17	O	0.993618	0.491577	0.685283
C18	C	0.850294	0.329508	0.607831
C19	C	0.767979	0.329515	0.607857
C20	C	0.617270	0.329529	0.607855
C21	C	0.581521	0.382469	0.705205
C22	C	0.495916	0.382714	0.704917
C23	C	0.468888	0.329543	0.607855
C24	C	0.505945	0.356341	0.474710
C25	C	0.591564	0.356724	0.475273
C26	C	0.584195	0.249702	0.642487
C27	C	0.498412	0.249999	0.645419
C28	C	0.385029	0.329550	0.607847
C29	C	0.701130	0.329525	0.607854
C30	C	1.042587	0.521940	0.607806
C31	C	1.042602	0.604252	0.607834
C32	C	1.042731	0.903340	0.607907
C33	C	0.981236	0.867640	0.705666
C34	C	0.980988	0.782036	0.705358
C35	C	1.042667	0.754959	0.607872
C36	C	1.027534	0.792073	0.474886
C37	C	1.027130	0.877692	0.475473
C38	C	1.119539	0.870159	0.641964
C39	C	1.118956	0.784377	0.644878
C40	C	1.042632	0.671101	0.607844
C41	C	1.042764	0.987199	0.607927
C42	C	1.235866	0.329548	0.607849
C43	C	1.318179	0.329557	0.607853
C44	C	1.027899	0.314714	0.936970
C45	C	1.021590	0.308402	1.077225
C46	C	1.042815	1.136363	0.607905
C47	C	1.042795	1.054047	0.607946
C48	C	1.057446	0.344298	1.279990
C49	C	1.063755	0.350605	1.139734
H50	H	0.470469	0.365295	0.803626
H51	H	0.607675	0.210189	0.571589
H52	H	1.134501	0.887433	0.737284
H53	H	0.604027	0.441159	0.682507
H54	H	0.980668	0.267442	1.131009
Cl55	Cl	0.942101	0.761094	0.429542
H56	H	1.104686	0.391562	1.085944
Cl57	Cl	0.994529	0.742684	0.857603
Cl58	Cl	0.892907	0.752057	0.670535
Cl59	Cl	0.606486	0.355809	0.858077
H60	H	0.476424	0.441750	0.681941
H61	H	0.612821	0.415244	0.446002
H62	H	0.615692	0.320133	0.400251
Cl63	Cl	1.136746	0.746164	0.795983
H64	H	0.488964	0.319224	0.400184
Cl65	Cl	1.094923	0.765808	0.359358
H66	H	0.485803	0.414260	0.444941
H67	H	0.601517	0.226393	0.737940
H68	H	1.166719	0.765927	0.578865
Cl69	Cl	0.469977	0.185142	0.544026
Cl70	Cl	0.994544	0.892518	0.858408
Cl71	Cl	0.893676	0.902521	0.671305
Cl72	Cl	0.460261	0.218954	0.796705
Cl73	Cl	0.940720	0.910635	0.430933
H74	H	1.070303	0.901788	0.400152
H75	H	1.165281	0.893603	0.570762
