data_functionalizedCrystal
_audit_creation_method	'MofGen! by Chris Wilmer'
_symmetry_space_group_name_H-M	'P1'
_symmetry_Int_Tables_number	1
_symmetry_cell_setting	triclinic
loop_
_symmetry_equiv_pos_as_xyz
  x,y,z
_cell_length_a	17.640280
_cell_length_b	17.638574
_cell_length_c	17.639252
_cell_angle_alpha	65.700738
_cell_angle_beta	114.299740
_cell_angle_gamma	114.316947
loop_
_atom_site_label
_atom_site_type_symbol
_atom_site_fract_x
_atom_site_fract_y
_atom_site_fract_z
Zn1	Zn	-0.475861	-1.434136	0.640404
Zn2	Zn	0.024139	-0.934136	1.140404
Zn3	Zn	-0.641471	-1.434097	0.474769
Zn4	Zn	-0.141471	-0.934097	0.974769
Zn5	Zn	-0.475764	-1.268476	0.474806
Zn6	Zn	0.024236	-0.768476	0.974806
Zn7	Zn	-0.593716	-1.316137	0.592739
Zn8	Zn	-0.093716	-0.816137	1.092739
O9	O	-0.546703	-1.363211	0.545680
O10	O	-0.046703	-0.863211	1.045680
O11	O	-0.517855	-1.552827	0.638364
O12	O	-0.017855	-1.052827	1.138364
O13	O	-0.639434	-1.392164	0.356100
O14	O	-0.139434	-0.892164	0.856100
O15	O	-0.357105	-1.270521	0.516737
O16	O	0.142895	-0.770521	1.016737
O17	O	-0.639528	-1.552798	0.516673
O18	O	-0.139528	-1.052798	1.016673
O19	O	-0.357177	-1.392231	0.638401
O20	O	0.142823	-0.892231	1.138401
O21	O	-0.517690	-1.270483	0.356128
O22	O	-0.017690	-0.770483	0.856128
O23	O	-0.471385	-1.156102	0.470518
O24	O	0.028615	-0.656102	0.970518
O25	O	-0.558137	-1.351753	0.717736
O26	O	-0.058137	-0.851753	1.217736
O27	O	-0.558043	-1.191118	0.557163
O28	O	-0.058043	-0.691118	1.057163
O29	O	-0.471550	-1.438446	0.752755
O30	O	0.028450	-0.938446	1.252755
O31	O	-0.753807	-1.438379	0.470455
O32	O	-0.253807	-0.938379	0.970455
O33	O	-0.718722	-1.351714	0.557127
O34	O	-0.218722	-0.851714	1.057127
C35	C	-0.509522	-1.142834	0.508673
C36	C	-0.009522	-0.642834	1.008673
C37	C	-0.493633	-1.048562	0.492858
C38	C	0.006367	-0.548562	0.992858
C39	C	-0.426022	-0.897436	0.425553
C40	C	0.073978	-0.397436	0.925553
C41	C	-0.440957	-0.986020	0.440420
C42	C	0.059043	-0.486020	0.940420
C43	C	-0.531398	-1.022536	0.530447
C44	C	-0.031398	-0.522536	1.030447
C45	C	-0.516474	-0.933953	0.515584
C46	C	-0.016474	-0.433953	1.015584
C47	C	-0.463784	-0.871409	0.463138
C48	C	0.036216	-0.371409	0.963138
C49	C	-0.554236	-0.907926	0.553169
C50	C	-0.054236	-0.407926	1.053169
C51	C	-0.539309	-0.819350	0.538312
C52	C	-0.039309	-0.319350	1.038312
C53	C	-0.486620	-0.756801	0.485870
C54	C	0.013380	-0.256801	0.985870
C55	C	-0.448858	-0.782833	0.448280
C56	C	0.051142	-0.282833	0.948280
C57	C	-0.606920	-0.970471	0.605620
C58	C	-0.106920	-0.470471	1.105620
C59	C	-0.644682	-0.944445	0.643205
C60	C	-0.144682	-0.444445	1.143205
C61	C	-0.629761	-0.855867	0.628343
C62	C	-0.129761	-0.355867	1.128343
C63	C	-0.577072	-0.793318	0.575901
C64	C	-0.077072	-0.293318	1.075901
C65	C	-0.667523	-0.829836	0.665932
C66	C	-0.167523	-0.329836	1.165932
C67	C	-0.652596	-0.741260	0.651074
C68	C	-0.152596	-0.241260	1.151074
C69	C	-0.562145	-0.704743	0.561043
C70	C	-0.062145	-0.204743	1.061043
C71	C	-0.767036	-1.400240	0.508637
C72	C	-0.267036	-0.900240	1.008637
C73	C	-0.861303	-1.416164	0.492831
C74	C	-0.361303	-0.916164	0.992831
C75	C	-1.080154	-1.242642	0.666121
C76	C	-0.580154	-0.742642	1.166121
C77	C	-1.168738	-1.257602	0.651242
C78	C	-0.668738	-0.757602	1.151242
C79	C	-1.205200	-1.347932	0.561112
C80	C	-0.705200	-0.847932	1.061112
C81	C	-1.116617	-1.332983	0.575986
C82	C	-0.616617	-0.832983	1.075986
C83	C	-1.054101	-1.280337	0.628491
C84	C	-0.554101	-0.780337	1.128491
C85	C	-1.090564	-1.370677	0.538356
C86	C	-0.590564	-0.870677	1.038356
C87	C	-1.001989	-1.355726	0.553226
C88	C	-0.501989	-0.855726	1.053226
C89	C	-0.939468	-1.303080	0.605726
C90	C	-0.439468	-0.803080	1.105726
C91	C	-0.965526	-1.265385	0.643361
C92	C	-0.465526	-0.765385	1.143361
C93	C	-1.153082	-1.423318	0.485847
C94	C	-0.653082	-0.923318	0.985847
C95	C	-1.127028	-1.461013	0.448217
C96	C	-0.627028	-0.961013	0.948217
C97	C	-1.038452	-1.446067	0.463091
C98	C	-0.538452	-0.946067	0.963091
C99	C	-0.975931	-1.393421	0.515591
C100	C	-0.475931	-0.893421	1.015591
C101	C	-1.012394	-1.483762	0.425457
C102	C	-0.512394	-0.983762	0.925457
C103	C	-0.923820	-1.468810	0.440326
C104	C	-0.423820	-0.968810	0.940326
C105	C	-0.887357	-1.378469	0.530461
C106	C	-0.387357	-0.878469	1.030461
C107	C	-0.325511	-1.326064	0.582890
C108	C	0.174489	-0.826064	1.082890
C109	C	-0.231252	-1.310234	0.598746
C110	C	0.268748	-0.810234	1.098746
C111	C	-0.509527	-1.400420	0.766877
C112	C	-0.009527	-0.900420	1.266877
C113	C	-0.493686	-1.416277	0.861138
C114	C	0.006314	-0.916277	1.361138
C115	C	-0.584022	-0.584447	0.582823
C116	C	-0.084022	-0.084447	1.082823
C117	C	-0.599907	-0.678716	0.598628
C118	C	-0.099907	-0.178716	1.098628
C119	C	-0.667004	-1.242775	1.079991
C120	C	-0.167004	-0.742775	1.579991
C121	C	-0.652110	-1.257691	1.168568
C122	C	-0.152110	-0.757691	1.668568
C123	C	-0.561954	-1.347957	1.205020
C124	C	-0.061954	-0.847957	1.705020
C125	C	-0.576837	-1.333046	1.116444
C126	C	-0.076837	-0.833046	1.616444
C127	C	-0.629363	-1.280455	1.053936
C128	C	-0.129363	-0.780455	1.553936
C129	C	-0.539196	-1.370726	1.090389
C130	C	-0.039196	-0.870726	1.590389
C131	C	-0.554082	-1.355819	1.001821
C132	C	-0.054082	-0.855819	1.501821
C133	C	-0.606608	-1.303233	0.939308
C134	C	-0.106608	-0.803233	1.439308
C135	C	-0.644249	-1.265548	0.965368
C136	C	-0.144249	-0.765548	1.465368
C137	C	-0.486675	-1.423321	1.152899
C138	C	0.013325	-0.923321	1.652899
C139	C	-0.449035	-1.461001	1.126844
C140	C	0.050965	-0.961001	1.626844
C141	C	-0.463915	-1.446090	1.038274
C142	C	0.036085	-0.946090	1.538274
C143	C	-0.516441	-1.393503	0.975761
C144	C	-0.016441	-0.893503	1.475761
C145	C	-0.426274	-1.483774	1.012214
C146	C	0.073726	-0.983774	1.512214
C147	C	-0.441159	-1.468867	0.923646
C148	C	0.058841	-0.968867	1.423646
C149	C	-0.531326	-1.378597	0.887193
C150	C	-0.031326	-0.878597	1.387193
C151	C	-0.583753	-1.326140	1.325338
C152	C	-0.083753	-0.826140	1.825338
C153	C	-0.599598	-1.310273	1.231074
C154	C	-0.099598	-0.810273	1.731074
H155	H	-0.687580	-0.995379	0.685909
H156	H	-0.187580	-0.495379	1.185909
H157	H	-0.474560	-1.435459	1.225016
H158	H	0.025440	-0.935459	1.725016
H159	H	-0.709752	-1.199927	1.029092
H160	H	-0.209752	-0.699927	1.529092
H161	H	-0.406270	-1.503823	1.177750
H162	H	0.093730	-1.003823	1.677750
H163	H	-0.914622	-1.222523	0.686123
H164	H	-0.414622	-0.722523	1.186123
H165	H	-1.189944	-1.226914	0.681901
H166	H	-0.689944	-0.726914	1.181901
H167	H	-0.867346	-1.290901	0.617825
H168	H	-0.367346	-0.790901	1.117825
H169	H	-0.383514	-1.526600	1.063121
H170	H	0.116486	-1.026600	1.563121
H171	H	-0.683343	-0.720069	0.681683
H172	H	-0.183343	-0.220069	1.181683
H173	H	-0.410194	-1.007205	0.409819
H174	H	0.089806	-0.507205	0.909819
H175	H	-0.836452	-1.335607	0.573223
H176	H	-0.336452	-0.835607	1.073223
H177	H	-0.710416	-0.880771	0.708641
H178	H	-0.210416	-0.380771	1.208641
H179	H	-0.682766	-1.227003	1.189776
H180	H	-0.182766	-0.727003	1.689776
H181	H	-0.902608	-1.499504	0.409683
H182	H	-0.402608	-0.999504	0.909683
H183	H	-0.410507	-1.499549	0.902433
H184	H	0.089493	-0.999549	1.402433
H185	H	-0.519240	-0.653815	0.518336
H186	H	-0.019240	-0.153815	1.018336
H187	H	-1.029250	-1.199779	0.708883
H188	H	-0.529250	-0.699779	1.208883
H189	H	-1.225204	-1.435492	0.473744
H190	H	-0.725204	-0.935492	0.973744
H191	H	-0.474463	-0.684678	0.473778
H192	H	0.025537	-0.184678	0.973778
H193	H	-0.405953	-0.731905	0.405573
H194	H	0.094047	-0.231905	0.905573
H195	H	-0.383117	-0.846508	0.382846
H196	H	0.116883	-0.346508	0.882846
H197	H	-1.256112	-1.390793	0.518360
H198	H	-0.756112	-0.890793	1.018360
H199	H	-1.177940	-1.503875	0.405465
H200	H	-0.677940	-1.003875	0.905465
H201	H	-0.574075	-1.335748	0.836294
H202	H	-0.074075	-0.835748	1.336294
H203	H	-1.063307	-1.526619	0.382701
H204	H	-0.563307	-1.026619	0.882701
H205	H	-0.519190	-1.390779	1.255926
H206	H	-0.019190	-0.890779	1.755926
H207	H	-0.686997	-1.222700	0.914469
H208	H	-0.186997	-0.722700	1.414469
H209	H	-0.574295	-1.073471	0.573151
H210	H	-0.074295	-0.573471	1.073151
H211	H	-0.618730	-1.291101	0.867191
H212	H	-0.118730	-0.791101	1.367191
H213	H	-0.619065	-1.042594	0.617722
H214	H	-0.119065	-0.542594	1.117722
