data_functionalizedCrystal
_audit_creation_method	'MofGen! by Chris Wilmer'
_symmetry_space_group_name_H-M	'P1'
_symmetry_Int_Tables_number	1
_symmetry_cell_setting	triclinic
loop_
_symmetry_equiv_pos_as_xyz
  x,y,z
_cell_length_a	12.837932
_cell_length_b	19.188925
_cell_length_c	11.295483
_cell_angle_alpha	94.081402
_cell_angle_beta	85.460332
_cell_angle_gamma	88.986126
loop_
_atom_site_label
_atom_site_type_symbol
_atom_site_fract_x
_atom_site_fract_y
_atom_site_fract_z
O1	O	1.381629	0.177222	-0.099026
O2	O	1.079864	0.168257	-0.099028
O3	O	1.239457	0.071681	-0.099020
O4	O	1.222036	0.273798	-0.099034
O5	O	1.225440	0.080149	0.099030
O6	O	1.065847	0.176725	0.099022
O7	O	1.367611	0.185690	0.099024
Cu8	Cu	1.215449	0.181981	0.117107
Cu9	Cu	1.232026	0.171966	-0.117111
O10	O	1.208018	0.282266	0.099016
C11	C	1.034248	0.169463	-0.000003
C12	C	0.919213	0.160431	-0.000004
C13	C	0.769714	0.084946	0.000004
C14	C	0.877801	0.093427	0.000003
C15	C	0.852528	0.218959	-0.000005
C16	C	0.744440	0.210477	-0.000004
C17	C	0.703038	0.143469	-0.000002
C18	C	0.594948	0.134988	-0.000009
C19	C	0.569676	0.260519	-0.000008
C20	C	0.677764	0.269000	-0.000009
C21	C	1.231885	0.049866	0.000004
C22	C	1.230195	-0.027755	0.000002
C23	C	1.312519	-0.583880	-0.000028
C24	C	1.314116	-0.510947	-0.000017
C25	C	1.220472	-0.472436	-0.000018
C26	C	1.125221	-0.506862	0.000001
C27	C	1.123626	-0.579794	0.000002
N28	N	1.157448	-0.359288	-0.067430
N29	N	1.158970	-0.290006	-0.067433
C30	C	1.225272	-0.252697	-0.000019
N31	N	1.290011	-0.287288	0.067384
N32	N	1.288493	-0.356576	0.067382
C33	C	1.222191	-0.393354	-0.000019
C34	C	1.322247	-0.139196	-0.000018
C35	C	1.323840	-0.066261	0.000001
C36	C	1.134943	-0.062179	0.000006
C37	C	1.133352	-0.135112	0.000000
C38	C	1.227008	-0.173617	-0.000017
C39	C	1.413227	0.184484	-0.000003
C40	C	1.528263	0.193515	-0.000011
C41	C	1.215590	0.304081	-0.000011
C42	C	1.217281	0.381702	-0.000016
N43	N	1.203797	0.189024	0.281842
N44	N	1.243686	0.164918	-0.281846
C45	C	1.327563	0.114175	0.531138
C46	C	1.318765	0.119503	0.655801
C47	C	1.177399	0.205005	0.655834
C48	C	1.186197	0.199677	0.531171
C49	C	1.261283	0.154261	0.468827
C50	C	1.270085	0.148937	0.344162
C51	C	1.128714	0.234435	0.344197
C52	C	1.119916	0.239763	0.468861
H53	H	0.711489	0.323557	-0.000007
H54	H	1.116259	0.241977	0.706611
H55	H	0.515376	0.308172	-0.000013
H56	H	1.388780	-0.615226	-0.000036
N57	N	0.725062	0.012674	0.000008
H58	H	0.675586	0.009495	0.073427
H59	H	0.686029	0.003261	-0.073456
N60	N	1.351046	0.099939	0.276919
H61	H	1.346562	0.102642	0.188489
H62	H	1.422993	0.113837	0.298682
N63	N	1.408554	0.065202	0.463886
H64	H	1.449213	0.040618	0.522277
H65	H	1.372677	0.029478	0.412172
N66	N	1.416840	-0.473812	-0.000028
H67	H	1.475927	-0.509271	-0.000037
H68	H	1.426799	-0.446780	-0.073451
N69	N	1.057220	0.277667	0.276978
H70	H	0.982178	0.265636	0.298688
H71	H	1.067484	0.328917	0.298692
H72	H	1.398507	-0.170548	-0.000031
N73	N	1.030631	-0.172240	0.000019
H74	H	0.971547	-0.136779	0.000023
H75	H	1.031041	-0.205551	-0.073397
H76	H	1.372737	0.086860	0.706531
H77	H	1.048975	-0.475502	0.000004
H78	H	1.058779	0.276738	0.519635
H79	H	1.058695	-0.030823	0.000016
N80	N	0.550288	0.062718	-0.000012
H81	H	0.608932	0.026932	-0.000005
H82	H	0.500795	0.059605	0.073408
N83	N	0.949718	0.030308	0.000017
H84	H	0.907084	-0.013426	0.000021
H85	H	1.000312	0.027951	-0.073401
H86	H	0.886256	0.273514	0.000003
H87	H	1.046070	-0.607816	0.000014
H88	H	1.401396	-0.038239	-0.000002
