data_functionalizedCrystal
_audit_creation_method	'MofGen! by Chris Wilmer'
_symmetry_space_group_name_H-M	'P1'
_symmetry_Int_Tables_number	1
_symmetry_cell_setting	triclinic
loop_
_symmetry_equiv_pos_as_xyz
  x,y,z
_cell_length_a	17.639617
_cell_length_b	17.640280
_cell_length_c	17.640968
_cell_angle_alpha	65.682561
_cell_angle_beta	109.666032
_cell_angle_gamma	92.178814
loop_
_atom_site_label
_atom_site_type_symbol
_atom_site_fract_x
_atom_site_fract_y
_atom_site_fract_z
Zn1	Zn	1.336780	-0.104539	0.738792
Zn2	Zn	1.836780	0.395461	1.238792
Zn3	Zn	1.336715	0.061146	0.573137
Zn4	Zn	1.836715	0.561146	1.073137
Zn5	Zn	1.182350	-0.037559	0.561820
Zn6	Zn	1.682350	0.462441	1.061820
Zn7	Zn	1.226792	0.061069	0.683033
Zn8	Zn	1.726792	0.561069	1.183033
O9	O	1.270659	-0.004971	0.639195
O10	O	1.770659	0.495029	1.139195
O11	O	1.447404	-0.110559	0.744889
O12	O	1.947404	0.389441	1.244889
O13	O	1.297612	0.076116	0.451580
O14	O	1.797612	0.576116	0.951580
O15	O	1.184263	-0.157061	0.603895
O16	O	1.684263	0.342939	1.103895
O17	O	1.447357	0.011169	0.623183
O18	O	1.947357	0.511169	1.123183
O19	O	1.297722	-0.206270	0.733916
O20	O	1.797722	0.293730	1.233916
O21	O	1.184200	0.003597	0.443266
O22	O	1.684200	0.503597	0.943266
O23	O	1.077612	0.003523	0.549827
O24	O	1.577612	0.503523	1.049827
O25	O	1.260008	0.011037	0.810484
O26	O	1.760008	0.511037	1.310484
O27	O	1.110263	0.075985	0.638882
O28	O	1.610263	0.575985	1.138882
O29	O	1.340816	-0.110634	0.851451
O30	O	1.840816	0.389366	1.351451
O31	O	1.340706	0.171752	0.569116
O32	O	1.840706	0.671752	1.069116
O33	O	1.259945	0.171695	0.649855
O34	O	1.759945	0.671695	1.149855
C35	C	1.065252	0.047014	0.587076
C36	C	1.565252	0.547014	1.087076
C37	C	0.977384	0.069267	0.564796
C38	C	1.477384	0.569267	1.064796
C39	C	0.688625	-0.174095	0.808667
C40	C	1.188625	0.325905	1.308667
C41	C	0.606061	-0.153161	0.787711
C42	C	1.106061	0.346839	1.287711
C43	C	0.605980	-0.026536	0.660849
C44	C	1.105980	0.473464	1.160849
C45	C	0.688547	-0.047458	0.681797
C46	C	1.188547	0.452542	1.181797
C47	C	0.729863	-0.121239	0.755706
C48	C	1.229863	0.378761	1.255706
C49	C	0.729785	0.005398	0.628836
C50	C	1.229785	0.505398	1.128836
C51	C	0.812344	-0.015525	0.649779
C52	C	1.312344	0.484475	1.149779
C53	C	0.853665	-0.089303	0.723684
C54	C	1.353665	0.410697	1.223684
C55	C	0.812422	-0.142162	0.776650
C56	C	1.312422	0.357838	1.276650
C57	C	0.688467	0.079176	0.554923
C58	C	1.188467	0.579176	1.054923
C59	C	0.729705	0.132032	0.501962
C60	C	1.229705	0.632032	1.001962
C61	C	0.812267	0.111113	0.522909
C62	C	1.312267	0.611113	1.022909
C63	C	0.853587	0.037334	0.596814
C64	C	1.353587	0.537334	1.096814
C65	C	0.853510	0.163971	0.469943
C66	C	1.353510	0.663971	0.969943
C67	C	0.936069	0.143049	0.490887
C68	C	1.436069	0.643049	0.990887
C69	C	0.936146	0.016411	0.617757
C70	C	1.436146	0.516411	1.117757
C71	C	1.305165	0.200395	0.604687
C72	C	1.805165	0.700395	1.104687
C73	C	1.320004	0.288227	0.589971
C74	C	1.820004	0.788227	1.089971
C75	C	1.305377	-0.057278	0.862967
C76	C	1.805377	0.442722	1.362967
C77	C	1.320171	-0.079569	0.958325
C78	C	1.820171	0.420431	1.458325
C79	C	1.476868	-0.057158	0.691519
C80	C	1.976868	0.442842	1.191519
C81	C	1.564743	-0.079397	0.713816
C82	C	2.064743	0.420603	1.213816
C83	C	1.236043	-0.211149	0.673863
C84	C	1.736043	0.288851	1.173863
C85	C	1.221291	-0.299010	0.688636
C86	C	1.721291	0.200990	1.188636
C87	C	1.158304	0.577213	0.751384
C88	C	1.658304	1.077213	1.251384
C89	C	1.172244	0.659750	0.737529
C90	C	1.672244	1.159750	1.237529
C91	C	1.256420	0.659702	0.653582
C92	C	1.756420	1.159702	1.153582
C93	C	1.242490	0.577162	0.667433
C94	C	1.742490	1.077162	1.167433
C95	C	1.193430	0.535924	0.716334
C96	C	1.693430	1.035924	1.216334
C97	C	1.277616	0.535873	0.632383
C98	C	1.777616	1.035873	1.132383
C99	C	1.263684	0.453341	0.646229
C100	C	1.763684	0.953341	1.146229
C101	C	1.214624	0.412099	0.695126
C102	C	1.714624	0.912099	1.195126
C103	C	1.179498	0.453392	0.730180
C104	C	1.679498	0.953392	1.230180
C105	C	1.326671	0.577114	0.583477
C106	C	1.826671	1.077114	1.083477
C107	C	1.361797	0.535825	0.548427
C108	C	1.861797	1.035825	1.048427
C109	C	1.347870	0.453290	0.562278
C110	C	1.847870	0.953290	1.062278
C111	C	1.298810	0.412047	0.611175
C112	C	1.798810	0.912047	1.111175
C113	C	1.382996	0.411996	0.527224
C114	C	1.882996	0.911996	1.027224
C115	C	1.369063	0.329465	0.541070
C116	C	1.869063	0.829465	1.041070
C117	C	1.284878	0.329516	0.625021
C118	C	1.784878	0.829516	1.125021
C119	C	1.236113	0.047065	0.416315
C120	C	1.736113	0.547065	0.916315
C121	C	1.221434	0.069093	0.321034
C122	C	1.721434	0.569093	0.821034
C123	C	1.158498	0.163860	1.165307
C124	C	1.658498	0.663860	1.665307
C125	C	1.172414	0.142900	1.254917
C126	C	1.672414	0.642900	1.754917
C127	C	1.256553	0.016214	1.297561
C128	C	1.756553	0.516214	1.797561
C129	C	1.242640	0.037161	1.207953
C130	C	1.742640	0.537161	1.707953
C131	C	1.193612	0.110985	1.141833
C132	C	1.693612	0.610985	1.641833
C133	C	1.277754	-0.015713	1.184479
C134	C	1.777754	0.484287	1.684479
C135	C	1.263846	0.005235	1.094879
C136	C	1.763846	0.505235	1.594879
C137	C	1.214823	0.079056	1.028754
C138	C	1.714823	0.579056	1.528754
C139	C	1.179704	0.131933	1.052233
C140	C	1.679704	0.631933	1.552233
C141	C	1.326786	-0.089534	1.250601
C142	C	1.826786	0.410466	1.750601
C143	C	1.361901	-0.142408	1.227126
C144	C	1.861901	0.357592	1.727126
C145	C	1.347988	-0.121464	1.137525
C146	C	1.847988	0.378536	1.637525
C147	C	1.298965	-0.047642	1.071400
C148	C	1.798965	0.452358	1.571400
C149	C	1.383107	-0.174340	1.114045
C150	C	1.883107	0.325660	1.614045
C151	C	1.369198	-0.153393	1.024446
C152	C	1.869198	0.346607	1.524446
C153	C	1.285056	-0.026694	0.981800
C154	C	1.785056	0.473306	1.481800
H155	H	0.621236	0.096195	0.537857
H156	H	1.121236	0.596195	1.037857
H157	H	1.244935	0.295936	0.664849
H158	H	1.744935	0.795936	1.164849
H159	H	1.139759	0.192034	0.998391
H160	H	1.639759	0.692034	1.498391
Br161	Br	1.449654	-0.274518	1.203789
Br162	Br	1.949654	0.225482	1.703789
Br163	Br	0.868504	-0.242288	0.876966
Br164	Br	1.368504	0.257712	1.376966
H165	H	1.422934	0.445587	0.487402
H166	H	1.922934	0.945587	0.987402
H167	H	1.203275	0.344899	0.706391
H168	H	1.703275	0.844899	1.206391
H169	H	0.696053	0.192103	0.441782
H170	H	1.196053	0.692103	0.941782
H171	H	1.143816	0.185963	1.274023
H172	H	1.643816	0.685963	1.774023
H173	H	0.572486	-0.196212	0.830841
H174	H	1.072486	0.303788	1.330841
H175	H	1.139555	0.419812	0.770008
H176	H	1.639555	0.919812	1.270008
H177	H	1.397791	-0.196449	1.005333
H178	H	1.897791	0.303551	1.505333
H179	H	1.203503	0.096113	0.955797
H180	H	1.703503	0.596113	1.455797
H181	H	1.296473	-0.043891	1.351408
H182	H	1.796473	0.456109	1.851408
Br183	Br	0.797425	0.264090	0.369630
Br184	Br	1.297425	0.764090	0.869630
Br185	Br	0.549901	0.073589	0.560543
Br186	Br	1.049901	0.573589	1.060543
H187	H	0.969645	0.186090	0.447760
H188	H	1.469645	0.686090	0.947760
H189	H	1.338111	-0.106585	1.323558
H190	H	1.838111	0.393415	1.823558
Br191	Br	1.428377	0.591797	0.482064
Br192	Br	1.928377	1.091797	0.982064
H193	H	1.118361	0.543633	0.791212
H194	H	1.618361	1.043633	1.291212
Br195	Br	1.124553	0.715790	0.785086
Br196	Br	1.624553	1.215790	1.285086
H197	H	0.722268	-0.234173	0.868855
H198	H	1.222268	0.265827	1.368855
Br199	Br	1.322999	0.715674	0.587219
Br200	Br	1.822999	1.215674	1.087219
Br201	Br	1.416723	0.273430	0.493488
Br202	Br	1.916723	0.773430	0.993488
H203	H	1.118553	0.223960	1.111466
H204	H	1.618553	0.723960	1.611466
Br205	Br	1.218507	0.073490	0.892056
Br206	Br	1.718507	0.573490	1.392056
H207	H	0.920889	-0.106339	0.740733
H208	H	1.420889	0.393661	1.240733
Br209	Br	1.428440	-0.242591	1.316867
Br210	Br	1.928440	0.257409	1.816867
H211	H	1.338016	0.644315	0.572208
H212	H	1.838016	1.144315	1.072208
Br213	Br	0.992228	-0.083715	0.718073
Br214	Br	1.492228	0.416285	1.218073
