data_functionalizedCrystal
_audit_creation_method	'MofGen! by Chris Wilmer'
_symmetry_space_group_name_H-M	'P1'
_symmetry_Int_Tables_number	1
_symmetry_cell_setting	triclinic
loop_
_symmetry_equiv_pos_as_xyz
  x,y,z
_cell_length_a	16.109302
_cell_length_b	14.519709
_cell_length_c	15.186229
_cell_angle_alpha	90.002449
_cell_angle_beta	90.005299
_cell_angle_gamma	96.429037
loop_
_atom_site_label
_atom_site_type_symbol
_atom_site_fract_x
_atom_site_fract_y
_atom_site_fract_z
O1	O	1.103335	-0.118543	0.073256
O2	O	1.436669	0.214790	0.406589
O3	O	1.770002	0.548124	0.739923
O4	O	0.861299	-0.133294	0.073247
O5	O	1.194632	0.200039	0.406581
O6	O	1.527966	0.533372	0.739914
O7	O	0.988735	0.008333	0.073260
O8	O	1.322068	0.341667	0.406593
O9	O	1.655401	0.675000	0.739927
O10	O	0.975900	-0.260171	0.073243
O11	O	1.309233	0.073162	0.406577
O12	O	1.642567	0.406496	0.739910
O13	O	0.988726	0.008335	-0.073197
O14	O	1.322059	0.341669	0.260136
O15	O	1.655393	0.675002	0.593469
O16	O	0.861291	-0.133292	-0.073210
O17	O	1.194624	0.200041	0.260124
O18	O	1.527957	0.533374	0.593457
O19	O	1.103327	-0.118541	-0.073201
O20	O	1.436660	0.214792	0.260132
O21	O	1.769994	0.548126	0.593465
Zn22	Zn	0.982307	-0.125916	-0.096459
Zn23	Zn	1.315641	0.207417	0.236874
Zn24	Zn	1.648974	0.540750	0.570208
Zn25	Zn	0.982319	-0.125919	0.096505
Zn26	Zn	1.315652	0.207414	0.429838
Zn27	Zn	1.648985	0.540748	0.763172
O28	O	0.975892	-0.260169	-0.073214
O29	O	1.309225	0.073164	0.260119
O30	O	1.642558	0.406498	0.593453
C31	C	0.830319	-0.132696	0.000018
C32	C	1.163652	0.200637	0.333351
C33	C	1.496986	0.533971	0.666685
C34	C	0.738021	-0.130904	0.000015
C35	C	1.071354	0.202429	0.333349
C36	C	1.404687	0.535763	0.666682
C37	C	0.525668	-0.126760	-0.079809
C38	C	0.859001	0.206574	0.253524
C39	C	1.192335	0.539907	0.586857
C40	C	0.438945	-0.125066	-0.079806
C41	C	0.772278	0.208267	0.253527
C42	C	1.105612	0.541600	0.586860
C43	C	0.438965	-0.125073	0.079869
C44	C	0.772298	0.208260	0.413203
C45	C	1.105631	0.541594	0.746536
C46	C	0.525687	-0.126760	0.079865
C47	C	0.859020	0.206573	0.413199
C48	C	1.192353	0.539907	0.746532
C49	C	0.569036	-0.127608	0.000023
C50	C	0.902369	0.205725	0.333357
C51	C	1.235702	0.539059	0.666690
C52	C	0.395590	-0.124228	0.000031
C53	C	0.728924	0.209106	0.333364
C54	C	1.062257	0.542439	0.666697
C55	C	0.301562	-0.122391	0.000035
C56	C	0.634895	0.210942	0.333368
C57	C	0.968228	0.544275	0.666701
C58	C	0.663071	-0.129442	0.000019
C59	C	0.996404	0.203891	0.333352
C60	C	1.329737	0.537224	0.666686
C61	C	0.976494	-0.294528	0.000013
C62	C	1.309827	0.038805	0.333346
C63	C	1.643161	0.372138	0.666679
C64	C	0.978286	-0.396906	0.000007
C65	C	1.311620	-0.063572	0.333340
C66	C	1.644953	0.269761	0.666674
C67	C	0.984885	-0.771788	0.000042
C68	C	1.318218	-0.438454	0.333375
C69	C	1.651552	-0.105121	0.666709
C70	C	0.983053	-0.667484	0.000032
C71	C	1.316386	-0.334150	0.333365
C72	C	1.649719	-0.000817	0.666699
C73	C	0.981586	-0.584350	0.000024
C74	C	1.314919	-0.251017	0.333357
C75	C	1.648253	0.082317	0.666690
C76	C	0.979753	-0.480039	0.000015
C77	C	1.313086	-0.146706	0.333349
C78	C	1.646420	0.186627	0.666682
C79	C	1.134307	-0.119140	0.000030
C80	C	1.467640	0.214194	0.333363
C81	C	1.800974	0.547527	0.666697
C82	C	1.226605	-0.120932	0.000038
C83	C	1.559939	0.212402	0.333372
C84	C	1.893272	0.545735	0.666705
C85	C	0.988132	0.042693	0.000035
C86	C	1.321465	0.376026	0.333369
C87	C	1.654799	0.709359	0.666702
C88	C	0.986340	0.145070	0.000047
C89	C	1.319673	0.478404	0.333380
C90	C	1.653006	0.811737	0.666714
N91	N	0.982306	-0.125914	-0.228152
N92	N	1.315639	0.207419	0.105182
N93	N	1.648972	0.540753	0.438515
C94	C	1.038753	-0.063222	-0.453869
C95	C	1.372087	0.270111	-0.120536
C96	C	1.705420	0.603444	0.212798
C97	C	1.038756	-0.063220	-0.546059
C98	C	1.372089	0.270113	-0.212725
C99	C	1.705423	0.603446	0.120608
C100	C	0.925873	-0.188609	-0.546079
C101	C	1.259206	0.144725	-0.212745
C102	C	1.592540	0.478058	0.120588
C103	C	0.925867	-0.188606	-0.453891
C104	C	1.259200	0.144727	-0.120557
C105	C	1.592534	0.478061	0.212776
C106	C	0.982312	-0.125914	-0.407788
C107	C	1.315645	0.207420	-0.074455
C108	C	1.648979	0.540753	0.258879
C109	C	0.982321	-0.125915	-0.592166
C110	C	1.315654	0.207419	-0.258832
C111	C	1.648987	0.540752	0.074501
C112	C	0.982323	-0.125913	-0.692122
C113	C	1.315656	0.207421	-0.358789
C114	C	1.648990	0.540754	-0.025455
C115	C	0.982309	-0.125914	-0.307826
C116	C	1.315642	0.207419	0.025508
C117	C	1.648975	0.540752	0.358841
N118	N	0.982327	-0.125914	0.228198
N119	N	1.315660	0.207419	0.561531
N120	N	1.648993	0.540753	0.894864
H121	H	0.560960	-0.127450	-0.144822
H122	H	0.894293	0.205883	0.188511
H123	H	1.227627	0.539216	0.521845
H124	H	0.879902	-0.239657	-0.416369
H125	H	1.213235	0.093676	-0.083036
H126	H	1.546568	0.427010	0.250297
H127	H	0.560998	-0.127448	0.144879
H128	H	0.894331	0.205885	0.478212
H129	H	1.227665	0.539218	0.811545
H130	H	0.403639	-0.124376	-0.144814
H131	H	0.736972	0.208958	0.188519
H132	H	1.070305	0.542291	0.521852
N133	N	1.096352	0.000861	-0.406760
N134	N	1.429686	0.334194	-0.073427
N135	N	1.763019	0.667527	0.259907
N136	N	1.095026	0.086094	-0.417060
N137	N	1.428359	0.419428	-0.083727
N138	N	1.761692	0.752761	0.249606
H139	H	1.135686	0.131369	-0.383781
H140	H	1.469019	0.464702	-0.050448
H141	H	1.802353	0.798036	0.282885
N142	N	0.394670	-0.124206	0.161414
N143	N	0.728004	0.209127	0.494747
N144	N	1.061337	0.542461	0.828081
N145	N	0.317241	-0.122701	0.161408
N146	N	0.650574	0.210633	0.494742
N147	N	0.983907	0.543966	0.828075
H148	H	0.285958	-0.122090	0.219001
H149	H	0.619291	0.211244	0.552334
H150	H	0.952624	0.544577	0.885668
H151	H	1.084715	-0.012170	-0.583575
H152	H	1.418048	0.321163	-0.250242
H153	H	1.751381	0.654496	0.083092
H154	H	0.879918	-0.239653	-0.583624
H155	H	1.213251	0.093681	-0.250291
H156	H	1.546585	0.427014	0.083042
