data_functionalizedCrystal
_audit_creation_method	'MofGen! by Chris Wilmer'
_symmetry_space_group_name_H-M	'P1'
_symmetry_Int_Tables_number	1
_symmetry_cell_setting	triclinic
loop_
_symmetry_equiv_pos_as_xyz
  x,y,z
_cell_length_a	11.169417
_cell_length_b	19.805405
_cell_length_c	11.169409
_cell_angle_alpha	90.037171
_cell_angle_beta	90.019824
_cell_angle_gamma	90.027605
loop_
_atom_site_label
_atom_site_type_symbol
_atom_site_fract_x
_atom_site_fract_y
_atom_site_fract_z
Zn1	Zn	1.834826	-0.269393	0.678502
Zn2	Zn	2.334826	0.230607	1.178502
Zn3	Zn	1.834658	-0.382602	0.477802
Zn4	Zn	2.334658	0.117398	0.977802
Zn5	Zn	1.634112	-0.269434	0.477837
Zn6	Zn	2.134112	0.230566	0.977837
Zn7	Zn	1.634062	-0.382547	0.678447
Zn8	Zn	2.134062	0.117453	1.178447
O9	O	1.734414	-0.325994	0.578147
O10	O	2.234414	0.174006	1.078147
O11	O	2.002753	-0.284416	0.651888
O12	O	2.502753	0.215584	1.151888
O13	O	1.808005	-0.367630	0.309857
O14	O	2.308005	0.132370	0.809857
O15	O	1.660828	-0.174712	0.504493
O16	O	2.160828	0.325288	1.004493
O17	O	2.002630	-0.367590	0.504434
O18	O	2.502630	0.132410	1.004434
O19	O	1.808292	-0.174681	0.651921
O20	O	2.308292	0.325319	1.151921
O21	O	1.660665	-0.284486	0.309882
O22	O	2.160665	0.215514	0.809882
O23	O	1.466155	-0.284433	0.504439
O24	O	1.966155	0.215567	1.004439
O25	O	1.660743	-0.367496	0.846404
O26	O	2.160743	0.132504	1.346404
O27	O	1.466119	-0.367536	0.651827
O28	O	1.966119	0.132464	1.151827
O29	O	1.808243	-0.284362	0.846445
O30	O	2.308243	0.215638	1.346445
O31	O	1.807957	-0.477311	0.504381
O32	O	2.307957	0.022689	1.004381
O33	O	1.660580	-0.477271	0.651794
O34	O	2.160580	0.022729	1.151794
C35	C	1.422589	-0.325983	0.578132
C36	C	1.922589	0.174017	1.078132
C37	C	1.289189	-0.325995	0.578154
C38	C	1.789189	0.174005	1.078154
C39	C	1.734277	-0.501850	0.578104
C40	C	2.234277	-0.001850	1.078104
C41	C	1.734329	-0.577082	0.578125
C42	C	2.234329	-0.077082	1.078125
C43	C	1.811068	-0.612352	0.654951
C44	C	2.311068	-0.112352	1.154951
C45	C	1.811111	-0.683040	0.654974
C46	C	2.311111	-0.183040	1.154974
C47	C	1.734420	-0.718457	0.578163
C48	C	2.234420	-0.218457	1.078163
C49	C	1.657673	-0.683182	0.501334
C50	C	2.157673	-0.183182	1.001334
C51	C	1.657625	-0.612495	0.501318
C52	C	2.157625	-0.112495	1.001318
C53	C	1.657866	-0.968255	0.501395
C54	C	2.157866	-0.468255	1.001395
C55	C	1.657923	-1.038947	0.501414
C56	C	2.157923	-0.538947	1.001414
C57	C	1.811352	-1.038801	0.655051
C58	C	2.311352	-0.538801	1.155051
C59	C	1.811304	-0.968113	0.655035
C60	C	2.311304	-0.468113	1.155035
C61	C	1.734552	-0.932845	0.578211
C62	C	2.234552	-0.432845	1.078211
C63	C	1.734505	-0.856196	0.578189
C64	C	2.234505	-0.356196	1.078189
C65	C	1.734473	-0.795104	0.578178
C66	C	2.234473	-0.295104	1.078178
C67	C	2.047456	-0.326004	0.578163
C68	C	2.547456	0.173996	1.078163
C69	C	2.180856	-0.326009	0.578170
C70	C	2.680856	0.173991	1.078170
C71	C	1.734506	-0.325919	0.891190
C72	C	2.234506	0.174081	1.391190
C73	C	1.734546	-0.325886	1.024590
C74	C	2.234546	0.174114	1.524590
C75	C	1.734584	-0.149451	0.578217
C76	C	2.234584	0.350549	1.078217
C77	C	1.734657	-0.074219	0.578247
C78	C	2.234657	0.425781	1.078247
C79	C	1.734391	-0.326020	0.266322
C80	C	2.234391	0.173980	0.766322
C81	C	1.734585	-0.325861	0.132923
C82	C	2.234585	0.174139	0.632923
H83	H	1.873523	-0.583520	0.717494
H84	H	2.373523	-0.083520	1.217494
H85	H	1.595134	-0.583779	0.438760
H86	H	2.095134	-0.083779	0.938760
H87	H	1.595466	-1.067782	0.438863
H88	H	2.095466	-0.567782	0.938863
N89	N	1.893851	-0.721060	0.737896
N90	N	2.393851	-0.221060	1.237896
H91	H	1.979614	-0.708729	0.719358
H92	H	2.479614	-0.208729	1.219358
H93	H	1.882154	-0.771206	0.726262
H94	H	2.382154	-0.271206	1.226262
H95	H	1.873843	-1.067525	0.717609
H96	H	2.373843	-0.567525	1.217609
H97	H	1.873756	-0.939279	0.717577
H98	H	2.373756	-0.439279	1.217577
N99	N	1.575100	-0.930220	0.418527
N100	N	2.075100	-0.430220	0.918527
H101	H	1.526534	-0.963385	0.369866
H102	H	2.026534	-0.463385	0.869866
H103	H	1.623969	-0.900894	0.363024
H104	H	2.123969	-0.400894	0.863024
N105	N	1.574957	-0.721378	0.418483
N106	N	2.074957	-0.221378	0.918483
H107	H	1.586637	-0.771510	0.430143
H108	H	2.086637	-0.271510	0.930143
H109	H	1.593682	-0.709046	0.332785
H110	H	2.093682	-0.209046	0.832785
