data_functionalizedCrystal
_audit_creation_method	'MofGen! by Chris Wilmer'
_symmetry_space_group_name_H-M	'P1'
_symmetry_Int_Tables_number	1
_symmetry_cell_setting	triclinic
loop_
_symmetry_equiv_pos_as_xyz
  x,y,z
_cell_length_a	19.288864
_cell_length_b	17.038272
_cell_length_c	17.766277
_cell_angle_alpha	89.993732
_cell_angle_beta	89.976791
_cell_angle_gamma	87.123901
loop_
_atom_site_label
_atom_site_type_symbol
_atom_site_fract_x
_atom_site_fract_y
_atom_site_fract_z
O1	O	0.927386	0.097514	-0.062838
O2	O	1.427386	0.597514	0.437162
O3	O	0.725940	0.110668	-0.062787
O4	O	1.225940	0.610668	0.437213
O5	O	0.825466	-0.009720	-0.062806
O6	O	1.325466	0.490280	0.437194
O7	O	0.827860	0.217903	-0.062819
O8	O	1.327860	0.717903	0.437181
O9	O	0.825447	-0.009726	0.062382
O10	O	1.325447	0.490274	0.562382
O11	O	0.725920	0.110662	0.062402
O12	O	1.225920	0.610662	0.562402
O13	O	0.927367	0.097508	0.062351
O14	O	1.427367	0.597508	0.562351
Cu15	Cu	0.826642	0.104085	0.073807
Cu16	Cu	1.326642	0.604085	0.573807
Cu17	Cu	0.826665	0.104092	-0.074243
Cu18	Cu	1.326665	0.604092	0.425757
O19	O	0.827841	0.217897	0.062370
O20	O	1.327841	0.717897	0.562370
C21	C	0.700027	0.110242	-0.000186
C22	C	1.200027	0.610242	0.499814
C23	C	0.622845	0.108972	-0.000166
C24	C	1.122845	0.608972	0.499834
C25	C	0.582519	0.179610	-0.000182
C26	C	1.082519	0.679610	0.499818
C27	C	0.509998	0.178417	-0.000190
C28	C	1.009998	0.678417	0.499810
C29	C	0.477806	0.106580	-0.000198
C30	C	0.977806	0.606580	0.499802
C31	C	0.518141	0.035932	-0.000178
C32	C	1.018141	0.535932	0.499822
C33	C	0.590661	0.037128	-0.000162
C34	C	1.090661	0.537128	0.499838
C35	C	0.366057	0.050111	-0.044079
C36	C	0.866057	0.550111	0.455921
C37	C	0.293539	0.048918	-0.044100
C38	C	0.793539	0.548918	0.455900
C39	C	0.254132	0.102889	-0.000243
C40	C	0.754132	0.602889	0.499757
C41	C	0.287252	0.158066	0.043624
C42	C	0.787252	0.658066	0.543624
C43	C	0.359772	0.159262	0.043640
C44	C	0.859772	0.659262	0.543640
C45	C	0.399172	0.105276	-0.000214
C46	C	0.899172	0.605276	0.499786
C47	C	0.135171	0.172238	-0.000267
C48	C	0.635171	0.672238	0.499733
C49	C	0.062649	0.171042	-0.000270
C50	C	0.562649	0.671042	0.499730
C51	C	0.070793	0.028556	-0.000266
C52	C	0.570793	0.528556	0.499734
C53	C	0.143314	0.029754	-0.000254
C54	C	0.643314	0.529754	0.499746
C55	C	0.175498	0.101598	-0.000259
C56	C	0.675498	0.601598	0.499741
C57	C	0.823278	-0.038845	-0.000211
C58	C	1.323278	0.461155	0.499789
C59	C	0.816781	-0.125616	-0.000210
C60	C	1.316781	0.374384	0.499790
C61	C	0.876437	-0.175923	-0.000224
C62	C	1.376437	0.324077	0.499776
C63	C	0.870327	-0.257454	-0.000230
C64	C	1.370327	0.242546	0.499770
C65	C	0.804561	-0.288677	-0.000216
C66	C	1.304561	0.211323	0.499784
C67	C	0.744901	-0.238363	-0.000204
C68	C	1.244901	0.261637	0.499796
C69	C	0.751011	-0.156834	-0.000203
C70	C	1.251011	0.343166	0.499797
C71	C	0.782976	-0.534365	-0.000221
C72	C	1.282976	-0.034365	0.499779
C73	C	0.776870	-0.615900	-0.000219
C74	C	1.276870	-0.115900	0.499781
C75	C	0.902297	-0.634985	-0.000246
C76	C	1.402297	-0.134985	0.499754
C77	C	0.908402	-0.553454	-0.000241
C78	C	1.408402	-0.053454	0.499759
C79	C	0.848741	-0.503148	-0.000233
C80	C	1.348741	-0.003148	0.499767
C81	C	0.798315	-0.372014	-0.000219
C82	C	1.298315	0.127986	0.499781
C83	C	0.854988	-0.419812	-0.000235
C84	C	1.354988	0.080188	0.499765
C85	C	0.953279	0.097934	-0.000252
C86	C	1.453279	0.597934	0.499748
C87	C	1.030462	0.099205	-0.000277
C88	C	1.530462	0.599205	0.499723
C89	C	0.830029	0.247021	-0.000227
C90	C	1.330029	0.747021	0.499773
C91	C	0.836526	0.333793	-0.000233
C92	C	1.336526	0.833793	0.499767
N93	N	0.826631	0.104079	0.177937
N94	N	1.326631	0.604079	0.677937
N95	N	0.826681	0.104091	-0.178373
N96	N	1.326681	0.604091	0.321627
C97	C	0.870718	0.050797	0.217315
C98	C	1.370718	0.550797	0.717315
C99	C	0.870722	0.050793	0.296117
C100	C	1.370722	0.550793	0.796117
C101	C	0.826646	0.104085	0.335538
C102	C	1.326646	0.604085	0.835538
C103	C	0.782551	0.157371	0.296150
C104	C	1.282551	0.657371	0.796150
C105	C	0.782543	0.157368	0.217350
C106	C	1.282543	0.657368	0.717350
C107	C	0.821754	0.175309	0.460373
C108	C	1.321754	0.675309	0.960373
C109	C	0.821767	0.175313	0.539172
C110	C	1.321767	0.675313	1.039172
C111	C	0.826665	0.104095	0.578584
C112	C	1.326665	0.604095	1.078584
C113	C	0.831566	0.032869	0.539188
C114	C	1.331566	0.532869	1.039188
C115	C	0.831559	0.032866	0.460387
C116	C	1.331559	0.532866	0.960387
C117	C	0.826649	0.104094	0.420983
C118	C	1.326649	0.604094	0.920983
C119	C	0.870759	0.050804	0.703408
C120	C	1.370759	0.550804	1.203408
C121	C	0.870758	0.050800	0.782212
C122	C	1.370758	0.550800	1.282212
C123	C	0.782590	0.157384	0.782243
C124	C	1.282590	0.657384	1.282243
C125	C	0.782587	0.157382	0.703441
C126	C	1.282587	0.657382	1.203441
C127	C	0.826676	0.104093	0.664028
C128	C	1.326676	0.604093	1.164028
H129	H	0.398136	0.006160	-0.079797
H130	H	0.898136	0.506160	0.420203
Cl131	Cl	0.011952	0.259853	-0.000286
Cl132	Cl	0.511952	0.759853	0.499714
Cl133	Cl	0.727116	0.224358	0.167842
Cl134	Cl	1.227116	0.724358	0.667842
Cl135	Cl	0.676011	-0.093591	-0.000188
Cl136	Cl	1.176011	0.406409	0.499812
Cl137	Cl	0.727175	0.224374	0.831794
Cl138	Cl	1.227175	0.724374	1.331794
H139	H	0.817780	0.233309	0.571243
H140	H	1.317780	0.733309	1.071243
Cl141	Cl	0.237721	0.225921	0.098761
Cl142	Cl	0.737721	0.725921	0.598761
H143	H	0.691353	-0.263791	-0.000197
H144	H	1.191353	0.236209	0.499803
Cl145	Cl	0.926152	-0.016195	0.345630
Cl146	Cl	1.426152	0.483805	0.845630
H147	H	0.477159	0.235941	-0.000201
H148	H	0.977159	0.735941	0.499799
Cl149	Cl	0.715640	-0.411272	-0.000205
Cl150	Cl	1.215640	0.088728	0.499795
Cl151	Cl	0.251909	-0.020439	-0.099254
Cl152	Cl	0.751909	0.479561	0.400746
Cl153	Cl	0.175635	0.262554	-0.000265
Cl154	Cl	0.675635	0.762554	0.499735
Cl155	Cl	0.837731	-0.056669	0.588725
Cl156	Cl	1.337731	0.443331	1.088725
H157	H	0.961955	-0.528039	-0.000253
H158	H	1.461955	-0.028039	0.499747
H159	H	0.906656	0.007407	0.814274
H160	H	1.406656	0.507407	1.314274
H161	H	0.491926	-0.022557	-0.000194
H162	H	0.991926	0.477443	0.499806
Cl163	Cl	0.194012	-0.059054	-0.000239
Cl164	Cl	0.694012	0.440946	0.499761
H165	H	0.817753	0.233307	0.428290
H166	H	1.317753	0.733307	0.928290
Cl167	Cl	0.707973	-0.471134	-0.000212
Cl168	Cl	1.207973	0.028866	0.499788
Cl169	Cl	0.926180	-0.016192	0.653860
Cl170	Cl	1.426180	0.483808	1.153860
H171	H	0.908534	-0.394387	-0.000264
H172	H	1.408534	0.105613	0.499736
H173	H	0.044583	-0.029935	-0.000318
H174	H	0.544583	0.470065	0.499682
Cl175	Cl	0.727165	0.224373	0.653932
Cl176	Cl	1.227165	0.724373	1.153932
H177	H	0.906616	0.007404	0.185228
H178	H	1.406616	0.507404	0.685228
Cl179	Cl	0.727138	0.224364	0.345705
Cl180	Cl	1.227138	0.724364	0.845705
H181	H	0.608719	0.238111	-0.000187
H182	H	1.108719	0.738111	0.499813
Cl183	Cl	0.959118	-0.136681	-0.000234
Cl184	Cl	1.459118	0.363319	0.499766
Cl185	Cl	0.945328	-0.320694	-0.000246
Cl186	Cl	1.445328	0.179306	0.499754
H187	H	0.835548	-0.025128	0.428314
H188	H	1.335548	0.474872	0.928314
H189	H	0.950869	-0.675953	-0.000254
H190	H	1.450869	-0.175953	0.499746
Cl191	Cl	0.401407	0.228621	0.098788
Cl192	Cl	0.901407	0.728621	0.598788
Cl193	Cl	0.694187	-0.655150	-0.000196
Cl194	Cl	1.194187	-0.155150	0.499804
H195	H	0.623494	-0.020396	-0.000150
H196	H	1.123494	0.479604	0.499850
