data_functionalizedCrystal
_audit_creation_method	'MofGen! by Chris Wilmer'
_symmetry_space_group_name_H-M	'P1'
_symmetry_Int_Tables_number	1
_symmetry_cell_setting	triclinic
loop_
_symmetry_equiv_pos_as_xyz
  x,y,z
_cell_length_a	14.560432
_cell_length_b	12.477989
_cell_length_c	12.478026
_cell_angle_alpha	67.745424
_cell_angle_beta	95.298650
_cell_angle_gamma	55.726874
loop_
_atom_site_label
_atom_site_type_symbol
_atom_site_fract_x
_atom_site_fract_y
_atom_site_fract_z
Zr1	Zr	0.813767	1.178113	-0.063990
O2	O	0.642124	1.402646	-0.221121
O3	O	0.874289	0.953577	-0.026032
O4	O	0.845123	1.178114	-0.235845
O5	O	0.685305	1.178109	0.165812
O6	O	0.996260	1.178119	-0.235845
O7	O	0.671290	1.178109	-0.011308
O8	O	1.048433	0.776463	0.139473
O9	O	0.633133	1.579766	-0.209507
O10	O	1.003343	1.045937	0.002493
O11	O	0.901010	1.045934	0.134675
O12	O	0.866671	1.310297	-0.112353
O13	O	0.764338	1.310294	0.019829
Zr14	Zr	1.077166	1.178121	0.218494
Zr15	Zr	1.054813	1.178121	-0.063990
Zr16	Zr	0.836120	1.178114	0.218495
Zr17	Zr	0.799427	1.460598	-0.045467
Zr18	Zr	1.091506	0.895636	0.199971
O19	O	1.016644	1.402658	0.180536
O20	O	0.984862	1.402657	-0.221121
O21	O	0.673907	1.402647	0.180536
O22	O	1.248809	0.953588	0.375626
O23	O	1.217026	0.953587	-0.026032
O24	O	0.906071	0.953578	0.375626
O25	O	1.205627	1.178125	-0.011308
O26	O	1.045810	1.178120	0.390349
O27	O	0.894673	1.178116	0.390350
O28	O	1.219643	1.178126	0.165812
O29	O	0.824733	1.579772	-0.209507
O30	O	1.066200	0.776463	0.364011
O31	O	1.257800	0.776469	0.364011
O32	O	1.240032	0.776468	0.139473
O33	O	0.650900	1.579766	0.015031
O34	O	0.842500	1.579772	0.015031
O35	O	1.024262	1.045937	0.266858
O36	O	1.126594	1.045940	0.134675
O37	O	0.989923	1.310301	0.019829
O38	O	0.887590	1.310298	0.152011
C39	C	0.963404	0.824772	0.054082
C40	C	0.969491	0.704849	0.046218
C41	C	0.643954	1.178108	0.077252
C42	C	0.541623	1.178105	0.077252
C43	C	0.684292	0.902110	0.197140
C44	C	0.707548	0.764117	0.257078
C45	C	0.611395	0.764123	0.257075
C46	C	0.491976	0.902138	0.197131
C47	C	0.468719	1.040130	0.137193
C48	C	0.564882	1.040109	0.137199
C49	C	0.326053	1.316122	0.017314
C50	C	0.422204	1.316119	0.017308
C51	C	0.206634	1.454137	-0.042630
C52	C	0.183375	1.592133	-0.102577
C53	C	0.279537	1.592121	-0.102573
C54	C	0.398947	1.454112	-0.042630
C55	C	1.246979	1.178126	0.077252
C56	C	1.349310	1.178130	0.077252
C57	C	0.917506	1.178116	-0.276093
C58	C	0.908017	1.178116	-0.396016
C59	C	0.927529	1.531463	0.100422
C60	C	0.921441	1.651385	0.108286
C61	C	0.973426	1.178118	0.430598
C62	C	0.982916	1.178118	0.550520
C63	C	1.264916	0.824781	0.054082
C64	C	1.373335	0.704862	0.046218
C65	C	0.991364	0.824773	0.407427
C66	C	1.006941	0.704851	0.519486
C67	C	1.292876	0.824782	0.407427
C68	C	1.410784	0.704863	0.519485
C69	C	0.598057	1.531453	-0.252923
C70	C	0.480149	1.651372	-0.364981
C71	C	0.626017	1.531454	0.100423
C72	C	0.517598	1.651373	0.108286
C73	C	0.899569	1.531462	-0.252923
C74	C	0.883992	1.651384	-0.364981
C75	C	1.078593	0.648536	0.641119
C76	C	1.093225	0.535872	0.746422
C77	C	1.036211	0.479518	0.730088
C78	C	0.964550	0.535843	0.608442
C79	C	0.949912	0.648513	0.503142
C80	C	0.941023	1.707703	-0.348608
C81	C	0.926410	1.820368	-0.453888
C82	C	0.854759	1.876719	-0.575542
C83	C	0.797728	1.820389	-0.591914
C84	C	0.812348	1.707719	-0.486634
C85	C	1.436926	0.550955	0.133707
C86	C	1.538788	0.438262	0.126321
C87	C	1.577062	0.479480	0.031451
C88	C	1.513460	0.633402	-0.056047
C89	C	1.411595	0.746091	-0.048666
C90	C	0.479358	1.610108	0.203171
C91	C	0.377500	1.722769	0.210586
C92	C	0.313879	1.876694	0.123109
C93	C	0.352127	1.917959	0.028219
C94	C	0.453988	1.805299	0.020811
H95	H	0.762591	0.902091	0.197138
Br96	Br	0.789034	1.178094	-0.472628
Br97	Br	1.565418	0.689315	-0.184795
H98	H	1.054307	1.178112	-0.403507
Br99	Br	0.076139	1.454149	-0.042621
H100	H	1.499455	0.658888	0.506305
H101	H	0.972853	1.866220	-0.440533
Br102	Br	1.264805	0.728002	0.656991
H103	H	0.765899	1.661876	-0.499984
Br104	Br	0.845094	0.728019	0.206872
Br105	Br	1.325297	0.954965	-0.167423
Br106	Br	1.155989	0.724985	0.663321
Br107	Br	1.625085	0.229383	0.245082
Br108	Br	1.056089	0.326608	0.873010
Br109	Br	0.565680	1.401219	0.321904
H110	H	1.660006	0.387706	0.025452
H111	H	1.015286	0.658878	-0.012945
Br112	Br	0.325615	1.666733	0.339371
Br113	Br	0.505865	1.861329	-0.107979
Br114	Br	0.265767	2.126866	-0.090492
H115	H	0.230938	1.968414	0.129155
H116	H	0.918133	0.489943	0.595161
Br117	Br	0.642954	0.576848	0.338429
Br118	Br	0.869618	0.576821	0.338460
H119	H	0.086143	1.704493	-0.151373
Br120	Br	0.361485	0.902144	0.197157
H121	H	0.260588	1.704492	-0.151365
H122	H	0.477249	1.454089	-0.042625
H123	H	1.151581	0.490025	0.845461
H124	H	0.891570	0.694349	0.404106
H125	H	0.739389	1.866287	-0.690978
Br126	Br	0.834928	2.029632	-0.718409
Br127	Br	1.385006	0.494976	0.262472
Br128	Br	1.038270	1.631252	-0.183519
