data_functionalizedCrystal
_audit_creation_method	'MofGen! by Chris Wilmer'
_symmetry_space_group_name_H-M	'P1'
_symmetry_Int_Tables_number	1
_symmetry_cell_setting	triclinic
loop_
_symmetry_equiv_pos_as_xyz
  x,y,z
_cell_length_a	17.639044
_cell_length_b	17.640280
_cell_length_c	13.032268
_cell_angle_alpha	87.294217
_cell_angle_beta	109.619377
_cell_angle_gamma	70.392877
loop_
_atom_site_label
_atom_site_type_symbol
_atom_site_fract_x
_atom_site_fract_y
_atom_site_fract_z
Zn1	Zn	1.319698	-0.588903	-0.080194
Zn2	Zn	1.364989	-0.709207	0.138794
Zn3	Zn	1.192332	-0.550686	0.050217
Zn4	Zn	1.209738	-0.698832	-0.080243
O5	O	1.271689	-0.636907	0.007144
O6	O	1.443981	-0.625197	-0.014055
O7	O	1.353755	-0.676526	0.273289
O8	O	1.182988	-0.443408	-0.004132
O9	O	1.477257	-0.713584	0.146835
O10	O	1.276563	-0.471486	-0.099944
O11	O	1.226905	-0.560062	0.208212
O12	O	1.076365	-0.550002	-0.004179
O13	O	1.212654	-0.695901	-0.226481
O14	O	1.089153	-0.658844	-0.100027
O15	O	1.293441	-0.615137	-0.226445
O16	O	1.370633	-0.820177	0.146787
O17	O	1.256571	-0.812555	-0.014138
C18	C	1.052092	-0.599151	-0.061721
C19	C	0.958150	-0.583020	-0.091199
C20	C	0.808428	-0.514357	-0.216584
C21	C	0.896703	-0.529520	-0.188874
C22	C	0.931338	-0.621374	-0.021192
C23	C	0.843064	-0.606216	-0.048884
C24	C	0.781615	-0.552707	-0.146582
C25	C	0.816251	-0.644566	0.021117
C26	C	0.727985	-0.629412	-0.006576
C27	C	0.666532	-0.575908	-0.104271
C28	C	0.693349	-0.537553	-0.174276
C29	C	0.877702	-0.698079	0.118811
C30	C	0.850889	-0.736430	0.188813
C31	C	0.762621	-0.721271	0.161123
C32	C	0.701168	-0.667767	0.063428
C33	C	0.735804	-0.759626	0.231128
C34	C	0.647537	-0.744472	0.203434
C35	C	0.612902	-0.652613	0.035735
C36	C	1.320427	-0.845502	0.075916
C37	C	1.341352	-0.934757	0.105326
C38	C	1.113042	-1.208527	-0.216555
C39	C	1.132708	-1.292392	-0.188886
C40	C	1.251537	-1.300287	-0.021429
C41	C	1.231884	-1.216421	-0.049087
C42	C	1.162634	-1.170547	-0.146651
C43	C	1.281476	-1.178441	0.020818
C44	C	1.261821	-1.094582	-0.006836
C45	C	1.192573	-1.048702	-0.104393
C46	C	1.142979	-1.086688	-0.174304
C47	C	1.350721	-1.224315	0.118385
C48	C	1.400314	-1.186335	0.188290
C49	C	1.380662	-1.102475	0.160633
C50	C	1.311415	-1.056596	0.063075
C51	C	1.430256	-1.064490	0.230544
C52	C	1.410601	-0.980630	0.202890
C53	C	1.291759	-0.972736	0.035422
C54	C	1.492144	-0.674811	0.076276
C55	C	1.586089	-0.690963	0.105736
C56	C	1.249937	-0.658625	-0.265443
C57	C	1.240668	-0.667880	-0.381603
C58	C	1.222782	-0.427502	-0.061913
C59	C	1.201941	-0.338266	-0.091341
C60	C	1.276507	-0.632045	-0.433373
C61	C	1.266928	-0.641610	-0.553431
C62	C	1.293391	-0.615223	0.278666
C63	C	1.302772	-0.605770	0.394802
H64	H	0.900932	-0.779998	0.268357
H65	H	0.949571	-0.710402	0.141368
O66	O	1.173488	-0.967225	-0.131071
C67	C	1.131583	-0.835197	-0.077362
C68	C	1.153196	-0.927454	-0.047002
H69	H	1.115153	-0.803013	-0.009421
H70	H	1.189932	-0.825307	-0.086068
H71	H	1.073597	-0.808963	-0.159127
H72	H	1.211157	-0.953749	0.034774
H73	H	1.094800	-0.937288	-0.038370
H74	H	1.202886	-0.705634	-0.426166
H75	H	1.056658	-1.171176	-0.296008
O76	O	1.221935	-0.686772	-0.606409
C77	C	1.210175	-0.818955	-0.607875
C78	C	1.261193	-0.767899	-0.547753
H79	H	1.241905	-0.884560	-0.560490
H80	H	1.140428	-0.791509	-0.612457
H81	H	1.210453	-0.818599	-0.695245
H82	H	1.260983	-0.768236	-0.460356
H83	H	1.330914	-0.795362	-0.543260
H84	H	1.235375	-0.935386	-0.044031
H85	H	0.981381	-0.664943	0.058352
H86	H	1.366724	-1.292599	0.140895
H87	H	1.456694	-1.223696	0.267728
H88	H	0.643312	-0.493971	-0.253822
H89	H	0.785848	-0.803198	0.310668
H90	H	1.086595	-1.049337	-0.253757
H91	H	0.562864	-0.609031	-0.043812
H92	H	1.314278	-0.594282	-0.388815
H93	H	1.092328	-1.323314	-0.245827
O94	O	0.922840	-0.492225	-0.256720
C95	C	0.995962	-0.402048	-0.275521
C96	C	0.966432	-0.444245	-0.198560
H97	H	1.031196	-0.363233	-0.228536
H98	H	1.041621	-0.450384	-0.304924
H99	H	0.936867	-0.361241	-0.350117
H100	H	1.025475	-0.485048	-0.123911
H101	H	0.920744	-0.395867	-0.169246
H102	H	1.307918	-1.337647	0.058010
O103	O	1.497599	-1.109120	0.325210
C104	C	1.634965	-1.222266	0.406161
C105	C	1.558768	-1.171780	0.298862
H106	H	1.684431	-1.272949	0.384899
H107	H	1.667106	-1.180768	0.451396
H108	H	1.609731	-1.250492	0.461640
H109	H	1.583932	-1.143547	0.243300
H110	H	1.526640	-1.213316	0.253714
O111	O	0.580823	-0.561332	-0.131135
C112	C	0.470022	-0.618703	-0.172242
C113	C	0.567112	-0.635328	-0.141795
H114	H	0.458903	-0.678514	-0.180893
H115	H	0.448545	-0.591426	-0.104393
H116	H	0.430727	-0.573842	-0.254067
H117	H	0.606474	-0.680207	-0.059999
H118	H	0.588519	-0.662563	-0.209711
H119	H	0.625707	-0.775702	0.260435
H120	H	1.450984	-0.949707	0.259815
H121	H	1.340544	-0.568002	-0.560647
H122	H	0.758391	-0.470775	-0.296130
