data_functionalizedCrystal
_audit_creation_method	'MofGen! by Chris Wilmer'
_symmetry_space_group_name_H-M	'P1'
_symmetry_Int_Tables_number	1
_symmetry_cell_setting	triclinic
loop_
_symmetry_equiv_pos_as_xyz
  x,y,z
_cell_length_a	19.805407
_cell_length_b	19.121063
_cell_length_c	19.805399
_cell_angle_alpha	92.411105
_cell_angle_beta	89.980427
_cell_angle_gamma	92.469032
loop_
_atom_site_label
_atom_site_type_symbol
_atom_site_fract_x
_atom_site_fract_y
_atom_site_fract_z
Zn1	Zn	1.023234	-0.279631	-0.394203
Zn2	Zn	1.018317	-0.397083	-0.285838
Zn3	Zn	0.910048	-0.279650	-0.281028
Zn4	Zn	0.905182	-0.397046	-0.398983
O5	O	0.964195	-0.338352	-0.340013
O6	O	1.117298	-0.295218	-0.379840
O7	O	1.003934	-0.381529	-0.190484
O8	O	0.929156	-0.181363	-0.292028
O9	O	1.113686	-0.381510	-0.300225
O10	O	1.012313	-0.181348	-0.375177
O11	O	0.924388	-0.295251	-0.186951
O12	O	0.814686	-0.295215	-0.296663
O13	O	0.920863	-0.381447	-0.493065
O14	O	0.811111	-0.381465	-0.383324
O15	O	1.007595	-0.295182	-0.489553
O16	O	0.999216	-0.495363	-0.304860
O17	O	0.916096	-0.495335	-0.387987
C18	C	0.788340	-0.338339	-0.339991
C19	C	0.713107	-0.338350	-0.339998
C20	C	0.675917	-0.383328	-0.385055
C21	C	0.605228	-0.383329	-0.385064
C22	C	0.571732	-0.338356	-0.340013
C23	C	0.608927	-0.293373	-0.294954
C24	C	0.679614	-0.293368	-0.294948
C25	C	0.323853	-0.293388	-0.294977
C26	C	0.253161	-0.293397	-0.294985
C27	C	0.249467	-0.383349	-0.385093
C28	C	0.320154	-0.383345	-0.385087
C29	C	0.357344	-0.338360	-0.340031
C30	C	0.433992	-0.338358	-0.340022
C31	C	0.495084	-0.338360	-0.340018
C32	C	0.956613	-0.520833	-0.347479
C33	C	0.953431	-0.598899	-0.350696
C34	C	0.995246	-0.635566	-0.308963
C35	C	0.992258	-0.708917	-0.311992
C36	C	0.947451	-0.745601	-0.356752
C37	C	0.905634	-0.708929	-0.398489
C38	C	0.908626	-0.635579	-0.395463
C39	C	0.936252	-0.967071	-0.368056
C40	C	0.933262	-1.040426	-0.371078
C41	C	1.019887	-1.040409	-0.284581
C42	C	1.022872	-0.967058	-0.281556
C43	C	0.981058	-0.930393	-0.323296
C44	C	0.944394	-0.820578	-0.359848
C45	C	0.984119	-0.855417	-0.320203
C46	C	1.140737	-0.338366	-0.340036
C47	C	1.215969	-0.338372	-0.340046
C48	C	0.964235	-0.338308	-0.516554
C49	C	0.964252	-0.338289	-0.591785
C50	C	0.971825	-0.155159	-0.332532
C51	C	0.975077	-0.077093	-0.329345
C52	C	1.009414	-0.293369	-0.625302
C53	C	1.009422	-0.293349	-0.695989
C54	C	0.964270	-0.338253	-0.733159
C55	C	0.919103	-0.383175	-0.699638
C56	C	0.919093	-0.383191	-0.628952
C57	C	0.919144	-0.383109	-0.984709
C58	C	0.919159	-0.383091	-1.055400
C59	C	1.009474	-0.293267	-1.051747
C60	C	1.009463	-0.293283	-0.981060
C61	C	0.964294	-0.338202	-0.947545
C62	C	0.964285	-0.338223	-0.870897
C63	C	0.964282	-0.338236	-0.809806
C64	C	0.964197	-0.338346	-0.164157
C65	C	0.964319	-0.338167	-0.088918
H66	H	0.347424	-0.419970	-0.421771
C67	C	0.856966	-0.748628	-0.447156
C68	C	0.821001	-0.700814	-0.483070
C69	C	0.776167	-0.737357	-0.527914
H70	H	0.826260	-0.777287	-0.422496
H71	H	0.881662	-0.777184	-0.477885
H72	H	0.796307	-0.672270	-0.452345
H73	H	0.851689	-0.672153	-0.507744
H74	H	0.800862	-0.765913	-0.558643
H75	H	0.745465	-0.766015	-0.503248
H76	H	0.751763	-0.704921	-0.552292
H77	H	1.059358	-0.937192	-0.245110
C78	C	1.058467	-0.244538	-0.585068
C79	C	1.098006	-0.205181	-0.629553
C80	C	1.143194	-0.160181	-0.592516
H81	H	1.086899	-0.271334	-0.558590
H82	H	1.033862	-0.213902	-0.556252
H83	H	1.122610	-0.235813	-0.658357
H84	H	1.069592	-0.178371	-0.656032
H85	H	1.118589	-0.129545	-0.563700
H86	H	1.171621	-0.186983	-0.566039
H87	H	1.170022	-0.133468	-0.622693
H88	H	0.225890	-0.256770	-0.258298
C89	C	1.058435	-0.244515	-1.088259
C90	C	1.048770	-0.254092	-1.158118
C91	C	1.093854	-0.209190	-1.191772
H92	H	1.103512	-0.254757	-1.077184
H93	H	1.050488	-0.197312	-1.074781
H94	H	1.056723	-0.301284	-1.171591
H95	H	1.003703	-0.243845	-1.169213
H96	H	1.085907	-0.161987	-1.178294
H97	H	1.138928	-0.219436	-1.180692
H98	H	1.087298	-0.215677	-1.239175
H99	H	0.882310	-0.419762	-0.601663
H100	H	0.882388	-0.419658	-1.085662
H101	H	1.046232	-0.256720	-0.950800
H102	H	1.026308	-0.738768	-0.278008
C103	C	0.209056	-0.432068	-0.434099
C104	C	0.170158	-0.392360	-0.475937
C105	C	0.132931	-0.437214	-0.521091
H106	H	0.180143	-0.462649	-0.409492
H107	H	0.239108	-0.458841	-0.460966
H108	H	0.140109	-0.365599	-0.449072
H109	H	0.199054	-0.361781	-0.500559
H110	H	0.162983	-0.463988	-0.547959
H111	H	0.104022	-0.467793	-0.496479
H112	H	0.106539	-0.410279	-0.549488
H113	H	1.046199	-0.256772	-0.723275
C114	C	0.870211	-0.431923	-0.948250
C115	C	0.906642	-0.476948	-0.909498
C116	C	0.861583	-0.521922	-0.875897
H117	H	0.843310	-0.458727	-0.980445
H118	H	0.841839	-0.405082	-0.919538
H119	H	0.935002	-0.503787	-0.938208
H120	H	0.933540	-0.450164	-0.877292
H121	H	0.833211	-0.495081	-0.847185
H122	H	0.834685	-0.548721	-0.908096
H123	H	0.886294	-0.552473	-0.849595
C124	C	1.065404	-1.080126	-0.239307
C125	C	1.133092	-1.062197	-0.253362
C126	C	1.175046	-1.098760	-0.211663
H127	H	1.057301	-1.129075	-0.247474
H128	H	1.056057	-1.068128	-0.193314
H129	H	1.142435	-1.074199	-0.299344
H130	H	1.141215	-1.013254	-0.245192
H131	H	1.165699	-1.086763	-0.165670
H132	H	1.166937	-1.147708	-0.219833
H133	H	1.220976	-1.086596	-0.221189
C134	C	0.364104	-0.244521	-0.245985
C135	C	0.319635	-0.205151	-0.206523
C136	C	0.356692	-0.160131	-0.161378
H137	H	0.392960	-0.213889	-0.270597
H138	H	0.390542	-0.271325	-0.217508
H139	H	0.293208	-0.178350	-0.234997
H140	H	0.290778	-0.235765	-0.181896
H141	H	0.383131	-0.186934	-0.132900
H142	H	0.385548	-0.129504	-0.185995
H143	H	0.326526	-0.133418	-0.134593
C144	C	0.870115	-0.432042	-0.739911
C145	C	0.881943	-0.501537	-0.725541
C146	C	0.836823	-0.546575	-0.762620
H147	H	0.876543	-0.425696	-0.786824
H148	H	0.825051	-0.421804	-0.727886
H149	H	0.926997	-0.511772	-0.737570
H150	H	0.875510	-0.507905	-0.678635
H151	H	0.791759	-0.536337	-0.750596
H152	H	0.843256	-0.540223	-0.809531
H153	H	0.844839	-0.593732	-0.752871
C154	C	0.863304	-0.595640	-0.440741
C155	C	0.875528	-0.523552	-0.428525
C156	C	0.833798	-0.486740	-0.470233
H157	H	0.817316	-0.607620	-0.431331
H158	H	0.872704	-0.607581	-0.486734
H159	H	0.866124	-0.511616	-0.382542
H160	H	0.921508	-0.511551	-0.437939
H161	H	0.843198	-0.498681	-0.516226
H162	H	0.787812	-0.498725	-0.460820
H163	H	0.842090	-0.437825	-0.461955
C164	C	0.712159	-0.432184	-0.434045
C165	C	0.664456	-0.471560	-0.473519
C166	C	0.697814	-0.516565	-0.518665
H167	H	0.738454	-0.462813	-0.409434
H168	H	0.740844	-0.405370	-0.462515
H169	H	0.635782	-0.498372	-0.445052
H170	H	0.638158	-0.440949	-0.498145
H171	H	0.726500	-0.489751	-0.547135
H172	H	0.724109	-0.547190	-0.494048
H173	H	0.665454	-0.543282	-0.545457
H174	H	0.581649	-0.256751	-0.258275
C175	C	0.564823	-0.432052	-0.434062
C176	C	0.525923	-0.392353	-0.475906
C177	C	0.488703	-0.437214	-0.521059
H178	H	0.535912	-0.462634	-0.409454
H179	H	0.594879	-0.458825	-0.460925
H180	H	0.495871	-0.365592	-0.449046
H181	H	0.554818	-0.361773	-0.500529
H182	H	0.518759	-0.463987	-0.547923
H183	H	0.459795	-0.467794	-0.496446
H184	H	0.462310	-0.410285	-0.549460
H185	H	1.031730	-0.605703	-0.272512
C186	C	0.719874	-0.244512	-0.245949
C187	C	0.675411	-0.205142	-0.206482
C188	C	0.712473	-0.160133	-0.161330
H189	H	0.748736	-0.213881	-0.270556
H190	H	0.746308	-0.271325	-0.217475
H191	H	0.648989	-0.178331	-0.234952
H192	H	0.646549	-0.235755	-0.181860
H193	H	0.738907	-0.186945	-0.132856
H194	H	0.741333	-0.129506	-0.185943
H195	H	0.682310	-0.133419	-0.134542
H196	H	0.896783	-1.070292	-0.407538
C197	C	1.032653	-0.815555	-0.271522
C198	C	0.996061	-0.773520	-0.226365
C199	C	1.040744	-0.736789	-0.181503
H200	H	1.063314	-0.786840	-0.296177
H201	H	1.057119	-0.847872	-0.247055
H202	H	0.971606	-0.741207	-0.250830
H203	H	0.965402	-0.802218	-0.201694
H204	H	1.065209	-0.769107	-0.157035
H205	H	1.071402	-0.708078	-0.206164
H206	H	1.015922	-0.708270	-0.150855
C207	C	0.895848	-0.860499	-0.408480
C208	C	0.932431	-0.902560	-0.453621
C209	C	0.887735	-0.939355	-0.498425
H210	H	0.871347	-0.828242	-0.432970
H211	H	0.865218	-0.889198	-0.383757
H212	H	0.963049	-0.873864	-0.478341
H213	H	0.956930	-0.934830	-0.429150
H214	H	0.857105	-0.968054	-0.473703
H215	H	0.863237	-0.907092	-0.522911
H216	H	0.912549	-0.967902	-0.529055
H217	H	0.902204	-0.937224	-0.402041
