data_functionalizedCrystal
_audit_creation_method	'MofGen! by Chris Wilmer'
_symmetry_space_group_name_H-M	'P1'
_symmetry_Int_Tables_number	1
_symmetry_cell_setting	triclinic
loop_
_symmetry_equiv_pos_as_xyz
  x,y,z
_cell_length_a	19.851628
_cell_length_b	14.395555
_cell_length_c	14.395555
_cell_angle_alpha	60.000749
_cell_angle_beta	90.004468
_cell_angle_gamma	59.999934
loop_
_atom_site_label
_atom_site_type_symbol
_atom_site_fract_x
_atom_site_fract_y
_atom_site_fract_z
Zr1	Zr	0.649000	1.016681	-0.121809
O2	O	0.541438	1.210488	-0.270154
O3	O	0.681970	0.822882	-0.076332
O4	O	0.681976	1.016669	-0.270128
O5	O	0.541432	1.016708	0.076509
O6	O	0.792837	1.016651	-0.270109
O7	O	0.541433	1.016701	-0.076358
O8	O	0.792828	0.670002	0.076556
O9	O	0.541441	1.363357	-0.270156
O10	O	0.778770	0.902578	-0.056925
O11	O	0.696035	0.902597	0.057145
O12	O	0.696041	1.130756	-0.171025
O13	O	0.613306	1.130775	-0.056956
Zr14	Zr	0.825810	1.016664	0.122026
Zr15	Zr	0.825812	1.016653	-0.121780
Zr16	Zr	0.648999	1.016692	0.121996
Zr17	Zr	0.649005	1.260491	-0.121813
Zr18	Zr	0.825805	0.772854	0.122030
O19	O	0.792840	1.210463	0.076548
O20	O	0.792842	1.210447	-0.270112
O21	O	0.541436	1.210504	0.076506
O22	O	0.933372	0.822857	0.270370
O23	O	0.933374	0.822841	-0.076290
O24	O	0.681969	0.822898	0.270328
O25	O	0.933378	1.016637	-0.076293
O26	O	0.792835	1.016676	0.270344
O27	O	0.681973	1.016694	0.270325
O28	O	0.933377	1.016644	0.076575
O29	O	0.681983	1.363335	-0.270133
O30	O	0.792827	0.670010	0.270349
O31	O	0.933369	0.669988	0.270373
O32	O	0.933370	0.669979	0.076580
O33	O	0.541440	1.363366	-0.076363
O34	O	0.681982	1.363343	-0.076340
O35	O	0.778769	0.902589	0.171242
O36	O	0.861505	0.902570	0.057172
O37	O	0.778775	1.130748	-0.056928
O38	O	0.696040	1.130767	0.057141
C39	C	0.737398	0.711704	0.000113
C40	C	0.737396	0.608201	0.000114
C41	C	0.692288	0.547619	0.062314
C42	C	0.659595	0.561876	-0.044967
C43	C	0.770069	0.409548	0.107362
C44	C	0.704658	0.623884	-0.107229
C45	C	0.815175	0.471494	0.045177
C46	C	0.782502	0.485797	-0.062167
C47	C	0.516241	1.016708	0.000071
C48	C	0.441179	1.016720	0.000059
C49	C	0.214727	1.141103	-0.062116
C50	C	0.192364	1.078910	-0.107191
C51	C	0.303773	1.016686	0.000091
C52	C	0.192394	1.078888	0.045146
C53	C	0.171041	1.016663	0.000122
C54	C	0.282399	0.954493	-0.045047
C55	C	0.282426	0.954488	0.107350
C56	C	0.260117	0.892204	0.062301
C57	C	0.380235	1.016704	0.000071
C58	C	0.094583	1.016636	0.000141
C59	C	0.958570	1.016637	0.000145
C60	C	1.033631	1.016625	0.000158
C61	C	0.737407	1.016659	-0.304855
C62	C	0.737407	1.016654	-0.408357
C63	C	0.737412	1.321641	0.000104
C64	C	0.737414	1.425144	0.000102
C65	C	0.782519	0.892241	-0.406733
C66	C	0.704725	0.954445	-0.499769
C67	C	0.815182	0.954456	-0.499750
C68	C	0.659568	1.078858	-0.500030
C69	C	0.770080	1.078851	-0.499996
C70	C	0.692240	1.141145	-0.593049
C71	C	0.737403	1.016686	0.305072
C72	C	0.737403	1.016691	0.408574
C73	C	0.958563	0.711669	0.000150
C74	C	1.033622	0.608153	0.000164
C75	C	0.737397	0.711718	0.305076
C76	C	0.737394	0.608219	0.408580
C77	C	0.958561	0.711682	0.305113
C78	C	1.033620	0.608171	0.408629
C79	C	0.516249	1.321663	-0.304897
C80	C	0.441190	1.425174	-0.408413
C81	C	0.516247	1.321676	0.000067
C82	C	0.441188	1.425192	0.000052
C83	C	0.737413	1.321627	-0.304860
C84	C	0.737416	1.425126	-0.408363
C85	C	1.025684	0.559545	-0.059397
C86	C	1.096203	0.462295	-0.059406
C87	C	1.174659	0.413647	0.000152
C88	C	1.182596	0.462265	0.059715
C89	C	1.112077	0.559520	0.059717
C90	C	1.112063	0.559552	0.397699
C91	C	1.182595	0.462306	0.494954
C92	C	1.174682	0.413675	0.603138
C93	C	1.096231	0.462304	0.614067
C94	C	1.025701	0.559555	0.516813
C95	C	0.362748	1.473805	-0.397482
C96	C	0.292216	1.571081	-0.494737
C97	C	0.300128	1.619717	-0.602922
C98	C	0.378579	1.571082	-0.613850
C99	C	0.449109	1.473814	-0.516596
C100	C	0.449126	1.473810	0.059603
C101	C	0.378607	1.571087	0.059586
C102	C	0.300151	1.619738	0.000024
C103	C	0.292214	1.571116	-0.059535
C104	C	0.362733	1.473847	-0.059523
C105	C	0.692280	0.547642	0.406959
C106	C	0.770075	0.409532	0.499992
C107	C	0.659622	0.561883	0.499978
C108	C	0.815234	0.471410	0.500250
C109	C	0.704725	0.623834	0.500222
C110	C	0.782566	0.485734	0.593272
H111	H	0.880930	0.434318	0.083329
H112	H	0.385085	1.610659	0.108090
H113	H	0.880960	0.901847	-0.500637
C114	C	0.222586	1.726731	0.000029
N115	N	0.164167	1.807315	0.000040
H116	H	0.961832	0.599128	0.525729
C117	C	0.807450	1.149810	-0.498663
N118	N	0.835606	1.203245	-0.497651
H119	H	0.153594	1.131499	0.083237
H120	H	0.820604	0.787042	-0.326965
C121	C	1.120786	0.613035	0.278704
N122	N	1.127364	0.653320	0.189080
C123	C	1.252276	0.306686	0.710110
N124	N	1.310723	0.226097	0.790677
H125	H	0.961807	0.599153	-0.107911
C126	C	0.285240	0.749972	0.133365
N127	N	0.304159	0.642846	0.186884
H128	H	0.677064	0.715493	0.499230
H129	H	0.228326	1.610743	-0.108028
H130	H	0.385012	1.610695	-0.701946
H131	H	1.089801	0.422694	0.702164
C132	C	0.640682	0.584438	0.133254
N133	N	0.601809	0.612180	0.186679
H134	H	1.246466	0.422722	0.486035
H135	H	0.593762	1.131409	-0.499220
C136	C	1.087455	0.408822	-0.124921
N137	N	1.080863	0.368546	-0.174263
C138	C	0.222534	1.726705	-0.709894
N139	N	0.164087	1.807282	-0.790461
H140	H	0.356289	1.434210	-0.309402
H141	H	0.196278	1.246304	-0.114797
C142	C	0.205927	1.624560	-0.482690
N143	N	0.140937	1.664837	-0.473613
C144	C	1.252224	0.306654	0.000147
N145	N	1.310643	0.226062	0.000144
C146	C	0.535395	1.420315	-0.528640
N147	N	0.600385	1.380022	-0.537719
H148	H	0.677084	0.901871	-0.500705
C149	C	0.535422	1.420318	0.125125
N150	N	0.600418	1.380041	0.174473
C151	C	0.353987	1.420363	-0.125023
N152	N	0.347393	1.380082	-0.174359
C153	C	0.904134	0.420895	0.499149
N154	N	0.971092	0.382848	0.498315
C155	C	0.334865	0.883544	0.229834
N156	N	0.374363	0.830129	0.322087
H157	H	0.654191	0.574729	0.327194
H158	H	0.593850	0.599066	0.500882
C159	C	0.807393	0.285791	0.229900
N160	N	0.835499	0.192584	0.322196
H161	H	0.654036	1.246434	-0.672685
H162	H	0.153556	1.131491	-0.197886
C163	C	0.834182	0.449204	0.700862
N164	N	0.873062	0.421680	0.781901
H165	H	1.246484	0.422642	0.108206
H166	H	0.593826	0.599070	-0.083092
H167	H	0.820647	0.458845	-0.114846
C168	C	0.667228	0.747588	-0.229823
N169	N	0.639032	0.840765	-0.322159
C170	C	0.334667	0.883510	-0.096657
N171	N	0.374035	0.830051	-0.135533
H172	H	1.118552	0.599084	0.108226
H173	H	0.797715	0.317907	0.500924
