data_functionalizedCrystal
_audit_creation_method	'MofGen! by Chris Wilmer'
_symmetry_space_group_name_H-M	'P1'
_symmetry_Int_Tables_number	1
_symmetry_cell_setting	triclinic
loop_
_symmetry_equiv_pos_as_xyz
  x,y,z
_cell_length_a	16.992694
_cell_length_b	9.016244
_cell_length_c	16.992695
_cell_angle_alpha	89.992842
_cell_angle_beta	89.331777
_cell_angle_gamma	89.996559
loop_
_atom_site_label
_atom_site_type_symbol
_atom_site_fract_x
_atom_site_fract_y
_atom_site_fract_z
O1	O	1.050848	0.123156	-0.166919
O2	O	0.822448	0.123199	-0.165088
O3	O	0.935732	0.123166	-0.051803
O4	O	0.937564	0.123189	-0.280203
O5	O	0.935727	-0.123515	-0.051794
O6	O	0.822442	-0.123481	-0.165079
O7	O	1.050842	-0.123525	-0.166910
Cu8	Cu	0.936642	-0.146027	-0.165993
Cu9	Cu	0.936649	0.145702	-0.166004
O10	O	0.937558	-0.123492	-0.280194
C11	C	0.793085	-0.000135	-0.162727
C12	C	0.705600	-0.000119	-0.155699
N13	N	0.936643	-0.351213	-0.165985
C14	C	0.659610	-0.000113	-0.223517
C15	C	0.577409	-0.000134	-0.216908
C16	C	0.541201	-0.000151	-0.142480
C17	C	0.587198	-0.000161	-0.074657
C18	C	0.669397	-0.000150	-0.081267
C19	C	0.295886	-0.000193	-0.115086
C20	C	0.213681	-0.000199	-0.108481
C21	C	0.203898	-0.000176	-0.250732
C22	C	0.286099	-0.000156	-0.257335
C23	C	0.332089	-0.000174	-0.189512
N24	N	0.457178	-0.000168	-0.135723
N25	N	0.416110	-0.000168	-0.196270
C26	C	0.997494	-0.586218	-0.105619
C27	C	0.997307	-0.414327	-0.105367
C28	C	0.853392	-0.413625	-0.142900
C29	C	0.853750	-0.585569	-0.142472
C30	C	0.958335	-0.585713	-0.249621
C31	C	0.960162	-0.413757	-0.249180
C32	C	1.080205	-0.000187	-0.169270
C33	C	1.167690	-0.000193	-0.176299
C34	C	0.933374	-0.000174	-0.022439
C35	C	0.926345	-0.000172	0.065046
N36	N	0.936653	0.350888	-0.166006
C37	C	0.939917	-0.000149	-0.309559
C38	C	0.946945	-0.000141	-0.397044
C39	C	0.994163	-0.000187	0.111037
C40	C	0.987554	-0.000171	0.193238
C41	C	0.913127	-0.000152	0.229446
C42	C	0.845303	-0.000133	0.183449
C43	C	0.851913	-0.000138	0.101250
C44	C	0.885732	-0.000126	0.474760
C45	C	0.879127	-0.000126	0.556966
C46	C	1.021379	-0.000161	0.566749
C47	C	1.027982	-0.000175	0.484547
C48	C	0.960159	-0.000148	0.438558
N49	N	0.906369	-0.000141	0.313468
N50	N	0.966917	-0.000149	0.354537
H51	H	0.539966	-0.000128	-0.272133
O52	O	0.321167	0.000062	-0.329684
C53	C	0.298097	0.127848	-0.371320
H54	H	0.239808	0.170419	-0.346282
H55	H	0.290794	0.099136	-0.436159
H56	H	0.345031	0.217318	-0.365188
H57	H	0.983283	-0.629448	-0.044032
O58	O	0.911297	-0.362343	-0.305824
C59	C	0.955360	-0.282697	-0.362532
H60	H	1.012337	-0.241785	-0.335211
H61	H	0.919606	-0.183721	-0.383682
H62	H	0.969766	-0.358179	-0.414556
H63	H	0.689084	-0.000099	-0.284124
O64	O	0.772960	-0.000307	0.218528
C65	C	0.731309	-0.128073	0.195487
H66	H	0.756331	-0.170674	0.137201
H67	H	0.666471	-0.099321	0.188194
H68	H	0.737442	-0.217535	0.242435
H69	H	1.021431	-0.372967	-0.266579
H70	H	0.166444	-0.000164	-0.305950
O71	O	1.066403	-0.000270	0.075741
C72	C	1.057698	-0.000234	-0.006673
H73	H	0.997476	-0.046928	-0.022104
H74	H	1.105634	-0.071860	-0.034780
H75	H	1.062947	0.118109	-0.029776
H76	H	0.184203	-0.000211	-0.047870
H77	H	1.018023	-0.629075	-0.270538
O78	O	0.979989	-0.365363	-0.031482
C79	C	0.905224	-0.418461	-0.008211
H80	H	0.869362	-0.445417	-0.062655
H81	H	0.873447	-0.329965	0.028022
H82	H	0.912405	-0.522933	0.028818
O83	O	0.819771	-0.000186	0.430210
C84	C	0.752666	-0.000142	0.479798
H85	H	0.768810	-0.046841	0.539830
H86	H	0.704831	-0.071760	0.452635
H87	H	0.730092	0.118205	0.487027
H88	H	0.914029	-0.626392	-0.294620
H89	H	0.557710	-0.000195	-0.014056
H90	H	1.042779	-0.000186	0.230680
O91	O	0.786058	0.000135	0.056537
C92	C	0.785642	0.127876	0.008675
H93	H	0.824014	0.217161	0.036219
H94	H	0.722813	0.170776	0.003410
H95	H	0.809759	0.098986	-0.052305
O96	O	1.100342	-0.000133	0.449504
C97	C	1.158785	-0.000186	0.507724
H98	H	1.133228	0.046536	0.564879
H99	H	1.210444	0.071406	0.487388
H100	H	1.179940	-0.118539	0.517983
H101	H	0.835426	-0.625693	-0.081335
H102	H	0.818517	-0.000134	0.586443
O103	O	0.340437	-0.000139	-0.049125
C104	C	0.290848	-0.000188	0.017981
H105	H	0.230819	0.046517	0.001836
H106	H	0.318015	0.071420	0.065816
H107	H	0.283613	-0.118538	0.040554
O108	O	0.713958	-0.000082	-0.015308
C109	C	0.664376	-0.000132	0.051801
H110	H	0.604343	0.046565	0.035661
H111	H	0.691544	0.071483	0.099633
H112	H	0.657146	-0.118481	0.074377
H113	H	1.059407	-0.627568	-0.119970
O114	O	1.070960	-0.364287	-0.122829
C115	C	1.094079	-0.416306	-0.197850
H116	H	1.058914	-0.520008	-0.212808
H117	H	1.159514	-0.444192	-0.197740
H118	H	1.082504	-0.326785	-0.243667
H119	H	0.806851	-0.627175	-0.184515
H120	H	0.806812	-0.372744	-0.185493
H121	H	1.076596	-0.000180	0.604202
O122	O	0.831193	-0.362035	-0.070789
C123	C	0.827977	-0.205809	-0.072519
H124	H	0.867230	-0.162736	-0.122352
H125	H	0.849352	-0.159713	-0.014072
H126	H	0.764750	-0.168652	-0.082531
