data_functionalizedCrystal
_audit_creation_method	'MofGen! by Chris Wilmer'
_symmetry_space_group_name_H-M	'P1'
_symmetry_Int_Tables_number	1
_symmetry_cell_setting	triclinic
loop_
_symmetry_equiv_pos_as_xyz
  x,y,z
_cell_length_a	14.971482
_cell_length_b	14.971487
_cell_length_c	14.048226
_cell_angle_alpha	89.997127
_cell_angle_beta	90.004294
_cell_angle_gamma	96.386495
loop_
_atom_site_label
_atom_site_type_symbol
_atom_site_fract_x
_atom_site_fract_y
_atom_site_fract_z
O1	O	1.186948	-0.116545	0.079147
O2	O	1.520281	0.216788	0.412480
O3	O	1.853614	0.550121	0.745813
O4	O	0.926547	-0.130508	0.079151
O5	O	1.259880	0.202826	0.412484
O6	O	1.593214	0.536159	0.745818
O7	O	1.063726	0.006674	0.079144
O8	O	1.397060	0.340007	0.412478
O9	O	1.730393	0.673340	0.745811
O10	O	1.049768	-0.253727	0.079154
O11	O	1.383102	0.079607	0.412487
O12	O	1.716435	0.412940	0.745820
O13	O	1.063713	0.006675	-0.079177
O14	O	1.397047	0.340008	0.254156
O15	O	1.730380	0.673342	0.587490
O16	O	0.926534	-0.130506	-0.079170
O17	O	1.259867	0.202827	0.254163
O18	O	1.593201	0.536160	0.587496
O19	O	1.186935	-0.116544	-0.079175
O20	O	1.520268	0.216789	0.254159
O21	O	1.853601	0.550123	0.587492
Zn22	Zn	1.056732	-0.123525	-0.104309
Zn23	Zn	1.390065	0.209808	0.229024
Zn24	Zn	1.723399	0.543142	0.562357
Zn25	Zn	1.056749	-0.123527	0.104286
Zn26	Zn	1.390083	0.209807	0.437619
Zn27	Zn	1.723416	0.543140	0.770953
O28	O	1.049755	-0.253725	-0.079168
O29	O	1.383088	0.079608	0.254166
O30	O	1.716422	0.412941	0.587499
C31	C	0.893216	-0.129883	-0.000009
C32	C	1.226549	0.203450	0.333324
C33	C	1.559882	0.536784	0.666658
C34	C	0.793918	-0.128014	-0.000007
C35	C	1.127252	0.205320	0.333326
C36	C	1.460585	0.538653	0.666659
C37	C	0.747267	-0.127133	-0.086309
C38	C	1.080600	0.206201	0.247024
C39	C	1.413933	0.539534	0.580357
C40	C	0.653968	-0.125362	-0.086310
C41	C	0.987302	0.207972	0.247023
C42	C	1.320635	0.541305	0.580356
C43	C	0.607322	-0.124479	-0.000008
C44	C	0.940656	0.208855	0.333325
C45	C	1.273989	0.542188	0.666658
C46	C	0.653981	-0.125357	0.086300
C47	C	0.987314	0.207976	0.419634
C48	C	1.320648	0.541310	0.752967
C49	C	0.747279	-0.127121	0.086300
C50	C	1.080612	0.206212	0.419634
C51	C	1.413945	0.539545	0.752967
C52	C	0.459519	-0.121682	0.086294
C53	C	0.792852	0.211652	0.419627
C54	C	1.126186	0.544985	0.752961
C55	C	0.366215	-0.119919	0.086294
C56	C	0.699548	0.213414	0.419628
C57	C	1.032882	0.546748	0.752961
C58	C	0.366209	-0.119922	-0.086317
C59	C	0.699542	0.213411	0.247017
C60	C	1.032875	0.546745	0.580350
C61	C	0.459506	-0.121687	-0.086317
C62	C	0.792840	0.211647	0.247017
C63	C	1.126173	0.544980	0.580350
C64	C	0.506158	-0.122567	-0.000008
C65	C	0.839492	0.210767	0.333326
C66	C	1.172825	0.544100	0.666659
C67	C	1.063096	0.039999	-0.000015
C68	C	1.396429	0.373332	0.333318
C69	C	1.729762	0.706666	0.666651
C70	C	1.061225	0.139296	-0.000013
C71	C	1.394558	0.472629	0.333320
C72	C	1.727891	0.805963	0.666654
C73	C	1.220266	-0.117168	-0.000012
C74	C	1.553599	0.216165	0.333321
C75	C	1.886933	0.549498	0.666654
C76	C	1.319563	-0.119038	-0.000008
C77	C	1.652896	0.214295	0.333326
C78	C	1.986230	0.547629	0.666659
N79	N	1.056727	-0.123523	-0.246670
N80	N	1.390060	0.209810	0.086663
N81	N	1.723394	0.543143	0.419997
C82	C	1.141814	0.196522	-0.000014
C83	C	1.475147	0.529856	0.333319
C84	C	1.808480	0.863189	0.666653
C85	C	1.140050	0.289822	-0.000003
C86	C	1.473384	0.623155	0.333331
C87	C	1.806717	0.956488	0.666664
C88	C	1.057697	0.325893	0.000003
C89	C	1.391030	0.659226	0.333336
C90	C	1.724364	0.992560	0.666670
C91	C	0.977102	0.268659	0.000007
C92	C	1.310435	0.601993	0.333340
C93	C	1.643768	0.935326	0.666673
C94	C	0.978866	0.175362	0.000002
C95	C	1.312199	0.508695	0.333336
C96	C	1.645533	0.842028	0.666669
C97	C	0.973430	0.463122	0.000014
C98	C	1.306763	0.796455	0.333347
C99	C	1.640097	1.129788	0.666680
C100	C	0.971665	0.556426	0.000016
C101	C	1.304999	0.889759	0.333350
C102	C	1.638332	1.223092	0.666683
C103	C	1.134615	0.577582	0.000009
C104	C	1.467948	0.910915	0.333342
C105	C	1.801281	1.244248	0.666675
C106	C	1.136379	0.484284	0.000004
C107	C	1.469712	0.817618	0.333338
C108	C	1.803046	1.150951	0.666671
C109	C	1.055783	0.427057	0.000006
C110	C	1.389116	0.760390	0.333340
C111	C	1.722450	1.093724	0.666673
C112	C	1.050385	0.712949	-0.000001
C113	C	1.383719	1.046283	0.333332
C114	C	1.717052	1.379616	0.666665
C115	C	1.052255	0.613652	0.000015
C116	C	1.385588	0.946985	0.333349
C117	C	1.718921	1.280319	0.666682
C118	C	1.111030	-0.177864	-0.296483
C119	C	1.444363	0.155469	0.036850
C120	C	1.777696	0.488803	0.370184
C121	C	1.111041	-0.177860	-0.396141
C122	C	1.444374	0.155473	-0.062807
C123	C	1.777708	0.488807	0.270526
C124	C	1.056744	-0.123520	-0.445983
C125	C	1.390078	0.209813	-0.112650
C126	C	1.723411	0.543147	0.220683
C127	C	1.002440	-0.069173	-0.396164
C128	C	1.335773	0.264160	-0.062830
C129	C	1.669106	0.597493	0.270503
C130	C	1.002434	-0.069173	-0.296508
C131	C	1.335767	0.264160	0.036826
C132	C	1.669100	0.597494	0.370159
C133	C	1.002454	-0.069179	-0.603878
C134	C	1.335788	0.264154	-0.270545
C135	C	1.669121	0.597487	0.062789
C136	C	1.002459	-0.069181	-0.703541
C137	C	1.335792	0.264153	-0.370207
C138	C	1.669126	0.597486	-0.036874
C139	C	1.111062	-0.177866	-0.703511
C140	C	1.444395	0.155467	-0.370177
C141	C	1.777729	0.488800	-0.036844
C142	C	1.111056	-0.177866	-0.603855
C143	C	1.444389	0.155467	-0.270521
C144	C	1.777723	0.488801	0.062812
C145	C	1.056750	-0.123520	-0.554042
C146	C	1.390083	0.209813	-0.220708
C147	C	1.723416	0.543146	0.112625
N148	N	1.056762	-0.123521	0.246647
N149	N	1.390095	0.209812	0.579980
N150	N	1.723428	0.543146	0.913313
H151	H	0.497482	-0.122411	-0.156591
H152	H	0.830815	0.210922	0.176742
H153	H	1.164149	0.544255	0.510075
F154	F	0.944675	-0.011342	-0.756585
F155	F	1.278008	0.321991	-0.423252
F156	F	1.611341	0.655325	-0.089919
H157	H	0.913242	0.128768	0.000004
H158	H	1.246575	0.462101	0.333337
H159	H	1.579908	0.795435	0.666670
F160	F	0.889454	0.307051	0.000024
F161	F	1.222788	0.640385	0.333357
F162	F	1.556121	0.973718	0.666690
F163	F	0.604338	-0.124390	0.178150
F164	F	0.937672	0.208944	0.511483
F165	F	1.271005	0.542277	0.844816
H166	H	0.785261	-0.127841	0.156576
H167	H	1.118594	0.205493	0.489910
H168	H	1.451928	0.538826	0.823243
F169	F	0.887650	0.402218	0.000018
F170	F	1.220984	0.735551	0.333352
F171	F	1.554317	1.068884	0.666685
H172	H	1.155265	-0.222119	-0.563275
H173	H	1.488598	0.111214	-0.229942
H174	H	1.821932	0.444548	0.103391
F175	F	1.168819	-0.235703	-0.243445
F176	F	1.502152	0.097630	0.089888
F177	F	1.835485	0.430964	0.423222
H178	H	0.328220	-0.119206	-0.156593
H179	H	0.661553	0.214128	0.176741
H180	H	0.994887	0.547461	0.510074
H181	H	1.205675	0.336412	-0.000006
H182	H	1.539008	0.669746	0.333328
H183	H	1.872341	1.003079	0.666661
F184	F	0.944645	-0.011329	-0.243494
F185	F	1.277978	0.322004	0.089840
F186	F	1.611311	0.655338	0.423173
H187	H	0.958234	-0.024924	-0.563323
H188	H	1.291567	0.308409	-0.229990
H189	H	1.624900	0.641742	0.103343
H190	H	1.200239	0.624181	0.000010
H191	H	1.533572	0.957514	0.333343
H192	H	1.866905	1.290848	0.666677
H193	H	1.155262	-0.222108	-0.436694
H194	H	1.488595	0.111226	-0.103360
H195	H	1.821928	0.444559	0.229973
H196	H	1.155277	-0.222120	-0.744073
H197	H	1.488610	0.111213	-0.410740
H198	H	1.821943	0.444547	-0.077406
F199	F	0.316573	-0.118978	0.178146
F200	F	0.649906	0.214356	0.511480
F201	F	0.983240	0.547689	0.844813
F202	F	0.944655	-0.011338	-0.449213
F203	F	1.277988	0.321995	-0.115880
F204	F	1.611322	0.655329	0.217454
F205	F	0.884016	0.594813	0.000021
F206	F	1.217349	0.928147	0.333355
F207	F	1.550682	1.261480	0.666688
H208	H	1.203438	0.454918	-0.000007
H209	H	1.536772	0.788252	0.333326
H210	H	1.870105	1.121585	0.666660
F211	F	1.229467	0.158142	-0.000029
F212	F	1.562800	0.491475	0.333304
F213	F	1.896134	0.824808	0.666638
F214	F	0.796902	-0.128079	-0.178165
F215	F	1.130235	0.205255	0.155168
F216	F	1.463568	0.538588	0.488501
H217	H	0.615990	-0.124629	-0.156586
H218	H	0.949324	0.208704	0.176747
H219	H	1.282657	0.542037	0.510080
F220	F	0.509168	-0.122615	0.178154
F221	F	0.842501	0.210718	0.511488
F222	F	1.175835	0.544052	0.844821
