data_functionalizedCrystal
_audit_creation_method	'MofGen! by Chris Wilmer'
_symmetry_space_group_name_H-M	'P1'
_symmetry_Int_Tables_number	1
_symmetry_cell_setting	triclinic
loop_
_symmetry_equiv_pos_as_xyz
  x,y,z
_cell_length_a	12.827893
_cell_length_b	16.625546
_cell_length_c	12.827885
_cell_angle_alpha	89.964876
_cell_angle_beta	89.980728
_cell_angle_gamma	90.022439
loop_
_atom_site_label
_atom_site_type_symbol
_atom_site_fract_x
_atom_site_fract_y
_atom_site_fract_z
Zn1	Zn	1.597618	-0.320963	-0.590810
Zn2	Zn	1.597491	-0.455817	-0.416054
Zn3	Zn	1.422860	-0.321002	-0.416084
Zn4	Zn	1.422823	-0.455757	-0.590754
O5	O	1.510198	-0.388385	-0.503425
O6	O	1.743837	-0.338861	-0.567639
O7	O	1.574287	-0.437976	-0.269822
O8	O	1.446110	-0.208165	-0.439297
O9	O	1.743744	-0.437937	-0.439247
O10	O	1.574505	-0.208136	-0.567668
O11	O	1.445987	-0.338928	-0.269843
O12	O	1.276619	-0.338869	-0.439243
O13	O	1.446048	-0.437835	-0.736997
O14	O	1.276592	-0.437873	-0.567572
O15	O	1.574469	-0.338802	-0.737039
O16	O	1.574252	-0.568642	-0.439192
O17	O	1.445925	-0.568598	-0.567544
C18	C	1.238688	-0.388370	-0.503405
C19	C	1.122535	-0.388382	-0.503422
C20	C	1.070765	-0.437449	-0.566825
C21	C	0.950714	-0.437464	-0.566844
C22	C	1.510099	-0.597876	-0.503382
C23	C	1.510152	-0.687497	-0.503398
C24	C	1.510335	-1.015673	-0.503507
C25	C	1.510281	-0.924364	-0.503479
C26	C	1.510243	-0.851588	-0.503452
C27	C	1.510190	-0.760274	-0.503425
C28	C	1.782768	-0.388401	-0.503446
C29	C	1.898921	-0.388408	-0.503455
C30	C	1.510269	-0.388308	-0.775996
C31	C	1.510299	-0.388275	-0.892149
C32	C	1.510326	-0.178076	-0.503492
C33	C	1.510380	-0.088455	-0.503521
C34	C	1.573853	-0.339261	-0.943954
C35	C	1.573886	-0.339225	-1.064004
C36	C	1.510187	-0.388404	-0.231915
C37	C	1.510359	-0.388210	-0.115763
H38	H	0.943436	-0.346401	-0.449166
H39	H	1.628236	-0.297321	-0.899429
C40	C	0.999613	-0.377166	-0.362996
C41	C	1.062409	-0.331690	-0.430141
H42	H	0.962504	-0.342165	-0.317747
H43	H	0.951576	-0.407937	-0.402778
H44	H	1.042179	-0.412228	-0.322913
H45	H	1.019842	-0.296632	-0.470230
H46	H	1.110451	-0.300905	-0.390354
H47	H	1.628300	-0.297265	-1.108555
C48	C	0.827912	-0.448718	-0.707294
C49	C	0.890621	-0.494174	-0.640131
H50	H	0.790818	-0.483731	-0.752543
H51	H	0.779862	-0.417953	-0.667524
H52	H	0.870534	-0.413651	-0.747375
H53	H	0.847998	-0.529238	-0.600043
H54	H	0.938677	-0.524953	-0.679904
C55	C	1.495867	-0.496616	-1.014982
C56	C	1.436878	-0.444897	-0.952240
H57	H	1.450537	-0.531577	-1.052070
H58	H	1.535729	-0.465859	-1.063037
H59	H	1.541328	-0.527496	-0.972383
H60	H	1.391422	-0.414012	-0.994840
H61	H	1.396998	-0.475657	-0.904179
C62	C	1.193710	-0.448677	-0.707231
C63	C	1.130904	-0.494147	-0.640089
H64	H	1.230840	-0.483683	-0.752457
H65	H	1.151159	-0.413629	-0.747330
H66	H	1.241740	-0.417893	-0.667438
H67	H	1.082869	-0.524927	-0.679882
H68	H	1.173459	-0.529210	-0.599986
H69	H	1.455950	-0.430178	-1.071218
