data_functionalizedCrystal
_audit_creation_method	'MofGen! by Chris Wilmer'
_symmetry_space_group_name_H-M	'P1'
_symmetry_Int_Tables_number	1
_symmetry_cell_setting	triclinic
loop_
_symmetry_equiv_pos_as_xyz
  x,y,z
_cell_length_a	15.297475
_cell_length_b	16.120484
_cell_length_c	15.296720
_cell_angle_alpha	101.986518
_cell_angle_beta	91.617114
_cell_angle_gamma	83.687474
loop_
_atom_site_label
_atom_site_type_symbol
_atom_site_fract_x
_atom_site_fract_y
_atom_site_fract_z
Zn1	Zn	1.212936	-0.646916	-0.755054
Zn2	Zn	1.712936	-0.146916	-0.255054
Zn3	Zn	1.230712	-0.766607	-0.613834
Zn4	Zn	1.730712	-0.266607	-0.113834
Zn5	Zn	1.094735	-0.600220	-0.581241
Zn6	Zn	1.594735	-0.100220	-0.081241
Zn7	Zn	1.059450	-0.758436	-0.734603
Zn8	Zn	1.559450	-0.258436	-0.234603
O9	O	1.149458	-0.693045	-0.671183
O10	O	1.649458	-0.193045	-0.171183
O11	O	1.336436	-0.685755	-0.758520
O12	O	1.836436	-0.185755	-0.258520
O13	O	1.234881	-0.728412	-0.486227
O14	O	1.734881	-0.228412	0.013773
O15	O	1.117742	-0.490110	-0.599215
O16	O	1.617742	0.009890	-0.099215
O17	O	1.349496	-0.773691	-0.654766
O18	O	1.849496	-0.273691	-0.154766
O19	O	1.204584	-0.524417	-0.726915
O20	O	1.704584	-0.024417	-0.226915
O21	O	1.134979	-0.606169	-0.462280
O22	O	1.634979	-0.106169	0.037720
O23	O	0.968913	-0.598246	-0.579385
O24	O	1.468913	-0.098246	-0.079385
O25	O	1.057604	-0.759766	-0.860600
O26	O	1.557604	-0.259766	-0.360600
O27	O	0.942989	-0.714486	-0.692060
O28	O	1.442989	-0.214486	-0.192060
O29	O	1.170370	-0.677833	-0.875625
O30	O	1.670370	-0.177833	-0.375625
O31	O	1.200666	-0.881827	-0.634936
O32	O	1.700666	-0.381827	-0.134936
O33	O	1.074840	-0.875825	-0.723665
O34	O	1.574840	-0.375825	-0.223665
C35	C	0.924540	-0.650413	-0.629967
C36	C	1.424540	-0.150413	-0.129967
C37	C	0.828314	-0.632198	-0.612357
C38	C	1.328314	-0.132198	-0.112357
C39	C	0.503218	-0.823238	-0.797050
C40	C	1.003218	-0.323238	-0.297050
C41	C	0.593627	-0.840358	-0.813594
C42	C	1.093627	-0.340358	-0.313594
C43	C	0.652303	-0.788320	-0.763286
C44	C	1.152303	-0.288320	-0.263286
C45	C	0.620561	-0.719158	-0.696432
C46	C	1.120561	-0.219158	-0.196432
C47	C	0.530143	-0.702040	-0.679882
C48	C	1.030143	-0.202040	-0.179882
C49	C	0.679229	-0.667122	-0.646118
C50	C	1.179229	-0.167122	-0.146118
C51	C	0.647487	-0.597960	-0.579263
C52	C	1.147487	-0.097960	-0.079263
C53	C	0.557078	-0.580845	-0.562717
C54	C	1.057078	-0.080845	-0.062717
C55	C	0.498402	-0.632884	-0.613024
C56	C	0.998402	-0.132884	-0.113024
C57	C	0.769646	-0.684239	-0.662668
C58	C	1.269646	-0.184239	-0.162668
C59	C	0.796572	-0.563041	-0.545499
C60	C	1.296572	-0.063041	-0.045499
C61	C	0.706162	-0.545921	-0.528956
C62	C	1.206162	-0.045921	-0.028956
C63	C	1.135873	-0.908989	-0.680642
C64	C	1.635873	-0.408989	-0.180642
C65	C	1.130135	-1.001390	-0.684732
C66	C	1.630135	-0.501390	-0.184732
C67	C	1.119661	-1.170572	-0.692219
C68	C	1.619661	-0.670572	-0.192219
C69	C	1.179408	-1.214709	-0.650189
C70	C	1.679408	-0.714709	-0.150189
C71	C	1.173580	-1.308847	-0.654355
C72	C	1.673580	-0.808847	-0.154355
C73	C	1.125488	-1.076425	-0.688054
C74	C	1.625488	-0.576425	-0.188054
C75	C	1.375255	-0.735844	-0.712560
C76	C	1.875255	-0.235844	-0.212560
C77	C	1.471476	-0.754082	-0.730193
C78	C	1.971476	-0.254082	-0.230193
C79	C	1.108068	-0.723097	-0.900972
C80	C	1.608068	-0.223097	-0.400972
C81	C	1.090430	-0.735903	-0.998895
C82	C	1.590430	-0.235903	-0.498895
C83	C	1.163116	-0.476264	-0.661711
C84	C	1.663116	0.023736	-0.161711
C85	C	1.168937	-0.383885	-0.657674
C86	C	1.668937	0.116115	-0.157674
C87	C	1.275562	-0.601377	-1.306214
C88	C	1.775562	-0.101377	-0.806214
C89	C	1.292140	-0.589347	-1.214212
C90	C	1.792140	-0.089347	-0.714212
C91	C	1.241714	-0.625985	-1.160378
C92	C	1.741714	-0.125985	-0.660378
C93	C	1.174707	-0.674655	-1.198556
C94	C	1.674707	-0.174655	-0.698556
C95	C	1.158133	-0.686691	-1.290568
C96	C	1.658133	-0.186691	-0.790568
C97	C	1.124284	-0.711299	-1.144732
C98	C	1.624284	-0.211299	-0.644732
C99	C	1.057278	-0.759969	-1.182909
C100	C	1.557278	-0.259969	-0.682909
C101	C	1.040706	-0.772003	-1.274912
C102	C	1.540706	-0.272003	-0.774912
C103	C	1.091132	-0.735365	-1.328746
C104	C	1.591132	-0.235365	-0.828746
C105	C	1.140858	-0.699263	-1.052720
C106	C	1.640858	-0.199263	-0.552720
C107	C	1.023429	-0.784577	-1.037073
C108	C	1.523429	-0.284577	-0.537073
C109	C	1.006852	-0.796607	-1.129075
C110	C	1.506852	-0.296607	-0.629075
C111	C	1.190741	-0.663059	-0.442294
C112	C	1.690741	-0.163059	0.057706
C113	C	1.208562	-0.650051	-0.344393
C114	C	1.708562	-0.150051	0.155607
H115	H	0.725918	-0.802263	-0.776760
H116	H	1.225918	-0.302263	-0.276760
H117	H	1.255215	-0.616187	-1.085467
H118	H	1.755215	-0.116187	-0.585467
H119	H	0.844347	-0.520668	-0.504533
H120	H	1.344347	-0.020668	-0.004533
N121	N	1.050003	-1.211864	-0.741264
N122	N	1.550003	-0.711864	-0.241264
N123	N	0.997521	-1.245895	-0.702210
N124	N	1.497521	-0.745895	-0.202210
H125	H	0.948324	-1.275067	-0.736844
H126	H	1.448324	-0.775067	-0.236844
N127	N	1.209292	-0.649536	-1.013741
N128	N	1.709292	-0.149536	-0.513741
N129	N	1.206528	-0.573102	-1.019624
N130	N	1.706528	-0.073102	-0.519624
H131	H	1.254862	-0.537977	-0.992097
H132	H	1.754862	-0.037977	-0.492097
H133	H	1.346698	-0.549722	-1.183136
H134	H	1.846698	-0.049722	-0.683136
N135	N	1.327066	-0.563974	-1.361217
N136	N	1.827066	-0.063974	-0.861217
N137	N	1.312261	-0.574735	-1.443365
N138	N	1.812261	-0.074735	-0.943365
H139	H	1.348640	-0.548319	-1.482214
H140	H	1.848640	-0.048319	-0.982214
N141	N	0.406050	-0.615392	-0.596115
N142	N	0.906050	-0.115392	-0.096115
N143	N	0.376968	-0.616021	-0.520734
N144	N	0.876968	-0.116021	-0.020734
H145	H	0.311743	-0.603664	-0.508793
H146	H	0.811743	-0.103664	-0.008793
H147	H	1.077639	-0.745157	-1.403662
H148	H	1.577639	-0.245157	-0.903662
N149	N	1.249050	-1.173409	-0.601108
N150	N	1.749050	-0.673409	-0.101108
N151	N	1.253736	-1.095882	-0.597736
N152	N	1.753736	-0.595882	-0.097736
H153	H	1.302912	-1.066706	-0.563065
H154	H	1.802912	-0.566706	-0.063065
N155	N	0.524669	-0.510207	-0.494412
N156	N	1.024669	-0.010207	0.005588
N157	N	0.577062	-0.463752	-0.449497
N158	N	1.077062	0.036248	0.050503
H159	H	0.554176	-0.413863	-0.401255
H160	H	1.054176	0.086137	0.098745
H161	H	0.986152	-0.811641	-1.305994
H162	H	1.486152	-0.311641	-0.805994
H163	H	0.680305	-0.489610	-0.474522
H164	H	1.180305	0.010390	0.025478
N165	N	0.938410	-0.846315	-1.168091
N166	N	1.438410	-0.346315	-0.668091
N167	N	0.923622	-0.857048	-1.250240
N168	N	1.423622	-0.357048	-0.750240
H169	H	0.875284	-0.892154	-1.277797
H170	H	1.375284	-0.392154	-0.777797
N171	N	0.971912	-0.821988	-0.982079
N172	N	1.471912	-0.321988	-0.482079
N173	N	0.927841	-0.775567	-0.919355
N174	N	1.427841	-0.275567	-0.419355
H175	H	0.891461	-0.801986	-0.880510
H176	H	1.391461	-0.301986	-0.380510
N177	N	0.802066	-0.754889	-0.730944
N178	N	1.302066	-0.254889	-0.230944
N179	N	0.788225	-0.828880	-0.726472
N180	N	1.288225	-0.328880	-0.226472
H181	H	0.811121	-0.878781	-0.774696
H182	H	1.311121	-0.378781	-0.274696
N183	N	0.626035	-0.911005	-0.881879
N184	N	1.126035	-0.411005	-0.381879
N185	N	0.573641	-0.957462	-0.926790
N186	N	1.073641	-0.457462	-0.426790
H187	H	0.596527	-1.007360	-0.975021
H188	H	1.096527	-0.507360	-0.475021
N189	N	0.443273	-0.876385	-0.848416
N190	N	0.943273	-0.376385	-0.348416
N191	N	0.362552	-0.861094	-0.833625
N192	N	0.862552	-0.361094	-0.333625
H193	H	0.320213	-0.898633	-0.869904
H194	H	0.820213	-0.398633	-0.369904
