data_functionalizedCrystal
_audit_creation_method	'MofGen! by Chris Wilmer'
_symmetry_space_group_name_H-M	'P1'
_symmetry_Int_Tables_number	1
_symmetry_cell_setting	triclinic
loop_
_symmetry_equiv_pos_as_xyz
  x,y,z
_cell_length_a	14.044191
_cell_length_b	13.101018
_cell_length_c	14.044220
_cell_angle_alpha	86.335600
_cell_angle_beta	93.190327
_cell_angle_gamma	93.666878
loop_
_atom_site_label
_atom_site_type_symbol
_atom_site_fract_x
_atom_site_fract_y
_atom_site_fract_z
O1	O	1.281983	0.085170	0.225382
O2	O	1.781983	0.585170	0.725382
O3	O	1.005311	0.085182	0.217069
O4	O	1.505311	0.585182	0.717069
O5	O	1.139494	0.085166	0.082890
O6	O	1.639494	0.585166	0.582890
O7	O	1.147800	0.085186	0.359561
O8	O	1.647800	0.585186	0.859561
O9	O	1.129855	-0.085263	0.092525
O10	O	1.629855	0.414737	0.592525
O11	O	0.995672	-0.085247	0.226704
O12	O	1.495672	0.414753	0.726704
O13	O	1.272344	-0.085260	0.235017
O14	O	1.772344	0.414740	0.735017
Zn15	Zn	1.132478	-0.112313	0.232390
Zn16	Zn	1.632478	0.387687	0.732390
Zn17	Zn	1.145177	0.112235	0.219695
Zn18	Zn	1.645177	0.612235	0.719695
O19	O	1.138162	-0.085243	0.369196
O20	O	1.638162	0.414757	0.869196
C21	C	0.964870	-0.000031	0.218250
C22	C	1.464870	0.499969	0.718250
C23	C	0.858727	-0.000026	0.207402
C24	C	1.358727	0.499974	0.707402
N25	N	1.123818	-0.265560	0.241054
N26	N	1.623818	0.234440	0.741054
C27	C	0.613268	-0.000032	0.264503
C28	C	1.113268	0.499968	0.764503
C29	C	0.664393	-0.000036	0.187587
C30	C	1.164393	0.499964	0.687587
C31	C	0.772531	-0.000031	0.198615
C32	C	1.272531	0.499969	0.698615
C33	C	0.505121	-0.000038	0.253476
C34	C	1.005121	0.499962	0.753476
C35	C	1.165622	-0.525475	0.199233
C36	C	1.665622	-0.025475	0.699233
C37	C	1.112043	-0.474596	0.252843
C38	C	1.612043	0.025404	0.752843
C39	C	1.118596	-0.358278	0.246282
C40	C	1.618596	0.141722	0.746282
C41	C	1.159070	-0.641804	0.205793
C42	C	1.659070	-0.141804	0.705793
C43	C	1.312785	-0.000044	0.233836
C44	C	1.812785	0.499956	0.733836
C45	C	1.418929	-0.000042	0.244683
C46	C	1.918929	0.499958	0.744683
C47	C	1.131038	-0.000049	0.052086
C48	C	1.631038	0.499951	0.552086
C49	C	1.120194	-0.000050	-0.054057
C50	C	1.620194	0.499950	0.445943
N51	N	1.153844	0.265483	0.211025
N52	N	1.653844	0.765483	0.711025
C53	C	1.100368	-0.000034	-0.248396
C54	C	1.600368	0.499966	0.251604
C55	C	1.177283	-0.000034	-0.299524
C56	C	1.677283	0.499966	0.200476
C57	C	1.166252	-0.000026	-0.407661
C58	C	1.666252	0.499974	0.092339
C59	C	1.111398	-0.000043	-0.140250
C60	C	1.611398	0.499957	0.359750
C61	C	1.146617	-0.000026	0.400000
C62	C	1.646617	0.499974	0.900000
C63	C	1.157462	-0.000019	0.506143
C64	C	1.657462	0.499981	1.006143
H65	H	0.626954	0.000031	0.113451
H66	H	1.126954	0.500031	0.613451
C67	C	1.277430	-0.000062	-0.248950
C68	C	1.777430	0.499938	0.251050
H69	H	1.271804	-0.000079	-0.181849
H70	H	1.771804	0.499921	0.318151
H71	H	1.314507	0.059363	-0.270240
H72	H	1.814507	0.559363	0.229760
H73	H	1.307754	-0.059509	-0.263544
H74	H	1.807754	0.440491	0.236456
H75	H	1.026241	-0.000028	-0.285836
H76	H	1.526241	0.499972	0.214164
H77	H	0.650710	-0.000024	0.338629
H78	H	1.150710	0.499976	0.838629
H79	H	1.061253	-0.518395	0.303669
H80	H	1.561253	-0.018395	0.803669
H81	H	1.216410	-0.481681	0.148412
H82	H	1.716410	0.018319	0.648412
