data_functionalizedCrystal
_audit_creation_method	'MofGen! by Chris Wilmer'
_symmetry_space_group_name_H-M	'P1'
_symmetry_Int_Tables_number	1
_symmetry_cell_setting	triclinic
loop_
_symmetry_equiv_pos_as_xyz
  x,y,z
_cell_length_a	16.994735
_cell_length_b	21.395362
_cell_length_c	21.395361
_cell_angle_alpha	90.046585
_cell_angle_beta	90.037095
_cell_angle_gamma	90.022497
loop_
_atom_site_label
_atom_site_type_symbol
_atom_site_fract_x
_atom_site_fract_y
_atom_site_fract_z
Zn1	Zn	-0.446386	-0.957727	0.249149
Zn2	Zn	-0.314470	-0.957669	0.353938
Zn3	Zn	-0.314450	-0.852981	0.249207
Zn4	Zn	-0.446287	-0.852911	0.353922
O5	O	-0.380398	-0.905322	0.301554
O6	O	-0.428936	-1.045397	0.263032
O7	O	-0.204086	-0.943786	0.340075
O8	O	-0.331985	-0.866929	0.161521
O9	O	-0.332019	-1.045354	0.340020
O10	O	-0.428917	-0.943886	0.161479
O11	O	-0.204072	-0.866873	0.263130
O12	O	-0.331889	-0.765294	0.263115
O13	O	-0.556681	-0.866810	0.339993
O14	O	-0.428749	-0.765242	0.340049
O15	O	-0.556754	-0.943818	0.263017
O16	O	-0.331923	-0.943719	0.441613
O17	O	-0.428768	-0.866754	0.441602
C18	C	-0.380307	-0.742534	0.301587
C19	C	-0.380286	-0.672893	0.301616
C20	C	-0.675459	-0.905322	0.301480
C21	C	-0.586137	-0.905317	0.301502
Zn22	Zn	-0.946303	-0.957428	0.354141
Zn23	Zn	-0.814468	-0.852606	0.353443
Zn24	Zn	-0.814453	-0.958184	0.249438
Zn25	Zn	-0.946371	-0.853509	0.248647
O26	O	-0.880399	-0.905432	0.301417
O27	O	-0.928792	-0.942829	0.441724
O28	O	-0.704085	-0.866549	0.339685
O29	O	-0.831908	-1.045759	0.263950
O30	O	-0.831934	-0.865816	0.441211
O31	O	-0.928778	-1.045204	0.340875
O32	O	-0.704074	-0.944116	0.263273
O33	O	-0.831975	-0.944993	0.161657
O34	O	-1.056743	-0.867357	0.262602
O35	O	-0.928894	-0.868089	0.161076
O36	O	-1.056693	-0.943705	0.340108
O37	O	-0.832000	-0.765050	0.338918
O38	O	-0.928909	-0.765714	0.261926
C39	C	-0.175458	-0.905366	0.301561
C40	C	-0.086137	-0.905494	0.301405
C41	C	-0.380354	-0.905239	0.464342
C42	C	-0.380362	-0.905261	0.533983
C43	C	-0.380491	-1.068745	0.301521
C44	C	-0.380530	-1.138386	0.301507
C45	C	-0.430646	-0.640169	0.341729
C46	C	-0.430681	-0.574734	0.341713
C47	C	-0.380343	-0.542025	0.301592
C48	C	-0.329980	-0.574756	0.261472
C49	C	-0.329951	-0.640190	0.261484
C50	C	-0.309332	-0.438321	0.296560
C51	C	-0.309359	-0.372888	0.296552
C52	C	-0.380430	-0.340204	0.301551
C53	C	-0.451476	-0.372961	0.306571
C54	C	-0.451448	-0.438395	0.306583
C55	C	-0.380368	-0.471072	0.301574
C56	C	-0.430831	-0.236528	0.341649
C57	C	-0.430868	-0.171091	0.341630
C58	C	-0.330160	-0.171115	0.261391
C59	C	-0.330130	-0.236550	0.261408
C60	C	-0.380465	-0.269253	0.301540
C61	C	-0.380460	-0.905422	0.138131
C62	C	-0.380486	-0.905465	0.068489
C63	C	-0.329986	-0.945372	0.566681
C64	C	-0.330004	-0.945401	0.632116
C65	C	-0.380389	-0.905308	0.664851
C66	C	-0.430775	-0.865194	0.632145
C67	C	-0.430761	-0.865171	0.566711
C68	C	-0.386546	-0.848892	0.768581
C69	C	-0.386554	-0.848914	0.834014
C70	C	-0.380435	-0.905381	0.866672
C71	C	-0.374292	-0.961827	0.833889
C72	C	-0.374278	-0.961804	0.768455
C73	C	-0.380410	-0.905330	0.735803
C74	C	-0.330076	-0.945527	0.970323
C75	C	-0.330099	-0.945557	1.035759
C76	C	-0.430866	-0.865345	1.035786
C77	C	-0.430847	-0.865320	0.970351
C78	C	-0.380448	-0.905411	0.937623
C79	C	-0.880145	-0.906486	0.138634
C80	C	-0.879299	-0.906322	0.068997
C81	C	-0.880462	-0.742649	0.300262
C82	C	-0.880465	-0.673010	0.299786
C83	C	-0.880204	-0.904259	0.464837
C84	C	-0.879731	-0.904069	0.534477
C85	C	-0.880334	-1.068850	0.302578
C86	C	-0.880306	-1.138489	0.303073
C87	C	-0.929290	-0.866143	0.036006
C88	C	-0.928512	-0.865990	-0.029426
C89	C	-0.877737	-0.906013	-0.061865
C90	C	-0.827743	-0.946196	-0.028869
C91	C	-0.828526	-0.946352	0.036561
C92	C	-0.830053	-0.639979	0.339686
C93	C	-0.830057	-0.574546	0.339252
C94	C	-0.880470	-0.542144	0.298914
C95	C	-0.930887	-0.575180	0.259012
C96	C	-0.930887	-0.640612	0.259450
C97	C	-0.929944	-0.944076	0.567451
C98	C	-0.929515	-0.943897	0.632886
C99	C	-0.878869	-0.903714	0.665345
C100	C	-0.828654	-0.863702	0.632366
C101	C	-0.829087	-0.863879	0.566933
C102	C	-0.829858	-1.171485	0.263250
C103	C	-0.829832	-1.236918	0.263702
C104	C	-0.880251	-1.269355	0.303981
C105	C	-0.930704	-1.236354	0.343806
C106	C	-0.930733	-1.170922	0.343350
H107	H	-0.471634	-0.666792	0.374407
H108	H	-0.288943	-0.666833	0.228818
H109	H	-0.877107	-0.905880	-0.115143
O110	O	-0.780226	-0.824998	0.535002
C111	C	-0.680163	-0.745420	0.541410
C112	C	-0.735448	-0.789433	0.577645
H113	H	-0.643958	-0.716644	0.575871
H114	H	-0.639056	-0.774217	0.510699
H115	H	-0.716595	-0.712783	0.510827
H116	H	-0.699080	-0.822079	0.608262
H117	H	-0.776558	-0.760596	0.608316
O118	O	-0.392560	-0.794032	0.865759
C119	C	-0.404683	-0.682032	0.858975
C120	C	-0.397906	-0.744144	0.822948
H121	H	-0.408990	-0.641681	0.824379
H122	H	-0.459579	-0.682937	0.889558
H123	H	-0.350437	-0.675497	0.889667
H124	H	-0.452111	-0.750719	0.792222
H125	H	-0.342977	-0.743211	0.792405
O126	O	-0.780775	-1.269035	0.225107
C127	C	-0.674206	-1.342875	0.217239
C128	C	-0.729727	-1.306556	0.261016
H129	H	-0.632909	-1.373209	0.246254
H130	H	-0.710362	-1.373826	0.184681
H131	H	-0.638208	-1.308436	0.188366
H132	H	-0.765737	-1.340949	0.289929
H133	H	-0.693526	-1.275595	0.293532
H134	H	-0.391532	-0.802906	0.741997
H135	H	-0.251454	-0.464927	0.292487
O136	O	-0.880590	-0.478582	0.298545
C137	C	-0.956217	-0.384578	0.313901
C138	C	-0.956192	-0.456560	0.314354
H139	H	-1.017339	-0.366751	0.326669
H140	H	-0.911568	-0.366506	0.349369
H141	H	-0.939767	-0.367188	0.265281
H142	H	-0.972662	-0.474003	0.362949
H143	H	-1.000825	-0.474590	0.278853
O144	O	-0.878526	-0.903647	0.728908
C145	C	-0.933287	-0.947383	0.823084
C146	C	-0.933741	-0.947528	0.751101
H147	H	-0.977936	-0.982847	0.841050
H148	H	-0.872106	-0.960343	0.840685
H149	H	-0.949522	-0.898810	0.840809
H150	H	-0.917541	-0.996086	0.733324
H151	H	-0.994929	-0.934533	0.733543
H152	H	-0.971812	-1.144062	0.375782
H153	H	-0.471693	-0.548085	0.374378
O154	O	-0.778334	-0.984978	-0.060413
C155	C	-0.671010	-0.993271	-0.133493
C156	C	-0.726907	-0.949285	-0.097794
H157	H	-0.629427	-0.964432	-0.163734
H158	H	-0.635347	-1.022008	-0.098709
H159	H	-0.706919	-1.025946	-0.164500
H160	H	-0.691059	-0.916572	-0.066786
H161	H	-0.762572	-0.920592	-0.132612
H162	H	-0.788998	-0.547657	0.371745
O163	O	-0.979965	-0.543727	0.219894
C164	C	-1.114104	-0.523982	0.189176
C165	C	-1.058621	-0.559633	0.233527
H166	H	-1.177708	-0.536839	0.200174
H167	H	-1.105502	-0.471537	0.195724
H168	H	-1.100168	-0.537212	0.138759
H169	H	-1.072522	-0.546455	0.283961
H170	H	-1.067233	-0.612070	0.226925
H171	H	-0.880220	-1.322634	0.304346
O172	O	-0.368211	-1.016690	0.865579
C173	C	-0.290217	-1.108575	0.885525
C174	C	-0.296996	-1.046457	0.849603
H175	H	-0.232650	-1.132666	0.872611
H176	H	-0.291233	-1.098928	0.937930
H177	H	-0.341786	-1.140140	0.872594
H178	H	-0.245439	-1.014861	0.862482
H179	H	-0.296015	-1.056150	0.797207
O180	O	-0.779879	-0.985398	0.068509
C181	C	-0.679871	-1.064952	0.062138
C182	C	-0.734913	-1.020751	0.025884
H183	H	-0.643513	-1.093555	0.027691
H184	H	-0.638897	-1.036314	0.093175
H185	H	-0.716501	-1.097741	0.092393
H186	H	-0.698345	-0.987953	-0.004406
H187	H	-0.775890	-1.049428	-0.005114
O188	O	-0.979938	-0.672722	0.220773
C189	C	-1.086401	-0.746716	0.212709
C190	C	-1.030909	-0.710384	0.256584
H191	H	-1.127613	-0.777184	0.241644
H192	H	-1.122483	-0.712341	0.183815
H193	H	-1.050142	-0.777553	0.180175
H194	H	-1.067106	-0.679546	0.289156
H195	H	-0.994823	-0.744793	0.285434
O196	O	-0.479757	-0.826334	0.664009
C197	C	-0.586284	-0.817861	0.737801
C198	C	-0.530844	-0.861939	0.701766
H199	H	-0.627613	-0.846630	0.768326
H200	H	-0.550067	-0.785144	0.768538
H201	H	-0.622252	-0.789173	0.703176
H202	H	-0.494864	-0.890668	0.736346
H203	H	-0.567106	-0.894614	0.671019
O204	O	-0.479670	-0.826261	0.534848
C205	C	-0.524265	-0.790647	0.434055
C206	C	-0.468851	-0.834755	0.470063
H207	H	-0.515526	-0.797490	0.381670
H208	H	-0.587908	-0.801612	0.446816
H209	H	-0.510346	-0.740147	0.447028
H210	H	-0.482699	-0.885271	0.457109
H211	H	-0.405226	-0.823737	0.457298
H212	H	-0.971753	-1.262774	0.376600
H213	H	-0.509296	-0.465063	0.310669
O214	O	-0.781107	-0.671543	0.378818
C215	C	-0.736447	-0.772055	0.415102
C216	C	-0.791904	-0.736393	0.370738
H217	H	-0.745169	-0.824492	0.408595
H218	H	-0.672817	-0.759296	0.404082
H219	H	-0.750340	-0.758771	0.465512
H220	H	-0.778082	-0.749658	0.320314
H221	H	-0.855517	-0.749155	0.381812
H222	H	-0.971187	-0.976801	0.541032
H223	H	-0.970408	-0.976481	0.659728
H224	H	-0.251509	-0.346222	0.292469
H225	H	-0.509349	-0.346351	0.310641
H226	H	-0.471821	-0.263156	0.374324
O227	O	-0.978694	-0.827245	0.067412
C228	C	-1.078541	-0.747663	0.059934
C229	C	-1.022636	-0.791691	0.024295
H230	H	-1.114071	-0.718896	0.025090
H231	H	-1.120246	-0.776447	0.090122
H232	H	-1.042646	-0.715018	0.090983
H233	H	-1.058466	-0.824345	-0.006788
H234	H	-0.980928	-0.762868	-0.005853
O235	O	-0.779478	-0.824734	0.663998
C236	C	-0.734143	-0.788920	0.764581
C237	C	-0.789865	-0.833088	0.728834
H238	H	-0.742533	-0.795650	0.817006
H239	H	-0.670605	-0.799931	0.751550
H240	H	-0.748077	-0.738443	0.751643
H241	H	-0.776002	-0.883580	0.741752
H242	H	-0.853387	-0.822024	0.741867
H243	H	-0.788802	-1.145083	0.230447
O244	O	-0.976963	-0.826920	-0.061538
C245	C	-0.986557	-0.742113	-0.135188
C246	C	-0.931599	-0.786330	-0.098874
H247	H	-0.949902	-0.709276	-0.165373
H248	H	-1.027473	-0.770737	-0.166286
H249	H	-1.022989	-0.713561	-0.100747
H250	H	-0.895117	-0.814892	-0.133269
H251	H	-0.890736	-0.757670	-0.067767
H252	H	-0.471881	-0.144449	0.374293
H253	H	-0.289177	-0.144483	0.228721
O254	O	-0.281303	-0.984557	1.067621
C255	C	-0.236788	-1.020239	1.168412
C256	C	-0.292059	-0.976016	1.132407
H257	H	-0.245453	-1.013339	1.220798
H258	H	-0.250803	-1.070734	1.155483
H259	H	-0.173140	-1.009349	1.155606
H260	H	-0.355725	-0.986849	1.145194
H261	H	-0.277976	-0.925534	1.145340
O262	O	-0.281130	-0.268244	0.222426
C263	C	-0.181281	-0.261360	0.142813
C264	C	-0.236720	-0.225389	0.186942
H265	H	-0.145373	-0.226727	0.114104
H266	H	-0.139903	-0.291925	0.171515
H267	H	-0.217572	-0.292065	0.110120
H268	H	-0.200493	-0.194649	0.219645
H269	H	-0.278100	-0.194864	0.158202
H270	H	-0.288995	-0.548120	0.228804
H271	H	-0.288950	-0.978018	0.540036
O272	O	-0.281101	-0.984445	0.663827
C273	C	-0.242987	-1.091045	0.683808
C274	C	-0.298407	-1.046905	0.647845
H275	H	-0.256969	-1.141553	0.670910
H276	H	-0.179352	-1.080124	0.670987
H277	H	-0.251648	-1.084131	0.736192
H278	H	-0.289816	-1.053794	0.595453
H279	H	-0.362021	-1.057836	0.660718
O280	O	-0.281017	-0.984441	0.938593
C281	C	-0.146883	-1.014912	0.918594
C282	C	-0.202354	-0.970815	0.954576
H283	H	-0.083272	-1.003903	0.931493
H284	H	-0.160753	-1.065441	0.931399
H285	H	-0.155564	-1.008011	0.866213
H286	H	-0.193704	-0.977661	1.006965
H287	H	-0.188470	-0.920303	0.941719
O288	O	-0.479739	-0.826420	1.067674
C289	C	-0.524462	-0.790941	1.168491
C290	C	-0.469054	-0.835042	1.132453
H291	H	-0.515855	-0.797906	1.220871
H292	H	-0.510530	-0.740409	1.155743
H293	H	-0.588070	-0.801891	1.155530
H294	H	-0.405428	-0.824148	1.145394
H295	H	-0.483055	-0.885561	1.145204
H296	H	-0.369278	-1.007764	0.741765
H297	H	-0.471864	-0.832655	0.943726
