data_functionalizedCrystal
_audit_creation_method	'MofGen! by Chris Wilmer'
_symmetry_space_group_name_H-M	'P1'
_symmetry_Int_Tables_number	1
_symmetry_cell_setting	triclinic
loop_
_symmetry_equiv_pos_as_xyz
  x,y,z
_cell_length_a	12.784890
_cell_length_b	12.837942
_cell_length_c	10.065875
_cell_angle_alpha	99.723749
_cell_angle_beta	82.187068
_cell_angle_gamma	83.967749
loop_
_atom_site_label
_atom_site_type_symbol
_atom_site_fract_x
_atom_site_fract_y
_atom_site_fract_z
O1	O	1.424846	-0.010056	-0.113451
O2	O	1.119847	0.033937	-0.113463
O3	O	1.265583	-0.138352	-0.113449
O4	O	1.279111	0.162232	-0.113465
O5	O	1.237805	-0.105378	0.113537
O6	O	1.092070	0.066910	0.113523
O7	O	1.397068	0.022918	0.113535
Zn8	Zn	1.240159	0.050149	0.149568
Zn9	Zn	1.276757	0.006705	-0.149496
O10	O	1.251333	0.195206	0.113521
C11	C	1.066649	0.053285	0.000029
C12	C	0.949518	0.061798	0.000025
C13	C	0.781349	0.168497	0.000017
C14	C	0.891405	0.160505	0.000017
C15	C	0.897569	-0.028924	0.000027
C16	C	0.787513	-0.020931	0.000027
C17	C	0.729407	0.077783	0.000024
C18	C	0.619348	0.085776	0.000033
C19	C	0.625515	-0.103653	0.000033
C20	C	0.735571	-0.111645	0.000034
C21	C	1.247125	-0.160074	0.000043
C22	C	1.233497	-0.273923	0.000041
C23	C	1.397332	-0.529653	0.000018
C24	C	1.384532	-0.636625	0.000016
C25	C	1.195101	-0.594843	0.000023
C26	C	1.207900	-0.487871	0.000025
C27	C	1.309019	-0.455280	0.000025
C28	C	1.321816	-0.348304	0.000038
C29	C	1.132387	-0.306526	0.000035
C30	C	1.119588	-0.413498	0.000032
C31	C	1.450267	0.003569	0.000040
C32	C	1.567399	-0.004945	0.000036
C33	C	1.269791	0.216928	0.000026
C34	C	1.283420	0.330775	0.000020
N35	N	1.215189	0.079798	0.353671
N36	N	1.301734	-0.022952	-0.353599
C37	C	1.268062	0.017015	0.421455
C38	C	1.248854	0.039840	0.578621
H39	H	0.933692	0.234374	0.000015
H40	H	1.456447	-0.697178	0.000006
C41	C	0.717430	0.277083	0.000019
N42	N	0.669287	0.358872	0.000019
C43	C	1.508560	-0.493799	0.000026
N44	N	1.592340	-0.466796	0.000030
H45	H	0.782896	-0.192016	0.000031
H46	H	0.583226	-0.177535	-0.000070
H47	H	0.944899	-0.109293	0.000019
H48	H	1.037260	-0.440050	0.000027
H49	H	1.112777	-0.621401	0.000008
C50	C	1.168480	0.135287	0.657399
N51	N	1.107943	0.207177	0.716737
H52	H	1.060475	-0.245957	0.000052
C53	C	1.348408	-0.078447	0.342672
N54	N	1.408921	-0.150355	0.283334
H55	H	1.404151	-0.321770	0.000043
H56	H	1.361220	-0.093609	0.588086
H57	H	0.572039	0.166155	0.000038
C58	C	1.134819	0.175240	0.432455
N59	N	1.074283	0.247130	0.491793
