data_functionalizedCrystal
_audit_creation_method	'MofGen! by Chris Wilmer'
_symmetry_space_group_name_H-M	'P1'
_symmetry_Int_Tables_number	1
_symmetry_cell_setting	triclinic
loop_
_symmetry_equiv_pos_as_xyz
  x,y,z
_cell_length_a	19.851628
_cell_length_b	17.052862
_cell_length_c	17.052862
_cell_angle_alpha	61.493325
_cell_angle_beta	90.004039
_cell_angle_gamma	70.263327
loop_
_atom_site_label
_atom_site_type_symbol
_atom_site_fract_x
_atom_site_fract_y
_atom_site_fract_z
Zr1	Zr	0.780734	0.816609	-0.200356
O2	O	0.706341	0.944510	-0.328494
O3	O	0.787160	0.665887	-0.146164
O4	O	0.823258	0.783686	-0.306972
O5	O	0.660401	0.860639	-0.057800
O6	O	0.934116	0.783675	-0.306956
O7	O	0.670243	0.826711	-0.167686
O8	O	0.869545	0.572954	-0.019301
O9	O	0.724973	1.071361	-0.345455
O10	O	0.892423	0.736325	-0.141055
O11	O	0.802345	0.761653	-0.059060
O12	O	0.844845	0.900347	-0.248390
O13	O	0.754767	0.925675	-0.166395
Zr14	Zr	0.941843	0.870703	-0.025075
Zr15	Zr	0.957541	0.816592	-0.200331
Zr16	Zr	0.765037	0.870720	-0.025100
Zr17	Zr	0.810450	1.018920	-0.227408
Zr18	Zr	0.912127	0.668391	0.001976
O19	O	0.935417	1.021425	-0.079267
O20	O	0.957736	0.944486	-0.328459
O21	O	0.684021	1.021449	-0.079302
O22	O	1.016237	0.742801	0.103063
O23	O	1.038556	0.665862	-0.146129
O24	O	0.764841	0.742826	0.103028
O25	O	1.062176	0.826673	-0.167632
O26	O	0.899319	0.903625	0.081541
O27	O	0.788461	0.903636	0.081525
O28	O	1.052334	0.860601	-0.057745
O29	O	0.865510	1.071347	-0.345436
O30	O	0.857067	0.615965	0.120005
O31	O	0.997605	0.615951	0.120024
O32	O	1.010082	0.572940	-0.019281
O33	O	0.712495	1.114372	-0.206150
O34	O	0.853033	1.114358	-0.206131
O35	O	0.877732	0.786965	0.022959
O36	O	0.967810	0.761637	-0.059037
O37	O	0.920232	0.925659	-0.166372
O38	O	0.830155	0.950987	-0.084376
C39	C	0.824119	0.590595	-0.078878
C40	C	0.811503	0.504709	-0.067394
C41	C	0.964021	0.209730	-0.206238
C42	C	0.975872	0.290427	-0.217034
C43	C	0.934781	0.344001	-0.179624
C44	C	0.881837	0.316871	-0.131418
C45	C	0.869980	0.236170	-0.120627
C46	C	0.840741	0.370441	-0.094014
C47	C	0.787796	0.343310	-0.045807
C48	C	0.775942	0.262617	-0.035017
C49	C	0.817033	0.209043	-0.072427
C50	C	0.852597	0.451142	-0.104805
C51	C	0.758556	0.477582	-0.019194
C52	C	0.746705	0.396884	-0.008398
C53	C	0.640131	0.843677	-0.112746
C54	C	0.565072	0.843685	-0.112757
C55	C	0.357780	0.933100	-0.171250
C56	C	0.330741	0.871490	-0.196752
C57	C	0.427659	0.843664	-0.112729
C58	C	0.320960	0.905276	-0.087243
C59	C	0.294922	0.843651	-0.112705
C60	C	0.401613	0.782039	-0.138277
C61	C	0.391828	0.815853	-0.028727
C62	C	0.364829	0.754173	-0.054200
C63	C	0.504125	0.843673	-0.112746
C64	C	0.218460	0.843633	-0.112688
C65	C	1.082446	0.843634	-0.112685
C66	C	1.157505	0.843627	-0.112675
C67	C	0.880924	0.775971	-0.331934
C68	C	0.887588	0.753000	-0.406335
C69	C	0.898459	1.096716	-0.146553
C70	C	0.911074	1.182603	-0.158037
C71	C	0.807021	1.030726	-0.840175
C72	C	0.800756	1.052312	-0.770274
C73	C	0.822463	0.977486	-0.679287
C74	C	0.850437	0.881070	-0.658206
C75	C	0.856698	0.859482	-0.728114
C76	C	0.872140	0.806242	-0.567225
C77	C	0.900114	0.709826	-0.546145
C78	C	0.906374	0.688242	-0.616047
C79	C	0.884666	0.763068	-0.707035
C80	C	0.865879	0.827830	-0.497317
C81	C	0.915556	0.656586	-0.385256
C82	C	0.921821	0.635000	-0.455157
C83	C	0.841654	0.911340	0.106503
C84	C	0.834990	0.934312	0.180904
C85	C	1.045276	0.590574	-0.078847
C86	C	1.107720	0.504680	-0.067353
C87	C	0.804484	0.658280	0.140341
C88	C	0.785204	0.595365	0.226226
C89	C	1.025641	0.658258	0.140371
C90	C	1.081421	0.595336	0.226267
C91	C	0.696936	1.029053	-0.365803
C92	C	0.641156	1.091976	-0.451698
C93	C	0.677301	1.096738	-0.146584
C94	C	0.614857	1.182632	-0.158078
C95	C	0.918094	1.029032	-0.365772
C96	C	0.937373	1.091947	-0.451657
C97	C	1.097694	0.451128	-0.104775
C98	C	1.156363	0.370428	-0.093992
C99	C	1.225056	0.343277	-0.045782
C100	C	1.235082	0.396837	-0.008360
C101	C	1.176415	0.477540	-0.019148
C102	C	0.815501	0.579034	0.309378
C103	C	0.797385	0.519932	0.390082
C104	C	0.748975	0.477156	0.387631
C105	C	0.718674	0.493492	0.304469
C106	C	0.736787	0.552599	0.223767
C107	C	1.154643	0.552566	0.223803
C108	C	1.207063	0.493453	0.304503
C109	C	1.186259	0.477106	0.387666
C110	C	1.113030	0.519883	0.390127
C111	C	1.060612	0.579000	0.309427
C112	C	0.567936	1.134755	-0.449236
C113	C	0.515519	1.193893	-0.529939
C114	C	0.536324	1.210245	-0.613102
C115	C	0.609552	1.167462	-0.615562
C116	C	0.661968	1.108331	-0.534861
C117	C	0.624885	1.236189	-0.120665
C118	C	0.566221	1.316906	-0.131469
C119	C	0.497529	1.344059	-0.179683
C120	C	0.487502	1.290496	-0.217101
C121	C	0.546166	1.209786	-0.206302
C122	C	0.985785	1.134705	-0.449177
C123	C	1.003914	1.193812	-0.529867
C124	C	0.973625	1.210164	-0.613037
C125	C	0.925211	1.167399	-0.615514
C126	C	0.907087	1.108288	-0.534825
H127	H	0.732825	0.240536	0.004228
H128	H	0.679257	0.458656	0.302487
N129	N	0.354996	1.027937	-0.233381
N130	N	0.378512	1.071055	-0.205065
H131	H	0.376549	1.138031	-0.248946
H132	H	0.680813	1.214091	-0.081400
N133	N	0.692630	0.369150	0.040843
N134	N	0.682057	0.297095	0.050472
H135	H	0.643868	0.277506	0.085250
H136	H	0.929145	0.609733	-0.598877
H137	H	0.574399	1.360505	-0.100993
N138	N	0.985820	0.622654	0.311978
N139	N	0.952280	0.570830	0.356900
H140	H	0.899457	0.601654	0.358712
H141	H	0.436362	0.729958	-0.159903
N142	N	0.277263	0.970649	-0.060212
N143	N	0.212354	0.980610	-0.055223
H144	H	0.181499	1.026791	-0.036143
N145	N	0.546688	1.118064	-0.364288
N146	N	0.593485	1.065274	-0.292232
H147	H	0.578476	1.053493	-0.232239
N148	N	1.281863	0.449755	0.301994
N149	N	1.329545	0.467859	0.330234
H150	H	1.382371	0.436997	0.328462
N151	N	0.705831	0.569264	0.138839
N152	N	0.662611	0.531060	0.136674
H153	H	0.640743	0.542826	0.076694
N154	N	1.146106	0.315711	-0.132197
N155	N	1.157930	0.228142	-0.081683
H156	H	1.150684	0.189497	-0.108662
N157	N	1.305257	0.369082	0.040884
N158	N	1.357624	0.297018	0.050509
H159	H	1.407187	0.277408	0.085293
H160	H	1.171596	0.565865	0.156096
N161	N	1.053358	1.237508	-0.527341
N162	N	1.069542	1.290283	-0.599384
H163	H	1.104461	1.321144	-0.597599
H164	H	0.537990	1.166180	-0.236767
N165	N	0.367798	0.659232	0.007895
N166	N	0.335906	0.645081	0.073680
H167	H	0.338000	0.578030	0.117532
N168	N	0.297424	0.900983	-0.285860
N169	N	0.288061	0.982797	-0.351129
H170	H	0.264532	1.003633	-0.414064
H171	H	0.721586	1.073497	-0.536876
H172	H	0.988389	1.258299	-0.678733
H173	H	0.817360	0.995067	-0.622373
N174	N	0.730482	0.416787	0.470079
N175	N	0.757544	0.402218	0.544314
H176	H	0.744488	0.359581	0.602546
N177	N	0.857618	1.064642	-0.537388
N178	N	0.794009	1.116469	-0.582319
H179	H	0.759069	1.085648	-0.584138
H180	H	1.228948	0.428967	0.453370
H181	H	0.455897	1.228718	-0.527918
N182	N	1.091798	0.503165	0.475087
N183	N	1.138612	0.450370	0.547127
H184	H	1.123618	0.438555	0.607135
N185	N	0.425149	0.786413	0.060355
N186	N	0.396856	0.834453	0.097214
H187	H	0.420387	0.813669	0.160130
H188	H	0.895705	0.473224	-0.144055
H189	H	0.900554	1.180722	-0.683242
H190	H	1.041767	0.473229	-0.144043
H191	H	0.493636	1.258395	-0.678808
N192	N	0.630785	1.184184	-0.700523
N193	N	0.583971	1.236981	-0.772564
H194	H	0.598964	1.248790	-0.832570
H195	H	0.449766	1.409781	-0.188470
N196	N	0.417328	1.318255	-0.266349
N197	N	0.364961	1.390319	-0.275974
H198	H	0.315397	1.409924	-0.310752
H199	H	1.010453	1.121403	-0.381464
N200	N	0.837321	0.926304	-0.518836
N201	N	0.831736	0.945573	-0.456419
H202	H	0.811567	1.015126	-0.471619
N203	N	0.804933	0.126614	-0.061421
N204	N	0.785544	0.124286	-0.129765
H205	H	0.777001	0.066070	-0.121997
N206	N	0.946892	0.426432	-0.190663
N207	N	0.994165	0.450646	-0.233706
H208	H	1.002722	0.508864	-0.241503
H209	H	0.789346	1.091639	-0.914258
N210	N	1.029947	0.318140	-0.266278
N211	N	1.025010	0.339865	-0.347779
H212	H	1.063204	0.359435	-0.382559
N213	N	1.005978	0.155003	-0.244447
N214	N	0.995381	0.082958	-0.234808
H215	H	1.025015	0.044305	-0.261796
H216	H	0.725095	0.521204	0.011265
H217	H	0.889768	0.745498	-0.763959
N218	N	0.772179	1.150799	-0.791831
N219	N	0.803465	1.205725	-0.837161
H220	H	0.783278	1.275289	-0.852393
N221	N	0.950396	0.536522	-0.433646
N222	N	0.955984	0.517266	-0.496072
H223	H	0.976165	0.447716	-0.480882
H224	H	0.933229	0.595656	-0.311170
N225	N	1.284951	0.260770	-0.034683
N226	N	1.275966	0.212923	-0.068040
H227	H	1.318256	0.154623	-0.060167
H228	H	1.184588	0.521134	0.011332
H229	H	0.822065	0.506640	0.457787
H230	H	0.854919	0.613858	0.311391
