data_functionalizedCrystal
_audit_creation_method	'MofGen! by Chris Wilmer'
_symmetry_space_group_name_H-M	'P1'
_symmetry_Int_Tables_number	1
_symmetry_cell_setting	triclinic
loop_
_symmetry_equiv_pos_as_xyz
  x,y,z
_cell_length_a	14.971486
_cell_length_b	13.596369
_cell_length_c	14.971486
_cell_angle_alpha	89.993803
_cell_angle_beta	96.385871
_cell_angle_gamma	90.000368
loop_
_atom_site_label
_atom_site_type_symbol
_atom_site_fract_x
_atom_site_fract_y
_atom_site_fract_z
O1	O	1.186946	0.081679	-0.116564
O2	O	1.436946	0.331679	0.133436
O3	O	1.686946	0.581679	0.383436
O4	O	1.936946	0.831679	0.633436
O5	O	0.926545	0.081706	-0.130523
O6	O	1.176545	0.331706	0.119477
O7	O	1.426545	0.581706	0.369477
O8	O	1.676545	0.831706	0.619477
O9	O	1.063725	0.081684	0.006656
O10	O	1.313725	0.331684	0.256656
O11	O	1.563725	0.581684	0.506656
O12	O	1.813725	0.831684	0.756656
O13	O	1.049766	0.081700	-0.253744
O14	O	1.299766	0.331700	-0.003744
O15	O	1.549766	0.581700	0.246256
O16	O	1.799766	0.831700	0.496256
O17	O	1.063711	-0.081898	0.006664
O18	O	1.313711	0.168102	0.256664
O19	O	1.563711	0.418102	0.506664
O20	O	1.813711	0.668102	0.756664
O21	O	0.926532	-0.081877	-0.130516
O22	O	1.176532	0.168123	0.119484
O23	O	1.426532	0.418123	0.369484
O24	O	1.676532	0.668123	0.619484
O25	O	1.186932	-0.081904	-0.116557
O26	O	1.436932	0.168096	0.133443
O27	O	1.686932	0.418096	0.383443
O28	O	1.936932	0.668096	0.633443
Zn29	Zn	1.056730	-0.107863	-0.123535
Zn30	Zn	1.306730	0.142137	0.126465
Zn31	Zn	1.556730	0.392137	0.376465
Zn32	Zn	1.806730	0.642137	0.626465
Zn33	Zn	1.056748	0.107665	-0.123545
Zn34	Zn	1.306748	0.357665	0.126455
Zn35	Zn	1.556748	0.607665	0.376455
Zn36	Zn	1.806748	0.857665	0.626455
O37	O	1.049752	-0.081883	-0.253736
O38	O	1.299752	0.168117	-0.003736
O39	O	1.549752	0.418117	0.246264
O40	O	1.799752	0.668117	0.496264
C41	C	0.893214	-0.000082	-0.129895
C42	C	1.143214	0.249918	0.120105
C43	C	1.393214	0.499918	0.370105
C44	C	1.643214	0.749918	0.620105
C45	C	0.793917	-0.000072	-0.128024
C46	C	1.043917	0.249928	0.121976
C47	C	1.293917	0.499928	0.371976
C48	C	1.543917	0.749928	0.621976
N49	N	1.056724	-0.254955	-0.123528
N50	N	1.306724	-0.004955	0.126472
N51	N	1.556724	0.245045	0.376472
N52	N	1.806724	0.495045	0.626472
C53	C	0.736692	-0.000069	-0.208614
C54	C	0.986692	0.249931	0.041386
C55	C	1.236692	0.499931	0.291386
C56	C	1.486692	0.749931	0.541386
C57	C	0.643392	-0.000084	-0.206850
C58	C	0.893392	0.249916	0.043150
C59	C	1.143392	0.499916	0.293150
C60	C	1.393392	0.749916	0.543150
C61	C	0.607320	-0.000095	-0.124497
C62	C	0.857320	0.249905	0.125503
C63	C	1.107320	0.499905	0.375503
C64	C	1.357320	0.749905	0.625503
C65	C	0.664552	-0.000101	-0.043902
C66	C	0.914552	0.249899	0.206098
C67	C	1.164552	0.499899	0.456098
C68	C	1.414552	0.749899	0.706098
C69	C	0.757850	-0.000094	-0.045666
C70	C	1.007850	0.249906	0.204334
C71	C	1.257850	0.499906	0.454334
C72	C	1.507850	0.749906	0.704334
C73	C	0.470090	-0.000115	-0.040231
C74	C	0.720090	0.249885	0.209769
C75	C	0.970090	0.499885	0.459769
C76	C	1.220090	0.749885	0.709769
C77	C	0.376786	-0.000121	-0.038466
C78	C	0.626786	0.249879	0.211534
C79	C	0.876786	0.499879	0.461534
C80	C	1.126786	0.749879	0.711534
C81	C	0.355632	-0.000105	-0.201415
C82	C	0.605632	0.249895	0.048585
C83	C	0.855632	0.499895	0.298585
C84	C	1.105632	0.749895	0.548585
C85	C	0.448930	-0.000098	-0.203179
C86	C	0.698930	0.249902	0.046821
C87	C	0.948930	0.499902	0.296821
C88	C	1.198930	0.749902	0.546821
C89	C	0.506156	-0.000102	-0.122584
C90	C	0.756156	0.249898	0.127416
C91	C	1.006156	0.499898	0.377416
C92	C	1.256156	0.749898	0.627416
C93	C	1.056746	-0.656246	-0.123546
C94	C	1.306746	-0.406246	0.126454
C95	C	1.556746	-0.156246	0.376454
C96	C	1.806746	0.093754	0.626454
C97	C	1.056738	-0.544594	-0.123544
C98	C	1.306738	-0.294594	0.126456
C99	C	1.556738	-0.044594	0.376456
C100	C	1.806738	0.205406	0.626456
C101	C	1.056736	-0.455604	-0.123538
C102	C	1.306736	-0.205604	0.126462
C103	C	1.556736	0.044396	0.376462
C104	C	1.806736	0.294396	0.626462
C105	C	1.056726	-0.343945	-0.123534
C106	C	1.306726	-0.093945	0.126466
C107	C	1.556726	0.156055	0.376466
C108	C	1.806726	0.406055	0.626466
C109	C	1.220263	-0.000114	-0.117185
C110	C	1.470263	0.249886	0.132815
C111	C	1.720263	0.499886	0.382815
C112	C	1.970263	0.749886	0.632815
C113	C	1.319561	-0.000118	-0.119056
C114	C	1.569561	0.249882	0.130944
C115	C	1.819561	0.499882	0.380944
C116	C	2.069561	0.749882	0.630944
C117	C	1.063094	-0.000107	0.039985
C118	C	1.313094	0.249893	0.289985
C119	C	1.563094	0.499893	0.539985
C120	C	1.813094	0.749893	0.789985
C121	C	1.061223	-0.000106	0.139282
C122	C	1.311223	0.249894	0.389282
C123	C	1.561223	0.499894	0.639282
C124	C	1.811223	0.749894	0.889282
N125	N	1.056761	0.254756	-0.123545
N126	N	1.306761	0.504756	0.126455
N127	N	1.556761	0.754756	0.376455
N128	N	1.806761	1.004756	0.626455
C129	C	1.050384	-0.000090	-0.287065
C130	C	1.300384	0.249910	-0.037065
C131	C	1.550384	0.499910	0.212935
C132	C	1.800384	0.749910	0.462935
C133	C	1.052254	-0.000084	-0.386362
C134	C	1.302254	0.249916	-0.136362
C135	C	1.552254	0.499916	0.113638
C136	C	1.802254	0.749916	0.363638
C137	C	1.141812	-0.000115	0.196507
C138	C	1.391812	0.249885	0.446507
C139	C	1.641812	0.499885	0.696507
C140	C	1.891812	0.749885	0.946507
C141	C	1.140049	-0.000105	0.289807
C142	C	1.390049	0.249895	0.539807
C143	C	1.640049	0.499895	0.789807
C144	C	1.890049	0.749895	1.039807
C145	C	1.057696	-0.000092	0.325879
C146	C	1.307696	0.249908	0.575879
C147	C	1.557696	0.499908	0.825879
C148	C	1.807696	0.749908	1.075879
C149	C	0.977101	-0.000080	0.268646
C150	C	1.227101	0.249920	0.518646
C151	C	1.477101	0.499920	0.768646
C152	C	1.727101	0.749920	1.018646
C153	C	0.978865	-0.000084	0.175349
C154	C	1.228865	0.249916	0.425349
C155	C	1.478865	0.499916	0.675349
C156	C	1.728865	0.749916	0.925349
C157	C	0.973430	-0.000077	0.463109
C158	C	1.223430	0.249923	0.713109
C159	C	1.473430	0.499923	0.963109
C160	C	1.723430	0.749923	1.213109
C161	C	0.971665	-0.000075	0.556413
C162	C	1.221665	0.249925	0.806413
C163	C	1.471665	0.499925	1.056413
C164	C	1.721665	0.749925	1.306413
C165	C	1.134614	-0.000098	0.577567
C166	C	1.384614	0.249902	0.827567
C167	C	1.634614	0.499902	1.077567
C168	C	1.884614	0.749902	1.327567
C169	C	1.136378	-0.000101	0.484269
C170	C	1.386378	0.249899	0.734269
C171	C	1.636378	0.499899	0.984269
C172	C	1.886378	0.749899	1.234269
C173	C	1.055782	-0.000090	0.427043
C174	C	1.305782	0.249910	0.677043
C175	C	1.555782	0.499910	0.927043
C176	C	1.805782	0.749910	1.177043
H177	H	0.766054	-0.000059	-0.275675
H178	H	1.016054	0.249941	-0.025675
H179	H	1.266054	0.499941	0.224325
H180	H	1.516054	0.749941	0.474325
C181	C	0.532330	0.000037	0.047203
C182	C	0.782330	0.250037	0.297203
C183	C	1.032330	0.500037	0.547203
C184	C	1.282330	0.750037	0.797203
C185	C	0.586519	0.084189	0.050931
C186	C	0.836519	0.334189	0.300931
C187	C	1.086519	0.584189	0.550931
C188	C	1.336519	0.834189	0.800931
C189	C	0.643875	0.084362	0.131452
C190	C	0.893875	0.334362	0.381452
C191	C	1.143875	0.584362	0.631452
C192	C	1.393875	0.834362	0.881452
H193	H	0.497601	0.000083	0.096578
H194	H	0.747601	0.250083	0.346578
H195	H	0.997601	0.500083	0.596578
H196	H	1.247601	0.750083	0.846578
H197	H	0.569223	-0.056975	0.049912
H198	H	0.819223	0.193025	0.299912
H199	H	1.069223	0.443025	0.549912
H200	H	1.319223	0.693025	0.799912
H201	H	0.549630	0.141186	0.048230
H202	H	0.799630	0.391186	0.298230
H203	H	1.049630	0.641186	0.548230
H204	H	1.299630	0.891186	0.798230
H205	H	0.621268	0.084160	0.001575
H206	H	0.871268	0.334160	0.251575
H207	H	1.121268	0.584160	0.501575
H208	H	1.371268	0.834160	0.751575
H209	H	0.680768	0.027350	0.134161
H210	H	0.930768	0.277350	0.384161
H211	H	1.180768	0.527350	0.634161
H212	H	1.430768	0.777350	0.884161
H213	H	0.609138	0.084406	0.180821
H214	H	0.859138	0.334406	0.430821
H215	H	1.109138	0.584406	0.680821
H216	H	1.359138	0.834406	0.930821
H217	H	0.680654	0.141453	0.133988
H218	H	0.930654	0.391453	0.383988
H219	H	1.180654	0.641453	0.633988
H220	H	1.430654	0.891453	0.883988
H221	H	1.208874	-0.000130	0.167145
H222	H	1.458874	0.249870	0.417145
H223	H	1.708874	0.499870	0.667145
H224	H	1.958874	0.749870	0.917145
H225	H	0.596802	-0.000080	-0.272474
H226	H	0.846802	0.249920	-0.022474
H227	H	1.096802	0.499920	0.227526
H228	H	1.346802	0.749920	0.477526
C229	C	0.487923	-0.000134	-0.292681
C230	C	0.737923	0.249866	-0.042681
C231	C	0.987923	0.499866	0.207319
C232	C	1.237923	0.749866	0.457319
C233	C	0.417840	-0.000159	-0.362887
C234	C	0.667840	0.249841	-0.112887
C235	C	0.917840	0.499841	0.137113
C236	C	1.167840	0.749841	0.387113
C237	C	0.453727	-0.000209	-0.445348
C238	C	0.703727	0.249791	-0.195348
C239	C	0.953727	0.499791	0.054652
C240	C	1.203727	0.749791	0.304652
H241	H	0.523863	0.056898	-0.296884
H242	H	0.773863	0.306898	-0.046884
H243	H	1.023863	0.556898	0.203116
H244	H	1.273863	0.806898	0.453116
H245	H	0.523857	-0.057199	-0.296799
H246	H	0.773857	0.192801	-0.046799
H247	H	1.023857	0.442801	0.203201
H248	H	1.273857	0.692801	0.453201
H249	H	0.381922	0.056900	-0.358771
H250	H	0.631922	0.306900	-0.108771
H251	H	0.881922	0.556900	0.141229
H252	H	1.131922	0.806900	0.391229
H253	H	0.381895	-0.057187	-0.358714
H254	H	0.631895	0.192813	-0.108714
H255	H	0.881895	0.442813	0.141286
H256	H	1.131895	0.692813	0.391286
H257	H	0.489661	-0.057274	-0.449466
H258	H	0.739661	0.192726	-0.199466
H259	H	0.989661	0.442726	0.050534
H260	H	1.239661	0.692726	0.300534
H261	H	0.489666	0.056825	-0.449541
H262	H	0.739666	0.306825	-0.199541
H263	H	0.989666	0.556825	0.050459
H264	H	1.239666	0.806825	0.300459
H265	H	0.406182	-0.000235	-0.492992
H266	H	0.656182	0.249765	-0.242992
H267	H	0.906182	0.499765	0.007008
H268	H	1.156182	0.749765	0.257008
H269	H	0.904606	-0.000081	0.585780
H270	H	1.154606	0.249919	0.835780
H271	H	1.404606	0.499919	1.085780
H272	H	1.654606	0.749919	1.335780
H273	H	1.203437	-0.000117	0.454903
H274	H	1.453437	0.249883	0.704903
H275	H	1.703437	0.499883	0.954903
H276	H	1.953437	0.749883	1.204903
C277	C	0.885829	-0.000114	0.401124
C278	C	1.135829	0.249886	0.651124
C279	C	1.385829	0.499886	0.901124
C280	C	1.635829	0.749886	1.151124
C281	C	0.813329	-0.000131	0.452681
C282	C	1.063329	0.249869	0.702681
C283	C	1.313329	0.499869	0.952681
C284	C	1.563329	0.749869	1.202681
C285	C	0.732621	-0.000182	0.395613
C286	C	0.982621	0.249818	0.645613
C287	C	1.232621	0.499818	0.895613
C288	C	1.482621	0.749818	1.145613
H289	H	0.883007	0.056915	0.364263
H290	H	1.133007	0.306915	0.614263
H291	H	1.383007	0.556915	0.864263
H292	H	1.633007	0.806915	1.114263
H293	H	0.883077	-0.057182	0.364308
H294	H	1.133077	0.192818	0.614308
H295	H	1.383077	0.442818	0.864308
H296	H	1.633077	0.692818	1.114308
H297	H	0.816080	0.056932	0.489482
H298	H	1.066080	0.306932	0.739482
H299	H	1.316080	0.556932	0.989482
H300	H	1.566080	0.806932	1.239482
H301	H	0.816121	-0.057155	0.489541
H302	H	1.066121	0.192845	0.739541
H303	H	1.316121	0.442845	0.989541
H304	H	1.566121	0.692845	1.239541
H305	H	0.729868	-0.057250	0.358797
H306	H	0.979868	0.192750	0.608797
H307	H	1.229868	0.442750	0.858797
H308	H	1.479868	0.692750	1.108797
H309	H	0.729808	0.056848	0.358754
H310	H	0.979808	0.306848	0.608754
H311	H	1.229808	0.556848	0.858754
H312	H	1.479808	0.806848	1.108754
H313	H	0.683420	-0.000202	0.430585
H314	H	0.933420	0.249798	0.680585
H315	H	1.183420	0.499798	0.930585
H316	H	1.433420	0.749798	1.180585
H317	H	0.635175	-0.000124	0.023152
H318	H	0.885175	0.249876	0.273152
H319	H	1.135175	0.499876	0.523152
H320	H	1.385175	0.749876	0.773152
C321	C	0.891298	0.000079	0.113319
C322	C	1.141298	0.250079	0.363319
C323	C	1.391298	0.500079	0.613319
C324	C	1.641298	0.750079	0.863319
C325	C	0.841716	0.084233	0.129640
C326	C	1.091716	0.334233	0.379640
C327	C	1.341716	0.584233	0.629640
C328	C	1.591716	0.834233	0.879640
C329	C	0.761039	0.084415	0.072525
C330	C	1.011039	0.334415	0.322525
C331	C	1.261039	0.584415	0.572525
C332	C	1.511039	0.834415	0.822525
H333	H	0.904016	0.000129	0.052559
H334	H	1.154016	0.250129	0.302559
H335	H	1.404016	0.500129	0.552559
H336	H	1.654016	0.750129	0.802559
H337	H	0.857477	-0.056932	0.124279
H338	H	1.107477	0.193068	0.374279
H339	H	1.357477	0.443068	0.624279
H340	H	1.607477	0.693068	0.874279
H341	H	0.875531	0.141229	0.118674
H342	H	1.125531	0.391229	0.368674
H343	H	1.375531	0.641229	0.618674
H344	H	1.625531	0.891229	0.868674
H345	H	0.828975	0.084201	0.190389
H346	H	1.078975	0.334201	0.440389
H347	H	1.328975	0.584201	0.690389
H348	H	1.578975	0.834201	0.940389
H349	H	0.727217	0.027405	0.083484
H350	H	0.977217	0.277405	0.333484
H351	H	1.227217	0.527405	0.583484
H352	H	1.477217	0.777405	0.833484
H353	H	0.773765	0.084463	0.011768
H354	H	1.023765	0.334463	0.261768
H355	H	1.273765	0.584463	0.511768
H356	H	1.523765	0.834463	0.761768
H357	H	0.727384	0.141508	0.083596
H358	H	0.977384	0.391508	0.333596
H359	H	1.227384	0.641508	0.583596
H360	H	1.477384	0.891508	0.833596
H361	H	0.309033	-0.000106	-0.267039
H362	H	0.559033	0.249894	-0.017039
H363	H	0.809033	0.499894	0.232961
H364	H	1.059033	0.749894	0.482961
H365	H	0.347419	-0.000131	0.028593
H366	H	0.597419	0.249869	0.278593
H367	H	0.847419	0.499869	0.528593
H368	H	1.097419	0.749869	0.778593
H369	H	0.804443	-0.000096	0.019958
H370	H	1.054443	0.249904	0.269958
H371	H	1.304443	0.499904	0.519958
H372	H	1.554443	0.749904	0.769958
H373	H	1.205673	-0.000114	0.336396
H374	H	1.455673	0.249886	0.586396
H375	H	1.705673	0.499886	0.836396
H376	H	1.955673	0.749886	1.086396
H377	H	1.200238	-0.000103	0.624165
H378	H	1.450238	0.249897	0.874165
H379	H	1.700238	0.499897	1.124165
H380	H	1.950238	0.749897	1.374165
H381	H	0.910047	-0.000064	0.298024
H382	H	1.160047	0.249936	0.548024
H383	H	1.410047	0.499936	0.798024
H384	H	1.660047	0.749936	1.048024
