data_functionalizedCrystal
_audit_creation_method	'MofGen! by Chris Wilmer'
_symmetry_space_group_name_H-M	'P1'
_symmetry_Int_Tables_number	1
_symmetry_cell_setting	triclinic
loop_
_symmetry_equiv_pos_as_xyz
  x,y,z
_cell_length_a	11.792254
_cell_length_b	11.792241
_cell_length_c	9.730223
_cell_angle_alpha	89.996253
_cell_angle_beta	89.997852
_cell_angle_gamma	84.196007
loop_
_atom_site_label
_atom_site_type_symbol
_atom_site_fract_x
_atom_site_fract_y
_atom_site_fract_z
O1	O	1.506897	0.155635	-0.114289
O2	O	1.176557	0.171653	-0.114292
O3	O	1.349743	-0.001526	-0.114281
O4	O	1.333711	0.328814	-0.114301
O5	O	1.349736	-0.001529	0.114299
O6	O	1.176550	0.171650	0.114288
O7	O	1.506889	0.155632	0.114291
Zn8	Zn	1.341718	0.163641	0.150581
Zn9	Zn	1.341728	0.163644	-0.150583
O10	O	1.333703	0.328811	0.114279
C11	C	1.134263	0.170642	-0.000003
C12	C	1.008250	0.167622	-0.000004
C13	C	0.905913	0.165168	-0.000009
C14	C	0.777527	0.162100	-0.000010
C15	C	1.348732	-0.043819	0.000008
C16	C	1.345718	-0.169832	0.000007
C17	C	1.340175	-0.400545	-0.000016
C18	C	1.343255	-0.272160	-0.000003
C19	C	1.549183	0.156643	-0.000002
C20	C	1.675196	0.159663	-0.000010
C21	C	1.334714	0.371104	-0.000013
C22	C	1.337728	0.497118	-0.000021
N23	N	1.341719	0.163638	0.356117
C24	C	1.272472	0.094329	0.428069
C25	C	1.272473	0.094336	0.571952
C26	C	1.410980	0.232963	0.571919
C27	C	1.410971	0.232961	0.428039
C28	C	1.203219	0.025006	0.356148
C29	C	1.133967	-0.044309	0.428100
C30	C	1.133969	-0.044303	0.571983
C31	C	1.203223	0.025019	0.643914
N32	N	1.341730	0.163646	0.643881
H33	H	1.203212	0.024991	0.238991
H34	H	1.467364	0.289401	0.630497
F35	F	1.060257	-0.118072	0.351544
F36	F	1.203213	0.025031	0.797049
F37	F	1.060256	-0.118062	0.648556
H38	H	1.467355	0.289403	0.369454
