data_functionalizedCrystal
_audit_creation_method	'MofGen! by Chris Wilmer'
_symmetry_space_group_name_H-M	'P1'
_symmetry_Int_Tables_number	1
_symmetry_cell_setting	triclinic
loop_
_symmetry_equiv_pos_as_xyz
  x,y,z
_cell_length_a	11.169417
_cell_length_b	12.594516
_cell_length_c	11.169409
_cell_angle_alpha	89.966970
_cell_angle_beta	89.980487
_cell_angle_gamma	90.013065
loop_
_atom_site_label
_atom_site_type_symbol
_atom_site_fract_x
_atom_site_fract_y
_atom_site_fract_z
Zn1	Zn	1.834950	-0.423620	-0.678527
Zn2	Zn	2.334950	0.076380	-0.178527
Zn3	Zn	1.834834	-0.601647	-0.477841
Zn4	Zn	2.334834	-0.101647	0.022159
Zn5	Zn	1.634236	-0.423686	-0.477862
Zn6	Zn	2.134236	0.076314	0.022138
Zn7	Zn	1.634238	-0.601561	-0.678487
Zn8	Zn	2.134238	-0.101561	-0.178487
O9	O	1.734565	-0.512629	-0.578180
O10	O	2.234565	-0.012629	-0.078180
O11	O	2.002884	-0.447244	-0.651913
O12	O	2.502884	0.052756	-0.151913
O13	O	1.808175	-0.578103	-0.309894
O14	O	2.308175	-0.078103	0.190106
O15	O	1.660909	-0.274732	-0.504506
O16	O	2.160909	0.225268	-0.004506
O17	O	2.002799	-0.578039	-0.504471
O18	O	2.502799	-0.078039	-0.004471
O19	O	1.808372	-0.274683	-0.651934
O20	O	2.308372	0.225317	-0.151934
O21	O	1.660796	-0.447357	-0.309910
O22	O	2.160796	0.052643	0.190090
O23	O	1.466287	-0.447274	-0.504468
O24	O	1.966287	0.052726	-0.004468
O25	O	1.660912	-0.577894	-0.846443
O26	O	2.160912	-0.077894	-0.346443
O27	O	1.466288	-0.577958	-0.651866
O28	O	1.966288	-0.077958	-0.151866
O29	O	1.808375	-0.447161	-0.846472
O30	O	2.308375	0.052839	-0.346472
O31	O	1.808177	-0.750581	-0.504432
O32	O	2.308177	-0.250581	-0.004432
O33	O	1.660800	-0.750518	-0.651846
O34	O	2.160800	-0.250518	-0.151846
C35	C	1.422740	-0.512614	-0.578166
C36	C	1.922740	-0.012614	-0.078166
C37	C	1.289340	-0.512634	-0.578188
C38	C	1.789340	-0.012634	-0.078188
C39	C	1.734509	-0.789170	-0.578159
C40	C	2.234509	-0.289170	-0.078159
C41	C	1.734595	-0.907475	-0.578190
C42	C	2.234595	-0.407475	-0.078190
C43	C	1.814846	-0.976724	-0.498097
C44	C	2.314846	-0.476724	0.001903
C45	C	1.844180	-1.047411	-0.607640
C46	C	2.344180	-0.547411	-0.107640
C47	C	1.705412	-1.047587	-0.468717
C48	C	2.205412	-0.547587	0.031283
C49	C	1.763984	-0.976604	-0.687790
C50	C	2.263984	-0.476604	-0.187790
C51	C	1.625165	-0.976774	-0.548793
C52	C	2.125165	-0.476774	-0.048793
C53	C	1.654457	-1.047429	-0.658412
C54	C	2.154457	-0.547429	-0.158412
C55	C	2.047607	-0.512644	-0.578194
C56	C	2.547607	-0.012644	-0.078194
C57	C	2.181007	-0.512650	-0.578200
C58	C	2.681007	-0.012650	-0.078200
C59	C	1.734657	-0.512510	-0.891222
C60	C	2.234657	-0.012510	-0.391222
C61	C	1.734696	-0.512460	-1.024622
C62	C	2.234696	-0.012460	-0.524622
C63	C	1.734653	-0.235008	-0.578227
C64	C	2.234653	0.264992	-0.078227
C65	C	1.734691	-0.116702	-0.578247
C66	C	2.234691	0.383298	-0.078247
C67	C	1.734542	-0.512670	-0.266355
C68	C	2.234542	-0.012670	0.233645
C69	C	1.734735	-0.512420	-0.132955
C70	C	2.234735	-0.012420	0.367045
H71	H	1.882723	-0.945677	-0.430426
H72	H	2.382723	-0.445677	0.069574
H73	H	1.936763	-1.078442	-0.632536
H74	H	2.436763	-0.578442	-0.132536
Cl75	Cl	1.802340	-0.928678	-0.830801
Cl76	Cl	2.302340	-0.428678	-0.330801
H77	H	1.586632	-1.078279	-0.726246
H78	H	2.086632	-0.578279	-0.226246
H79	H	1.532609	-0.945720	-0.523865
H80	H	2.032609	-0.445720	-0.023865
H81	H	1.680689	-1.078765	-0.376114
H82	H	2.180689	-0.578765	0.123886
