data_functionalizedCrystal
_audit_creation_method	'MofGen! by Chris Wilmer'
_symmetry_space_group_name_H-M	'P1'
_symmetry_Int_Tables_number	1
_symmetry_cell_setting	triclinic
loop_
_symmetry_equiv_pos_as_xyz
  x,y,z
_cell_length_a	17.077404
_cell_length_b	16.959454
_cell_length_c	17.077396
_cell_angle_alpha	90.024735
_cell_angle_beta	90.019501
_cell_angle_gamma	90.020300
loop_
_atom_site_label
_atom_site_type_symbol
_atom_site_fract_x
_atom_site_fract_y
_atom_site_fract_z
Zn1	Zn	1.200070	-0.314677	0.443863
Zn2	Zn	1.199983	-0.446865	0.312606
Zn3	Zn	1.068802	-0.314705	0.312611
Zn4	Zn	1.068776	-0.446818	0.443829
O5	O	1.134408	-0.380766	0.378227
O6	O	1.309905	-0.332220	0.426463
O7	O	1.182556	-0.429365	0.202759
O8	O	1.086262	-0.204090	0.330038
O9	O	1.309842	-0.429338	0.330029
O10	O	1.182704	-0.204070	0.426469
O11	O	1.086178	-0.332267	0.202763
O12	O	0.958951	-0.332222	0.330006
O13	O	1.086218	-0.429258	0.553681
O14	O	0.958933	-0.429285	0.426411
O15	O	1.182679	-0.332174	0.553706
O16	O	1.182532	-0.557469	0.329996
O17	O	1.086134	-0.557435	0.426406
C18	C	0.930460	-0.380752	0.378206
C19	C	0.843210	-0.380764	0.378215
C20	C	0.802231	-0.431381	0.428333
C21	C	0.720250	-0.431383	0.428345
C22	C	0.679251	-0.380771	0.378236
C23	C	0.720236	-0.330149	0.328116
C24	C	0.802215	-0.330144	0.328108
C25	C	0.549366	-0.330164	0.328134
C26	C	0.467381	-0.330170	0.328141
C27	C	0.467401	-0.431404	0.428372
C28	C	0.549380	-0.431399	0.428364
C29	C	0.590360	-0.380777	0.378243
C30	C	1.134342	-0.586132	0.378214
C31	C	1.134386	-0.673989	0.378235
C32	C	1.084287	-1.045476	0.428422
C33	C	1.184748	-1.045452	0.328112
C34	C	1.184720	-0.962906	0.328105
C35	C	1.134474	-0.921642	0.378256
C36	C	1.084256	-0.962923	0.428415
C37	C	1.234932	-0.921619	0.277942
C38	C	1.234906	-0.839068	0.277932
C39	C	1.184664	-0.797802	0.328088
C40	C	1.134444	-0.839088	0.378249
C41	C	1.084198	-0.797823	0.428400
C42	C	1.033981	-0.839108	0.478566
C43	C	1.034013	-0.921657	0.478571
C44	C	1.184632	-0.715254	0.328083
C45	C	1.084167	-0.715270	0.428393
C46	C	1.339152	-0.380781	0.378250
C47	C	1.426402	-0.380787	0.378259
C48	C	1.134455	-0.380708	0.582972
C49	C	1.134476	-0.380683	0.670222
C50	C	1.134495	-0.174598	0.378258
C51	C	1.134533	-0.086741	0.378271
C52	C	1.134406	-0.380767	0.174279
C53	C	1.134538	-0.380569	0.087030
C54	C	1.184705	-0.330127	0.711226
C55	C	1.184714	-0.330101	0.793206
C56	C	1.134498	-0.380635	0.834181
C57	C	1.084263	-0.431193	0.793171
C58	C	1.084250	-0.431214	0.711192
C59	C	1.084295	-0.431145	0.964041
C60	C	1.084309	-0.431125	1.046026
C61	C	1.184759	-0.330032	1.046056
C62	C	1.184746	-0.330053	0.964077
C63	C	1.134512	-0.380613	0.923072
H64	H	0.582760	-0.472616	0.469164
H65	H	0.835607	-0.472598	0.469136
N66	N	1.238872	-0.275628	0.667035
H67	H	1.270692	-0.243596	0.705454
H68	H	1.206931	-0.239055	0.633020
N69	N	0.846418	-0.275545	0.274058
H70	H	0.808007	-0.243482	0.242314
H71	H	0.880410	-0.307666	0.237672
N72	N	1.238874	-0.275558	0.837434
H73	H	1.270682	-0.243548	0.799037
H74	H	1.275195	-0.307713	0.871459
H75	H	1.225514	-0.681643	0.287235
N76	N	0.423208	-0.486006	0.482431
H77	H	0.365054	-0.478329	0.474837
H78	H	0.437569	-0.473779	0.538513
N79	N	1.238941	-0.275491	1.090265
H80	H	1.275310	-0.307602	1.124283
H81	H	1.207009	-0.238852	1.124229
H82	H	1.043341	-0.472374	0.677807
H83	H	1.225651	-1.079055	0.287277
H84	H	0.686889	-0.472601	0.469156
N85	N	1.029976	-0.670765	0.482489
H86	H	0.998172	-0.709446	0.514267
H87	H	0.993652	-0.636561	0.450500
H88	H	0.434002	-0.288948	0.287347
H89	H	1.043373	-0.472335	0.826539
H90	H	0.993067	-0.805501	0.519396
N91	N	0.676017	-0.275565	0.274063
H92	H	0.714419	-0.243498	0.242313
H93	H	0.642025	-0.239029	0.306079
H94	H	0.993129	-0.955278	0.519412
N95	N	0.593568	-0.275563	0.274080
H96	H	0.555157	-0.243502	0.242335
H97	H	0.627556	-0.307690	0.237696
H98	H	1.225641	-0.288909	0.930717
H99	H	1.275796	-0.805459	0.237085
N100	N	1.030128	-1.089997	0.482530
H101	H	1.037770	-1.148554	0.474929
H102	H	0.974068	-1.075616	0.470257
N103	N	1.030149	-0.485627	1.090223
H104	H	0.998320	-0.517656	1.051809
H105	H	0.993848	-0.453436	1.124238
N106	N	1.289107	-0.966123	0.223837
H107	H	1.281505	-1.024681	0.231454
H108	H	1.345161	-0.951652	0.236090
N109	N	1.030112	-0.485671	0.919812
H110	H	0.998303	-0.517683	0.958207
H111	H	1.062044	-0.522261	0.885798
