data_functionalizedCrystal
_audit_creation_method	'MofGen! by Chris Wilmer'
_symmetry_space_group_name_H-M	'P1'
_symmetry_Int_Tables_number	1
_symmetry_cell_setting	triclinic
loop_
_symmetry_equiv_pos_as_xyz
  x,y,z
_cell_length_a	12.759401
_cell_length_b	19.805405
_cell_length_c	12.759393
_cell_angle_alpha	90.037628
_cell_angle_beta	90.018496
_cell_angle_gamma	90.026572
loop_
_atom_site_label
_atom_site_type_symbol
_atom_site_fract_x
_atom_site_fract_y
_atom_site_fract_z
Zn1	Zn	1.606170	-0.269420	0.593937
Zn2	Zn	2.106170	0.230580	1.093937
Zn3	Zn	1.606028	-0.382625	0.418239
Zn4	Zn	2.106028	0.117375	0.918239
Zn5	Zn	1.430472	-0.269456	0.418276
Zn6	Zn	1.930472	0.230544	0.918276
Zn7	Zn	1.430425	-0.382573	0.593880
Zn8	Zn	1.930425	0.117427	1.093880
O9	O	1.518274	-0.326019	0.506083
O10	O	2.018274	0.173981	1.006083
O11	O	1.753172	-0.284444	0.570638
O12	O	2.253172	0.215556	1.070638
O13	O	1.582701	-0.367650	0.271222
O14	O	2.082701	0.132350	0.771222
O15	O	1.453858	-0.174735	0.441618
O16	O	1.953858	0.325265	0.941618
O17	O	1.753068	-0.367615	0.441553
O18	O	2.253068	0.132385	0.941553
O19	O	1.582942	-0.174708	0.570675
O20	O	2.082942	0.325292	1.070675
O21	O	1.453720	-0.284505	0.271250
O22	O	1.953720	0.215495	0.771250
O23	O	1.283445	-0.284454	0.441563
O24	O	1.783445	0.215546	0.941563
O25	O	1.453777	-0.367527	0.740909
O26	O	1.953777	0.132473	1.240909
O27	O	1.283410	-0.367561	0.570578
O28	O	1.783410	0.132439	1.070578
O29	O	1.582896	-0.284394	0.740951
O30	O	2.082896	0.215606	1.240951
O31	O	1.582655	-0.477335	0.441498
O32	O	2.082655	0.022665	0.941498
O33	O	1.453640	-0.477297	0.570541
O34	O	1.953640	0.022703	1.070541
C35	C	1.245306	-0.326006	0.506069
C36	C	1.745306	0.173994	1.006069
C37	C	1.128530	-0.326017	0.506088
C38	C	1.628530	0.173983	1.006088
C39	C	1.518155	-0.501875	0.506032
C40	C	2.018155	-0.001875	1.006032
C41	C	1.518201	-0.577107	0.506046
C42	C	2.018201	-0.077107	1.006046
C43	C	1.073677	-0.369360	0.573155
C44	C	1.573677	0.130640	1.073155
C45	C	0.963953	-0.369369	0.573166
C46	C	1.463953	0.130631	1.073166
C47	C	0.963944	-0.282689	0.439034
C48	C	1.463944	0.217311	0.939034
C49	C	1.073666	-0.282678	0.439029
C50	C	1.573666	0.217322	0.939029
C51	C	1.073681	-0.419406	0.650592
C52	C	1.573681	0.080594	1.150592
C53	C	0.963957	-0.419414	0.650603
C54	C	1.463957	0.080586	1.150603
C55	C	1.585444	-0.612448	0.438923
C56	C	2.085444	-0.112448	0.938923
C57	C	1.585489	-0.683137	0.438946
C58	C	2.085489	-0.183137	0.938946
C59	C	1.518284	-0.718482	0.506088
C60	C	2.018284	-0.218482	1.006088
C61	C	1.451038	-0.683136	0.573217
C62	C	1.951038	-0.183136	1.073217
C63	C	1.450999	-0.612449	0.573199
C64	C	1.950999	-0.112449	1.073199
C65	C	1.451193	-0.968209	0.573295
C66	C	1.951193	-0.468209	1.073295
C67	C	1.451234	-1.038901	0.573306
C68	C	1.951234	-0.538901	1.073306
C69	C	1.585683	-1.038897	0.439043
C70	C	2.085683	-0.538897	0.939043
C71	C	1.585644	-0.968210	0.439024
C72	C	2.085644	-0.468210	0.939024
C73	C	1.518402	-0.932870	0.506157
C74	C	2.018402	-0.432870	1.006157
C75	C	1.518356	-0.856221	0.506133
C76	C	2.018356	-0.356221	1.006133
C77	C	1.518324	-0.795129	0.506108
C78	C	2.018324	-0.295129	1.006108
C79	C	1.792307	-0.326032	0.506098
C80	C	2.292307	0.173968	1.006098
C81	C	1.909084	-0.326037	0.506104
C82	C	2.409084	0.173963	1.006104
C83	C	1.518347	-0.325950	0.780117
C84	C	2.018347	0.174050	1.280117
C85	C	1.518379	-0.325921	0.896893
C86	C	2.018379	0.174079	1.396893
C87	C	1.518421	-0.149476	0.506157
C88	C	2.018421	0.350524	1.006157
C89	C	1.518484	-0.074244	0.506189
C90	C	2.018484	0.425756	1.006189
C91	C	1.518261	-0.326038	0.233116
C92	C	2.018261	0.173962	0.733116
C93	C	1.518433	-0.325876	0.116340
C94	C	2.018433	0.174124	0.616340
C95	C	1.585620	-0.282630	0.951779
C96	C	2.085620	0.217370	1.451779
C97	C	1.585645	-0.282605	1.061503
C98	C	2.085645	0.217395	1.561503
C99	C	1.451184	-0.369170	1.061446
C100	C	1.951184	0.130830	1.561446
C101	C	1.451154	-0.369190	0.951724
C102	C	1.951154	0.130810	1.451724
C103	C	1.663254	-0.232655	0.951812
C104	C	2.163254	0.267345	1.451812
C105	C	1.663279	-0.232630	1.061537
C106	C	2.163279	0.267370	1.561537
H107	H	1.118323	-0.247379	0.384423
H108	H	1.618323	0.252621	0.884423
Br109	Br	1.798893	-0.256017	1.111176
Br110	Br	2.298893	0.243983	1.611176
H111	H	1.103494	-0.405426	0.732001
H112	H	1.603494	0.094574	1.232001
H113	H	1.396509	-1.067677	0.627989
H114	H	1.896509	-0.567677	1.127989
H115	H	1.640245	-0.711909	0.384288
H116	H	2.140245	-0.211909	0.884288
Br117	Br	0.889480	-0.223873	0.348034
Br118	Br	1.389480	0.276127	0.848034
H119	H	1.107680	-0.469175	0.621299
H120	H	1.607680	0.030825	1.121299
Br121	Br	1.359936	-0.920256	0.664405
Br122	Br	1.859936	-0.420256	1.164405
H123	H	1.396244	-0.583674	0.627858
H124	H	1.896244	-0.083674	1.127858
H125	H	1.396323	-0.711920	0.627889
H126	H	1.896323	-0.211920	1.127889
H127	H	1.740520	-0.251446	0.917773
H128	H	2.240520	0.248554	1.417773
Br129	Br	0.907290	-0.388226	0.779526
Br130	Br	1.407290	0.111774	1.279526
Br131	Br	0.914258	-0.506755	0.613998
Br132	Br	1.414258	-0.006755	1.113998
Br133	Br	1.614610	-0.149664	1.118311
Br134	Br	2.114610	0.350336	1.618311
H135	H	1.640365	-0.939434	0.384348
H136	H	2.140365	-0.439434	0.884348
Br137	Br	1.359873	-0.427931	0.877239
Br138	Br	1.859873	0.072069	1.377239
H139	H	1.640166	-0.583675	0.384245
H140	H	2.140166	-0.083675	0.884245
H141	H	1.640438	-1.067680	0.384384
H142	H	2.140438	-0.567680	0.884384
H143	H	1.396450	-0.404396	1.106103
H144	H	1.896450	0.095604	1.606103
H145	H	1.641502	-0.180237	0.922065
H146	H	2.141502	0.319763	1.422065
