data_functionalizedCrystal
_audit_creation_method	'MofGen! by Chris Wilmer'
_symmetry_space_group_name_H-M	'P1'
_symmetry_Int_Tables_number	1
_symmetry_cell_setting	triclinic
loop_
_symmetry_equiv_pos_as_xyz
  x,y,z
_cell_length_a	15.538191
_cell_length_b	14.044190
_cell_length_c	14.185569
_cell_angle_alpha	75.616153
_cell_angle_beta	97.875798
_cell_angle_gamma	70.231935
loop_
_atom_site_label
_atom_site_type_symbol
_atom_site_fract_x
_atom_site_fract_y
_atom_site_fract_z
O1	O	1.205754	-0.271180	-0.083403
O2	O	0.940434	-0.164805	-0.083413
O3	O	1.069112	-0.354612	-0.083388
O4	O	1.077075	-0.081372	-0.083428
O5	O	1.107126	-0.410679	0.083453
O6	O	0.978447	-0.220871	0.083429
O7	O	1.243767	-0.327246	0.083439
Cu8	Cu	1.114578	-0.279178	0.098668
Cu9	Cu	1.069623	-0.212873	-0.098642
O10	O	1.115088	-0.137438	0.083414
C11	C	1.084632	-0.416761	0.000035
C12	C	1.074232	-0.518411	0.000044
C13	C	0.925280	-0.181708	0.000007
C14	C	0.823492	-0.148557	0.000004
C15	C	0.508026	-0.477909	0.000036
C16	C	0.412379	-0.446734	0.000031
C17	C	0.404669	-0.271384	0.000006
C18	C	0.500318	-0.302546	0.000016
C19	C	0.551989	-0.405809	0.000030
C20	C	0.544281	-0.230446	0.000010
C21	C	0.639921	-0.261604	0.000015
C22	C	0.691597	-0.364862	0.000025
C23	C	0.647629	-0.436967	0.000034
C24	C	0.492607	-0.127181	-0.000011
C25	C	0.536570	-0.055081	-0.000017
C26	C	0.632213	-0.086241	-0.000005
C27	C	0.683889	-0.189498	0.000005
C28	C	0.676181	-0.014135	-0.000015
C29	C	0.771821	-0.045293	-0.000010
C30	C	0.779529	-0.220656	0.000010
C31	C	1.128981	-0.787524	0.000006
C32	C	1.055222	-0.704519	0.000011
C33	C	1.065802	-0.600960	0.000029
C34	C	1.118402	-0.891094	-0.000012
C35	C	1.258920	-0.310342	0.000017
C36	C	1.360707	-0.343491	0.000013
C37	C	1.099568	-0.075289	-0.000012
C38	C	1.109967	0.026363	-0.000027
N39	N	1.146203	-0.325816	0.237445
N40	N	1.038004	-0.166245	-0.237419
C41	C	0.945084	-0.029262	0.605057
C42	C	0.969047	-0.064585	0.710083
C43	C	1.083021	-0.232622	0.710065
C44	C	1.059065	-0.197314	0.605037
C45	C	0.990097	-0.095633	0.552541
C46	C	1.104077	-0.263686	0.552521
C47	C	1.080126	-0.228378	0.447502
C48	C	1.011162	-0.126699	0.394999
C49	C	0.966145	-0.060325	0.447522
C50	C	1.173050	-0.365364	0.605020
C51	C	1.218062	-0.431735	0.552504
C52	C	1.194106	-0.396431	0.447483
C53	C	1.125143	-0.294752	0.394979
C54	C	1.239123	-0.462805	0.394960
C55	C	1.215172	-0.427497	0.289941
C56	C	1.101191	-0.259445	0.289960
H57	H	0.769470	-0.390224	0.000016
C58	C	1.223681	-0.778379	-0.000127
C59	C	1.214469	-0.696932	-0.085937
C60	C	1.301683	-0.688454	-0.086084
H61	H	1.268650	-0.843990	-0.000180
H62	H	1.244115	-0.762244	0.058033
H63	H	1.194048	-0.713073	-0.144083
H64	H	1.169516	-0.631306	-0.085903
H65	H	1.322116	-0.672319	-0.027923
H66	H	1.346645	-0.754069	-0.086134
H67	H	1.295442	-0.633186	-0.144300
H68	H	0.807618	0.013415	-0.000005
H69	H	1.045023	-0.176650	0.247216
C70	C	0.364468	-0.524852	-0.000006
C71	C	0.269646	-0.475460	-0.000037
C72	C	0.225477	-0.547381	-0.000086
H73	H	0.394871	-0.585567	0.058165
H74	H	0.368412	-0.546416	-0.058206
H75	H	0.265707	-0.453912	0.058157
H76	H	0.239217	-0.414752	-0.058203
H77	H	0.229421	-0.568945	-0.058285
H78	H	0.255887	-0.608093	0.058086
H79	H	0.161134	-0.513876	-0.000116
H80	H	0.414730	-0.101814	-0.000018
C81	C	0.985349	-0.088433	0.280977
C82	C	1.065314	-0.087816	0.246203
C83	C	1.041573	-0.052584	0.141173
H84	H	0.937869	-0.018360	0.257105
H85	H	0.962495	-0.135043	0.257189
H86	H	1.088154	-0.041207	0.269980
H87	H	1.112803	-0.157877	0.270047
H88	H	1.018720	-0.099194	0.117385
H89	H	0.994092	0.017487	0.117311
H90	H	1.095827	-0.052170	0.117566
H91	H	0.909977	0.022470	0.404777
H92	H	0.689704	-0.521056	0.000052
C93	C	0.960516	-0.713690	0.000054
C94	C	0.968720	-0.816091	0.000065
C95	C	0.881504	-0.824590	0.000122
H96	H	0.914863	-0.662296	-0.058107
H97	H	0.941450	-0.701405	0.058263
H98	H	0.987773	-0.828364	-0.058138
H99	H	1.014355	-0.867505	0.058222
H100	H	0.862438	-0.812305	0.058331
H101	H	0.835858	-0.773190	-0.058041
H102	H	0.887061	-0.894071	0.000139
C103	C	0.563964	-0.590055	-0.000000
C104	C	0.504991	-0.646529	-0.000016
C105	C	0.556483	-0.749829	-0.000067
H106	H	0.614697	-0.625538	0.058165
H107	H	0.588151	-0.586335	-0.058205
H108	H	0.480818	-0.650254	0.058183
H109	H	0.454258	-0.611079	-0.058177
H110	H	0.580671	-0.746109	-0.058272
H111	H	0.607214	-0.785301	0.058100
H112	H	0.516476	-0.788156	-0.000087
H113	H	0.888917	0.053533	0.562312
H114	H	0.362585	-0.187305	-0.000010
C115	C	1.293075	-0.542062	0.609446
C116	C	1.378473	-0.549433	0.583897
C117	C	1.447595	-0.651050	0.636337
H118	H	1.274160	-0.594435	0.592280
H119	H	1.300961	-0.553613	0.679524
H120	H	1.370587	-0.537895	0.513835
H121	H	1.397417	-0.497084	0.601066
H122	H	1.455481	-0.662601	0.706415
H123	H	1.428671	-0.703415	0.619167
H124	H	1.505547	-0.656062	0.619016
C125	C	1.157803	-0.343109	0.766943
C126	C	1.129523	-0.419944	0.741389
C127	C	1.198388	-0.521738	0.793753
H128	H	1.165676	-0.354786	0.837024
H129	H	1.215831	-0.348369	0.749699
H130	H	1.071512	-0.414687	0.758639
H131	H	1.121657	-0.408302	0.671316
H132	H	1.256416	-0.526998	0.776510
H133	H	1.206256	-0.533404	0.863832
H134	H	1.179214	-0.573882	0.776416
H135	H	0.932388	-0.010528	0.752836
C136	C	1.314143	-0.573127	0.451905
C137	C	1.399537	-0.580487	0.426351
C138	C	1.468668	-0.682098	0.478795
H139	H	1.295236	-0.625508	0.434745
H140	H	1.322029	-0.584673	0.521983
H141	H	1.391650	-0.568953	0.356289
H142	H	1.418473	-0.528130	0.443513
H143	H	1.476554	-0.693644	0.548872
H144	H	1.449751	-0.734470	0.461631
H145	H	1.526617	-0.687102	0.461471
H146	H	1.192551	-0.394105	0.690533
C147	C	1.263925	-0.499635	0.232925
C148	C	1.247304	-0.593664	0.258405
C149	C	1.292191	-0.660112	0.205871
H150	H	1.329808	-0.516508	0.250062
H151	H	1.239750	-0.464056	0.162860
H152	H	1.271483	-0.629237	0.328454
H153	H	1.181431	-0.576824	0.241265
H154	H	1.268016	-0.624533	0.135806
H155	H	1.358071	-0.676977	0.223012
H156	H	1.280913	-0.723914	0.223145
H157	H	0.821604	-0.304746	0.000028
H158	H	0.494485	0.028998	-0.000033
H159	H	0.634094	0.069945	-0.000036
