data_functionalizedCrystal
_audit_creation_method	'MofGen! by Chris Wilmer'
_symmetry_space_group_name_H-M	'P1'
_symmetry_Int_Tables_number	1
_symmetry_cell_setting	triclinic
loop_
_symmetry_equiv_pos_as_xyz
  x,y,z
_cell_length_a	15.944551
_cell_length_b	19.188930
_cell_length_c	14.421503
_cell_angle_alpha	89.999163
_cell_angle_beta	89.996859
_cell_angle_gamma	83.321760
loop_
_atom_site_label
_atom_site_type_symbol
_atom_site_fract_x
_atom_site_fract_y
_atom_site_fract_z
O1	O	1.114192	0.090038	-0.077026
O2	O	1.614192	0.590038	0.422974
O3	O	0.869601	0.101140	-0.077050
O4	O	1.369601	0.601140	0.422950
O5	O	0.998955	-0.006048	-0.077019
O6	O	1.498955	0.493952	0.422981
O7	O	0.984838	0.197227	-0.077057
O8	O	1.484838	0.697227	0.422943
O9	O	0.998934	-0.006032	0.077204
O10	O	1.498934	0.493968	0.577204
O11	O	0.869580	0.101156	0.077173
O12	O	1.369580	0.601156	0.577173
O13	O	1.114171	0.090054	0.077198
O14	O	1.614171	0.590054	0.577198
Cu15	Cu	0.991873	0.095607	0.091267
Cu16	Cu	1.491873	0.595607	0.591267
Cu17	Cu	0.991899	0.095588	-0.091120
Cu18	Cu	1.491899	0.595588	0.408880
O19	O	0.984817	0.197243	0.077167
O20	O	1.484817	0.697243	0.577167
C21	C	0.838298	0.100687	0.000059
C22	C	1.338298	0.600687	0.500059
C23	C	0.745057	0.099306	0.000050
C24	C	1.245057	0.599306	0.500050
C25	C	0.530462	0.029563	0.000081
C26	C	1.030462	0.529563	0.500081
C27	C	0.469331	0.061941	-0.075965
C28	C	0.969331	0.561941	0.424035
C29	C	0.574341	0.096806	0.000062
C30	C	1.074341	0.596806	0.500062
C31	C	0.469332	0.061973	0.076087
C32	C	0.969332	0.561973	0.576087
C33	C	0.409437	0.094386	0.000077
C34	C	0.909437	0.594386	0.500077
C35	C	0.514438	0.129203	-0.076047
C36	C	1.014438	0.629203	0.423953
C37	C	0.514446	0.129225	0.076073
C38	C	1.014446	0.629225	0.576073
C39	C	0.453332	0.161652	0.000008
C40	C	0.953332	0.661652	0.500008
C41	C	0.669338	0.098198	0.000052
C42	C	1.169338	0.598198	0.500052
C43	C	0.314441	0.093000	0.000080
C44	C	0.814441	0.593000	0.500080
C45	C	0.998487	-0.032052	0.000095
C46	C	1.498487	0.467948	0.500095
C47	C	0.997115	-0.109560	0.000103
C48	C	1.497115	0.390440	0.500103
C49	C	1.073016	-0.154288	0.000115
C50	C	1.573016	0.345712	0.500115
C51	C	1.071726	-0.227115	0.000100
C52	C	1.571726	0.272885	0.500100
C53	C	0.994532	-0.255211	0.000092
C54	C	1.494532	0.244789	0.500092
C55	C	0.918622	-0.210474	0.000075
C56	C	1.418622	0.289526	0.500075
C57	C	0.919913	-0.137648	0.000080
C58	C	1.419913	0.362352	0.500080
N59	N	0.935519	-0.363364	0.052571
N60	N	1.435519	0.136636	0.552571
N61	N	0.934298	-0.432545	0.052568
N62	N	1.434298	0.067455	0.552568
C63	C	0.990637	-0.474630	0.000073
C64	C	1.490637	0.025370	0.500073
N65	N	1.048256	-0.444921	-0.052407
N66	N	1.548256	0.055079	0.447593
N67	N	1.049480	-0.375733	-0.052400
N68	N	1.549480	0.124267	0.447600
C69	C	0.993123	-0.334178	0.000085
C70	C	1.493123	0.165822	0.500085
C71	C	1.065145	-0.598326	0.000067
C72	C	1.565145	-0.098326	0.500067
C73	C	1.063852	-0.671154	0.000046
C74	C	1.563852	-0.171154	0.500046
C75	C	0.910745	-0.654511	0.000030
C76	C	1.410745	-0.154511	0.500030
C77	C	0.912040	-0.581685	0.000041
C78	C	1.412040	-0.081685	0.500041
C79	C	0.989242	-0.553597	0.000064
C80	C	1.489242	-0.053597	0.500064
C81	C	1.145474	0.090507	0.000087
C82	C	1.645474	0.590507	0.500087
C83	C	1.238715	0.091889	0.000089
C84	C	1.738715	0.591889	0.500089
C85	C	0.985285	0.223247	0.000050
C86	C	1.485285	0.723247	0.500050
C87	C	0.986657	0.300755	0.000036
C88	C	1.486657	0.800755	0.500036
N89	N	0.991862	0.095619	0.219549
N90	N	1.491862	0.595619	0.719549
N91	N	0.991917	0.095569	-0.219401
N92	N	1.491917	0.595569	0.280599
C93	C	0.932038	0.145161	0.469188
C94	C	1.432038	0.645161	0.969188
C95	C	1.007887	0.158716	0.530995
C96	C	1.507887	0.658716	1.030995
C97	C	0.991882	0.095603	0.408710
C98	C	1.491882	0.595603	0.908710
C99	C	0.916052	0.082064	0.530997
C100	C	1.416052	0.582064	1.030997
C101	C	0.991895	0.095588	0.591431
C102	C	1.491895	0.595588	1.091431
C103	C	1.067770	0.109189	0.469157
C104	C	1.567770	0.609189	0.969157
C105	C	0.975885	0.032510	0.469153
C106	C	1.475885	0.532510	0.969153
C107	C	1.051789	0.046038	0.530932
C108	C	1.551789	0.546038	1.030932
C109	C	0.991874	0.095613	0.303449
C110	C	1.491874	0.595613	0.803449
C111	C	0.991913	0.095578	0.696690
C112	C	1.491913	0.595578	1.196690
H113	H	0.449336	0.033493	-0.140247
H114	H	0.949336	0.533493	0.359753
H115	H	1.125662	-0.707571	0.000051
H116	H	1.625662	-0.207571	0.500051
H117	H	0.855769	-0.233354	0.000066
H118	H	1.355769	0.266646	0.500066
C119	C	0.541497	0.167621	0.162913
C120	C	1.041497	0.667621	0.662913
H121	H	0.526238	0.143667	0.216897
H122	H	1.026238	0.643667	0.716897
H123	H	0.514026	0.214281	0.163451
H124	H	1.014026	0.714281	0.663451
H125	H	0.600926	0.168586	0.161976
H126	H	1.100926	0.668586	0.661976
H127	H	0.881481	0.187105	0.442078
H128	H	1.381481	0.687105	0.942078
H129	H	0.850233	-0.545266	0.000037
H130	H	1.350233	-0.045266	0.500037
H131	H	1.133536	-0.263540	0.000106
H132	H	1.633536	0.236460	0.500106
C133	C	1.026178	0.230782	0.567706
C134	C	1.526178	0.730782	1.067706
H135	H	0.983602	0.265949	0.546574
H136	H	1.483602	0.765949	1.046574
H137	H	1.079640	0.240740	0.545627
H138	H	1.579640	0.740740	1.045627
H139	H	1.026556	0.230120	0.633574
H140	H	1.526556	0.730120	1.133574
H141	H	0.847892	-0.677386	0.000019
H142	H	1.347892	-0.177386	0.500019
C143	C	0.836419	-0.088446	0.000076
C144	C	1.336419	0.411554	0.500076
H145	H	0.790258	-0.115606	0.000073
H146	H	1.290258	0.384394	0.500073
H147	H	0.833747	-0.059685	-0.053700
H148	H	1.333747	0.440315	0.446300
H149	H	0.833735	-0.059698	0.053869
H150	H	1.333735	0.440302	0.553869
H151	H	1.131917	0.120698	0.442107
H152	H	1.631917	0.620698	0.942107
C153	C	1.157932	-0.123391	0.000137
C154	C	1.657932	0.376609	0.500137
H155	H	1.147833	-0.073613	0.000147
H156	H	1.647833	0.426387	0.500147
H157	H	1.189187	-0.138744	-0.053638
H158	H	1.689187	0.361256	0.446362
H159	H	1.189158	-0.138748	0.053931
H160	H	1.689158	0.361252	0.553931
H161	H	1.102458	0.004119	0.557872
H162	H	1.602458	0.504119	1.057872
H163	H	0.962318	-0.020823	0.441967
H164	H	1.462318	0.479177	0.941967
H165	H	0.851919	0.070620	0.558163
H166	H	1.351919	0.570620	1.058163
H167	H	0.564003	-0.026244	-0.000003
H168	H	1.064003	0.473756	0.499997
C169	C	1.150059	-0.567422	0.000081
C170	C	1.650059	-0.067422	0.500081
H171	H	1.139958	-0.517643	0.000095
H172	H	1.639958	-0.017643	0.500095
H173	H	1.181308	-0.582771	-0.053699
H174	H	1.681308	-0.082771	0.446301
H175	H	1.181292	-0.582780	0.053870
H176	H	1.681292	-0.082780	0.553870
C177	C	0.541299	0.167601	-0.162984
C178	C	1.041299	0.667601	0.337016
H179	H	0.600789	0.168226	-0.162470
H180	H	1.100789	0.668226	0.337530
H181	H	0.514187	0.214379	-0.163189
H182	H	1.014187	0.714379	0.336811
H183	H	0.525505	0.143878	-0.216926
H184	H	1.025505	0.643878	0.283074
H185	H	0.419965	0.217516	-0.000045
H186	H	0.919965	0.717516	0.499955
H187	H	0.449343	0.033526	0.140376
H188	H	0.949343	0.533526	0.640376
