data_functionalizedCrystal
_audit_creation_method	'MofGen! by Chris Wilmer'
_symmetry_space_group_name_H-M	'P1'
_symmetry_Int_Tables_number	1
_symmetry_cell_setting	triclinic
loop_
_symmetry_equiv_pos_as_xyz
  x,y,z
_cell_length_a	12.811457
_cell_length_b	15.625429
_cell_length_c	11.892095
_cell_angle_alpha	75.870647
_cell_angle_beta	91.498327
_cell_angle_gamma	85.833104
loop_
_atom_site_label
_atom_site_type_symbol
_atom_site_fract_x
_atom_site_fract_y
_atom_site_fract_z
O1	O	1.392902	0.121362	-0.000948
O2	O	1.089878	0.132395	-0.036537
O3	O	1.245781	-0.001098	0.034166
O4	O	1.236999	0.254855	-0.071651
O5	O	1.232781	0.010015	0.216285
O6	O	1.076878	0.143508	0.145582
O7	O	1.379902	0.132475	0.181171
Zn8	Zn	1.226326	0.139756	0.192292
Zn9	Zn	1.243453	0.125114	-0.047658
O10	O	1.223999	0.265968	0.110468
C11	C	1.044529	0.136993	0.050933
C12	C	0.928772	0.134125	0.040240
C13	C	0.697078	0.140837	0.218723
C14	C	0.588314	0.138143	0.208683
C15	C	0.602477	0.126036	0.010121
C16	C	0.711241	0.128730	0.020162
C17	C	0.758538	0.136132	0.124466
C18	C	0.867304	0.138833	0.134503
C19	C	0.881465	0.126720	-0.064055
C20	C	0.772701	0.124026	-0.074095
C21	C	1.237596	-0.028323	0.138488
C22	C	1.232563	-0.125999	0.178003
C23	C	1.251408	-0.477532	-0.188367
C24	C	1.246672	-0.569311	-0.151203
C25	C	1.232501	-0.557182	0.047331
C26	C	1.237241	-0.465401	0.010184
C27	C	1.246694	-0.425583	-0.107666
C28	C	1.232527	-0.413452	0.090885
C29	C	1.237261	-0.321678	0.053741
C30	C	1.246710	-0.281853	-0.064105
C31	C	1.251428	-0.333809	-0.144811
C32	C	1.223067	-0.453271	0.208734
C33	C	1.218353	-0.401322	0.289435
C34	C	1.223094	-0.309547	0.252292
C35	C	1.232543	-0.269722	0.134446
C36	C	1.218376	-0.257591	0.332997
C37	C	1.223111	-0.165817	0.295853
C38	C	1.237278	-0.177948	0.097302
C39	C	1.425251	0.127877	0.093699
C40	C	1.541009	0.130744	0.104384
C41	C	1.232184	0.293192	0.006144
C42	C	1.237217	0.390868	-0.033378
N43	N	1.214645	0.149748	0.356053
N44	N	1.255143	0.115115	-0.211415
C45	C	1.336425	0.045533	0.647904
C46	C	1.328268	0.052524	0.762544
C47	C	1.190168	0.170716	0.699976
C48	C	1.198326	0.163725	0.585336
C49	C	1.271458	0.101133	0.559305
C50	C	1.279620	0.094147	0.444662
C51	C	1.141515	0.212334	0.382097
C52	C	1.133358	0.219325	0.496737
H53	H	0.931517	0.122894	-0.140808
H54	H	1.381170	0.007249	0.834681
H55	H	0.538276	0.141979	0.285435
H56	H	1.339170	0.043183	0.423469
H57	H	1.219250	-0.123516	0.361565
O58	O	1.209128	-0.439859	0.403947
C59	C	1.195652	-0.418147	0.596972
C60	C	1.206070	-0.374391	0.467318
H61	H	1.193199	-0.365238	0.648248
H62	H	1.120409	-0.453439	0.608940
H63	H	1.265717	-0.468177	0.629723
H64	H	1.136062	-0.324323	0.434482
H65	H	1.281355	-0.339156	0.455426
H66	H	1.130619	0.221672	0.721189
H67	H	1.250553	-0.207123	-0.094348
H68	H	1.073812	0.270284	0.517947
H69	H	0.905810	0.144865	0.219431
O70	O	0.742866	0.147993	0.320136
C71	C	0.717336	0.159779	0.515996
C72	C	0.665352	0.151657	0.401222
H73	H	0.654688	0.162762	0.581577
H74	H	0.775532	0.099901	0.551705
H75	H	0.760276	0.222756	0.499642
H76	H	0.622355	0.088715	0.417480
H77	H	0.607213	0.211580	0.365548
O78	O	1.246295	-0.139267	-0.017211
C79	C	1.169998	-0.112454	-0.211256
C80	C	1.159636	-0.156297	-0.081619
H81	H	1.099957	-0.126222	-0.263370
H82	H	1.172512	-0.037927	-0.223980
H83	H	1.245251	-0.140808	-0.242400
H84	H	1.084388	-0.128014	-0.050389
H85	H	1.157184	-0.230821	-0.068970
O86	O	1.078503	0.266475	0.296042
C87	C	1.024551	0.416683	0.192821
C88	C	1.095980	0.355467	0.290292
H89	H	1.038640	0.488646	0.188157
H90	H	1.042942	0.401018	0.106364
H91	H	0.939127	0.405696	0.211840
H92	H	1.181427	0.366419	0.271385
H93	H	1.077499	0.371145	0.376719
O94	O	0.556449	0.118999	-0.091229
C95	C	0.432311	0.184942	-0.249881
C96	C	0.484377	0.193032	-0.135132
H97	H	0.374013	0.244779	-0.285399
H98	H	0.494861	0.182095	-0.315610
H99	H	0.389460	0.121918	-0.233539
H100	H	0.527223	0.256053	-0.151363
H101	H	0.421779	0.195829	-0.069441
H102	H	0.734177	0.117995	-0.159015
H103	H	1.259134	-0.301388	-0.240775
H104	H	1.259114	-0.445111	-0.284331
H105	H	1.250502	-0.611604	-0.216930
O106	O	1.223462	-0.595777	0.161857
C107	C	1.299885	-0.622618	0.355851
C108	C	1.310234	-0.578852	0.226188
H109	H	1.370040	-0.608966	0.407897
H110	H	1.224721	-0.594224	0.387129
H111	H	1.297260	-0.697128	0.368506
H112	H	1.312903	-0.504341	0.213433
H113	H	1.385385	-0.607316	0.194972
H114	H	1.219201	-0.527999	0.238972
O115	O	1.407342	-0.015289	0.622469
C116	C	1.435126	-0.143099	0.544093
C117	C	1.354693	-0.074271	0.572824
H118	H	1.392588	-0.190814	0.503972
H119	H	1.492136	-0.107878	0.480021
H120	H	1.480202	-0.181595	0.627104
H121	H	1.309543	-0.035754	0.489878
H122	H	1.297753	-0.109544	0.636941
O123	O	1.209005	-0.296217	0.447456
C124	C	1.105538	-0.304804	0.615592
C125	C	1.116010	-0.261007	0.485960
H126	H	1.030368	-0.276341	0.646768
H127	H	1.102886	-0.379320	0.628334
H128	H	1.175662	-0.291132	0.667668
H129	H	1.045906	-0.274610	0.433802
H130	H	1.118711	-0.186504	0.473309
