data_functionalizedCrystal
_audit_creation_method	'MofGen! by Chris Wilmer'
_symmetry_space_group_name_H-M	'P1'
_symmetry_Int_Tables_number	1
_symmetry_cell_setting	triclinic
loop_
_symmetry_equiv_pos_as_xyz
  x,y,z
_cell_length_a	10.654549
_cell_length_b	9.065218
_cell_length_c	9.130313
_cell_angle_alpha	89.997322
_cell_angle_beta	89.997498
_cell_angle_gamma	84.750331
loop_
_atom_site_label
_atom_site_type_symbol
_atom_site_fract_x
_atom_site_fract_y
_atom_site_fract_z
O1	O	1.668660	0.207232	-0.121759
O2	O	1.303260	0.226977	-0.121769
O3	O	1.493513	0.002421	-0.121761
O4	O	1.478408	0.431788	-0.121767
O5	O	1.493500	0.002414	0.121838
O6	O	1.303247	0.226970	0.121830
O7	O	1.668647	0.207226	0.121840
Cu8	Cu	1.485946	0.217097	0.144077
Cu9	Cu	1.485962	0.217105	-0.144007
O10	O	1.478394	0.431782	0.121832
C11	C	1.256450	0.225524	0.000029
C12	C	1.116989	0.221187	0.000025
C13	C	0.906982	0.349315	0.000029
C14	C	1.038019	0.353402	0.000021
C15	C	1.064917	0.084876	0.000024
C16	C	0.933883	0.080792	0.000022
C17	C	1.492055	-0.052561	0.000036
C18	C	1.487714	-0.216380	0.000029
C19	C	1.715458	0.208679	0.000038
C20	C	1.854918	0.213016	0.000033
C21	C	1.479853	0.486764	0.000031
C22	C	1.484193	0.650583	0.000029
N23	N	1.485944	0.217091	0.346700
N24	N	1.485973	0.217100	-0.346629
C25	C	1.570217	0.117700	0.423355
C26	C	1.570229	0.117700	0.576692
C27	C	1.401691	0.316496	0.576705
C28	C	1.401674	0.316487	0.423371
H29	H	1.129226	-0.022775	0.000019
O30	O	1.094179	0.500410	0.000041
H31	H	1.017252	0.591660	0.000064
O32	O	1.310763	0.423695	0.340695
H33	H	1.249008	0.360898	0.270875
H34	H	1.638833	0.036763	0.360934
O35	O	0.821808	0.491920	0.000022
H36	H	0.880031	0.587383	0.000004
O37	O	1.310820	0.423711	0.659409
H38	H	1.328123	0.538902	0.629946
H39	H	1.638850	0.036765	0.639101
H40	H	0.891493	-0.030207	0.000020
