data_functionalizedCrystal
_audit_creation_method	'MofGen! by Chris Wilmer'
_symmetry_space_group_name_H-M	'P1'
_symmetry_Int_Tables_number	1
_symmetry_cell_setting	triclinic
loop_
_symmetry_equiv_pos_as_xyz
  x,y,z
_cell_length_a	15.944493
_cell_length_b	15.944493
_cell_length_c	17.766277
_cell_angle_alpha	89.999511
_cell_angle_beta	89.991205
_cell_angle_gamma	83.475044
loop_
_atom_site_label
_atom_site_type_symbol
_atom_site_fract_x
_atom_site_fract_y
_atom_site_fract_z
O1	O	1.114538	0.108104	-0.062574
O2	O	0.869979	0.121512	-0.062577
O3	O	0.998962	-0.007471	-0.062582
O4	O	0.985554	0.237088	-0.062569
O5	O	0.998939	-0.007478	0.062607
O6	O	0.869956	0.121505	0.062612
O7	O	1.114515	0.108098	0.062614
Cu8	Cu	0.992233	0.114801	0.074044
Cu9	Cu	0.992260	0.114809	-0.074006
O10	O	0.985532	0.237081	0.062619
C11	C	0.838673	0.120961	0.000017
C12	C	0.745424	0.119318	0.000016
C13	C	0.509649	0.195240	0.000019
C14	C	0.459088	0.154295	0.061745
C15	C	0.574704	0.116273	0.000017
C16	C	0.459115	0.154283	-0.061682
C17	C	0.409795	0.113339	0.000015
C18	C	0.525371	0.075350	0.061793
C19	C	0.525401	0.075349	-0.061688
C20	C	0.474873	0.034346	0.000053
C21	C	0.669704	0.117966	0.000019
C22	C	0.314798	0.111640	0.000018
C23	C	0.998403	-0.038769	0.000009
C24	C	0.996760	-0.132018	-0.000000
C25	C	1.072682	-0.367793	0.000015
C26	C	1.031751	-0.418350	-0.061710
C27	C	0.993716	-0.302738	0.000009
C28	C	1.031711	-0.418332	0.061716
C29	C	0.990781	-0.467647	0.000021
C30	C	0.952806	-0.352066	-0.061767
C31	C	0.952777	-0.352045	0.061715
C32	C	0.911788	-0.402569	-0.000025
C33	C	0.995408	-0.207739	0.000001
C34	C	0.989082	-0.562644	0.000023
C35	C	1.145821	0.108649	0.000019
C36	C	1.239069	0.110292	0.000015
C37	C	0.986091	0.268379	0.000026
C38	C	0.987734	0.361627	0.000031
N39	N	0.992221	0.114795	0.178174
N40	N	0.992280	0.114808	-0.178137
C41	C	1.049353	0.057709	0.217559
C42	C	1.049358	0.057705	0.296361
C43	C	0.992238	0.114802	0.335775
C44	C	0.935095	0.171892	0.296380
C45	C	0.935087	0.171888	0.217580
C46	C	0.981221	0.191304	0.460616
C47	C	0.981236	0.191309	0.539415
C48	C	0.992261	0.114812	0.578821
C49	C	1.003289	0.038307	0.539418
C50	C	1.003280	0.038304	0.460618
C51	C	0.992241	0.114811	0.421220
C52	C	1.049402	0.057717	0.703652
C53	C	1.049401	0.057712	0.782455
C54	C	0.935142	0.171906	0.782473
C55	C	0.935139	0.171904	0.703671
C56	C	0.992273	0.114810	0.664265
H57	H	0.554197	0.042018	0.114029
H58	H	0.459422	-0.033727	0.000085
H59	H	0.888562	0.218375	0.185512
C60	C	0.907809	-0.313129	-0.132345
H61	H	0.909173	-0.253717	-0.131933
H62	H	0.850834	-0.325234	-0.132528
H63	H	0.935678	-0.336407	-0.176121
C64	C	1.076761	-0.457427	0.132210
H65	H	1.038166	-0.485152	0.161279
H66	H	1.097128	-0.414167	0.161467
H67	H	1.122783	-0.497095	0.117366
H68	H	0.525258	0.263261	0.000080
H69	H	0.430134	0.187641	0.113931
C70	C	0.564546	0.030346	-0.132189
H71	H	0.541748	0.058499	-0.176003
H72	H	0.552039	-0.026498	-0.132636
H73	H	0.624007	0.031293	-0.131431
H74	H	0.919447	-0.323080	0.113900
H75	H	0.843715	-0.418021	-0.000059
H76	H	0.888587	0.218379	0.328475
H77	H	1.065109	-0.447300	-0.113893
H78	H	0.430179	0.187650	-0.113858
C79	C	1.164566	-0.346692	-0.000066
H80	H	1.192505	-0.369514	-0.043978
H81	H	1.192879	-0.370372	0.043338
H82	H	1.164994	-0.287162	0.000376
C83	C	1.112189	-0.005100	0.174216
H84	H	1.146211	-0.039104	0.208963
H85	H	1.147144	0.025127	0.143463
H86	H	1.081971	-0.040086	0.143489
C87	C	1.112207	-0.005090	0.339693
H88	H	1.146235	-0.039090	0.304938
H89	H	1.082006	-0.040069	0.370444
H90	H	1.147168	0.025155	0.370421
H91	H	1.012258	-0.023989	0.428539
C92	C	1.015411	-0.045844	0.582753
H93	H	1.013826	-0.034889	0.635327
H94	H	1.068389	-0.075780	0.569833
H95	H	0.971481	-0.078773	0.569845
H96	H	1.095921	0.011225	0.671566
H97	H	1.095922	0.011221	0.814522
C98	C	0.872311	0.234711	0.825819
H99	H	0.880501	0.226541	0.878391
H100	H	0.816255	0.225565	0.812917
H101	H	0.881427	0.290779	0.812901
C102	C	0.872302	0.234708	0.660346
H103	H	0.838288	0.268718	0.695103
H104	H	0.837340	0.204477	0.629613
H105	H	0.902514	0.269689	0.629600
C106	C	0.969106	0.275456	0.582755
H107	H	0.970701	0.264504	0.635328
H108	H	0.916121	0.305382	0.569853
H109	H	1.013028	0.308393	0.569827
C110	C	0.969099	0.275456	0.417277
H111	H	0.962546	0.321018	0.452028
H112	H	0.920188	0.277140	0.386546
H113	H	1.017097	0.280130	0.386530
