data_functionalizedCrystal
_audit_creation_method	'MofGen! by Chris Wilmer'
_symmetry_space_group_name_H-M	'P1'
_symmetry_Int_Tables_number	1
_symmetry_cell_setting	triclinic
loop_
_symmetry_equiv_pos_as_xyz
  x,y,z
_cell_length_a	19.077105
_cell_length_b	19.077068
_cell_length_c	19.076929
_cell_angle_alpha	94.467801
_cell_angle_beta	90.078300
_cell_angle_gamma	90.115316
loop_
_atom_site_label
_atom_site_type_symbol
_atom_site_fract_x
_atom_site_fract_y
_atom_site_fract_z
Zn1	Zn	1.044032	-0.340427	-0.453497
Zn2	Zn	1.377365	-0.007094	-0.120164
Zn3	Zn	1.710699	0.326240	0.213169
Zn4	Zn	1.043949	-0.453583	-0.340339
Zn5	Zn	1.377283	-0.120249	-0.007006
Zn6	Zn	1.710616	0.213084	0.326328
Zn7	Zn	0.931648	-0.331006	-0.330929
Zn8	Zn	1.264981	0.002327	0.002404
Zn9	Zn	1.598315	0.335660	0.335738
Zn10	Zn	0.921785	-0.453152	-0.453075
Zn11	Zn	1.255118	-0.119819	-0.119741
Zn12	Zn	1.588451	0.213514	0.213592
O13	O	0.985354	-0.394542	-0.394460
O14	O	1.318687	-0.061209	-0.061127
O15	O	1.652020	0.272125	0.272207
O16	O	1.142180	-0.359560	-0.442602
O17	O	1.475514	-0.026227	-0.109268
O18	O	1.808847	0.307107	0.224065
O19	O	1.033146	-0.433560	-0.240615
O20	O	1.366479	-0.100227	0.092718
O21	O	1.699812	0.233107	0.426052
O22	O	0.950719	-0.233781	-0.343427
O23	O	1.284052	0.099552	-0.010094
O24	O	1.617385	0.432885	0.323240
O25	O	1.142120	-0.442695	-0.359465
O26	O	1.475453	-0.109362	-0.026131
O27	O	1.808786	0.223972	0.307202
O28	O	1.033287	-0.240703	-0.433477
O29	O	1.366620	0.092631	-0.100144
O30	O	1.699953	0.425964	0.233189
O31	O	0.950638	-0.343504	-0.233702
O32	O	1.283972	-0.010170	0.099632
O33	O	1.617305	0.323163	0.432965
O34	O	0.832180	-0.343086	-0.343017
O35	O	1.165514	-0.009753	-0.009684
O36	O	1.498847	0.323580	0.323650
O37	O	0.933908	-0.441962	-0.551606
O38	O	1.267241	-0.108628	-0.218273
O39	O	1.600574	0.224705	0.115060
O40	O	0.824934	-0.432827	-0.432757
O41	O	1.158267	-0.099493	-0.099424
O42	O	1.491600	0.233840	0.233910
O43	O	1.023722	-0.359143	-0.551917
O44	O	1.357056	-0.025810	-0.218584
O45	O	1.690389	0.307524	0.114750
O46	O	1.023581	-0.552000	-0.359055
O47	O	1.356915	-0.218667	-0.025721
O48	O	1.690248	0.114667	0.307612
O49	O	0.933828	-0.551684	-0.441881
O50	O	1.267161	-0.218351	-0.108548
O51	O	1.600494	0.114983	0.224785
C52	C	0.803105	-0.386888	-0.386820
C53	C	1.136439	-0.053555	-0.053487
C54	C	1.469772	0.279779	0.279846
C55	C	0.725137	-0.383631	-0.383570
C56	C	1.058471	-0.050298	-0.050236
C57	C	1.391804	0.283035	0.283097
C58	C	0.684753	-0.428889	-0.428697
C59	C	1.018087	-0.095556	-0.095364
C60	C	1.351420	0.237777	0.237970
C61	C	0.611494	-0.425820	-0.425645
C62	C	0.944828	-0.092487	-0.092312
C63	C	1.278161	0.240847	0.241021
C64	C	0.578621	-0.377496	-0.377463
C65	C	0.911954	-0.044162	-0.044129
C66	C	1.245287	0.289171	0.289204
C67	C	0.619010	-0.332233	-0.332333
C68	C	0.952343	0.001100	0.001000
C69	C	1.285677	0.334434	0.334333
C70	C	0.692268	-0.335299	-0.335389
C71	C	1.025601	-0.001966	-0.002055
C72	C	1.358934	0.331367	0.331278
C73	C	0.359927	-0.363304	-0.363325
C74	C	0.693260	-0.029971	-0.029991
C75	C	1.026594	0.303362	0.303342
C76	C	0.286664	-0.360243	-0.360271
C77	C	0.619997	-0.026910	-0.026938
C78	C	0.953331	0.306424	0.306396
C79	C	0.279153	-0.453830	-0.453584
C80	C	0.612487	-0.120496	-0.120251
C81	C	0.945820	0.212837	0.213082
C82	C	0.352413	-0.456895	-0.456633
C83	C	0.685746	-0.123561	-0.123299
C84	C	1.019079	0.209772	0.210034
C85	C	0.392795	-0.411629	-0.411506
C86	C	0.726129	-0.078296	-0.078173
C87	C	1.059462	0.255037	0.255161
N88	N	0.503738	-0.374359	-0.374341
N89	N	0.837072	-0.041026	-0.041007
N90	N	1.170405	0.292308	0.292326
N91	N	0.467676	-0.414763	-0.414632
N92	N	0.801010	-0.081430	-0.081299
N93	N	1.134343	0.251903	0.252035
C94	C	0.977644	-0.577377	-0.401459
C95	C	1.310977	-0.244044	-0.068126
C96	C	1.644310	0.089290	0.265207
C97	C	0.974409	-0.655598	-0.404480
C98	C	1.307742	-0.322265	-0.071146
C99	C	1.641075	0.011069	0.262187
C100	C	1.019652	-0.692490	-0.362814
C101	C	1.352985	-0.359157	-0.029481
C102	C	1.686319	-0.025824	0.303852
C103	C	1.016613	-0.765988	-0.365660
C104	C	1.349946	-0.432655	-0.032326
C105	C	1.683280	-0.099321	0.301007
C106	C	0.968327	-0.802591	-0.410167
C107	C	1.301660	-0.469258	-0.076834
C108	C	1.634994	-0.135924	0.256500
C109	C	0.923082	-0.765693	-0.451837
C110	C	1.256415	-0.432360	-0.118504
C111	C	1.589748	-0.099027	0.214829
C112	C	0.926124	-0.692198	-0.448995
C113	C	1.259458	-0.358864	-0.115662
C114	C	1.592791	-0.025531	0.217671
C115	C	0.954215	-1.022385	-0.423291
C116	C	1.287549	-0.689051	-0.089957
C117	C	1.620882	-0.355718	0.243376
C118	C	0.951175	-1.095885	-0.426128
C119	C	1.284508	-0.762552	-0.092795
C120	C	1.617841	-0.429219	0.240539
C121	C	1.044708	-1.096175	-0.339951
C122	C	1.378041	-0.762841	-0.006617
C123	C	1.711374	-0.429508	0.326716
C124	C	1.047743	-1.022677	-0.337110
C125	C	1.381076	-0.689344	-0.003776
C126	C	1.714410	-0.356011	0.329557
C127	C	1.002500	-0.985786	-0.378782
C128	C	1.335834	-0.652453	-0.045449
C129	C	1.669167	-0.319120	0.287884
N130	N	0.965218	-0.877717	-0.413075
N131	N	1.298552	-0.544384	-0.079742
N132	N	1.631885	-0.211050	0.253592
N133	N	1.005613	-0.910662	-0.375878
N134	N	1.338946	-0.577329	-0.042545
N135	N	1.672280	-0.243995	0.290789
C136	C	1.168313	-0.402226	-0.402130
C137	C	1.501647	-0.068893	-0.068797
C138	C	1.834980	0.264440	0.264537
C139	C	1.246280	-0.405501	-0.405398
C140	C	1.579613	-0.072168	-0.072065
C141	C	1.912947	0.261166	0.261268
C142	C	0.977724	-0.401555	-0.578009
C143	C	1.311057	-0.068222	-0.244676
C144	C	1.644391	0.265111	0.088657
C145	C	0.974473	-0.404544	-0.656227
C146	C	1.307806	-0.071211	-0.322894
C147	C	1.641140	0.262123	0.010440
C148	C	0.993112	-0.210995	-0.387450
C149	C	1.326445	0.122339	-0.054116
C150	C	1.659779	0.455672	0.279217
C151	C	0.996418	-0.132778	-0.384462
C152	C	1.329751	0.200556	-0.051129
C153	C	1.663085	0.533889	0.282204
C154	C	0.951156	-0.426035	-1.096494
C155	C	1.284490	-0.092702	-0.763161
C156	C	1.617823	0.240632	-0.429828
C157	C	0.954209	-0.423217	-1.023000
C158	C	1.287542	-0.089883	-0.689667
C159	C	1.620876	0.243450	-0.356333
C160	C	1.002500	-0.378692	-0.986418
C161	C	1.335834	-0.045359	-0.653085
C162	C	1.669167	0.287975	-0.319752
C163	C	1.047737	-0.336978	-1.023334
C164	C	1.381070	-0.003645	-0.690001
C165	C	1.714404	0.329688	-0.356668
C166	C	1.044681	-0.339794	-1.096827
C167	C	1.378014	-0.006460	-0.763494
C168	C	1.711347	0.326873	-0.430161
C169	C	1.016653	-0.365645	-0.766636
C170	C	1.349986	-0.032312	-0.433303
C171	C	1.683320	0.301021	-0.099969
C172	C	1.019708	-0.362835	-0.693138
C173	C	1.353041	-0.029501	-0.359805
C174	C	1.686374	0.303832	-0.026471
C175	C	0.926178	-0.449072	-0.692809
C176	C	1.259512	-0.115739	-0.359475
C177	C	1.592845	0.217594	-0.026142
C178	C	0.923129	-0.451887	-0.766303
C179	C	1.256462	-0.118554	-0.432970
C180	C	1.589796	0.214780	-0.099636
C181	C	0.968363	-0.410170	-0.803213
C182	C	1.301696	-0.076837	-0.469879
C183	C	1.635030	0.256496	-0.136546
N184	N	1.005623	-0.375812	-0.911295
N185	N	1.338957	-0.042478	-0.577962
N186	N	1.672290	0.290855	-0.244629
N187	N	0.965236	-0.413048	-0.878334
N188	N	1.298570	-0.079714	-0.545001
N189	N	1.631903	0.253619	-0.211667
C190	C	0.992996	-0.387507	-0.211625
C191	C	1.326329	-0.054174	0.121709
C192	C	1.659662	0.279160	0.455042
C193	C	0.996391	-0.384326	-0.133405
C194	C	1.329725	-0.050993	0.199928
C195	C	1.663058	0.282341	0.533261
H196	H	0.259901	-0.320883	-0.321039
H197	H	0.593234	0.012450	0.012294
H198	H	0.926567	0.345783	0.345628
O199	O	1.071735	-0.653012	-0.314813
O200	O	1.405068	-0.319679	0.018521
O201	O	1.738402	0.013655	0.351854
H202	H	1.102690	-0.691017	-0.286325
H203	H	1.436023	-0.357684	0.047009
H204	H	1.769357	-0.024350	0.380342
O205	O	0.720210	-0.481008	-0.480668
O206	O	1.053543	-0.147675	-0.147335
O207	O	1.386876	0.185658	0.185998
H208	H	0.679817	-0.511957	-0.511541
H209	H	1.013151	-0.178624	-0.178207
H210	H	1.346484	0.154709	0.155126
O211	O	0.871046	-0.499911	-0.805761
O212	O	1.204379	-0.166578	-0.472428
O213	O	1.537713	0.166756	-0.139095
H214	H	0.835304	-0.468198	-0.836555
H215	H	1.168638	-0.134864	-0.503222
H216	H	1.501971	0.198469	-0.169888
H217	H	0.911862	-1.125686	-0.462384
H218	H	1.245196	-0.792353	-0.129051
H219	H	1.578529	-0.459020	0.204283
H220	H	0.889351	-0.483035	-0.662749
H221	H	1.222684	-0.149701	-0.329416
H222	H	1.556017	0.183632	0.003918
H223	H	0.379173	-0.496247	-0.495867
H224	H	0.712506	-0.162914	-0.162533
H225	H	1.045840	0.170420	0.170800
H226	H	0.246266	-0.490681	-0.490325
H227	H	0.579599	-0.157348	-0.156992
H228	H	0.912932	0.175985	0.176342
H229	H	1.081513	-0.305827	-1.126879
H230	H	1.414846	0.027506	-0.793546
H231	H	1.748180	0.360840	-0.460212
H232	H	1.053489	-0.331681	-0.796679
H233	H	1.386823	0.001653	-0.463346
H234	H	1.720156	0.334986	-0.130012
O235	O	0.905383	-0.468180	-0.983205
O236	O	1.238716	-0.134847	-0.649871
O237	O	1.572049	0.198486	-0.316538
H238	H	0.914467	-0.524462	-0.999907
H239	H	1.247801	-0.191129	-0.666573
H240	H	1.581134	0.142204	-0.333240
H241	H	1.059032	-0.326573	-0.663355
H242	H	1.392366	0.006760	-0.330022
H243	H	1.725699	0.340093	0.003312
O244	O	1.099829	-0.288959	-0.983884
O245	O	1.433163	0.044375	-0.650551
O246	O	1.766496	0.377708	-0.317218
H247	H	1.094363	-0.294014	-0.926579
H248	H	1.427697	0.039319	-0.593246
H249	H	1.761030	0.372652	-0.259912
H250	H	0.592239	-0.292883	-0.293105
H251	H	0.925572	0.040450	0.040229
H252	H	1.258905	0.373783	0.373562
O253	O	0.568005	-0.474766	-0.474252
O254	O	0.901338	-0.141433	-0.140919
O255	O	1.234672	0.191900	0.192415
H256	H	0.580271	-0.465589	-0.529659
H257	H	0.913604	-0.132256	-0.196325
H258	H	1.246938	0.201077	0.137008
O259	O	0.403479	-0.314506	-0.314634
O260	O	0.736813	0.018827	0.018700
O261	O	1.070146	0.352160	0.352033
H262	H	0.368310	-0.280402	-0.280606
H263	H	0.701644	0.052931	0.052728
H264	H	1.034977	0.386265	0.386061
H265	H	0.725148	-0.298442	-0.298645
H266	H	1.058481	0.034892	0.034689
H267	H	1.391814	0.368225	0.368022
H268	H	1.053455	-0.796022	-0.331731
H269	H	1.386788	-0.462689	0.001603
H270	H	1.720121	-0.129356	0.334936
H271	H	1.087061	-0.992876	-0.300868
H272	H	1.420395	-0.659543	0.032465
H273	H	1.753728	-0.326210	0.365799
O274	O	1.093516	-1.135974	-0.295028
O275	O	1.426850	-0.802641	0.038305
O276	O	1.760183	-0.469307	0.371638
H277	H	1.062262	-1.166829	-0.259184
H278	H	1.395595	-0.833495	0.074149
H279	H	1.728928	-0.500162	0.407483
O280	O	0.905400	-0.982597	-0.468213
O281	O	1.238733	-0.649263	-0.134879
O282	O	1.572067	-0.315930	0.198454
H283	H	0.871302	-1.020398	-0.499625
H284	H	1.204636	-0.687064	-0.166291
H285	H	1.537969	-0.353731	0.167042
O286	O	0.877327	-0.652401	-0.493934
O287	O	1.210660	-0.319068	-0.160600
O288	O	1.543994	0.014266	0.172733
H289	H	0.844365	-0.616254	-0.459620
H290	H	1.177699	-0.282921	-0.126286
H291	H	1.511032	0.050413	0.207047
H292	H	0.883769	-0.795502	-0.488079
H293	H	1.217102	-0.462169	-0.154746
H294	H	1.550436	-0.128835	0.178587
O295	O	0.899067	-0.474055	-1.135950
O296	O	1.232401	-0.140721	-0.802616
O297	O	1.565734	0.192612	-0.469283
H298	H	0.868120	-0.502577	-1.097932
H299	H	1.201454	-0.169244	-0.764599
H300	H	1.534787	0.164089	-0.431266
