data_functionalizedCrystal
_audit_creation_method	'MofGen! by Chris Wilmer'
_symmetry_space_group_name_H-M	'P1'
_symmetry_Int_Tables_number	1
_symmetry_cell_setting	triclinic
loop_
_symmetry_equiv_pos_as_xyz
  x,y,z
_cell_length_a	19.077105
_cell_length_b	12.759400
_cell_length_c	19.077271
_cell_angle_alpha	87.676208
_cell_angle_beta	89.892926
_cell_angle_gamma	87.711168
loop_
_atom_site_label
_atom_site_type_symbol
_atom_site_fract_x
_atom_site_fract_y
_atom_site_fract_z
Zn1	Zn	1.058325	-0.455436	-0.440443
Zn2	Zn	1.558325	0.044564	0.059557
Zn3	Zn	1.062985	-0.638460	-0.322940
Zn4	Zn	1.562985	-0.138460	0.177060
Zn5	Zn	0.945542	-0.456023	-0.318234
Zn6	Zn	1.445542	0.043977	0.181766
Zn7	Zn	0.940806	-0.624299	-0.435695
Zn8	Zn	1.440806	-0.124299	0.064305
O9	O	1.001915	-0.543555	-0.379328
O10	O	1.501915	-0.043555	0.120672
O11	O	1.157276	-0.485395	-0.428813
O12	O	1.657276	0.014605	0.071187
O13	O	1.051338	-0.620431	-0.223983
O14	O	1.551338	-0.120431	0.276017
O15	O	0.960535	-0.308925	-0.334463
O16	O	1.460535	0.191075	0.165537
O17	O	1.160699	-0.619862	-0.342484
O18	O	1.660699	-0.119862	0.157516
O19	O	1.043396	-0.308494	-0.424249
O20	O	1.543396	0.191506	0.075751
O21	O	0.965053	-0.486396	-0.220525
O22	O	1.465053	0.013604	0.279475
O23	O	0.846581	-0.472665	-0.329859
O24	O	1.346581	0.027335	0.170141
O25	O	0.952463	-0.595727	-0.534658
O26	O	1.452463	-0.095727	-0.034658
O27	O	0.843102	-0.596296	-0.416157
O28	O	1.343102	-0.096296	0.083843
O29	O	1.038804	-0.471664	-0.538146
O30	O	1.538804	0.028336	-0.038146
O31	O	1.046746	-0.783602	-0.337880
O32	O	1.546746	-0.283602	0.162120
O33	O	0.956981	-0.773198	-0.420720
O34	O	1.456981	-0.273198	0.079280
C35	C	0.819345	-0.533008	-0.371982
C36	C	1.319345	-0.033008	0.128018
C37	C	0.741240	-0.528521	-0.368856
C38	C	1.241240	-0.028521	0.131144
C39	C	0.702756	-0.590887	-0.412248
C40	C	1.202756	-0.090887	0.087752
C41	C	0.629368	-0.586656	-0.409314
C42	C	1.129368	-0.086656	0.090686
C43	C	0.594466	-0.520065	-0.362984
C44	C	1.094466	-0.020065	0.137016
C45	C	0.632956	-0.457692	-0.319591
C46	C	1.132956	0.042308	0.180409
C47	C	0.706342	-0.461918	-0.322529
C48	C	1.206342	0.038082	0.177471
C49	C	0.375177	-0.500508	-0.349391
C50	C	0.875177	-0.000508	0.150609
C51	C	0.301785	-0.496289	-0.346455
C52	C	0.801785	0.003711	0.153545
C53	C	0.298203	-0.625253	-0.436179
C54	C	0.798203	-0.125253	0.063821
C55	C	0.371591	-0.629477	-0.439109
C56	C	0.871591	-0.129477	0.060891
C57	C	0.410074	-0.567100	-0.395719
C58	C	0.910074	-0.067100	0.104281
N59	N	0.519452	-0.515741	-0.359983
N60	N	1.019452	-0.015741	0.140017
N61	N	0.485086	-0.571419	-0.398724
N62	N	0.985086	-0.071419	0.101276
C63	C	1.001873	-0.816521	-0.379312
C64	C	1.501873	-0.316521	0.120688
C65	C	1.001919	-0.933299	-0.379331
C66	C	1.501919	-0.433299	0.120669
C67	C	1.048707	-0.993543	-0.336248
C68	C	1.548707	-0.493543	0.163752
C69	C	1.048750	-1.103268	-0.336271
C70	C	1.548750	-0.603268	0.163729
C71	C	0.955210	-1.092495	-0.422463
C72	C	1.455210	-0.592495	0.077537
C73	C	0.955171	-0.982772	-0.422442
C74	C	1.455171	-0.482772	0.077558
C75	C	1.095455	-0.944070	-0.293136
C76	C	1.595455	-0.444070	0.206864
C77	C	1.142247	-1.004315	-0.250049
C78	C	1.642247	-0.504315	0.249951
C79	C	1.142289	-1.114040	-0.250072
C80	C	1.642289	-0.614040	0.249928
C81	C	1.095540	-1.163520	-0.293183
C82	C	1.595540	-0.663520	0.206817
C83	C	1.185197	-0.554143	-0.386703
C84	C	1.685197	-0.054143	0.113297
C85	C	1.263301	-0.558655	-0.389846
C86	C	1.763301	-0.058655	0.110154
C87	C	0.994585	-0.532051	-0.562612
C88	C	1.494585	-0.032051	-0.062612
C89	C	0.991462	-0.527148	-0.640716
C90	C	1.491462	-0.027148	-0.140716
C91	C	1.001974	-0.269523	-0.379361
C92	C	1.501974	0.230477	0.120639
C93	C	1.002000	-0.152747	-0.379375
C94	C	1.502000	0.347253	0.120625
C95	C	0.969061	-0.492071	-1.080169
C96	C	1.469061	0.007929	-0.580169
C97	C	0.971999	-0.496674	-1.006782
C98	C	1.471999	0.003326	-0.506782
C99	C	1.018388	-0.568765	-0.971887
C100	C	1.518388	-0.068765	-0.471887
C101	C	1.061847	-0.636251	-1.010384
C102	C	1.561847	-0.136251	-0.510384
C103	C	1.058912	-0.631643	-1.083770
C104	C	1.558912	-0.131643	-0.583770
C105	C	1.031986	-0.590026	-0.752599
C106	C	1.531986	-0.090026	-0.252599
C107	C	1.034916	-0.594632	-0.679208
C108	C	1.534916	-0.094632	-0.179208
C109	C	0.945069	-0.455052	-0.675610
C110	C	1.445069	0.044948	-0.175610
C111	C	0.942135	-0.450454	-0.748998
C112	C	1.442135	0.049546	-0.248998
C113	C	0.985596	-0.517937	-0.787489
C114	C	1.485596	-0.017937	-0.287489
N115	N	1.021391	-0.573474	-0.896874
N116	N	1.521391	-0.073474	-0.396874
N117	N	0.982597	-0.513222	-0.862501
N118	N	1.482597	-0.013222	-0.362501
C119	C	1.009256	-0.554940	-0.196759
C120	C	1.509256	-0.054940	0.303241
C121	C	1.012515	-0.559555	-0.118661
C122	C	1.512515	-0.059555	0.381339
H123	H	0.731168	-0.645117	-0.449972
H124	H	1.231168	-0.145117	0.050028
H125	H	0.598038	-0.637442	-0.444647
H126	H	1.098038	-0.137442	0.055353
H127	H	0.400003	-0.683705	-0.476834
H128	H	0.900003	-0.183705	0.023166
O129	O	0.925142	-0.423874	-0.965263
O130	O	1.425142	0.076126	-0.465263
H131	H	0.892390	-0.372974	-1.001856
H132	H	1.392390	0.127026	-0.501856
O133	O	1.078846	-0.662841	-0.794099
O134	O	1.578846	-0.162841	-0.294099
H135	H	1.134566	-0.648922	-0.782229
H136	H	1.634566	-0.148922	-0.282229
O137	O	0.904788	-1.145865	-0.468953
O138	O	1.404788	-0.645865	0.031047
H139	H	0.872250	-1.085538	-0.498913
H140	H	1.372250	-0.585538	0.001087
H141	H	0.266862	-0.676035	-0.471506
H142	H	0.766862	-0.176035	0.028494
H143	H	0.904357	-0.391754	-0.777403
H144	H	1.404357	0.108246	-0.277403
O145	O	0.898204	-0.382262	-0.634092
O146	O	1.398204	0.117738	-0.134092
H147	H	0.865453	-0.331362	-0.670685
H148	H	1.365453	0.168638	-0.170685
H149	H	0.273370	-0.442050	-0.308732
H150	H	0.773370	0.057950	0.191268
O151	O	1.192680	-0.950956	-0.203565
O152	O	1.692680	-0.450956	0.296435
H153	H	1.184791	-0.864537	-0.210785
H154	H	1.684791	-0.364537	0.289215
O155	O	1.192753	-1.179024	-0.203604
O156	O	1.692753	-0.679024	0.296396
H157	H	1.225247	-1.126184	-0.173620
H158	H	1.725247	-0.626184	0.326380
O159	O	0.416686	-0.433246	-0.302591
O160	O	0.916686	0.066754	0.197409
H161	H	0.451543	-0.484366	-0.268133
H162	H	0.951543	0.015634	0.231867
H163	H	1.099621	-0.694946	-0.981968
H164	H	1.599621	-0.194946	-0.481968
H165	H	1.094298	-0.686594	-1.115110
H166	H	1.594298	-0.186594	-0.615110
H167	H	1.072708	-0.653320	-0.650800
H168	H	1.572708	-0.153320	-0.150800
H169	H	0.604532	-0.403467	-0.281872
H170	H	1.104532	0.096533	0.218128
H171	H	1.095424	-0.854727	-0.293110
H172	H	1.595424	-0.354727	0.206890
O173	O	0.747856	-0.394665	-0.275721
O174	O	1.247856	0.105335	0.224279
H175	H	0.711259	-0.347660	-0.243004
H176	H	1.211259	0.152340	0.256996
H177	H	1.095583	-1.252866	-0.293204
H178	H	1.595583	-0.752866	0.206796
H179	H	0.917073	-0.933720	-0.457525
H180	H	1.417073	-0.433720	0.042475
O181	O	0.919030	-0.414311	-1.117805
O182	O	1.419030	0.085689	-0.617805
H183	H	0.889314	-0.368151	-1.078707
H184	H	1.389314	0.131849	-0.578707
