data_functionalizedCrystal
_audit_creation_method	'MofGen! by Chris Wilmer'
_symmetry_space_group_name_H-M	'P1'
_symmetry_Int_Tables_number	1
_symmetry_cell_setting	triclinic
loop_
_symmetry_equiv_pos_as_xyz
  x,y,z
_cell_length_a	25.639242
_cell_length_b	25.639239
_cell_length_c	25.639233
_cell_angle_alpha	89.981253
_cell_angle_beta	90.014348
_cell_angle_gamma	89.969010
loop_
_atom_site_label
_atom_site_type_symbol
_atom_site_fract_x
_atom_site_fract_y
_atom_site_fract_z
Zn1	Zn	0.799225	0.208322	0.295633
Zn2	Zn	1.132558	0.541655	0.628967
Zn3	Zn	1.465892	0.874988	0.962300
Zn4	Zn	0.799148	0.295741	0.208198
Zn5	Zn	1.132482	0.629074	0.541531
Zn6	Zn	1.465815	0.962407	0.874864
Zn7	Zn	0.711801	0.208309	0.208209
Zn8	Zn	1.045135	0.541643	0.541543
Zn9	Zn	1.378468	0.874976	0.874876
Zn10	Zn	0.711746	0.295716	0.295599
Zn11	Zn	1.045080	0.629050	0.628933
Zn12	Zn	1.378413	0.962383	0.962266
O13	O	0.755480	0.252022	0.251910
O14	O	1.088814	0.585355	0.585243
O15	O	1.422147	0.918689	0.918576
O16	O	0.872380	0.219933	0.284044
O17	O	1.205713	0.553267	0.617377
O18	O	1.539047	0.886600	0.950711
O19	O	0.787553	0.284148	0.135034
O20	O	1.120886	0.617481	0.468367
O21	O	1.454219	0.950814	0.801701
O22	O	0.723453	0.135146	0.219825
O23	O	1.056787	0.468479	0.553159
O24	O	1.390120	0.801812	0.886492
O25	O	0.872324	0.284160	0.219805
O26	O	1.205657	0.617493	0.553139
O27	O	1.538990	0.950826	0.886472
O28	O	0.787683	0.135155	0.284055
O29	O	1.121016	0.468488	0.617389
O30	O	1.454350	0.801822	0.950722
O31	O	0.723379	0.219912	0.135042
O32	O	1.056712	0.553245	0.468376
O33	O	1.390046	0.886579	0.801709
O34	O	0.638629	0.219889	0.219792
O35	O	0.971962	0.553222	0.553126
O36	O	1.305296	0.886555	0.886459
O37	O	0.723360	0.284118	0.368769
O38	O	1.056693	0.617452	0.702102
O39	O	1.390026	0.950785	1.035436
O40	O	0.638589	0.284106	0.283998
O41	O	0.971922	0.617439	0.617331
O42	O	1.305255	0.950773	0.950664
O43	O	0.787630	0.219910	0.368794
O44	O	1.120963	0.553243	0.702127
O45	O	1.454296	0.886577	1.035461
O46	O	0.787499	0.368903	0.219773
O47	O	1.120833	0.702236	0.553106
O48	O	1.454166	1.035569	0.886439
O49	O	0.723285	0.368885	0.283986
O50	O	1.056619	0.702218	0.617320
O51	O	1.389952	1.035551	0.950653
C52	C	0.619638	0.251994	0.251893
C53	C	0.952971	0.585327	0.585226
C54	C	1.286304	0.918660	0.918560
C55	C	0.561524	0.251994	0.251898
C56	C	0.894857	0.585328	0.585231
C57	C	1.228190	0.918661	0.918565
C58	C	0.310368	0.218639	0.285420
C59	C	0.643701	0.551972	0.618753
C60	C	0.977034	0.885305	0.952087
C61	C	0.364972	0.218634	0.285417
C62	C	0.698305	0.551967	0.618750
C63	C	1.031639	0.885300	0.952084
O64	O	0.393240	0.190251	0.313915
O65	O	0.726574	0.523584	0.647248
O66	O	1.059907	0.856917	0.980581
N67	N	0.392250	0.252016	0.251916
N68	N	0.725583	0.585349	0.585249
N69	N	1.058916	0.918683	0.918582
C70	C	0.364921	0.285409	0.218419
C71	C	0.698254	0.618743	0.551753
C72	C	1.031587	0.952076	0.885086
O73	O	0.393137	0.313803	0.189924
O74	O	0.726470	0.647137	0.523257
O75	O	1.059803	0.980470	0.856591
C76	C	0.310317	0.285417	0.218425
C77	C	0.643651	0.618750	0.551759
C78	C	0.976984	0.952083	0.885092
C79	C	0.283042	0.252028	0.251925
C80	C	0.616376	0.585362	0.585258
C81	C	0.949709	0.918695	0.918591
C82	C	0.283092	0.185254	0.318917
C83	C	0.616426	0.518587	0.652250
C84	C	0.949759	0.851920	0.985584
C85	C	0.228492	0.185258	0.318919
C86	C	0.561825	0.518592	0.652253
C87	C	0.895159	0.851925	0.985586
C88	C	0.201166	0.218648	0.285424
C89	C	0.534500	0.551981	0.618758
C90	C	0.867833	0.885315	0.952091
C91	C	0.228442	0.252033	0.251927
C92	C	0.561775	0.585366	0.585260
C93	C	0.895108	0.918700	0.918594
C94	C	0.282989	0.318812	0.184932
C95	C	0.616322	0.652146	0.518265
C96	C	0.949656	0.985479	0.851598
C97	C	0.228382	0.318817	0.184941
C98	C	0.561715	0.652150	0.518274
C99	C	0.895049	0.985484	0.851608
C100	C	0.201107	0.285429	0.218440
C101	C	0.534440	0.618762	0.551774
C102	C	0.867774	0.952096	0.885107
C103	C	0.146516	0.285427	0.218434
C104	C	0.479849	0.618761	0.551767
C105	C	0.813182	0.952094	0.885101
N106	N	0.119238	0.252045	0.251935
N107	N	0.452571	0.585378	0.585268
N108	N	0.785904	0.918712	0.918602
C109	C	0.146563	0.218655	0.285430
C110	C	0.479896	0.551989	0.618764
C111	C	0.813230	0.885322	0.952097
C112	C	0.479591	0.285392	0.218410
C113	C	0.812925	0.618725	0.551743
C114	C	1.146258	0.952058	0.885077
C115	C	0.534194	0.285382	0.218401
C116	C	0.867527	0.618716	0.551734
C117	C	1.200860	0.952049	0.885067
C118	C	0.534241	0.218607	0.285399
C119	C	0.867574	0.551940	0.618733
C120	C	1.200908	0.885274	0.952066
C121	C	0.479638	0.218614	0.285405
C122	C	0.812971	0.551948	0.618739
C123	C	1.146304	0.885281	0.952072
C124	C	0.452313	0.252010	0.251911
C125	C	0.785647	0.585343	0.585244
C126	C	1.118980	0.918676	0.918578
C127	C	0.031898	0.218667	0.285432
C128	C	0.365231	0.552001	0.618765
C129	C	0.698565	0.885334	0.952099
C130	C	-0.022707	0.218673	0.285430
C131	C	0.310626	0.552007	0.618763
C132	C	0.643959	0.885340	0.952096
C133	C	-0.022750	0.285450	0.218433
C134	C	0.310583	0.618783	0.551767
C135	C	0.643917	0.952117	0.885100
C136	C	0.031851	0.285442	0.218433
C137	C	0.365184	0.618776	0.551767
C138	C	0.698517	0.952109	0.885100
C139	C	0.059173	0.252049	0.251937
C140	C	0.392507	0.585383	0.585270
C141	C	0.725840	0.918716	0.918604
O142	O	0.118213	0.313797	0.189952
O143	O	0.451546	0.647131	0.523286
O144	O	0.784879	0.980464	0.856619
O145	O	0.118341	0.190271	0.313925
O146	O	0.451674	0.523604	0.647259
O147	O	0.785007	0.856938	0.980592
C148	C	0.755392	0.387865	0.251886
C149	C	1.088726	0.721198	0.585219
C150	C	1.422059	1.054531	0.918553
C151	C	0.755403	0.445979	0.251893
C152	C	1.088736	0.779312	0.585226
C153	C	1.422069	1.112645	0.918560
C154	C	0.755497	0.252013	0.388283
C155	C	1.088830	0.585346	0.721616
C156	C	1.422164	0.918679	1.054950
C157	C	0.755504	0.252009	0.446397
C158	C	1.088838	0.585342	0.779730
C159	C	1.422171	0.918676	1.113064
C160	C	0.891853	0.252051	0.251927
C161	C	1.225187	0.585384	0.585260
C162	C	1.558520	0.918717	0.918594
C163	C	0.949967	0.252063	0.251934
C164	C	1.283301	0.585396	0.585268
C165	C	1.616634	0.918730	0.918601
C166	C	0.755583	0.115649	0.251945
C167	C	1.088916	0.448982	0.585279
C168	C	1.422249	0.782316	0.918612
C169	C	0.755626	0.057535	0.251960
C170	C	1.088960	0.390868	0.585294
C171	C	1.422293	0.724202	0.918627
C172	C	0.789004	0.806338	0.218531
C173	C	1.122337	1.139672	0.551864
C174	C	1.455670	1.473005	0.885197
C175	C	0.789024	0.860943	0.218538
C176	C	1.122357	1.194276	0.551871
C177	C	1.455691	1.527609	0.885204
O178	O	0.817502	0.889177	0.190145
O179	O	1.150835	1.222510	0.523479
O180	O	1.484168	1.555843	0.856812
N181	N	0.755572	0.888261	0.251944
N182	N	1.088906	1.221594	0.585278
N183	N	1.422239	1.554928	0.918611
C184	C	0.722102	0.860972	0.285350
C185	C	1.055435	1.194306	0.618684
C186	C	1.388768	1.527639	0.952017
O187	O	0.693651	0.889223	0.313766
O188	O	1.026984	1.222556	0.647100
O189	O	1.360317	1.555889	0.980433
C190	C	0.722084	0.806369	0.285345
C191	C	1.055418	1.139702	0.618679
C192	C	1.388751	1.473036	0.952012
C193	C	0.755535	0.779053	0.251933
C194	C	1.088868	1.112387	0.585266
C195	C	1.422201	1.445720	0.918599
C196	C	0.822452	0.779023	0.185121
C197	C	1.155785	1.112356	0.518454
C198	C	1.489118	1.445689	0.851788
C199	C	0.822431	0.724422	0.185114
C200	C	1.155764	1.057756	0.518447
C201	C	1.489097	1.391089	0.851780
C202	C	0.788962	0.697137	0.218516
C203	C	1.122295	1.030471	0.551849
C204	C	1.455628	1.363804	0.885182
C205	C	0.755514	0.724453	0.251925
C206	C	1.088847	1.057786	0.585258
C207	C	1.422180	1.391120	0.918592
C208	C	0.688617	0.779081	0.318753
C209	C	1.021950	1.112414	0.652087
C210	C	1.355284	1.445748	0.985420
C211	C	0.688603	0.724474	0.318746
C212	C	1.021936	1.057807	0.652079
C213	C	1.355270	1.391141	0.985413
C214	C	0.722053	0.697159	0.285333
C215	C	1.055386	1.030492	0.618667
C216	C	1.388720	1.363825	0.952000
C217	C	0.722024	0.642567	0.285320
C218	C	1.055357	0.975901	0.618653
C219	C	1.388690	1.309234	0.951986
N220	N	0.755475	0.615249	0.251913
N221	N	1.088809	0.948582	0.585246
N222	N	1.422142	1.281916	0.918580
C223	C	0.788944	0.642534	0.218511
C224	C	1.122278	0.975867	0.551844
C225	C	1.455611	1.309201	0.885178
C226	C	0.722141	0.975643	0.285358
C227	C	1.055474	1.308976	0.618692
C228	C	1.388808	1.642309	0.952025
C229	C	0.722155	1.030245	0.285361
C230	C	1.055489	1.363578	0.618694
C231	C	1.388822	1.696912	0.952027
C232	C	0.789078	1.030212	0.218549
C233	C	1.122412	1.363545	0.551882
C234	C	1.455745	1.696878	0.885215
C235	C	0.789061	0.975608	0.218544
C236	C	1.122395	1.308942	0.551877
C237	C	1.455728	1.642275	0.885211
C238	C	0.755593	0.948324	0.251951
C239	C	1.088926	1.281658	0.585285
C240	C	1.422260	1.614991	0.918618
C241	C	0.788897	0.527869	0.218497
C242	C	1.122231	0.861202	0.551831
C243	C	1.455564	1.194536	0.885164
C244	C	0.788872	0.473264	0.218491
C245	C	1.122205	0.806597	0.551824
C246	C	1.455538	1.139930	0.885158
C247	C	0.721951	0.473302	0.285305
C248	C	1.055284	0.806635	0.618638
C249	C	1.388617	1.139968	0.951971
C250	C	0.721974	0.527902	0.285309
C251	C	1.055307	0.861236	0.618642
C252	C	1.388641	1.194569	0.951976
C253	C	0.755452	0.555185	0.251904
C254	C	1.088785	0.888518	0.585237
C255	C	1.422118	1.221851	0.918570
O256	O	0.693562	0.614299	0.313699
O257	O	1.026895	0.947632	0.647032
O258	O	1.360229	1.280965	0.980366
O259	O	0.817396	0.614277	0.190104
O260	O	1.150729	0.947610	0.523438
O261	O	1.484062	1.280944	0.856771
C262	C	0.755494	0.251993	0.116067
C263	C	1.088827	0.585327	0.449401
C264	C	1.422160	0.918660	0.782734
C265	C	0.755588	0.251850	0.057954
C266	C	1.088921	0.585183	0.391287
C267	C	1.422254	0.918517	0.724620
C268	C	0.789012	0.218476	0.806779
C269	C	1.122346	0.551810	1.140112
C270	C	1.455679	0.885143	1.473445
C271	C	0.789019	0.218462	0.861383
C272	C	1.122352	0.551795	1.194716
C273	C	1.455685	0.885128	1.528050
O274	O	0.817466	0.190013	0.889636
O275	O	1.150799	0.523346	1.222969
O276	O	1.484133	0.856679	1.556302
N277	N	0.755562	0.251886	0.888680
N278	N	1.088895	0.585220	1.222013
N279	N	1.422229	0.918553	1.555346
C280	C	0.722093	0.285324	0.861369
C281	C	1.055426	0.618657	1.194702
C282	C	1.388760	0.951990	1.528036
O283	O	0.693636	0.313752	0.889601
O284	O	1.026969	0.647086	1.222934
O285	O	1.360302	0.980419	1.556267
C286	C	0.722084	0.285335	0.806766
C287	C	1.055418	0.618668	1.140099
C288	C	1.388751	0.952002	1.473432
C289	C	0.755547	0.251912	0.779472
C290	C	1.088880	0.585246	1.112805
C291	C	1.422213	0.918579	1.446139
C292	C	0.822472	0.185056	0.779485
C293	C	1.155805	0.518389	1.112818
C294	C	1.489138	0.851722	1.446152
C295	C	0.822466	0.185071	0.724884
C296	C	1.155799	0.518404	1.058218
C297	C	1.489132	0.851738	1.391551
C298	C	0.789000	0.218507	0.697578
C299	C	1.122334	0.551840	1.030911
C300	C	1.455667	0.885173	1.364244
C301	C	0.755541	0.251927	0.724871
C302	C	1.088874	0.585261	1.058205
C303	C	1.422208	0.918594	1.391538
C304	C	0.688613	0.318770	0.779456
C305	C	1.021946	0.652103	1.112789
C306	C	1.355280	0.985436	1.446123
C307	C	0.688607	0.318778	0.724849
C308	C	1.021940	0.652111	1.058182
C309	C	1.355273	0.985444	1.391516
C310	C	0.722069	0.285355	0.697555
C311	C	1.055403	0.618688	1.030889
C312	C	1.388736	0.952021	1.364222
C313	C	0.722070	0.285379	0.642964
C314	C	1.055403	0.618712	0.976297
C315	C	1.388736	0.952045	1.309631
N316	N	0.755526	0.251954	0.615667
N317	N	1.088860	0.585287	0.949001
N318	N	1.422193	0.918621	1.282334
C319	C	0.788992	0.218518	0.642974
C320	C	1.122325	0.551852	0.976308
C321	C	1.455658	0.885185	1.309641
C322	C	0.722113	0.285297	0.976040
C323	C	1.055446	0.618630	1.309373
C324	C	1.388780	0.951963	1.642706
C325	C	0.722124	0.285288	1.030642
C326	C	1.055457	0.618621	1.363975
C327	C	1.388791	0.951955	1.697309
C328	C	0.789049	0.218425	1.030652
C329	C	1.122383	0.551759	1.363986
C330	C	1.455716	0.885092	1.697319
C331	C	0.789041	0.218437	0.976049
C332	C	1.122374	0.551770	1.309382
C333	C	1.455707	0.885103	1.642716
C334	C	0.755570	0.251872	0.948743
C335	C	1.088903	0.585205	1.282076
C336	C	1.422236	0.918539	1.615410
C337	C	0.788977	0.218553	0.528309
C338	C	1.122310	0.551886	0.861642
C339	C	1.455644	0.885220	1.194976
C340	C	0.788970	0.218573	0.473704
C341	C	1.122303	0.551906	0.807037
C342	C	1.455636	0.885240	1.140370
C343	C	0.722043	0.285434	0.473698
C344	C	1.055376	0.618767	0.807032
C345	C	1.388709	0.952100	1.140365
C346	C	0.722052	0.285416	0.528299
C347	C	1.055385	0.618749	0.861632
C348	C	1.388719	0.952083	1.194965
C349	C	0.755521	0.251971	0.555603
C350	C	1.088854	0.585305	0.888936
C351	C	1.422187	0.918638	1.222270
O352	O	0.693635	0.313812	0.614677
O353	O	1.026969	0.647145	0.948010
O354	O	1.360302	0.980478	1.281343
O355	O	0.817439	0.190090	0.614736
O356	O	1.150773	0.523423	0.948069
O357	O	1.484106	0.856756	1.281402
H358	H	0.556396	0.312565	0.191116
H359	H	0.889730	0.645898	0.524450
H360	H	1.223063	0.979231	0.857783
H361	H	0.816333	1.052437	0.191353
H362	H	1.149666	1.385770	0.524686
H363	H	1.482999	1.719104	0.858019
H364	H	0.206289	0.158072	0.346200
H365	H	0.539623	0.491406	0.679534
H366	H	0.872956	0.824739	1.012867
H367	H	0.849723	0.157825	0.801712
H368	H	1.183057	0.491158	1.135046
H369	H	1.516390	0.824492	1.468379
H370	H	0.305187	0.346001	0.157653
H371	H	0.638520	0.679334	0.490986
H372	H	0.971854	1.012667	0.824319
H373	H	0.694857	0.312526	0.953811
H374	H	1.028190	0.645860	1.287144
H375	H	1.361523	0.979193	1.620477
H376	H	-0.044912	0.191482	0.312709
H377	H	0.288421	0.524815	0.646042
H378	H	0.621754	0.858149	0.979375
H379	H	0.816288	0.191220	0.953830
H380	H	1.149621	0.524553	1.287163
H381	H	1.482955	0.857887	1.620497
H382	H	0.816111	0.451025	0.191281
H383	H	1.149444	0.784358	0.524614
H384	H	1.482777	1.117692	0.857947
H385	H	0.206137	0.346013	0.157667
H386	H	0.539471	0.679347	0.491000
H387	H	0.872804	1.012680	0.824333
H388	H	0.849670	0.702185	0.157908
H389	H	1.183003	1.035518	0.491241
H390	H	1.516337	1.368852	0.824574
H391	H	0.305335	0.158064	0.346196
H392	H	0.638668	0.491397	0.679529
H393	H	0.972002	0.824730	1.012862
H394	H	0.457434	0.191426	0.312683
H395	H	0.790767	0.524760	0.646016
H396	H	1.124101	0.858093	0.979350
H397	H	0.816159	0.550076	0.191296
H398	H	1.149492	0.883409	0.524630
H399	H	1.482826	1.216742	0.857963
H400	H	0.849714	0.157853	0.702667
H401	H	1.183047	0.491187	1.036000
H402	H	1.516380	0.824520	1.369333
H403	H	0.694738	0.550144	0.312518
H404	H	1.028071	0.883477	0.645851
H405	H	1.361404	1.216810	0.979185
H406	H	0.054059	0.312625	0.191151
H407	H	0.387392	0.645958	0.524484
H408	H	0.720726	0.979292	0.857817
H409	H	0.457347	0.312585	0.191130
H410	H	0.790680	0.645918	0.524464
H411	H	1.124014	0.979252	0.857797
H412	H	0.661350	0.702262	0.345952
H413	H	0.994683	1.035595	0.679285
H414	H	1.328016	1.368929	1.012619
H415	H	0.816299	0.953371	0.191337
H416	H	1.149633	1.286705	0.524670
H417	H	1.482966	1.620038	0.858004
H418	H	-0.045008	0.312633	0.191160
H419	H	0.288325	0.645966	0.524494
H420	H	0.621658	0.979300	0.857827
H421	H	0.694699	0.451078	0.312499
H422	H	1.028032	0.784411	0.645832
H423	H	1.361366	1.117744	0.979165
H424	H	0.849709	0.801232	0.157921
H425	H	1.183042	1.134566	0.491254
H426	H	1.516376	1.467899	0.824588
H427	H	0.816297	0.191199	1.052895
H428	H	1.149631	0.524532	1.386229
H429	H	1.482964	0.857865	1.719562
H430	H	0.816221	0.191355	0.451484
H431	H	1.149554	0.524689	0.784817
H432	H	1.482888	0.858022	1.118150
H433	H	0.816229	0.191318	0.550534
H434	H	1.149562	0.524651	0.883867
H435	H	1.482896	0.857985	1.217200
H436	H	0.694912	1.052481	0.312564
H437	H	1.028245	1.385814	0.645897
H438	H	1.361578	1.719148	0.979230
H439	H	0.694883	0.953431	0.312561
H440	H	1.028216	1.286764	0.645894
H441	H	1.361550	1.620097	0.979228
H442	H	0.694798	0.312658	0.451455
H443	H	1.028131	0.645991	0.784788
H444	H	1.361464	0.979324	1.118122
H445	H	0.661376	0.801312	0.345959
H446	H	0.994709	1.134645	0.679292
H447	H	1.328042	1.467979	1.012626
H448	H	0.694881	0.312510	1.052860
H449	H	1.028214	0.645844	1.386193
H450	H	1.361548	0.979177	1.719527
H451	H	0.661364	0.345986	0.801669
H452	H	0.994697	0.679319	1.135003
H453	H	1.328030	1.012653	1.468336
H454	H	0.556499	0.191420	0.312673
H455	H	0.889833	0.524753	0.646006
H456	H	1.223166	0.858086	0.979340
H457	H	0.694809	0.312636	0.550523
H458	H	1.028142	0.645970	0.883856
H459	H	1.361475	0.979303	1.217189
H460	H	0.054138	0.191475	0.312713
H461	H	0.387471	0.524808	0.646047
H462	H	0.720804	0.858142	0.979380
H463	H	0.661345	0.346000	0.702619
H464	H	0.994678	0.679333	1.035953
H465	H	1.328011	1.012667	1.369286
