data_functionalizedCrystal
_audit_creation_method	'MofGen! by Chris Wilmer'
_symmetry_space_group_name_H-M	'P1'
_symmetry_Int_Tables_number	1
_symmetry_cell_setting	triclinic
loop_
_symmetry_equiv_pos_as_xyz
  x,y,z
_cell_length_a	14.519709
_cell_length_b	16.176319
_cell_length_c	17.699083
_cell_angle_alpha	89.992304
_cell_angle_beta	83.481580
_cell_angle_gamma	89.998204
loop_
_atom_site_label
_atom_site_type_symbol
_atom_site_fract_x
_atom_site_fract_y
_atom_site_fract_z
O1	O	1.223449	-0.068641	0.099215
O2	O	0.954923	-0.068666	0.110899
O3	O	1.096773	-0.068645	-0.005110
O4	O	1.081600	-0.068661	0.215225
O5	O	1.096753	0.068848	-0.005118
O6	O	0.954903	0.068827	0.110892
O7	O	1.223430	0.068853	0.099208
Cu8	Cu	1.089165	0.081394	0.105049
Cu9	Cu	1.089188	-0.081208	0.105058
O10	O	1.081580	0.068832	0.215217
C11	C	0.920556	0.000077	0.110351
C12	C	0.818181	0.000068	0.108719
N13	N	1.089155	0.195759	0.105043
N14	N	1.089205	-0.195573	0.105059
C15	C	0.443311	0.000106	0.102712
C16	C	0.547612	0.000095	0.104380
C17	C	0.630743	0.000086	0.105716
C18	C	0.735050	0.000077	0.107384
C19	C	1.257797	0.000107	0.099756
C20	C	1.360171	0.000111	0.101388
C21	C	1.096219	0.000101	-0.033312
C22	C	1.094588	0.000101	-0.117335
C23	C	1.151985	0.239033	0.053695
C24	C	1.151990	0.325580	0.053694
C25	C	1.089168	0.368852	0.105045
C26	C	1.026332	0.325572	0.156396
C27	C	1.026323	0.239027	0.156392
C28	C	1.026363	0.674601	0.156410
C29	C	1.026378	0.761152	0.156411
C30	C	1.152030	0.761154	0.053712
C31	C	1.152022	0.674608	0.053708
C32	C	1.089182	0.631336	0.105055
C33	C	1.089177	0.537492	0.105055
C34	C	1.089178	0.462694	0.105050
C35	C	1.177851	0.000111	-0.165718
C36	C	1.176313	0.000103	-0.244665
C37	C	1.091511	0.000093	-0.275229
C38	C	1.008242	0.000081	-0.226840
C39	C	1.009781	0.000082	-0.147894
C40	C	1.002033	0.000074	-0.545221
C41	C	1.000501	0.000075	-0.624173
C42	C	1.168566	0.000094	-0.641992
C43	C	1.170105	0.000096	-0.563046
C44	C	1.086836	0.000080	-0.514664
C45	C	1.088505	0.000086	-0.429060
C46	C	1.089841	0.000092	-0.360831
C47	C	1.082134	0.000083	0.243420
C48	C	1.083765	0.000078	0.327442
H49	H	1.203146	0.203806	0.011882
C50	C	1.260165	0.000101	-0.695215
C51	C	1.282208	0.071497	-0.751952
C52	C	1.373804	0.071507	-0.805171
C53	C	1.443358	0.000121	-0.801655
C54	C	1.421316	-0.071279	-0.744916
C55	C	1.329720	-0.071289	-0.691696
H56	H	1.230719	0.124345	-0.754557
H57	H	1.390120	0.124363	-0.847173
H58	H	1.511163	0.000129	-0.841051
H59	H	1.472806	-0.124128	-0.742310
H60	H	1.313404	-0.124145	-0.649694
C61	C	0.907213	0.000056	-0.657794
C62	C	0.838075	0.071437	-0.639596
C63	C	0.744793	0.071419	-0.673218
C64	C	0.720648	0.000020	-0.725038
C65	C	0.789787	-0.071366	-0.743239
C66	C	0.883069	-0.071348	-0.709617
H67	H	0.855947	0.124296	-0.601233
H68	H	0.693612	0.124265	-0.659744
H69	H	0.651595	0.000007	-0.749927
H70	H	0.771915	-0.124225	-0.781602
H71	H	0.934250	-0.124194	-0.723091
H72	H	1.203180	0.639378	0.011896
C73	C	1.271137	0.000122	-0.132102
C74	C	1.295317	-0.071270	-0.080270
C75	C	1.388606	-0.071262	-0.046658
C76	C	1.457713	0.000139	-0.064878
C77	C	1.433535	0.071537	-0.116712
C78	C	1.340246	0.071528	-0.150325
H79	H	1.244158	-0.124130	-0.066781
H80	H	1.406504	-0.124116	-0.008286
H81	H	1.526771	0.000145	-0.039996
H82	H	1.484694	0.124397	-0.130202
H83	H	1.322348	0.124382	-0.188696
C84	C	0.957251	0.627004	0.212894
C85	C	0.888177	0.674598	0.269405
C86	C	0.819064	0.626995	0.325893
C87	C	0.819024	0.531799	0.325870
C88	C	0.888101	0.484200	0.269358
C89	C	0.957215	0.531802	0.212870
H90	H	0.888204	0.745073	0.269423
H91	H	0.767928	0.662232	0.367727
H92	H	0.767862	0.496560	0.367686
H93	H	0.888074	0.413725	0.269339
H94	H	1.008350	0.496566	0.171035
C95	C	0.914956	0.000068	-0.260454
C96	C	0.845853	-0.071338	-0.242238
C97	C	0.752563	-0.071348	-0.275849
C98	C	0.728376	0.000047	-0.327675
C99	C	0.797480	0.071458	-0.345894
C100	C	0.890770	0.071468	-0.312284
H101	H	0.863756	-0.124193	-0.203871
H102	H	0.701408	-0.124212	-0.262362
H103	H	0.659318	0.000039	-0.352556
H104	H	0.779577	0.124313	-0.384262
H105	H	0.941925	0.124332	-0.325771
C106	C	1.267906	0.000116	-0.297883
C107	C	1.337429	0.071524	-0.294389
C108	C	1.429027	0.071535	-0.347606
C109	C	1.451104	0.000137	-0.404317
C110	C	1.381580	-0.071277	-0.407813
C111	C	1.289981	-0.071288	-0.354597
H112	H	1.321088	0.124382	-0.252406
H113	H	1.480493	0.124401	-0.345017
H114	H	1.518911	0.000145	-0.443711
H115	H	1.397921	-0.124135	-0.449796
H116	H	1.238515	-0.124153	-0.357185
H117	H	1.203195	0.796395	0.011899
H118	H	1.239159	0.000109	-0.538166
C119	C	0.918191	0.000074	-0.094669
C120	C	0.848664	-0.071331	-0.098165
C121	C	0.757072	-0.071345	-0.044940
C122	C	0.735006	0.000047	0.011780
C123	C	0.804534	0.071457	0.015278
C124	C	0.896127	0.071470	-0.037947
H125	H	0.864997	-0.124184	-0.140154
H126	H	0.705602	-0.124208	-0.047530
H127	H	0.667203	0.000036	0.051180
H128	H	0.788201	0.124310	0.057268
H129	H	0.947596	0.124333	-0.035357
C130	C	1.221106	0.373185	-0.002785
C131	C	1.290236	0.325595	-0.059253
C132	C	1.359353	0.373201	-0.115734
C133	C	1.359340	0.468398	-0.115748
C134	C	1.290207	0.515993	-0.059279
C135	C	1.221090	0.468387	-0.002797
H136	H	1.290248	0.255120	-0.059244
H137	H	1.410530	0.337968	-0.157537
H138	H	1.410505	0.503639	-0.157559
H139	H	1.290195	0.586468	-0.059288
H140	H	1.169913	0.503620	0.039005
H141	H	0.975218	0.796383	0.198229
H142	H	0.975177	0.360810	0.198204
H143	H	0.934231	0.000061	-0.505837
H144	H	0.975160	0.203795	0.198204
