data_functionalizedCrystal
_audit_creation_method	'MofGen! by Chris Wilmer'
_symmetry_space_group_name_H-M	'P1'
_symmetry_Int_Tables_number	1
_symmetry_cell_setting	triclinic
loop_
_symmetry_equiv_pos_as_xyz
  x,y,z
_cell_length_a	14.519731
_cell_length_b	27.732064
_cell_length_c	13.596369
_cell_angle_alpha	89.998103
_cell_angle_beta	89.994584
_cell_angle_gamma	83.169138
loop_
_atom_site_label
_atom_site_type_symbol
_atom_site_fract_x
_atom_site_fract_y
_atom_site_fract_z
O1	O	1.222760	0.063411	-0.081784
O2	O	1.722760	0.563411	0.418216
O3	O	0.954157	0.070861	-0.081785
O4	O	1.454157	0.570861	0.418215
O5	O	1.096793	-0.003220	-0.081788
O6	O	1.596793	0.496780	0.418212
O7	O	1.080125	0.137492	-0.081781
O8	O	1.580125	0.637492	0.418219
O9	O	1.096779	-0.003224	0.081795
O10	O	1.596779	0.496776	0.581795
O11	O	0.954143	0.070858	0.081798
O12	O	1.454143	0.570858	0.581798
O13	O	1.222746	0.063407	0.081799
O14	O	1.722746	0.563407	0.581799
Zn15	Zn	1.088443	0.067131	0.107771
Zn16	Zn	1.588443	0.567131	0.607771
Zn17	Zn	1.088461	0.067137	-0.107757
Zn18	Zn	1.588461	0.567137	0.392243
O19	O	1.080111	0.137488	0.081802
O20	O	1.580111	0.637488	0.581802
C21	C	0.919797	0.070510	0.000007
C22	C	1.419797	0.570510	0.500007
C23	C	0.817435	0.069464	0.000006
C24	C	1.317435	0.569464	0.500006
C25	C	0.734305	0.068614	0.000002
C26	C	1.234305	0.568614	0.500002
C27	C	0.630015	0.067552	0.000002
C28	C	1.130015	0.567552	0.500002
C29	C	0.546890	0.066709	0.000002
C30	C	1.046890	0.566709	0.500002
C31	C	0.442593	0.065647	-0.000001
C32	C	0.942593	0.565647	0.499999
C33	C	1.096434	-0.021230	0.000000
C34	C	1.596434	0.478770	0.500000
C35	C	1.095373	-0.074890	-0.000009
C36	C	1.595373	0.425110	0.499991
C37	C	1.003862	-0.452404	-0.000013
C38	C	1.503862	0.047596	0.499987
C39	C	1.007766	-0.250725	-0.000014
C40	C	1.507766	0.249275	0.499986
O41	O	0.936756	-0.219814	-0.000054
O42	O	1.436756	0.280186	0.499946
N43	N	1.092346	-0.231190	-0.000014
N44	N	1.592346	0.268810	0.499986
C45	C	1.175957	-0.262078	-0.000020
C46	C	1.675957	0.237922	0.499980
O47	O	1.247987	-0.240834	-0.000031
O48	O	1.747987	0.259166	0.499969
C49	C	1.172052	-0.463756	-0.000026
C50	C	1.672052	0.036244	0.499974
C51	C	1.087466	-0.483288	-0.000016
C52	C	1.587466	0.016712	0.499984
C53	C	0.919283	-0.471936	-0.000004
C54	C	1.419283	0.028064	0.499996
C55	C	0.918308	-0.522353	0.000001
C56	C	1.418308	-0.022353	0.500001
C57	C	1.001912	-0.553237	-0.000002
C58	C	1.501912	-0.053237	0.499998
C59	C	1.086491	-0.533705	-0.000011
C60	C	1.586491	-0.033705	0.499989
C61	C	1.255661	-0.494643	-0.000039
C62	C	1.755661	0.005357	0.499961
C63	C	1.254678	-0.545065	-0.000043
C64	C	1.754678	-0.045065	0.499957
C65	C	1.170092	-0.564597	-0.000033
C66	C	1.670092	-0.064597	0.499967
C67	C	1.169120	-0.615006	-0.000008
C68	C	1.669120	-0.115006	0.499992
N69	N	1.084539	-0.634541	-0.000008
N70	N	1.584539	-0.134541	0.499992
C71	C	1.000935	-0.603657	-0.000005
C72	C	1.500935	-0.103657	0.499995
C73	C	1.178001	-0.156193	-0.000015
C74	C	1.678001	0.343807	0.499985
C75	C	1.178977	-0.105774	-0.000012
C76	C	1.678977	0.394226	0.499988
C77	C	1.010786	-0.094425	-0.000008
C78	C	1.510786	0.405575	0.499992
C79	C	1.009810	-0.144845	-0.000004
C80	C	1.509810	0.355155	0.499996
C81	C	1.093420	-0.175728	-0.000015
C82	C	1.593420	0.324272	0.499985
C83	C	0.998894	-0.709536	0.000008
C84	C	1.498894	-0.209536	0.500008
C85	C	0.997927	-0.759958	0.000018
C86	C	1.497927	-0.259958	0.500018
C87	C	1.166117	-0.771303	0.000008
C88	C	1.666117	-0.271303	0.500008
C89	C	1.167085	-0.720886	0.000004
C90	C	1.667085	-0.220886	0.500004
C91	C	1.083466	-0.690003	0.000000
C92	C	1.583466	-0.190003	0.500000
O93	O	1.240092	-0.645945	0.000020
O94	O	1.740092	-0.145945	0.500020
O95	O	0.928916	-0.624910	-0.000017
O96	O	1.428916	-0.124910	0.499983
C97	C	1.004837	-0.401987	-0.000019
C98	C	1.504837	0.098013	0.499981
C99	C	1.089416	-0.382454	-0.000028
C100	C	1.589416	0.117546	0.499972
C101	C	1.173020	-0.413338	-0.000031
C102	C	1.673020	0.086662	0.499969
C103	C	1.090392	-0.332035	-0.000024
C104	C	1.590392	0.167965	0.499976
C105	C	1.006788	-0.301151	-0.000021
C106	C	1.506788	0.198849	0.499979
C107	C	0.922208	-0.320686	-0.000021
C108	C	1.422208	0.179314	0.499979
C109	C	0.921233	-0.371103	-0.000016
C110	C	1.421233	0.128897	0.499984
C111	C	1.257600	-0.393803	-0.000031
C112	C	1.757600	0.106197	0.499969
C113	C	1.258569	-0.343386	-0.000035
C114	C	1.758569	0.156614	0.499965
C115	C	1.174965	-0.312502	-0.000032
C116	C	1.674965	0.187498	0.499968
C117	C	1.257107	0.063758	0.000005
C118	C	1.757107	0.563758	0.500005
C119	C	1.359469	0.064804	-0.000001
C120	C	1.859469	0.564804	0.499999
C121	C	1.080470	0.155499	0.000012
C122	C	1.580470	0.655499	0.500012
C123	C	1.081530	0.209158	0.000014
C124	C	1.581530	0.709158	0.500014
N125	N	1.088437	0.067128	0.254863
N126	N	1.588437	0.567128	0.754863
N127	N	1.088474	0.067137	-0.254849
N128	N	1.588474	0.567137	0.245151
C129	C	1.088460	0.067137	0.656154
C130	C	1.588460	0.567137	1.156154
C131	C	1.088451	0.067136	0.544502
C132	C	1.588451	0.567136	1.044502
C133	C	1.088449	0.067133	0.455512
C134	C	1.588449	0.567133	0.955512
C135	C	1.088439	0.067131	0.343853
C136	C	1.588439	0.567131	0.843853
H137	H	0.929044	-0.775858	0.000030
H138	H	1.429044	-0.275858	0.500030
H139	H	1.234185	-0.796458	0.000010
H140	H	1.734185	-0.296458	0.500010
C141	C	1.269978	-0.190160	-0.000015
C142	C	1.769978	0.309840	0.499985
H143	H	1.320483	-0.171300	-0.000003
H144	H	1.820483	0.328700	0.499997
H145	H	1.273110	-0.210065	-0.057058
H146	H	1.773110	0.289935	0.442942
H147	H	1.273090	-0.210063	0.057039
H148	H	1.773090	0.289937	0.557039
H149	H	0.852355	-0.387001	-0.000007
H150	H	1.352355	0.112999	0.499993
C151	C	0.916767	-0.166326	-0.000008
C152	C	1.416767	0.333674	0.499992
H153	H	0.867120	-0.140707	-0.000012
H154	H	1.367120	0.359293	0.499988
H155	H	0.912879	-0.185762	0.057032
H156	H	1.412879	0.314238	0.557032
H157	H	0.912893	-0.185753	-0.057065
H158	H	1.412893	0.314247	0.442935
C159	C	1.272021	-0.084294	-0.000013
C160	C	1.772021	0.415706	0.499987
H161	H	1.321668	-0.109913	-0.000025
H162	H	1.821668	0.390087	0.499975
H163	H	1.275903	-0.064862	0.057030
H164	H	1.775903	0.435138	0.557030
H165	H	1.275902	-0.064862	-0.057067
H166	H	1.775902	0.435138	0.442933
H167	H	1.324540	-0.478749	-0.000048
H168	H	1.824540	0.021251	0.499952
C169	C	1.346651	-0.579034	-0.000051
C170	C	1.846651	-0.079034	0.499949
H171	H	1.397161	-0.560177	-0.000049
H172	H	1.897161	-0.060177	0.499951
H173	H	1.349771	-0.598940	-0.057093
H174	H	1.849771	-0.098940	0.442907
H175	H	1.349767	-0.598937	0.057004
H176	H	1.849767	-0.098937	0.557004
H177	H	0.854135	-0.295531	-0.000013
H178	H	1.354135	0.204469	0.499987
C179	C	1.260127	-0.699399	0.000004
C180	C	1.760127	-0.199399	0.500004
H181	H	1.309777	-0.725016	0.000001
H182	H	1.809777	-0.225016	0.500001
H183	H	1.264001	-0.679963	0.057044
H184	H	1.764001	-0.179963	0.557044
H185	H	1.264007	-0.679970	-0.057053
H186	H	1.764007	-0.179970	0.442947
H187	H	0.942712	-0.069270	-0.000001
H188	H	1.442712	0.430730	0.499999
H189	H	1.327454	-0.327488	-0.000036
H190	H	1.827454	0.172512	0.499964
H191	H	0.849429	-0.538251	0.000001
H192	H	1.349429	-0.038251	0.500001
H193	H	1.325682	-0.418945	-0.000034
H194	H	1.825682	0.081055	0.499966
H195	H	0.851199	-0.446795	-0.000005
H196	H	1.351199	0.053205	0.499995
C197	C	0.906916	-0.675572	0.000012
C198	C	1.406916	-0.175572	0.500012
H199	H	0.856410	-0.694432	0.000027
H200	H	1.356410	-0.194432	0.500027
H201	H	0.903791	-0.655666	-0.057032
H202	H	1.403791	-0.155666	0.442968
H203	H	0.903796	-0.655669	0.057065
H204	H	1.403796	-0.155669	0.557065
