data_functionalizedCrystal
_audit_creation_method	'MofGen! by Chris Wilmer'
_symmetry_space_group_name_H-M	'P1'
_symmetry_Int_Tables_number	1
_symmetry_cell_setting	triclinic
loop_
_symmetry_equiv_pos_as_xyz
  x,y,z
_cell_length_a	6.817900
_cell_length_b	9.582860
_cell_length_c	17.078481
_cell_angle_alpha	94.514419
_cell_angle_beta	99.306161
_cell_angle_gamma	111.206767
loop_
_atom_site_label
_atom_site_type_symbol
_atom_site_fract_x
_atom_site_fract_y
_atom_site_fract_z
V1	V	-4.019535	-0.206706	-0.247216
O2	O	-3.966058	0.010293	-0.242660
O3	O	-4.010657	-0.410210	-0.245382
O4	O	-3.949937	-0.203369	-0.355102
O5	O	-4.027199	-0.197980	-0.132181
V6	V	-4.500789	-0.180770	-0.233475
O7	O	-4.285772	-0.263601	-0.277360
O8	O	-4.684750	-0.123875	-0.203331
O9	O	-4.286461	0.022734	-0.235309
O10	O	-4.671663	-0.397769	-0.238031
O11	O	-4.610522	-0.189496	-0.348511
O12	O	-4.347181	-0.184107	-0.125589
C13	C	-3.865958	-0.459825	-0.241445
C14	C	-3.939845	-0.626190	-0.240664
C15	C	-3.788503	-0.195977	-0.381402
C16	C	-3.813143	-0.194595	-0.469598
C17	C	-4.007502	-0.201416	-0.515069
C18	C	-4.030643	-0.200116	-0.597938
C19	C	-3.859426	-0.192006	-0.635336
C20	C	-3.665049	-0.185180	-0.589858
C21	C	-3.641907	-0.186469	-0.506990
C22	C	-3.909036	-0.187341	-0.882742
C23	C	-3.932197	-0.186057	-0.965617
C24	C	-4.297788	-0.200991	-0.973691
C25	C	-4.274632	-0.202288	-0.890822
C26	C	-4.080254	-0.195454	-0.845351
N27	N	-3.883077	-0.190682	-0.720041
N28	N	-4.056601	-0.196767	-0.760646
C29	C	-4.094504	0.072341	-0.239244
C30	C	-3.999855	0.238705	-0.240030
C31	C	-4.171959	-0.191504	-0.099285
C32	C	-4.126556	-0.192879	-0.011088
H33	H	-4.146935	-0.208030	-0.484627
O34	O	-3.699400	-0.179991	-0.833711
H35	H	-3.712048	-0.182234	-0.769802
H36	H	-4.414058	-0.208891	-0.860379
H37	H	-4.456043	-0.206553	-1.010722
O38	O	-3.747443	-0.177143	-1.005944
H39	H	-3.608357	-0.172535	-0.960398
H40	H	-4.188903	-0.205662	-0.634957
H41	H	-3.525640	-0.178568	-0.620313
O42	O	-3.432282	-0.179123	-0.457941
H43	H	-3.317118	-0.173282	-0.497867
