data_functionalizedCrystal
_audit_creation_method	'MofGen! by Chris Wilmer'
_symmetry_space_group_name_H-M	'P1'
_symmetry_Int_Tables_number	1
_symmetry_cell_setting	triclinic
loop_
_symmetry_equiv_pos_as_xyz
  x,y,z
_cell_length_a	17.640112
_cell_length_b	18.101397
_cell_length_c	17.639306
_cell_angle_alpha	101.181650
_cell_angle_beta	87.804122
_cell_angle_gamma	101.246095
loop_
_atom_site_label
_atom_site_type_symbol
_atom_site_fract_x
_atom_site_fract_y
_atom_site_fract_z
Zn1	Zn	1.247743	-0.095188	-0.195061
Zn2	Zn	1.222001	-0.199865	-0.068079
Zn3	Zn	1.095095	-0.104960	-0.093713
Zn4	Zn	1.120713	-0.247925	-0.220648
O5	O	1.171388	-0.161985	-0.144375
O6	O	1.350601	-0.084870	-0.156780
O7	O	1.183672	-0.171252	0.034786
O8	O	1.115396	-0.000025	-0.107176
O9	O	1.331688	-0.161776	-0.063487
O10	O	1.227546	0.007155	-0.181636
O11	O	1.090435	-0.101526	0.015953
O12	O	0.992221	-0.148128	-0.131987
O13	O	1.159059	-0.243688	-0.323519
O14	O	1.011042	-0.253164	-0.225245
O15	O	1.252387	-0.131473	-0.304720
O16	O	1.208513	-0.309879	-0.088298
O17	O	1.134098	-0.345189	-0.200390
C18	C	0.974076	-0.206923	-0.184175
C19	C	0.889669	-0.226168	-0.201219
C20	C	1.171316	-0.354404	-0.144351
C21	C	1.171359	-0.436710	-0.144352
C22	C	0.563037	-0.015769	-0.014896
C23	C	0.483725	-0.033869	-0.030922
C24	C	0.503345	-0.143348	-0.127865
C25	C	0.582660	-0.125255	-0.111850
C26	C	0.612499	-0.061465	-0.055364
C27	C	0.632123	-0.170951	-0.152317
C28	C	0.711430	-0.152861	-0.136300
C29	C	0.741275	-0.089076	-0.079815
C30	C	0.691807	-0.043375	-0.039346
C31	C	0.602281	-0.234744	-0.208799
C32	C	0.651744	-0.280440	-0.249267
C33	C	0.731054	-0.262347	-0.233254
C34	C	0.760899	-0.198562	-0.176769
C35	C	0.780522	-0.308047	-0.273722
C36	C	0.859830	-0.289958	-0.257705
C37	C	0.840206	-0.180472	-0.160752
C38	C	1.171470	-0.735790	-0.144402
C39	C	1.218095	-0.682231	-0.073753
C40	C	1.218328	-0.596589	-0.073865
C41	C	1.171415	-0.587413	-0.144377
C42	C	1.209282	-0.625572	-0.220045
C43	C	1.209670	-0.711065	-0.219634
C44	C	1.086962	-0.719510	-0.140107
C45	C	1.086998	-0.633500	-0.138240
C46	C	1.171384	-0.503558	-0.144368
C47	C	1.171505	-0.819645	-0.144416
C48	C	1.369471	-0.116872	-0.104420
C49	C	1.453881	-0.097648	-0.087394
C50	C	1.211452	-0.191851	-0.342443
C51	C	1.228525	-0.204579	-0.426848
C52	C	1.171485	0.031189	-0.144411
C53	C	1.171526	0.113508	-0.144427
C54	C	1.041982	-0.064952	-0.753490
C55	C	1.058042	-0.076923	-0.832797
C56	C	1.155120	-0.149521	-0.813169
C57	C	1.139071	-0.137553	-0.733857
C58	C	1.082501	-0.095269	-0.704024
C59	C	1.179589	-0.167870	-0.684392
C60	C	1.163538	-0.155906	-0.605088
C61	C	1.106969	-0.113625	-0.575249
C62	C	1.066450	-0.083305	-0.624720
C63	C	1.236155	-0.210159	-0.714227
C64	C	1.276673	-0.240475	-0.664762
C65	C	1.260627	-0.228507	-0.585456
C66	C	1.204057	-0.186226	-0.555617
C67	C	1.301146	-0.258827	-0.535985
C68	C	1.285095	-0.246863	-0.456681
C69	C	1.188007	-0.174262	-0.476313
C70	C	1.131524	-0.132171	0.052931
C71	C	1.114598	-0.119201	0.137365
H72	H	0.864505	-0.128518	-0.114766
F73	F	1.046017	-0.742372	-0.070343
H74	H	0.805853	-0.074349	-0.066773
H75	H	0.716105	0.008578	0.006639
F76	F	1.006248	-0.038292	-0.592965
F77	F	1.184852	-0.701452	0.000524
H78	H	0.900104	-0.327167	-0.290659
H79	H	0.627437	-0.332379	-0.295255
H80	H	0.479038	-0.195288	-0.173854
H81	H	1.347199	-0.293262	-0.560288
H82	H	1.025046	-0.052229	-0.873070
H83	H	1.249223	-0.219896	-0.778802
H84	H	1.058738	-0.608068	-0.082634
H85	H	1.322730	-0.274906	-0.689064
F86	F	0.431084	0.014768	0.012158
F87	F	1.184876	-0.561520	0.000117
H88	H	1.093896	-0.103891	-0.510676
F89	F	0.981781	-0.019939	-0.721734
F90	F	0.517872	-0.254002	-0.225837
F91	F	1.037435	-0.627074	-0.202273
H92	H	0.756214	-0.359989	-0.319708
F93	F	1.299023	-0.695306	-0.075671
H94	H	0.587335	0.036184	0.031089
F95	F	1.299721	-0.554687	-0.075906
F96	F	1.041295	-0.767446	-0.207621
H97	H	1.201176	-0.183952	-0.837470
H98	H	1.318099	-0.271538	-0.416402
H99	H	1.271923	-0.720226	-0.225155
F100	F	1.168349	-0.759253	-0.289639
F101	F	1.167166	-0.620165	-0.289789
H102	H	1.141950	-0.139821	-0.452020
H103	H	1.270937	-0.593500	-0.225993
