data_functionalizedCrystal
_audit_creation_method	'MofGen! by Chris Wilmer'
_symmetry_space_group_name_H-M	'P1'
_symmetry_Int_Tables_number	1
_symmetry_cell_setting	triclinic
loop_
_symmetry_equiv_pos_as_xyz
  x,y,z
_cell_length_a	14.971486
_cell_length_b	19.288865
_cell_length_c	14.048226
_cell_angle_alpha	89.988335
_cell_angle_beta	89.998499
_cell_angle_gamma	83.375189
loop_
_atom_site_label
_atom_site_type_symbol
_atom_site_fract_x
_atom_site_fract_y
_atom_site_fract_z
O1	O	1.186458	0.090517	-0.079062
O2	O	0.925999	0.101357	-0.079090
O3	O	1.063754	-0.005169	-0.079056
O4	O	1.048702	0.197043	-0.079096
O5	O	1.063738	-0.005175	0.079265
O6	O	0.925982	0.101351	0.079232
O7	O	1.186441	0.090511	0.079259
Zn8	Zn	1.056209	0.095930	0.104382
Zn9	Zn	1.056231	0.095938	-0.104213
O10	O	1.048686	0.197037	0.079226
C11	C	0.892669	0.100869	0.000068
C12	C	0.793379	0.099416	0.000058
C13	C	1.063262	-0.031050	0.000107
C14	C	1.061808	-0.108158	0.000115
C15	C	0.735816	0.161997	0.000047
C16	C	0.642524	0.160628	0.000062
C17	C	0.606797	0.096677	0.000080
C18	C	0.664368	0.034092	0.000094
C19	C	0.757658	0.035461	0.000086
C20	C	0.469921	0.031241	0.000108
C21	C	0.376624	0.029871	0.000113
C22	C	0.354786	0.156407	0.000083
C23	C	0.448077	0.157777	0.000075
C24	C	0.505641	0.095191	0.000087
C25	C	1.142636	-0.152591	0.000128
C26	C	1.141271	-0.225043	0.000113
C27	C	1.059071	-0.253058	0.000104
C28	C	0.978232	-0.208615	0.000085
C29	C	0.979600	-0.136166	0.000091
C30	C	0.994448	-0.361558	0.055554
C31	C	0.993083	-0.434007	0.055554
C32	C	1.054848	-0.476517	0.000082
C33	C	1.117994	-0.446571	-0.055378
C34	C	1.119362	-0.374121	-0.055372
C35	C	1.057579	-0.331617	0.000097
C36	C	1.134201	-0.599511	0.000077
C37	C	1.132832	-0.671963	0.000056
C38	C	0.969791	-0.655535	0.000038
C39	C	0.971163	-0.583084	0.000050
C40	C	1.053370	-0.555077	0.000074
C41	C	1.219771	0.090999	0.000099
C42	C	1.319061	0.092452	0.000103
C43	C	1.049178	0.222918	0.000060
C44	C	1.050632	0.300026	0.000046
N45	N	1.056201	0.095924	0.246743
N46	N	1.056246	0.095939	-0.246574
C47	C	1.117218	0.048774	0.296576
C48	C	1.117224	0.048773	0.396233
C49	C	1.056217	0.095927	0.446056
C50	C	0.995193	0.143079	0.396217
C51	C	0.995183	0.143076	0.296561
C52	C	0.995219	0.143084	0.603931
C53	C	0.995229	0.143089	0.703593
C54	C	1.117259	0.048782	0.703603
C55	C	1.117250	0.048778	0.603947
C56	C	1.056227	0.095932	0.554115
H57	H	0.764896	0.214073	0.000032
H58	H	0.945496	0.181469	0.255988
H59	H	0.307912	0.207367	0.000078
H60	H	1.166946	0.010388	0.744183
C61	C	1.239009	0.033873	0.508302
C62	C	1.184297	-0.003050	0.451018
H63	H	1.280413	0.001877	0.542129
H64	H	1.271056	0.062821	0.469411
H65	H	1.202661	0.061953	0.552227
H66	H	1.220645	-0.031126	0.407088
H67	H	1.152247	-0.032009	0.489913
H68	H	0.347539	-0.022204	0.000130
H69	H	0.944148	-0.326952	0.100731
H70	H	0.595658	0.211588	0.000052
H71	H	0.516788	-0.019723	0.000119
C72	C	0.540298	0.232721	-0.081367
C73	C	0.487340	0.228076	0.000035
H74	H	0.564530	0.276125	-0.081396
H75	H	0.587932	0.195653	-0.081349
H76	H	0.504342	0.229548	-0.136561
H77	H	0.523298	0.231245	0.055229
H78	H	0.439699	0.265155	0.000026
H79	H	0.635272	-0.017978	0.000123
C80	C	1.273444	-0.484580	-0.087582
C81	C	1.185892	-0.493292	-0.116356
H82	H	1.315359	-0.513431	-0.125220
H83	H	1.283293	-0.437153	-0.095518
H84	H	1.281059	-0.497262	-0.022493
H85	H	1.178275	-0.480606	-0.181443
H86	H	1.176040	-0.540730	-0.108428
C87	C	0.769880	-0.089751	0.000101
C88	C	0.820936	-0.033329	0.000089
H89	H	0.808946	-0.132220	0.000099
H90	H	0.733045	-0.087657	0.055310
H91	H	0.733033	-0.087645	-0.055111
H92	H	0.857779	-0.035432	0.055304
H93	H	0.857787	-0.035424	-0.055126
H94	H	1.166931	0.010386	0.563382
H95	H	1.209576	-0.129793	0.000145
C96	C	1.302567	-0.234012	0.000157
C97	C	1.230123	-0.273895	0.000134
H98	H	1.357419	-0.264171	0.000176
H99	H	1.299725	-0.205406	-0.055050
H100	H	1.299692	-0.205417	0.055370
H101	H	1.232994	-0.302486	-0.055083
H102	H	1.232967	-0.302512	0.055347
H103	H	1.170775	-0.349742	-0.100531
C104	C	1.225858	-0.762991	0.081442
C105	C	1.221683	-0.720812	0.000065
H106	H	1.280709	-0.793152	0.081441
H107	H	1.223001	-0.734400	0.136647
H108	H	1.176700	-0.790038	0.081417
H109	H	1.270838	-0.693761	0.000094
H110	H	1.224549	-0.749406	-0.055154
C111	C	1.295221	-0.623024	0.000071
C112	C	1.224561	-0.568719	0.000081
H113	H	1.351004	-0.604014	0.000065
H114	H	1.291299	-0.650949	0.055276
H115	H	1.291288	-0.650931	-0.055144
H116	H	1.228490	-0.540815	0.055301
H117	H	1.228485	-0.540783	-0.055130
C118	C	1.237832	-0.044449	0.306606
C119	C	1.184279	-0.003061	0.241815
H120	H	1.279228	-0.076454	0.272798
H121	H	1.269889	-0.015493	0.345457
H122	H	1.200697	-0.069477	0.345492
H123	H	1.221414	0.021971	0.202933
H124	H	1.152219	-0.032020	0.202947
H125	H	0.902863	-0.678344	0.000026
C126	C	0.874605	0.236313	0.613926
C127	C	0.928146	0.194919	0.549152
H128	H	0.833206	0.268317	0.580106
H129	H	0.842551	0.207362	0.652806
H130	H	0.911748	0.261342	0.652786
H131	H	0.891003	0.169886	0.510297
H132	H	0.960202	0.223874	0.510256
H133	H	0.945550	0.181485	0.744154
C134	C	0.809873	-0.574125	0.000045
C135	C	0.882312	-0.534238	0.000052
H136	H	0.755018	-0.543968	0.000051
H137	H	0.812732	-0.602711	-0.055165
H138	H	0.812733	-0.602739	0.055256
H139	H	0.879456	-0.505628	-0.055162
H140	H	0.879451	-0.505640	0.055268
H141	H	0.941662	-0.458383	0.100707
C142	C	0.882127	-0.280555	-0.081310
C143	C	0.887878	-0.239409	0.000077
H144	H	0.826346	-0.299567	-0.081314
H145	H	0.886051	-0.252623	-0.136508
H146	H	0.930078	-0.317386	-0.081293
H147	H	0.839931	-0.202575	0.000057
H148	H	0.883945	-0.267342	0.055289
H149	H	0.913778	-0.099988	0.000081
H150	H	0.945515	0.181470	0.436788
