data_functionalizedCrystal
_audit_creation_method	'MofGen! by Chris Wilmer'
_symmetry_space_group_name_H-M	'P1'
_symmetry_Int_Tables_number	1
_symmetry_cell_setting	triclinic
loop_
_symmetry_equiv_pos_as_xyz
  x,y,z
_cell_length_a	10.723023
_cell_length_b	14.519709
_cell_length_c	9.798715
_cell_angle_alpha	90.004331
_cell_angle_beta	90.002993
_cell_angle_gamma	84.073846
loop_
_atom_site_label
_atom_site_type_symbol
_atom_site_fract_x
_atom_site_fract_y
_atom_site_fract_z
O1	O	1.655978	0.129344	0.113480
O2	O	2.155978	0.629344	0.613480
O3	O	1.292710	0.141726	0.113486
O4	O	1.792710	0.641726	0.613486
O5	O	1.483975	0.001346	0.113471
O6	O	1.983975	0.501346	0.613471
O7	O	1.464712	0.269724	0.113496
O8	O	1.964712	0.769724	0.613496
O9	O	1.483962	0.001345	-0.113511
O10	O	1.983962	0.501345	0.386489
O11	O	1.292696	0.141725	-0.113496
O12	O	1.792696	0.641725	0.386504
O13	O	1.655965	0.129343	-0.113502
O14	O	2.155965	0.629343	0.386498
Zn15	Zn	1.474328	0.135534	-0.149537
Zn16	Zn	1.974328	0.635534	0.350463
Zn17	Zn	1.474346	0.135535	0.149522
Zn18	Zn	1.974346	0.635535	0.649522
O19	O	1.464699	0.269723	-0.113486
O20	O	1.964699	0.769723	0.386514
C21	C	1.246212	0.140825	-0.000004
C22	C	1.746212	0.640825	0.499996
C23	C	1.107683	0.138129	-0.000002
C24	C	1.607683	0.638129	0.499998
C25	C	0.902759	0.134142	0.117581
C26	C	1.402759	0.634142	0.617581
C27	C	1.045936	0.136928	0.117582
C28	C	1.545936	0.636928	0.617582
C29	C	1.483071	-0.033019	-0.000020
C30	C	1.983071	0.466981	0.499980
C31	C	1.480381	-0.135414	-0.000021
C32	C	1.980381	0.364586	0.499979
C33	C	1.470477	-0.510360	0.000015
C34	C	1.970477	-0.010360	0.500015
C35	C	1.473227	-0.406038	0.000004
C36	C	1.973227	0.093962	0.500004
C37	C	1.475428	-0.322890	-0.000005
C38	C	1.975428	0.177110	0.499995
C39	C	1.478179	-0.218562	-0.000012
C40	C	1.978179	0.281438	0.499988
C41	C	1.702462	0.130245	-0.000008
C42	C	2.202462	0.630245	0.499992
C43	C	1.840992	0.132940	-0.000001
C44	C	2.340992	0.632940	0.499999
C45	C	1.465603	0.304088	0.000008
C46	C	1.965603	0.804088	0.500008
C47	C	1.468293	0.406483	0.000018
C48	C	1.968293	0.906483	0.500018
N49	N	1.474325	0.135532	-0.353637
N50	N	1.974325	0.635532	0.146363
C51	C	1.554831	0.076463	-0.578575
C52	C	2.054831	0.576463	-0.078575
C53	C	1.554814	0.076464	-0.421412
C54	C	2.054814	0.576464	0.078588
N55	N	1.474359	0.135530	0.353621
N56	N	1.974359	0.635530	0.853621
H57	H	1.054571	0.137101	-0.100674
H58	H	1.554571	0.637101	0.399326
H59	H	1.623706	0.025891	-0.363104
H60	H	2.123706	0.525891	0.136896
H61	H	1.405421	0.186101	-0.411936
H62	H	1.905421	0.686101	0.088064
H63	H	1.405454	0.186103	-0.588077
H64	H	1.905454	0.686103	-0.088077
H65	H	0.894109	0.133969	-0.100667
H66	H	1.394109	0.633969	0.399333
H67	H	0.849644	0.133103	0.218247
H68	H	1.349644	0.633103	0.718247
O69	O	1.637154	0.016088	-0.647905
O70	O	2.137154	0.516088	-0.147905
C71	C	1.711946	-0.038853	-0.554347
C72	C	2.211946	0.461147	-0.054347
H73	H	1.713545	-0.001096	-0.452453
H74	H	2.213545	0.498904	0.047547
H75	H	1.811526	-0.052259	-0.595728
H76	H	2.311526	0.447741	-0.095728
H77	H	1.671248	-0.107629	-0.539209
H78	H	2.171248	0.392371	-0.039209
H79	H	1.099054	0.137968	0.218249
H80	H	1.599054	0.637968	0.718249
