data_functionalizedCrystal
_audit_creation_method	'MofGen! by Chris Wilmer'
_symmetry_space_group_name_H-M	'P1'
_symmetry_Int_Tables_number	1
_symmetry_cell_setting	triclinic
loop_
_symmetry_equiv_pos_as_xyz
  x,y,z
_cell_length_a	18.215407
_cell_length_b	19.805405
_cell_length_c	19.805399
_cell_angle_alpha	90.027486
_cell_angle_beta	89.983693
_cell_angle_gamma	89.974829
loop_
_atom_site_label
_atom_site_type_symbol
_atom_site_fract_x
_atom_site_fract_y
_atom_site_fract_z
Zn1	Zn	1.125050	0.269525	-0.382661
Zn2	Zn	1.625050	0.769525	0.117339
Zn3	Zn	1.124954	0.382713	-0.269473
Zn4	Zn	1.624954	0.882713	0.230527
Zn5	Zn	1.001985	0.269539	-0.269492
Zn6	Zn	1.501985	0.769539	0.230508
Zn7	Zn	1.001942	0.382672	-0.382626
Zn8	Zn	1.501942	0.882672	0.117374
O9	O	1.063483	0.326112	-0.326063
O10	O	1.563483	0.826112	0.173937
O11	O	1.228021	0.284551	-0.367653
O12	O	1.728021	0.784551	0.132347
O13	O	1.108620	0.367723	-0.174759
O14	O	1.608620	0.867723	0.325241
O15	O	1.018367	0.174820	-0.284527
O16	O	1.518367	0.674820	0.215473
O17	O	1.227951	0.367710	-0.284494
O18	O	1.727951	0.867710	0.215506
O19	O	1.108783	0.174810	-0.367672
O20	O	1.608783	0.674810	0.132328
O21	O	1.018275	0.284574	-0.174773
O22	O	1.518275	0.784574	0.325227
O23	O	0.898995	0.284535	-0.284493
O24	O	1.398995	0.784535	0.215507
O25	O	1.018295	0.367640	-0.477347
O26	O	1.518295	0.867640	0.022653
O27	O	0.898963	0.367654	-0.367612
O28	O	1.398963	0.867654	0.132388
O29	O	1.108741	0.284511	-0.477373
O30	O	1.608741	0.784511	0.022627
O31	O	1.108579	0.477425	-0.284460
O32	O	1.608579	0.977425	0.215540
O33	O	1.018202	0.477394	-0.367594
O34	O	1.518202	0.977394	0.132406
C35	C	0.872276	0.326092	-0.326051
C36	C	1.372276	0.826092	0.173949
C37	C	0.790477	0.326099	-0.326062
C38	C	1.290477	0.826099	0.173938
C39	C	0.602319	0.282887	-0.369431
C40	C	1.102319	0.782887	0.130569
C41	C	0.525460	0.282893	-0.369434
C42	C	1.025460	0.782893	0.130566
C43	C	0.525398	0.369357	-0.282707
C44	C	1.025398	0.869357	0.217293
C45	C	0.602256	0.369347	-0.282702
C46	C	1.102256	0.869347	0.217298
C47	C	0.640714	0.326113	-0.326068
C48	C	1.140714	0.826113	0.173932
C49	C	0.486998	0.326129	-0.326075
C50	C	0.986998	0.826129	0.173925
C51	C	0.403664	0.326135	-0.326077
C52	C	0.903664	0.826135	0.173923
C53	C	0.724053	0.326105	-0.326065
C54	C	1.224053	0.826105	0.173935
C55	C	1.063395	0.501968	-0.326036
C56	C	1.563395	1.001968	0.173964
C57	C	1.063425	0.577200	-0.326047
C58	C	1.563425	1.077200	0.173953
C59	C	1.110529	0.612538	-0.282806
C60	C	1.610529	1.112538	0.217194
C61	C	1.110559	0.683226	-0.282823
C62	C	1.610559	1.183226	0.217177
C63	C	1.063480	0.718576	-0.326078
C64	C	1.563480	1.218576	0.173922
C65	C	1.016374	0.683234	-0.369324
C66	C	1.516374	1.183234	0.130676
C67	C	1.016349	0.612547	-0.369310
C68	C	1.516349	1.112547	0.130690
C69	C	1.016476	0.968307	-0.369383
C70	C	1.516476	1.468307	0.130617
C71	C	1.016503	1.038999	-0.369393
C72	C	1.516503	1.538999	0.130607
C73	C	1.110685	1.038987	-0.282897
C74	C	1.610685	1.538987	0.217103
C75	C	1.110660	0.968299	-0.282882
C76	C	1.610660	1.468299	0.217118
C77	C	1.063557	0.932963	-0.326130
C78	C	1.563557	1.432963	0.173870
C79	C	1.063527	0.856315	-0.326112
C80	C	1.563527	1.356315	0.173888
C81	C	1.063506	0.795223	-0.326094
C82	C	1.563506	1.295223	0.173906
C83	C	1.255435	0.326134	-0.326075
C84	C	1.755435	0.826134	0.173925
C85	C	1.337234	0.326143	-0.326081
C86	C	1.837234	0.826143	0.173919
C87	C	1.063584	1.149570	-0.326113
C88	C	1.563584	1.649570	0.173887
C89	C	1.063611	1.074338	-0.326155
C90	C	1.563611	1.574338	0.173845
C91	C	1.063524	0.326070	-0.502606
C92	C	1.563524	0.826070	-0.002606
C93	C	1.063541	0.326052	-0.577838
C94	C	1.563541	0.826052	-0.077838
C95	C	1.110638	0.282764	-0.613197
C96	C	1.610638	0.782764	-0.113197
C97	C	1.110646	0.282745	-0.683885
C98	C	1.610646	0.782745	-0.183885
C99	C	1.063560	0.326016	-0.719214
C100	C	1.563560	0.826016	-0.219214
C101	C	1.016458	0.369306	-0.683850
C102	C	1.516458	0.869306	-0.183850
C103	C	1.016447	0.369321	-0.613163
C104	C	1.516447	0.869321	-0.113163
C105	C	1.016499	0.369242	-0.968924
C106	C	1.516499	0.869242	-0.468924
C107	C	1.016515	0.369225	-1.039616
C108	C	1.516515	0.869225	-0.539616
C109	C	1.110698	0.282666	-1.039646
C110	C	1.610698	0.782666	-0.539646
C111	C	1.110687	0.282682	-0.968958
C112	C	1.610687	0.782682	-0.468958
C113	C	1.063583	0.325968	-0.933601
C114	C	1.563583	0.825968	-0.433601
C115	C	1.063574	0.325988	-0.856953
C116	C	1.563574	0.825988	-0.356953
C117	C	1.063572	0.326000	-0.795861
C118	C	1.563572	0.826000	-0.295861
C119	C	1.063484	0.326106	-0.150207
C120	C	1.563484	0.826106	0.349793
C121	C	1.063609	0.325934	-0.074976
C122	C	1.563609	0.825934	0.425024
H123	H	0.494202	0.247693	-0.404744
H124	H	0.994202	0.747693	0.095256
H125	H	0.494076	0.404556	-0.247400
H126	H	0.994076	0.904556	0.252600
H127	H	0.978117	0.404536	-0.712620
H128	H	1.478117	0.904536	-0.212620
C129	C	0.644624	0.235330	-0.417127
C130	C	1.144624	0.735330	0.082873
H131	H	0.695897	0.241518	-0.410919
H132	H	1.195897	0.741518	0.089081
H133	H	0.632040	0.189842	-0.407302
H134	H	1.132040	0.689842	0.092698
H135	H	0.632041	0.245300	-0.462590
H136	H	1.132041	0.745300	0.037410
C137	C	0.964720	1.077883	-0.416982
C138	C	1.464720	1.577883	0.083018
H139	H	0.936669	1.046714	-0.442742
H140	H	1.436669	1.546714	0.057258
H141	H	0.932679	1.105499	-0.391073
H142	H	1.432679	1.605499	0.108927
H143	H	0.992874	1.105417	-0.446498
H144	H	1.492874	1.605417	0.053502
C145	C	0.964663	0.929443	-0.416950
C146	C	1.464663	1.429443	0.083050
H147	H	0.971393	0.882281	-0.410755
H148	H	1.471393	1.382281	0.089245
H149	H	0.915227	0.941069	-0.407008
H150	H	1.415227	1.441069	0.092992
H151	H	0.975415	0.940993	-0.462439
H152	H	1.475415	1.440993	0.037561
C153	C	0.644493	0.416900	-0.235001
C154	C	1.144493	0.916900	0.264999
H155	H	0.610582	0.442657	-0.209182
H156	H	1.110582	0.942657	0.290818
H157	H	0.674473	0.390967	-0.205555
H158	H	1.174473	0.890967	0.294445
H159	H	0.674474	0.446421	-0.260846
H160	H	1.174474	0.946421	0.239154
C161	C	1.162369	0.722095	-0.235255
C162	C	1.662369	1.222095	0.264745
H163	H	1.190397	0.690918	-0.209485
H164	H	1.690397	1.190918	0.290515
H165	H	1.194431	0.749629	-0.261174
H166	H	1.694431	1.249629	0.238826
H167	H	1.134240	0.749709	-0.205746
H168	H	1.634240	1.249709	0.294254
H169	H	1.148863	0.583761	-0.247580
H170	H	1.648863	1.083761	0.252420
C171	C	1.162508	0.235046	-1.078540
C172	C	1.662508	0.735046	-0.578540
H173	H	1.155768	0.241227	-1.125699
H174	H	1.655768	0.741227	-0.625699
H175	H	1.211945	0.244963	-1.066959
H176	H	1.711945	0.744963	-0.566959
H177	H	1.151761	0.189568	-1.066964
H178	H	1.651761	0.689568	-0.566964
H179	H	1.148993	0.939520	-0.247658
H180	H	1.648993	1.439520	0.252342
C181	C	0.964713	0.416821	-1.078476
C182	C	1.464713	0.916821	-0.578476
H183	H	0.936652	0.442598	-1.047295
H184	H	1.436652	0.942598	-0.547295
H185	H	0.992848	0.446311	-1.106047
H186	H	1.492848	0.946311	-0.606047
H187	H	0.932671	0.390910	-1.106053
H188	H	1.432671	0.890910	-0.606053
H189	H	1.149032	0.247448	-0.940197
H190	H	1.649032	0.747448	-0.440197
H191	H	0.978155	0.404499	-0.940144
H192	H	1.478155	0.904499	-0.440144
C193	C	1.162504	1.077858	-0.235328
C194	C	1.662504	1.577858	0.264672
H195	H	1.155784	1.125020	-0.241534
H196	H	1.655784	1.625020	0.258466
H197	H	1.151756	1.066312	-0.189841
H198	H	1.651756	1.566312	0.310159
H199	H	1.211943	1.066230	-0.245274
H200	H	1.711943	1.566230	0.254726
H201	H	0.978045	0.712021	-0.404546
H202	H	1.478045	1.212021	0.095454
H203	H	0.978089	0.404563	-0.584375
H204	H	1.478089	0.904563	-0.084375
H205	H	0.977993	0.583775	-0.404522
H206	H	1.477993	1.083775	0.095478
H207	H	1.148983	0.247529	-0.584437
H208	H	1.648983	0.747529	-0.084437
H209	H	1.148998	0.247497	-0.712671
H210	H	1.648998	0.747497	-0.212671
