data_functionalizedCrystal
_audit_creation_method	'MofGen! by Chris Wilmer'
_symmetry_space_group_name_H-M	'P1'
_symmetry_Int_Tables_number	1
_symmetry_cell_setting	triclinic
loop_
_symmetry_equiv_pos_as_xyz
  x,y,z
_cell_length_a	27.440280
_cell_length_b	14.809374
_cell_length_c	14.809374
_cell_angle_alpha	57.530506
_cell_angle_beta	98.956039
_cell_angle_gamma	67.424940
loop_
_atom_site_label
_atom_site_type_symbol
_atom_site_fract_x
_atom_site_fract_y
_atom_site_fract_z
Zr1	Zr	0.509492	1.000464	-0.231283
O2	O	0.428955	1.191186	-0.398507
O3	O	0.527564	0.809755	-0.165291
O4	O	0.521089	1.000461	-0.377240
O5	O	0.448065	1.000477	-0.036122
O6	O	0.601293	1.000443	-0.377219
O7	O	0.435430	1.000480	-0.186557
O8	O	0.612876	0.659304	0.001920
O9	O	0.436482	1.341616	-0.415261
O10	O	0.603121	0.888178	-0.154925
O11	O	0.552695	0.888189	-0.042673
O12	O	0.545071	1.112721	-0.292216
O13	O	0.494645	1.112732	-0.179964
Zr14	Zr	0.657558	1.000431	0.008677
Zr15	Zr	0.637407	1.000435	-0.231249
Zr16	Zr	0.529643	1.000459	0.008643
Zr17	Zr	0.521496	1.240382	-0.258004
Zr18	Zr	0.645554	0.760513	0.035398
O19	O	0.639485	1.191140	-0.057315
O20	O	0.610834	1.191146	-0.398459
O21	O	0.457606	1.191180	-0.057363
O22	O	0.738095	0.809708	0.175901
O23	O	0.709444	0.809715	-0.165243
O24	O	0.556216	0.809748	0.175853
O25	O	0.718985	1.000418	-0.186484
O26	O	0.645961	1.000434	0.154634
O27	O	0.565757	1.000451	0.154613
O28	O	0.731620	1.000415	-0.036049
O29	O	0.538157	1.341594	-0.415235
O30	O	0.628893	0.659301	0.192629
O31	O	0.730568	0.659278	0.192655
O32	O	0.714551	0.659282	0.001946
O33	O	0.452499	1.341613	-0.224552
O34	O	0.554174	1.341590	-0.224526
O35	O	0.621979	0.888174	0.069610
O36	O	0.672405	0.888162	-0.042642
O37	O	0.614355	1.112706	-0.179933
O38	O	0.563929	1.112717	-0.067681
C39	C	0.568510	0.700346	-0.077878
C40	C	0.563414	0.598495	-0.066534
C41	C	0.586157	0.553081	-0.117161
C42	C	0.580890	0.447812	-0.105438
C43	C	0.423522	1.000483	-0.111345
C44	C	0.369219	1.000494	-0.111359
C45	C	0.062826	0.883217	-0.039605
C46	C	0.011808	0.883210	-0.039595
O47	O	0.011193	0.783528	0.021387
N48	N	-0.044010	1.000418	-0.111260
C49	C	-0.048809	1.117640	-0.182932
O50	O	-0.100971	1.217334	-0.243887
C51	C	0.002209	1.117646	-0.182935
C52	C	0.058026	1.000430	-0.111274
C53	C	0.118641	0.766011	0.032051
C54	C	0.169655	0.766018	0.032038
C55	C	0.164855	0.883232	-0.039631
C56	C	0.109040	1.000438	-0.111287
C57	C	-0.002590	1.234868	-0.254599
C58	C	0.048434	1.234863	-0.254596
C59	C	0.104251	1.117648	-0.182935
C60	C	0.155254	1.117660	-0.182968
N61	N	0.211072	1.000452	-0.111303
C62	C	0.215873	0.883238	-0.039634
C63	C	-0.155948	1.117619	-0.182917
C64	C	-0.206966	1.117615	-0.182921
C65	C	-0.146345	0.883184	-0.039583
C66	C	-0.095327	0.883189	-0.039586
C67	C	-0.100129	1.000411	-0.111252
C68	C	0.323004	0.883263	-0.039667
C69	C	0.374019	0.883281	-0.039690
C70	C	0.313395	1.117711	-0.183023
C71	C	0.262383	1.117694	-0.183006
C72	C	0.267191	1.000459	-0.111318
O73	O	0.155915	1.217291	-0.243915
O74	O	0.268038	0.783561	0.021323
C75	C	0.743528	1.000412	-0.111262
C76	C	0.797831	1.000400	-0.111247
C77	C	0.558320	1.000453	-0.411414
C78	C	0.549765	1.000455	-0.513269
C79	C	0.598540	1.300548	-0.144728
C80	C	0.603636	1.402400	-0.156072
C81	C	0.587943	1.000446	-0.558668
C82	C	0.579102	1.000448	-0.663940
C83	C	0.608730	1.000442	0.188808
C84	C	0.617285	1.000440	0.290663
C85	C	0.728512	0.700311	-0.077837
C86	C	0.777720	0.598448	-0.066479
C87	C	0.593715	0.700341	0.222233
C88	C	0.597173	0.598487	0.335432
C89	C	0.753718	0.700306	0.222274
C90	C	0.811479	0.598440	0.335487
C91	C	0.413332	1.300589	-0.444880
C92	C	0.355571	1.402454	-0.558093
C93	C	0.438538	1.300584	-0.144769
C94	C	0.389330	1.402447	-0.156128
C95	C	0.573335	1.300554	-0.444839
C96	C	0.569877	1.402407	-0.558038
C97	C	0.764662	0.550619	-0.119765
C98	C	0.810891	0.454921	-0.109117
C99	C	0.870179	0.407046	-0.045174
C100	C	0.883236	0.454884	0.008113
C101	C	0.837007	0.550587	-0.002543
C102	C	0.864932	0.550597	0.330059
C103	C	0.919210	0.454897	0.436424
C104	C	0.920034	0.407035	0.548217
C105	C	0.866575	0.454888	0.553642
C106	C	0.812299	0.550592	0.447278
C107	C	0.302118	1.450309	-0.552666
C108	C	0.247842	1.546039	-0.659035
C109	C	0.247018	1.593906	-0.770828
C110	C	0.300476	1.546047	-0.776253
C111	C	0.354752	1.450326	-0.669886
C112	C	0.402388	1.450285	-0.102852
C113	C	0.356157	1.546010	-0.113529
C114	C	0.296870	1.593888	-0.177476
C115	C	0.283813	1.546046	-0.230759
C116	C	0.330042	1.450330	-0.220088
C117	C	0.558753	0.633542	0.379350
C118	C	0.561991	0.537854	0.485702
C119	C	0.603651	0.407111	0.548138
C120	C	0.642073	0.372056	0.504211
C121	C	0.638833	0.467744	0.397857
C122	C	0.528212	1.533134	-0.620442
C123	C	0.524962	1.628850	-0.726796
C124	C	0.563374	1.593836	-0.770750
C125	C	0.605043	1.463095	-0.708336
C126	C	0.608295	1.367383	-0.601978
H127	H	0.609529	0.592126	-0.169179
H128	H	0.302777	1.411341	-0.461648
Cl129	Cl	0.559276	1.714178	-0.904462
Cl130	Cl	0.928289	0.286729	-0.031786
Cl131	Cl	0.239820	0.618653	0.122141
H132	H	0.642222	1.260940	-0.551180
H133	H	0.235535	1.585043	-0.282824
Cl134	Cl	0.513687	0.581951	0.540906
Cl135	Cl	0.180646	1.606179	-0.652187
H136	H	0.299799	1.585033	-0.867288
Cl137	Cl	0.607719	0.286832	0.681844
Cl138	Cl	0.745104	0.610718	0.454124
H139	H	0.122560	0.670556	0.090418
Cl140	Cl	0.694446	0.207687	0.582720
H141	H	0.670123	0.439183	0.362112
H142	H	0.496929	1.561669	-0.584673
Cl143	Cl	0.421946	1.390168	-0.676729
Cl144	Cl	0.506373	0.797897	0.300879
H145	H	0.540046	0.559439	-0.014508
H146	H	0.627175	1.000431	-0.519598
H147	H	0.319402	1.411382	-0.263469
Cl148	Cl	0.476916	1.390122	-0.022461
H149	H	-0.049880	0.787742	0.018777
H150	H	0.557520	0.408760	-0.053408
H151	H	0.309496	1.213144	-0.241378
H152	H	0.366801	1.584947	-0.070134
H153	H	0.491028	1.735297	-0.777602
H154	H	0.636316	1.434604	-0.744139
H155	H	0.864272	0.589553	0.239042
H156	H	0.627010	0.441444	-0.208093
Cl157	Cl	0.444189	0.735913	0.050403
H158	H	0.259232	1.671827	-0.186156
H159	H	0.326928	0.787799	0.018709
Cl160	Cl	0.986406	0.394754	0.429576
H161	H	-0.142444	0.787741	0.018770
H162	H	-0.159867	1.213081	-0.241283
Cl163	Cl	-0.277132	1.264978	-0.273030
H164	H	0.202819	1.671848	-0.857429
H165	H	0.847648	0.589516	0.040858
H166	H	0.044518	1.330322	-0.312941
Cl167	Cl	-0.072749	1.382235	-0.344682
H168	H	0.931514	0.415890	0.060175
Cl169	Cl	0.794463	0.394797	-0.176109
Cl170	Cl	0.518532	1.000452	-0.724241
Cl171	Cl	0.192210	1.265052	-0.273117
H172	H	0.510537	1.000456	-0.552332
H173	H	0.716390	0.589598	-0.171848
Cl174	Cl	0.677860	1.000417	-0.649024
H175	H	0.964233	0.329106	0.634817
H176	H	0.867255	0.415904	0.644678
