data_functionalizedCrystal
_audit_creation_method	'MofGen! by Chris Wilmer'
_symmetry_space_group_name_H-M	'P1'
_symmetry_Int_Tables_number	1
_symmetry_cell_setting	triclinic
loop_
_symmetry_equiv_pos_as_xyz
  x,y,z
_cell_length_a	10.540510
_cell_length_b	10.540539
_cell_length_c	9.130313
_cell_angle_alpha	90.000641
_cell_angle_beta	90.003446
_cell_angle_gamma	84.519401
loop_
_atom_site_label
_atom_site_type_symbol
_atom_site_fract_x
_atom_site_fract_y
_atom_site_fract_z
O1	O	1.685907	0.178717	0.121801
O2	O	1.316489	0.195612	0.121801
O3	O	1.509626	0.002457	0.121799
O4	O	1.492770	0.371872	0.121803
O5	O	1.509614	0.002458	-0.121800
O6	O	1.316477	0.195613	-0.121798
O7	O	1.685894	0.178718	-0.121798
Cu8	Cu	1.501184	0.187165	-0.144040
Cu9	Cu	1.501199	0.187165	0.144044
O10	O	1.492757	0.371873	-0.121796
C11	C	1.269179	0.194354	0.000002
C12	C	1.128229	0.190587	0.000002
C13	C	1.508356	-0.044845	0.000002
C14	C	1.504574	-0.185793	0.000010
C15	C	0.910774	0.324771	0.000563
C16	C	1.057370	0.328789	0.000005
C17	C	1.083462	0.119841	-0.139102
C18	C	0.936701	0.116802	-0.139210
C19	C	0.936910	0.113923	0.137808
C20	C	1.083251	0.120478	0.139638
C21	C	1.359655	-0.369204	0.000557
C22	C	1.363489	-0.222587	0.000009
C23	C	1.572463	-0.247457	-0.139097
C24	C	1.567648	-0.394001	-0.139214
C25	C	1.570532	-0.394521	0.137804
C26	C	1.571832	-0.247539	0.139643
C27	C	1.733204	0.179976	0.000005
C28	C	1.874154	0.183743	0.000014
C29	C	1.494028	0.419175	0.000004
C30	C	1.497810	0.560123	0.000006
N31	N	1.501183	0.187165	-0.346663
C32	C	1.586741	0.101657	-0.576654
C33	C	1.586731	0.101665	-0.423317
C34	C	1.415649	0.272672	-0.423354
C35	C	1.415666	0.272670	-0.576688
C36	C	1.672286	0.016142	-0.653300
C37	C	1.757822	-0.069363	-0.576619
C38	C	1.757812	-0.069356	-0.423283
C39	C	1.672265	0.016158	-0.346626
N40	N	1.501211	0.187155	0.346666
H41	H	1.086721	0.384135	0.099724
H42	H	1.674694	-0.223329	0.148043
H43	H	0.868826	0.378613	0.100323
H44	H	1.672437	-0.441758	0.138739
H45	H	1.672272	0.016166	-0.221769
O46	O	1.696137	-0.221025	-0.145211
C47	C	1.916693	-0.305661	-0.150380
C48	C	1.776691	-0.335777	-0.143420
H49	H	1.981860	-0.398419	-0.148966
H50	H	1.938780	-0.245012	-0.051904
H51	H	1.933077	-0.251245	-0.255540
H52	H	1.760207	-0.390235	-0.038323
H53	H	1.754672	-0.396369	-0.241969
H54	H	1.345999	0.342293	-0.360930
H55	H	0.896480	0.165150	-0.243191
O56	O	1.332452	0.355758	-0.650957
C57	C	1.162796	0.525410	-0.634826
C58	C	1.256947	0.431359	-0.550533
H59	H	1.101744	0.586577	-0.553670
H60	H	1.098813	0.470050	-0.706583
H61	H	1.218202	0.589294	-0.706646
H62	H	1.201645	0.367453	-0.478634
H63	H	1.320930	0.486799	-0.478869
O64	O	1.139795	-0.001616	-0.145220
C65	C	1.109339	-0.225254	-0.150389
C66	C	1.045377	-0.087772	-0.143424
H67	H	1.033030	-0.294948	-0.148970
H68	H	1.174973	-0.243955	-0.051917
H69	H	1.167376	-0.238632	-0.255553
H70	H	0.987274	-0.074297	-0.038323
H71	H	0.979817	-0.069136	-0.241969
O72	O	0.886512	0.166032	0.263703
C73	C	0.926534	0.272400	0.490327
C74	C	0.983781	0.213385	0.347838
H75	H	1.005144	0.310724	0.558376
H76	H	0.880850	0.196568	0.555617
H77	H	0.851193	0.353683	0.462417
H78	H	1.059170	0.132115	0.375616
H79	H	1.029382	0.289294	0.282587
H80	H	0.867262	0.378303	-0.098630
H81	H	1.524875	-0.426069	0.243238
O82	O	1.091049	0.395190	-0.119265
C83	C	1.019399	0.512304	-0.335297
C84	C	0.981086	0.437107	-0.200292
H85	H	0.930513	0.546239	-0.400828
H86	H	1.087015	0.448230	-0.406909
H87	H	1.069040	0.598197	-0.298034
H88	H	0.931394	0.351212	-0.237423
H89	H	0.913527	0.501269	-0.128711
O90	O	1.840860	-0.152601	-0.650919
C91	C	1.913189	-0.372637	-0.697883
C92	C	1.819097	-0.278509	-0.613626
H93	H	1.895609	-0.474455	-0.667787
H94	H	2.015040	-0.355237	-0.667698
H95	H	1.898519	-0.357894	-0.820639
H96	H	1.833651	-0.293197	-0.490851
H97	H	1.717280	-0.295933	-0.643933
H98	H	1.310069	-0.179978	0.099726
H99	H	1.304144	-0.399406	-0.098640
H100	H	1.114311	0.168973	-0.242623
H101	H	1.827467	-0.138969	-0.360851
H102	H	1.672299	0.016126	-0.778154
O103	O	1.117474	0.181667	0.262527
C104	C	1.237317	0.167113	0.487644
C105	C	1.198627	0.097656	0.348556
H106	H	1.302956	0.099229	0.557222
H107	H	1.148400	0.200681	0.553303
H108	H	1.289308	0.252894	0.455317
H109	H	1.146664	0.011828	0.380753
H110	H	1.287590	0.064182	0.282932
H111	H	1.525293	-0.204853	-0.242615
H112	H	1.132319	0.019580	0.148037
H113	H	1.309684	-0.180824	-0.099875
O114	O	0.910649	-0.009913	0.139128
C115	C	0.937377	-0.211873	0.264487
C116	C	0.967245	-0.071674	0.263169
H117	H	0.983097	-0.261841	0.364780
H118	H	0.977066	-0.261490	0.160992
H119	H	0.829762	-0.216052	0.268710
H120	H	1.074841	-0.067378	0.258998
H121	H	0.927467	-0.022118	0.366658
H122	H	0.913706	0.013435	-0.145530
H123	H	1.303928	-0.397799	0.100313
H124	H	1.517464	-0.422195	-0.243199
O125	O	1.512572	-0.198899	0.262462
C126	C	1.398500	-0.242940	0.482561
C127	C	1.465543	-0.298200	0.343510
H128	H	1.360482	-0.323202	0.548143
H129	H	1.316016	-0.170419	0.450357
H130	H	1.469458	-0.194287	0.552179
H131	H	1.394682	-0.346918	0.273829
H132	H	1.548046	-0.370657	0.375817
H133	H	1.669114	-0.441981	-0.145525
