data_functionalizedCrystal
_audit_creation_method	'MofGen! by Chris Wilmer'
_symmetry_space_group_name_H-M	'P1'
_symmetry_Int_Tables_number	1
_symmetry_cell_setting	triclinic
loop_
_symmetry_equiv_pos_as_xyz
  x,y,z
_cell_length_a	15.944551
_cell_length_b	15.944480
_cell_length_c	14.421503
_cell_angle_alpha	90.006710
_cell_angle_beta	90.003340
_cell_angle_gamma	96.515707
loop_
_atom_site_label
_atom_site_type_symbol
_atom_site_fract_x
_atom_site_fract_y
_atom_site_fract_z
O1	O	0.108038	-1.114566	-0.077094
O2	O	0.608038	-0.614566	0.422906
O3	O	0.121456	-0.870009	-0.077100
O4	O	0.621456	-0.370009	0.422900
O5	O	-0.007530	-0.998966	-0.077088
O6	O	0.492470	-0.498966	0.422912
O7	O	0.237023	-0.985609	-0.077105
O8	O	0.737023	-0.485609	0.422895
O9	O	-0.007511	-0.998944	0.077135
O10	O	0.492489	-0.498944	0.577135
O11	O	0.121475	-0.869987	0.077123
O12	O	0.621475	-0.369987	0.577123
O13	O	0.108057	-1.114545	0.077130
O14	O	0.608057	-0.614545	0.577130
Cu15	Cu	0.114768	-0.992264	0.091208
Cu16	Cu	0.614768	-0.492264	0.591208
Cu17	Cu	0.114745	-0.992289	-0.091179
Cu18	Cu	0.614745	-0.492289	0.408821
O19	O	0.237042	-0.985588	0.077118
O20	O	0.737042	-0.485588	0.577118
C21	C	0.120919	-0.838703	0.000011
C22	C	0.620919	-0.338703	0.500011
C23	C	0.119280	-0.745454	0.000009
C24	C	0.619280	-0.245454	0.500009
C25	C	0.195212	-0.509692	0.000001
C26	C	0.695212	-0.009692	0.500001
C27	C	0.154282	-0.459123	0.076048
C28	C	0.654282	0.040877	0.576048
C29	C	0.116244	-0.574732	0.000009
C30	C	0.616244	-0.074732	0.500009
C31	C	0.154245	-0.459149	-0.076004
C32	C	0.654245	0.040851	0.423996
C33	C	0.113317	-0.409821	0.000006
C34	C	0.613317	0.090179	0.500006
C35	C	0.075336	-0.525391	0.076119
C36	C	0.575336	-0.025391	0.576119
C37	C	0.075310	-0.525420	-0.076002
C38	C	0.575310	-0.025420	0.423998
C39	C	0.034323	-0.474883	0.000064
C40	C	0.534323	0.025117	0.500064
C41	C	0.117933	-0.669732	0.000012
C42	C	0.617933	-0.169732	0.500012
C43	C	0.111622	-0.314823	0.000010
C44	C	0.611622	0.185177	0.500010
C45	C	-0.038814	-0.998401	0.000023
C46	C	0.461186	-0.498401	0.500023
C47	C	-0.132060	-0.996738	0.000024
C48	C	0.367940	-0.496738	0.500024
C49	C	-0.346895	-0.912831	0.000009
C50	C	0.153105	-0.412831	0.500009
C51	C	-0.407913	-0.951784	0.076051
C52	C	0.092087	-0.451784	0.576051
C53	C	-0.302785	-0.993731	0.000017
C54	C	0.197215	-0.493731	0.500017
C55	C	-0.407915	-0.951824	-0.076001
C56	C	0.092085	-0.451824	0.423999
C57	C	-0.467697	-0.990820	0.000006
C58	C	0.032303	-0.490820	0.500006
C59	C	-0.362574	-1.032706	0.076122
C60	C	0.137426	-0.532706	0.576122
C61	C	-0.362570	-1.032735	-0.075999
C62	C	0.137430	-0.532735	0.424001
C63	C	-0.423570	-1.071747	0.000063
C64	C	0.076430	-0.571747	0.500063
C65	C	-0.207783	-0.995405	0.000024
C66	C	0.292217	-0.495405	0.500024
C67	C	-0.562697	-0.989152	0.000005
C68	C	-0.062697	-0.489152	0.500005
C69	C	0.268327	-0.986153	0.000004
C70	C	0.768327	-0.486153	0.500004
C71	C	0.361572	-0.987815	-0.000003
C72	C	0.861572	-0.487815	0.499997
C73	C	0.108605	-0.145849	0.000015
C74	C	0.608605	0.354151	0.500015
C75	C	0.110278	-0.239094	0.000006
C76	C	0.610278	0.260906	0.500006
N77	N	0.114783	-0.992252	0.219490
N78	N	0.614783	-0.492252	0.719490
N79	N	0.114723	-0.992308	-0.219460
N80	N	0.614723	-0.492308	0.280540
C81	C	0.174399	-0.932612	0.469138
C82	C	0.674399	-0.432612	0.969138
C83	C	0.190687	-1.008515	0.530941
C84	C	0.690687	-0.508515	1.030941
C85	C	0.114763	-0.992273	0.408651
C86	C	0.614763	-0.492273	0.908651
C87	C	0.098495	-0.916390	0.530941
C88	C	0.598495	-0.416390	1.030941
C89	C	0.114746	-0.992286	0.591372
C90	C	0.614746	-0.492286	1.091372
C91	C	0.131089	-1.068214	0.469094
C92	C	0.631089	-0.568214	0.969094
C93	C	0.038863	-0.976039	0.469088
C94	C	0.538863	-0.476039	0.969088
C95	C	0.055119	-1.051996	0.530864
C96	C	0.555119	-0.551996	1.030864
C97	C	0.114775	-0.992264	0.303390
C98	C	0.614775	-0.492264	0.803390
C99	C	0.114733	-0.992303	0.696631
C100	C	0.614733	-0.492303	1.196631
H101	H	0.263230	-0.525316	0.000068
H102	H	0.763230	-0.025316	0.500068
H103	H	0.084743	-0.852212	0.558111
H104	H	0.584743	-0.352212	1.058111
F105	F	-0.434174	-0.907050	0.160079
F106	F	0.065826	-0.407050	0.660079
H107	H	0.187640	-0.430177	0.140334
H108	H	0.687640	0.069823	0.640334
F109	F	-0.054647	-0.454661	0.000127
F110	F	0.445353	0.045339	0.500127
H111	H	0.187602	-0.430219	-0.140287
H112	H	0.687602	0.069781	0.359713
H113	H	-0.456746	-1.138956	0.000107
H114	H	0.043254	-0.638956	0.500107
F115	F	0.149162	-1.152120	0.433737
F116	F	0.649162	-0.652120	0.933737
F117	F	0.240369	-0.866734	0.433708
F118	F	0.740369	-0.366734	0.933708
H119	H	-0.342456	-1.066932	-0.140288
H120	H	0.157544	-0.566932	0.359712
H121	H	-0.342584	-1.066886	0.140480
H122	H	0.157416	-0.566886	0.640480
H123	H	0.042015	-0.554210	0.140475
H124	H	0.542015	-0.054210	0.640475
H125	H	0.004676	-1.102510	0.557796
H126	H	0.504676	-0.602510	1.057796
F127	F	-0.434174	-0.907093	-0.160023
F128	F	0.065826	-0.407093	0.339977
H129	H	0.041978	-0.554375	-0.140291
H130	H	0.541978	-0.054375	0.359709
H131	H	-0.313570	-0.845681	0.000083
H132	H	0.186430	-0.345681	0.500083
F133	F	0.274573	-1.026479	0.566453
F134	F	0.774573	-0.526479	1.066453
H135	H	-0.025295	-0.962272	0.441899
H136	H	0.474705	-0.462272	0.941899
