data_functionalizedCrystal
_audit_creation_method	'MofGen! by Chris Wilmer'
_symmetry_space_group_name_H-M	'P1'
_symmetry_Int_Tables_number	1
_symmetry_cell_setting	triclinic
loop_
_symmetry_equiv_pos_as_xyz
  x,y,z
_cell_length_a	10.686220
_cell_length_b	16.120484
_cell_length_c	10.686551
_cell_angle_alpha	88.707809
_cell_angle_beta	90.308082
_cell_angle_gamma	97.070967
loop_
_atom_site_label
_atom_site_type_symbol
_atom_site_fract_x
_atom_site_fract_y
_atom_site_fract_z
Zn1	Zn	1.957921	-0.203137	-0.579045
Zn2	Zn	1.931025	-0.353948	-0.381655
Zn3	Zn	1.730532	-0.224452	-0.387111
Zn4	Zn	1.737575	-0.352260	-0.607294
O5	O	1.839263	-0.283449	-0.488776
O6	O	2.130476	-0.214929	-0.538756
O7	O	1.890226	-0.346397	-0.207623
O8	O	1.769004	-0.105021	-0.403033
O9	O	2.110716	-0.325729	-0.393734
O10	O	1.936065	-0.089361	-0.544046
O11	O	1.742924	-0.251257	-0.211631
O12	O	1.555343	-0.249619	-0.430424
O13	O	1.781008	-0.322851	-0.778303
O14	O	1.560518	-0.343519	-0.592192
O15	O	1.942895	-0.213292	-0.757549
O16	O	1.897056	-0.470327	-0.421125
O17	O	1.754928	-0.469087	-0.586902
C18	C	1.512264	-0.298700	-0.514966
C19	C	1.372373	-0.305242	-0.526202
C20	C	1.823874	-0.499938	-0.506511
C21	C	1.817409	-0.592545	-0.514131
C22	C	1.805615	-0.762098	-0.528067
C23	C	1.873138	-0.803948	-0.449488
C24	C	1.866576	-0.898293	-0.457242
C25	C	1.812176	-0.667744	-0.520315
C26	C	2.167539	-0.268140	-0.462485
C27	C	2.307431	-0.261616	-0.451281
C28	C	1.865737	-0.265505	-0.814505
C29	C	1.877019	-0.257859	-0.953311
C30	C	1.854749	-0.066112	-0.470997
C31	C	1.861348	0.026504	-0.463420
C32	C	1.812969	-0.301259	-0.164304
C33	C	1.801948	-0.308660	-0.025460
H34	H	1.358852	-0.219261	-0.378542
C35	C	2.096275	-0.205131	-0.973323
C36	C	1.975439	-0.191247	-1.013272
H37	H	2.157034	-0.164009	-1.010355
H38	H	2.101343	-0.201697	-0.884792
H39	H	2.112403	-0.259099	-0.997751
H40	H	1.959307	-0.137280	-0.988837
H41	H	1.970367	-0.194673	-1.101823
C42	C	1.345994	-0.336286	-0.744142
C43	C	1.302962	-0.362428	-0.624405
H44	H	1.303146	-0.371592	-0.804765
H45	H	1.329969	-0.280307	-0.759663
H46	H	1.434052	-0.339243	-0.749204
H47	H	1.214905	-0.359465	-0.619339
H48	H	1.318977	-0.418420	-0.608879
H49	H	1.742882	-0.797121	-0.601158
H50	H	1.935874	-0.768923	-0.376390
C51	C	1.582690	-0.361405	-1.005463
C52	C	1.703526	-0.375284	-0.965507
H53	H	1.521935	-0.402541	-0.968457
H54	H	1.566547	-0.307450	-0.981025
H55	H	1.577636	-0.364827	-1.094008
H56	H	1.708583	-0.371856	-0.876962
H57	H	1.719674	-0.429252	-0.989937
