data_functionalizedCrystal
_audit_creation_method	'MofGen! by Chris Wilmer'
_symmetry_space_group_name_H-M	'P1'
_symmetry_Int_Tables_number	1
_symmetry_cell_setting	triclinic
loop_
_symmetry_equiv_pos_as_xyz
  x,y,z
_cell_length_a	18.101398
_cell_length_b	29.839131
_cell_length_c	18.101389
_cell_angle_alpha	90.021287
_cell_angle_beta	90.024327
_cell_angle_gamma	90.036686
loop_
_atom_site_label
_atom_site_type_symbol
_atom_site_fract_x
_atom_site_fract_y
_atom_site_fract_z
Zn1	Zn	1.132068	-0.178957	0.418824
Zn2	Zn	1.632068	0.321043	0.918824
Zn3	Zn	1.131941	-0.254074	0.294976
Zn4	Zn	1.631941	0.245926	0.794976
Zn5	Zn	1.008227	-0.178952	0.294985
Zn6	Zn	1.508227	0.321048	0.794985
Zn7	Zn	1.008155	-0.254055	0.418765
Zn8	Zn	1.508155	0.245945	0.918765
O9	O	1.070098	-0.216510	0.356887
O10	O	1.570098	0.283490	0.856887
O11	O	1.235684	-0.188932	0.402416
O12	O	1.735684	0.311068	0.902416
O13	O	1.115507	-0.244115	0.191344
O14	O	1.615507	0.255885	0.691344
O15	O	1.024737	-0.116086	0.311441
O16	O	1.524737	0.383914	0.811441
O17	O	1.235591	-0.244119	0.311426
O18	O	1.735591	0.255881	0.811426
O19	O	1.115723	-0.116089	0.402425
O20	O	1.615723	0.383911	0.902425
O21	O	1.024615	-0.188924	0.191351
O22	O	1.524615	0.311076	0.691351
O23	O	0.904584	-0.188905	0.311384
O24	O	1.404584	0.311095	0.811384
O25	O	1.024615	-0.244087	0.522406
O26	O	1.524615	0.255913	1.022406
O27	O	0.904532	-0.244082	0.402324
O28	O	1.404532	0.255918	0.902324
O29	O	1.115654	-0.188913	0.522449
O30	O	1.615654	0.311087	1.022449
O31	O	1.115438	-0.316938	0.311369
O32	O	1.615438	0.183062	0.811369
O33	O	1.024493	-0.316924	0.402315
O34	O	1.524493	0.183076	0.902315
C35	C	0.877687	-0.216491	0.356849
C36	C	1.377687	0.283509	0.856849
C37	C	0.795373	-0.216494	0.356850
C38	C	1.295373	0.283506	0.856850
C39	C	0.496282	-0.216522	0.356912
C40	C	0.996282	0.283478	0.856912
C41	C	0.527616	-0.181633	0.299974
C42	C	1.027616	0.318367	0.799974
C43	C	0.613234	-0.181726	0.299731
C44	C	1.113234	0.318274	0.799731
C45	C	0.644665	-0.216508	0.356881
C46	C	1.144665	0.283492	0.856881
C47	C	0.613533	-0.263830	0.335553
C48	C	1.113533	0.236170	0.835553
C49	C	0.527888	-0.263636	0.335157
C50	C	1.027888	0.236364	0.835157
C51	C	0.527900	-0.204501	0.435313
C52	C	1.027900	0.295499	0.935313
C53	C	0.613552	-0.203447	0.434885
C54	C	1.113552	0.296553	0.934885
C55	C	0.728524	-0.216503	0.356865
C56	C	1.228524	0.283497	0.856865
C57	C	0.412423	-0.216531	0.356926
C58	C	0.912423	0.283469	0.856926
C59	C	1.069964	-0.333232	0.356851
C60	C	1.569964	0.166768	0.856851
C61	C	1.069975	-0.383167	0.356860
C62	C	1.569975	0.116833	0.856860
C63	C	1.117539	-0.692805	0.309601
C64	C	1.617539	-0.192805	0.809601
C65	C	1.117631	-0.880478	0.309629
C66	C	1.617631	-0.380478	0.809629
O67	O	1.157965	-0.904738	0.269420
O68	O	1.657965	-0.404738	0.769420
N69	N	1.070251	-0.903952	0.356943
N70	N	1.570251	-0.403952	0.856943
C71	C	1.022849	-0.880504	0.404257
C72	C	1.522849	-0.380504	0.904257
O73	O	0.982558	-0.904777	0.444506
O74	O	1.482558	-0.404777	0.944506
C75	C	1.022762	-0.692832	0.404231
C76	C	1.522762	-0.192832	0.904231
C77	C	1.070139	-0.669361	0.356909
C78	C	1.570139	-0.169361	0.856909
C79	C	1.164913	-0.669333	0.262283
C80	C	1.664913	-0.169333	0.762283
C81	C	1.164887	-0.622418	0.262273
C82	C	1.664887	-0.122418	0.762273
C83	C	1.117487	-0.598974	0.309582
C84	C	1.617487	-0.098974	0.809582
C85	C	1.070113	-0.622445	0.356899
C86	C	1.570113	-0.122445	0.856899
C87	C	0.975365	-0.669386	0.451548
C88	C	1.475365	-0.169386	0.951548
C89	C	0.975348	-0.622465	0.451539
C90	C	1.475348	-0.122465	0.951539
C91	C	1.022725	-0.598993	0.404217
C92	C	1.522725	-0.098993	0.904217
C93	C	1.022687	-0.552086	0.404198
C94	C	1.522687	-0.052086	0.904198
N95	N	1.070066	-0.528612	0.356884
N96	N	1.570066	-0.028612	0.856884
C97	C	1.117466	-0.552056	0.309576
C98	C	1.617466	-0.052056	0.809576
C99	C	1.022898	-0.979035	0.404266
C100	C	1.522898	-0.479035	0.904266
C101	C	1.022918	-1.025953	0.404272
C102	C	1.522918	-0.525953	0.904272
C103	C	1.117700	-1.025923	0.309645
C104	C	1.617700	-0.525923	0.809645
C105	C	1.117675	-0.979004	0.309636
C106	C	1.617675	-0.479004	0.809636
C107	C	1.070277	-0.955561	0.356952
C108	C	1.570277	-0.455561	0.856952
C109	C	1.117407	-0.453530	0.309559
C110	C	1.617407	0.046470	0.809559
C111	C	1.117374	-0.406610	0.309551
C112	C	1.617374	0.093390	0.809551
C113	C	1.022595	-0.406645	0.404181
C114	C	1.522595	0.093355	0.904181
C115	C	1.022625	-0.453560	0.404186
C116	C	1.522625	0.046440	0.904186
C117	C	1.070037	-0.477002	0.356872
C118	C	1.570037	0.022998	0.856872
O119	O	0.982379	-0.527797	0.444393
O120	O	1.482379	-0.027797	0.944393
O121	O	1.157763	-0.527776	0.269344
O122	O	1.657763	-0.027776	0.769344
C123	C	1.117565	-0.739720	0.309610
C124	C	1.617565	-0.239720	0.809610
C125	C	1.070192	-0.763192	0.356928
C126	C	1.570192	-0.263192	0.856928
C127	C	1.022792	-0.739748	0.404236
C128	C	1.522792	-0.239748	0.904236
C129	C	1.070212	-0.810109	0.356934
C130	C	1.570212	-0.310109	0.856934
C131	C	1.117612	-0.833553	0.309625
C132	C	1.617612	-0.333553	0.809625
C133	C	1.164991	-0.810079	0.262311
C134	C	1.664991	-0.310079	0.762311
C135	C	1.164965	-0.763164	0.262302
C136	C	1.664965	-0.263164	0.762302
C137	C	0.975413	-0.763222	0.451550
C138	C	1.475413	-0.263222	0.951550
C139	C	0.975442	-0.810137	0.451556
C140	C	1.475442	-0.310137	0.951556
C141	C	1.022842	-0.833581	0.404247
C142	C	1.522842	-0.333581	0.904247
C143	C	1.263260	-0.216528	0.356927
C144	C	1.763260	0.283472	0.856927
C145	C	1.345574	-0.216536	0.356943
C146	C	1.845574	0.283464	0.856943
C147	C	1.070141	-0.216498	0.550049
C148	C	1.570141	0.283502	1.050049
C149	C	1.070159	-0.216493	0.632364
C150	C	1.570159	0.283507	1.132364
C151	C	1.070252	-0.099331	0.356941
C152	C	1.570252	0.400669	0.856941
C153	C	1.070318	-0.049397	0.356963
C154	C	1.570318	0.450603	0.856963
C155	C	1.070098	-0.216488	0.164477
C156	C	1.570098	0.283512	0.664477
C157	C	1.070223	-0.216367	0.082163
C158	C	1.570223	0.283633	0.582163
C159	C	1.070202	-0.216409	0.931455
C160	C	1.570202	0.283591	1.431455
C161	C	1.012726	-0.251013	0.900102
C162	C	1.512726	0.248987	1.400102
C163	C	1.012881	-0.251173	0.814484
C164	C	1.512881	0.248827	1.314484
C165	C	1.070180	-0.216451	0.783072
C166	C	1.570180	0.283549	1.283072
C167	C	1.148202	-0.229306	0.814177
C168	C	1.648202	0.270694	1.314177
C169	C	1.147881	-0.229533	0.899822
C170	C	1.647881	0.270467	1.399822
C171	C	1.050335	-0.168874	0.899883
C172	C	1.550335	0.331126	1.399883
C173	C	1.048599	-0.169148	0.814232
C174	C	1.548599	0.330852	1.314232
C175	C	1.070172	-0.216474	0.699213
C176	C	1.570172	0.283526	1.199213
C177	C	1.070215	-0.216387	1.015314
C178	C	1.570215	0.283613	1.515314
H179	H	0.633906	-0.168623	0.450967
H180	H	1.133906	0.331377	0.950967
C181	C	0.923209	-0.596678	0.503586
C182	C	1.423209	-0.096678	1.003586
H183	H	0.929980	-0.565373	0.496811
H184	H	1.429980	-0.065373	0.996811
H185	H	0.873461	-0.604400	0.492703
H186	H	1.373461	-0.104400	0.992703
H187	H	0.934031	-0.604348	0.553357
H188	H	1.434031	-0.104348	1.053357
H189	H	0.936782	-0.688488	0.490080
H190	H	1.436782	-0.188488	0.990080
H191	H	0.634950	-0.227008	0.479581
H192	H	1.134950	0.272992	0.979581
H193	H	0.507636	-0.229913	0.477737
H194	H	1.007636	0.270087	0.977737
C195	C	1.030633	-0.298765	0.786801
C196	C	1.530633	0.201235	1.286801
H197	H	1.030783	-0.299027	0.734318
H198	H	1.530783	0.200973	1.234318
H199	H	1.077827	-0.307573	0.804566
H200	H	1.577827	0.192427	1.304566
H201	H	0.994231	-0.319058	0.804431
H202	H	1.494231	0.180942	1.304431
C203	C	0.499879	-0.299904	0.388801
C204	C	0.999879	0.200096	0.888801
H205	H	0.540845	-0.314698	0.410727
H206	H	1.040845	0.185302	0.910727
H207	H	0.470774	-0.286316	0.426271
H208	H	0.970774	0.213684	0.926271
H209	H	0.470748	-0.321070	0.362511
H210	H	0.970748	0.178930	0.862511
C211	C	0.923325	-0.835951	0.503615
C212	C	1.423325	-0.335951	1.003615
H213	H	0.895100	-0.815265	0.531792
H214	H	1.395100	-0.315265	1.031792
H215	H	0.891080	-0.854283	0.475267
H216	H	1.391080	-0.354283	0.975267
H217	H	0.951654	-0.854224	0.535919
H218	H	1.451654	-0.354224	1.035919
H219	H	1.164725	-0.264282	0.919802
H220	H	1.664725	0.235718	1.419802
C221	C	0.498500	-0.192238	0.221950
C222	C	0.998500	0.307762	0.721950
H223	H	0.517692	-0.171001	0.187892
H224	H	1.017692	0.328999	0.687892
H225	H	0.513762	-0.221487	0.207957
H226	H	1.013762	0.278513	0.707957
H227	H	0.446075	-0.190763	0.221866
H228	H	0.946075	0.309237	0.721866
H229	H	1.165337	-0.263685	0.792732
H230	H	1.665337	0.236315	1.292732
H231	H	1.192175	-0.204894	0.793833
H232	H	1.692175	0.295106	1.293833
C233	C	0.500841	-0.277411	0.257734
C234	C	1.000841	0.222589	0.757734
H235	H	0.448365	-0.277417	0.256812
H236	H	0.948365	0.222583	0.756812
H237	H	0.518965	-0.256729	0.222201
H238	H	1.018965	0.243271	0.722201
H239	H	0.518503	-0.306591	0.246431
H240	H	1.018503	0.193409	0.746431
H241	H	1.092198	-0.143093	0.920161
H242	H	1.592198	0.356907	1.420161
C243	C	0.934727	-0.240300	0.786067
C244	C	1.434727	0.259700	1.286067
H245	H	0.902594	-0.235748	0.826867
H246	H	1.402594	0.264252	1.326867
H247	H	0.936323	-0.213894	0.756814
H248	H	1.436323	0.286106	1.256814
H249	H	0.917039	-0.264557	0.757002
H250	H	1.417039	0.235443	1.257002
H251	H	0.633889	-0.290522	0.375726
H252	H	1.133889	0.209478	0.875726
C253	C	1.030261	-0.298322	0.929171
C254	C	1.530261	0.201678	1.429171
H255	H	0.995274	-0.319022	0.909967
H256	H	1.495274	0.180978	1.409967
H257	H	1.078484	-0.306764	0.913890
H258	H	1.578484	0.193236	1.413890
H259	H	1.027829	-0.298368	0.981596
H260	H	1.527829	0.201632	1.481596
C261	C	1.169837	-1.051717	0.257605
C262	C	1.669837	-0.551717	0.757605
H263	H	1.163062	-1.083020	0.264392
H264	H	1.663062	-0.583020	0.764392
H265	H	1.159030	-1.044049	0.207833
H266	H	1.659030	-0.544049	0.707833
H267	H	1.219589	-1.044001	0.268498
H268	H	1.719589	-0.544001	0.768498
C269	C	0.640867	-0.192456	0.221252
C270	C	1.140867	0.307544	0.721252
H271	H	0.599750	-0.196781	0.189396
H272	H	1.099750	0.303219	0.689396
H273	H	0.670014	-0.168247	0.203579
H274	H	1.170014	0.331753	0.703579
H275	H	0.669877	-0.218968	0.222360
H276	H	1.169877	0.281032	0.722360
C277	C	0.974816	-0.153051	0.929044
C278	C	1.474816	0.346949	1.429044
H279	H	0.954694	-0.175291	0.960748
H280	H	1.454694	0.324709	1.460748
H281	H	0.980902	-0.125877	0.955721
H282	H	1.480902	0.374123	1.455721
H283	H	0.942255	-0.148235	0.888650
H284	H	1.442255	0.351765	1.388650
C285	C	0.970799	-1.051766	0.456321
C286	C	1.470799	-0.551766	0.956321
H287	H	0.942575	-1.031080	0.484499
H288	H	1.442575	-0.531080	0.984499
H289	H	0.938554	-1.070096	0.427968
H290	H	1.438554	-0.570096	0.927968
H291	H	0.999123	-1.070042	0.488625
H292	H	1.499123	-0.570042	0.988625
C293	C	0.498777	-0.158697	0.461509
C294	C	0.998777	0.341303	0.961509
H295	H	0.467060	-0.146475	0.424872
H296	H	0.967060	0.353525	0.924872
H297	H	0.472123	-0.162402	0.506289
H298	H	0.972123	0.337598	1.006289
H299	H	0.539187	-0.138950	0.469509
H300	H	1.039187	0.361050	0.969509
C301	C	0.970747	-0.953253	0.456309
C302	C	1.470747	-0.453253	0.956309
H303	H	0.942531	-0.973957	0.484478
H304	H	1.442531	-0.473957	0.984478
H305	H	0.999039	-0.934925	0.488609
H306	H	1.499039	-0.434925	0.988609
H307	H	0.938484	-0.934979	0.427938
H308	H	1.438484	-0.434979	0.927938
H309	H	0.634944	-0.274203	0.278857
H310	H	1.134944	0.225797	0.778857
C311	C	1.207701	-0.196973	0.927847
C312	C	1.707701	0.303027	1.427847
H313	H	1.232094	-0.183668	0.886888
H314	H	1.732094	0.316332	1.386888
H315	H	1.185352	-0.174245	0.957002
H316	H	1.685352	0.325755	1.457002
H317	H	1.242574	-0.212925	0.956931
H318	H	1.742574	0.287075	1.456931
H319	H	0.507056	-0.146434	0.313196
H320	H	1.007056	0.353566	0.813196
C321	C	1.169495	-0.380794	0.257498
C322	C	1.669495	0.119206	0.757498
H323	H	1.197732	-0.401479	0.229332
H324	H	1.697732	0.098521	0.729332
H325	H	1.141179	-0.362517	0.225196
H326	H	1.641179	0.137483	0.725196
H327	H	1.201739	-0.362466	0.285862
H328	H	1.701739	0.137534	0.785862
H329	H	1.156016	-0.472611	0.271034
H330	H	1.656016	0.027389	0.771034
H331	H	1.203467	-0.603310	0.223741
H332	H	1.703467	-0.103310	0.723741
C333	C	0.970511	-0.479380	0.456237
C334	C	1.470511	0.020620	0.956237
H335	H	0.942281	-0.458696	0.484413
H336	H	1.442281	0.041304	0.984413
H337	H	0.938270	-0.497714	0.427887
H338	H	1.438270	0.002286	0.927887
H339	H	0.998841	-0.497651	0.488542
H340	H	1.498841	0.002349	0.988542
C341	C	0.970463	-0.380850	0.456219
C342	C	1.470463	0.119150	0.956219
H343	H	0.977244	-0.349547	0.449438
H344	H	1.477244	0.150453	0.949438
H345	H	0.920712	-0.388567	0.445341
H346	H	1.420712	0.111433	0.945341
H347	H	0.981287	-0.388518	0.505992
H348	H	1.481287	0.111482	1.005992
H349	H	0.634285	-0.146635	0.313101
H350	H	1.134285	0.353365	0.813101
C351	C	0.971039	-0.156047	0.786760
C352	C	1.471039	0.343953	1.286760
H353	H	0.951885	-0.179304	0.756424
H354	H	1.451885	0.320696	1.256424
H355	H	0.939304	-0.151653	0.827909
H356	H	1.439304	0.348347	1.327909
H357	H	0.974084	-0.129104	0.758980
H358	H	1.474084	0.370896	1.258980
C359	C	0.934329	-0.240256	0.927904
C360	C	1.434329	0.259744	1.427904
H361	H	0.935944	-0.214568	0.958886
H362	H	1.435944	0.285432	1.458886
H363	H	0.902944	-0.234519	0.886917
H364	H	1.402944	0.265481	1.386917
H365	H	0.915735	-0.265046	0.955079
H366	H	1.415735	0.234954	1.455079
H367	H	1.203544	-0.744057	0.223768
H368	H	1.703544	-0.244057	0.723768
C369	C	1.217129	-0.835874	0.210273
C370	C	1.717129	-0.335874	0.710273
H371	H	1.210357	-0.867177	0.217064
H372	H	1.710357	-0.367177	0.717064
H373	H	1.206320	-0.828208	0.160500
H374	H	1.706320	-0.328208	0.660500
H375	H	1.266881	-0.828156	0.221165
H376	H	1.766881	-0.328156	0.721165
C377	C	1.217053	-0.695114	0.210235
C378	C	1.717053	-0.195114	0.710235
H379	H	1.245255	-0.674410	0.182054
H380	H	1.745255	-0.174410	0.682054
H381	H	1.249318	-0.713394	0.238587
H382	H	1.749318	-0.213394	0.738587
H383	H	1.188745	-0.713438	0.177935
H384	H	1.688745	-0.213438	0.677935
C385	C	1.101028	-0.132469	0.785356
C386	C	1.601028	0.367531	1.285356
H387	H	1.136930	-0.145583	0.753782
H388	H	1.636930	0.354417	1.253782
H389	H	1.073462	-0.110793	0.758599
H390	H	1.573462	0.389207	1.258599
H391	H	1.125057	-0.118409	0.825878
H392	H	1.625057	0.381591	1.325878
H393	H	1.156254	-0.959896	0.271103
H394	H	1.656254	-0.459896	0.771103
H395	H	0.936815	-0.744137	0.490076
H396	H	1.436815	-0.244137	0.990076
