data_functionalizedCrystal
_audit_creation_method	'MofGen! by Chris Wilmer'
_symmetry_space_group_name_H-M	'P1'
_symmetry_Int_Tables_number	1
_symmetry_cell_setting	triclinic
loop_
_symmetry_equiv_pos_as_xyz
  x,y,z
_cell_length_a	12.759401
_cell_length_b	12.645330
_cell_length_c	12.759393
_cell_angle_alpha	90.030048
_cell_angle_beta	90.018496
_cell_angle_gamma	90.017853
loop_
_atom_site_label
_atom_site_type_symbol
_atom_site_fract_x
_atom_site_fract_y
_atom_site_fract_z
Zn1	Zn	1.606234	-0.421972	0.593992
Zn2	Zn	1.606119	-0.599276	0.418317
Zn3	Zn	1.430536	-0.422028	0.418332
Zn4	Zn	1.430515	-0.599195	0.593959
O5	O	1.518351	-0.510618	0.506150
O6	O	1.753239	-0.445503	0.570697
O7	O	1.582788	-0.575821	0.271298
O8	O	1.453899	-0.273673	0.441654
O9	O	1.753155	-0.575767	0.441629
O10	O	1.582983	-0.273632	0.570711
O11	O	1.453788	-0.445598	0.271309
O12	O	1.283512	-0.445518	0.441621
O13	O	1.453864	-0.575628	0.740984
O14	O	1.283497	-0.575682	0.570653
O15	O	1.582964	-0.445424	0.741009
O16	O	1.582768	-0.747613	0.441596
O17	O	1.453753	-0.747553	0.570639
C18	C	1.245383	-0.510598	0.506136
C19	C	1.128607	-0.510615	0.506155
C20	C	1.073764	-0.578500	0.573231
C21	C	0.964040	-0.578514	0.573242
C22	C	0.964011	-0.442755	0.439092
C23	C	1.073733	-0.442737	0.439087
C24	C	1.128638	-0.646379	0.640298
C25	C	1.073796	-0.714270	0.707379
C26	C	0.964072	-0.714284	0.707390
C27	C	0.909190	-0.646406	0.640321
C28	C	1.518274	-0.786048	0.506135
C29	C	1.518337	-0.903878	0.506164
C30	C	1.437509	-1.071448	0.587595
C31	C	1.437095	-0.948888	0.587334
C32	C	1.488364	-0.948482	0.395443
C33	C	1.487871	-1.071080	0.395937
C34	C	1.629634	-1.070964	0.534556
C35	C	1.628952	-0.948357	0.536977
C36	C	1.792384	-0.510638	0.506165
C37	C	1.909161	-0.510647	0.506171
C38	C	1.518424	-0.510511	0.780183
C39	C	1.518456	-0.510465	0.896960
C40	C	1.518456	-0.234112	0.506188
C41	C	1.518501	-0.116282	0.506204
C42	C	1.518338	-0.510648	0.233183
C43	C	1.518510	-0.510395	0.116407
C44	C	1.585687	-0.442661	0.951837
C45	C	1.585712	-0.442623	1.061561
C46	C	1.451271	-0.578202	1.061522
C47	C	1.451242	-0.578234	0.951800
C48	C	1.652901	-0.374893	0.896997
C49	C	1.720139	-0.307084	0.951874
C50	C	1.720164	-0.307046	1.061598
C51	C	1.652951	-0.374816	1.116445
H52	H	1.118386	-0.387451	0.384476
H53	H	1.656976	-1.101800	0.613922
C54	C	1.666950	-0.942834	0.336476
C55	C	1.565488	-0.909123	0.311353
H56	H	1.714570	-0.918527	0.284572
H57	H	1.668615	-1.017880	0.339078
H58	H	1.686482	-0.914940	0.402811
H59	H	1.545954	-0.937024	0.245022
H60	H	1.563821	-0.834062	0.308740
H61	H	1.407972	-0.917873	0.370989
H62	H	1.455848	-0.918727	0.669433
H63	H	0.919422	-0.769556	0.762018
C64	C	1.255574	-1.072678	0.635600
C65	C	1.326978	-1.113163	0.562574
H66	H	1.187341	-1.098441	0.620154
H67	H	1.255657	-0.997650	0.632123
H68	H	1.275292	-1.094504	0.704049
H69	H	1.307264	-1.091330	0.494126
H70	H	1.326892	-1.188208	0.566042
C71	C	1.391637	-0.638361	1.229704
C72	C	1.377407	-0.652703	1.121809
H73	H	1.346041	-0.684364	1.266919
H74	H	1.376287	-0.567137	1.247697
H75	H	1.462231	-0.653874	1.247670
H76	H	1.306813	-0.637183	1.103841
H77	H	1.392749	-0.723943	1.103808
H78	H	1.406632	-1.099774	0.371918
C79	C	1.309873	-0.593008	0.828408
C80	C	1.377342	-0.652777	0.891485
H81	H	1.264244	-0.639031	0.791182
H82	H	1.349886	-0.552663	0.780041
H83	H	1.269719	-0.546805	0.871230
H84	H	1.417501	-0.698975	0.848663
H85	H	1.337324	-0.693140	0.939858
C86	C	1.509167	-1.172641	0.238324
C87	C	1.564061	-1.111159	0.311307
H88	H	1.556209	-1.197392	0.186089
H89	H	1.456056	-1.130980	0.206477
H90	H	1.478021	-1.231260	0.272911
H91	H	1.595200	-1.052536	0.276721
H92	H	1.617190	-1.152823	0.343156
C93	C	1.107648	-0.766113	0.885191
C94	C	1.134119	-0.788872	0.781104
H95	H	1.144894	-0.812165	0.930706
H96	H	1.034462	-0.775840	0.894790
H97	H	1.125655	-0.694899	0.900670
H98	H	1.116105	-0.860084	0.765622
H99	H	1.207321	-0.779153	0.771500
H100	H	1.354706	-0.919656	0.568550
H101	H	1.651556	-0.919199	0.618463
H102	H	1.456089	-1.100852	0.669964
C103	C	0.974998	-0.308560	0.306491
C104	C	0.903688	-0.368153	0.365367
H105	H	0.937756	-0.262501	0.260979
H106	H	1.017770	-0.354692	0.266226
H107	H	1.017817	-0.268058	0.352343
H108	H	0.860873	-0.408661	0.319515
H109	H	0.860898	-0.322015	0.405636
H110	H	0.819845	-0.646413	0.640345
H111	H	1.217981	-0.646378	0.640294
H112	H	1.692473	-0.917711	0.482013
H113	H	1.689976	-1.099957	0.475275
H114	H	1.652890	-0.374919	0.807654
H115	H	1.774854	-0.251901	0.907210
H116	H	1.774904	-0.251825	1.106276
H117	H	1.652964	-0.374767	1.205790
