data_functionalizedCrystal
_audit_creation_method	'MofGen! by Chris Wilmer'
_symmetry_space_group_name_H-M	'P1'
_symmetry_Int_Tables_number	1
_symmetry_cell_setting	triclinic
loop_
_symmetry_equiv_pos_as_xyz
  x,y,z
_cell_length_a	19.188925
_cell_length_b	19.188925
_cell_length_c	7.540329
_cell_angle_alpha	90.003232
_cell_angle_beta	89.996095
_cell_angle_gamma	96.857451
loop_
_atom_site_label
_atom_site_type_symbol
_atom_site_fract_x
_atom_site_fract_y
_atom_site_fract_z
O1	O	0.926144	-0.087149	-0.147519
O2	O	0.722832	-0.098887	-0.147514
O3	O	0.830357	0.008638	-0.147507
O4	O	0.818619	-0.194674	-0.147527
O5	O	0.830351	0.008640	0.147458
O6	O	0.722826	-0.098886	0.147451
O7	O	0.926138	-0.087147	0.147446
Cu8	Cu	0.824481	-0.093016	0.174381
Cu9	Cu	0.824489	-0.093018	-0.174449
O10	O	0.818613	-0.194673	0.147438
C11	C	0.696818	-0.098507	-0.000031
C12	C	0.619313	-0.097368	-0.000029
C13	C	0.057542	-0.152832	-0.000038
C14	C	0.130365	-0.153908	-0.000048
C15	C	0.175301	-0.090816	-0.000039
C16	C	0.147408	-0.026642	-0.000065
C17	C	0.074586	-0.025568	-0.000073
N18	N	0.295976	-0.045139	0.100374
N19	N	0.365154	-0.046164	0.100385
C20	C	0.394710	-0.094050	-0.000018
N21	N	0.352474	-0.140882	-0.100411
N22	N	0.283290	-0.139859	-0.100415
C23	C	0.254265	-0.091974	-0.000031
C24	C	0.501557	-0.159387	-0.000015
C25	C	0.574382	-0.160461	-0.000035
C26	C	0.591424	-0.033193	-0.000035
C27	C	0.518600	-0.032121	-0.000032
C28	C	0.473671	-0.095220	-0.000013
C29	C	0.829974	0.034650	-0.000026
C30	C	0.828835	0.112155	-0.000029
C31	C	0.952152	-0.087528	-0.000041
C32	C	1.029657	-0.088667	-0.000055
C33	C	0.818995	-0.220684	-0.000047
C34	C	0.820134	-0.298189	-0.000055
C35	C	0.884299	0.673926	-0.000075
C36	C	0.885376	0.601103	-0.000059
C37	C	0.822284	0.556167	-0.000058
C38	C	0.758110	0.584060	-0.000028
C39	C	0.757035	0.656882	-0.000026
N40	N	0.776610	0.435485	-0.100456
N41	N	0.777635	0.366308	-0.100461
C42	C	0.825518	0.336758	-0.000060
N43	N	0.872347	0.379000	0.100325
N44	N	0.871324	0.448184	0.100323
C45	C	0.823442	0.477203	-0.000059
C46	C	0.890854	0.229910	-0.000060
C47	C	0.891928	0.157085	-0.000033
C48	C	0.764661	0.140044	-0.000019
C49	C	0.763589	0.212867	-0.000029
C50	C	0.826688	0.257797	-0.000057
N51	N	0.824481	-0.093015	0.419729
N52	N	0.824494	-0.093014	-0.419798
H53	H	0.464974	-0.210766	-0.000003
H54	H	0.495897	0.020129	-0.000035
F55	F	0.639243	0.033955	-0.000047
H56	H	0.597084	-0.212714	-0.000037
H57	H	0.711338	0.235571	-0.000025
F58	F	0.960225	0.127409	-0.000059
H59	H	0.706740	0.547469	-0.000022
F60	F	0.951455	0.721739	-0.000092
F61	F	0.953672	0.571418	-0.000064
H62	H	0.942233	0.266494	-0.000082
H63	H	0.704783	0.679584	-0.000005
H64	H	0.020964	-0.204212	-0.000032
F65	F	0.160049	-0.222204	-0.000028
F66	F	0.697512	0.092225	0.000002
H67	H	0.051883	0.026685	-0.000087
F68	F	0.195232	0.040505	-0.000062
