data_functionalizedCrystal
_audit_creation_method	'MofGen! by Chris Wilmer'
_symmetry_space_group_name_H-M	'P1'
_symmetry_Int_Tables_number	1
_symmetry_cell_setting	triclinic
loop_
_symmetry_equiv_pos_as_xyz
  x,y,z
_cell_length_a	29.839131
_cell_length_b	25.639242
_cell_length_c	25.639233
_cell_angle_alpha	89.977834
_cell_angle_beta	89.980415
_cell_angle_gamma	90.036947
loop_
_atom_site_label
_atom_site_type_symbol
_atom_site_fract_x
_atom_site_fract_y
_atom_site_fract_z
Zn1	Zn	-0.178962	0.799215	-0.295739
Zn2	Zn	0.071038	1.049215	-0.045739
Zn3	Zn	0.321038	1.299215	0.204261
Zn4	Zn	0.571038	1.549215	0.454261
Zn5	Zn	-0.254076	0.799134	-0.208302
Zn6	Zn	-0.004076	1.049134	0.041698
Zn7	Zn	0.245924	1.299134	0.291698
Zn8	Zn	0.495924	1.549134	0.541698
Zn9	Zn	-0.178955	0.711791	-0.208303
Zn10	Zn	0.071045	0.961791	0.041697
Zn11	Zn	0.321045	1.211791	0.291697
Zn12	Zn	0.571045	1.461791	0.541697
Zn13	Zn	-0.254059	0.711732	-0.295692
Zn14	Zn	-0.004059	0.961732	-0.045692
Zn15	Zn	0.245941	1.211732	0.204308
Zn16	Zn	0.495941	1.461732	0.454308
O17	O	-0.216513	0.755468	-0.252009
O18	O	0.033487	1.005468	-0.002009
O19	O	0.283487	1.255468	0.247991
O20	O	0.533487	1.505468	0.497991
O21	O	-0.188935	0.872370	-0.284160
O22	O	0.061065	1.122370	-0.034160
O23	O	0.311065	1.372370	0.215840
O24	O	0.561065	1.622370	0.465840
O25	O	-0.244115	0.787539	-0.135137
O26	O	0.005885	1.037539	0.114863
O27	O	0.255885	1.287539	0.364863
O28	O	0.505885	1.537539	0.614863
O29	O	-0.116089	0.723447	-0.219922
O30	O	0.133911	0.973447	0.030078
O31	O	0.383911	1.223447	0.280078
O32	O	0.633911	1.473447	0.530078
O33	O	-0.244122	0.872310	-0.219920
O34	O	0.005878	1.122310	0.030080
O35	O	0.255878	1.372310	0.280080
O36	O	0.505878	1.622310	0.530080
O37	O	-0.116094	0.787677	-0.284161
O38	O	0.133906	1.037677	-0.034161
O39	O	0.383906	1.287677	0.215839
O40	O	0.633906	1.537677	0.465839
O41	O	-0.188924	0.723369	-0.135138
O42	O	0.061076	0.973369	0.114862
O43	O	0.311076	1.223369	0.364862
O44	O	0.561076	1.473369	0.614862
O45	O	-0.188908	0.638618	-0.219876
O46	O	0.061092	0.888618	0.030124
O47	O	0.311092	1.138618	0.280124
O48	O	0.561092	1.388618	0.530124
O49	O	-0.244093	0.723346	-0.368864
O50	O	0.005907	0.973346	-0.118864
O51	O	0.255907	1.223346	0.131136
O52	O	0.505907	1.473346	0.381136
O53	O	-0.244087	0.638575	-0.284081
O54	O	0.005913	0.888575	-0.034081
O55	O	0.255913	1.138575	0.215919
O56	O	0.505913	1.388575	0.465919
O57	O	-0.188919	0.787619	-0.368898
O58	O	0.061081	1.037619	-0.118898
O59	O	0.311081	1.287619	0.131102
O60	O	0.561081	1.537619	0.381102
O61	O	-0.316941	0.787482	-0.219875
O62	O	-0.066941	1.037482	0.030125
O63	O	0.183059	1.287482	0.280125
O64	O	0.433059	1.537482	0.530125
O65	O	-0.316929	0.723268	-0.284080
O66	O	-0.066929	0.973268	-0.034080
O67	O	0.183071	1.223268	0.215920
O68	O	0.433071	1.473268	0.465920
C69	C	-0.216495	0.619626	-0.251974
C70	C	0.033505	0.869626	-0.001974
C71	C	0.283505	1.119626	0.248026
C72	C	0.533505	1.369626	0.498026
C73	C	-0.216499	0.561512	-0.251971
C74	C	0.033501	0.811512	-0.001971
C75	C	0.283501	1.061512	0.248029
C76	C	0.533501	1.311512	0.498029
C77	C	-0.245293	0.201135	-0.285409
C78	C	0.004707	0.451135	-0.035409
C79	C	0.254707	0.701135	0.214591
C80	C	0.504707	0.951135	0.464591
C81	C	-0.245295	0.146531	-0.285417
C82	C	0.004705	0.396531	-0.035417
C83	C	0.254705	0.646531	0.214583
C84	C	0.504705	0.896531	0.464583
O85	O	-0.269755	0.118282	-0.313817
O86	O	-0.019755	0.368282	-0.063817
O87	O	0.230245	0.618282	0.186183
O88	O	0.480245	0.868282	0.436183
N89	N	-0.216525	0.119229	-0.252043
N90	N	0.033475	0.369229	-0.002043
N91	N	0.283475	0.619229	0.247957
N92	N	0.533475	0.869229	0.497957
C93	C	-0.187748	0.146535	-0.218663
C94	C	0.062252	0.396535	0.031337
C95	C	0.312252	0.646535	0.281337
C96	C	0.562252	0.896535	0.531337
O97	O	-0.163276	0.118299	-0.190277
O98	O	0.086724	0.368299	0.059723
O99	O	0.336724	0.618299	0.309723
O100	O	0.586724	0.868299	0.559723
C101	C	-0.187743	0.201138	-0.218658
C102	C	0.062257	0.451138	0.031342
C103	C	0.312257	0.701138	0.281342
C104	C	0.562257	0.951138	0.531342
C105	C	-0.216518	0.228437	-0.252030
C106	C	0.033482	0.478437	-0.002030
C107	C	0.283482	0.728437	0.247970
C108	C	0.533482	0.978437	0.497970
C109	C	-0.274065	0.228434	-0.318778
C110	C	-0.024065	0.478434	-0.068778
C111	C	0.225935	0.728434	0.181222
C112	C	0.475935	0.978434	0.431222
C113	C	-0.274063	0.283034	-0.318769
C114	C	-0.024063	0.533034	-0.068769
C115	C	0.225937	0.783034	0.181231
C116	C	0.475937	1.033034	0.431231
C117	C	-0.245288	0.310336	-0.285390
C118	C	0.004712	0.560336	-0.035390
C119	C	0.254712	0.810336	0.214610
C120	C	0.504712	1.060336	0.464610
C121	C	-0.216516	0.283037	-0.252021
C122	C	0.033484	0.533037	-0.002021
C123	C	0.283484	0.783037	0.247979
C124	C	0.533484	1.033037	0.497979
C125	C	-0.158963	0.228443	-0.185281
C126	C	0.091037	0.478443	0.064719
C127	C	0.341037	0.728443	0.314719
C128	C	0.591037	0.978443	0.564719
C129	C	-0.158961	0.283050	-0.185279
C130	C	0.091039	0.533050	0.064721
C131	C	0.341039	0.783050	0.314721
C132	C	0.591039	1.033050	0.564721
C133	C	-0.187736	0.310349	-0.218651
C134	C	0.062264	0.560349	0.031349
C135	C	0.312264	0.810349	0.281349
C136	C	0.562264	1.060349	0.531349
C137	C	-0.187739	0.364940	-0.218633
C138	C	0.062261	0.614940	0.031367
C139	C	0.312261	0.864940	0.281367
C140	C	0.562261	1.114940	0.531367
N141	N	-0.216509	0.392241	-0.252006
N142	N	0.033491	0.642241	-0.002006
N143	N	0.283491	0.892241	0.247994
N144	N	0.533491	1.142241	0.497994
C145	C	-0.245283	0.364939	-0.285385
C146	C	0.004717	0.614939	-0.035385
C147	C	0.254717	0.864939	0.214615
C148	C	0.504717	1.114939	0.464615
C149	C	-0.187759	0.031864	-0.218677
C150	C	0.062241	0.281864	0.031323
C151	C	0.312241	0.531864	0.281323
C152	C	0.562241	0.781864	0.531323
C153	C	-0.187766	-0.022738	-0.218679
C154	C	0.062234	0.227262	0.031321
C155	C	0.312234	0.477262	0.281321
C156	C	0.562234	0.727262	0.531321
C157	C	-0.245313	-0.022739	-0.285434
C158	C	0.004687	0.227261	-0.035434
C159	C	0.254687	0.477261	0.214566
C160	C	0.504687	0.727261	0.464566
C161	C	-0.245308	0.031865	-0.285429
C162	C	0.004692	0.281865	-0.035429
C163	C	0.254692	0.531865	0.214571
C164	C	0.504692	0.781865	0.464571
C165	C	-0.216529	0.059166	-0.252051
C166	C	0.033471	0.309166	-0.002051
C167	C	0.283471	0.559166	0.247949
C168	C	0.533471	0.809166	0.497949
C169	C	-0.245277	0.479604	-0.285363
C170	C	0.004723	0.729604	-0.035363
C171	C	0.254723	0.979604	0.214637
C172	C	0.504723	1.229604	0.464637
C173	C	-0.245273	0.534210	-0.285350
C174	C	0.004727	0.784210	-0.035350
C175	C	0.254727	1.034210	0.214650
C176	C	0.504727	1.284210	0.464650
C177	C	-0.187724	0.534206	-0.218597
C178	C	0.062276	0.784206	0.031403
C179	C	0.312276	1.034206	0.281403
C180	C	0.562276	1.284206	0.531403
C181	C	-0.187729	0.479605	-0.218609
C182	C	0.062271	0.729605	0.031391
C183	C	0.312271	0.979605	0.281391
C184	C	0.562271	1.229605	0.531391
C185	C	-0.216507	0.452306	-0.251996
C186	C	0.033493	0.702306	-0.001996
C187	C	0.283493	0.952306	0.248004
C188	C	0.533493	1.202306	0.498004
O189	O	-0.163290	0.393223	-0.190249
O190	O	0.086710	0.643223	0.059751
O191	O	0.336710	0.893223	0.309751
O192	O	0.586710	1.143223	0.559751
O193	O	-0.269746	0.393182	-0.313771
O194	O	-0.019746	0.643182	-0.063771
O195	O	0.230254	0.893182	0.186229
O196	O	0.480254	1.143182	0.436229
C197	C	-0.333236	0.755374	-0.251983
C198	C	-0.083236	1.005374	-0.001983
C199	C	0.166764	1.255374	0.248017
C200	C	0.416764	1.505374	0.498017
C201	C	-0.383170	0.755381	-0.251990
C202	C	-0.133170	1.005381	-0.001990
C203	C	0.116830	1.255381	0.248010
C204	C	0.366830	1.505381	0.498010
C205	C	-0.692807	0.788965	-0.218627
C206	C	-0.442807	1.038965	0.031373
C207	C	-0.192807	1.288965	0.281373
C208	C	0.057193	1.538965	0.531373
C209	C	-0.880480	0.789030	-0.218647
C210	C	-0.630480	1.039030	0.031353
C211	C	-0.380480	1.289030	0.281353
C212	C	-0.130480	1.539030	0.531353
O213	O	-0.904740	0.817509	-0.190260
O214	O	-0.654740	1.067509	0.059740
O215	O	-0.404740	1.317509	0.309740
O216	O	-0.154740	1.567509	0.559740
N217	N	-0.903955	0.755577	-0.252049
N218	N	-0.653955	1.005577	-0.002049
N219	N	-0.403955	1.255577	0.247951
N220	N	-0.153955	1.505577	0.497951
C221	C	-0.880509	0.722108	-0.285450
C222	C	-0.630509	0.972108	-0.035450
C223	C	-0.380509	1.222108	0.214550
C224	C	-0.130509	1.472108	0.464550
O225	O	-0.904782	0.693659	-0.313865
O226	O	-0.654782	0.943659	-0.063865
O227	O	-0.404782	1.193659	0.186135
O228	O	-0.154782	1.443659	0.436135
C229	C	-0.692837	0.722046	-0.285432
C230	C	-0.442837	0.972046	-0.035432
C231	C	-0.192837	1.222046	0.214568
C232	C	0.057163	1.472046	0.464568
C233	C	-0.669364	0.755498	-0.252024
C234	C	-0.419364	1.005498	-0.002024
C235	C	-0.169364	1.255498	0.247976
C236	C	0.080636	1.505498	0.497976
C237	C	-0.669335	0.822415	-0.185222
C238	C	-0.419335	1.072415	0.064778
C239	C	-0.169335	1.322415	0.314778
C240	C	0.080665	1.572415	0.564778
C241	C	-0.622419	0.822396	-0.185215
C242	C	-0.372419	1.072396	0.064785
C243	C	-0.122419	1.322396	0.314785
C244	C	0.127581	1.572396	0.564785
C245	C	-0.598976	0.788928	-0.218613
C246	C	-0.348976	1.038928	0.031387
C247	C	-0.098976	1.288928	0.281387
C248	C	0.151024	1.538928	0.531387
C249	C	-0.622449	0.755479	-0.252018
C250	C	-0.372449	1.005479	-0.002018
C251	C	-0.122449	1.255479	0.247982
C252	C	0.127551	1.505479	0.497982
C253	C	-0.669391	0.688580	-0.318836
C254	C	-0.419391	0.938580	-0.068836
C255	C	-0.169391	1.188580	0.181164
C256	C	0.080609	1.438580	0.431164
C257	C	-0.622470	0.688568	-0.318829
C258	C	-0.372470	0.938568	-0.068829
C259	C	-0.122470	1.188568	0.181171
C260	C	0.127530	1.438568	0.431171
C261	C	-0.598998	0.722020	-0.285422
C262	C	-0.348998	0.972020	-0.035422
C263	C	-0.098998	1.222020	0.214578
C264	C	0.151002	1.472020	0.464578
C265	C	-0.552090	0.721993	-0.285409
C266	C	-0.302090	0.971993	-0.035409
C267	C	-0.052090	1.221993	0.214591
C268	C	0.197910	1.471993	0.464591
N269	N	-0.528615	0.755446	-0.252007
N270	N	-0.278615	1.005446	-0.002007
N271	N	-0.028615	1.255446	0.247993
N272	N	0.221385	1.505446	0.497993
C273	C	-0.552058	0.788914	-0.218609
C274	C	-0.302058	1.038914	0.031391
C275	C	-0.052058	1.288914	0.281391
C276	C	0.197942	1.538914	0.531391
C277	C	-0.979039	0.722141	-0.285457
C278	C	-0.729039	0.972141	-0.035457
C279	C	-0.479039	1.222141	0.214543
C280	C	-0.229039	1.472141	0.464543
C281	C	-1.025957	0.722156	-0.285461
C282	C	-0.775957	0.972156	-0.035461
C283	C	-0.525957	1.222156	0.214539
C284	C	-0.275957	1.472156	0.464539
C285	C	-1.025925	0.789079	-0.218658
C286	C	-0.775925	1.039079	0.031342
C287	C	-0.525925	1.289079	0.281342
C288	C	-0.275925	1.539079	0.531342
C289	C	-0.979007	0.789062	-0.218652
C290	C	-0.729007	1.039062	0.031348
C291	C	-0.479007	1.289062	0.281348
C292	C	-0.229007	1.539062	0.531348
C293	C	-0.955565	0.755595	-0.252055
C294	C	-0.705565	1.005595	-0.002055
C295	C	-0.455565	1.255595	0.247945
C296	C	-0.205565	1.505595	0.497945
C297	C	-0.453533	0.788872	-0.218597
C298	C	-0.203533	1.038872	0.031403
C299	C	0.046467	1.288872	0.281403
C300	C	0.296467	1.538872	0.531403
C301	C	-0.406613	0.788849	-0.218592
C302	C	-0.156613	1.038849	0.031408
C303	C	0.093387	1.288849	0.281408
C304	C	0.343387	1.538849	0.531408
C305	C	-0.406649	0.721928	-0.285396
C306	C	-0.156649	0.971928	-0.035396
C307	C	0.093351	1.221928	0.214604
C308	C	0.343351	1.471928	0.464604
C309	C	-0.453564	0.721949	-0.285400
C310	C	-0.203564	0.971949	-0.035400
C311	C	0.046436	1.221949	0.214600
C312	C	0.296436	1.471949	0.464600
C313	C	-0.477005	0.755425	-0.251999
C314	C	-0.227005	1.005425	-0.001999
C315	C	0.022995	1.255425	0.248001
C316	C	0.272995	1.505425	0.498001
O317	O	-0.527802	0.693533	-0.313784
O318	O	-0.277802	0.943533	-0.063784
O319	O	-0.027802	1.193533	0.186216
O320	O	0.222198	1.443533	0.436216
O321	O	-0.527777	0.817366	-0.190207
O322	O	-0.277777	1.067366	0.059793
O323	O	-0.027777	1.317366	0.309793
O324	O	0.222223	1.567366	0.559793
C325	C	-0.739723	0.788984	-0.218633
C326	C	-0.489723	1.038984	0.031367
C327	C	-0.239723	1.288984	0.281367
C328	C	0.010277	1.538984	0.531367
C329	C	-0.763195	0.755535	-0.252038
C330	C	-0.513195	1.005535	-0.002038
C331	C	-0.263195	1.255535	0.247962
C332	C	-0.013195	1.505535	0.497962
C333	C	-0.739752	0.722067	-0.285436
C334	C	-0.489752	0.972067	-0.035436
C335	C	-0.239752	1.222067	0.214564
C336	C	0.010248	1.472067	0.464564
C337	C	-0.810113	0.755549	-0.252042
C338	C	-0.560113	1.005549	-0.002042
C339	C	-0.310113	1.255549	0.247958
C340	C	-0.060113	1.505549	0.497958
C341	C	-0.833556	0.789017	-0.218644
C342	C	-0.583556	1.039017	0.031356
C343	C	-0.333556	1.289017	0.281356
C344	C	-0.083556	1.539017	0.531356
C345	C	-0.810081	0.822470	-0.185242
C346	C	-0.560081	1.072470	0.064758
C347	C	-0.310081	1.322470	0.314758
C348	C	-0.060081	1.572470	0.564758
C349	C	-0.763166	0.822451	-0.185235
C350	C	-0.513166	1.072451	0.064765
C351	C	-0.263166	1.322451	0.314765
C352	C	-0.013166	1.572451	0.564765
C353	C	-0.763227	0.688614	-0.318838
C354	C	-0.513227	0.938614	-0.068838
C355	C	-0.263227	1.188614	0.181162
C356	C	-0.013227	1.438614	0.431162
C357	C	-0.810143	0.688635	-0.318841
C358	C	-0.560143	0.938635	-0.068841
C359	C	-0.310143	1.188635	0.181159
C360	C	-0.060143	1.438635	0.431159
C361	C	-0.833585	0.722102	-0.285443
C362	C	-0.583585	0.972102	-0.035443
C363	C	-0.333585	1.222102	0.214557
C364	C	-0.083585	1.472102	0.464557
C365	C	-0.099335	0.755577	-0.252047
C366	C	0.150665	1.005577	-0.002047
C367	C	0.400665	1.255577	0.247953
C368	C	0.650665	1.505577	0.497953
C369	C	-0.049400	0.755624	-0.252063
C370	C	0.200600	1.005624	-0.002063
C371	C	0.450600	1.255624	0.247937
C372	C	0.700600	1.505624	0.497937
C373	C	-0.216505	0.755485	-0.388382
C374	C	0.033495	1.005485	-0.138382
C375	C	0.283495	1.255485	0.111618
C376	C	0.533495	1.505485	0.361618
C377	C	-0.216502	0.755492	-0.446496
C378	C	0.033498	1.005492	-0.196496
C379	C	0.283498	1.255492	0.053504
C380	C	0.533498	1.505492	0.303504
C381	C	-0.216531	0.891841	-0.252045
C382	C	0.033469	1.141841	-0.002045
C383	C	0.283469	1.391841	0.247955
C384	C	0.533469	1.641841	0.497955
C385	C	-0.216539	0.949955	-0.252060
C386	C	0.033461	1.199955	-0.002060
C387	C	0.283461	1.449955	0.247940
C388	C	0.533461	1.699955	0.497940
C389	C	-0.187687	0.789002	-0.806883
C390	C	0.062313	1.039002	-0.556883
C391	C	0.312313	1.289002	-0.306883
C392	C	0.562313	1.539002	-0.056883
C393	C	-0.187675	0.789008	-0.861488
C394	C	0.062325	1.039008	-0.611488
C395	C	0.312325	1.289008	-0.361488
C396	C	0.562325	1.539008	-0.111488
O397	O	-0.163229	0.817457	-0.889744
O398	O	0.086771	1.067457	-0.639744
O399	O	0.336771	1.317457	-0.389744
O400	O	0.586771	1.567457	-0.139744
N401	N	-0.216396	0.755550	-0.888779
N402	N	0.033604	1.005550	-0.638779
N403	N	0.283604	1.255550	-0.388779
N404	N	0.533604	1.505550	-0.138779
C405	C	-0.245129	0.722079	-0.861463
C406	C	0.004871	0.972079	-0.611463
C407	C	0.254871	1.222079	-0.361463
C408	C	0.504871	1.472079	-0.111463
O409	O	-0.269558	0.693621	-0.889691
O410	O	-0.019558	0.943621	-0.639691
O411	O	0.230442	1.193621	-0.389691
O412	O	0.480442	1.443621	-0.139691
C413	C	-0.245139	0.722071	-0.806860
C414	C	0.004861	0.972071	-0.556860
C415	C	0.254861	1.222071	-0.306860
C416	C	0.504861	1.472071	-0.056860
C417	C	-0.216419	0.755535	-0.779571
C418	C	0.033581	1.005535	-0.529571
C419	C	0.283581	1.255535	-0.279571
C420	C	0.533581	1.505535	-0.029571
C421	C	-0.158969	0.822463	-0.779594
C422	C	0.091031	1.072463	-0.529594
C423	C	0.341031	1.322463	-0.279594
C424	C	0.591031	1.572463	-0.029594
C425	C	-0.158982	0.822457	-0.724994
C426	C	0.091018	1.072457	-0.474994
C427	C	0.341018	1.322457	-0.224994
C428	C	0.591018	1.572457	0.025006
C429	C	-0.187714	0.788990	-0.697682
C430	C	0.062286	1.038990	-0.447682
C431	C	0.312286	1.288990	-0.197682
C432	C	0.562286	1.538990	0.052318
C433	C	-0.216432	0.755529	-0.724971
C434	C	0.033568	1.005529	-0.474971
C435	C	0.283568	1.255529	-0.224971
C436	C	0.533568	1.505529	0.025029
C437	C	-0.273869	0.688598	-0.779545
C438	C	-0.023869	0.938598	-0.529545
C439	C	0.226131	1.188598	-0.279545
C440	C	0.476131	1.438598	-0.029545
C441	C	-0.273876	0.688592	-0.724938
C442	C	-0.023876	0.938592	-0.474938
C443	C	0.226124	1.188592	-0.224938
C444	C	0.476124	1.438592	0.025062
C445	C	-0.245156	0.722056	-0.697650
C446	C	0.004844	0.972056	-0.447650
C447	C	0.254844	1.222056	-0.197650
C448	C	0.504844	1.472056	0.052350
C449	C	-0.245176	0.722056	-0.643058
C450	C	0.004824	0.972056	-0.393058
C451	C	0.254824	1.222056	-0.143058
C452	C	0.504824	1.472056	0.106942
N453	N	-0.216455	0.755514	-0.615767
N454	N	0.033545	1.005514	-0.365767
N455	N	0.283545	1.255514	-0.115767
N456	N	0.533545	1.505514	0.134233
C457	C	-0.187723	0.788981	-0.643079
C458	C	0.062277	1.038981	-0.393079
C459	C	0.312277	1.288981	-0.143079
C460	C	0.562277	1.538981	0.106921
C461	C	-0.245106	0.722100	-0.976134
C462	C	0.004894	0.972100	-0.726134
C463	C	0.254894	1.222100	-0.476134
C464	C	0.504894	1.472100	-0.226134
C465	C	-0.245099	0.722110	-1.030736
C466	C	0.004901	0.972110	-0.780736
C467	C	0.254901	1.222110	-0.530736
C468	C	0.504901	1.472110	-0.280736
C469	C	-0.187644	0.789039	-1.030757
C470	C	0.062356	1.039039	-0.780757
C471	C	0.312356	1.289039	-0.530757
C472	C	0.562356	1.539039	-0.280757
C473	C	-0.187653	0.789030	-0.976153
C474	C	0.062347	1.039030	-0.726153
C475	C	0.312347	1.289030	-0.476153
C476	C	0.562347	1.539030	-0.226153
C477	C	-0.216384	0.755558	-0.948843
C478	C	0.033616	1.005558	-0.698843
C479	C	0.283616	1.255558	-0.448843
C480	C	0.533616	1.505558	-0.198843
C481	C	-0.187753	0.788967	-0.528414
C482	C	0.062247	1.038967	-0.278414
C483	C	0.312247	1.288967	-0.028414
C484	C	0.562247	1.538967	0.221586
C485	C	-0.187770	0.788959	-0.473808
C486	C	0.062230	1.038959	-0.223808
C487	C	0.312230	1.288959	0.026192
C488	C	0.562230	1.538959	0.276192
C489	C	-0.245223	0.722029	-0.473793
C490	C	0.004777	0.972029	-0.223793
C491	C	0.254777	1.222029	0.026207
C492	C	0.504777	1.472029	0.276207
C493	C	-0.245208	0.722038	-0.528393
C494	C	0.004792	0.972038	-0.278393
C495	C	0.254792	1.222038	-0.028393
C496	C	0.504792	1.472038	0.221607
C497	C	-0.216470	0.755509	-0.555702
C498	C	0.033530	1.005509	-0.305702
C499	C	0.283530	1.255509	-0.055702
C500	C	0.533530	1.505509	0.194298
O501	O	-0.269609	0.693620	-0.614767
O502	O	-0.019609	0.943620	-0.364767
O503	O	0.230391	1.193620	-0.114767
O504	O	0.480391	1.443620	0.135233
O505	O	-0.163295	0.817430	-0.614845
O506	O	0.086705	1.067430	-0.364845
O507	O	0.336705	1.317430	-0.114845
O508	O	0.586705	1.567430	0.135155
C509	C	-0.216488	0.755482	-0.116167
C510	C	0.033512	1.005482	0.133833
C511	C	0.283512	1.255482	0.383833
C512	C	0.533512	1.505482	0.633833
C513	C	-0.216365	0.755576	-0.058053
C514	C	0.033635	1.005576	0.191947
C515	C	0.283635	1.255576	0.441947
C516	C	0.533635	1.505576	0.691947
H517	H	-0.135532	0.206226	-0.158104
H518	H	0.114468	0.456226	0.091896
H519	H	0.364468	0.706226	0.341896
H520	H	0.614468	0.956226	0.591896
F521	F	-0.157145	-0.051785	-0.183154
F522	F	0.092855	0.198215	0.066846
F523	F	0.342855	0.448215	0.316846
F524	F	0.592855	0.698215	0.566846
H525	H	-0.268490	0.694866	-1.052950
H526	H	-0.018490	0.944866	-0.802950
H527	H	0.231510	1.194866	-0.552950
H528	H	0.481510	1.444866	-0.302950
F529	F	-0.738284	0.652991	-0.354387
F530	F	-0.488284	0.902991	-0.104387
F531	F	-0.238284	1.152991	0.145613
F532	F	0.011716	1.402991	0.395613
H533	H	-0.135522	0.305276	-0.158101
H534	H	0.114478	0.555276	0.091899
H535	H	0.364478	0.805276	0.341899
H536	H	0.614478	1.055276	0.591899
H537	H	-0.164324	0.054089	-0.191493
H538	H	0.085676	0.304089	0.058507
H539	H	0.335676	0.554089	0.308507
H540	H	0.585676	0.804089	0.558507
F541	F	-0.128411	0.858072	-0.695958
F542	F	0.121589	1.108072	-0.445958
F543	F	0.371589	1.358072	-0.195958
F544	F	0.621589	1.608072	0.054042
H545	H	-0.472612	0.816133	-0.191400
H546	H	-0.222612	1.066133	0.058600
H547	H	0.027388	1.316133	0.308600
H548	H	0.277388	1.566133	0.558600
H549	H	-0.297256	0.661347	-0.801754
H550	H	-0.047256	0.911347	-0.551754
H551	H	0.202744	1.161347	-0.301754
H552	H	0.452744	1.411347	-0.051754
F553	F	-0.478546	0.686337	-0.320946
F554	F	-0.228546	0.936337	-0.070946
F555	F	0.021454	1.186337	0.179054
F556	F	0.271454	1.436337	0.429054
F557	F	-0.694362	0.652980	-0.354398
F558	F	-0.444362	0.902980	-0.104398
F559	F	-0.194362	1.152980	0.145602
F560	F	0.055638	1.402980	0.395602
F561	F	-0.157064	0.824657	-1.059834
F562	F	0.092936	1.074657	-0.809834
F563	F	0.342936	1.324657	-0.559834
F564	F	0.592936	1.574657	-0.309834
F565	F	-0.157111	0.450551	-0.183083
F566	F	0.092889	0.700551	0.066917
F567	F	0.342889	0.950551	0.316917
F568	F	0.592889	1.200551	0.566917
H569	H	-0.164298	0.556445	-0.191419
H570	H	0.085702	0.806445	0.058581
H571	H	0.335702	1.056445	0.308581
H572	H	0.585702	1.306445	0.558581
F573	F	-0.304693	0.199385	-0.354308
F574	F	-0.054693	0.449385	-0.104308
F575	F	0.195307	0.699385	0.145692
F576	F	0.445307	0.949385	0.395692
H577	H	-0.135570	0.849716	-0.801826
H578	H	0.114430	1.099716	-0.551826
H579	H	0.364430	1.349716	-0.301826
H580	H	0.614430	1.599716	-0.051826
F581	F	-0.275905	0.450558	-0.320898
F582	F	-0.025905	0.700558	-0.070898
F583	F	0.224095	0.950558	0.179102
F584	F	0.474095	1.200558	0.429102
F585	F	-0.381634	0.824454	-0.183033
F586	F	-0.131634	1.074454	0.066967
F587	F	0.118366	1.324454	0.316967
F588	F	0.368366	1.574454	0.566967
F589	F	-0.275934	0.060913	-0.320948
F590	F	-0.025934	0.310913	-0.070948
F591	F	0.224066	0.560913	0.179052
F592	F	0.474066	0.810913	0.429052
F593	F	-0.597444	0.858006	-0.149664
F594	F	-0.347444	1.108006	0.100336
F595	F	-0.097444	1.358006	0.350336
F596	F	0.152556	1.608006	0.600336
F597	F	-0.157085	0.824646	-0.947116
F598	F	0.092915	1.074646	-0.697116
F599	F	0.342915	1.324646	-0.447116
F600	F	0.592915	1.574646	-0.197116
F601	F	-0.694277	0.858040	-0.149673
F602	F	-0.444277	1.108040	0.100327
F603	F	-0.194277	1.358040	0.350327
F604	F	0.055723	1.608040	0.600327
H605	H	-0.387554	0.694677	-0.312587
H606	H	-0.137554	0.944677	-0.062587
H607	H	0.112446	1.194677	0.187413
H608	H	0.362446	1.444677	0.437413
H609	H	-0.603386	0.661316	-0.346032
H610	H	-0.353386	0.911316	-0.096032
H611	H	-0.103386	1.161316	0.153968
H612	H	0.146614	1.411316	0.403968
H613	H	-0.959956	0.694887	-0.312658
H614	H	-0.709956	0.944887	-0.062658
H615	H	-0.459956	1.194887	0.187342
H616	H	-0.209956	1.444887	0.437342
H617	H	-0.164382	0.816212	-0.451592
H618	H	0.085618	1.066212	-0.201592
H619	H	0.335618	1.316212	0.048408
H620	H	0.585618	1.566212	0.298408
H621	H	-0.164350	0.816220	-0.550642
H622	H	0.085650	1.066220	-0.300642
H623	H	0.335650	1.316220	-0.050642
H624	H	0.585650	1.566220	0.199358
F625	F	-0.275690	0.686475	-0.947072
F626	F	-0.025690	0.936475	-0.697072
F627	F	0.224310	1.186475	-0.447072
F628	F	0.474310	1.436475	-0.197072
H629	H	-0.959898	0.816301	-0.191448
H630	H	-0.709898	1.066301	0.058552
H631	H	-0.459898	1.316301	0.308552
H632	H	-0.209898	1.566301	0.558552
F633	F	-1.050883	0.824697	-0.183112
F634	F	-0.800883	1.074697	0.066888
F635	F	-0.550883	1.324697	0.316888
F636	F	-0.300883	1.574697	0.566888
H637	H	-0.297268	0.661328	-0.702705
H638	H	-0.047268	0.911328	-0.452705
H639	H	0.202732	1.161328	-0.202705
H640	H	0.452732	1.411328	0.047295
F641	F	-0.738190	0.858057	-0.149680
F642	F	-0.488190	1.108057	0.100320
F643	F	-0.238190	1.358057	0.350320
F644	F	0.011810	1.608057	0.600320
F645	F	-0.835039	0.858087	-0.149696
F646	F	-0.585039	1.108087	0.100304
F647	F	-0.335039	1.358087	0.350304
F648	F	-0.085039	1.608087	0.600304
F649	F	-0.304688	0.312080	-0.354291
F650	F	-0.054688	0.562080	-0.104291
F651	F	0.195312	0.812080	0.145709
F652	F	0.445312	1.062080	0.395709
H653	H	-0.268707	0.556434	-0.312526
H654	H	-0.018707	0.806434	-0.062526
H655	H	0.231293	1.056434	0.187474
H656	H	0.481293	1.306434	0.437474
F657	F	-0.275934	-0.051805	-0.320963
F658	F	-0.025934	0.198195	-0.070963
F659	F	0.224066	0.448195	0.179037
F660	F	0.474066	0.698195	0.429037
F661	F	-1.050933	0.686547	-0.321012
F662	F	-0.800933	0.936547	-0.071012
F663	F	-0.550933	1.186547	0.178988
F664	F	-0.300933	1.436547	0.428988
F665	F	-0.275778	0.686426	-0.557437
F666	F	-0.025778	0.936426	-0.307437
F667	F	0.224222	1.186426	-0.057437
F668	F	0.474222	1.436426	0.192563
F669	F	-0.835119	0.653027	-0.354400
F670	F	-0.585119	0.903027	-0.104400
F671	F	-0.335119	1.153027	0.145600
F672	F	-0.085119	1.403027	0.395600
F673	F	-0.275800	0.686413	-0.444716
F674	F	-0.025800	0.936413	-0.194716
F675	F	0.224200	1.186413	0.055284
F676	F	0.474200	1.436413	0.305284
