data_functionalizedCrystal
_audit_creation_method	'MofGen! by Chris Wilmer'
_symmetry_space_group_name_H-M	'P1'
_symmetry_Int_Tables_number	1
_symmetry_cell_setting	triclinic
loop_
_symmetry_equiv_pos_as_xyz
  x,y,z
_cell_length_a	10.654550
_cell_length_b	10.654550
_cell_length_c	9.130313
_cell_angle_alpha	89.996647
_cell_angle_beta	89.999724
_cell_angle_gamma	84.484917
loop_
_atom_site_label
_atom_site_type_symbol
_atom_site_fract_x
_atom_site_fract_y
_atom_site_fract_z
O1	O	1.667839	0.176399	-0.121686
O2	O	1.302361	0.193205	-0.121712
O3	O	1.493503	0.002063	-0.121693
O4	O	1.476697	0.367541	-0.121705
O5	O	1.493490	0.002057	0.121906
O6	O	1.302348	0.193199	0.121886
O7	O	1.667826	0.176393	0.121913
Cu8	Cu	1.485086	0.184796	0.144142
Cu9	Cu	1.485101	0.184802	-0.143942
O10	O	1.476684	0.367535	0.121894
C11	C	1.255556	0.191968	0.000084
C12	C	1.116113	0.188276	0.000073
C13	C	1.036627	0.300818	0.000074
C14	C	0.905607	0.297341	0.000100
C15	C	0.933570	0.068772	0.000118
C16	C	1.064588	0.072250	0.000103
C17	C	1.492263	-0.044738	0.000104
C18	C	1.488571	-0.184181	0.000099
C19	C	1.601112	-0.263667	0.000112
C20	C	1.597636	-0.394688	0.000101
C21	C	1.369066	-0.366725	0.000072
C22	C	1.372544	-0.235706	0.000072
C23	C	1.733075	-0.279813	0.000135
C24	C	1.729599	-0.410834	0.000125
C25	C	1.714631	0.177630	0.000114
C26	C	1.854074	0.181322	0.000114
C27	C	1.477924	0.414336	0.000093
C28	C	1.481616	0.553779	0.000089
N29	N	1.485084	0.184790	0.346765
N30	N	1.485113	0.184798	-0.346564
C31	C	1.569751	0.100188	0.423425
C32	C	1.569763	0.100189	0.576762
C33	C	1.400437	0.269404	0.576765
C34	C	1.400420	0.269396	0.423431
H35	H	1.129309	-0.019401	0.000107
H36	H	1.331508	0.338290	0.639201
C37	C	1.167767	0.437325	0.125262
C38	C	1.093272	0.428349	0.000052
H39	H	1.202739	0.516057	0.125242
H40	H	1.117244	0.431225	0.210202
H41	H	1.233855	0.370790	0.125241
H42	H	1.027178	0.494879	0.000077
H43	H	1.143798	0.434461	-0.084910
C44	C	0.891136	0.523618	0.000057
C45	C	0.818236	0.421051	0.000089
H46	H	0.837194	0.599993	0.000043
H47	H	0.942824	0.520225	0.084993
H48	H	0.942815	0.520204	-0.084904
H49	H	0.766563	0.424459	0.085057
H50	H	0.766526	0.424446	-0.084855
H51	H	0.891602	-0.025693	0.000151
C52	C	1.173193	-0.383227	-0.125191
C53	C	1.241535	-0.423368	0.000044
H54	H	1.094463	-0.418203	-0.125208
H55	H	1.159158	-0.293833	-0.125175
H56	H	1.219603	-0.410444	-0.210123
H57	H	1.195129	-0.396144	0.084977
H58	H	1.255566	-0.512782	0.000042
H59	H	1.280902	-0.170993	0.000041
C60	C	1.841521	-0.347160	-0.220945
C61	C	1.802747	-0.240163	-0.137475
H62	H	1.884524	-0.322677	-0.305901
H63	H	1.896477	-0.403424	-0.164304
H64	H	1.769851	-0.387930	-0.249259
H65	H	1.874418	-0.199397	-0.109152
H66	H	1.747789	-0.183877	-0.194127
C67	C	1.700293	-0.146625	0.211428
C68	C	1.789683	-0.231536	0.142101
H69	H	1.735204	-0.116776	0.299071
H70	H	1.677412	-0.077522	0.148017
H71	H	1.627645	-0.188000	0.234236
H72	H	1.862327	-0.190158	0.119284
H73	H	1.812581	-0.300650	0.205526
C74	C	1.737141	-0.067059	0.561347
C75	C	1.662837	0.007197	0.661027
H76	H	1.794607	-0.124465	0.613372
H77	H	1.684472	-0.112725	0.501558
H78	H	1.782753	-0.014342	0.501526
H79	H	1.617217	-0.045520	0.720841
H80	H	1.715512	0.052866	0.720842
H81	H	1.769485	-0.456474	-0.105052
H82	H	1.331468	0.338290	0.361009
H83	H	1.779315	-0.452596	0.102072
H84	H	1.638687	0.031295	0.361008
