data_functionalizedCrystal
_audit_creation_method	'MofGen! by Chris Wilmer'
_symmetry_space_group_name_H-M	'P1'
_symmetry_Int_Tables_number	1
_symmetry_cell_setting	triclinic
loop_
_symmetry_equiv_pos_as_xyz
  x,y,z
_cell_length_a	18.050590
_cell_length_b	19.076806
_cell_length_c	19.076919
_cell_angle_alpha	89.876866
_cell_angle_beta	92.297065
_cell_angle_gamma	92.311768
loop_
_atom_site_label
_atom_site_type_symbol
_atom_site_fract_x
_atom_site_fract_y
_atom_site_fract_z
Zn1	Zn	1.106432	-0.295929	-0.385754
Zn2	Zn	1.106748	-0.408724	-0.263520
Zn3	Zn	0.987426	-0.291208	-0.268293
Zn4	Zn	0.977430	-0.413384	-0.381021
O5	O	1.044509	-0.352311	-0.324647
O6	O	1.210398	-0.310917	-0.369522
O7	O	1.095235	-0.389209	-0.165821
O8	O	1.007264	-0.193498	-0.287853
O9	O	1.210630	-0.393787	-0.279717
O10	O	1.094697	-0.196967	-0.374150
O11	O	1.007570	-0.302871	-0.169328
O12	O	0.882176	-0.307389	-0.283264
O13	O	0.990227	-0.401729	-0.479981
O14	O	0.874832	-0.397151	-0.366085
O15	O	1.085004	-0.315435	-0.483458
O16	O	1.085543	-0.507678	-0.275128
O17	O	0.990533	-0.511101	-0.361456
C18	C	0.851558	-0.352264	-0.324679
C19	C	0.769011	-0.352262	-0.324709
C20	C	1.037007	-0.534887	-0.317276
C21	C	1.033864	-0.612995	-0.314146
C22	C	1.011272	-1.052474	-0.291724
C23	C	1.014226	-0.979083	-0.294664
C24	C	1.061191	-0.944135	-0.341100
C25	C	1.105199	-0.982583	-0.384604
C26	C	1.102240	-1.055972	-0.381666
C27	C	1.074914	-0.724832	-0.354711
C28	C	1.077871	-0.651437	-0.357644
C29	C	0.986897	-0.647943	-0.267706
C30	C	0.983945	-0.721333	-0.264769
C31	C	1.027950	-0.759774	-0.308275
N32	N	1.064214	-0.869118	-0.344106
N33	N	1.024923	-0.834790	-0.305272
C34	C	0.565587	-0.401204	-0.369630
C35	C	0.518034	-0.337823	-0.389499
C36	C	0.617880	-0.352300	-0.324673
C37	C	0.518350	-0.415717	-0.304801
C38	C	0.471895	-0.352342	-0.324639
C39	C	0.571414	-0.288886	-0.344577
C40	C	0.571734	-0.366822	-0.259848
C41	C	0.524206	-0.303396	-0.279695
C42	C	0.701979	-0.352276	-0.324694
C43	C	0.387798	-0.352358	-0.324618
C44	C	1.238214	-0.352358	-0.324615
C45	C	1.320760	-0.352379	-0.324601
C46	C	1.036465	-0.359629	-0.507929
C47	C	1.033037	-0.362747	-0.586032
C48	C	1.052060	-0.169022	-0.332062
C49	C	1.055278	-0.090916	-0.335222
C50	C	1.080770	-0.319286	-0.624537
C51	C	1.077540	-0.322213	-0.697924
C52	C	1.026581	-0.368605	-0.732805
C53	C	0.978843	-0.412069	-0.694295
C54	C	0.982070	-0.409137	-0.620910
C55	C	1.011636	-0.382187	-0.952089
C56	C	1.008414	-0.385116	-1.025480
C57	C	1.107110	-0.295259	-1.029104
C58	C	1.110335	-0.292335	-0.955717
C59	C	1.062595	-0.335795	-0.917214
N60	N	1.023280	-0.371600	-0.807818
N61	N	1.065893	-0.332796	-0.842202
C62	C	1.052567	-0.344971	-0.142080
C63	C	1.056146	-0.341655	-0.063985
H64	H	0.973031	-1.080922	-0.253908
H65	H	0.966915	-0.422896	-1.053878
O66	O	0.490533	-0.479618	-0.284680
C67	C	0.450526	-0.472244	-0.223325
H68	H	0.431774	-0.416082	-0.219443
H69	H	0.487571	-0.484709	-0.175481
C70	C	0.405147	-0.592197	-0.230944
C71	C	0.382110	-0.523219	-0.226180
H72	H	0.362946	-0.623643	-0.232703
H73	H	0.432103	-0.597167	-0.272279
H74	H	0.436019	-0.602575	-0.191073
H75	H	0.351247	-0.512840	-0.266055
H76	H	0.355147	-0.518250	-0.184852
O77	O	1.123388	-0.617408	-0.402795
C78	C	1.080780	-0.576782	-0.449856
H79	H	1.026052	-0.564848	-0.425472
H80	H	1.069152	-0.607120	-0.500798
C81	C	1.191094	-0.522202	-0.495334
C82	C	1.123878	-0.507539	-0.465384
H83	H	1.217679	-0.479491	-0.504916
H84	H	1.219801	-0.549575	-0.463630
H85	H	1.181394	-0.547485	-0.537783
H86	H	1.133579	-0.482265	-0.422932
H87	H	1.095174	-0.480161	-0.497081
H88	H	0.972773	-0.417586	-0.920748
O89	O	1.117701	-0.762246	-0.396861
C90	C	1.165750	-0.803078	-0.355176
H91	H	1.141488	-0.811979	-0.301469
H92	H	1.222271	-0.774461	-0.348616
C93	C	1.204460	-0.863380	-0.457013
C94	C	1.174657	-0.874318	-0.391052
H95	H	1.209958	-0.907323	-0.479145
H96	H	1.172091	-0.835870	-0.485098
H97	H	1.251558	-0.839531	-0.451538
H98	H	1.127557	-0.898158	-0.396529
H99	H	1.207019	-0.901834	-0.362969
O100	O	0.935813	-0.451389	-0.583421
C101	C	0.978096	-0.495099	-0.539143
H102	H	1.035881	-0.469888	-0.529154
H103	H	0.982865	-0.548308	-0.565314
C104	C	0.868810	-0.535987	-0.481189
C105	C	0.939781	-0.505020	-0.468915
H106	H	0.845175	-0.542110	-0.437870
H107	H	0.840323	-0.506541	-0.511021
H108	H	0.872794	-0.580325	-0.503000
H109	H	0.935795	-0.460679	-0.447113
H110	H	0.968266	-0.534459	-0.439077
O111	O	1.123801	-0.279914	-0.735357
C112	C	1.081520	-0.236219	-0.779651
H113	H	1.024179	-0.230990	-0.757717
H114	H	1.075625	-0.260156	-0.834394
C115	C	1.191183	-0.169640	-0.810657
C116	C	1.120758	-0.163213	-0.783713
H117	H	1.215387	-0.124608	-0.813165
H118	H	1.219669	-0.199080	-0.780817
H119	H	1.186260	-0.189591	-0.856273
H120	H	1.125682	-0.143272	-0.738094
H121	H	1.092273	-0.133768	-0.813545
H122	H	0.594570	-0.235259	-0.361432
H123	H	1.143436	-0.954124	-0.422416
O124	O	1.144945	-1.093247	-0.424022
C125	C	1.126288	-1.078099	-0.494765
H126	H	1.099830	-1.024883	-0.498333
H127	H	1.085375	-1.120354	-0.516752
C128	C	1.229412	-1.141722	-0.533134
C129	C	1.196921	-1.076357	-0.537518
H130	H	1.272980	-1.140650	-0.559508
H131	H	1.241980	-1.151930	-0.485474
H132	H	1.195310	-1.176927	-0.551456
H133	H	1.231019	-1.041155	-0.519189
H134	H	1.184360	-1.066144	-0.585176
H135	H	0.978392	-0.947784	-0.259245
O136	O	0.587393	-0.450387	-0.415137
C137	C	0.559953	-0.434836	-0.483405
H138	H	0.548400	-0.376611	-0.487175
H139	H	0.506401	-0.467118	-0.495237
C140	C	0.632116	-0.524406	-0.532270
C141	C	0.617932	-0.452891	-0.536902
H142	H	0.667878	-0.535546	-0.565271
H143	H	0.650601	-0.534885	-0.486277
H144	H	0.587485	-0.551299	-0.542129
H145	H	0.662561	-0.426000	-0.527035
H146	H	0.599456	-0.442408	-0.582896
H147	H	0.494518	-0.325554	-0.444306
O148	O	0.599896	-0.381564	-0.194533
C149	C	0.640096	-0.443314	-0.196848
H150	H	0.658620	-0.451828	-0.252516
H151	H	0.603283	-0.489971	-0.180426
C152	C	0.685963	-0.425782	-0.077988
C153	C	0.708720	-0.436236	-0.146360
H154	H	0.728291	-0.421418	-0.046843
H155	H	0.658877	-0.384181	-0.076427
H156	H	0.655284	-0.464665	-0.064313
H157	H	0.739389	-0.397349	-0.160036
H158	H	0.735812	-0.477830	-0.147922
O159	O	0.938257	-0.755170	-0.219644
C160	C	0.900063	-0.705501	-0.181868
H161	H	0.898311	-0.654325	-0.212742
H162	H	0.929958	-0.695573	-0.128828
C163	C	0.822472	-0.796644	-0.132624
C164	C	0.820316	-0.733790	-0.170548
H165	H	0.773282	-0.814094	-0.125638
H166	H	0.848206	-0.830108	-0.158073
H167	H	0.847389	-0.788362	-0.088429
H168	H	0.795408	-0.742074	-0.214745
H169	H	0.794576	-0.700328	-0.145106
O170	O	0.502568	-0.253936	-0.234407
C171	C	0.529808	-0.187223	-0.255586
H172	H	0.541065	-0.188301	-0.313941
H173	H	0.583492	-0.172844	-0.224474
C174	C	0.458014	-0.130993	-0.170249
C175	C	0.471834	-0.132316	-0.241923
H176	H	0.422255	-0.097122	-0.161818
H177	H	0.439664	-0.175939	-0.155978
H178	H	0.502756	-0.119013	-0.144330
H179	H	0.427095	-0.144305	-0.267839
H180	H	0.490175	-0.087371	-0.256198
H181	H	0.951069	-0.616637	-0.232286
H182	H	1.122268	-0.281510	-0.596143
H183	H	0.937349	-0.449840	-0.722701
H184	H	1.151834	-0.254559	-0.927322
O185	O	1.153401	-0.253067	-1.066615
C186	C	1.139642	-0.265611	-1.138866
H187	H	1.080942	-0.289014	-1.147964
H188	H	1.181237	-0.303873	-1.158173
C189	C	1.219814	-0.167271	-1.168242
C190	C	1.147715	-0.196010	-1.179418
H191	H	1.224797	-0.124339	-1.193257
H192	H	1.229086	-0.158821	-1.119565
H193	H	1.254468	-0.199163	-1.184331
H194	H	1.113062	-0.164122	-1.163320
H195	H	1.138436	-0.204453	-1.228093
