data_functionalizedCrystal
_audit_creation_method	'MofGen! by Chris Wilmer'
_symmetry_space_group_name_H-M	'P1'
_symmetry_Int_Tables_number	1
_symmetry_cell_setting	triclinic
loop_
_symmetry_equiv_pos_as_xyz
  x,y,z
_cell_length_a	6.394989
_cell_length_b	10.654550
_cell_length_c	9.130313
_cell_angle_alpha	90.003780
_cell_angle_beta	89.998359
_cell_angle_gamma	85.491307
loop_
_atom_site_label
_atom_site_type_symbol
_atom_site_fract_x
_atom_site_fract_y
_atom_site_fract_z
O1	O	-0.293432	-1.670942	-0.121910
O2	O	-0.321389	-1.305759	-0.121885
O3	O	-0.003422	-1.493534	-0.121899
O4	O	-0.611400	-1.483167	-0.121896
O5	O	-0.003430	-1.493532	0.121700
O6	O	-0.321398	-1.305757	0.121713
O7	O	-0.293441	-1.670940	0.121689
Cu8	Cu	-0.307420	-1.488348	0.143944
Cu9	Cu	-0.307410	-1.488351	-0.144140
O10	O	-0.611408	-1.483165	0.121703
C11	C	-0.319341	-1.258939	-0.000083
C12	C	-0.313199	-1.119430	-0.000074
C13	C	-0.295489	-1.717760	-0.000117
C14	C	-0.301631	-1.857269	-0.000135
N15	N	-0.307426	-1.488355	0.346566
C16	C	0.074425	-1.491483	-0.000105
C17	C	0.310751	-1.485219	-0.000106
N18	N	-0.307388	-1.488353	-0.346763
C19	C	-0.500414	-1.041927	-0.000094
C20	C	-0.494630	-0.910845	-0.000120
C21	C	-0.114402	-0.934782	-0.000110
C22	C	-0.120188	-1.065861	-0.000074
C23	C	-0.719936	-1.028107	-0.000106
C24	C	-0.714152	-0.897025	-0.000132
C25	C	-0.166678	-1.571524	0.423212
C26	C	-0.166653	-1.571521	0.576549
C27	C	-0.448142	-1.405175	0.576581
C28	C	-0.448155	-1.405174	0.423247
C29	C	-0.004169	-1.667567	0.423195
C30	C	-0.004143	-1.667563	0.576532
H31	H	0.032261	-1.128960	-0.000037
Cl32	Cl	-0.852500	-1.074804	0.157290
H33	H	-0.780498	-0.852055	0.105037
Cl34	Cl	-0.841840	-0.833938	-0.157534
H35	H	-0.789831	-1.064504	-0.105278
H36	H	-0.562745	-1.337440	0.360843
Cl37	Cl	-0.625049	-1.300609	0.672988
H38	H	-0.055053	-1.759289	0.375631
Cl39	Cl	0.128228	-0.867428	-0.000111
Cl40	Cl	0.243750	-1.631834	0.358927
Cl41	Cl	0.230130	-1.617962	0.649956
Cl42	Cl	-0.059391	-1.817151	0.640787
