data_functionalizedCrystal
_audit_creation_method	'MofGen! by Chris Wilmer'
_symmetry_space_group_name_H-M	'P1'
_symmetry_Int_Tables_number	1
_symmetry_cell_setting	triclinic
loop_
_symmetry_equiv_pos_as_xyz
  x,y,z
_cell_length_a	10.540535
_cell_length_b	10.540539
_cell_length_c	9.616153
_cell_angle_alpha	89.999906
_cell_angle_beta	89.995499
_cell_angle_gamma	84.524567
loop_
_atom_site_label
_atom_site_type_symbol
_atom_site_fract_x
_atom_site_fract_y
_atom_site_fract_z
O1	O	1.685895	0.178868	-0.115562
O2	O	1.316482	0.195730	-0.115581
O3	O	1.509617	0.002592	-0.115570
O4	O	1.492761	0.372006	-0.115574
O5	O	1.509590	0.002596	0.115722
O6	O	1.316455	0.195734	0.115710
O7	O	1.685869	0.178872	0.115729
Zn8	Zn	1.501158	0.187304	0.152442
Zn9	Zn	1.501193	0.187298	-0.152294
O10	O	1.492734	0.372010	0.115717
C11	C	1.269165	0.194469	0.000062
C12	C	1.128217	0.190689	0.000055
C13	C	1.508339	-0.044709	0.000073
C14	C	1.504557	-0.185657	0.000066
C15	C	1.091546	0.049675	0.000062
C16	C	0.944946	0.045698	0.000601
C17	C	0.918866	0.255062	0.131892
C18	C	1.065631	0.258062	0.131989
C19	C	1.065545	0.260109	-0.131042
C20	C	0.919199	0.253588	-0.132760
C21	C	1.359640	-0.369081	-0.000461
C22	C	1.363474	-0.222463	0.000060
C23	C	1.572438	-0.247313	0.132148
C24	C	1.567623	-0.393858	0.132259
C25	C	1.570523	-0.394380	-0.130762
C26	C	1.571822	-0.247399	-0.132509
C27	C	1.733185	0.180133	0.000083
C28	C	1.874134	0.183913	0.000081
C29	C	1.494011	0.419311	0.000071
C30	C	1.497793	0.560259	0.000070
N31	N	1.501143	0.187307	0.360417
N32	N	1.501218	0.187285	-0.360269
C33	C	1.397513	0.290276	0.580780
C34	C	1.397741	0.290661	0.419613
C35	C	1.633867	0.217438	0.418872
C36	C	1.633302	0.218167	0.580090
C37	C	1.473371	0.053868	0.580328
C38	C	1.470324	0.054733	0.419101
H39	H	0.915619	-0.009945	-0.093868
Br40	Br	1.740368	-0.473094	-0.132238
Br41	Br	1.426971	0.454330	0.648247
H42	H	1.298588	0.272424	0.619587
H43	H	1.087730	0.363861	-0.132318
H44	H	1.133526	-0.004477	-0.094449
H45	H	1.310061	-0.179861	-0.094622
Br46	Br	0.897489	-0.046557	0.159039
H47	H	0.870152	0.354461	-0.141131
Br48	Br	1.233349	0.260533	0.353736
H49	H	1.548983	-0.022788	0.618448
H50	H	1.105791	0.210016	0.230899
Br51	Br	1.493814	-0.176313	0.295971
H52	H	1.088661	0.361437	0.137620
H53	H	1.134993	-0.003567	0.094449
H54	H	1.304124	-0.399286	0.093722
Br55	Br	1.736731	-0.473818	0.142272
H56	H	1.303919	-0.397682	-0.095179
H57	H	1.674684	-0.223179	-0.140479
Br58	Br	1.494424	-0.446953	-0.297621
Br59	Br	1.483967	-0.440862	0.296810
Br60	Br	1.273779	-0.152850	0.158119
Br61	Br	1.745126	-0.210066	0.140350
Br62	Br	1.489748	-0.178476	-0.295395
H63	H	0.871509	0.356827	0.136421
H64	H	1.415641	0.389645	0.381033
Br65	Br	1.673896	0.380400	0.642748
H66	H	1.712945	0.146176	0.619083
Br67	Br	1.765637	0.095824	0.354971
H68	H	0.887952	0.206251	0.230366
H69	H	1.658764	0.313675	0.378482
H70	H	1.378634	0.025190	0.621060
H71	H	1.372686	0.031894	0.380896
H72	H	1.540851	-0.025589	0.378810
H73	H	0.890608	0.201810	-0.230276
Br74	Br	1.136329	0.186767	-0.297622
