data_functionalizedCrystal
_audit_creation_method	'MofGen! by Chris Wilmer'
_symmetry_space_group_name_H-M	'P1'
_symmetry_Int_Tables_number	1
_symmetry_cell_setting	triclinic
loop_
_symmetry_equiv_pos_as_xyz
  x,y,z
_cell_length_a	20.919292
_cell_length_b	17.052679
_cell_length_c	20.919287
_cell_angle_alpha	51.171223
_cell_angle_beta	89.999828
_cell_angle_gamma	55.840133
loop_
_atom_site_label
_atom_site_type_symbol
_atom_site_fract_x
_atom_site_fract_y
_atom_site_fract_z
Zr1	Zr	-0.302065	1.124004	0.404365
O2	O	-0.433510	1.338235	0.257586
O3	O	-0.237399	0.909775	0.476574
O4	O	-0.405705	1.124007	0.429988
O5	O	-0.160164	1.124000	0.309964
O6	O	-0.411496	1.124008	0.535025
O7	O	-0.265203	1.124003	0.304172
O8	O	-0.110427	0.740786	0.618359
O9	O	-0.461233	1.507222	0.226630
O10	O	-0.243586	0.997891	0.552880
O11	O	-0.160875	0.997888	0.478814
O12	O	-0.359034	1.250119	0.423965
O13	O	-0.276322	1.250116	0.349899
Zr14	Zr	-0.143776	1.124001	0.581125
Zr15	Zr	-0.311301	1.124006	0.571888
Zr16	Zr	-0.134539	1.124000	0.413603
Zr17	Zr	-0.346281	1.393520	0.354994
Zr18	Zr	-0.099560	0.854486	0.630497
O19	O	-0.208442	1.338230	0.508917
O20	O	-0.446642	1.338237	0.495782
O21	O	-0.195310	1.338228	0.270721
O22	O	-0.012331	0.909770	0.727904
O23	O	-0.250531	0.909777	0.714770
O24	O	0.000801	0.909768	0.489708
O25	O	-0.285677	1.124006	0.675526
O26	O	-0.040136	1.123998	0.555503
O27	O	-0.034345	1.123997	0.450465
O28	O	-0.180638	1.124003	0.681318
O29	O	-0.468575	1.507223	0.359788
O30	O	0.022734	0.740782	0.625702
O31	O	0.015392	0.740783	0.758860
O32	O	-0.117768	0.740787	0.751518
O33	O	-0.328073	1.507219	0.233973
O34	O	-0.335414	1.507220	0.367131
O35	O	-0.086807	0.997886	0.561525
O36	O	-0.169518	0.997889	0.635591
O37	O	-0.284966	1.250117	0.506676
O38	O	-0.202255	1.250115	0.432610
C39	C	-0.167613	0.786880	0.554501
C40	C	-0.148842	0.672464	0.575460
C41	C	-0.375767	0.722398	0.322067
C42	C	-0.393393	0.829893	0.302373
C43	C	-0.332257	0.790542	0.370643
C44	C	-0.253491	0.643683	0.458611
C45	C	-0.235859	0.536178	0.478304
C46	C	-0.192350	0.604322	0.526880
C47	C	-0.113583	0.457463	0.614847
C48	C	-0.095955	0.349970	0.634537
C49	C	-0.157091	0.389321	0.566267
C50	C	-0.209982	0.711828	0.507187
C51	C	-0.070074	0.525607	0.663423
C52	C	-0.052448	0.418112	0.683117
C53	C	-0.432470	1.124009	0.481190
C54	C	-0.503589	1.124011	0.477269
C55	C	-0.540191	1.124013	0.533292
C56	C	-0.607009	1.124003	0.529612
C57	C	-0.637228	1.123999	0.469903
C58	C	-0.600619	1.123992	0.413877
C59	C	-0.533797	1.123992	0.417564
C60	C	-0.838822	1.123988	0.455883
C61	C	-0.905650	1.123992	0.452199
C62	C	-0.912034	1.124000	0.567935
C63	C	-0.845215	1.124009	0.571611
C64	C	-0.808608	1.123994	0.515590
C65	C	-0.705529	1.123993	0.466137
C66	C	-0.740304	1.123990	0.519361
C67	C	-0.013371	1.123997	0.504300
C68	C	0.057748	1.123995	0.508222
C69	C	-0.211367	1.124001	0.283200
C70	C	-0.207446	1.124000	0.212082
C71	C	-0.278228	1.461125	0.430990
C72	C	-0.296999	1.575541	0.410030
C73	C	-0.263473	1.124006	0.175478
C74	C	-0.259784	1.123998	0.108659
C75	C	-0.200072	1.123995	0.078440
C76	C	-0.144039	1.123985	0.115050
C77	C	-0.147724	1.123983	0.181873
C78	C	-0.186046	1.123993	-0.123158
C79	C	-0.182367	1.123999	-0.189988
C80	C	-0.298112	1.124010	-0.196373
C81	C	-0.301796	1.124016	-0.129553
C82	C	-0.245759	1.123998	-0.092944
C83	C	-0.196302	1.123991	0.010138
C84	C	-0.249525	1.123992	-0.024638
C85	C	-0.234474	1.124004	0.702291
C86	C	-0.238395	1.124005	0.773409
C87	C	-0.179166	0.786882	0.764047
C88	C	-0.164316	0.672466	0.856124
C89	C	0.041936	0.786874	0.566056
C90	C	0.131826	0.672456	0.590937
C91	C	0.030383	0.786876	0.775601
C92	C	0.116352	0.672458	0.871600
C93	C	-0.476224	1.461129	0.209889
C94	C	-0.562193	1.575547	0.113890
C95	C	-0.266675	1.461123	0.221444
C96	C	-0.281525	1.575539	0.129367
C97	C	-0.487777	1.461131	0.419435
C98	C	-0.577667	1.575549	0.394554
C99	C	-0.196012	0.618736	0.856189
C100	C	-0.182077	0.511245	0.942696
C101	C	-0.136439	0.457479	1.029137
C102	C	-0.104744	0.511220	1.029068
C103	C	-0.118685	0.618716	0.942561
C104	C	0.212709	0.618723	0.645796
C105	C	0.297175	0.511230	0.669168
C106	C	0.300756	0.457465	0.637687
C107	C	0.219864	0.511208	0.582821
C108	C	0.135399	0.618706	0.559443
C109	C	0.113549	0.618728	0.955351
C110	C	0.194317	0.511235	1.045555
C111	C	0.277888	0.457468	1.052008
C112	C	0.280688	0.511209	0.968247
C113	C	0.199920	0.618707	0.878044
C114	C	-0.559392	1.629290	0.030137
C115	C	-0.640165	1.736816	-0.060073
C116	C	-0.723737	1.790590	-0.066527
C117	C	-0.726536	1.736842	0.017235
C118	C	-0.645765	1.629325	0.107442
C119	C	-0.249838	1.629280	0.129299
C120	C	-0.263796	1.736801	0.042786
C121	C	-0.309437	1.790571	-0.043656
C122	C	-0.341128	1.736825	-0.043586
C123	C	-0.327175	1.629314	0.042924
C124	C	-0.581218	1.629281	0.426050
C125	C	-0.665672	1.736775	0.402690
C126	C	-0.746574	1.790542	0.347828
C127	C	-0.743019	1.736800	0.316332
C128	C	-0.658566	1.629301	0.339698
H129	H	-0.425531	0.754418	0.266488
F130	F	-0.080483	1.123971	0.082893
H131	H	0.045510	0.662490	0.950115
F132	F	-0.244588	0.675943	0.764201
H133	H	-0.648056	1.585568	0.175634
H134	H	-0.125093	0.369948	1.099570
F135	F	0.202918	0.675872	0.788916
F136	F	0.369639	0.453970	0.975130
H137	H	-0.789500	1.878136	-0.139985
F138	F	-0.056171	0.453980	1.121074
F139	F	-0.470457	1.572077	0.036985
F140	F	-0.508041	1.124027	0.596838
H141	H	-0.457531	0.949460	0.230754
H142	H	0.343648	0.369936	1.125464
H143	H	-0.020290	0.493561	0.719012
F144	F	-0.138336	0.274917	0.587223
H145	H	0.369538	0.369933	0.656730
H146	H	-0.305405	1.124001	0.078858
F147	F	-0.012116	0.193672	0.728152
H148	H	-0.503995	1.123987	0.371945
F149	F	0.191318	0.454055	1.134688
H150	H	-0.352977	1.585561	0.042968
H151	H	-0.636810	1.124003	0.575231
H152	H	-0.133740	1.123998	-0.214590
H153	H	-0.655687	1.585565	0.314042
F154	F	-0.813056	1.124015	0.635159
F155	F	-0.829132	1.794048	0.257935
F156	F	-0.084939	0.675881	0.942507
F157	F	-0.637167	1.793996	-0.149206
H158	H	-0.794590	1.780638	0.011968
H159	H	-0.212669	1.585509	0.199676
H160	H	0.222794	0.467416	0.557194
H161	H	-0.320792	1.878113	-0.114091
F162	F	-0.293808	0.868113	0.413568
F163	F	0.049322	0.675875	0.501060
H164	H	-0.237983	1.780542	0.042748
H165	H	-0.378290	1.780621	-0.113979
H166	H	-0.515353	1.585520	0.470721
F167	F	-0.669436	1.793958	0.436215
H168	H	-0.815335	1.878076	0.328808
F169	F	-0.937808	1.123991	0.388642
H170	H	-0.346613	0.878075	0.354602
H171	H	-0.941845	1.124010	0.613546
F172	F	0.031380	0.261808	0.776736
F173	F	0.383256	0.454048	0.727565
F174	F	-0.799869	1.123978	0.396259
H175	H	-0.625223	1.123980	0.365265
F176	F	0.208919	0.675921	0.679314
H177	H	-0.715694	1.123985	0.567981
H178	H	-0.730140	1.123994	0.417519
F179	F	-0.126411	1.123980	-0.084204
F180	F	-0.327033	1.124020	0.207628
F181	F	-0.365349	1.124021	-0.097393
H182	H	-0.102099	1.123975	0.211677
F183	F	-0.357745	1.124023	-0.235336
H184	H	-0.147685	1.123993	-0.014474
F185	F	-0.215813	0.454066	0.942750
F186	F	-0.313070	1.123987	0.007529
