data_functionalizedCrystal
_audit_creation_method	'MofGen! by Chris Wilmer'
_symmetry_space_group_name_H-M	'P1'
_symmetry_Int_Tables_number	1
_symmetry_cell_setting	triclinic
loop_
_symmetry_equiv_pos_as_xyz
  x,y,z
_cell_length_a	12.759401
_cell_length_b	18.215404
_cell_length_c	12.759393
_cell_angle_alpha	90.034583
_cell_angle_beta	89.981504
_cell_angle_gamma	89.975900
loop_
_atom_site_label
_atom_site_type_symbol
_atom_site_fract_x
_atom_site_fract_y
_atom_site_fract_z
Zn1	Zn	1.606188	0.292935	-0.593961
Zn2	Zn	1.606055	0.416022	-0.418272
Zn3	Zn	1.430490	0.292974	-0.418300
Zn4	Zn	1.430451	0.415965	-0.593913
O5	O	1.518296	0.354474	-0.506112
O6	O	1.753192	0.309270	-0.570663
O7	O	1.582726	0.399739	-0.271254
O8	O	1.453870	0.189985	-0.441634
O9	O	1.753094	0.399701	-0.441586
O10	O	1.582954	0.189956	-0.570691
O11	O	1.453740	0.309336	-0.271275
O12	O	1.283464	0.309282	-0.441587
O13	O	1.453802	0.399605	-0.740941
O14	O	1.283435	0.399643	-0.570610
O15	O	1.582916	0.309215	-0.740976
O16	O	1.582688	0.518998	-0.441539
O17	O	1.453673	0.518957	-0.570582
C18	C	1.245329	0.354461	-0.506097
C19	C	1.128552	0.354473	-0.506116
C20	C	0.963971	0.401607	-0.573199
C21	C	1.073696	0.401598	-0.573188
C22	C	1.073679	0.307358	-0.439042
C23	C	0.963957	0.307370	-0.439049
C24	C	1.518190	0.545680	-0.506075
C25	C	1.518241	0.627479	-0.506095
C26	C	1.585582	0.815670	-0.439040
C27	C	1.585631	0.892529	-0.439072
C28	C	1.451171	0.892526	-0.573334
C29	C	1.451128	0.815668	-0.573307
C30	C	1.518332	0.777243	-0.506154
C31	C	1.518424	0.930959	-0.506212
C32	C	1.518477	1.014292	-0.506247
C33	C	1.518281	0.693904	-0.506121
C34	C	1.792329	0.354488	-0.506127
C35	C	1.909106	0.354494	-0.506133
C36	C	1.518370	0.354399	-0.780145
C37	C	1.518401	0.354368	-0.896922
C38	C	1.518438	1.162521	-0.506190
C39	C	1.518515	1.080722	-0.506272
C40	C	1.451262	0.307287	-0.951794
C41	C	1.451286	0.307264	-1.061518
C42	C	1.585598	0.401406	-1.061488
C43	C	1.585567	0.401432	-0.951766
C44	C	1.518284	0.354495	-0.233144
C45	C	1.518456	0.354319	-0.116368
H46	H	0.919284	0.269004	-0.384431
H47	H	1.118362	0.439963	-0.627799
Br48	Br	1.359969	0.944679	-0.664464
Br49	Br	1.676684	0.465338	-0.877289
Br50	Br	1.676787	0.763523	-0.347906
H51	H	1.396365	0.784378	-0.627964
Br52	Br	1.676909	0.944678	-0.347990
H53	H	1.396570	0.268964	-0.907143
H54	H	0.919315	0.439978	-0.627823
H55	H	1.396614	0.268926	-1.106190
Br56	Br	1.148126	0.243405	-0.348008
H57	H	1.640283	0.439723	-1.106155
