data_functionalizedCrystal
_audit_creation_method	'MofGen! by Chris Wilmer'
_symmetry_space_group_name_H-M	'P1'
_symmetry_Int_Tables_number	1
_symmetry_cell_setting	triclinic
loop_
_symmetry_equiv_pos_as_xyz
  x,y,z
_cell_length_a	16.625548
_cell_length_b	16.625545
_cell_length_c	12.759393
_cell_angle_alpha	89.966096
_cell_angle_beta	89.978332
_cell_angle_gamma	90.026626
loop_
_atom_site_label
_atom_site_type_symbol
_atom_site_fract_x
_atom_site_fract_y
_atom_site_fract_z
Zn1	Zn	1.232672	-0.320931	-0.594053
Zn2	Zn	1.732672	0.179069	-0.094053
Zn3	Zn	1.232565	-0.455788	-0.418366
Zn4	Zn	1.732565	0.044212	0.081634
Zn5	Zn	1.097831	-0.320975	-0.418383
Zn6	Zn	1.597831	0.179025	0.081617
Zn7	Zn	1.097797	-0.455728	-0.593998
Zn8	Zn	1.597797	0.044272	-0.093998
O9	O	1.165216	-0.388356	-0.506200
O10	O	1.665216	0.111644	-0.006200
O11	O	1.345490	-0.338827	-0.570764
O12	O	1.845490	0.161173	-0.070764
O13	O	1.214662	-0.437948	-0.271347
O14	O	1.714662	0.062052	0.228653
O15	O	1.115777	-0.208137	-0.441716
O16	O	1.615777	0.291863	0.058284
O17	O	1.345412	-0.437905	-0.441688
O18	O	1.845412	0.062095	0.058312
O19	O	1.214844	-0.208105	-0.570780
O20	O	1.714844	0.291895	-0.070780
O21	O	1.115674	-0.338902	-0.271359
O22	O	1.615674	0.161098	0.228641
O23	O	0.984994	-0.338844	-0.441662
O24	O	1.484994	0.161156	0.058338
O25	O	1.115719	-0.437803	-0.741026
O26	O	1.615719	0.062197	-0.241026
O27	O	0.984969	-0.437846	-0.570686
O28	O	1.484969	0.062154	-0.070686
O29	O	1.214811	-0.338769	-0.741067
O30	O	1.714811	0.161231	-0.241067
O31	O	1.214629	-0.568612	-0.441634
O32	O	1.714629	-0.068612	0.058366
O33	O	1.115615	-0.568568	-0.570670
O34	O	1.615615	-0.068568	-0.070670
C35	C	0.955725	-0.388344	-0.506171
C36	C	1.455725	0.111656	-0.006171
C37	C	0.866104	-0.388359	-0.506183
C38	C	1.366104	0.111641	-0.006183
C39	C	1.165129	-0.597846	-0.506167
C40	C	1.665129	-0.097846	-0.006167
C41	C	1.165165	-0.687468	-0.506188
C42	C	1.665165	-0.187468	-0.006188
C43	C	1.165196	-0.760250	-0.506209
C44	C	1.665196	-0.260250	-0.006209
C45	C	1.165243	-0.851558	-0.506232
C46	C	1.665243	-0.351558	-0.006232
C47	C	1.165285	-0.924335	-0.506245
C48	C	1.665285	-0.424335	-0.006245
C49	C	1.165331	-1.015649	-0.506267
C50	C	1.665331	-0.515649	-0.006267
C51	C	0.537929	-0.388364	-0.506228
C52	C	1.037929	0.111636	-0.006228
C53	C	0.629237	-0.388360	-0.506212
C54	C	1.129237	0.111640	-0.006212
C55	C	0.702014	-0.388362	-0.506205
C56	C	1.202014	0.111638	-0.006205
C57	C	0.793328	-0.388357	-0.506190
C58	C	1.293328	0.111643	-0.006190
C59	C	1.375525	-0.388368	-0.506230
C60	C	1.875525	0.111632	-0.006230
C61	C	1.465146	-0.388373	-0.506243
C62	C	1.965146	0.111627	-0.006243
C63	C	1.165273	-0.388274	-0.780233
C64	C	1.665273	0.111726	-0.280233
C65	C	1.165297	-0.388240	-0.897010
C66	C	1.665297	0.111760	-0.397010
C67	C	1.165326	-0.178047	-0.506256
C68	C	1.665326	0.321953	-0.006256
C69	C	1.165373	-0.088425	-0.506280
C70	C	1.665373	0.411575	-0.006280
C71	C	1.216901	-0.336667	-0.951895
C72	C	1.716901	0.163333	-0.451895
C73	C	1.216920	-0.336638	-1.061619
C74	C	1.716920	0.163362	-0.561619
C75	C	1.113729	-0.439760	-1.061564
C76	C	1.613729	0.060240	-0.561564
C77	C	1.113706	-0.439785	-0.951842
C78	C	1.613706	0.060215	-0.451842
C79	C	1.276481	-0.277133	-0.951928
C80	C	1.776481	0.222867	-0.451928
C81	C	1.276500	-0.277104	-1.061652
C82	C	1.776500	0.222896	-0.561652
C83	C	1.165206	-0.388378	-0.233233
C84	C	1.665206	0.111622	0.266767
C85	C	1.165339	-0.388186	-0.116456
C86	C	1.665339	0.111814	0.383544
H87	H	1.071682	-0.481777	-0.907159
H88	H	1.571682	0.018223	-0.407159
H89	H	1.259786	-0.214689	-0.922174
H90	H	1.759786	0.285311	-0.422174
C91	C	1.246576	-0.198069	-1.107116
C92	C	1.746576	0.301931	-0.607116
C93	C	1.178418	-0.212396	-1.168773
C94	C	1.678418	0.287604	-0.668773
C95	C	1.150818	-0.139612	-1.210658
C96	C	1.650818	0.360388	-0.710658
H97	H	1.287568	-0.174658	-1.149111
H98	H	1.787568	0.325342	-0.649111
H99	H	1.233082	-0.162392	-1.051701
H100	H	1.733082	0.337608	-0.551701
H101	H	1.191916	-0.248061	-1.224180
H102	H	1.691916	0.251939	-0.724180
H103	H	1.137410	-0.235796	-1.126802
H104	H	1.637410	0.264204	-0.626802
H105	H	1.137323	-0.103934	-1.155243
H106	H	1.637323	0.396066	-0.655243
H107	H	1.191815	-0.116206	-1.252648
H108	H	1.691815	0.383794	-0.752648
H109	H	1.104566	-0.149322	-1.252489
H110	H	1.604566	0.350678	-0.752489
H111	H	1.338945	-0.293827	-1.091434
H112	H	1.838945	0.206173	-0.591434
H113	H	1.335779	-0.299517	-0.917895
H114	H	1.835779	0.200483	-0.417895
C115	C	1.057811	-0.495696	-1.121287
C116	C	1.557811	0.004304	-0.621287
C117	C	1.068887	-0.484651	-1.229126
C118	C	1.568887	0.015349	-0.729126
C119	C	1.017398	-0.536175	-1.284172
C120	C	1.517398	-0.036175	-0.784172
H121	H	1.003606	-0.483949	-1.103427
H122	H	1.503606	0.016051	-0.603427
H123	H	1.069588	-0.549894	-1.103348
H124	H	1.569588	-0.049894	-0.603348
H125	H	1.057104	-0.430465	-1.247058
H126	H	1.557104	0.069535	-0.747058
H127	H	1.123082	-0.496404	-1.247017
H128	H	1.623082	0.003596	-0.747017
H129	H	1.029175	-0.590373	-1.266233
H130	H	1.529175	-0.090373	-0.766233
H131	H	0.963196	-0.524423	-1.266304
H132	H	1.463196	-0.024423	-0.766304
H133	H	1.024911	-0.528693	-1.357346
H134	H	1.524911	-0.028693	-0.857346
