data_functionalizedCrystal
_audit_creation_method	'MofGen! by Chris Wilmer'
_symmetry_space_group_name_H-M	'P1'
_symmetry_Int_Tables_number	1
_symmetry_cell_setting	triclinic
loop_
_symmetry_equiv_pos_as_xyz
  x,y,z
_cell_length_a	14.044191
_cell_length_b	10.723022
_cell_length_c	12.503572
_cell_angle_alpha	93.558947
_cell_angle_beta	86.155253
_cell_angle_gamma	88.829501
loop_
_atom_site_label
_atom_site_type_symbol
_atom_site_fract_x
_atom_site_fract_y
_atom_site_fract_z
O1	O	1.254230	0.307694	0.089264
O2	O	1.754230	0.807694	0.589264
O3	O	0.978189	0.296823	0.089278
O4	O	1.478189	0.796823	0.589278
O5	O	1.122578	0.121319	0.089267
O6	O	1.622578	0.621319	0.589267
O7	O	1.109842	0.483198	0.089275
O8	O	1.609842	0.983198	0.589275
O9	O	1.133442	0.108103	-0.089376
O10	O	1.633442	0.608103	0.410624
O11	O	0.989053	0.283607	-0.089365
O12	O	1.489053	0.783607	0.410635
O13	O	1.265094	0.294478	-0.089379
O14	O	1.765094	0.794478	0.410621
Cu15	Cu	1.128065	0.287836	-0.105683
Cu16	Cu	1.628065	0.787836	0.394317
Cu17	Cu	1.115218	0.303465	0.105582
Cu18	Cu	1.615218	0.803465	0.605582
O19	O	1.120705	0.469982	-0.089368
O20	O	1.620705	0.969982	0.410632
C21	C	1.127083	0.068119	-0.000053
C22	C	1.627083	0.568119	0.499947
C23	C	1.124311	-0.070713	-0.000050
C24	C	1.624311	0.429287	0.499950
C25	C	0.948276	0.285458	-0.000042
C26	C	1.448276	0.785458	0.499958
C27	C	0.842957	0.271271	-0.000037
C28	C	1.342957	0.771271	0.499963
C29	C	1.202236	-0.281092	-0.000048
C30	C	1.702236	0.218908	0.499952
C31	C	1.205103	-0.137603	-0.000052
C32	C	1.705103	0.362397	0.499948
C33	C	0.593157	0.345956	-0.000046
C34	C	1.093157	0.845956	0.499954
C35	C	0.650132	0.245352	-0.000046
C36	C	1.150132	0.745352	0.499954
C37	C	0.757430	0.259777	-0.000041
C38	C	1.257430	0.759777	0.499959
C39	C	0.485849	0.331533	-0.000051
C40	C	0.985849	0.831533	0.499949
C41	C	1.295008	0.305843	-0.000057
C42	C	1.795008	0.805843	0.499943
C43	C	1.400326	0.320031	-0.000055
C44	C	1.900326	0.820031	0.499945
C45	C	1.116200	0.523182	-0.000045
C46	C	1.616200	1.023182	0.499955
C47	C	1.118972	0.662014	-0.000042
C48	C	1.618972	1.162014	0.499958
N49	N	1.106182	0.314449	0.254175
N50	N	1.606182	0.814449	0.754175
N51	N	1.137108	0.276843	-0.254276
N52	N	1.637108	0.776843	0.245724
C53	C	1.092883	0.330606	0.473292
C54	C	1.592883	0.830606	0.973292
C55	C	1.150405	0.260690	0.526614
C56	C	1.650405	0.760690	1.026614
C57	C	1.143005	0.269680	0.648538
C58	C	1.643005	0.769680	1.148538
C59	C	1.100282	0.321618	0.351357
C60	C	1.600282	0.821618	0.851357
H61	H	1.271399	-0.338613	-0.000056
H62	H	1.771399	0.161387	0.499944
H63	H	1.276391	-0.088653	-0.000019
H64	H	1.776391	0.411347	0.499981
H65	H	1.053017	-0.119650	-0.000039
H66	H	1.553017	0.380350	0.499961
H67	H	0.618322	0.148394	0.000027
H68	H	1.118322	0.648394	0.500027
C69	C	0.611448	0.535029	-0.091859
C70	C	1.111448	1.035029	0.408141
C71	C	0.636085	0.476848	-0.000031
C72	C	1.136085	0.976848	0.499969
H73	H	0.637964	0.615832	-0.091847
H74	H	1.137964	1.115832	0.408153
H75	H	0.543935	0.542386	-0.091855
H76	H	1.043935	1.042386	0.408145
H77	H	0.635751	0.486334	-0.154152
H78	H	1.135751	0.986334	0.345848
H79	H	0.611775	0.525539	0.062263
H80	H	1.111775	1.025539	0.562263
H81	H	0.703611	0.469497	-0.000025
H82	H	1.203611	0.969497	0.499975
C83	C	0.948060	-0.340391	-0.000035
C84	C	1.448060	0.159609	0.499965
C85	C	1.025597	-0.260349	-0.000040
C86	C	1.525597	0.239651	0.499960
H87	H	0.890414	-0.292461	-0.000040
H88	H	1.390414	0.207539	0.499960
H89	H	0.946796	-0.386874	0.062260
H90	H	1.446796	0.113126	0.562260
H91	H	0.954378	-0.396109	-0.062334
H92	H	1.454378	0.103891	0.437666
H93	H	1.019282	-0.204637	0.062263
H94	H	1.519282	0.295363	0.562263
H95	H	1.026860	-0.213846	-0.062342
H96	H	1.526860	0.286154	0.437658
H97	H	1.205209	0.194080	0.480697
H98	H	1.705209	0.694080	0.980697
C99	C	1.025788	0.412114	0.645804
C100	C	1.525788	0.912114	1.145804
C101	C	1.018893	0.420510	0.535269
C102	C	1.518893	0.920510	1.035269
H103	H	0.980104	0.467608	0.684073
H104	H	1.480104	0.967608	1.184073
H105	H	1.088078	0.434094	0.664161
H106	H	1.588078	0.934094	1.164161
H107	H	1.013843	0.328945	0.664142
H108	H	1.513843	0.828945	1.164142
H109	H	1.030846	0.503677	0.516930
H110	H	1.530846	1.003677	1.016930
H111	H	0.956589	0.398537	0.516904
H112	H	1.456589	0.898537	1.016904
