data_functionalizedCrystal
_audit_creation_method	'MofGen! by Chris Wilmer'
_symmetry_space_group_name_H-M	'P1'
_symmetry_Int_Tables_number	1
_symmetry_cell_setting	triclinic
loop_
_symmetry_equiv_pos_as_xyz
  x,y,z
_cell_length_a	30.700809
_cell_length_b	30.711276
_cell_length_c	30.700862
_cell_angle_alpha	59.998386
_cell_angle_beta	89.999414
_cell_angle_gamma	60.000191
loop_
_atom_site_label
_atom_site_type_symbol
_atom_site_fract_x
_atom_site_fract_y
_atom_site_fract_z
O1	O	-0.371254	-0.311651	0.012944
O2	O	-0.307913	-0.222487	-0.012907
O3	O	-0.307911	-0.311650	0.076286
O4	O	-0.371257	-0.222488	-0.076249
O5	O	-0.235466	-0.384070	0.076286
O6	O	-0.235468	-0.294907	-0.012907
O7	O	-0.298809	-0.384071	0.012944
Zn8	Zn	-0.255636	-0.350987	0.000018
Zn9	Zn	-0.351086	-0.255571	0.000019
O10	O	-0.298812	-0.294908	-0.076249
C11	C	-0.234796	-0.137097	-0.018777
C12	C	-0.261674	-0.083360	-0.015076
C13	C	-0.182374	-0.163176	-0.019143
C14	C	-0.234798	-0.215942	-0.018783
C15	C	-0.261678	-0.246507	-0.015089
C16	C	-0.182376	-0.241901	-0.019150
C17	C	-0.155920	-0.215947	-0.018777
C18	C	-0.098463	-0.246515	-0.015075
C19	C	-0.261132	-0.163172	-0.019150
C20	C	-0.574961	-0.535511	0.039265
C21	C	-0.548506	-0.588283	0.039634
C22	C	-0.496086	-0.535509	0.039262
C23	C	-0.469751	-0.588281	0.039632
C24	C	-0.496085	-0.614360	0.039265
C25	C	-0.548507	-0.509552	0.039632
C26	C	-0.765169	-0.393516	0.024987
C27	C	-0.819034	-0.364488	0.020950
C28	C	-0.846055	-0.389406	0.018925
C29	C	-0.904462	-0.357927	0.014538
C30	C	-0.819206	-0.443357	0.020941
C31	C	-0.765344	-0.472385	0.024984
C32	C	-0.738325	-0.447463	0.027007
C33	C	-0.447920	-0.790230	0.024988
C34	C	-0.423094	-0.840041	0.020951
C35	C	-0.371150	-0.865027	0.018921
C36	C	-0.344230	-0.919028	0.014536
C37	C	-0.344030	-0.840201	0.020935
C38	C	-0.368852	-0.790399	0.024981
C39	C	-0.420803	-0.765414	0.027004
C40	C	-0.447922	-0.393510	0.024977
C41	C	-0.423099	-0.364475	0.020931
C42	C	-0.371152	-0.389391	0.018903
C43	C	-0.344235	-0.357911	0.014513
C44	C	-0.344034	-0.443338	0.020916
C45	C	-0.368860	-0.472368	0.024960
C46	C	-0.420804	-0.447452	0.026995
C47	C	-0.679920	-0.478941	0.031387
C48	C	-0.633366	-0.504032	0.034880
C49	C	-0.469171	-0.504029	0.034875
C50	C	-0.447717	-0.478936	0.031380
C51	C	-0.469170	-0.668361	0.034880
C52	C	-0.447716	-0.711408	0.031386
C53	C	-0.496432	-0.071057	-0.503890
C54	C	-0.548853	-0.018285	-0.530226
C55	C	-0.496432	-0.071056	-0.425015
C56	C	-0.548854	-0.018284	-0.451470
C57	C	-0.575308	0.007793	-0.503892
C58	C	-0.470097	-0.097014	-0.451469
C59	C	-0.368666	-0.213054	-0.552051
C60	C	-0.343664	-0.242084	-0.576877
C61	C	-0.370616	-0.217167	-0.628824
C62	C	-0.343513	-0.248647	-0.655741
C63	C	-0.422570	-0.163216	-0.655945
C64	C	-0.447565	-0.134187	-0.631122
C65	C	-0.420611	-0.159108	-0.579173
C66	C	-0.765518	0.183662	-0.631659
C67	C	-0.819384	0.233473	-0.656662
C68	C	-0.846408	0.258459	-0.629712
C69	C	-0.904813	0.312461	-0.656813
C70	C	-0.819559	0.233635	-0.577758
C71	C	-0.765694	0.183833	-0.552761
C72	C	-0.738677	0.158847	-0.579717
C73	C	-0.368668	-0.213052	-0.234803
C74	C	-0.343669	-0.242086	-0.180935
C75	C	-0.370621	-0.217169	-0.153914
C76	C	-0.343519	-0.248648	-0.095506
C77	C	-0.422573	-0.163222	-0.180762
C78	C	-0.447570	-0.134193	-0.234627
C79	C	-0.420610	-0.159111	-0.261646
C80	C	-0.447720	-0.127629	-0.552258
C81	C	-0.469327	-0.102536	-0.530805
C82	C	-0.469328	-0.102535	-0.366609
C83	C	-0.447721	-0.127627	-0.320054
C84	C	-0.633714	0.061794	-0.530997
C85	C	-0.680269	0.104841	-0.552605
O86	O	0.076277	-0.384081	0.012960
O87	O	-0.076257	-0.294916	-0.012894
O88	O	0.012931	-0.384083	0.076300
O89	O	-0.012910	-0.294914	-0.076234
O90	O	0.012933	-0.311666	0.076306
O91	O	-0.076254	-0.222499	-0.012888
O92	O	0.076280	-0.311664	0.012966
Zn93	Zn	0.000013	-0.255584	0.000040
Zn94	Zn	0.000010	-0.350996	0.000032
O95	O	-0.012908	-0.222497	-0.076228
O96	O	-0.298805	0.063292	0.012964
O97	O	-0.235462	-0.063346	-0.012888
O98	O	-0.235465	-0.063353	0.076305
O99	O	-0.298803	0.063300	-0.076229
O100	O	-0.307912	-0.063350	0.076299
O101	O	-0.307909	-0.063342	-0.012895
O102	O	-0.371252	0.063295	0.012958
Zn103	Zn	-0.351083	-0.000023	0.000031
Zn104	Zn	-0.255631	-0.000027	0.000039
O105	O	-0.371250	0.063303	-0.076236
O106	O	-1.076607	0.456783	-0.692421
O107	O	-0.924074	0.330140	-0.629074
O108	O	-1.013262	0.330138	-0.629073
O109	O	-0.987418	0.456785	-0.692422
O110	O	-1.013261	0.330136	-0.701518
O111	O	-0.924072	0.330138	-0.701518
O112	O	-1.076605	0.456781	-0.764865
Zn113	Zn	-1.000338	0.393459	-0.744694
Zn114	Zn	-1.000340	0.393461	-0.649245
O115	O	-0.987417	0.456783	-0.764866
O116	O	-0.307911	-0.311650	-0.764507
O117	O	-0.371254	-0.222491	-0.701165
O118	O	-0.371252	-0.311652	-0.701162
O119	O	-0.307912	-0.222489	-0.764510
O120	O	-0.298806	-0.384074	-0.628716
O121	O	-0.298807	-0.294912	-0.628719
O122	O	-0.235464	-0.384072	-0.692061
Zn123	Zn	-0.255634	-0.350991	-0.648887
Zn124	Zn	-0.351085	-0.255572	-0.744338
O125	O	-0.235466	-0.294910	-0.692064
C126	C	-0.155920	-0.469469	0.234827
C127	C	-0.098464	-0.523208	0.261706
C128	C	-0.182375	-0.443392	0.261162
C129	C	-0.234797	-0.390619	0.155950
C130	C	-0.261676	-0.360052	0.098494
C131	C	-0.261132	-0.364662	0.182405
C132	C	-0.234797	-0.390620	0.234826
C133	C	-0.261675	-0.360052	0.261704
C134	C	-0.182375	-0.443391	0.182406
C135	C	0.018810	-0.390643	0.234846
C136	C	0.015111	-0.360079	0.261727
C137	C	0.019176	-0.443414	0.261179
C138	C	0.018812	-0.390637	0.155967
C139	C	0.015115	-0.360067	0.098511
C140	C	0.019178	-0.443408	0.182420
C141	C	0.018807	-0.469488	0.234841
C142	C	0.015106	-0.523226	0.261717
C143	C	0.019180	-0.364683	0.182425
C144	C	-0.234799	-0.215977	0.234834
C145	C	-0.261678	-0.246545	0.261708
C146	C	-0.182376	-0.241940	0.261172
C147	C	-0.234798	-0.137119	0.155964
C148	C	-0.261676	-0.083372	0.098509
C149	C	-0.182375	-0.163202	0.182421
C150	C	-0.155921	-0.215981	0.234841
C151	C	-0.098464	-0.246554	0.261721
C152	C	-0.261134	-0.163198	0.182415
C153	C	-0.039199	0.007461	-0.503869
C154	C	-0.039568	-0.018614	-0.530207
C155	C	-0.039203	-0.071390	-0.424995
C156	C	-0.039572	-0.097344	-0.451452
C157	C	-0.039201	-0.071385	-0.503874
C158	C	-0.039570	-0.018618	-0.451448
C159	C	-0.024912	0.183325	-0.552025
C160	C	-0.020873	0.233135	-0.576849
C161	C	-0.018844	0.258123	-0.628796
C162	C	-0.014454	0.312124	-0.655711
C163	C	-0.020859	0.233301	-0.655918
C164	C	-0.024906	0.183500	-0.631097
C165	C	-0.026932	0.158512	-0.579148
C166	C	-0.024920	-0.133799	-0.631644
C167	C	-0.020882	-0.162650	-0.656647
C168	C	-0.018855	-0.216605	-0.629699
C169	C	-0.014470	-0.247897	-0.656801
C170	C	-0.020872	-0.241704	-0.577746
C171	C	-0.024919	-0.212847	-0.552747
C172	C	-0.026939	-0.158893	-0.579702
C173	C	-0.024929	-0.133823	-0.234783
C174	C	-0.020887	-0.162684	-0.180915
C175	C	-0.018862	-0.216639	-0.153896
C176	C	-0.014477	-0.247936	-0.095488
C177	C	-0.020875	-0.241733	-0.180745
C178	C	-0.024915	-0.212872	-0.234610
C179	C	-0.026947	-0.158912	-0.261627
C180	C	-0.031316	0.104507	-0.552235
C181	C	-0.034811	0.061462	-0.530782
C182	C	-0.034820	-0.102682	-0.366590
C183	C	-0.031328	-0.127624	-0.320035
C184	C	-0.034816	-0.102672	-0.530980
C185	C	-0.031322	-0.127610	-0.552588
O186	O	-0.012940	-0.294936	0.371303
O187	O	0.012923	-0.384099	0.307961
O188	O	-0.076273	-0.294935	0.307950
O189	O	0.076257	-0.384100	0.371315
O190	O	-0.076265	-0.222515	0.235508
O191	O	0.012932	-0.311679	0.235520
O192	O	-0.012931	-0.222517	0.298862
Zn193	Zn	0.000002	-0.255600	0.255689
Zn194	Zn	-0.000010	-0.351016	0.351134
O195	O	0.076266	-0.311681	0.298873
C196	C	-0.574962	0.464558	-0.503864
C197	C	-0.548506	0.490518	-0.530195
C198	C	-0.496085	0.385697	-0.424987
C199	C	-0.469749	0.411776	-0.451438
C200	C	-0.496084	0.464555	-0.503857
C201	C	-0.548507	0.411779	-0.451444
C202	C	-0.765173	0.526994	-0.552039
C203	C	-0.819039	0.555852	-0.576867
C204	C	-0.846061	0.609814	-0.628812
C205	C	-0.904469	0.641114	-0.655732
C206	C	-0.819211	0.634913	-0.655928
C207	C	-0.765348	0.606050	-0.631102
C208	C	-0.738329	0.552088	-0.579155
C209	C	-0.447916	0.606561	-0.631604
C210	C	-0.423088	0.635592	-0.656601
C211	C	-0.371143	0.610674	-0.629648
C212	C	-0.344222	0.642150	-0.656742
C213	C	-0.344023	0.556716	-0.577696
C214	C	-0.368845	0.527681	-0.552704
C215	C	-0.420798	0.552613	-0.579664
C216	C	-0.447920	0.209802	-0.234786
C217	C	-0.423096	0.159988	-0.180919
C218	C	-0.371148	0.134996	-0.153895
C219	C	-0.344230	0.080987	-0.095489
C220	C	-0.344029	0.159823	-0.180737
C221	C	-0.368856	0.209637	-0.234602
C222	C	-0.420801	0.234620	-0.261624
C223	C	-0.679923	0.520797	-0.552238
C224	C	-0.633367	0.495853	-0.530781
C225	C	-0.469169	0.331687	-0.366583
C226	C	-0.447714	0.288634	-0.320030
C227	C	-0.469167	0.496035	-0.530956
C228	C	-0.447712	0.521128	-0.552558
H229	H	-0.569747	-0.610106	0.040228
O230	O	-0.156964	-0.469400	0.157073
C231	C	-0.082310	-0.499037	0.125622
C232	C	-0.111022	-0.469607	0.154346
H233	H	-0.045166	-0.499202	0.123398
H234	H	-0.070263	-0.548354	0.148619
H235	H	-0.110273	-0.471299	0.083545
H236	H	-0.083088	-0.497296	0.196424
H237	H	-0.123078	-0.420285	0.131309
H238	H	-0.040166	-0.139808	-0.430213
H239	H	-0.026556	-0.233307	-0.256467
O240	O	-0.342550	-0.237163	-0.261133
C241	C	-0.346104	-0.227412	-0.344184
C242	C	-0.375734	-0.200036	-0.314431
H243	H	-0.372924	-0.197414	-0.387278
H244	H	-0.308130	-0.229133	-0.343488
H245	H	-0.335332	-0.275990	-0.323796
H246	H	-0.386542	-0.151447	-0.334797
H247	H	-0.413685	-0.198362	-0.315124
O248	O	-0.018927	0.257331	-0.550587
C249	C	-0.012662	0.333955	-0.553773
C250	C	-0.014874	0.306623	-0.583582
H251	H	-0.009373	0.373803	-0.580433
H252	H	-0.050498	0.351379	-0.543022
H253	H	0.023566	0.296880	-0.515776
H254	H	-0.051077	0.343665	-0.621598
H255	H	0.022987	0.289182	-0.594293
O256	O	-0.293544	-0.467652	0.019025
C257	C	-0.201519	-0.555156	0.063645
C258	C	-0.258673	-0.527699	0.065849
H259	H	-0.173309	-0.603702	0.101502
H260	H	-0.200483	-0.556946	0.027428
H261	H	-0.188449	-0.525121	0.060385
H262	H	-0.271779	-0.557709	0.069128
H263	H	-0.259677	-0.525897	0.102059
H264	H	0.019760	-0.465234	0.304248
O265	O	-0.738931	0.474633	-0.501547
C266	C	-0.690133	0.425130	-0.410782
C267	C	-0.719849	0.484471	-0.467937
H268	H	-0.674687	0.433060	-0.383595
H269	H	-0.718559	0.412141	-0.395629
H270	H	-0.655118	0.386240	-0.410822
H271	H	-0.754863	0.523400	-0.467943
H272	H	-0.691388	0.497406	-0.483067
H273	H	-0.161137	-0.141349	-0.019737
O274	O	0.019817	-0.313975	0.157116
C275	C	-0.025124	-0.207926	0.125706
C276	C	-0.025903	-0.265309	0.154390
H277	H	-0.062090	-0.168561	0.123483
H278	H	0.012174	-0.218919	0.148732
H279	H	-0.024895	-0.193806	0.083629
H280	H	-0.026152	-0.279460	0.196466
H281	H	-0.063198	-0.254285	0.131323
O282	O	-0.342395	-0.237327	-0.501598
C283	C	-0.261506	-0.318630	-0.425785
C284	C	-0.291188	-0.291202	-0.482924
H285	H	-0.220104	-0.362200	-0.410666
H286	H	-0.257588	-0.283626	-0.425779
H287	H	-0.284874	-0.330392	-0.398593
H288	H	-0.267845	-0.279443	-0.510149
H289	H	-0.295112	-0.326223	-0.482888
O290	O	-0.157115	-0.292556	0.312577
C291	C	-0.156932	-0.336196	0.403247
C292	C	-0.185602	-0.278838	0.345053
H293	H	-0.179946	-0.325121	0.429522
H294	H	-0.154760	-0.375567	0.405723
H295	H	-0.114838	-0.350352	0.417584
H296	H	-0.227709	-0.264627	0.330679
H297	H	-0.187732	-0.239503	0.342610
H298	H	-0.841216	0.678847	-0.698222
H299	H	-0.570092	0.003538	-0.430229
H300	H	-0.301729	0.139473	-0.158731
H301	H	-0.019210	0.253653	-0.698214
O302	O	-0.739179	-0.524807	0.026972
C303	C	-0.656283	-0.604454	0.033158
C304	C	-0.685846	-0.545099	0.030926
H305	H	-0.613161	-0.620871	0.036343
H306	H	-0.657061	-0.641642	0.069408
H307	H	-0.676758	-0.594764	-0.004669
H308	H	-0.665394	-0.554729	0.068726
H309	H	-0.685072	-0.507930	-0.005349
H310	H	-0.304205	-0.141343	-0.019747
H311	H	-0.444508	-0.142931	-0.698242
H312	H	-0.019230	-0.285631	-0.555806
H313	H	-0.304205	-0.141373	0.161175
O314	O	-0.418357	-0.614264	0.040372
C315	C	-0.342453	-0.609399	0.041400
C316	C	-0.400651	-0.579915	0.040567
H317	H	-0.328124	-0.581633	0.041546
H318	H	-0.316151	-0.658679	0.078745
H319	H	-0.340011	-0.609692	0.004485
H320	H	-0.403144	-0.579578	0.077456
H321	H	-0.426926	-0.530651	0.003199
O322	O	-0.040349	0.007403	-0.426072
C323	C	-0.087379	0.054580	-0.382604
C324	C	-0.086556	0.025115	-0.411323
H325	H	-0.124740	0.068920	-0.370681
H326	H	-0.050477	0.019845	-0.345383
H327	H	-0.087543	0.096831	-0.410524
H328	H	-0.086410	-0.017131	-0.383445
H329	H	-0.123455	0.059890	-0.448551
H330	H	-0.841561	0.253985	-0.555818
H331	H	-0.161136	-0.141377	0.161182
H332	H	-0.040160	0.003216	-0.573279
H333	H	-0.019235	-0.142256	-0.159055
H334	H	-0.019226	-0.285667	-0.158742
O335	O	-0.418371	0.385828	-0.426170
C336	C	-0.342454	0.390664	-0.432094
C337	C	-0.400640	0.420118	-0.460764
H338	H	-0.328096	0.418367	-0.460054
H339	H	-0.339983	0.390420	-0.394913
H340	H	-0.316192	0.341366	-0.420099
H341	H	-0.426936	0.469427	-0.472794
H342	H	-0.403068	0.420314	-0.497921
H343	H	-0.026581	-0.089888	-0.256777
H344	H	0.019779	-0.465234	0.161179
H345	H	-0.026563	0.162985	-0.509727
O346	O	-0.026834	0.159446	-0.657508
C347	C	-0.026423	0.164887	-0.738561
C348	C	-0.024225	0.192180	-0.708708
H349	H	-0.024326	0.191348	-0.779965
H350	H	0.008730	0.114365	-0.715334
H351	H	-0.065342	0.168768	-0.742494
H352	H	0.014671	0.188343	-0.704768
H353	H	-0.059405	0.242689	-0.731946
O354	O	-0.026906	-0.081375	-0.657912
C355	C	-0.026460	-0.006029	-0.738799
C356	C	-0.024218	-0.065391	-0.709120
H357	H	-0.024276	0.006904	-0.780201
H358	H	-0.065394	0.032900	-0.742719
H359	H	0.008674	-0.013972	-0.715428
H360	H	-0.059325	-0.057509	-0.732466
H361	H	0.014738	-0.104301	-0.705194
H362	H	-0.019237	-0.142213	-0.698946
O363	O	-0.845537	0.257671	-0.707129
C364	C	-0.928453	0.334296	-0.780591
C365	C	-0.898896	0.306963	-0.723441
H366	H	-0.971603	0.374145	-0.793792
H367	H	-0.908048	0.351721	-0.808776
H368	H	-0.927596	0.297222	-0.781500
H369	H	-0.899745	0.344003	-0.722480
H370	H	-0.919310	0.289522	-0.695281
O371	O	-0.026849	-0.237322	-0.502273
C372	C	-0.026445	-0.318755	-0.426662
C373	C	-0.024245	-0.291109	-0.483818
H374	H	-0.024352	-0.362239	-0.411728
H375	H	0.008708	-0.330682	-0.399347
H376	H	-0.065364	-0.283778	-0.426614
H377	H	0.014651	-0.326056	-0.483918
H378	H	-0.059425	-0.279168	-0.511109
O379	O	-0.573935	0.541214	-0.581562
C380	C	-0.654709	0.616082	-0.657465
C381	C	-0.625976	0.558670	-0.599296
H382	H	-0.696785	0.630205	-0.671824
H383	H	-0.656920	0.655451	-0.659896
H384	H	-0.631674	0.605065	-0.683751
H385	H	-0.648987	0.569627	-0.572974
H386	H	-0.623759	0.519319	-0.596907
H387	H	-0.569753	0.389964	-0.430206
O388	O	-0.449506	0.135931	-0.154932
C389	C	-0.530559	0.141371	-0.160788
C390	C	-0.500706	0.168667	-0.190285
H391	H	-0.571964	0.167835	-0.189355
H392	H	-0.507334	0.090851	-0.145407
H393	H	-0.534491	0.145245	-0.125747
H394	H	-0.496767	0.164837	-0.225347
H395	H	-0.523943	0.219175	-0.205627
O396	O	-0.498405	0.234179	-0.261073
C397	C	-0.589174	0.324193	-0.309818
C398	C	-0.532022	0.296664	-0.280071
H399	H	-0.616371	0.374712	-0.325176
H400	H	-0.589193	0.320357	-0.344883
H401	H	-0.604274	0.297870	-0.281379
H402	H	-0.516886	0.322966	-0.308467
H403	H	-0.532035	0.300490	-0.244999
O404	O	-0.157007	-0.292509	-0.019931
C405	C	-0.113547	-0.336126	-0.066964
C406	C	-0.142255	-0.278776	-0.066138
H407	H	-0.101622	-0.325039	-0.104324
H408	H	-0.076329	-0.375497	-0.030060
H409	H	-0.141475	-0.350291	-0.067134
H410	H	-0.114370	-0.264556	-0.065986
H411	H	-0.179480	-0.239442	-0.103039
H412	H	-0.840896	0.535415	-0.554785
O413	O	-0.312537	-0.314047	0.157137
C414	C	-0.403213	-0.270402	0.156932
C415	C	-0.345021	-0.327762	0.185612
H416	H	-0.429495	-0.281474	0.179936
H417	H	-0.405689	-0.231033	0.154766
H418	H	-0.417540	-0.256243	0.114835
H419	H	-0.330657	-0.341977	0.227722
H420	H	-0.342578	-0.367095	0.187736
O421	O	-0.739700	0.159780	-0.502288
C422	C	-0.745544	0.165224	-0.426679
C423	C	-0.775049	0.192513	-0.483832
H424	H	-0.774108	0.191685	-0.411744
H425	H	-0.730157	0.114701	-0.399362
H426	H	-0.710508	0.169107	-0.426635
H427	H	-0.810106	0.188674	-0.483928
H428	H	-0.790398	0.243024	-0.511125
H429	H	-0.301733	-0.860548	0.019286
O430	O	-0.498025	-0.081778	-0.260634
C431	C	-0.573659	-0.006635	-0.254772
C432	C	-0.516516	-0.065991	-0.225260
H433	H	-0.588630	0.006140	-0.226182
H434	H	-0.573741	0.032369	-0.289786
H435	H	-0.600927	-0.014498	-0.270191
H436	H	-0.489215	-0.058188	-0.209807
H437	H	-0.516477	-0.104974	-0.190272
O438	O	-0.739355	0.630525	-0.657507
C439	C	-0.745201	0.711968	-0.738551
C440	C	-0.774704	0.684321	-0.708706
H441	H	-0.773764	0.755459	-0.779955
H442	H	-0.729815	0.723884	-0.715319
H443	H	-0.710163	0.676996	-0.742486
H444	H	-0.809762	0.719263	-0.704764
H445	H	-0.790051	0.672391	-0.731951
O446	O	-0.498369	0.630839	-0.657878
C447	C	-0.574180	0.712152	-0.738768
C448	C	-0.517041	0.684719	-0.709083
H449	H	-0.589298	0.755726	-0.780168
H450	H	-0.574188	0.677153	-0.742694
H451	H	-0.601372	0.723907	-0.715399
H452	H	-0.489817	0.672966	-0.732427
H453	H	-0.517076	0.719735	-0.705151
H454	H	-0.445174	0.679524	-0.698898
O455	O	-0.498418	-0.369220	0.026848
C456	C	-0.590437	-0.281701	-0.017747
C457	C	-0.533278	-0.309137	-0.019936
H458	H	-0.618635	-0.233115	-0.055562
H459	H	-0.603560	-0.311674	-0.014542
H460	H	-0.591423	-0.279990	0.018511
H461	H	-0.532248	-0.310850	-0.056191
H462	H	-0.520179	-0.279154	-0.023112
O463	O	-0.293240	-0.294548	-0.154808
C464	C	-0.236062	-0.402068	-0.081927
C465	C	-0.293202	-0.342706	-0.111471
H466	H	-0.236011	-0.441016	-0.046876
H467	H	-0.221074	-0.414940	-0.110459
H468	H	-0.208791	-0.394180	-0.066553
H469	H	-0.320514	-0.350547	-0.126847
H470	H	-0.308146	-0.329852	-0.082919
O471	O	-0.738993	-0.369253	0.026992
C472	C	-0.744501	-0.287975	0.026589
C473	C	-0.774211	-0.315385	0.024315
H474	H	-0.772965	-0.244411	0.024415
H475	H	-0.709485	-0.322993	0.065531
H476	H	-0.729065	-0.276210	-0.008537
H477	H	-0.789682	-0.327148	0.059414
H478	H	-0.809201	-0.280351	-0.014649
H479	H	-0.841210	-0.463642	0.019294
H480	H	-0.444519	-0.142934	-0.158758
H481	H	-0.301723	0.536422	-0.555753
O482	O	-0.342437	0.475292	-0.502233
C483	C	-0.261385	0.400101	-0.426617
C484	C	-0.291236	0.459441	-0.483771
H485	H	-0.219979	0.387260	-0.411678
H486	H	-0.284610	0.407934	-0.399303
H487	H	-0.257457	0.361150	-0.426574
H488	H	-0.295171	0.498420	-0.483866
H489	H	-0.267998	0.451557	-0.511061
H490	H	-0.445184	-0.320548	0.019287
O491	O	-0.573914	-0.458905	0.040356
C492	C	-0.654697	-0.384029	0.041346
C493	C	-0.625983	-0.441395	0.040543
H494	H	-0.696804	-0.369847	0.041486
H495	H	-0.631713	-0.395045	0.078681
H496	H	-0.656841	-0.344696	0.004421
H497	H	-0.623832	-0.480753	0.077442
H498	H	-0.648978	-0.430328	0.003183
O499	O	-0.845189	-0.312033	0.018910
C500	C	-0.918030	-0.204493	-0.031521
C501	C	-0.888467	-0.263859	-0.029272
H502	H	-0.953020	-0.165526	-0.070478
H503	H	-0.933476	-0.212298	0.003592
H504	H	-0.889451	-0.191696	-0.029357
H505	H	-0.917015	-0.276688	-0.031452
H506	H	-0.873013	-0.256022	-0.064381
O507	O	-0.342484	0.233749	-0.260601
C508	C	-0.299377	0.282566	-0.264798
C509	C	-0.329227	0.255265	-0.235297
H510	H	-0.288660	0.299981	-0.244359
H511	H	-0.261367	0.245531	-0.263963
H512	H	-0.326044	0.322440	-0.307941
H513	H	-0.302603	0.215399	-0.192142
H514	H	-0.367242	0.292338	-0.236176
O515	O	-0.498373	-0.766057	0.026978
C516	C	-0.574184	-0.771134	0.026540
C517	C	-0.517045	-0.798581	0.024294
H518	H	-0.589301	-0.797410	0.024359
H519	H	-0.574190	-0.775046	0.065475
H520	H	-0.601376	-0.720591	-0.008594
H521	H	-0.489820	-0.849132	0.059401
H522	H	-0.517081	-0.794622	-0.014663
H523	H	-0.346767	-0.770191	0.026621
O524	O	-0.449380	-0.864243	0.019083
C525	C	-0.450369	-0.954082	0.060348
C526	C	-0.420552	-0.926749	0.062536
H527	H	-0.427068	-1.004625	0.095470
H528	H	-0.491755	-0.927717	0.062522
H529	H	-0.454342	-0.950145	0.021405
H530	H	-0.416539	-0.930680	0.101474
H531	H	-0.379184	-0.953119	0.060333
O532	O	-0.574254	0.007754	-0.581591
C533	C	-0.648915	0.037498	-0.642768
C534	C	-0.620222	0.008015	-0.584580
H535	H	-0.686079	0.037707	-0.645203
H536	H	-0.660927	0.086803	-0.669071
H537	H	-0.620953	0.009770	-0.657105
H538	H	-0.648154	0.035695	-0.570195
H539	H	-0.608200	-0.041295	-0.558314
O540	O	-0.293229	-0.294536	-0.550555
C541	C	-0.236068	-0.402079	-0.515805
C542	C	-0.293209	-0.342719	-0.545635
H543	H	-0.236035	-0.441054	-0.511808
H544	H	-0.208763	-0.394271	-0.539059
H545	H	-0.221108	-0.414866	-0.474428
H546	H	-0.308218	-0.329899	-0.587013
H547	H	-0.320478	-0.350558	-0.522340
O548	O	-0.418705	-0.147657	-0.426214
C549	C	-0.342808	-0.222522	-0.432099
C550	C	-0.401001	-0.165165	-0.460767
H551	H	-0.328479	-0.236703	-0.460019
H552	H	-0.316499	-0.211496	-0.420141
H553	H	-0.340377	-0.261860	-0.394893
H554	H	-0.403483	-0.125802	-0.497991
H555	H	-0.427283	-0.176242	-0.472685
O556	O	-0.498002	-0.081740	-0.657545
C557	C	-0.556230	0.023549	-0.734355
C558	C	-0.499089	-0.035811	-0.704494
H559	H	-0.557126	0.060702	-0.772314
H560	H	-0.584401	0.013916	-0.745165
H561	H	-0.569461	0.039985	-0.707668
H562	H	-0.485809	-0.052278	-0.731152
H563	H	-0.470953	-0.026144	-0.693677
O564	O	-0.739277	0.159498	-0.657910
C565	C	-0.710547	0.177852	-0.734581
C566	C	-0.740267	0.205288	-0.704898
H567	H	-0.711347	0.214863	-0.772582
H568	H	-0.667420	0.138008	-0.707835
H569	H	-0.730907	0.160378	-0.745316
H570	H	-0.719952	0.222797	-0.694159
H571	H	-0.783394	0.245104	-0.731661
O572	O	-0.157082	-0.469327	0.312527
C573	C	-0.125720	-0.455794	0.373691
C574	C	-0.154374	-0.426344	0.315502
H575	H	-0.123511	-0.421060	0.376113
H576	H	-0.148759	-0.470061	0.399975
H577	H	-0.083639	-0.498085	0.388061
H578	H	-0.196454	-0.384033	0.301083
H579	H	-0.131295	-0.412122	0.289254
H580	H	-0.346776	-0.516292	0.026600
