data_functionalizedCrystal
_audit_creation_method	'MofGen! by Chris Wilmer'
_symmetry_space_group_name_H-M	'P1'
_symmetry_Int_Tables_number	1
_symmetry_cell_setting	triclinic
loop_
_symmetry_equiv_pos_as_xyz
  x,y,z
_cell_length_a	10.489741
_cell_length_b	10.489746
_cell_length_c	14.586319
_cell_angle_alpha	89.994747
_cell_angle_beta	90.012046
_cell_angle_gamma	95.459762
loop_
_atom_site_label
_atom_site_type_symbol
_atom_site_fract_x
_atom_site_fract_y
_atom_site_fract_z
O1	O	0.180013	-1.694055	0.076178
O2	O	0.196899	-1.322861	0.076193
O3	O	0.002858	-1.516904	0.076180
O4	O	0.374054	-1.500012	0.076192
O5	O	0.002825	-1.516876	-0.076301
O6	O	0.196866	-1.322833	-0.076287
O7	O	0.179980	-1.694027	-0.076303
Cu8	Cu	0.188420	-1.508427	-0.090218
Cu9	Cu	0.188459	-1.508461	0.090109
O10	O	0.374020	-1.499984	-0.076289
C11	C	-0.044690	-1.515614	-0.000060
C12	C	-0.186320	-1.511797	-0.000058
C13	C	0.195606	-1.275315	-0.000045
C14	C	0.191786	-1.133686	-0.000039
C15	C	0.181273	-1.741573	-0.000062
C16	C	0.185093	-1.883202	-0.000062
C17	C	-0.254462	-1.388333	-0.000046
C18	C	-0.346600	-1.446643	-0.075230
C19	C	-0.346542	-1.446699	0.075105
C20	C	-0.276592	-1.570158	-0.075303
C21	C	-0.276524	-1.570197	0.075098
C22	C	-0.368635	-1.628597	-0.000103
C23	C	0.421569	-1.501273	-0.000047
C24	C	0.563198	-1.505091	-0.000043
C25	C	0.066062	-0.980828	-0.000056
C26	C	0.128902	-1.058208	-0.075233
C27	C	0.128965	-1.058191	0.075102
C28	C	0.247884	-0.958716	-0.075300
C29	C	0.247929	-0.958694	0.075101
C30	C	0.310856	-1.036025	-0.000094
N31	N	0.188391	-1.508413	-0.217049
C32	C	0.110324	-1.430382	-0.548078
C33	C	0.110307	-1.430372	-0.452096
C34	C	0.266547	-1.586525	-0.452038
C35	C	0.266558	-1.586541	-0.548018
C36	C	0.188448	-1.508462	-0.596035
C37	C	0.188420	-1.508436	-0.404074
C38	C	0.188402	-1.508425	-0.300007
C39	C	0.188465	-1.508474	-0.700109
N40	N	0.188477	-1.508485	0.216940
H41	H	-0.204813	-1.286821	-0.000118
Br42	Br	0.004317	-1.324422	-0.613241
Br43	Br	0.004281	-1.324396	-0.387014
H44	H	-0.377626	-1.394390	-0.138787
H45	H	0.330176	-1.650130	-0.587066
H46	H	-0.418057	-1.730200	-0.000149
H47	H	0.298146	-0.915206	0.138665
Br48	Br	0.372551	-1.692481	-0.386867
Br49	Br	0.331558	-0.886572	-0.181355
H50	H	-0.245773	-1.622341	-0.138936
H51	H	-0.037439	-0.956107	-0.000135
Br52	Br	0.483496	-1.076818	-0.000147
Br53	Br	0.045136	-1.130647	-0.181176
Br54	Br	0.045202	-1.130625	0.181033
Br55	Br	-0.224753	-1.657218	0.181039
H56	H	-0.377493	-1.394455	0.138672
