data_functionalizedCrystal
_audit_creation_method	'MofGen! by Chris Wilmer'
_symmetry_space_group_name_H-M	'P1'
_symmetry_Int_Tables_number	1
_symmetry_cell_setting	triclinic
loop_
_symmetry_equiv_pos_as_xyz
  x,y,z
_cell_length_a	10.967926
_cell_length_b	14.044220
_cell_length_c	9.482900
_cell_angle_alpha	100.188801
_cell_angle_beta	92.549900
_cell_angle_gamma	88.855190
loop_
_atom_site_label
_atom_site_type_symbol
_atom_site_fract_x
_atom_site_fract_y
_atom_site_fract_z
O1	O	1.628183	0.167990	0.287012
O2	O	1.279192	0.170077	0.199575
O3	O	1.448447	0.030855	0.241995
O4	O	1.458928	0.307212	0.244592
O5	O	1.414080	0.059254	0.475174
O6	O	1.244826	0.198475	0.432755
O7	O	1.593816	0.196388	0.520191
Cu8	Cu	1.416183	0.200025	0.497764
Cu9	Cu	1.456825	0.166441	0.222002
O10	O	1.424561	0.335610	0.477771
C11	C	1.217076	0.181978	0.304908
C12	C	1.083189	0.175121	0.271364
C13	C	1.005695	0.186775	0.377203
C14	C	0.867315	0.179687	0.342536
C15	C	1.426678	0.009569	0.357436
C16	C	1.412998	-0.096166	0.354011
C17	C	1.387993	-0.289761	0.347725
C18	C	1.485012	-0.343781	0.372028
C19	C	1.471099	-0.451504	0.368530
C20	C	1.401904	-0.182028	0.351222
C21	C	1.655933	0.184486	0.414856
C22	C	1.789821	0.191343	0.448390
C23	C	1.446331	0.356895	0.362327
C24	C	1.460012	0.462630	0.365743
N25	N	1.387606	0.223646	0.691722
N26	N	1.485411	0.142812	0.028047
C27	C	1.448388	0.173402	0.779155
C28	C	1.424621	0.193063	0.940615
H29	H	0.825915	0.206565	0.564676
H30	H	1.578537	-0.309138	0.395362
N31	N	1.270676	-0.333207	0.318365
N32	N	1.179443	-0.282483	0.295534
H33	H	1.096585	-0.313174	0.274809
H34	H	1.518016	0.115828	0.734477
N35	N	1.337253	0.265279	0.996664
N36	N	1.318065	0.281144	1.127744
H37	H	1.256362	0.332145	1.167332
N38	N	1.300230	0.295854	0.747752
N39	N	1.210134	0.272934	0.810157
H40	H	1.148420	0.323932	0.849725
N41	N	1.051001	0.205887	0.523063
N42	N	1.113145	0.279551	0.567900
H43	H	1.145146	0.293052	0.670916
N44	N	0.822026	0.160576	0.196663
N45	N	0.709680	0.154841	0.168709
H46	H	0.677692	0.141342	0.065688
N47	N	1.037895	0.156011	0.125499
N48	N	0.925548	0.150275	0.097545
H49	H	0.893560	0.136777	-0.005476
N50	N	1.572758	0.070580	0.971996
N51	N	1.591940	0.054706	0.840915
H52	H	1.653626	0.003692	0.801325
