data_functionalizedCrystal
_audit_creation_method	'MofGen! by Chris Wilmer'
_symmetry_space_group_name_H-M	'P1'
_symmetry_Int_Tables_number	1
_symmetry_cell_setting	triclinic
loop_
_symmetry_equiv_pos_as_xyz
  x,y,z
_cell_length_a	14.519731
_cell_length_b	23.532407
_cell_length_c	13.596369
_cell_angle_alpha	89.989360
_cell_angle_beta	89.994584
_cell_angle_gamma	83.268765
loop_
_atom_site_label
_atom_site_type_symbol
_atom_site_fract_x
_atom_site_fract_y
_atom_site_fract_z
O1	O	1.222972	0.074712	-0.081804
O2	O	0.954394	0.083490	-0.081807
O3	O	1.096782	-0.003794	-0.081787
O4	O	1.080584	0.161996	-0.081823
O5	O	1.096768	-0.003798	0.081796
O6	O	0.954380	0.083486	0.081776
O7	O	1.222958	0.074707	0.081779
Zn8	Zn	1.088667	0.079096	0.107750
Zn9	Zn	1.088686	0.079102	-0.107778
O10	O	1.080570	0.161991	0.081759
C11	C	0.920033	0.083077	-0.000015
C12	C	0.817667	0.081844	-0.000016
C13	C	0.734535	0.080843	-0.000019
C14	C	0.630241	0.079591	-0.000019
C15	C	0.547113	0.078598	-0.000019
C16	C	0.442813	0.077346	-0.000021
C17	C	1.096363	-0.025014	0.000007
C18	C	1.095123	-0.088237	0.000014
C19	C	1.171607	-0.486991	-0.000039
C20	C	1.170454	-0.546397	-0.000046
O21	O	1.241356	-0.582818	-0.000082
N22	N	1.085805	-0.569409	-0.000046
C23	C	1.002302	-0.533012	-0.000049
O24	O	0.930195	-0.558040	-0.000051
C25	C	1.003455	-0.473607	-0.000049
C26	C	1.088110	-0.450599	-0.000039
C27	C	1.256255	-0.463982	-0.000030
C28	C	1.257406	-0.404580	-0.000020
C29	C	1.173910	-0.368188	-0.000020
C30	C	1.089262	-0.391197	-0.000029
C31	C	0.919953	-0.437212	-0.000058
C32	C	0.921113	-0.377804	-0.000059
C33	C	1.005768	-0.354795	-0.000049
C34	C	1.006917	-0.295404	-0.000020
N35	N	1.091566	-0.272392	-0.000020
C36	C	1.175063	-0.308784	-0.000020
C37	C	0.999887	-0.657765	-0.000052
C38	C	0.998733	-0.717168	-0.000045
C39	C	1.166886	-0.730549	-0.000044
C40	C	1.168039	-0.671145	-0.000044
C41	C	1.084536	-0.634753	-0.000052
C42	C	1.177475	-0.184036	0.000001
C43	C	1.178619	-0.124629	0.000014
C44	C	1.010467	-0.111253	0.000008
C45	C	1.009322	-0.170655	-0.000000
C46	C	1.092834	-0.207046	-0.000007
O47	O	0.936052	-0.258948	0.000012
O48	O	1.247158	-0.283747	-0.000031
C49	C	1.257320	0.075121	-0.000015
C50	C	1.359686	0.076353	-0.000021
C51	C	1.080990	0.183211	-0.000037
C52	C	1.082230	0.246434	-0.000051
N53	N	1.088661	0.079091	0.254842
N54	N	1.088699	0.079102	-0.254869
C55	C	1.088684	0.079102	0.656133
C56	C	1.088675	0.079101	0.544481
C57	C	1.088673	0.079097	0.455491
C58	C	1.088663	0.079095	0.343832
H59	H	1.247558	-0.105899	0.000025
H60	H	1.245478	-0.213659	-0.000009
C61	C	0.918625	-0.071214	0.000001
C62	C	0.849122	-0.073846	-0.084955
C63	C	0.757281	-0.033804	-0.084973
C64	C	0.734942	0.008870	-0.000035
C65	C	0.804446	0.011505	0.084927
C66	C	0.896288	-0.028537	0.084945
H67	H	0.865657	-0.105438	-0.147838
H68	H	0.705829	-0.035755	-0.147868
H69	H	0.666955	0.038512	-0.000048
H70	H	0.787911	0.043097	0.147810
H71	H	0.947740	-0.026587	0.147840
C72	C	1.350531	-0.379278	-0.000029
C73	C	1.419737	-0.392985	0.084905
C74	C	1.512868	-0.367689	0.084889
C75	C	1.536794	-0.328687	-0.000061
C76	C	1.467586	-0.314978	-0.085001
C77	C	1.374455	-0.340274	-0.084985
H78	H	1.402027	-0.421859	0.147795
H79	H	1.564100	-0.377837	0.147767
H80	H	1.605735	-0.309961	-0.000073
H81	H	1.485296	-0.286104	-0.147891
H82	H	1.323224	-0.330126	-0.147863
C83	C	1.261160	-0.645838	-0.000041
C84	C	1.330354	-0.659539	0.084904
C85	C	1.423479	-0.634236	0.084904
C86	C	1.447410	-0.595232	-0.000041
C87	C	1.378214	-0.581529	-0.084993
C88	C	1.285089	-0.606832	-0.084993
H89	H	1.312641	-0.688414	0.147791
H90	H	1.474703	-0.644380	0.147791
H91	H	1.516346	-0.576501	-0.000041
H92	H	1.395927	-0.552654	-0.147880
H93	H	1.233865	-0.596688	-0.147880
H94	H	1.234873	-0.760191	-0.000048
C95	C	0.826825	-0.462506	-0.000076
C96	C	0.757608	-0.448815	0.084858
C97	C	0.664473	-0.474106	0.084838
C98	C	0.640555	-0.513088	-0.000114
C99	C	0.709773	-0.526781	-0.085053
C100	C	0.802909	-0.501490	-0.085034
H101	H	0.775313	-0.419957	0.147750
H102	H	0.613233	-0.463970	0.147717
H103	H	0.571610	-0.531810	-0.000128
H104	H	0.692069	-0.555639	-0.147946
H105	H	0.854149	-0.511627	-0.147913
C106	C	0.905610	-0.742473	-0.000044
C107	C	0.836402	-0.728790	0.084899
C108	C	0.743275	-0.754091	0.084894
C109	C	0.719357	-0.793075	-0.000055
C110	C	0.788566	-0.806760	-0.085005
C111	C	0.881693	-0.781459	-0.084999
H112	H	0.854106	-0.699930	0.147789
H113	H	0.692042	-0.743960	0.147780
H114	H	0.650419	-0.811804	-0.000059
H115	H	0.770862	-0.835620	-0.147895
H116	H	0.932927	-0.791590	-0.147885
H117	H	0.853114	-0.348176	-0.000067
C118	C	0.916206	-0.195973	-0.000016
C119	C	0.892274	-0.234992	0.084907
C120	C	0.799159	-0.260306	0.084875
C121	C	0.729976	-0.246602	-0.000079
C122	C	0.753907	-0.207580	-0.085008
C123	C	0.847022	-0.182266	-0.084976
H124	H	0.943488	-0.245139	0.147801
H125	H	0.781444	-0.289192	0.147746
H126	H	0.661046	-0.265341	-0.000103
H127	H	0.702692	-0.197434	-0.147902
H128	H	0.864737	-0.153380	-0.147847
H129	H	1.324252	-0.493607	-0.000034
H130	H	0.931885	-0.628138	-0.000050
