data_functionalizedCrystal
_audit_creation_method	'MofGen! by Chris Wilmer'
_symmetry_space_group_name_H-M	'P1'
_symmetry_Int_Tables_number	1
_symmetry_cell_setting	triclinic
loop_
_symmetry_equiv_pos_as_xyz
  x,y,z
_cell_length_a	19.376997
_cell_length_b	20.875641
_cell_length_c	20.875625
_cell_angle_alpha	92.966723
_cell_angle_beta	70.131055
_cell_angle_gamma	71.712127
loop_
_atom_site_label
_atom_site_type_symbol
_atom_site_fract_x
_atom_site_fract_y
_atom_site_fract_z
Zr1	Zr	0.668449	0.748274	0.043858
O2	O	0.781617	0.671206	-0.029409
O3	O	0.550548	0.752293	0.047681
O4	O	0.670103	0.773775	-0.059116
O5	O	0.662407	0.655081	0.182832
O6	O	0.676791	0.876987	-0.061349
O7	O	0.662062	0.649723	0.077388
O8	O	0.462929	0.838559	0.129692
O9	O	0.876270	0.693510	-0.008208
O10	O	0.605787	0.854721	0.070163
O11	O	0.601053	0.781694	0.150521
O12	O	0.741814	0.806987	0.024781
O13	O	0.737080	0.733959	0.105139
Zr14	Zr	0.679667	0.921431	0.208469
Zr15	Zr	0.679116	0.912886	0.040297
Zr16	Zr	0.669000	0.756820	0.212030
Zr17	Zr	0.819409	0.783846	0.077671
Zr18	Zr	0.528707	0.885859	0.174656
O19	O	0.797568	0.917413	0.204646
O20	O	0.796785	0.905262	-0.034472
O21	O	0.782401	0.683356	0.209709
O22	O	0.566499	0.998499	0.281736
O23	O	0.565715	0.986349	0.042618
O24	O	0.551331	0.764443	0.286799
O25	O	0.685709	1.014624	0.069495
O26	O	0.678013	0.895930	0.311443
O27	O	0.671325	0.792718	0.313676
O28	O	0.686054	1.019982	0.174939
O29	O	0.884749	0.824354	-0.011039
O30	O	0.463367	0.845352	0.263366
O31	O	0.471846	0.976196	0.260535
O32	O	0.471408	0.969403	0.126861
O33	O	0.876708	0.700302	0.125466
O34	O	0.885187	0.831146	0.122635
O35	O	0.606302	0.862719	0.227546
O36	O	0.611036	0.935746	0.147188
O37	O	0.747063	0.888011	0.101806
O38	O	0.742329	0.814984	0.182164
C39	C	0.485230	0.790358	0.083869
C40	C	0.421143	0.775257	0.069515
C41	C	0.379082	0.706451	0.004104
C42	C	0.439296	0.720646	0.017598
C43	C	0.342764	0.815696	0.107956
C44	C	0.282541	0.801511	0.094467
C45	C	0.300707	0.746887	0.042541
C46	C	0.204166	0.841948	0.132905
C47	C	0.143949	0.827761	0.119419
C48	C	0.162106	0.773138	0.067497
C49	C	0.240490	0.732700	0.029056
C50	C	0.186002	0.896568	0.184834
C51	C	0.107626	0.937005	0.223271
C52	C	0.047407	0.922822	0.209783
C53	C	0.065565	0.868199	0.157861
C54	C	-0.030976	0.963259	0.248224
C55	C	-0.091193	0.949073	0.234739
C56	C	0.005348	0.854012	0.144375
C57	C	0.660715	0.628949	0.130618
C58	C	0.656186	0.559067	0.132129
C59	C	0.725062	0.501319	0.109152
C60	C	0.720802	0.435659	0.110569
C61	C	0.647666	0.427748	0.134967
C62	C	0.578785	0.485503	0.157944
C63	C	0.583046	0.551161	0.156523
C64	C	0.627310	0.234051	0.141754
C65	C	0.623054	0.168386	0.143175
C66	C	0.765071	0.118547	0.095798
C67	C	0.769325	0.184209	0.094383
C68	C	0.700445	0.241957	0.117356
N69	N	0.643310	0.360634	0.136417
N70	N	0.704802	0.309070	0.115901
C71	C	0.862886	0.879348	0.168458
C72	C	0.926973	0.894449	0.182813
C73	C	0.673369	0.824164	-0.084193
C74	C	0.673135	0.820536	-0.155586
C75	C	0.687401	1.040757	0.121709
C76	C	0.691930	1.110638	0.120198
C77	C	0.676710	0.875692	-0.190357
C78	C	0.676483	0.872284	-0.257436
C79	C	0.672687	0.813717	-0.289745
C80	C	0.669108	0.758558	-0.254969
C81	C	0.669330	0.761969	-0.187889
C82	C	0.671624	0.797421	-0.490231
C83	C	0.671406	0.794013	-0.557316
C84	C	0.678779	0.907740	-0.559778
C85	C	0.679005	0.911144	-0.492698
C86	C	0.675423	0.855987	-0.457927
N87	N	0.672457	0.810231	-0.358311
N88	N	0.675647	0.859475	-0.389360
C89	C	0.674747	0.845542	0.336520
C90	C	0.674981	0.849169	0.407913
C91	C	0.498573	0.996262	0.079415
C92	C	0.439015	1.051042	0.063549
C93	C	0.485919	0.801047	0.294226
C94	C	0.422067	0.789573	0.351264
C95	C	0.499262	1.006951	0.289771
C96	C	0.439938	1.065359	0.345298
C97	C	0.848854	0.662755	-0.037444
C98	C	0.908178	0.604346	-0.092971
C99	C	0.849543	0.673444	0.172912
C100	C	0.909101	0.618663	0.188778
C101	C	0.862197	0.868659	-0.041898
C102	C	0.926049	0.880132	-0.098937
C103	C	0.408306	1.034473	0.015884
C104	C	0.352353	1.085941	0.000963
C105	C	0.327106	1.153975	0.033710
C106	C	0.357821	1.170544	0.081377
C107	C	0.413777	1.119078	0.096294
C108	C	0.394821	0.826480	0.418264
C109	C	0.334833	0.815698	0.471866
C110	C	0.302088	0.768014	0.458466
C111	C	0.329339	0.731104	0.391460
C112	C	0.389330	0.741882	0.337861
C113	C	0.414551	1.130915	0.329428
C114	C	0.358818	1.185804	0.381597
C115	C	0.328470	1.175134	0.449635
C116	C	0.353864	1.109572	0.465505
C117	C	0.409599	1.054686	0.413337
C118	C	0.933573	0.538792	-0.077099
C119	C	0.989324	0.483908	-0.129264
C120	C	1.019675	0.494578	-0.197301
C121	C	0.994278	0.560139	-0.213172
C122	C	0.938532	0.615023	-0.161007
C123	C	0.939816	0.635233	0.236437
C124	C	0.995786	0.583769	0.251344
C125	C	1.021035	0.515734	0.218595
C126	C	0.990317	0.499165	0.170930
C127	C	0.934353	0.550630	0.156021
C128	C	0.958776	0.927821	-0.085517
C129	C	1.018765	0.938615	-0.139106
C130	C	1.046031	0.901716	-0.206115
C131	C	1.013298	0.854024	-0.219535
C132	C	0.953306	0.843235	-0.165947
H133	H	0.255284	0.688225	-0.013233
O134	O	1.073792	0.441178	-0.247894
C135	C	1.089705	0.381036	-0.219285
H136	H	1.038067	0.386821	-0.169522
H137	H	1.144844	0.372200	-0.207348
C138	C	1.165781	0.312353	-0.332500
C139	C	1.102355	0.319457	-0.271383
H140	H	1.173588	0.274368	-0.364636
H141	H	1.155063	0.352872	-0.351775
H142	H	1.211723	0.304993	-0.322543
H143	H	1.056413	0.326826	-0.281338
H144	H	1.113066	0.278938	-0.252110
O145	O	0.308433	0.851457	0.536986
C146	C	0.319929	0.805413	0.582669
H147	H	0.368633	0.755057	0.552279
H148	H	0.263315	0.795457	0.609725
C149	C	0.283351	0.898437	0.674401
C150	C	0.343175	0.836590	0.637076
H151	H	0.297687	0.917669	0.707963
H152	H	0.275603	0.929458	0.643624
H153	H	0.236178	0.890131	0.696941
H154	H	0.390344	0.844897	0.614529
H155	H	0.350931	0.805571	0.667850
H156	H	0.828880	0.190641	0.074499
H157	H	1.010884	0.443765	0.144269
H158	H	0.020142	0.809537	0.102086
H159	H	0.681695	0.952648	-0.588094
H160	H	1.045410	0.977448	-0.128166
H161	H	0.253240	0.759245	0.502117
H162	H	0.302669	0.692279	0.380560
H163	H	1.018997	0.568819	-0.268574
H164	H	0.411505	0.711828	0.283307
O165	O	0.915406	0.701288	0.268295
C166	C	0.954514	0.704861	0.313566
H167	H	1.011646	0.659014	0.296280
H168	H	0.915587	0.704173	0.368363
C169	C	0.902468	0.827937	0.333576
C170	C	0.972643	0.771629	0.312342
H171	H	0.913649	0.869123	0.332824
H172	H	0.876118	0.825530	0.303078
H173	H	0.870036	0.827354	0.379238
H174	H	1.005070	0.772208	0.266678
H175	H	0.998999	0.774038	0.342832
H176	H	0.821150	0.071522	0.077092
O177	O	0.904566	0.534405	0.109735
C178	C	0.938870	0.463322	0.084021
H179	H	0.961526	0.435803	0.122558
H180	H	0.989703	0.453058	0.032394
C181	C	0.849246	0.470513	0.026285
C182	C	0.877066	0.436713	0.073619
H183	H	0.811124	0.454100	0.019865
H184	H	0.826136	0.518404	0.043606
H185	H	0.891612	0.461957	-0.016733
H186	H	0.834701	0.445277	0.116637
H187	H	0.900167	0.388823	0.056305
O188	O	0.913814	0.678753	-0.176304
C189	C	0.858092	0.724913	-0.115682
H190	H	0.866446	0.703923	-0.068440
H191	H	0.796499	0.731491	-0.113156
C192	C	0.858885	0.820588	-0.174715
C193	C	0.869149	0.794809	-0.116691
H194	H	0.865701	0.863704	-0.175338
H195	H	0.896423	0.789489	-0.215558
H196	H	0.807556	0.826064	-0.172603
H197	H	0.920479	0.789326	-0.118808
H198	H	0.831619	0.825909	-0.075848
O199	O	0.667667	0.737084	-0.588587
C200	C	0.664567	0.689126	-0.543518
H201	H	0.641150	0.716879	-0.487835
H202	H	0.725944	0.650064	-0.556856
C203	C	0.638662	0.617927	-0.619880
C204	C	0.609894	0.652015	-0.551488
H205	H	0.604940	0.595033	-0.624798
H206	H	0.640753	0.650235	-0.650245
H207	H	0.689809	0.585381	-0.630987
H208	H	0.558752	0.684566	-0.540385
H209	H	0.607793	0.619711	-0.521121
H210	H	0.430262	1.001308	0.426268
O211	O	0.444082	1.141164	0.263299
C212	C	0.498738	1.078673	0.220650
H213	H	0.486111	1.034147	0.245512
H214	H	0.560568	1.075715	0.214139
C215	C	0.507483	1.129240	0.118735
C216	C	0.491971	1.074553	0.149269
H217	H	0.503313	1.126699	0.074702
H218	H	0.470663	1.171343	0.147468
H219	H	0.559008	1.126769	0.113316
H220	H	0.440445	1.077029	0.154695
H221	H	0.528783	1.032450	0.120535
O222	O	0.432888	0.968349	-0.015850
C223	C	0.488878	0.926468	0.007515
H224	H	0.480826	0.952540	0.060230
H225	H	0.550356	0.918077	-0.031003
C226	C	0.487759	0.824814	-0.050886
C227	C	0.477865	0.856833	0.013862
H228	H	0.480968	0.781858	-0.046973
H229	H	0.450039	0.853029	-0.066629
H230	H	0.538991	0.817828	-0.082977
H231	H	0.426630	0.863826	0.045950
H232	H	0.515576	0.828617	0.029612
O233	O	0.274305	1.228523	0.500217
C234	C	0.258423	1.288673	0.471614
H235	H	0.273842	1.274352	0.413738
H236	H	0.295072	1.319138	0.480238
C237	C	0.151800	1.350156	0.577987
C238	C	0.170732	1.332567	0.506903
H239	H	0.097709	1.377235	0.599756
H240	H	0.162501	1.309633	0.597258
H241	H	0.182347	1.375541	0.585163
H242	H	0.140192	1.307176	0.499728
H243	H	0.160023	1.373087	0.487631
O244	O	1.025589	0.599775	0.297709
C245	C	1.008744	0.563675	0.352842
H246	H	0.998315	0.516274	0.334860
H247	H	0.953950	0.598166	0.397810
C248	C	1.091259	0.599903	0.398699
C249	C	1.078456	0.541680	0.376612
H250	H	1.134258	0.586337	0.413364
H251	H	1.102606	0.624227	0.361557
H252	H	1.045592	0.628639	0.436169
H253	H	1.124119	0.512949	0.339137
H254	H	1.067118	0.517351	0.413749
O255	O	0.333177	1.236664	0.113149
C256	C	0.277216	1.278529	0.089745
H257	H	0.249192	1.245952	0.069267
H258	H	0.307191	1.303359	0.046575
C259	C	0.247871	1.374736	0.175311
C260	C	0.213446	1.334726	0.150165
H261	H	0.208536	1.409403	0.212579
H262	H	0.285575	1.346532	0.191077
H263	H	0.272849	1.395421	0.139330
H264	H	0.188478	1.314035	0.186143
H265	H	0.175736	1.362928	0.134406
O266	O	1.013998	0.420275	-0.113738
C267	C	1.048416	0.422174	-0.064372
H268	H	1.025165	0.476757	-0.034729
H269	H	1.114825	0.404740	-0.091765
C270	C	1.056271	0.307030	-0.049895
C271	C	1.027708	0.374068	-0.013482
H272	H	1.043502	0.277354	-0.018505
H273	H	1.033086	0.305749	-0.083155
H274	H	1.111611	0.292511	-0.072721
H275	H	0.972369	0.388589	0.009336
H276	H	1.050884	0.375350	0.019784
O277	O	0.560326	0.290070	0.164126
C278	C	0.494864	0.269004	0.185950
H279	H	0.512714	0.215921	0.200196
H280	H	0.472413	0.267082	0.142258
C281	C	0.407650	0.385495	0.232070
C282	C	0.429572	0.320300	0.249573
H283	H	0.367373	0.417138	0.271314
H284	H	0.451752	0.399689	0.217365
H285	H	0.388946	0.383884	0.195659
H286	H	0.448284	0.321911	0.285978
H287	H	0.385471	0.306108	0.264287
O288	O	0.680009	0.925907	-0.291129
C289	C	0.683399	0.978333	-0.248225
H290	H	0.707128	0.955437	-0.208271
H291	H	0.622068	1.018120	-0.220625
C292	C	0.708749	1.040904	-0.341686
C293	C	0.737901	1.012782	-0.292618
H294	H	0.742366	1.062157	-0.369069
H295	H	0.706463	1.005585	-0.370591
H296	H	0.657641	1.074056	-0.318678
H297	H	0.789004	0.979625	-0.315627
H298	H	0.740198	1.048096	-0.263718
O299	O	0.932364	0.963750	-0.020475
C300	C	0.974134	1.008142	-0.020132
H301	H	0.999265	1.018905	-0.074608
H302	H	1.024010	0.983069	-0.002106
C303	C	0.887575	1.062745	0.096389
C304	C	0.918435	1.075969	0.029481
H305	H	0.853219	1.104583	0.126994
H306	H	0.859435	1.032836	0.096159
H307	H	0.929145	1.041849	0.111401
H308	H	0.876867	1.096856	0.014467
H309	H	0.946567	1.105883	0.029709
O310	O	0.334212	1.249434	0.366047
C311	C	0.372960	1.247076	0.294810
H312	H	0.393851	1.192507	0.265875
H313	H	0.425547	1.263770	0.286631
C314	C	0.290370	1.362683	0.302665
C315	C	0.316023	1.295662	0.267127
H316	H	0.255250	1.392655	0.285589
H317	H	0.264267	1.364274	0.350660
H318	H	0.334198	1.376586	0.295847
H319	H	0.272196	1.281757	0.273953
H320	H	0.342117	1.294070	0.219133
O321	O	0.507677	0.477941	0.181640
C322	C	0.447799	0.542994	0.201632
H323	H	0.471585	0.581466	0.173495
H324	H	0.426590	0.560240	0.259891
C325	C	0.349696	0.491539	0.217340
C326	C	0.378909	0.538790	0.182777
H327	H	0.307199	0.488946	0.205712
H328	H	0.390036	0.447712	0.203873
H329	H	0.332027	0.505916	0.265886
H330	H	0.396586	0.524408	0.134231
H331	H	0.338570	0.582615	0.196235
H332	H	-0.155011	0.981999	0.266039
H333	H	0.438774	1.132578	0.135110
H334	H	0.668710	0.752509	-0.461926
H335	H	1.094881	0.910508	-0.249743
H336	H	1.035507	0.823984	-0.274100
H337	H	0.526960	0.598182	0.175241
H338	H	0.329146	1.100895	0.520908
H339	H	0.113071	0.761587	0.056521
H340	H	0.235037	0.908113	0.195816
H341	H	0.926666	0.804399	-0.176883
H342	H	1.066605	0.473835	0.230742
H343	H	0.393877	0.661975	-0.038185
O344	O	-0.048659	1.016249	0.298754
C345	C	-0.095107	1.005487	0.362795
H346	H	-0.085064	0.948465	0.360505
H347	H	-0.159626	1.035081	0.374130
C348	C	-0.084589	1.100819	0.423347
C349	C	-0.072250	1.030782	0.420536
H350	H	-0.070494	1.116425	0.458965
H351	H	-0.053299	1.108071	0.380201
H352	H	-0.138356	1.125471	0.432790
H353	H	-0.018483	1.006130	0.411085
H354	H	-0.103531	1.023526	0.463682
H355	H	0.421476	0.865308	0.429187
O356	O	0.515393	0.681315	-0.019831
C357	C	0.518507	0.630052	-0.068539
H358	H	0.462290	0.647111	-0.079474
H359	H	0.524769	0.580381	-0.046946
C360	C	0.658439	0.597153	-0.122710
C361	C	0.589394	0.618109	-0.136146
H362	H	0.702167	0.589783	-0.164413
H363	H	0.656342	0.631688	-0.089893
H364	H	0.663646	0.555763	-0.104715
H365	H	0.584183	0.659502	-0.154133
H366	H	0.591492	0.583580	-0.168968
O367	O	0.682658	0.968101	-0.461403
C368	C	0.685785	1.016047	-0.506483
H369	H	0.659886	1.005602	-0.545711
H370	H	0.749387	1.011238	-0.534846
C371	C	0.670081	1.101856	-0.416243
C372	C	0.638264	1.089030	-0.464420
H373	H	0.640771	1.146876	-0.390296
H374	H	0.667977	1.069553	-0.385871
H375	H	0.723082	1.097844	-0.439886
H376	H	0.585268	1.093034	-0.440776
H377	H	0.640358	1.121335	-0.494786
H378	H	0.327984	0.860170	0.150235
O379	O	0.090123	0.990058	0.273663
C380	C	0.160077	0.993899	0.277337
H381	H	0.210646	0.968224	0.225782
H382	H	0.172697	0.966632	0.320228
C383	C	0.089025	1.101142	0.356375
C384	C	0.151133	1.069613	0.293053
H385	H	0.083507	1.147846	0.366072
H386	H	0.041895	1.098554	0.353902
H387	H	0.099549	1.078414	0.392110
H388	H	0.140604	1.092337	0.257318
H389	H	0.198261	1.072207	0.295520
H390	H	0.784617	0.507752	0.089295
O391	O	0.665458	0.701705	-0.286464
C392	C	0.666012	0.710526	-0.353121
H393	H	0.693810	0.750274	-0.371570
H394	H	0.603283	0.728792	-0.351251
C395	C	0.679662	0.592972	-0.380881
C396	C	0.713810	0.641788	-0.403542
H397	H	0.709142	0.550572	-0.411983
H398	H	0.679285	0.587030	-0.335972
H399	H	0.627388	0.608203	-0.379323
H400	H	0.766078	0.626561	-0.405091
H401	H	0.714196	0.647727	-0.448452
H402	H	0.908863	0.530091	-0.021705
O403	O	0.322572	1.069714	-0.045331
C404	C	0.356865	0.998629	-0.071036
H405	H	0.379508	0.971111	-0.032493
H406	H	0.407705	0.988355	-0.122660
C407	C	0.267251	1.005830	-0.128786
C408	C	0.295055	0.972031	-0.081443
H409	H	0.229125	0.989422	-0.135208
H410	H	0.244148	1.053721	-0.111470
H411	H	0.309624	0.997265	-0.171801
H412	H	0.252685	0.980603	-0.038427
H413	H	0.318149	0.924140	-0.098752
O414	O	0.787688	0.379539	0.088146
C415	C	0.789296	0.337252	0.032364
H416	H	0.750161	0.369217	0.006797
H417	H	0.767037	0.294816	0.052279
C418	C	0.922052	0.265945	0.010464
C419	C	0.873991	0.305207	-0.020940
H420	H	0.974296	0.246175	-0.022415
H421	H	0.920968	0.294433	0.048047
H422	H	0.903493	0.230587	0.027059
H423	H	0.892544	0.340569	-0.037527
H424	H	0.875080	0.276725	-0.058528
H425	H	0.679807	0.923381	-0.164056
O426	O	0.272715	1.203877	0.019163
C427	C	0.251042	1.174658	-0.029942
H428	H	0.263704	1.117803	-0.027994
H429	H	0.286128	1.181004	-0.083893
C430	C	0.147313	1.280800	-0.015729
C431	C	0.162860	1.210971	-0.013332
H432	H	0.092919	1.303201	-0.005485
H433	H	0.161916	1.300487	0.017352
H434	H	0.176558	1.286078	-0.060689
H435	H	0.133623	1.205693	0.031630
H436	H	0.148250	1.191284	-0.046405
H437	H	0.563495	0.161952	0.163044
H438	H	0.666417	0.717055	-0.159579
