data_functionalizedCrystal
_audit_creation_method	'MofGen! by Chris Wilmer'
_symmetry_space_group_name_H-M	'P1'
_symmetry_Int_Tables_number	1
_symmetry_cell_setting	triclinic
loop_
_symmetry_equiv_pos_as_xyz
  x,y,z
_cell_length_a	14.971486
_cell_length_b	10.654541
_cell_length_c	13.448316
_cell_angle_alpha	89.993648
_cell_angle_beta	89.998199
_cell_angle_gamma	84.049029
loop_
_atom_site_label
_atom_site_type_symbol
_atom_site_fract_x
_atom_site_fract_y
_atom_site_fract_z
O1	O	1.187837	0.163659	-0.082577
O2	O	0.927543	0.183258	-0.082604
O3	O	1.063676	-0.009345	-0.082584
O4	O	1.051704	0.356262	-0.082597
O5	O	1.063659	-0.009357	0.082800
O6	O	0.927526	0.183246	0.082780
O7	O	1.187820	0.163648	0.082807
Cu8	Cu	1.057671	0.173446	0.097894
Cu9	Cu	1.057692	0.173460	-0.097691
O10	O	1.051687	0.356251	0.082787
C11	C	0.894205	0.182376	0.000085
C12	C	0.794894	0.179749	0.000074
C13	C	1.062789	-0.056140	0.000107
C14	C	1.060160	-0.195555	0.000106
C15	C	0.738284	0.292898	0.000072
C16	C	0.644971	0.290423	0.000087
C17	C	0.608270	0.174797	0.000097
C18	C	0.664887	0.061639	0.000103
C19	C	0.758199	0.064116	0.000095
C20	C	0.470397	0.056485	0.000117
C21	C	0.377079	0.054008	0.000123
C22	C	0.357169	0.282792	0.000108
C23	C	0.450480	0.285268	0.000100
C24	C	0.507091	0.172110	0.000104
C25	C	1.222944	-0.225272	0.000135
C26	C	1.303097	-0.305626	0.000152
C27	C	1.300621	-0.436618	0.000148
C28	C	1.217984	-0.487256	0.000125
C29	C	1.137831	-0.406902	0.000109
C30	C	1.140315	-0.275909	0.000115
C31	C	0.975050	-0.377185	0.000072
C32	C	0.977523	-0.246194	0.000083
C33	C	0.892412	-0.427824	0.000049
C34	C	0.812257	-0.347470	0.000040
C35	C	0.814736	-0.216471	0.000044
C36	C	0.897370	-0.165839	0.000066
C37	C	1.221158	0.164530	0.000116
C38	C	1.320469	0.167157	0.000120
C39	C	1.052574	0.403045	0.000093
C40	C	1.055203	0.542460	0.000089
N41	N	1.057663	0.173435	0.235458
N42	N	1.057707	0.173461	-0.235256
C43	C	1.117962	0.088186	0.287508
C44	C	1.117968	0.088185	0.391611
C45	C	1.057678	0.173440	0.443663
C46	C	0.997373	0.258694	0.391606
C47	C	0.997364	0.258688	0.287505
C48	C	0.997398	0.258702	0.608587
C49	C	0.997408	0.258710	0.712695
C50	C	1.118002	0.088199	0.712692
C51	C	1.117992	0.088193	0.608591
C52	C	1.057688	0.173449	0.556542
H53	H	0.598882	0.382560	0.000083
H54	H	0.634998	-0.032506	0.000126
N55	N	0.932371	0.350661	0.768825
H56	H	0.892483	0.302574	0.812031
H57	H	0.966954	0.406338	0.811944
N58	N	1.183025	-0.003750	0.447735
H59	H	1.148530	-0.059458	0.490941
H60	H	1.221200	-0.057651	0.398886
N61	N	0.337482	-0.070692	0.000159
H62	H	0.299206	-0.076825	-0.061143
H63	H	0.387545	-0.141937	0.000210
H64	H	0.311071	0.374929	0.000109
N65	N	1.183017	-0.003752	0.552441
H66	H	1.246589	0.010859	0.570544
H67	H	1.172094	-0.092870	0.570588
N68	N	0.723138	-0.402089	0.000025
H69	H	0.672735	-0.331312	0.000022
H70	H	0.718574	-0.455777	-0.061290
N71	N	1.183048	-0.003755	0.768824
H72	H	1.173905	0.009179	0.842670
H73	H	1.172171	-0.092872	0.750637
N74	N	0.889737	-0.569106	0.000040
H75	H	0.953051	-0.612328	0.000057
H76	H	0.857130	-0.594722	0.061342
H77	H	1.365889	-0.502043	0.000154
H78	H	0.749465	-0.151052	0.000026
H79	H	0.899396	-0.059181	0.000076
N80	N	0.777869	0.417607	0.000065
H81	H	0.816136	0.423739	-0.061247
H82	H	0.727796	0.488839	0.000106
N83	N	0.932353	0.350648	0.552444
H84	H	0.894163	0.404662	0.601213
H85	H	0.966934	0.406244	0.509239
N86	N	0.819254	-0.057929	0.000095
H87	H	0.858413	-0.062001	-0.061213
H88	H	0.858355	-0.061930	0.061443
N89	N	0.932350	0.350647	0.447753
H90	H	0.943197	0.439802	0.429620
H91	H	0.868807	0.335925	0.429630
N92	N	1.182994	-0.003762	0.231369
H93	H	1.221192	-0.057768	0.280143
H94	H	1.148408	-0.059365	0.188188
N95	N	0.932323	0.350628	0.231361
H96	H	0.894131	0.404639	0.280130
H97	H	0.966899	0.406227	0.188153
H98	H	0.480359	0.379421	0.000082
H99	H	1.224967	-0.118613	0.000151
N100	N	0.531452	-0.065567	0.000119
H101	H	0.570609	-0.069633	-0.061192
H102	H	0.570555	-0.069573	0.061465
N103	N	1.392223	-0.251009	0.000191
H104	H	1.396899	-0.197305	-0.061109
H105	H	1.396802	-0.197402	0.061548
N106	N	1.215306	-0.628537	0.000112
H107	H	1.246675	-0.665909	-0.061193
H108	H	1.246638	-0.665837	0.061464
