data_functionalizedCrystal
_audit_creation_method	'MofGen! by Chris Wilmer'
_symmetry_space_group_name_H-M	'P1'
_symmetry_Int_Tables_number	1
_symmetry_cell_setting	triclinic
loop_
_symmetry_equiv_pos_as_xyz
  x,y,z
_cell_length_a	10.686220
_cell_length_b	29.839131
_cell_length_c	10.686551
_cell_angle_alpha	94.410099
_cell_angle_beta	89.691918
_cell_angle_gamma	94.423467
loop_
_atom_site_label
_atom_site_type_symbol
_atom_site_fract_x
_atom_site_fract_y
_atom_site_fract_z
Zn1	Zn	1.972144	-0.109531	0.562362
Zn2	Zn	1.955808	-0.190848	0.352586
Zn3	Zn	1.746247	-0.121024	0.368677
Zn4	Zn	1.762239	-0.189937	0.578364
O5	O	1.859109	-0.152835	0.465497
O6	O	2.145524	-0.115889	0.521104
O7	O	1.914480	-0.186776	0.179174
O8	O	1.776357	-0.056627	0.394408
O9	O	2.133522	-0.175632	0.366982
O10	O	1.942322	-0.048183	0.536707
O11	O	1.760516	-0.135477	0.190996
O12	O	1.572821	-0.134594	0.409924
O13	O	1.803613	-0.174081	0.751788
O14	O	1.584570	-0.185225	0.563980
O15	O	1.957829	-0.115006	0.740032
O16	O	1.929986	-0.253599	0.382499
O17	O	1.787772	-0.252930	0.548377
C18	C	1.533178	-0.161058	0.490435
C19	C	1.393745	-0.164586	0.501133
C20	C	1.858878	-0.269565	0.465453
C21	C	1.858897	-0.319499	0.465467
C22	C	1.933315	-0.629464	0.379231
C23	C	1.933474	-0.817132	0.379268
O24	O	1.996563	-0.841676	0.305913
N25	N	1.859377	-0.840268	0.465572
C26	C	1.785241	-0.816484	0.551879
O27	O	1.722231	-0.840468	0.625295
C28	C	1.785090	-0.628816	0.551847
C29	C	1.859182	-0.605683	0.465528
C30	C	2.007402	-0.606331	0.292920
C31	C	2.007357	-0.559417	0.292908
C32	C	1.933224	-0.535636	0.379205
C33	C	1.859137	-0.558769	0.465516
C34	C	1.710962	-0.605033	0.638159
C35	C	1.710934	-0.558113	0.638145
C36	C	1.785026	-0.534980	0.551827
C37	C	1.784958	-0.488075	0.551801
N38	N	1.859055	-0.464939	0.465496
C39	C	1.933188	-0.488720	0.379198
C40	C	1.785324	-0.915012	0.551888
C41	C	1.785360	-0.961928	0.551895
C42	C	1.933594	-0.962573	0.379285
C43	C	1.933551	-0.915656	0.379273
C44	C	1.859421	-0.891876	0.465583
C45	C	1.933086	-0.390197	0.379177
C46	C	1.933030	-0.343279	0.379169
C47	C	1.784801	-0.342638	0.551783
C48	C	1.784851	-0.389552	0.551787
C49	C	1.859004	-0.413330	0.465480
O50	O	1.721913	-0.463501	0.625126
O51	O	1.996210	-0.464726	0.305811
C52	C	1.933361	-0.676378	0.379244
C53	C	1.859273	-0.699511	0.465554
C54	C	1.785141	-0.675730	0.551852
C55	C	1.859309	-0.746428	0.465561
C56	C	1.933442	-0.770208	0.379263
C57	C	2.007539	-0.747072	0.292959
C58	C	2.007493	-0.700158	0.292946
C59	C	1.711044	-0.698867	0.638156
C60	C	1.711094	-0.745781	0.638161
C61	C	1.785227	-0.769561	0.551863
C62	C	2.186314	-0.144580	0.440463
C63	C	2.325749	-0.141063	0.429795
C64	C	1.884327	-0.143160	0.792700
C65	C	1.895073	-0.139037	0.932134
C66	C	1.859378	-0.035647	0.465567
C67	C	1.859492	0.014291	0.465597
C68	C	1.834062	-0.162438	0.139563
C69	C	1.823559	-0.166429	0.000111
H70	H	1.345283	-0.187428	0.570390
H71	H	1.993364	-0.324446	0.308874
H72	H	2.067826	-0.681327	0.222658
H73	H	1.754116	-0.193035	0.951637
C74	C	1.987477	-0.103505	0.996843
C75	C	1.922240	-0.074295	1.077498
C76	C	2.007316	-0.041554	1.137115
H77	H	2.046028	-0.117761	1.043868
H78	H	2.030878	-0.086846	0.935540
H79	H	1.878859	-0.090951	1.138792
H80	H	1.863694	-0.060028	1.030505
H81	H	2.050717	-0.024895	1.075812
H82	H	2.065862	-0.055814	1.184133
H83	H	1.963063	-0.021728	1.191837
C84	C	1.390505	-0.110679	0.337360
C85	C	1.459494	-0.136571	0.251147
C86	C	1.519186	-0.108597	0.165986
H87	H	1.329288	-0.096384	0.293907
H88	H	1.445438	-0.088436	0.381530
H89	H	1.404565	-0.158806	0.206982
H90	H	1.520731	-0.150866	0.294563
H91	H	1.574119	-0.086354	0.210156
H92	H	1.457961	-0.094303	0.122544
H93	H	1.566011	-0.126160	0.107488
H94	H	2.067897	-0.766443	0.222689
H95	H	1.993471	-0.409551	0.308900
H96	H	2.067693	-0.540584	0.222623
H97	H	2.067777	-0.625688	0.222645
C98	C	1.704228	-0.414704	0.645300
C99	C	1.618406	-0.445805	0.580370
C100	C	1.544112	-0.468974	0.666481
H101	H	1.756261	-0.430189	0.696376
H102	H	1.659994	-0.393836	0.696671
H103	H	1.662636	-0.466671	0.529020
H104	H	1.566346	-0.430332	0.529298
H105	H	1.499879	-0.448106	0.717852
H106	H	1.596155	-0.484456	0.717553
H107	H	1.485866	-0.490076	0.622439
H108	H	1.724438	-0.323269	0.622042
H109	H	1.993883	-0.896824	0.308986
H110	H	1.724955	-0.895653	0.622174
H111	H	1.725014	-0.980760	0.622173
C112	C	2.014338	-0.988315	0.285651
C113	C	2.140516	-0.972884	0.303609
C114	C	2.214952	-0.996576	0.217379
H115	H	2.003945	-1.019577	0.297903
H116	H	1.989644	-0.983585	0.202713
H117	H	2.165202	-0.977618	0.386527
H118	H	2.150948	-0.941625	0.291347
H119	H	2.190258	-0.991846	0.134441
H120	H	2.204548	-1.027837	0.229638
H121	H	2.300570	-0.986107	0.229544
C122	C	1.630737	-0.630189	0.731949
C123	C	1.707930	-0.652921	0.806969
C124	C	1.634068	-0.676102	0.893382
H125	H	1.586578	-0.609347	0.783461
H126	H	1.572438	-0.651343	0.688157
H127	H	1.766206	-0.631769	0.850758
H128	H	1.752089	-0.673769	0.755492
H129	H	1.575769	-0.697256	0.849590
H130	H	1.589912	-0.655257	0.944885
H131	H	1.686431	-0.691531	0.944286
C132	C	1.630316	-0.532378	0.731919
C133	C	1.565425	-0.562684	0.807487
C134	C	1.491138	-0.538996	0.893873
H135	H	1.682332	-0.511222	0.783063
H136	H	1.571905	-0.516913	0.688105
H137	H	1.623829	-0.578142	0.851298
H138	H	1.513386	-0.583841	0.756378
H139	H	1.432727	-0.523530	0.850059
H140	H	1.543163	-0.517840	0.945008
H141	H	1.447092	-0.559555	0.945149
C142	C	1.630816	-0.770859	0.732085
C143	C	1.667625	-0.755062	0.854131
C144	C	1.593726	-0.778155	0.940691
H145	H	1.545083	-0.765893	0.720280
H146	H	1.641471	-0.802209	0.719831
H147	H	1.656960	-0.723720	0.866381
H148	H	1.753347	-0.760029	0.865976
H149	H	1.604380	-0.809505	0.928437
H150	H	1.507996	-0.773187	0.928875
H151	H	1.618698	-0.767444	1.023509
H152	H	1.650678	-0.679508	0.708432
