data_functionalizedCrystal
_audit_creation_method	'MofGen! by Chris Wilmer'
_symmetry_space_group_name_H-M	'P1'
_symmetry_Int_Tables_number	1
_symmetry_cell_setting	triclinic
loop_
_symmetry_equiv_pos_as_xyz
  x,y,z
_cell_length_a	16.625548
_cell_length_b	18.050589
_cell_length_c	16.625539
_cell_angle_alpha	89.975176
_cell_angle_beta	89.979432
_cell_angle_gamma	90.029289
loop_
_atom_site_label
_atom_site_type_symbol
_atom_site_fract_x
_atom_site_fract_y
_atom_site_fract_z
Zn1	Zn	1.232648	-0.295637	-0.455929
Zn2	Zn	1.565982	0.037696	-0.122596
Zn3	Zn	1.899315	0.371030	0.210738
Zn4	Zn	1.232538	-0.419835	-0.321104
Zn5	Zn	1.565871	-0.086501	0.012229
Zn6	Zn	1.899205	0.246832	0.345562
Zn7	Zn	1.097810	-0.295665	-0.321109
Zn8	Zn	1.431143	0.037668	0.012224
Zn9	Zn	1.764477	0.371001	0.345557
Zn10	Zn	1.097767	-0.419792	-0.455894
Zn11	Zn	1.431100	-0.086459	-0.122561
Zn12	Zn	1.764434	0.246875	0.210773
O13	O	1.165191	-0.357732	-0.388509
O14	O	1.498524	-0.024399	-0.055176
O15	O	1.831857	0.308934	0.278158
O16	O	1.345466	-0.312118	-0.438056
O17	O	1.678799	0.021215	-0.104723
O18	O	2.012133	0.354549	0.228610
O19	O	1.214638	-0.403393	-0.208272
O20	O	1.547971	-0.070060	0.125061
O21	O	1.881305	0.263274	0.458394
O22	O	1.115761	-0.191737	-0.339010
O23	O	1.449094	0.141596	-0.005677
O24	O	1.782428	0.474930	0.327657
O25	O	1.345385	-0.403366	-0.339001
O26	O	1.678718	-0.070032	-0.005668
O27	O	2.012052	0.263301	0.327665
O28	O	1.214826	-0.191716	-0.438061
O29	O	1.548159	0.141617	-0.104728
O30	O	1.881493	0.474951	0.228605
O31	O	1.115654	-0.312166	-0.208276
O32	O	1.448987	0.021167	0.125057
O33	O	1.782321	0.354500	0.458390
O34	O	0.984972	-0.312125	-0.338976
O35	O	1.318305	0.021208	-0.005643
O36	O	1.651639	0.354542	0.327690
O37	O	1.115687	-0.403293	-0.568731
O38	O	1.449021	-0.069960	-0.235398
O39	O	1.782354	0.263374	0.097936
O40	O	0.984940	-0.403320	-0.438002
O41	O	1.318274	-0.069987	-0.104669
O42	O	1.651607	0.263346	0.228664
O43	O	1.214784	-0.312077	-0.568757
O44	O	1.548117	0.021257	-0.235423
O45	O	1.881451	0.354590	0.097910
O46	O	1.214596	-0.523754	-0.338968
O47	O	1.547929	-0.190420	-0.005634
O48	O	1.881263	0.142913	0.327699
O49	O	1.115580	-0.523722	-0.437997
O50	O	1.448914	-0.190389	-0.104664
O51	O	1.782247	0.142944	0.228669
C52	C	0.955700	-0.357722	-0.388487
C53	C	1.289033	-0.024388	-0.055153
C54	C	1.622367	0.308945	0.278180
C55	C	0.866079	-0.357735	-0.388496
C56	C	1.199412	-0.024402	-0.055163
C57	C	1.532746	0.308932	0.278171
C58	C	1.165093	-0.550684	-0.388496
C59	C	1.498427	-0.217351	-0.055162
C60	C	1.831760	0.115982	0.278171
C61	C	1.165126	-0.633230	-0.388517
C62	C	1.498459	-0.299897	-0.055184
C63	C	1.831792	0.033437	0.278150
C64	C	0.537903	-0.357740	-0.388531
C65	C	0.871237	-0.024406	-0.055197
C66	C	1.204570	0.308927	0.278136
C67	C	0.629212	-0.357736	-0.388518
C68	C	0.962545	-0.024403	-0.055185
C69	C	1.295878	0.308930	0.278148
C70	C	0.701988	-0.357738	-0.388513
C71	C	1.035321	-0.024404	-0.055179
C72	C	1.368655	0.308929	0.278154
C73	C	0.793302	-0.357734	-0.388502
C74	C	1.126636	-0.024400	-0.055168
C75	C	1.459969	0.308933	0.278165
C76	C	1.111334	-0.832691	-0.442350
C77	C	1.444667	-0.499357	-0.109017
C78	C	1.778000	-0.166024	0.224316
C79	C	1.091677	-0.882133	-0.368775
C80	C	1.425011	-0.548799	-0.035441
C81	C	1.758344	-0.215466	0.297892
C82	C	1.165205	-0.784360	-0.388528
C83	C	1.498538	-0.451027	-0.055194
C84	C	1.831871	-0.117694	0.278139
C85	C	1.184901	-0.882000	-0.462112
C86	C	1.518234	-0.548667	-0.128779
C87	C	1.851567	-0.215333	0.204555
C88	C	1.165280	-0.930346	-0.388544
C89	C	1.498613	-0.597012	-0.055211
C90	C	1.831946	-0.263679	0.278123
C91	C	1.145510	-0.832715	-0.314913
C92	C	1.478843	-0.499382	0.018421
C93	C	1.812176	-0.166049	0.351754
C94	C	1.238767	-0.832578	-0.408300
C95	C	1.572101	-0.499245	-0.074966
C96	C	1.905434	-0.165912	0.258367
C97	C	1.219139	-0.881998	-0.334673
C98	C	1.552472	-0.548665	-0.001340
C99	C	1.885806	-0.215331	0.331994
C100	C	1.165160	-0.700262	-0.388519
C101	C	1.498493	-0.366929	-0.055186
C102	C	1.831826	-0.033596	0.278148
C103	C	1.165325	-1.014442	-0.388544
C104	C	1.498659	-0.681109	-0.055211
C105	C	1.831992	-0.347775	0.278122
C106	C	1.375500	-0.357743	-0.388532
C107	C	1.708833	-0.024410	-0.055199
C108	C	2.042166	0.308923	0.278134
C109	C	1.465121	-0.357748	-0.388542
C110	C	1.798454	-0.024415	-0.055209
C111	C	2.131787	0.308919	0.278125
C112	C	1.165243	-0.357677	-0.598818
C113	C	1.498577	-0.024344	-0.265485
C114	C	1.831910	0.308990	0.067849
C115	C	1.165266	-0.357653	-0.688439
C116	C	1.498599	-0.024320	-0.355106
C117	C	1.831932	0.309013	-0.021773
C118	C	1.165310	-0.164027	-0.388540
C119	C	1.498644	0.169307	-0.055207
C120	C	1.831977	0.502640	0.278126
C121	C	1.165361	-0.081481	-0.388553
C122	C	1.498695	0.251853	-0.055220
C123	C	1.832028	0.585186	0.278113
C124	C	1.165303	-0.357570	-1.016615
C125	C	1.498636	-0.024237	-0.683282
C126	C	1.831969	0.309097	-0.349948
C127	C	1.165290	-0.357596	-0.925307
C128	C	1.498624	-0.024262	-0.591973
C129	C	1.831957	0.309071	-0.258640
C130	C	1.165285	-0.357612	-0.852530
C131	C	1.498618	-0.024279	-0.519197
C132	C	1.831951	0.309054	-0.185863
C133	C	1.165271	-0.357637	-0.761216
C134	C	1.498604	-0.024303	-0.427882
C135	C	1.831938	0.309030	-0.094549
C136	C	1.165185	-0.357734	-0.179018
C137	C	1.498518	-0.024400	0.154315
C138	C	1.831852	0.308933	0.487648
C139	C	1.165319	-0.357548	-0.089398
C140	C	1.498652	-0.024215	0.243936
C141	C	1.831986	0.309119	0.577269
H142	H	1.029503	-0.903916	-0.352066
H143	H	1.362836	-0.570582	-0.018733
H144	H	1.696170	-0.237249	0.314600
C145	C	1.379315	-0.829150	-0.375332
C146	C	1.712648	-0.495817	-0.041999
C147	C	2.045981	-0.162484	0.291335
C148	C	1.322682	-0.803171	-0.430901
C149	C	1.656015	-0.469838	-0.097568
C150	C	1.989348	-0.136504	0.235765
H151	H	1.431120	-0.810998	-0.389297
H152	H	1.764453	-0.477665	-0.055963
H153	H	2.097787	-0.144332	0.277370
H154	H	1.365419	-0.812302	-0.323029
H155	H	1.698753	-0.478969	0.010304
H156	H	2.032086	-0.145636	0.343638
H157	H	1.379820	-0.881771	-0.375995
H158	H	1.713153	-0.548438	-0.042662
H159	H	2.046487	-0.215104	0.290671
H160	H	1.322172	-0.750550	-0.430234
H161	H	1.655505	-0.417217	-0.096901
H162	H	1.988839	-0.083883	0.236433
H163	H	1.336581	-0.820015	-0.483218
H164	H	1.669914	-0.486682	-0.149885
H165	H	2.003247	-0.153348	0.183449
H166	H	1.128809	-0.811156	-0.252673
H167	H	1.462142	-0.477823	0.080661
H168	H	1.795475	-0.144489	0.413994
H169	H	1.264728	-0.903512	-0.289111
H170	H	1.598061	-0.570178	0.044222
H171	H	1.931395	-0.236845	0.377555
C172	C	0.972790	-0.828474	-0.482810
C173	C	1.306124	-0.495140	-0.149477
C174	C	1.639457	-0.161807	0.183856
C175	C	1.049748	-0.803453	-0.503708
C176	C	1.383082	-0.470120	-0.170374
C177	C	1.716415	-0.136787	0.162959
H178	H	0.934770	-0.810418	-0.520685
H179	H	1.268104	-0.477085	-0.187351
H180	H	1.601437	-0.143752	0.145982
H181	H	0.972059	-0.881089	-0.482901
H182	H	1.305392	-0.547756	-0.149568
H183	H	1.638725	-0.214423	0.183765
H184	H	0.959346	-0.810869	-0.430675
H185	H	1.292680	-0.477536	-0.097342
H186	H	1.626013	-0.144203	0.235991
H187	H	1.063195	-0.821062	-0.555840
H188	H	1.396528	-0.487729	-0.222507
H189	H	1.729862	-0.154396	0.110826
H190	H	1.050482	-0.750827	-0.503625
H191	H	1.383815	-0.417493	-0.170291
H192	H	1.717149	-0.084160	0.163042
H193	H	1.201530	-0.903649	-0.524335
H194	H	1.534863	-0.570316	-0.191001
H195	H	1.868197	-0.236982	0.142332
