data_functionalizedCrystal
_audit_creation_method	'MofGen! by Chris Wilmer'
_symmetry_space_group_name_H-M	'P1'
_symmetry_Int_Tables_number	1
_symmetry_cell_setting	triclinic
loop_
_symmetry_equiv_pos_as_xyz
  x,y,z
_cell_length_a	14.971486
_cell_length_b	23.532407
_cell_length_c	14.048226
_cell_angle_alpha	89.988910
_cell_angle_beta	89.998499
_cell_angle_gamma	83.231404
loop_
_atom_site_label
_atom_site_type_symbol
_atom_site_fract_x
_atom_site_fract_y
_atom_site_fract_z
O1	O	1.186163	0.074216	-0.079061
O2	O	0.925669	0.083104	-0.079088
O3	O	1.063771	-0.004238	-0.079057
O4	O	1.048061	0.161558	-0.079093
O5	O	1.063755	-0.004243	0.079265
O6	O	0.925652	0.083099	0.079233
O7	O	1.186146	0.074211	0.079260
Zn8	Zn	1.055897	0.078654	0.104383
Zn9	Zn	1.055919	0.078661	-0.104212
O10	O	1.048044	0.161553	0.079228
C11	C	0.892340	0.082704	0.000069
C12	C	0.793056	0.081513	0.000059
C13	C	0.735288	0.132824	0.000050
C14	C	0.642001	0.131701	0.000064
C15	C	0.606482	0.079267	0.000082
C16	C	0.664257	0.027952	0.000094
C17	C	0.757543	0.029075	0.000087
C18	C	0.469819	0.025615	0.000108
C19	C	0.376527	0.024491	0.000114
C20	C	0.354277	0.128241	0.000085
C21	C	0.447563	0.129364	0.000078
C22	C	0.505331	0.078049	0.000089
C23	C	1.063363	-0.025458	0.000107
C24	C	1.062160	-0.088680	0.000114
C25	C	1.136342	-0.487466	0.000069
C26	C	1.135224	-0.546871	0.000062
O27	O	1.203992	-0.583321	0.000034
N28	N	1.053123	-0.569849	0.000054
C29	C	0.972133	-0.533418	0.000044
O30	O	0.902196	-0.558417	0.000036
C31	C	0.973251	-0.474014	0.000044
C32	C	1.055358	-0.451040	0.000062
C33	C	1.218442	-0.464491	0.000086
C34	C	1.219559	-0.405090	0.000095
C35	C	1.138576	-0.368664	0.000087
C36	C	1.056475	-0.391639	0.000071
C37	C	0.892263	-0.437584	0.000027
C38	C	0.893388	-0.378177	0.000027
C39	C	0.975495	-0.355203	0.000045
C40	C	0.976609	-0.295812	0.000073
N41	N	1.058711	-0.272834	0.000081
C42	C	1.139694	-0.309260	0.000088
C43	C	0.969791	-0.658170	0.000041
C44	C	0.968671	-0.717573	0.000047
C45	C	1.131763	-0.731022	0.000064
C46	C	1.132882	-0.671618	0.000064
C47	C	1.051892	-0.635193	0.000049
C48	C	1.142034	-0.184513	0.000108
C49	C	1.143143	-0.125106	0.000121
C50	C	0.980052	-0.111663	0.000100
C51	C	0.978942	-0.171064	0.000092
C52	C	1.059940	-0.207489	0.000093
O53	O	0.907878	-0.259327	0.000097
O54	O	1.209619	-0.284253	0.000084
C55	C	1.219475	0.074611	0.000101
C56	C	1.318760	0.075802	0.000104
C57	C	1.048453	0.182773	0.000063
C58	C	1.049655	0.245996	0.000050
N59	N	1.055889	0.078649	0.246744
N60	N	1.055934	0.078661	-0.246572
C61	C	1.117059	0.039990	0.296576
C62	C	1.117065	0.039990	0.396234
C63	C	1.055904	0.078652	0.446058
C64	C	0.994727	0.117313	0.396218
C65	C	0.994717	0.117310	0.296563
C66	C	0.994753	0.117317	0.603933
C67	C	0.994763	0.117320	0.703595
C68	C	1.117101	0.039997	0.703604
C69	C	1.117091	0.039994	0.603948
C70	C	1.055915	0.078656	0.554116
H71	H	0.347612	-0.018205	0.000129
N72	N	0.819847	-0.026270	0.000095
H73	H	0.859047	-0.028116	-0.058595
H74	H	0.858988	-0.028084	0.058823
H75	H	0.307237	0.170023	0.000080
H76	H	1.207990	-0.214164	0.000105
H77	H	0.594969	0.173484	0.000055
N78	N	1.221441	-0.646844	0.000080
H79	H	1.225554	-0.622491	-0.058608
H80	H	1.225480	-0.622533	0.058810
H81	H	1.210008	-0.106405	0.000138
H82	H	0.516853	-0.016172	0.000118
N83	N	0.880108	-0.742342	0.000039
H84	H	0.876007	-0.766679	-0.058654
H85	H	0.876049	-0.766668	0.058764
N86	N	0.928766	0.159016	0.449955
H87	H	0.890012	0.183505	0.403262
H88	H	0.889426	0.137174	0.491321
N89	N	1.183023	-0.001720	0.242857
H90	H	1.149061	-0.026973	0.201530
H91	H	1.222420	0.020114	0.201545
N92	N	0.485863	0.185920	0.000058
H93	H	0.524075	0.188697	0.058743
H94	H	0.524024	0.188666	-0.058675
N95	N	0.806039	-0.338885	0.000031
H96	H	0.802868	-0.313926	-0.058652
H97	H	0.753906	-0.362492	0.000061
N98	N	0.890387	-0.195848	0.000086
H99	H	0.839255	-0.163756	0.000086
H100	H	0.886378	-0.220190	-0.058614
H101	H	0.635331	-0.014741	0.000122
N102	N	0.892709	-0.072369	0.000118
H103	H	0.905883	-0.031253	0.000129
H104	H	0.856899	-0.079799	-0.058575
N105	N	1.183072	-0.001687	0.449983
H106	H	1.221830	-0.026170	0.403298
H107	H	1.222402	0.020183	0.491297
N108	N	0.928787	0.159018	0.757323
H109	H	0.889391	0.137212	0.798687
H110	H	0.962800	0.184267	0.798597
N111	N	0.928737	0.159003	0.242810
H112	H	0.889992	0.183496	0.289493
H113	H	0.962743	0.184216	0.201443
N114	N	1.183061	-0.001700	0.550206
H115	H	1.221816	-0.026193	0.596894
H116	H	1.149041	-0.026914	0.508873
N117	N	1.308118	-0.380315	0.000110
H118	H	1.359243	-0.412411	0.000111
H119	H	1.312144	-0.355954	-0.058580
N120	N	1.219113	-0.770316	0.000072
H121	H	1.205939	-0.811433	0.000065
H122	H	1.254924	-0.762865	-0.058616
N123	N	1.305796	-0.503774	0.000095
H124	H	1.357967	-0.480196	0.000106
H125	H	1.308880	-0.528718	0.058790
H126	H	0.903835	-0.628515	0.000037
N127	N	0.803703	-0.462354	0.000021
H128	H	0.752579	-0.430257	0.000014
H129	H	0.799685	-0.486701	-0.058671
H130	H	0.944934	0.148797	0.563363
N131	N	0.773594	0.189378	0.000019
H132	H	0.722840	0.221713	0.000016
H133	H	0.811819	0.192104	0.058706
N134	N	1.183087	-0.001702	0.757344
H135	H	1.173812	0.004163	0.828036
H136	H	1.173122	-0.042116	0.739940
