data_functionalizedCrystal
_audit_creation_method	'MofGen! by Chris Wilmer'
_symmetry_space_group_name_H-M	'P1'
_symmetry_Int_Tables_number	1
_symmetry_cell_setting	triclinic
loop_
_symmetry_equiv_pos_as_xyz
  x,y,z
_cell_length_a	27.732048
_cell_length_b	27.732025
_cell_length_c	26.210047
_cell_angle_alpha	89.981000
_cell_angle_beta	90.003465
_cell_angle_gamma	82.638061
loop_
_atom_site_label
_atom_site_type_symbol
_atom_site_fract_x
_atom_site_fract_y
_atom_site_fract_z
O1	O	0.640926	0.057511	0.042348
O2	O	1.140926	0.557511	0.542348
O3	O	0.500132	0.066256	0.042361
O4	O	1.000132	0.566256	0.542361
O5	O	0.574908	-0.008514	0.042370
O6	O	1.074908	0.491486	0.542370
O7	O	0.566151	0.132281	0.042339
O8	O	1.066151	0.632281	0.542339
O9	O	0.574893	-0.008502	-0.042488
O10	O	1.074893	0.491498	0.457512
O11	O	0.500118	0.066268	-0.042497
O12	O	1.000118	0.566268	0.457503
O13	O	0.640912	0.057522	-0.042510
O14	O	1.140912	0.557522	0.457490
Cu15	Cu	0.570514	0.061896	-0.050252
Cu16	Cu	1.070514	0.561896	0.449748
Cu17	Cu	0.570531	0.061882	0.050103
Cu18	Cu	1.070531	0.561882	0.550103
O19	O	0.566137	0.132293	-0.042519
O20	O	1.066137	0.632293	0.457481
C21	C	0.482118	0.066079	-0.000066
C22	C	0.982118	0.566079	0.499934
C23	C	0.428463	0.065526	-0.000060
C24	C	0.928463	0.565526	0.499940
C25	C	0.574719	-0.026515	-0.000054
C26	C	1.074719	0.473485	0.499946
C27	C	0.574170	-0.080171	-0.000039
C28	C	1.074170	0.419829	0.499961
C29	C	0.089645	0.106230	-0.000091
C30	C	0.589645	0.606230	0.499909
C31	C	-0.112014	0.104179	-0.000095
C32	C	0.387986	0.604179	0.499905
O33	O	-0.143273	0.141400	-0.000125
O34	O	0.356727	0.641400	0.499875
N35	N	-0.131135	0.059843	-0.000085
N36	N	0.368865	0.559843	0.499915
C37	C	-0.099836	0.016017	-0.000076
C38	C	0.400164	0.516017	0.499924
O39	O	-0.120726	-0.021740	-0.000073
O40	O	0.379274	0.478260	0.499927
C41	C	0.101822	0.018069	-0.000076
C42	C	0.601822	0.518069	0.499924
C43	C	0.120939	0.062407	-0.000081
C44	C	0.620939	0.562407	0.499919
C45	C	0.108763	0.150565	-0.000097
C46	C	0.608763	0.650565	0.499903
C47	C	0.159175	0.151077	-0.000093
C48	C	0.659175	0.651077	0.499907
C49	C	0.190469	0.107255	-0.000083
C50	C	0.690469	0.607255	0.499917
C51	C	0.171351	0.062920	-0.000077
C52	C	0.671351	0.562920	0.499923
C53	C	0.133119	-0.025757	-0.000072
C54	C	0.633119	0.474243	0.499928
C55	C	0.183537	-0.025240	-0.000073
C56	C	0.683537	0.474760	0.499927
C57	C	0.202654	0.019099	-0.000078
C58	C	0.702654	0.519099	0.499922
C59	C	0.253057	0.019609	-0.000064
C60	C	0.753057	0.519609	0.499936
N61	N	0.272177	0.063945	-0.000074
N62	N	0.772177	0.563945	0.499926
C63	C	0.240883	0.107768	-0.000084
C64	C	0.740883	0.607768	0.499916
C65	C	-0.205710	0.014943	-0.000076
C66	C	0.294290	0.514943	0.499924
C67	C	-0.256125	0.014430	-0.000075
C68	C	0.243875	0.514430	0.499925
C69	C	-0.268299	0.102592	-0.000094
C70	C	0.231701	0.602592	0.499906
C71	C	-0.217884	0.103105	-0.000092
C72	C	0.282116	0.603105	0.499908
C73	C	-0.186590	0.059279	-0.000086
C74	C	0.313410	0.559279	0.499914
C75	C	0.346752	0.108840	-0.000076
C76	C	0.846752	0.608840	0.499924
C77	C	0.397169	0.109348	-0.000070
C78	C	0.897169	0.609348	0.499930
C79	C	0.409339	0.021187	-0.000053
C80	C	0.909339	0.521187	0.499947
C81	C	0.358927	0.020678	-0.000056
C82	C	0.858927	0.520678	0.499944
C83	C	0.327634	0.064509	-0.000069
C84	C	0.827634	0.564509	0.499931
O85	O	0.284344	-0.017592	-0.000040
O86	O	0.784344	0.482408	0.499960
O87	O	0.261783	0.145519	-0.000099
O88	O	0.761783	0.645519	0.499901
C89	C	0.039233	0.105718	-0.000095
C90	C	0.539233	0.605718	0.499905
C91	C	0.020115	0.061383	-0.000089
C92	C	0.520115	0.561383	0.499911
C93	C	0.051410	0.017560	-0.000079
C94	C	0.551410	0.517560	0.499921
C95	C	-0.030299	0.060870	-0.000088
C96	C	0.469701	0.560870	0.499912
C97	C	-0.061593	0.104692	-0.000098
C98	C	0.438407	0.604692	0.499902
C99	C	-0.042473	0.149028	-0.000108
C100	C	0.457527	0.649028	0.499892
C101	C	0.007939	0.149540	-0.000104
C102	C	0.507939	0.649540	0.499896
C103	C	0.032289	-0.026776	-0.000069
C104	C	0.532289	0.473224	0.499931
C105	C	-0.018123	-0.027284	-0.000072
C106	C	0.481877	0.472716	0.499928
C107	C	-0.049417	0.016538	-0.000082
C108	C	0.450583	0.516538	0.499918
C109	C	0.570281	-0.463343	0.046188
C110	C	1.070281	0.036657	0.546188
C111	C	0.572334	-0.261683	0.046204
C112	C	1.072334	0.238317	0.546204
O113	O	0.572625	-0.235621	0.085544
O114	O	1.072625	0.264379	0.585544
N115	N	0.572582	-0.236456	-0.000051
N116	N	1.072582	0.263544	0.499949
C117	C	0.572321	-0.261646	-0.046313
C118	C	1.072321	0.238354	0.453687
O119	O	0.572585	-0.235562	-0.085655
O120	O	1.072585	0.264438	0.414345
C121	C	0.570272	-0.463305	-0.046329
C122	C	1.070272	0.036695	0.453671
C123	C	0.570019	-0.488530	-0.000071
C124	C	1.070019	0.011470	0.499929
C125	C	0.570028	-0.488567	0.092442
C126	C	1.070028	0.011433	0.592442
C127	C	0.569512	-0.538979	0.092437
C128	C	1.069512	-0.038979	0.592437
C129	C	0.569250	-0.564166	0.046179
C130	C	1.069250	-0.064166	0.546179
C131	C	0.569503	-0.538941	-0.000075
C132	C	1.069503	-0.038941	0.499925
C133	C	0.570014	-0.488496	-0.092590
C134	C	1.070014	0.011504	0.407410
C135	C	0.569503	-0.538914	-0.092590
C136	C	1.069503	-0.038914	0.407410
C137	C	0.569250	-0.564138	-0.046332
C138	C	1.069250	-0.064138	0.453668
C139	C	0.568724	-0.614540	-0.046339
C140	C	1.068724	-0.114540	0.453661
N141	N	0.568476	-0.639767	-0.000084
N142	N	1.068476	-0.139767	0.499916
C143	C	0.568738	-0.614580	0.046175
C144	C	1.068738	-0.114580	0.546175
C145	C	0.573396	-0.155772	-0.046301
C146	C	1.073396	0.344228	0.453699
C147	C	0.573907	-0.105358	-0.046298
C148	C	1.073907	0.394642	0.453702
C149	C	0.573921	-0.105398	0.046219
C150	C	1.073921	0.394602	0.546219
C151	C	0.573406	-0.155813	0.046215
C152	C	1.073406	0.344187	0.546215
C153	C	0.573147	-0.181000	-0.000047
C154	C	1.073147	0.319000	0.499953
C155	C	0.567655	-0.720448	0.046162
C156	C	1.067655	-0.220448	0.546162
C157	C	0.567137	-0.770864	0.046153
C158	C	1.067137	-0.270864	0.546153
C159	C	0.567126	-0.770819	-0.046364
C160	C	1.067126	-0.270819	0.453636
C161	C	0.567641	-0.720408	-0.046355
C162	C	1.067641	-0.220408	0.453645
C163	C	0.567907	-0.695223	-0.000088
C164	C	1.067907	-0.195223	0.499912
O165	O	0.568438	-0.640634	-0.085658
O166	O	1.068438	-0.140634	0.414342
O167	O	0.568485	-0.640675	0.085511
O168	O	1.068485	-0.140675	0.585511
C169	C	0.570797	-0.412931	0.046192
C170	C	1.070797	0.087069	0.546192
C171	C	0.571050	-0.387707	-0.000062
C172	C	1.071050	0.112293	0.499938
C173	C	0.570787	-0.412894	-0.046320
C174	C	1.070787	0.087106	0.453680
C175	C	0.571561	-0.337292	-0.000058
C176	C	1.071561	0.162708	0.499942
C177	C	0.571824	-0.312105	0.046201
C178	C	1.071824	0.187895	0.546201
C179	C	0.571575	-0.337333	0.092455
C180	C	1.071575	0.162667	0.592455
C181	C	0.571060	-0.387744	0.092451
C182	C	1.071060	0.112256	0.592451
C183	C	0.571036	-0.387666	-0.092575
C184	C	1.071036	0.112334	0.407425
C185	C	0.571551	-0.337255	-0.092567
C186	C	1.071551	0.162745	0.407433
C187	C	0.571814	-0.312068	-0.046308
C188	C	1.071814	0.187932	0.453692
C189	C	0.658926	0.057700	-0.000082
C190	C	1.158926	0.557700	0.499918
C191	C	0.712581	0.058253	-0.000085
C192	C	1.212581	0.558253	0.499915
C193	C	0.566326	0.150294	-0.000094
C194	C	1.066326	0.650294	0.499906
C195	C	0.566874	0.203949	-0.000105
C196	C	1.066874	0.703949	0.499895
N197	N	0.570505	0.061906	-0.120836
N198	N	1.070505	0.561906	0.379164
C199	C	0.603638	0.028782	-0.473346
C200	C	1.103638	0.528782	0.026654
C201	C	0.603649	0.028775	-0.687005
C202	C	1.103649	0.528775	-0.187005
O203	O	0.631801	0.000614	-0.714623
O204	O	1.131801	0.500614	-0.214623
N205	N	0.570533	0.061872	-0.713730
N206	N	1.070533	0.561872	-0.213730
C207	C	0.537411	0.094971	-0.687037
C208	C	1.037411	0.594971	-0.187037
O209	O	0.509241	0.123118	-0.714671
O210	O	1.009241	0.623118	-0.214671
C211	C	0.537398	0.094975	-0.473379
C212	C	1.037398	0.594975	0.026621
C213	C	0.570519	0.061879	-0.446657
C214	C	1.070519	0.561879	0.053343
C215	C	0.636756	-0.004312	-0.446624
C216	C	1.136756	0.495688	0.053376
C217	C	0.636754	-0.004308	-0.393212
C218	C	1.136754	0.495692	0.106788
C219	C	0.603635	0.028789	-0.366523
C220	C	1.103635	0.528789	0.133477
C221	C	0.570518	0.061883	-0.393245
C222	C	1.070518	0.561883	0.106755
C223	C	0.504274	0.128071	-0.446687
C224	C	1.004274	0.628071	0.053313
C225	C	0.504273	0.128068	-0.393269
C226	C	1.004273	0.628068	0.106731
C227	C	0.537394	0.094972	-0.366547
C228	C	1.037394	0.594972	0.133453
C229	C	0.537398	0.094984	-0.313145
C230	C	1.037398	0.594984	0.186855
N231	N	0.570513	0.061887	-0.286420
N232	N	1.070513	0.561887	0.213580
C233	C	0.603632	0.028789	-0.313109
C234	C	1.103632	0.528789	0.186891
C235	C	0.537421	0.094967	-0.799210
C236	C	1.037421	0.594967	-0.299210
C237	C	0.537424	0.094967	-0.852624
C238	C	1.037424	0.594967	-0.352624
C239	C	0.603661	0.028770	-0.852588
C240	C	1.103661	0.528770	-0.352588
C241	C	0.603660	0.028773	-0.799173
C242	C	1.103660	0.528773	-0.299173
C243	C	0.570536	0.061870	-0.772485
C244	C	1.070536	0.561870	-0.272485
C245	C	0.603627	0.028800	-0.200941
C246	C	1.103627	0.528800	0.299059
C247	C	0.603624	0.028808	-0.147525
C248	C	1.103624	0.528808	0.352475
C249	C	0.537385	0.095003	-0.147565
C250	C	1.037385	0.595003	0.352435
C251	C	0.537390	0.094997	-0.200977
C252	C	1.037390	0.594997	0.299023
C253	C	0.570512	0.061891	-0.227663
C254	C	1.070512	0.561891	0.272337
O255	O	0.509257	0.123126	-0.285493
O256	O	1.009257	0.623126	0.214507
O257	O	0.631790	0.000639	-0.285466
O258	O	1.131790	0.500639	0.214534
C259	C	0.603639	0.028778	-0.526757
C260	C	1.103639	0.528778	-0.026757
C261	C	0.570522	0.061871	-0.553480
C262	C	1.070522	0.561871	-0.053480
C263	C	0.537403	0.094969	-0.526791
C264	C	1.037403	0.594969	-0.026791
C265	C	0.570525	0.061871	-0.606894
C266	C	1.070525	0.561871	-0.106894
C267	C	0.603644	0.028774	-0.633583
C268	C	1.103644	0.528774	-0.133583
C269	C	0.636759	-0.004323	-0.606858
C270	C	1.136759	0.495677	-0.106858
C271	C	0.636758	-0.004320	-0.553446
C272	C	1.136758	0.495680	-0.053446
C273	C	0.504287	0.128066	-0.553516
C274	C	1.004287	0.628066	-0.053516
C275	C	0.504292	0.128060	-0.606927
C276	C	1.004292	0.628060	-0.106927
C277	C	0.537411	0.094962	-0.633616
C278	C	1.037411	0.594962	-0.133616
N279	N	0.570543	0.061869	0.120687
N280	N	1.070543	0.561869	0.620687
H281	H	0.412731	0.145456	-0.000074
H282	H	0.912731	0.645456	0.499926
H283	H	0.510446	0.121920	-0.777484
H284	H	1.010446	0.621920	-0.277484
Br285	Br	-0.191945	0.163280	-0.000099
Br286	Br	0.308055	0.663280	0.499901
H287	H	0.566910	-0.791335	-0.084026
H288	H	1.066910	-0.291335	0.415974
Br289	Br	0.681708	-0.049239	-0.643089
Br290	Br	1.181708	0.450761	-0.143089
Br291	Br	-0.163247	-0.044541	-0.000068
Br292	Br	0.336753	0.455459	0.499932
H293	H	0.321279	0.144531	-0.000088
H294	H	0.821279	0.644531	0.499912
Br295	Br	0.570679	-0.421841	-0.155361
Br296	Br	1.070679	0.078159	0.344639
H297	H	0.057765	-0.062462	-0.000062
H298	H	0.557765	0.437538	0.499938
H299	H	0.477322	0.155014	-0.628681
H300	H	0.977322	0.655014	-0.128681
H301	H	0.510422	0.121952	-0.125827
H302	H	1.010422	0.621952	0.374173
H303	H	-0.033683	-0.063393	-0.000064
H304	H	0.466317	0.436607	0.499936
Br305	Br	0.107188	-0.085935	-0.000053
Br306	Br	0.607188	0.414065	0.499947
Br307	Br	-0.310780	0.162066	-0.000108
Br308	Br	0.189220	0.662066	0.499892
Br309	Br	0.459323	0.172989	-0.482942
Br310	Br	0.959323	0.672989	0.017058
Br311	Br	0.571888	-0.303027	-0.155352
Br312	Br	1.071888	0.196973	0.344648
Br313	Br	0.570386	-0.454394	0.155230
Br314	Br	1.070386	0.045606	0.655230
H315	H	-0.271685	-0.021675	-0.000063
H316	H	0.228315	0.478325	0.499937
Br317	Br	0.332981	-0.039496	-0.000051
Br318	Br	0.832981	0.460504	0.499949
H319	H	0.209014	-0.060929	-0.000069
H320	H	0.709014	0.439071	0.499931
Br321	Br	0.571931	-0.303140	0.155234
Br322	Br	1.071931	0.196860	0.655234
H323	H	0.510459	0.121921	-0.874378
H324	H	1.010459	0.621921	-0.374378
Br325	Br	0.574238	-0.071129	-0.109079
Br326	Br	1.074238	0.428871	0.390921
Br327	Br	0.451819	-0.038284	-0.000041
Br328	Br	0.951819	0.461716	0.499959
H329	H	0.023499	0.185645	-0.000109
H330	H	0.523499	0.685645	0.499891
H331	H	0.510425	0.121951	-0.222735
H332	H	1.010425	0.621951	0.277265
Br333	Br	-0.084954	0.208501	-0.000117
Br334	Br	0.415046	0.708501	0.499883
Br335	Br	0.566790	-0.805093	0.108936
Br336	Br	1.066790	-0.305093	0.608936
H337	H	0.174735	0.187182	-0.000097
H338	H	0.674735	0.687182	0.499903
H339	H	0.663728	-0.031269	-0.531693
H340	H	1.163728	0.468731	-0.031693
H341	H	0.567872	-0.699949	0.083837
H342	H	1.067872	-0.199949	0.583837
Br343	Br	0.569173	-0.573204	0.155219
Br344	Br	1.069173	-0.073204	0.655219
H345	H	0.663723	-0.031259	-0.371458
H346	H	1.163723	0.468741	0.128542
H347	H	0.569293	-0.559418	-0.130263
H348	H	1.069293	-0.059418	0.369737
Br349	Br	0.648611	-0.016145	-0.762913
Br350	Br	1.148611	0.483855	-0.262913
H351	H	0.567829	-0.699866	-0.084022
H352	H	1.067829	-0.199866	0.415978
Br353	Br	0.648578	-0.016109	-0.111261
Br354	Br	1.148578	0.483891	0.388739
H355	H	0.477317	0.155017	-0.531790
H356	H	0.977317	0.655017	-0.031790
Br357	Br	0.681708	-0.049236	-0.482835
Br358	Br	1.181708	0.450764	0.017165
H359	H	0.573198	-0.176347	0.083882
H360	H	1.073198	0.323653	0.583882
H361	H	0.574131	-0.084882	0.083885
H362	H	1.074131	0.415118	0.583885
Br363	Br	0.648579	-0.016129	-0.237150
Br364	Br	1.148579	0.483871	0.262850
H365	H	0.570853	-0.408277	0.130119
H366	H	1.070853	0.091723	0.630119
H367	H	0.573186	-0.176275	-0.083976
H368	H	1.073186	0.323725	0.416024
H369	H	0.477298	0.155019	-0.371542
H370	H	0.977298	0.655019	0.128458
H371	H	0.570226	-0.467968	-0.130258
H372	H	1.070226	0.032032	0.369742
Br373	Br	0.066300	0.210047	-0.000110
Br374	Br	0.566300	0.710047	0.499890
H375	H	0.630629	0.001821	-0.874328
H376	H	1.130629	0.501821	-0.374328
