data_functionalizedCrystal
_audit_creation_method	'MofGen! by Chris Wilmer'
_symmetry_space_group_name_H-M	'P1'
_symmetry_Int_Tables_number	1
_symmetry_cell_setting	triclinic
loop_
_symmetry_equiv_pos_as_xyz
  x,y,z
_cell_length_a	19.288864
_cell_length_b	9.130307
_cell_length_c	19.288865
_cell_angle_alpha	89.991489
_cell_angle_beta	96.863755
_cell_angle_gamma	90.015361
loop_
_atom_site_label
_atom_site_type_symbol
_atom_site_fract_x
_atom_site_fract_y
_atom_site_fract_z
O1	O	0.921345	0.122286	-0.086647
O2	O	1.421345	0.622286	0.413353
O3	O	0.719085	0.122188	-0.098335
O4	O	1.219085	0.622188	0.401665
O5	O	0.826059	0.122211	0.008639
O6	O	1.326059	0.622211	0.508639
O7	O	0.814371	0.122263	-0.193621
O8	O	1.314371	0.622263	0.306379
O9	O	0.826056	-0.121388	0.008640
O10	O	1.326056	0.378612	0.508640
O11	O	0.719081	-0.121411	-0.098334
O12	O	1.219081	0.378589	0.401666
O13	O	0.921342	-0.121313	-0.086646
O14	O	1.421342	0.378687	0.413354
Cu15	Cu	0.820211	-0.143605	-0.092490
Cu16	Cu	1.320211	0.356395	0.407510
Cu17	Cu	0.820215	0.144479	-0.092491
Cu18	Cu	1.320215	0.644479	0.407509
O19	O	0.814367	-0.121336	-0.193620
O20	O	1.314367	0.378664	0.306380
C21	C	0.693207	0.000375	-0.097959
C22	C	1.193207	0.500375	0.402041
C23	C	0.616103	0.000337	-0.096830
C24	C	1.116103	0.500337	0.403170
C25	C	0.571407	0.000376	-0.159598
C26	C	1.071407	0.500376	0.340402
C27	C	0.498960	0.000392	-0.158537
C28	C	0.998960	0.500392	0.341463
C29	C	0.471212	0.000398	-0.094705
C30	C	0.971212	0.500398	0.405295
C31	C	0.515918	0.000350	-0.031929
C32	C	1.015918	0.500350	0.468071
C33	C	0.588364	0.000320	-0.032991
C34	C	1.088364	0.500320	0.467009
C35	C	0.362951	0.085778	-0.044526
C36	C	0.862951	0.585778	0.455474
C37	C	0.290507	0.085817	-0.043466
C38	C	0.790507	0.585817	0.456534
C39	C	0.247767	0.000486	-0.091425
C40	C	0.747767	0.500486	0.408575
C41	C	0.277478	-0.084867	-0.140456
C42	C	0.777478	0.415133	0.359544
C43	C	0.349923	-0.084897	-0.141518
C44	C	0.849923	0.415103	0.358482
C45	C	0.392658	0.000430	-0.093546
C46	C	0.892658	0.500430	0.406454
C47	C	0.124514	0.000540	-0.153047
C48	C	0.624514	0.500540	0.346953
C49	C	0.052066	0.000547	-0.151984
C50	C	0.552066	0.500547	0.348016
C51	C	0.069026	0.000520	-0.025374
C52	C	0.569026	0.500520	0.474626
C53	C	0.141473	0.000499	-0.026439
C54	C	0.641473	0.500499	0.473561
C55	C	0.169212	0.000516	-0.090278
C56	C	0.669212	0.500516	0.409722
N57	N	0.820214	-0.346227	-0.092489
N58	N	1.320214	0.153773	0.407511
C59	C	0.914978	-0.346197	0.002211
C60	C	1.414978	0.153803	0.502211
C61	C	0.962365	-0.422849	0.049558
C62	C	1.462365	0.077151	0.549558
C63	C	0.962372	-0.576182	0.049559
C64	C	1.462372	-0.076182	0.549559
C65	C	0.914985	-0.652868	0.002208
C66	C	1.414985	-0.152868	0.502208
C67	C	0.867599	-0.576216	-0.045140
C68	C	1.367599	-0.076216	0.454860
C69	C	0.867598	-0.422879	-0.045137
C70	C	1.367598	0.077121	0.454863
C71	C	0.772832	-0.576246	-0.139834
C72	C	1.272832	-0.076246	0.360166
C73	C	0.772827	-0.422913	-0.139839
C74	C	1.272827	0.077087	0.360161
C75	C	0.725446	-0.652932	-0.187185
C76	C	1.225446	-0.152932	0.312815
C77	C	0.678061	-0.576280	-0.234537
C78	C	1.178061	-0.076280	0.265463
C79	C	0.678057	-0.422937	-0.234536
C80	C	1.178057	0.077063	0.265464
C81	C	0.725440	-0.346261	-0.187187
C82	C	1.225440	0.153739	0.312813
C83	C	0.947220	0.000502	-0.087022
C84	C	1.447220	0.500502	0.412978
C85	C	1.024324	0.000551	-0.088151
C86	C	1.524324	0.500551	0.411849
C87	C	0.825682	0.000407	0.034516
C88	C	1.325682	0.500407	0.534516
C89	C	0.824553	0.000393	0.111620
C90	C	1.324553	0.500393	0.611620
N91	N	0.820219	0.347102	-0.092487
N92	N	1.320219	0.847102	0.407513
C93	C	0.814745	0.000471	-0.219497
C94	C	1.314745	0.500471	0.280503
C95	C	0.815874	0.000494	-0.296601
C96	C	1.315874	0.500494	0.203399
C97	C	0.887321	0.000416	0.156316
C98	C	1.387321	0.500416	0.656316
C99	C	0.886260	0.000439	0.228763
C100	C	1.386260	0.500439	0.728763
C101	C	0.822428	0.000409	0.256511
C102	C	1.322428	0.500409	0.756511
C103	C	0.759652	0.000394	0.211805
C104	C	1.259652	0.500394	0.711805
C105	C	0.760714	0.000386	0.139359
C106	C	1.260714	0.500386	0.639359
C107	C	0.772247	-0.084943	0.364799
C108	C	1.272247	0.415057	0.864799
C109	C	0.771187	-0.084944	0.437243
C110	C	1.271187	0.415056	0.937243
C111	C	0.819148	0.000440	0.479956
C112	C	1.319148	0.500440	0.979956
C113	C	0.868181	0.085806	0.450218
C114	C	1.368181	0.585806	0.950218
C115	C	0.869243	0.085798	0.377773
C116	C	1.369243	0.585798	0.877773
C117	C	0.821269	0.000419	0.335065
C118	C	1.321269	0.500419	0.835065
C119	C	0.880770	0.000490	0.603209
C120	C	1.380770	0.500490	1.103209
C121	C	0.879707	0.000522	0.675657
C122	C	1.379707	0.500522	1.175657
C123	C	0.753097	0.000462	0.658697
C124	C	1.253097	0.500462	1.158697
C125	C	0.754162	0.000445	0.586250
C126	C	1.254162	0.500445	1.086250
C127	C	0.818000	0.000452	0.558511
C128	C	1.318000	0.500452	1.058511
H129	H	0.593987	0.000393	-0.211580
H130	H	1.093987	0.500393	0.288420
H131	H	0.733190	-0.154481	0.330026
H132	H	1.233190	0.345519	0.830026
Cl133	Cl	0.223755	-0.192148	-0.200752
Cl134	Cl	0.723755	0.307852	0.299248
Cl135	Cl	1.021941	-0.672547	0.109086
Cl136	Cl	1.521941	-0.172547	0.609086
Cl137	Cl	0.442760	0.000438	-0.237451
Cl138	Cl	0.942760	0.500438	0.262549
Cl139	Cl	0.958623	0.000561	0.731848
Cl140	Cl	1.458623	0.500561	1.231848
Cl141	Cl	0.672850	0.000433	0.693572
Cl142	Cl	1.172850	0.500433	1.193572
Cl143	Cl	0.675249	0.000409	0.530057
Cl144	Cl	1.175249	0.500409	1.030057
H145	H	0.624756	0.000289	0.018124
H146	H	1.124756	0.500289	0.518124
Cl147	Cl	0.709550	-0.192265	0.474622
Cl148	Cl	1.209550	0.307735	0.974622
Cl149	Cl	0.679405	0.000368	0.246686
Cl150	Cl	1.179405	0.500368	0.746686
Cl151	Cl	0.681799	0.000356	0.083166
Cl152	Cl	1.181799	0.500356	0.583166
H153	H	0.374112	-0.154399	-0.181439
H154	H	0.874112	0.345601	0.318561
H155	H	0.639466	-0.360535	-0.273090
H156	H	1.139466	0.139465	0.226910
Cl157	Cl	0.914985	-0.845631	0.002218
Cl158	Cl	1.414985	-0.345631	0.502218
Cl159	Cl	0.725442	-0.153498	-0.187184
Cl160	Cl	1.225442	0.346502	0.312816
Cl161	Cl	0.159390	0.000547	-0.233300
Cl162	Cl	0.659390	0.500547	0.266700
H163	H	0.015674	0.000571	-0.203099
H164	H	0.515674	0.500571	0.296901
Cl165	Cl	0.034151	0.000511	0.054873
Cl166	Cl	0.534151	0.500511	0.554873
H167	H	0.909166	0.155309	0.353562
H168	H	1.409166	0.655309	0.853562
H169	H	0.725450	-0.777784	-0.187180
H170	H	1.225450	-0.277784	0.312820
Cl171	Cl	0.197666	0.000458	0.052474
Cl172	Cl	0.697666	0.500458	0.552474
H173	H	0.493322	0.000375	0.020044
H174	H	0.993322	0.500375	0.520044
H175	H	0.939303	0.000427	0.133736
H176	H	1.439303	0.500427	0.633736
H177	H	0.397745	0.155274	-0.005470
H178	H	0.897745	0.655274	0.494530
H179	H	0.266321	0.155322	-0.003545
H180	H	0.766321	0.655322	0.496455
Cl181	Cl	0.961023	0.000491	0.568333
Cl182	Cl	1.461023	0.500491	1.068333
H183	H	0.914983	-0.221345	0.002209
H184	H	1.414983	0.278655	0.502209
H185	H	1.000945	-0.360398	0.088112
H186	H	1.500945	0.139602	0.588112
Cl187	Cl	0.965174	0.000469	0.284963
Cl188	Cl	1.465174	0.500469	0.784963
Cl189	Cl	0.618492	-0.672688	-0.294053
Cl190	Cl	1.118492	-0.172688	0.205947
H191	H	0.907235	0.155335	0.484994
H192	H	1.407235	0.655335	0.984994
