data_functionalizedCrystal
_audit_creation_method	'MofGen! by Chris Wilmer'
_symmetry_space_group_name_H-M	'P1'
_symmetry_Int_Tables_number	1
_symmetry_cell_setting	triclinic
loop_
_symmetry_equiv_pos_as_xyz
  x,y,z
_cell_length_a	19.288864
_cell_length_b	19.288865
_cell_length_c	18.366186
_cell_angle_alpha	90.009647
_cell_angle_beta	90.019533
_cell_angle_gamma	83.136245
loop_
_atom_site_label
_atom_site_type_symbol
_atom_site_fract_x
_atom_site_fract_y
_atom_site_fract_z
O1	O	-0.921350	-0.086647	-0.060791
O2	O	-0.421350	0.413353	0.439209
O3	O	-0.719089	-0.098336	-0.060743
O4	O	-0.219089	0.401664	0.439257
O5	O	-0.826064	0.008639	-0.060754
O6	O	-0.326064	0.508639	0.439246
O7	O	-0.814375	-0.193622	-0.060780
O8	O	-0.314375	0.306378	0.439220
O9	O	-0.826052	0.008641	0.060345
O10	O	-0.326052	0.508641	0.560345
O11	O	-0.719077	-0.098334	0.060357
O12	O	-0.219077	0.401666	0.560357
O13	O	-0.921338	-0.086645	0.060308
O14	O	-0.421338	0.413355	0.560308
Zn15	Zn	-0.820206	-0.092489	0.079559
Zn16	Zn	-0.320206	0.407511	0.579559
Zn17	Zn	-0.820221	-0.092492	-0.079994
Zn18	Zn	-0.320221	0.407508	0.420006
O19	O	-0.814363	-0.193620	0.060319
O20	O	-0.314363	0.306380	0.560319
C21	C	-0.693207	-0.097959	-0.000187
C22	C	-0.193207	0.402041	0.499813
C23	C	-0.616103	-0.096830	-0.000167
C24	C	-0.116103	0.403170	0.499833
C25	C	-0.825682	0.034516	-0.000202
C26	C	-0.325682	0.534516	0.499798
C27	C	-0.824553	0.111620	-0.000195
C28	C	-0.324553	0.611620	0.499805
N29	N	-0.820200	-0.092486	0.188451
N30	N	-0.320200	0.407514	0.688451
C31	C	-0.947220	-0.087022	-0.000250
C32	C	-0.447220	0.412978	0.499750
C33	C	-1.024324	-0.088151	-0.000274
C34	C	-0.524324	0.411849	0.499726
C35	C	-0.571407	-0.159598	-0.000187
C36	C	-0.071407	0.340402	0.499813
C37	C	-0.498960	-0.158537	-0.000195
C38	C	0.001040	0.341463	0.499805
C39	C	-0.471212	-0.094705	-0.000198
C40	C	0.028788	0.405295	0.499802
C41	C	-0.515918	-0.031929	-0.000174
C42	C	-0.015918	0.468071	0.499826
C43	C	-0.588364	-0.032991	-0.000159
C44	C	-0.088364	0.467009	0.499841
C45	C	-0.362954	-0.044526	-0.042642
C46	C	0.137046	0.455474	0.457358
C47	C	-0.290510	-0.043467	-0.042662
C48	C	0.209490	0.456533	0.457338
C49	C	-0.247767	-0.091425	-0.000241
C50	C	0.252233	0.408575	0.499759
C51	C	-0.277475	-0.140455	0.042189
C52	C	0.222525	0.359545	0.542189
C53	C	-0.349921	-0.141518	0.042205
C54	C	0.150079	0.358482	0.542205
C55	C	-0.392658	-0.093546	-0.000214
C56	C	0.107342	0.406454	0.499786
C57	C	-0.124514	-0.153047	-0.000269
C58	C	0.375486	0.346953	0.499731
C59	C	-0.052066	-0.151984	-0.000272
C60	C	0.447934	0.348016	0.499728
C61	C	-0.069026	-0.025374	-0.000259
C62	C	0.430974	0.474626	0.499741
C63	C	-0.141473	-0.026439	-0.000248
C64	C	0.358527	0.473561	0.499752
C65	C	-0.169212	-0.090278	-0.000256
C66	C	0.330788	0.409722	0.499744
C67	C	-0.814745	-0.219497	-0.000234
C68	C	-0.314745	0.280503	0.499766
C69	C	-0.815874	-0.296601	-0.000246
C70	C	-0.315874	0.203399	0.499754
C71	C	-0.887321	0.156316	-0.000207
C72	C	-0.387321	0.656316	0.499793
C73	C	-0.886260	0.228763	-0.000218
C74	C	-0.386260	0.728763	0.499782
C75	C	-0.822428	0.256511	-0.000203
C76	C	-0.322428	0.756511	0.499797
C77	C	-0.759652	0.211805	-0.000196
C78	C	-0.259652	0.711805	0.499804
C79	C	-0.760714	0.139359	-0.000192
C80	C	-0.260714	0.639359	0.499808
C81	C	-0.772244	0.364799	0.042227
C82	C	-0.272244	0.864799	0.542227
C83	C	-0.771184	0.437244	0.042228
C84	C	-0.271184	0.937244	0.542228
C85	C	-0.819148	0.479956	-0.000219
C86	C	-0.319148	0.979956	0.499781
C87	C	-0.868184	0.450218	-0.042657
C88	C	-0.368184	0.950218	0.457343
C89	C	-0.869246	0.377772	-0.042653
C90	C	-0.369246	0.877772	0.457347
C91	C	-0.821269	0.335065	-0.000208
C92	C	-0.321269	0.835065	0.499792
C93	C	-0.880770	0.603209	-0.000244
C94	C	-0.380770	1.103209	0.499756
C95	C	-0.879707	0.675657	-0.000259
C96	C	-0.379707	1.175657	0.499741
C97	C	-0.753097	0.658697	-0.000230
C98	C	-0.253097	1.158697	0.499770
C99	C	-0.754162	0.586250	-0.000221
C100	C	-0.254162	1.086250	0.499779
C101	C	-0.818000	0.558511	-0.000225
C102	C	-0.318000	1.058511	0.499775
C103	C	-0.867599	-0.045135	0.772996
C104	C	-0.367599	0.454865	1.272996
C105	C	-0.867600	-0.045136	0.696768
C106	C	-0.367600	0.454864	1.196768
C107	C	-0.820219	-0.092487	0.658662
C108	C	-0.320219	0.407513	1.158662
C109	C	-0.772846	-0.139851	0.696790
C110	C	-0.272846	0.360149	1.196790
C111	C	-0.772851	-0.139853	0.773016
C112	C	-0.272851	0.360147	1.273016
C113	C	-0.756927	-0.101756	0.537922
C114	C	-0.256927	0.398244	1.037922
C115	C	-0.756921	-0.101750	0.461697
C116	C	-0.256921	0.398250	0.961697
C117	C	-0.820204	-0.092485	0.423554
C118	C	-0.320204	0.407515	0.923554
C119	C	-0.883496	-0.083212	0.461646
C120	C	-0.383496	0.416788	0.961646
C121	C	-0.883501	-0.083214	0.537872
C122	C	-0.383501	0.416786	1.037872
C123	C	-0.820209	-0.092490	0.576007
C124	C	-0.320209	0.407510	1.076007
C125	C	-0.867578	-0.045128	0.302781
C126	C	-0.367578	0.454872	0.802781
C127	C	-0.867580	-0.045135	0.226552
C128	C	-0.367580	0.454865	0.726552
C129	C	-0.772821	-0.139846	0.226575
C130	C	-0.272821	0.360154	0.726575
C131	C	-0.772825	-0.139843	0.302802
C132	C	-0.272825	0.360157	0.802802
C133	C	-0.820203	-0.092481	0.340901
C134	C	-0.320203	0.407519	0.840901
N135	N	-0.820229	-0.092490	0.811115
N136	N	-0.320229	0.407510	1.311115
H137	H	-0.593987	-0.211580	-0.000195
H138	H	-0.093987	0.288420	0.499805
Cl139	Cl	-0.644557	0.045924	-0.000135
Cl140	Cl	-0.144557	0.545924	0.499865
H141	H	-0.734269	-0.178406	0.665760
H142	H	-0.234269	0.321594	1.165760
Cl143	Cl	-0.679405	0.246686	-0.000183
Cl144	Cl	-0.179405	0.746686	0.499817
Cl145	Cl	-0.713268	-0.199375	0.350728
Cl146	Cl	-0.213268	0.300625	0.850728
Cl147	Cl	-0.197666	0.052474	-0.000228
Cl148	Cl	0.302334	0.552474	0.499772
Cl149	Cl	-0.963057	-0.071560	0.413704
Cl150	Cl	-0.463057	0.428440	0.913704
H151	H	-0.015674	-0.203099	-0.000284
H152	H	0.484326	0.296901	0.499716
Cl153	Cl	-0.416682	0.015771	-0.095976
Cl154	Cl	0.083318	0.515771	0.404024
Cl155	Cl	-0.442760	-0.237451	-0.000218
Cl156	Cl	0.057240	0.262549	0.499782
Cl157	Cl	-0.967575	0.121448	-0.000232
Cl158	Cl	-0.467575	0.621448	0.499768
Cl159	Cl	-0.481037	0.048318	-0.000174
Cl160	Cl	0.018963	0.548318	0.499826
H161	H	-0.703049	0.549857	-0.000208
H162	H	-0.203049	1.049857	0.499792
Cl163	Cl	-0.927143	0.014409	0.350677
Cl164	Cl	-0.427143	0.514409	0.850677
H165	H	-0.937375	0.265162	-0.000231
H166	H	-0.437375	0.765162	0.499769
H167	H	-0.705385	-0.109292	0.430689
H168	H	-0.205385	0.390708	0.930689
H169	H	-0.266327	-0.003546	-0.077215
H170	H	0.233673	0.496454	0.422785
H171	H	-0.909171	0.353562	-0.077208
H172	H	-0.409171	0.853562	0.422792
H173	H	-0.906158	-0.006574	0.195515
H174	H	-0.406158	0.493426	0.695515
H175	H	-0.734276	-0.178416	0.804053
H176	H	-0.234276	0.321584	1.304053
Cl177	Cl	-0.223749	-0.200751	0.095522
Cl178	Cl	0.276251	0.299249	0.595522
Cl179	Cl	-0.387267	-0.203150	0.095547
Cl180	Cl	0.112733	0.296850	0.595547
Cl181	Cl	-0.677363	-0.113407	0.585865
Cl182	Cl	-0.177363	0.386593	1.085865
H183	H	-0.147101	-0.205028	-0.000265
H184	H	0.352899	0.294972	0.499735
H185	H	-0.907240	0.484993	-0.077221
H186	H	-0.407240	0.984993	0.422779
H187	H	-0.932751	0.580622	-0.000250
H188	H	-0.432751	1.080622	0.499750
Cl189	Cl	-0.034151	0.054873	-0.000254
Cl190	Cl	0.465849	0.554873	0.499746
Cl191	Cl	-0.713262	-0.199378	0.178675
Cl192	Cl	-0.213262	0.300622	0.678675
Cl193	Cl	-0.963063	-0.071565	0.585757
Cl194	Cl	-0.463063	0.428435	1.085757
H195	H	-0.930822	0.712049	-0.000273
H196	H	-0.430822	1.212049	0.499727
Cl197	Cl	-0.672850	0.693572	-0.000215
Cl198	Cl	-0.172850	1.193572	0.499785
H199	H	-0.906178	-0.006571	0.804013
H200	H	-0.406178	0.493429	1.304013
Cl201	Cl	-0.709543	0.474623	0.095580
Cl202	Cl	-0.209543	0.974623	0.595580
H203	H	-0.906175	-0.006572	0.665726
H204	H	-0.406175	0.493428	1.165726
H205	H	-0.733184	0.330027	0.076796
H206	H	-0.233184	0.830027	0.576796
H207	H	-0.709599	0.102967	-0.000182
H208	H	-0.209599	0.602967	0.499818
