data_functionalizedCrystal
_audit_creation_method	'MofGen! by Chris Wilmer'
_symmetry_space_group_name_H-M	'P1'
_symmetry_Int_Tables_number	1
_symmetry_cell_setting	triclinic
loop_
_symmetry_equiv_pos_as_xyz
  x,y,z
_cell_length_a	18.050589
_cell_length_b	13.032831
_cell_length_c	13.033352
_cell_angle_alpha	90.904837
_cell_angle_beta	82.828541
_cell_angle_gamma	97.166814
loop_
_atom_site_label
_atom_site_type_symbol
_atom_site_fract_x
_atom_site_fract_y
_atom_site_fract_z
Zn1	Zn	-0.501730	-1.498141	0.780808
Zn2	Zn	-0.612332	-1.519902	0.608834
Zn3	Zn	-0.470657	-1.348060	0.587056
Zn4	Zn	-0.608356	-1.326110	0.758954
O5	O	-0.548269	-1.423053	0.683913
O6	O	-0.531070	-1.644940	0.776256
O7	O	-0.582199	-1.515399	0.462033
O8	O	-0.370865	-1.368048	0.612789
O9	O	-0.612329	-1.660927	0.649907
O10	O	-0.393694	-1.478312	0.755138
O11	O	-0.478111	-1.389148	0.446033
O12	O	-0.474255	-1.201236	0.591598
O13	O	-0.605551	-1.330638	0.905765
O14	O	-0.575421	-1.185110	0.717891
O15	O	-0.527214	-1.457029	0.921821
O16	O	-0.715719	-1.494116	0.628716
O17	O	-0.712798	-1.351738	0.739009
C18	C	-0.741207	-1.422931	0.683880
C19	C	-0.823759	-1.422969	0.683912
C20	C	-0.521035	-1.155858	0.650010
C21	C	-0.509405	-1.041548	0.635531
C22	C	-0.569405	-1.388958	0.952151
C23	C	-0.578412	-1.374428	1.066458
C24	C	-1.021653	-1.345615	0.743874
C25	C	-1.061129	-1.332495	0.646856
C26	C	-0.974901	-1.423068	0.683939
C27	C	-1.082512	-1.436237	0.780973
C28	C	-1.120897	-1.423161	0.683972
C29	C	-1.013281	-1.409906	0.586865
C30	C	-1.034669	-1.513683	0.721051
C31	C	-1.074122	-1.500607	0.623973
C32	C	-0.890796	-1.423012	0.683920
C33	C	-1.205000	-1.423219	0.683980
C34	C	-0.354582	-1.423201	0.683972
C35	C	-0.272044	-1.423264	0.683997
C36	C	-0.575609	-1.691292	0.717948
C37	C	-0.587260	-1.805599	0.732452
C38	C	-0.554339	-0.982645	0.691470
C39	C	-0.542319	-0.864500	0.676506
C40	C	-0.543668	-1.430486	1.125364
C41	C	-0.552976	-1.415470	1.243506
C42	C	-0.527232	-1.457008	1.416717
C43	C	-0.518227	-1.471536	1.302410
H44	H	-0.998652	-1.280040	0.794466
Br45	Br	-1.112205	-1.609864	0.539414
H46	H	-0.601706	-1.019683	0.750442
H47	H	-1.112589	-1.447339	0.863022
H48	H	-0.494944	-0.827465	0.617537
H49	H	-0.589610	-1.356350	1.280533
Br50	Br	-0.666206	-0.867310	0.830767
Br51	Br	-1.014636	-1.641297	0.773395
H52	H	-0.462033	-1.004509	0.576567
Br53	Br	-0.457169	-1.570079	1.240707
Br54	Br	-0.639472	-1.275895	1.128169
Br55	Br	-1.081132	-1.204843	0.594548
Br56	Br	-0.963287	-1.391258	0.450054
H57	H	-0.507028	-1.489592	1.088330
