data_functionalizedCrystal
_audit_creation_method	'MofGen! by Chris Wilmer'
_symmetry_space_group_name_H-M	'P1'
_symmetry_Int_Tables_number	1
_symmetry_cell_setting	triclinic
loop_
_symmetry_equiv_pos_as_xyz
  x,y,z
_cell_length_a	15.944493
_cell_length_b	15.944493
_cell_length_c	14.048226
_cell_angle_alpha	89.999441
_cell_angle_beta	89.994105
_cell_angle_gamma	83.475044
loop_
_atom_site_label
_atom_site_type_symbol
_atom_site_fract_x
_atom_site_fract_y
_atom_site_fract_z
O1	O	1.114534	0.108105	-0.079135
O2	O	1.614534	0.608105	0.420865
O3	O	0.869975	0.121512	-0.079139
O4	O	1.369975	0.621512	0.420861
O5	O	0.998958	-0.007471	-0.079145
O6	O	1.498958	0.492529	0.420855
O7	O	0.985551	0.237088	-0.079129
O8	O	1.485551	0.737088	0.420871
O9	O	0.998943	-0.007479	0.079177
O10	O	1.498943	0.492521	0.579177
O11	O	0.869960	0.121505	0.079183
O12	O	1.369960	0.621505	0.579183
O13	O	1.114519	0.108097	0.079186
O14	O	1.614519	0.608097	0.579186
Zn15	Zn	0.992237	0.114800	0.104321
Zn16	Zn	1.492237	0.614800	0.604321
Zn17	Zn	0.992257	0.114810	-0.104274
Zn18	Zn	1.492257	0.614810	0.395726
O19	O	0.985535	0.237081	0.079192
O20	O	1.485535	0.737081	0.579192
C21	C	0.838673	0.120961	0.000022
C22	C	1.338673	0.620961	0.500022
C23	C	0.745424	0.119318	0.000020
C24	C	1.245424	0.619318	0.500020
C25	C	0.509649	0.195240	0.000024
C26	C	1.009649	0.695240	0.500024
C27	C	0.459091	0.154294	0.078086
C28	C	0.959091	0.654294	0.578086
C29	C	0.574704	0.116273	0.000021
C30	C	1.074704	0.616273	0.500021
C31	C	0.459111	0.154283	-0.078006
C32	C	0.959111	0.654283	0.421994
C33	C	0.409795	0.113339	0.000019
C34	C	0.909795	0.613339	0.500019
C35	C	0.525375	0.075349	0.078148
C36	C	1.025375	0.575349	0.578148
C37	C	0.525398	0.075349	-0.078015
C38	C	1.025398	0.575349	0.421985
C39	C	0.474873	0.034346	0.000067
C40	C	0.974873	0.534346	0.500067
C41	C	0.669704	0.117966	0.000024
C42	C	1.169704	0.617966	0.500024
C43	C	0.314798	0.111640	0.000023
C44	C	0.814798	0.611640	0.500023
C45	C	0.998403	-0.038769	0.000012
C46	C	1.498403	0.461231	0.500012
C47	C	0.996760	-0.132018	-0.000000
C48	C	1.496760	0.367982	0.500000
C49	C	1.072682	-0.367793	0.000019
C50	C	1.572682	0.132207	0.500019
C51	C	1.031748	-0.418349	-0.078042
C52	C	1.531748	0.081651	0.421958
C53	C	0.993716	-0.302738	0.000011
C54	C	1.493716	0.197262	0.500011
C55	C	1.031714	-0.418333	0.078050
C56	C	1.531714	0.081667	0.578050
C57	C	0.990781	-0.467647	0.000027
C58	C	1.490781	0.032353	0.500027
C59	C	0.952802	-0.352066	-0.078114
C60	C	1.452802	0.147934	0.421886
C61	C	0.952780	-0.352046	0.078049
C62	C	1.452780	0.147954	0.578049
C63	C	0.911788	-0.402569	-0.000031
C64	C	1.411788	0.097431	0.499969
C65	C	0.995408	-0.207739	0.000002
C66	C	1.495408	0.292261	0.500002
C67	C	0.989082	-0.562644	0.000030
C68	C	1.489082	-0.062644	0.500030
C69	C	1.145821	0.108649	0.000024
C70	C	1.645821	0.608649	0.500024
C71	C	1.239069	0.110292	0.000019
C72	C	1.739069	0.610292	0.500019
C73	C	0.986091	0.268379	0.000034
C74	C	1.486091	0.768379	0.500034
C75	C	0.987734	0.361627	0.000039
C76	C	1.487734	0.861627	0.500039
N77	N	0.992229	0.114792	0.246682
N78	N	1.492229	0.614792	0.746682
N79	N	0.992272	0.114810	-0.246635
N80	N	1.492272	0.614810	0.253365
C81	C	1.049361	0.057702	0.296497
C82	C	1.549361	0.557702	0.796497
C83	C	1.049366	0.057702	0.396155
C84	C	1.549366	0.557702	0.896155
C85	C	0.992244	0.114796	0.445995
C86	C	1.492244	0.614796	0.945995
C87	C	0.935106	0.171889	0.396173
C88	C	1.435106	0.671889	0.896173
C89	C	0.935097	0.171885	0.296517
C90	C	1.435097	0.671885	0.796517
C91	C	0.935130	0.171895	0.603887
C92	C	1.435130	0.671895	1.103887
C93	C	0.935140	0.171901	0.703550
C94	C	1.435140	0.671901	1.203550
C95	C	1.049400	0.057712	0.703525
C96	C	1.549400	0.557712	1.203525
C97	C	1.049390	0.057708	0.603869
C98	C	1.549390	0.557708	1.103869
C99	C	0.992253	0.114802	0.554054
C100	C	1.492253	0.614802	1.054054
H101	H	1.065103	-0.447299	-0.144037
H102	H	1.565103	0.052701	0.355963
N103	N	0.873500	0.233475	0.449928
N104	N	1.373500	0.733475	0.949928
H105	H	0.837305	0.269640	0.403245
H106	H	1.337305	0.769640	0.903245
H107	H	0.836378	0.201304	0.491290
H108	H	1.336378	0.701304	0.991290
H109	H	0.919479	-0.323236	-0.144179
H110	H	1.419479	0.176764	0.355821
N111	N	0.454393	-0.055819	0.000107
N112	N	0.954393	0.444181	0.500107
H113	H	0.508511	-0.095454	0.000686
H114	H	1.008511	0.404546	0.500686
H115	H	0.420023	-0.065965	0.058524
H116	H	0.920023	0.434035	0.558524
N117	N	1.110969	-0.003894	0.242759
N118	N	1.610969	0.496106	0.742759
H119	H	1.078870	-0.041101	0.201428
H120	H	1.578870	0.458899	0.701428
H121	H	1.148144	0.028266	0.201451
H122	H	1.648144	0.528266	0.701451
H123	H	0.843715	-0.418021	-0.000075
H124	H	1.343715	0.081979	0.499925
N125	N	0.530348	0.285333	0.000119
N126	N	1.030348	0.785333	0.500119
H127	H	0.505182	0.315471	-0.058231
H128	H	1.005182	0.815471	0.441769
H129	H	0.506099	0.314995	0.059182
H130	H	1.006099	0.814995	0.559182
H131	H	1.065073	-0.447274	0.144040
H132	H	1.565073	0.052726	0.644040
H133	H	0.554357	0.042029	-0.144017
H134	H	1.054357	0.542029	0.355983
H135	H	0.430172	0.187651	-0.143993
H136	H	0.930172	0.687651	0.356007
H137	H	1.095887	0.011214	0.436714
H138	H	1.595887	0.511214	0.936714
H139	H	1.095908	0.011221	0.563289
H140	H	1.595908	0.511221	1.063289
H141	H	0.888573	0.218373	0.255959
H142	H	1.388573	0.718373	0.755959
N143	N	1.162778	-0.347105	-0.000088
N144	N	1.662778	0.152895	0.499912
H145	H	1.163272	-0.283820	0.000513
H146	H	1.663272	0.216180	0.500513
H147	H	1.192861	-0.372324	0.058266
H148	H	1.692861	0.127676	0.558266
H149	H	0.919454	-0.323081	0.144046
H150	H	1.419454	0.176919	0.644046
N151	N	1.111029	-0.003868	0.757247
N152	N	1.611029	0.496132	1.257247
H153	H	1.102367	0.004793	0.827941
H154	H	1.602367	0.504793	1.327941
H155	H	1.101343	-0.063464	0.739831
H156	H	1.601343	0.436536	1.239831
N157	N	0.873539	0.233487	0.757311
N158	N	1.373539	0.733487	1.257311
H159	H	0.837340	0.269654	0.710633
H160	H	1.337340	0.769654	1.210633
H161	H	0.836420	0.201316	0.798678
H162	H	1.336420	0.701316	1.298678
H163	H	0.430140	0.187640	0.144085
H164	H	0.930140	0.687640	0.644085
N165	N	0.563550	0.031199	0.165657
N166	N	1.063550	0.531199	0.665657
H167	H	0.626716	0.032621	0.165133
H168	H	1.126716	0.532621	0.665133
H169	H	0.538758	0.060809	0.224500
H170	H	1.038758	0.560809	0.724500
N171	N	0.873501	0.233470	0.550155
N172	N	1.373501	0.733470	1.050155
H173	H	0.837317	0.269642	0.596848
H174	H	1.337317	0.769642	1.096848
H175	H	0.905647	0.270617	0.508796
H176	H	1.405647	0.770617	1.008796
