data_functionalizedCrystal
_audit_creation_method	'MofGen! by Chris Wilmer'
_symmetry_space_group_name_H-M	'P1'
_symmetry_Int_Tables_number	1
_symmetry_cell_setting	triclinic
loop_
_symmetry_equiv_pos_as_xyz
  x,y,z
_cell_length_a	23.532407
_cell_length_b	23.532357
_cell_length_c	15.072220
_cell_angle_alpha	89.993295
_cell_angle_beta	89.990208
_cell_angle_gamma	82.838519
loop_
_atom_site_label
_atom_site_type_symbol
_atom_site_fract_x
_atom_site_fract_y
_atom_site_fract_z
O1	O	0.755254	0.069133	-0.073737
O2	O	1.255254	0.569133	0.426263
O3	O	0.589389	0.079136	-0.073753
O4	O	1.089389	0.579136	0.426247
O5	O	0.677338	-0.008799	-0.073726
O6	O	1.177338	0.491201	0.426274
O7	O	0.667305	0.157069	-0.073764
O8	O	1.167305	0.657069	0.426236
O9	O	0.677316	-0.008794	0.073839
O10	O	1.177316	0.491206	0.573839
O11	O	0.589367	0.079141	0.073812
O12	O	1.089367	0.579141	0.573812
O13	O	0.755232	0.069138	0.073828
O14	O	1.255232	0.569138	0.573828
Zn15	Zn	0.672296	0.074141	0.097249
Zn16	Zn	1.172296	0.574141	0.597249
Zn17	Zn	0.672325	0.074134	-0.097174
Zn18	Zn	1.172325	0.574134	0.402826
O19	O	0.667283	0.157073	0.073802
O20	O	1.167283	0.657073	0.573802
C21	C	0.568162	0.078884	0.000028
C22	C	1.068162	0.578884	0.500028
C23	C	0.504945	0.078118	0.000023
C24	C	1.004945	0.578118	0.500023
C25	C	0.238788	0.022922	0.000060
C26	C	0.738788	0.522922	0.500060
C27	C	0.298188	0.023633	0.000059
C28	C	0.798188	0.523633	0.500059
O29	O	0.334940	-0.020154	0.000100
O30	O	0.834940	0.479846	0.500100
N31	N	0.320805	0.075911	0.000041
N32	N	0.820805	0.575911	0.500041
C33	C	0.284018	0.127480	0.000033
C34	C	0.784018	0.627480	0.500033
O35	O	0.308710	0.172012	0.000019
O36	O	0.808710	0.672012	0.500019
C37	C	0.224619	0.126768	0.000040
C38	C	0.724619	0.626768	0.500040
C39	C	0.202006	0.074487	0.000049
C40	C	0.702006	0.574487	0.500049
C41	C	0.216174	-0.029355	0.000069
C42	C	0.716174	0.470645	0.500069
C43	C	0.156778	-0.030066	0.000068
C44	C	0.656778	0.469934	0.500068
C45	C	0.119996	0.021499	0.000057
C46	C	0.619996	0.521499	0.500057
C47	C	0.142610	0.073776	0.000047
C48	C	0.642610	0.573776	0.500047
C49	C	0.187833	0.178337	0.000038
C50	C	0.687833	0.678337	0.500038
C51	C	0.128431	0.177620	0.000045
C52	C	0.628431	0.677620	0.500045
C53	C	0.105818	0.125339	0.000054
C54	C	0.605818	0.625339	0.500054
C55	C	0.046431	0.124630	0.000035
C56	C	0.546431	0.624630	0.500035
N57	N	0.023815	0.072353	0.000053
N58	N	0.523815	0.572353	0.500053
C59	C	0.060597	0.020787	0.000064
C60	C	0.560597	0.520787	0.500064
C61	C	0.408760	0.128971	0.000020
C62	C	0.908760	0.628971	0.500020
C63	C	0.468158	0.129684	0.000007
C64	C	0.968158	0.629684	0.500007
C65	C	0.482324	0.025837	0.000035
C66	C	0.982324	0.525837	0.500035
C67	C	0.422925	0.025125	0.000042
C68	C	0.922925	0.525125	0.500042
C69	C	0.386143	0.076694	0.000038
C70	C	0.886143	0.576694	0.500038
C71	C	-0.064140	0.019297	0.000060
C72	C	0.435860	0.519297	0.500060
C73	C	-0.123542	0.018591	0.000056
C74	C	0.376458	0.518591	0.500056
C75	C	-0.137702	0.122438	0.000032
C76	C	0.362298	0.622438	0.500032
C77	C	-0.078306	0.123145	0.000033
C78	C	0.421694	0.623145	0.500033
C79	C	-0.041525	0.071570	0.000050
C80	C	0.458475	0.571570	0.500050
O81	O	0.009644	0.168394	-0.000002
O82	O	0.509644	0.668394	0.499998
O83	O	0.035897	-0.023737	0.000090
O84	O	0.535897	0.476263	0.500090
C85	C	0.677076	-0.030013	0.000059
C86	C	1.177076	0.469987	0.500059
C87	C	0.676322	-0.093232	0.000067
C88	C	1.176322	0.406768	0.500067
C89	C	0.671597	-0.485246	-0.080419
C90	C	1.171597	0.014754	0.419581
C91	C	0.670880	-0.544645	-0.080424
C92	C	1.170880	-0.044645	0.419576
O93	O	0.670499	-0.575364	-0.148833
O94	O	1.170499	-0.075364	0.351167
N95	N	0.670512	-0.574354	0.000013
N96	N	1.170512	-0.074354	0.500013
C97	C	0.670856	-0.544659	0.080460
C98	C	1.170856	-0.044659	0.580460
O99	O	0.670477	-0.575382	0.148877
O100	O	1.170477	-0.075382	0.648877
C101	C	0.671569	-0.485260	0.080464
C102	C	1.171569	0.014740	0.580464
C103	C	0.671942	-0.455555	0.000022
C104	C	1.171942	0.044445	0.500022
C105	C	0.671969	-0.455541	-0.160854
C106	C	1.171969	0.044459	0.339146
C107	C	0.672688	-0.396146	-0.160849
C108	C	1.172688	0.103854	0.339151
C109	C	0.673033	-0.366455	-0.080408
C110	C	1.173033	0.133545	0.419592
C111	C	0.672661	-0.396160	0.000028
C112	C	1.172661	0.103840	0.500028
C113	C	0.671909	-0.455565	0.160910
C114	C	1.171909	0.044435	0.660910
C115	C	0.672622	-0.396162	0.160907
C116	C	1.172622	0.103838	0.660907
C117	C	0.672995	-0.366458	0.080465
C118	C	1.172995	0.133542	0.580465
C119	C	0.673725	-0.307074	0.080474
C120	C	1.173725	0.192926	0.580474
N121	N	0.674092	-0.277366	0.000037
N122	N	1.174092	0.222634	0.500037
C123	C	0.673746	-0.307056	-0.080404
C124	C	1.173746	0.192944	0.419596
C125	C	0.669357	-0.669400	0.080445
C126	C	1.169357	-0.169400	0.580445
C127	C	0.668648	-0.728799	0.080442
C128	C	1.168648	-0.228799	0.580442
C129	C	0.668671	-0.728781	-0.080442
C130	C	1.168671	-0.228781	0.419558
C131	C	0.669384	-0.669382	-0.080438
C132	C	1.169384	-0.169382	0.419562
C133	C	0.669725	-0.639692	0.000008
C134	C	1.169725	-0.139692	0.500008
C135	C	0.675255	-0.182322	-0.080386
C136	C	1.175255	0.317678	0.419614
C137	C	0.675976	-0.122922	-0.080373
C138	C	1.175976	0.377078	0.419627
C139	C	0.675951	-0.122945	0.080510
C140	C	1.175951	0.377055	0.580510
C141	C	0.675233	-0.182340	0.080498
C142	C	1.175233	0.317660	0.580498
C143	C	0.674883	-0.212027	0.000043
C144	C	1.174883	0.287973	0.500043
O145	O	0.674103	-0.276318	0.148848
O146	O	1.174103	0.223682	0.648848
O147	O	0.674118	-0.276324	-0.148809
O148	O	1.174118	0.223676	0.351191
C149	C	0.776459	0.069390	0.000045
C150	C	1.276459	0.569390	0.500045
C151	C	0.839676	0.070156	0.000044
C152	C	1.339676	0.570156	0.500044
C153	C	0.667545	0.178288	0.000014
C154	C	1.167545	0.678288	0.500014
C155	C	0.668300	0.241506	0.000000
C156	C	1.168300	0.741506	0.500000
N157	N	0.672281	0.074145	0.229938
N158	N	1.172281	0.574145	0.729938
N159	N	0.672345	0.074125	-0.229863
N160	N	1.172345	0.574125	0.270137
C161	C	0.672324	0.074132	0.589140
C162	C	1.172324	0.574132	1.089140
C163	C	0.625108	0.121028	0.551519
C164	C	1.125108	0.621028	1.051519
C165	C	0.625214	0.121198	0.448693
C166	C	1.125214	0.621198	0.948693
C167	C	0.672302	0.074138	0.410936
C168	C	1.172302	0.574138	0.910936
C169	C	0.731651	0.086781	0.448229
C170	C	1.231651	0.586781	0.948229
C171	C	0.731386	0.087114	0.551087
C172	C	1.231386	0.587114	1.051087
C173	C	0.660722	0.014451	0.551252
C174	C	1.160722	0.514451	1.051252
C175	C	0.659356	0.014857	0.448389
C176	C	1.159356	0.514857	0.948389
C177	C	0.672294	0.074141	0.310222
C178	C	1.172294	0.574141	0.810222
C179	C	0.672336	0.074131	0.689853
C180	C	1.172336	0.574131	1.189853
H181	H	0.098485	0.219615	0.000046
H182	H	0.598485	0.719615	0.500046
N183	N	0.671626	-0.485853	-0.243040
N184	N	1.171626	0.014147	0.256960
N185	N	0.711869	-0.484679	-0.296884
N186	N	1.211869	0.015321	0.203116
H187	H	0.711632	-0.506082	-0.354935
H188	H	1.211632	-0.006082	0.145065
N189	N	0.676293	-0.092618	0.162682
N190	N	1.176293	0.407382	0.662682
N191	N	0.675954	-0.119141	0.234501
N192	N	1.175954	0.380859	0.734501
H193	H	0.676190	-0.097721	0.292537
H194	H	1.176190	0.402279	0.792537
N195	N	0.210934	0.231735	0.000030
N196	N	0.710934	0.731735	0.500030
N197	N	0.242504	0.243727	-0.062170
N198	N	0.742504	0.743727	0.437830
H199	H	0.258820	0.281442	-0.062174
H200	H	0.758820	0.781442	0.437826
H201	H	0.669637	-0.645230	0.145958
H202	H	1.169637	-0.145230	0.645958
H203	H	0.669687	-0.645200	-0.145941
H204	H	1.169687	-0.145200	0.354059
N205	N	0.399838	-0.028283	0.000049
N206	N	0.899838	0.471717	0.500049
N207	N	0.432693	-0.074317	0.000054
N208	N	0.932693	0.425683	0.500054
H209	H	0.416391	-0.112040	0.000060
H210	H	0.916391	0.387960	0.500060
N211	N	-0.055213	0.176552	0.000012
N212	N	0.444787	0.676552	0.500012
N213	N	-0.088063	0.222588	-0.000001
N214	N	0.411937	0.722588	0.499999
H215	H	-0.071758	0.260309	-0.000008
H216	H	0.428242	0.760309	0.499992
N217	N	0.703909	-0.029336	0.581775
N218	N	1.203909	0.470664	1.081775
N219	N	0.702471	-0.080212	0.559012
N220	N	1.202471	0.419788	1.059012
H221	H	0.732973	-0.111133	0.580573
H222	H	1.232973	0.388867	1.080573
N223	N	0.776769	0.045896	0.582348
N224	N	1.276769	0.545896	1.082348
N225	N	0.765741	0.005196	0.630010
N226	N	1.265741	0.505196	1.130010
H227	H	0.797798	-0.023904	0.652095
H228	H	1.297798	0.476096	1.152095
N229	N	0.253748	-0.082028	0.000087
N230	N	0.753748	0.417972	0.500087
N231	N	0.288471	-0.093223	0.062285
N232	N	0.788471	0.406777	0.562285
H233	H	0.315006	-0.130426	0.062292
H234	H	0.815006	0.369574	0.562292
N235	N	0.776764	0.045052	0.417561
N236	N	1.276764	0.545052	0.917561
N237	N	0.776087	-0.006699	0.435654
N238	N	1.276087	0.493301	0.935654
H239	H	0.807947	-0.036172	0.413995
H240	H	1.307947	0.463828	0.913995
H241	H	0.671606	-0.479741	0.226415
H242	H	1.171606	0.020259	0.726415
H243	H	0.691539	-0.021650	0.422691
H244	H	1.191539	0.478350	0.922691
H245	H	0.615701	0.005254	0.424015
H246	H	1.115701	0.505254	0.924015
H247	H	0.742182	0.129798	0.422451
H248	H	1.242182	0.629798	0.922451
N249	N	-0.175290	0.175102	0.000030
N250	N	0.324710	0.675102	0.500030
N251	N	-0.210023	0.186281	0.062233
N252	N	0.289977	0.686281	0.562233
H253	H	-0.236573	0.223475	0.062236
H254	H	0.263427	0.723475	0.562236
N255	N	-0.146630	-0.034821	0.000058
N256	N	0.353370	0.465179	0.500058
N257	N	-0.113778	-0.080856	0.000069
N258	N	0.386222	0.419144	0.500069
H259	H	-0.130082	-0.118577	0.000071
H260	H	0.369918	0.381423	0.500071
N261	N	0.668326	-0.759125	-0.162606
N262	N	1.168326	-0.259125	0.337394
N263	N	0.667692	-0.812160	-0.162589
N264	N	1.167692	-0.312160	0.337411
H265	H	0.667451	-0.833593	-0.220612
H266	H	1.167451	-0.333593	0.279388
H267	H	0.581088	0.113715	0.423480
H268	H	1.081088	0.613715	0.923480
N269	N	0.634212	0.176289	0.583916
N270	N	1.134212	0.676289	1.083916
N271	N	0.596342	0.205028	0.628975
N272	N	1.096342	0.705028	1.128975
H273	H	0.602772	0.244055	0.651858
H274	H	1.102772	0.744055	1.151858
H275	H	0.486564	0.172256	-0.000012
H276	H	0.986564	0.672256	0.499988
H277	H	0.632587	0.165493	0.424070
H278	H	1.132587	0.665493	0.924070
N279	N	-0.026583	-0.033389	0.000084
N280	N	0.473417	0.466611	0.500084
N281	N	-0.046792	-0.080057	0.000095
N282	N	0.453208	0.419943	0.500095
H283	H	-0.020269	-0.117268	0.000109
H284	H	0.479731	0.382732	0.500109
H285	H	0.580838	0.113673	0.576278
H286	H	1.080838	0.613673	1.076278
H287	H	0.668353	-0.752980	0.145945
H288	H	1.168353	-0.252980	0.645945
H289	H	0.138372	-0.072639	0.000079
H290	H	0.638372	0.427361	0.500079
N291	N	0.607620	-0.000887	0.583825
N292	N	1.107620	0.499113	1.083825
N293	N	0.577678	0.031986	0.635367
N294	N	1.077678	0.531986	1.135367
H295	H	0.540171	0.021162	0.658369
H296	H	1.040171	0.521162	1.158369
N297	N	0.744268	0.141708	0.581150
N298	N	1.244268	0.641708	1.081150
N299	N	0.712509	0.186210	0.559924
N300	N	1.212509	0.686210	1.059924
H301	H	0.721605	0.224770	0.581150
H302	H	1.221605	0.724770	1.081150
N303	N	0.519911	-0.026833	0.000047
N304	N	1.019911	0.473167	0.500047
N305	N	0.572943	-0.026183	0.000045
N306	N	1.072943	0.473817	0.500045
H307	H	0.599490	-0.063378	0.000053
H308	H	1.099490	0.436622	0.500053
H309	H	0.674934	-0.206527	0.146000
H310	H	1.174934	0.293473	0.646000
N311	N	0.672964	-0.365844	0.243092
N312	N	1.172964	0.134156	0.743092
N313	N	0.672628	-0.392377	0.314902
N314	N	1.172628	0.107623	0.814902
H315	H	0.672870	-0.370966	0.372945
H316	H	1.172870	0.129034	0.872945
N317	N	0.371199	0.181657	0.000012
N318	N	0.871199	0.681657	0.500012
N319	N	0.391406	0.228326	-0.000003
N320	N	0.891406	0.728326	0.499997
H321	H	0.364881	0.265536	-0.000006
H322	H	0.864881	0.765536	0.499994
H323	H	0.674968	-0.206486	-0.145900
H324	H	1.174968	0.293514	0.354100
N325	N	0.676362	-0.092590	-0.162555
N326	N	1.176362	0.407410	0.337445
N327	N	0.676053	-0.119111	-0.234369
N328	N	1.176053	0.380889	0.265631
H329	H	0.676325	-0.097691	-0.292409
H330	H	1.176325	0.402309	0.207591
H331	H	0.672989	-0.371965	-0.226353
H332	H	1.172989	0.128035	0.273647
