data_functionalizedCrystal
_audit_creation_method	'MofGen! by Chris Wilmer'
_symmetry_space_group_name_H-M	'P1'
_symmetry_Int_Tables_number	1
_symmetry_cell_setting	triclinic
loop_
_symmetry_equiv_pos_as_xyz
  x,y,z
_cell_length_a	19.902436
_cell_length_b	20.875790
_cell_length_c	20.875641
_cell_angle_alpha	64.262324
_cell_angle_beta	89.997815
_cell_angle_gamma	61.737131
loop_
_atom_site_label
_atom_site_type_symbol
_atom_site_fract_x
_atom_site_fract_y
_atom_site_fract_z
Zr1	Zr	0.685066	0.664257	-0.048037
O2	O	0.587888	0.785004	-0.140782
O3	O	0.710231	0.538705	-0.024035
O4	O	0.721387	0.657343	-0.147184
O5	O	0.573194	0.673496	0.084546
O6	O	0.831953	0.657354	-0.147195
O7	O	0.576733	0.666367	-0.017634
O8	O	0.811998	0.445133	0.073095
O9	O	0.593150	0.885717	-0.135744
O10	O	0.809066	0.592134	-0.008456
O11	O	0.723911	0.597446	0.067808
O12	O	0.737045	0.737127	-0.077183
O13	O	0.651889	0.742439	-0.000919
Zr14	Zr	0.855764	0.675645	0.114910
Zr15	Zr	0.861407	0.664274	-0.048056
Zr16	Zr	0.679422	0.675627	0.114928
Zr17	Zr	0.693457	0.824882	-0.040002
Zr18	Zr	0.847373	0.515020	0.106874
O19	O	0.830598	0.801197	0.090908
O20	O	0.838623	0.785029	-0.140808
O21	O	0.579864	0.801172	0.090934
O22	O	0.952941	0.554897	0.207655
O23	O	0.960966	0.538730	-0.024061
O24	O	0.702206	0.554872	0.207680
O25	O	0.967635	0.666406	-0.017674
O26	O	0.819443	0.682559	0.214056
O27	O	0.708876	0.682548	0.214068
O28	O	0.964097	0.673535	0.084506
O29	O	0.733317	0.885731	-0.135758
O30	O	0.807512	0.454171	0.202631
O31	O	0.947680	0.454185	0.202616
O32	O	0.952166	0.445147	0.073080
O33	O	0.588664	0.894755	-0.006208
O34	O	0.728831	0.894769	-0.006222
O35	O	0.803785	0.602775	0.144056
O36	O	0.888940	0.597463	0.067791
O37	O	0.816919	0.742455	-0.000936
O38	O	0.731763	0.747768	0.075328
C39	C	0.759919	0.469033	0.023385
C40	C	0.756357	0.400844	0.019974
C41	C	0.810733	0.317252	0.071877
C42	C	0.807350	0.253200	0.068667
C43	C	0.749594	0.272741	0.013551
C44	C	0.695213	0.356341	-0.038355
C45	C	0.698593	0.420391	-0.035141
C46	C	0.733471	0.086709	-0.001794
C47	C	0.730097	0.022649	-0.005004
C48	C	0.842233	-0.080487	0.102019
C49	C	0.845611	-0.016430	0.105224
C50	C	0.791227	0.067164	0.053321
N51	N	0.746137	0.207270	0.010268
N52	N	0.794682	0.132633	0.056608
C53	C	0.549839	0.669929	0.033459
C54	C	0.474977	0.669921	0.033467
C55	C	0.202932	0.669961	0.033426
C56	C	0.276863	0.578481	0.076551
C57	C	0.354754	0.578440	0.076818
C58	C	0.337897	0.669941	0.033446
C59	C	0.285023	0.719478	0.070884
C60	C	0.207417	0.718896	0.071204
C61	C	0.210480	0.712581	-0.047124
C62	C	0.289260	0.710808	-0.047082
C63	C	0.414171	0.669934	0.033457
C64	C	0.126657	0.669970	0.033418
C65	C	0.990991	0.669973	0.033414
C66	C	1.065852	0.669980	0.033406
C67	C	0.777474	0.655728	-0.170409
C68	C	0.779870	0.650901	-0.239592
C69	C	0.780910	0.870868	0.043488
C70	C	0.784473	0.939058	0.046899
C71	C	0.743402	0.724316	-0.307969
C72	C	0.745664	0.719776	-0.372971
C73	C	0.784388	0.641819	-0.369595
C74	C	0.820861	0.568399	-0.301210
C75	C	0.818604	0.572940	-0.236209
C76	C	0.795175	0.620121	-0.560150
C77	C	0.797427	0.615586	-0.625159
C78	C	0.722231	0.766963	-0.696915
C79	C	0.719973	0.771497	-0.631910
C80	C	0.756449	0.698077	-0.563531
N81	N	0.786699	0.637176	-0.436037
N82	N	0.754143	0.702721	-0.497091
C83	C	0.763355	0.684174	0.237281
C84	C	0.760960	0.689001	0.306464
C85	C	0.980495	0.469055	0.023362
C86	C	1.051794	0.400873	0.019943
C87	C	0.752860	0.483256	0.227230
C88	C	0.746902	0.419894	0.293001
C89	C	0.973436	0.483278	0.227207
C90	C	1.042339	0.419923	0.292971
C91	C	0.567394	0.856624	-0.160334
C92	C	0.498490	0.919979	-0.226098
C93	C	0.560334	0.870846	0.043510
C94	C	0.489035	0.939028	0.046929
C95	C	0.787970	0.856646	-0.160357
C96	C	0.793928	0.920008	-0.226129
C97	C	1.043584	0.366072	-0.021470
C98	C	1.110572	0.302016	-0.024697
C99	C	1.185768	0.272757	0.013493
C100	C	1.193977	0.307565	0.054907
C101	C	1.126991	0.371624	0.058130
C102	C	0.785797	0.392920	0.363696
C103	C	0.780196	0.333394	0.425502
C104	C	0.735704	0.300837	0.416612
C105	C	0.696804	0.327817	0.345910
C106	C	0.702401	0.387347	0.284106
C107	C	1.119155	0.387398	0.284045
C108	C	1.183904	0.327878	0.345832
C109	C	1.171836	0.300879	0.416543
C110	C	1.095013	0.333411	0.425468
C111	C	1.030265	0.392934	0.363682
C112	C	0.421675	0.952512	-0.217172
C113	C	0.356927	1.012052	-0.278958
C114	C	0.368995	1.039054	-0.349669
C115	C	0.445818	1.006518	-0.358594
C116	C	0.510565	0.946983	-0.296809
C117	C	0.497246	0.973836	0.088336
C118	C	0.430260	1.037909	0.091546
C119	C	0.355063	1.067169	0.053354
C120	C	0.346854	1.032359	0.011942
C121	C	0.413840	0.968291	0.008728
C122	C	0.838426	0.952546	-0.217216
C123	C	0.844040	1.012073	-0.279009
C124	C	0.805150	1.039067	-0.349715
C125	C	0.760650	1.006523	-0.358628
C126	C	0.755041	0.946992	-0.296835
H127	H	0.683064	0.038570	-0.049890
H128	H	0.848299	0.513158	-0.180534
H129	H	0.811876	0.311434	0.483064
H130	H	0.270050	0.786908	0.041187
H131	H	0.718803	0.920507	-0.304102
H132	H	0.828960	0.552101	-0.622402
H133	H	0.967720	0.419409	0.370960
H134	H	0.982362	0.389893	-0.052578
H135	H	0.731153	0.252365	0.466943
H136	H	0.325700	0.674645	-0.075008
H137	H	0.886508	-0.148554	0.144277
H138	H	0.715970	0.779558	-0.428645
H139	H	1.255211	0.283733	0.086000
H140	H	0.436959	1.066241	0.125270
H141	H	0.411834	0.930530	-0.159601
H142	H	0.300526	1.119338	0.055977
H143	H	0.660579	0.301301	0.338683
H144	H	0.670729	0.409300	0.226546
H145	H	0.203749	0.689693	0.130586
H146	H	0.285620	1.056193	-0.019152
H147	H	1.085199	0.311420	0.483049
H148	H	0.316267	1.087531	-0.399972
H149	H	0.688442	0.834978	-0.634667
H150	H	0.275691	0.777315	-0.082286
H151	H	1.103872	0.273683	-0.058421
H152	H	0.689199	0.154766	-0.044067
H153	H	0.407143	0.939953	-0.024987
H154	H	0.822027	0.419421	0.370948
H155	H	0.648184	0.372247	-0.083228
H156	H	0.455635	1.028511	-0.416174
H157	H	1.128996	0.409371	0.226474
H158	H	0.870096	0.930577	-0.159649
H159	H	1.240306	0.220595	0.010864
H160	H	0.389780	0.545427	0.136165
H161	H	0.294380	1.038532	-0.271677
H162	H	1.133687	0.399952	0.091857
H163	H	0.880275	1.038565	-0.271739
H164	H	0.654307	0.488457	-0.077400
H165	H	1.246452	0.301396	0.338552
H166	H	0.155144	0.786189	0.042072
H167	H	0.573110	0.920495	-0.304086
H168	H	0.558468	0.950017	0.119442
H169	H	1.224565	0.252411	0.466847
H170	H	0.809723	1.087542	-0.400025
H171	H	0.728987	1.028511	-0.416205
H172	H	0.857766	0.301331	0.116756
H173	H	0.277425	0.539627	0.051282
H174	H	0.851629	0.185137	0.110932
H175	H	0.318674	0.690994	0.129725
H176	H	0.273570	0.545694	0.135537
H177	H	0.393027	0.539865	0.051428
H178	H	0.892644	-0.032351	0.150104
H179	H	0.206921	0.680191	-0.077947
H180	H	0.692535	0.826738	-0.752595
H181	H	0.158599	0.779932	-0.079462
H182	H	0.711863	0.787797	-0.310727
H183	H	0.824876	0.560337	-0.504482
H184	H	0.852396	0.504925	-0.298466
