data_functionalizedCrystal
_audit_creation_method	'MofGen! by Chris Wilmer'
_symmetry_space_group_name_H-M	'P1'
_symmetry_Int_Tables_number	1
_symmetry_cell_setting	triclinic
loop_
_symmetry_equiv_pos_as_xyz
  x,y,z
_cell_length_a	12.837943
_cell_length_b	22.010155
_cell_length_c	12.811415
_cell_angle_alpha	95.426581
_cell_angle_beta	89.411917
_cell_angle_gamma	90.008188
loop_
_atom_site_label
_atom_site_type_symbol
_atom_site_fract_x
_atom_site_fract_y
_atom_site_fract_z
O1	O	1.376642	0.065552	0.272960
O2	O	1.876642	0.565552	0.772960
O3	O	1.074778	0.064813	0.259475
O4	O	1.574778	0.564813	0.759475
O5	O	1.233303	0.056803	0.114187
O6	O	1.733303	0.556803	0.614187
O7	O	1.218117	0.073562	0.418249
O8	O	1.718117	0.573562	0.918249
O9	O	1.233274	-0.044246	0.114208
O10	O	1.733274	0.455754	0.614208
O11	O	1.074749	-0.036237	0.259497
O12	O	1.574749	0.463763	0.759497
O13	O	1.376613	-0.035497	0.272981
O14	O	1.876613	0.464503	0.772981
Cu15	Cu	1.225679	-0.045094	0.266241
Cu16	Cu	1.725679	0.454906	0.766241
Cu17	Cu	1.225713	0.074409	0.266216
Cu18	Cu	1.725713	0.574409	0.766216
O19	O	1.218089	-0.027488	0.418270
O20	O	1.718089	0.472512	0.918270
C21	C	1.036123	0.014037	0.254931
C22	C	1.536123	0.514037	0.754931
C23	C	0.920987	0.013290	0.241345
C24	C	1.420987	0.513290	0.741345
N25	N	1.225662	-0.129145	0.266259
N26	N	1.725662	0.370855	0.766259
C27	C	0.680735	0.022284	0.404673
C28	C	1.180735	0.522284	0.904673
C29	C	0.572554	0.021581	0.391913
C30	C	1.072554	0.521581	0.891913
C31	C	0.596442	0.011179	0.203065
C32	C	1.096442	0.511179	0.703065
C33	C	0.704623	0.011881	0.215825
C34	C	1.204623	0.511881	0.715825
C35	C	0.746766	0.017435	0.316632
C36	C	1.246766	0.517435	0.816632
C37	C	0.854949	0.018141	0.329392
C38	C	1.354949	0.518141	0.829392
C39	C	0.878835	0.007735	0.140545
C40	C	1.378835	0.507735	0.640545
C41	C	0.770654	0.007033	0.127785
C42	C	1.270654	0.507033	0.627785
C43	C	1.295911	-0.552473	0.201892
C44	C	1.795911	-0.052473	0.701892
C45	C	1.295916	-0.616081	0.201886
C46	C	1.795916	-0.116081	0.701886
O47	O	1.355603	-0.651989	0.147169
O48	O	1.855603	-0.151989	0.647169
N49	N	1.225712	-0.644356	0.266194
N50	N	1.725712	-0.144356	0.766194
C51	C	1.155491	-0.609020	0.330505
C52	C	1.655491	-0.109020	0.830505
O53	O	1.095777	-0.638910	0.385202
O54	O	1.595777	-0.138910	0.885202
C55	C	1.155482	-0.545413	0.330505
C56	C	1.655482	-0.045413	0.830505
C57	C	1.225698	-0.517141	0.266201
C58	C	1.725698	-0.017141	0.766201
C59	C	1.366121	-0.524201	0.137593
C60	C	1.866121	-0.024201	0.637593
C61	C	1.366117	-0.460597	0.137601
C62	C	1.866117	0.039403	0.637601
C63	C	1.295904	-0.425266	0.201909
C64	C	1.795904	0.074734	0.701909
C65	C	1.225694	-0.453538	0.266209
C66	C	1.725694	0.046462	0.766209
C67	C	1.085257	-0.510078	0.394810
C68	C	1.585257	-0.010078	0.894810
C69	C	1.085254	-0.446468	0.394804
C70	C	1.585254	0.053532	0.894804
C71	C	1.155470	-0.418196	0.330500
C72	C	1.655470	0.081804	0.830500
C73	C	1.155477	-0.354602	0.330526
C74	C	1.655477	0.145398	0.830526
N75	N	1.225682	-0.326328	0.266218
N76	N	1.725682	0.173672	0.766218
C77	C	1.295895	-0.361659	0.201910
C78	C	1.795895	0.138341	0.701910
C79	C	1.155514	-0.742598	0.330498
C80	C	1.655514	-0.242598	0.830498
C81	C	1.155527	-0.806203	0.330503
C82	C	1.655527	-0.306203	0.830503
C83	C	1.295951	-0.813260	0.201883
C84	C	1.795951	-0.313260	0.701883
C85	C	1.295942	-0.749653	0.201883
C86	C	1.795942	-0.249653	0.701883
C87	C	1.225718	-0.714323	0.266190
C88	C	1.725718	-0.214323	0.766190
C89	C	1.295882	-0.228087	0.201933
C90	C	1.795882	0.271913	0.701933
C91	C	1.295875	-0.164477	0.201950
C92	C	1.795875	0.335523	0.701950
C93	C	1.155448	-0.157425	0.330566
C94	C	1.655448	0.342575	0.830566
C95	C	1.155458	-0.221029	0.330554
C96	C	1.655458	0.278971	0.830554
C97	C	1.225679	-0.256359	0.266229
C98	C	1.725679	0.243641	0.766229
O99	O	1.095818	-0.318656	0.385212
O100	O	1.595818	0.181344	0.885212
O101	O	1.355590	-0.331761	0.147211
O102	O	1.855590	0.168239	0.647211
C103	C	1.415268	0.015279	0.277526
C104	C	1.915268	0.515279	0.777526
C105	C	1.530404	0.016030	0.291112
C106	C	2.030404	0.516030	0.791112
C107	C	1.232437	0.004120	0.075009
C108	C	1.732437	0.504120	0.575009
C109	C	1.229886	-0.002313	-0.041763
C110	C	1.729886	0.497687	0.458237
N111	N	1.225737	0.158460	0.266190
N112	N	1.725737	0.658460	0.766190
C113	C	1.225107	0.095777	-0.261202
C114	C	1.725107	0.595777	0.238798
C115	C	1.222711	0.089737	-0.370920
C116	C	1.722711	0.589737	0.129080
C117	C	1.222691	-0.020434	-0.370916
C118	C	1.722691	0.479566	0.129084
C119	C	1.225087	-0.014393	-0.261199
C120	C	1.725087	0.485607	0.238801
C121	C	1.226297	0.043714	-0.206346
C122	C	1.726297	0.543714	0.293654
C123	C	1.228700	0.049754	-0.096627
C124	C	1.728700	0.549754	0.403373
C125	C	1.228672	-0.060416	-0.096625
C126	C	1.728672	0.439584	0.403375
C127	C	1.226276	-0.066456	-0.206343
C128	C	1.726276	0.433544	0.293657
C129	C	1.218955	0.025197	0.457448
C130	C	1.718955	0.525197	0.957448
C131	C	1.221505	0.031633	0.574220
C132	C	1.721505	0.531633	1.074220
H133	H	0.889259	0.022662	0.411474
H134	H	1.389259	0.522662	0.911474
H135	H	1.353057	-0.141460	0.149586
H136	H	1.853057	0.358540	0.649586
Br137	Br	0.737935	0.029831	0.541478
Br138	Br	1.237935	0.529831	1.041478
H139	H	0.932609	0.003791	0.068856
H140	H	1.432609	0.503791	0.568856
Br141	Br	1.230302	-0.131077	-0.022173
Br142	Br	1.730302	0.368923	0.477827
Br143	Br	0.989940	-0.398524	0.482078
Br144	Br	1.489940	0.101476	0.982078
H145	H	1.028081	-0.533088	0.447172
H146	H	1.528081	-0.033088	0.947172
H147	H	1.221698	-0.067742	-0.415596
H148	H	1.721698	0.432258	0.084404
H149	H	1.098284	-0.128648	0.382929
H150	H	1.598284	0.371352	0.882929
H151	H	0.736326	0.002504	0.045710
H152	H	1.236326	0.502504	0.545710
Br153	Br	1.060176	-0.259396	0.417842
Br154	Br	1.560176	0.240604	0.917842
H155	H	0.518796	0.025528	0.463605
H156	H	1.018796	0.525528	0.963605
H157	H	0.562111	0.006608	0.120992
H158	H	1.062111	0.506608	0.620992
Br159	Br	1.060248	-0.844563	0.417795
Br160	Br	1.560248	-0.344563	0.917795
Br161	Br	1.391241	-0.861224	0.114607
Br162	Br	1.891241	-0.361224	0.614607
Br163	Br	1.060208	-0.694654	0.417786
Br164	Br	1.560208	-0.194654	0.917786
H165	H	1.353062	-0.256845	0.149552
H166	H	1.853062	0.243155	0.649552
H167	H	1.423290	-0.437583	0.085236
H168	H	1.923290	0.062417	0.585236
Br169	Br	1.461421	-0.572141	0.050304
Br170	Br	1.961421	-0.072141	0.550304
H171	H	1.353117	-0.726639	0.149521
H172	H	1.853117	-0.226639	0.649521
Br173	Br	1.230349	0.128613	-0.022184
Br174	Br	1.730349	0.628613	0.477816
H175	H	1.226102	0.143091	-0.216541
H176	H	1.726102	0.643091	0.283459
Br177	Br	1.221090	0.160397	-0.445365
Br178	Br	1.721090	0.660397	0.054635
Br179	Br	1.224621	-0.145312	-0.280795
Br180	Br	1.724621	0.354688	0.219205
