data_functionalizedCrystal
_audit_creation_method	'MofGen! by Chris Wilmer'
_symmetry_space_group_name_H-M	'P1'
_symmetry_Int_Tables_number	1
_symmetry_cell_setting	triclinic
loop_
_symmetry_equiv_pos_as_xyz
  x,y,z
_cell_length_a	19.851628
_cell_length_b	23.196402
_cell_length_c	23.196401
_cell_angle_alpha	60.008822
_cell_angle_beta	90.016862
_cell_angle_gamma	59.998845
loop_
_atom_site_label
_atom_site_type_symbol
_atom_site_fract_x
_atom_site_fract_y
_atom_site_fract_z
Zr1	Zr	0.648976	0.630934	-0.075560
O2	O	0.541388	0.751211	-0.167618
O3	O	0.681955	0.510665	-0.047343
O4	O	0.681925	0.630932	-0.167608
O5	O	0.541444	0.630943	0.047519
O6	O	0.792787	0.630921	-0.167597
O7	O	0.541417	0.630944	-0.047352
O8	O	0.792841	0.415785	0.047536
O9	O	0.541391	0.846079	-0.167613
O10	O	0.778759	0.560122	-0.035296
O11	O	0.696043	0.560129	0.035497
O12	O	0.696008	0.701728	-0.106100
O13	O	0.613293	0.701735	-0.035307
Zr14	Zr	0.825830	0.630914	0.075767
Zr15	Zr	0.825788	0.630916	-0.075541
Zr16	Zr	0.649019	0.630931	0.075749
Zr17	Zr	0.648981	0.782236	-0.075553
Zr18	Zr	0.825825	0.479611	0.075761
O19	O	0.792851	0.751183	0.047550
O20	O	0.792791	0.751186	-0.167591
O21	O	0.541448	0.751208	0.047524
O22	O	0.933419	0.510636	0.167825
O23	O	0.933359	0.510639	-0.047317
O24	O	0.682015	0.510661	0.167799
O25	O	0.933363	0.630905	-0.047312
O26	O	0.792881	0.630915	0.167816
O27	O	0.682019	0.630927	0.167804
O28	O	0.933389	0.630903	0.047560
O29	O	0.681932	0.846064	-0.167599
O30	O	0.792874	0.415783	0.167806
O31	O	0.933416	0.415769	0.167821
O32	O	0.933382	0.415771	0.047551
O33	O	0.541424	0.846077	-0.047343
O34	O	0.681966	0.846063	-0.047328
O35	O	0.778798	0.560119	0.106307
O36	O	0.861513	0.560112	0.035514
O37	O	0.778763	0.701718	-0.035290
O38	O	0.696048	0.701726	0.035503
C39	C	0.737397	0.441667	0.000096
C40	C	0.737395	0.377436	0.000093
C41	C	0.780566	0.347261	-0.036863
C42	C	0.780574	0.286900	-0.036857
C43	C	0.737395	0.256727	0.000095
C44	C	0.694222	0.286906	0.037059
C45	C	0.694222	0.347260	0.037058
C46	C	0.665055	0.194705	-0.005187
C47	C	0.665052	0.134356	-0.005191
C48	C	0.737396	0.070573	0.000102
C49	C	0.809742	0.067153	0.005385
C50	C	0.809742	0.127508	0.005384
C51	C	0.737390	0.191283	0.000100
C52	C	0.780579	-0.025053	-0.036849
C53	C	0.780590	-0.085418	-0.036839
C54	C	0.694230	-0.085406	0.037072
C55	C	0.694228	-0.025048	0.037066
C56	C	0.737400	0.005128	0.000102
C57	C	0.516239	0.630946	0.000081
C58	C	0.441177	0.630953	0.000073
C59	C	0.214714	0.708145	-0.038509
C60	C	0.192343	0.669551	-0.066486
C61	C	0.303771	0.630932	0.000093
C62	C	0.192401	0.669531	0.028057
C63	C	0.171039	0.630918	0.000112
C64	C	0.282389	0.592338	-0.027923
C65	C	0.282444	0.592329	0.066657
C66	C	0.260127	0.553679	0.038697
C67	C	0.380233	0.630943	0.000081
C68	C	0.094582	0.630901	0.000124
C69	C	0.958568	0.630901	0.000127
C70	C	1.033629	0.630894	0.000135
C71	C	0.737350	0.630927	-0.189161
C72	C	0.737332	0.630928	-0.253395
C73	C	0.737409	0.820180	0.000112
C74	C	0.737411	0.884412	0.000115
C75	C	0.694142	0.704842	-0.320527
C76	C	0.694163	0.704843	-0.380882
C77	C	0.737363	0.630926	-0.374101
C78	C	0.780563	0.557001	-0.306957
C79	C	0.780548	0.557002	-0.246604
C80	C	0.731227	0.574298	-0.441422
C81	C	0.731236	0.574300	-0.501775
C82	C	0.737415	0.630919	-0.560249
C83	C	0.743568	0.687550	-0.558369
C84	C	0.743553	0.687551	-0.498016
C85	C	0.737385	0.630916	-0.439540
C86	C	0.694245	0.704840	-0.692828
C87	C	0.694272	0.704838	-0.753183
C88	C	0.780667	0.556994	-0.679255
C89	C	0.780646	0.556998	-0.618903
C90	C	0.737430	0.630924	-0.625694
C91	C	0.737456	0.630921	0.189368
C92	C	0.737474	0.630920	0.253603
C93	C	0.958562	0.441645	0.000119
C94	C	1.033621	0.377406	0.000124
C95	C	0.737450	0.441664	0.189360
C96	C	0.737466	0.377432	0.253592
C97	C	0.958615	0.441642	0.189383
C98	C	1.033692	0.377402	0.253623
C99	C	0.516192	0.820205	-0.189175
C100	C	0.441115	0.884445	-0.253415
C101	C	0.516245	0.820202	0.000089
C102	C	0.441186	0.884442	0.000084
C103	C	0.737356	0.820183	-0.189152
C104	C	0.737341	0.884416	-0.253384
C105	C	1.025672	0.347243	-0.036842
C106	C	1.096192	0.286892	-0.036852
C107	C	1.174659	0.256700	0.000109
C108	C	1.182606	0.286869	0.037077
C109	C	1.112087	0.347223	0.037082
C110	C	0.780671	0.347262	0.320724
C111	C	0.780682	0.286917	0.381083
C112	C	0.737494	0.256738	0.374307
C113	C	0.694284	0.286914	0.307168
C114	C	0.694268	0.347262	0.246811
C115	C	1.112133	0.347230	0.246837
C116	C	1.182682	0.286878	0.307191
C117	C	1.174789	0.256694	0.374330
C118	C	1.096340	0.286872	0.381115
C119	C	1.025792	0.347227	0.320761
C120	C	0.362674	0.914625	-0.246630
C121	C	0.292124	0.974996	-0.306984
C122	C	0.300017	1.005182	-0.374123
C123	C	0.378466	0.975001	-0.380907
C124	C	0.449014	0.914635	-0.320553
C125	C	0.449134	0.914610	0.037044
C126	C	0.378615	0.974978	0.037036
C127	C	0.300148	1.005172	0.000073
C128	C	0.292201	0.975001	-0.036891
C129	C	0.362719	0.914638	-0.036888
C130	C	0.780537	0.914575	-0.246586
C131	C	0.780539	0.974921	-0.306933
C132	C	0.737338	1.005110	-0.374077
C133	C	0.694139	0.974944	-0.380874
C134	C	0.694144	0.914596	-0.320528
H135	H	0.815736	-0.000485	-0.066946
H136	H	0.153518	0.702185	-0.122770
N137	N	0.228110	1.066834	0.000063
N138	N	0.177334	1.134198	-0.056853
H139	H	0.126458	1.177747	-0.056858
H140	H	0.385101	0.999534	0.067140
H141	H	1.089926	0.262288	0.435787
H142	H	0.659066	0.262334	0.067146
N143	N	0.212000	1.005789	-0.300039
N144	N	0.163008	0.999046	-0.325472
H145	H	0.106423	1.020787	-0.320564
N146	N	0.824800	0.378073	0.327655
N147	N	0.900954	0.330910	0.359153
H148	H	0.932121	0.352669	0.364052
H149	H	0.815872	0.262356	0.435745
N150	N	0.650034	1.005738	-0.449450
N151	N	0.573885	1.039410	-0.467492
H152	H	0.542745	1.061140	-0.515921
H153	H	0.961787	0.371825	-0.066949
H154	H	0.228304	0.999594	-0.066986
N155	N	0.227958	1.066832	-0.435776
N156	N	0.235008	1.093777	-0.495721
H157	H	0.184114	1.137315	-0.539263
N158	N	0.650179	0.256081	0.300241
N159	N	0.611608	0.283013	0.240299
H160	H	0.580462	0.261233	0.235407
H161	H	0.659088	0.371818	0.192151
N162	N	0.283465	0.471715	0.079662
N163	N	0.326362	0.424456	0.143498
H164	H	0.342842	0.366570	0.172429
N165	N	0.737521	0.195096	0.435971
N166	N	0.776105	0.168170	0.495905
H167	H	0.776128	0.124633	0.539459
N168	N	1.120206	0.378046	0.178261
N169	N	1.156999	0.330886	0.160257
H170	H	1.162707	0.352648	0.111826
H171	H	0.384883	0.999587	-0.435579
N172	N	0.354578	0.883833	-0.074646
N173	N	0.284510	0.910803	-0.107643
H174	H	0.278754	0.889050	-0.134313
N175	N	0.591148	0.259869	-0.010610
N176	N	0.560284	0.332003	-0.061127
H177	H	0.508089	0.378025	-0.064957
H178	H	0.815717	0.890005	-0.191919
H179	H	1.246553	0.262313	0.301655
H180	H	1.232241	0.207549	0.423468
N181	N	1.262761	0.256029	0.074824
N182	N	1.311744	0.262758	0.042657
H183	H	1.368356	0.240972	0.069319
N184	N	0.749894	0.745388	-0.618082
N185	N	0.755394	0.795939	-0.616392
H186	H	0.759860	0.836787	-0.658566
N187	N	0.529132	0.883819	-0.327503
N188	N	0.536158	0.910783	-0.387456
H189	H	0.592741	0.889023	-0.392370
N190	N	0.354613	0.883798	-0.178049
N191	N	0.417599	0.829904	-0.124160
H192	H	0.411902	0.808139	-0.075725
H193	H	0.961925	0.371785	0.326296
H194	H	0.513020	0.890031	0.067148
H195	H	0.726221	0.528191	-0.503301
N196	N	0.650121	0.378074	0.074815
N197	N	0.611577	0.351125	0.107812
H198	H	0.580428	0.372888	0.134478
N199	N	0.824671	1.005717	-0.299968
N200	N	0.863230	0.978758	-0.240011
H201	H	0.894400	1.000505	-0.235089
H202	H	1.089705	0.262336	-0.066955
H203	H	0.737341	1.054250	-0.423209
N204	N	0.650000	0.883801	-0.327466
N205	N	0.649993	0.829926	-0.273587
H206	H	0.618812	0.808181	-0.278490
H207	H	0.815738	0.496817	-0.301440
H208	H	0.815722	0.371827	-0.066960
N209	N	0.824670	-0.116238	-0.074600
N210	N	0.824661	-0.170122	-0.074598
H211	H	0.855789	-0.191887	-0.101271
N212	N	0.331140	0.551430	0.137252
N213	N	0.301410	0.577759	0.173140
H214	H	0.335798	0.548879	0.223000
H215	H	0.815730	0.262328	-0.066952
H216	H	0.868648	0.124719	0.009688
H217	H	0.153607	0.702179	0.051699
N218	N	0.883643	0.002022	0.010771
N219	N	0.885053	-0.008183	-0.037386
H220	H	0.937244	-0.054178	-0.033589
N221	N	0.650148	-0.116246	0.074833
N222	N	0.650165	-0.170144	0.074840
H223	H	0.619038	-0.191934	0.101515
H224	H	0.658956	0.765038	-0.326063
H225	H	1.118570	0.371774	0.067188
N226	N	0.650124	0.005770	0.074819
N227	N	0.611577	-0.021177	0.107813
H228	H	0.580428	0.000585	0.134480
N229	N	0.191557	0.790046	-0.079524
N230	N	0.149730	0.836921	-0.143618
H231	H	0.133378	0.894763	-0.172588
H232	H	0.659057	0.765035	-0.698358
H233	H	0.606143	0.137149	-0.009497
H234	H	0.321076	0.559728	-0.051629
N235	N	0.650041	0.780356	-0.449461
N236	N	0.611463	0.846353	-0.455513
H237	H	0.580301	0.899685	-0.503945
H238	H	0.748565	0.733660	-0.496488
H239	H	0.659104	0.765031	-0.807846
N240	N	0.824794	0.481480	-0.672308
N241	N	0.863349	0.415487	-0.612359
H242	H	0.894518	0.362152	-0.607452
N243	N	0.824767	0.481494	-0.550326
N244	N	0.900921	0.431992	-0.532293
H245	H	0.932086	0.378663	-0.483859
N246	N	0.724940	0.516445	-0.381682
N247	N	0.778471	0.441789	-0.351087
H248	H	0.774038	0.400928	-0.308893
N249	N	0.824678	0.481489	-0.178031
N250	N	0.863257	0.415494	-0.171981
H251	H	0.894425	0.362161	-0.123550
H252	H	1.232073	0.207555	0.000100
