data_functionalizedCrystal
_audit_creation_method	'MofGen! by Chris Wilmer'
_symmetry_space_group_name_H-M	'P1'
_symmetry_Int_Tables_number	1
_symmetry_cell_setting	triclinic
loop_
_symmetry_equiv_pos_as_xyz
  x,y,z
_cell_length_a	17.077404
_cell_length_b	18.050589
_cell_length_c	18.050582
_cell_angle_alpha	90.018005
_cell_angle_beta	90.015013
_cell_angle_gamma	90.031766
loop_
_atom_site_label
_atom_site_type_symbol
_atom_site_fract_x
_atom_site_fract_y
_atom_site_fract_z
Zn1	Zn	-1.199954	0.295765	-0.419938
Zn2	Zn	-1.199845	0.419948	-0.295758
Zn3	Zn	-1.068696	0.295770	-0.295762
Zn4	Zn	-1.068627	0.419911	-0.419906
O5	O	-1.134280	0.357848	-0.357841
O6	O	-1.309786	0.312251	-0.403477
O7	O	-1.182431	0.403493	-0.191834
O8	O	-1.086183	0.191845	-0.312249
O9	O	-1.309706	0.403488	-0.312242
O10	O	-1.182617	0.191841	-0.403481
O11	O	-1.086077	0.312260	-0.191837
O12	O	-0.958840	0.312224	-0.312218
O13	O	-1.086064	0.403425	-0.523835
O14	O	-0.958789	0.403430	-0.403426
O15	O	-1.182549	0.312215	-0.523858
O16	O	-1.182363	0.523868	-0.312211
O17	O	-1.085958	0.523841	-0.403423
C18	C	-0.930333	0.357824	-0.357820
C19	C	-0.843083	0.357832	-0.357828
C20	C	-0.802135	0.310409	-0.405406
C21	C	-0.720155	0.310412	-0.405407
C22	C	-0.679123	0.357843	-0.357835
C23	C	-0.720077	0.405269	-0.310252
C24	C	-0.802056	0.405261	-0.310247
C25	C	-0.549207	0.405283	-0.310267
C26	C	-0.467222	0.405292	-0.310272
C27	C	-0.467306	0.310434	-0.405427
C28	C	-0.549285	0.310427	-0.405422
C29	C	-0.590232	0.357853	-0.357840
C30	C	-1.134163	0.550801	-0.357829
C31	C	-1.134184	0.633346	-0.357849
C32	C	-0.339025	0.357869	-0.357857
C33	C	-0.426274	0.357869	-0.357850
C34	C	-1.081786	0.832809	-0.407433
C35	C	-1.062651	0.882242	-0.339666
C36	C	-1.134243	0.784477	-0.357859
C37	C	-1.153399	0.882125	-0.425635
C38	C	-1.134299	0.930462	-0.357875
C39	C	-1.115070	0.832823	-0.290056
C40	C	-1.205851	0.832701	-0.376071
C41	C	-1.186744	0.882112	-0.308257
C42	C	-1.134209	0.700378	-0.357851
C43	C	-1.134333	1.014558	-0.357876
C44	C	-1.134311	0.357816	-0.551547
C45	C	-1.134324	0.357801	-0.634092
C46	C	-1.134390	1.164143	-0.357870
C47	C	-1.134360	1.081597	-0.357884
C48	C	-1.081895	0.407334	-0.833530
C49	C	-1.153510	0.425491	-0.882923
C50	C	-1.134363	0.357745	-0.785223
C51	C	-1.062788	0.339567	-0.882912
C52	C	-1.134394	0.357691	-0.931208
C53	C	-1.206015	0.375937	-0.833528
C54	C	-1.115245	0.289982	-0.833513
C55	C	-1.186908	0.308114	-0.882883
C56	C	-1.134344	0.357777	-0.701124
C57	C	-1.134421	0.357659	-1.015305
C58	C	-1.134295	0.357828	-0.164889
C59	C	-1.134434	0.357633	-0.082343
H60	H	-0.433962	0.271817	-0.444168
O61	O	-1.278070	0.806684	-0.394334
C62	C	-1.307780	0.763720	-0.335478
H63	H	-1.277763	0.780644	-0.281649
H64	H	-1.296052	0.702596	-0.346850
C65	C	-1.433494	0.755710	-0.394652
C66	C	-1.396631	0.776500	-0.328537
H67	H	-1.488302	0.763590	-0.390371
H68	H	-1.413477	0.784653	-0.434306
H69	H	-1.423712	0.704774	-0.404121
H70	H	-1.406405	0.827437	-0.319073
H71	H	-1.416652	0.747566	-0.288881
O72	O	-1.172664	0.908087	-0.493967
C73	C	-1.173141	0.986189	-0.492854
H74	H	-1.134658	1.006811	-0.445524
H75	H	-1.235617	1.006759	-0.484453
C76	C	-1.188515	0.990530	-0.625053
C77	C	-1.141244	1.015858	-0.566925
H78	H	-1.168843	1.008832	-0.670745
H79	H	-1.188197	0.937912	-0.625803
H80	H	-1.240575	1.007674	-0.618042
H81	H	-1.089188	0.998707	-0.573932
H82	H	-1.141553	1.068474	-0.566178
H83	H	-1.037567	0.449324	-0.811861
O84	O	-0.427280	0.451258	-0.264018
C85	C	-0.379878	0.408905	-0.216122
H86	H	-0.367634	0.352666	-0.242420
H87	H	-0.411456	0.400657	-0.161099
C88	C	-0.317020	0.518826	-0.170304
C89	C	-0.301976	0.449754	-0.202607
H90	H	-0.268968	0.544024	-0.161965
H91	H	-0.348957	0.547360	-0.202571
H92	H	-0.343338	0.511943	-0.124456
H93	H	-0.275668	0.456638	-0.248459
H94	H	-0.270032	0.421222	-0.170348
H95	H	-0.686662	0.443884	-0.271514
O96	O	-0.589023	0.264283	-0.451657
C97	C	-0.535304	0.222437	-0.493667
H98	H	-0.476855	0.219826	-0.463260
H99	H	-0.526595	0.249710	-0.550025
C100	C	-0.639133	0.146615	-0.541846
C101	C	-0.567347	0.143404	-0.504497
H102	H	-0.658900	0.097865	-0.548530
H103	H	-0.675325	0.174810	-0.513546
H104	H	-0.631866	0.169347	-0.588807
H105	H	-0.574617	0.120682	-0.457533
H106	H	-0.531157	0.115204	-0.532790
H107	H	-1.169699	0.482773	-0.904627
O108	O	-1.239804	0.257967	-0.908605
C109	C	-1.200916	0.204133	-0.951593
H110	H	-1.136577	0.201908	-0.934894
H111	H	-1.205696	0.219294	-1.012733
C112	C	-1.317912	0.130586	-0.959024
C113	C	-1.238891	0.127849	-0.938511
H114	H	-1.341338	0.083531	-0.950958
H115	H	-1.344113	0.166857	-0.930065
H116	H	-1.321885	0.143223	-1.009973
H117	H	-1.234920	0.115221	-0.887560
H118	H	-1.212690	0.091575	-0.967461
O119	O	-1.278208	0.394357	-0.807641
C120	C	-1.277316	0.394176	-0.729535
H121	H	-1.214752	0.402434	-0.709088
H122	H	-1.300667	0.338913	-0.708387
C123	C	-1.406153	0.447332	-0.725519
C124	C	-1.329311	0.457481	-0.700405
H125	H	-1.438229	0.486379	-0.707549
H126	H	-1.406755	0.447452	-0.778140
H127	H	-1.425601	0.401277	-0.707894
H128	H	-1.309861	0.503531	-0.718038
H129	H	-1.328707	0.457371	-0.647786
O130	O	-0.588863	0.451426	-0.264025
C131	C	-0.535071	0.493282	-0.222027
H132	H	-0.476641	0.495896	-0.252443
H133	H	-0.526349	0.466015	-0.165668
C134	C	-0.638786	0.569096	-0.173840
C135	C	-0.567023	0.572312	-0.211200
H136	H	-0.658496	0.617845	-0.167158
H137	H	-0.675028	0.540895	-0.202132
H138	H	-0.631508	0.546370	-0.126878
H139	H	-0.574304	0.595029	-0.258165
H140	H	-0.530784	0.600519	-0.182915
H141	H	-1.099035	0.232717	-0.811792
H142	H	-1.002245	0.324215	-0.904604
O143	O	-0.841713	0.451401	-0.264010
C144	C	-0.787921	0.493255	-0.222009
H145	H	-0.729493	0.495875	-0.252427
H146	H	-0.779196	0.465983	-0.165653
C147	C	-0.891638	0.569061	-0.173811
C148	C	-0.819877	0.572283	-0.211173
H149	H	-0.911350	0.617808	-0.167123
H150	H	-0.927879	0.540861	-0.202105
H151	H	-0.884357	0.546330	-0.126851
H152	H	-0.827160	0.595004	-0.258135
H153	H	-0.783637	0.600488	-0.182887
H154	H	-0.835537	0.271787	-0.444147
H155	H	-1.098820	0.811255	-0.232730
H156	H	-1.037368	0.811160	-0.449296
O157	O	-0.990390	0.908171	-0.321412
C158	C	-0.935227	0.883041	-0.373796
H159	H	-0.966400	0.869133	-0.427898
H160	H	-0.904753	0.831404	-0.351677
C161	C	-0.835740	0.961217	-0.321363
C162	C	-0.874027	0.944140	-0.387815
H163	H	-0.797987	0.998903	-0.330009
H164	H	-0.872903	0.978145	-0.286070
H165	H	-0.810351	0.918181	-0.302938
H166	H	-0.899423	0.987173	-0.406234
H167	H	-0.836867	0.927220	-0.423112
O168	O	-1.239596	0.907872	-0.258151
C169	C	-1.200822	0.951873	-0.205011
H170	H	-1.143723	0.973698	-0.229391
H171	H	-1.187554	0.917031	-0.153864
C172	C	-1.323653	0.990718	-0.153182
C173	C	-1.253526	1.017529	-0.183128
H174	H	-1.356163	1.031216	-0.139680
H175	H	-1.349776	0.961072	-0.188981
H176	H	-1.312585	0.961683	-0.110563
H177	H	-1.264594	1.046555	-0.225751
H178	H	-1.227406	1.047181	-0.147335
H179	H	-0.686819	0.271797	-0.444151
