data_functionalizedCrystal
_audit_creation_method	'MofGen! by Chris Wilmer'
_symmetry_space_group_name_H-M	'P1'
_symmetry_Int_Tables_number	1
_symmetry_cell_setting	triclinic
loop_
_symmetry_equiv_pos_as_xyz
  x,y,z
_cell_length_a	16.959455
_cell_length_b	25.639240
_cell_length_c	16.959447
_cell_angle_alpha	89.959742
_cell_angle_beta	89.985678
_cell_angle_gamma	90.029705
loop_
_atom_site_label
_atom_site_type_symbol
_atom_site_fract_x
_atom_site_fract_y
_atom_site_fract_z
Zn1	Zn	1.208314	-0.208183	-0.446854
Zn2	Zn	1.708314	0.291817	0.053146
Zn3	Zn	1.208207	-0.295624	-0.314653
Zn4	Zn	1.708207	0.204376	0.185347
Zn5	Zn	1.076143	-0.208199	-0.314692
Zn6	Zn	1.576143	0.291801	0.185308
Zn7	Zn	1.076078	-0.295585	-0.446791
Zn8	Zn	1.576078	0.204415	0.053209
O9	O	1.142185	-0.251898	-0.380747
O10	O	1.642185	0.248102	0.119253
O11	O	1.318911	-0.219792	-0.429327
O12	O	1.818911	0.280208	0.070673
O13	O	1.190671	-0.284050	-0.204047
O14	O	1.690671	0.215950	0.295953
O15	O	1.093747	-0.135032	-0.332266
O16	O	1.593747	0.364968	0.167734
O17	O	1.318832	-0.284034	-0.332199
O18	O	1.818832	0.215966	0.167801
O19	O	1.190853	-0.135020	-0.429365
O20	O	1.690853	0.364980	0.070635
O21	O	1.093644	-0.219820	-0.204075
O22	O	1.593644	0.280180	0.295925
O23	O	0.965523	-0.219782	-0.332205
O24	O	1.465523	0.280218	0.167795
O25	O	1.093637	-0.283967	-0.557410
O26	O	1.593637	0.216033	-0.057410
O27	O	0.965476	-0.283983	-0.429258
O28	O	1.465476	0.216017	0.070742
O29	O	1.190790	-0.219754	-0.557457
O30	O	1.690790	0.280246	-0.057457
O31	O	1.190608	-0.368784	-0.332138
O32	O	1.690608	0.131216	0.167862
O33	O	1.093533	-0.368755	-0.429220
O34	O	1.593533	0.131245	0.070780
C35	C	0.936819	-0.251880	-0.380729
C36	C	1.436819	0.248120	0.119271
C37	C	0.848963	-0.251886	-0.380740
C38	C	1.348963	0.248114	0.119260
C39	C	0.477487	-0.218441	-0.330317
C40	C	0.977487	0.281559	0.169683
C41	C	0.477487	-0.285398	-0.431222
C42	C	0.977487	0.214602	0.068778
C43	C	0.560033	-0.285390	-0.431218
C44	C	1.060033	0.214610	0.068782
C45	C	0.601310	-0.251908	-0.380761
C46	C	1.101310	0.248092	0.119239
C47	C	0.560041	-0.218433	-0.330309
C48	C	1.060041	0.281567	0.169691
C49	C	0.601308	-0.318868	-0.481663
C50	C	1.101308	0.181132	0.018337
C51	C	0.683859	-0.318863	-0.481659
C52	C	1.183859	0.181137	0.018341
C53	C	0.725137	-0.285377	-0.431206
C54	C	1.225137	0.214623	0.068794
C55	C	0.683863	-0.251901	-0.380753
C56	C	1.183863	0.248099	0.119247
C57	C	0.725140	-0.218418	-0.330297
C58	C	1.225140	0.281582	0.169703
C59	C	0.683868	-0.184939	-0.279847
C60	C	1.183868	0.315061	0.220153
C61	C	0.601319	-0.184948	-0.279856
C62	C	1.101319	0.315052	0.220144
C63	C	0.807686	-0.285368	-0.431197
C64	C	1.307686	0.214632	0.068803
C65	C	0.807694	-0.218411	-0.330288
C66	C	1.307694	0.281589	0.169712
C67	C	1.142074	-0.387740	-0.380685
C68	C	1.642074	0.112260	0.119315
C69	C	1.142098	-0.445854	-0.380685
C70	C	1.642098	0.054146	0.119315
C71	C	1.192774	-0.806173	-0.431398
C72	C	1.692774	-0.306173	0.068602
C73	C	1.192797	-0.860777	-0.431414
C74	C	1.692797	-0.360777	0.068586
O75	O	1.235750	-0.888976	-0.474468
O76	O	1.735750	-0.388976	0.025532
N77	N	1.142295	-0.888137	-0.380824
N78	N	1.642295	-0.388137	0.119176
C79	C	1.091761	-0.860889	-0.330220
C80	C	1.591761	-0.360889	0.169780
O81	O	1.048807	-0.889175	-0.287190
O82	O	1.548807	-0.389175	0.212810
C83	C	1.091734	-0.806286	-0.330208
C84	C	1.591734	-0.306286	0.169792
C85	C	1.142245	-0.778929	-0.380796
C86	C	1.642245	-0.278929	0.119204
C87	C	1.243280	-0.778816	-0.481983
C88	C	1.743280	-0.278816	0.018017
C89	C	1.243257	-0.724215	-0.481965
C90	C	1.743257	-0.224215	0.018035
C91	C	1.192729	-0.696972	-0.431364
C92	C	1.692729	-0.196972	0.068636
C93	C	1.142223	-0.724329	-0.380779
C94	C	1.642223	-0.224329	0.119221
C95	C	1.041197	-0.779040	-0.279609
C96	C	1.541197	-0.279040	0.220391
C97	C	1.041174	-0.724433	-0.279602
C98	C	1.541174	-0.224433	0.220398
C99	C	1.091685	-0.697076	-0.330190
C100	C	1.591685	-0.197076	0.169810
C101	C	1.091672	-0.642485	-0.330160
C102	C	1.591672	-0.142485	0.169840
N103	N	1.142173	-0.615125	-0.380750
N104	N	1.642173	-0.115125	0.119250
C105	C	1.192702	-0.642368	-0.431352
C106	C	1.692702	-0.142368	0.068648
C107	C	1.091820	-0.975560	-0.330249
C108	C	1.591820	-0.475560	0.169751
C109	C	1.091850	-1.030162	-0.330255
C110	C	1.591850	-0.530162	0.169745
C111	C	1.192885	-1.030046	-0.431451
C112	C	1.692885	-0.530046	0.068549
C113	C	1.192858	-0.975443	-0.431440
C114	C	1.692858	-0.475443	0.068560
C115	C	1.142322	-0.948200	-0.380839
C116	C	1.642322	-0.448200	0.119161
C117	C	1.192651	-0.527703	-0.431311
C118	C	1.692651	-0.027703	0.068689
C119	C	1.192627	-0.473098	-0.431287
C120	C	1.692627	0.026902	0.068713
C121	C	1.091589	-0.473219	-0.330095
C122	C	1.591589	0.026781	0.169905
C123	C	1.091616	-0.527819	-0.330116
C124	C	1.591616	-0.027819	0.169884
C125	C	1.142150	-0.555060	-0.380730
C126	C	1.642150	-0.055060	0.119270
O127	O	1.048738	-0.614251	-0.287130
O128	O	1.548738	-0.114251	0.212870
O129	O	1.235641	-0.614076	-0.474381
O130	O	1.735641	-0.114076	0.025619
C131	C	1.348354	-0.251915	-0.380766
C132	C	1.848354	0.248085	0.119234
C133	C	1.436210	-0.251923	-0.380774
C134	C	1.936210	0.248077	0.119226
C135	C	1.142218	-0.251854	-0.586916
C136	C	1.642218	0.248146	-0.086916
C137	C	1.142232	-0.251836	-0.674772
C138	C	1.642232	0.248164	-0.174772
C139	C	1.142319	-0.115525	-0.380827
C140	C	1.642319	0.384475	0.119173
C141	C	1.142376	-0.057411	-0.380861
C142	C	1.642376	0.442589	0.119139
C143	C	1.091744	-0.285214	-1.046227
C144	C	1.591744	0.214786	-0.546227
C145	C	1.192910	-0.218348	-1.046270
C146	C	1.692910	0.281652	-0.546270
C147	C	1.192889	-0.218359	-0.963724
C148	C	1.692889	0.281641	-0.463724
C149	C	1.142295	-0.251799	-0.922425
C150	C	1.642295	0.248201	-0.422425
C151	C	1.091723	-0.285227	-0.963673
C152	C	1.591723	0.214773	-0.463673
C153	C	1.243467	-0.184935	-0.922470
C154	C	1.743467	0.315065	-0.422470
C155	C	1.243448	-0.184945	-0.839919
C156	C	1.743448	0.315055	-0.339919
C157	C	1.192850	-0.218382	-0.798619
C158	C	1.692850	0.281618	-0.298619
C159	C	1.142274	-0.251812	-0.839872
C160	C	1.642274	0.248188	-0.339872
C161	C	1.091681	-0.285251	-0.798573
C162	C	1.591681	0.214749	-0.298573
C163	C	1.041101	-0.318679	-0.839825
C164	C	1.541101	0.181321	-0.339825
C165	C	1.041124	-0.318665	-0.922373
C166	C	1.541124	0.181335	-0.422373
C167	C	1.192826	-0.218396	-0.716071
C168	C	1.692826	0.281604	-0.216071
C169	C	1.091660	-0.285265	-0.716020
C170	C	1.591660	0.214735	-0.216020
C171	C	1.142198	-0.251903	-0.175381
C172	C	1.642198	0.248097	0.324619
C173	C	1.142337	-0.251774	-0.087525
C174	C	1.642337	0.248226	0.412475
H175	H	0.717456	-0.346123	-0.522739
H176	H	1.217456	0.153877	-0.022739
Cl177	Cl	0.859578	-0.176313	-0.266858
Cl178	Cl	1.359578	0.323687	0.233142
Cl179	Cl	1.256412	-0.176381	-0.664216
Cl180	Cl	1.756412	0.323619	-0.164216
H181	H	0.443880	-0.191181	-0.289245
H182	H	0.943880	0.308819	0.210755
H183	H	1.234106	-0.191126	-1.079900
H184	H	1.734106	0.308874	-0.579900
Cl185	Cl	0.425595	-0.327499	-0.494633
Cl186	Cl	0.925595	0.172501	0.005367
Cl187	Cl	1.256183	-0.561940	-0.494940
Cl188	Cl	1.756183	-0.061940	0.005060
Cl189	Cl	1.028048	-0.327303	-0.664109
Cl190	Cl	1.528048	0.172697	-0.164109
H191	H	1.000066	-0.801305	-0.238414
H192	H	1.500066	-0.301305	0.261586
H193	H	0.717486	-0.157680	-0.238762
H194	H	1.217486	0.342320	0.261238
H195	H	0.567708	-0.157691	-0.238782
H196	H	1.067708	0.342309	0.261218
Cl197	Cl	0.859567	-0.327456	-0.494609
Cl198	Cl	1.359567	0.172544	0.005391
Cl199	Cl	0.549413	-0.360974	-0.545064
Cl200	Cl	1.049413	0.139026	-0.045064
Cl201	Cl	1.306753	-0.689832	-0.545572
Cl202	Cl	1.806753	-0.189832	-0.045572
Cl203	Cl	1.306808	-0.813055	-0.545608
Cl204	Cl	1.806808	-0.313055	-0.045608
H205	H	1.233988	-0.953172	-0.472633
H206	H	1.733988	-0.453172	0.027367
H207	H	1.233761	-0.450825	-0.472482
H208	H	1.733761	0.049175	0.027518
Cl209	Cl	1.028127	-0.562212	-0.266508
Cl210	Cl	1.528127	-0.062212	0.233492
Cl211	Cl	0.977638	-0.690189	-0.215985
Cl212	Cl	1.477638	-0.190189	0.284015
H213	H	1.050560	-0.312428	-1.079817
H214	H	1.550560	0.187572	-0.579817
Cl215	Cl	1.256406	-1.064305	-0.495067
Cl216	Cl	1.756406	-0.564305	0.004933
H217	H	1.284662	-0.157713	-0.956101
H218	H	1.784662	0.342287	-0.456101
Cl219	Cl	1.028359	-1.064547	-0.266645
Cl220	Cl	1.528359	-0.564547	0.233355
H221	H	0.999947	-0.345881	-0.955967
H222	H	1.499947	0.154119	-0.455967
H223	H	1.284633	-0.157726	-0.806339
H224	H	1.784633	0.342274	-0.306339
H225	H	1.050452	-0.451029	-0.288893
H226	H	1.550452	0.048971	0.211107
Cl227	Cl	1.028287	-0.941318	-0.266624
Cl228	Cl	1.528287	-0.441318	0.233376
H229	H	0.999911	-0.345907	-0.806189
H230	H	1.499911	0.154093	-0.306189
