data_functionalizedCrystal
_audit_creation_method	'MofGen! by Chris Wilmer'
_symmetry_space_group_name_H-M	'P1'
_symmetry_Int_Tables_number	1
_symmetry_cell_setting	triclinic
loop_
_symmetry_equiv_pos_as_xyz
  x,y,z
_cell_length_a	6.817900
_cell_length_b	7.190334
_cell_length_c	19.452420
_cell_angle_alpha	88.385914
_cell_angle_beta	78.303285
_cell_angle_gamma	119.388224
loop_
_atom_site_label
_atom_site_type_symbol
_atom_site_fract_x
_atom_site_fract_y
_atom_site_fract_z
V1	V	4.214553	0.666032	-0.096061
O2	O	4.207234	0.652280	0.005769
O3	O	4.156378	0.662510	-0.191581
O4	O	4.251891	0.956041	-0.094077
O5	O	4.111060	0.356717	-0.092410
V6	V	4.688338	0.628910	-0.083941
O7	O	4.497173	0.747462	-0.122648
O8	O	4.855916	0.547480	-0.057354
O9	O	4.523307	0.632433	0.011580
O10	O	4.813054	0.642662	-0.185770
O11	O	4.909229	0.938225	-0.087592
O12	O	4.427794	0.338902	-0.085924
C13	C	3.996227	0.652269	-0.214883
C14	C	4.030520	0.651322	-0.292969
C15	C	4.118074	1.026694	-0.090504
C16	C	4.231920	1.268240	-0.089494
C17	C	3.949604	0.455427	-0.319928
C18	C	3.981878	0.454472	-0.393296
C19	C	4.095031	0.649420	-0.439702
C20	C	4.175967	0.845342	-0.412736
C21	C	4.143711	0.846293	-0.339369
N22	N	4.102420	0.786719	-0.559920
N23	N	4.133050	0.785802	-0.629614
C24	C	4.192226	0.646568	-0.660753
N25	N	4.219572	0.508250	-0.619562
N26	N	4.188926	0.509160	-0.549860
C27	C	4.130019	0.648411	-0.519257
C28	C	4.146302	0.449624	-0.767266
C29	C	4.178593	0.448677	-0.840636
C30	C	4.372663	0.839552	-0.860074
C31	C	4.340390	0.840494	-0.786705
C32	C	4.227199	0.645523	-0.740305
C33	C	4.346799	0.642667	0.034878
C34	C	4.291748	0.643628	0.112963
H35	H	3.857451	0.296667	-0.282153
Cl36	Cl	4.245438	1.092581	-0.305476
H37	H	4.054134	0.290867	-0.729484
H38	H	4.464795	0.998283	-0.897857
H39	H	4.406266	1.000012	-0.764756
H40	H	3.915981	0.294946	-0.415251
Cl41	Cl	4.318228	1.090421	-0.471074
H42	H	4.112710	0.289151	-0.862583
