data_functionalizedCrystal
_audit_creation_method	'MofGen! by Chris Wilmer'
_symmetry_space_group_name_H-M	'P1'
_symmetry_Int_Tables_number	1
_symmetry_cell_setting	triclinic
loop_
_symmetry_equiv_pos_as_xyz
  x,y,z
_cell_length_a	16.109301
_cell_length_b	15.944551
_cell_length_c	15.186229
_cell_angle_alpha	89.995303
_cell_angle_beta	89.999362
_cell_angle_gamma	83.480109
loop_
_atom_site_label
_atom_site_type_symbol
_atom_site_fract_x
_atom_site_fract_y
_atom_site_fract_z
O1	O	1.103166	0.107966	-0.073175
O2	O	0.861108	0.121402	-0.073189
O3	O	0.988747	-0.007593	-0.073174
O4	O	0.975527	0.236961	-0.073190
O5	O	0.988738	-0.007594	0.073284
O6	O	0.861099	0.121401	0.073268
O7	O	1.103157	0.107964	0.073282
Zn8	Zn	0.982127	0.114682	0.096529
Zn9	Zn	0.982138	0.114685	-0.096435
O10	O	0.975518	0.236960	0.073267
C11	C	0.830129	0.120857	0.000038
C12	C	0.737833	0.119226	0.000033
C13	C	0.515584	0.191975	0.000038
C14	C	0.428863	0.190435	0.000044
C15	C	0.448688	0.037387	0.000050
C16	C	0.535407	0.038927	0.000051
C17	C	0.568853	0.116224	0.000040
C18	C	0.395412	0.113143	0.000045
C19	C	0.301386	0.111473	0.000052
C20	C	0.662885	0.117894	0.000036
C21	C	0.988194	-0.038887	0.000055
C22	C	0.986548	-0.132133	0.000056
C23	C	0.903499	-0.346962	0.000039
C24	C	0.942060	-0.407993	0.072253
C25	C	0.983572	-0.302858	0.000049
C26	C	0.942087	-0.407975	-0.072142
C27	C	0.980691	-0.467769	0.000038
C28	C	1.022155	-0.362660	0.072323
C29	C	1.022171	-0.362636	-0.072137
C30	C	1.060790	-0.423649	0.000095
C31	C	0.985229	-0.207856	0.000055
C32	C	0.979039	-0.562770	0.000038
C33	C	1.134136	0.108510	0.000054
C34	C	1.226432	0.110141	0.000053
C35	C	0.976071	0.268254	0.000036
C36	C	0.977717	0.361500	0.000030
N37	N	0.982125	0.114680	0.228221
N38	N	0.982146	0.114680	-0.228128
C39	C	1.038663	0.057580	0.453951
C40	C	1.038666	0.057578	0.546141
C41	C	0.925603	0.171783	0.546136
C42	C	0.925597	0.171780	0.453948
C43	C	0.982132	0.114680	0.407858
C44	C	0.982140	0.114680	0.592236
C45	C	0.982143	0.114679	0.692192
C46	C	0.982128	0.114680	0.307895
H47	H	0.578781	-0.022762	0.000055
C48	C	0.370271	0.273761	0.000035
H49	H	0.402613	0.320013	0.000022
H50	H	0.336029	0.276344	0.051107
H51	H	0.336032	0.276340	-0.051045
H52	H	0.908213	-0.428040	-0.133198
H53	H	1.127313	-0.456830	0.000139
H54	H	1.056013	-0.342516	-0.133188
C55	C	0.813717	-0.301930	0.000128
H56	H	0.785398	-0.317343	0.051500
H57	H	0.784989	-0.318092	-0.050651
H58	H	0.815380	-0.242564	-0.000390
H59	H	0.421446	-0.025546	0.000064
H60	H	0.908189	-0.428091	0.133301
H61	H	1.055990	-0.342682	0.133442
H62	H	1.084696	0.011085	0.416427
C63	C	1.100854	-0.005228	0.596839
H64	H	1.134524	-0.039228	0.556184
H65	H	1.070952	-0.040204	0.632808
H66	H	1.135465	0.025006	0.632795
C67	C	0.552376	0.276994	0.000033
H68	H	0.611653	0.267065	0.000025
H69	H	0.534091	0.308182	0.051105
H70	H	0.534090	0.308184	-0.051047
H71	H	0.879574	0.218274	0.583672
H72	H	0.879558	0.218278	0.416417
