data_functionalizedCrystal
_audit_creation_method	'MofGen! by Chris Wilmer'
_symmetry_space_group_name_H-M	'P1'
_symmetry_Int_Tables_number	1
_symmetry_cell_setting	triclinic
loop_
_symmetry_equiv_pos_as_xyz
  x,y,z
_cell_length_a	11.792241
_cell_length_b	11.792254
_cell_length_c	10.868271
_cell_angle_alpha	89.998414
_cell_angle_beta	89.999844
_cell_angle_gamma	84.196007
loop_
_atom_site_label
_atom_site_type_symbol
_atom_site_fract_x
_atom_site_fract_y
_atom_site_fract_z
O1	O	1.506916	0.155561	-0.102203
O2	O	1.756916	0.405561	0.147797
O3	O	2.006916	0.655561	0.397797
O4	O	2.256916	0.905561	0.647797
O5	O	1.176576	0.171594	-0.102232
O6	O	1.426576	0.421594	0.147768
O7	O	1.676576	0.671594	0.397768
O8	O	1.926576	0.921594	0.647768
O9	O	1.349755	-0.001592	-0.102208
O10	O	1.599755	0.248408	0.147792
O11	O	1.849755	0.498408	0.397792
O12	O	2.099755	0.748408	0.647792
O13	O	1.333737	0.328747	-0.102227
O14	O	1.583737	0.578747	0.147773
O15	O	1.833737	0.828747	0.397773
O16	O	2.083737	1.078747	0.647773
O17	O	1.349739	-0.001586	0.102436
O18	O	1.599739	0.248414	0.352436
O19	O	1.849739	0.498414	0.602436
O20	O	2.099739	0.748414	0.852436
O21	O	1.176560	0.171600	0.102413
O22	O	1.426560	0.421600	0.352413
O23	O	1.676560	0.671600	0.602413
O24	O	1.926560	0.921600	0.852413
O25	O	1.506900	0.155567	0.102441
O26	O	1.756900	0.405567	0.352441
O27	O	2.006900	0.655567	0.602441
O28	O	2.256900	0.905567	0.852441
Zn29	Zn	1.341728	0.163584	0.134919
Zn30	Zn	1.591728	0.413584	0.384919
Zn31	Zn	1.841728	0.663584	0.634919
Zn32	Zn	2.091728	0.913584	0.884919
Zn33	Zn	1.341748	0.163577	-0.134709
Zn34	Zn	1.591748	0.413577	0.115291
Zn35	Zn	1.841748	0.663577	0.365291
Zn36	Zn	2.091748	0.913577	0.615291
O37	O	1.333721	0.328753	0.102418
O38	O	1.583721	0.578753	0.352418
O39	O	1.833721	0.828753	0.602418
O40	O	2.083721	1.078753	0.852418
C41	C	1.348738	-0.043880	0.000114
C42	C	1.598738	0.206120	0.250114
C43	C	1.848738	0.456120	0.500114
C44	C	2.098738	0.706120	0.750114
C45	C	1.345718	-0.169893	0.000112
C46	C	1.595718	0.080107	0.250112
C47	C	1.845718	0.330107	0.500112
C48	C	2.095718	0.580107	0.750112
C49	C	1.134277	0.170590	0.000087
C50	C	1.384277	0.420590	0.250087
C51	C	1.634277	0.670590	0.500087
C52	C	1.884277	0.920590	0.750087
C53	C	1.008263	0.167576	0.000076
C54	C	1.258263	0.417576	0.250076
C55	C	1.508263	0.667576	0.500076
C56	C	1.758263	0.917576	0.750076
C57	C	1.343264	-0.272229	0.000108
C58	C	1.593264	-0.022229	0.250108
C59	C	1.843264	0.227771	0.500108
C60	C	2.093264	0.477771	0.750108
C61	C	1.340196	-0.400616	0.000096
C62	C	1.590196	-0.150616	0.250096
C63	C	1.840196	0.099384	0.500096
C64	C	2.090196	0.349384	0.750096
C65	C	0.777551	0.162033	0.000112
C66	C	1.027551	0.412033	0.250112
C67	C	1.277551	0.662033	0.500112
C68	C	1.527551	0.912033	0.750112
C69	C	0.905936	0.165112	0.000092
C70	C	1.155936	0.415112	0.250092
C71	C	1.405936	0.665112	0.500092
C72	C	1.655936	0.915112	0.750092
C73	C	1.549199	0.156571	0.000120
C74	C	1.799199	0.406571	0.250120
C75	C	2.049199	0.656571	0.500120
C76	C	2.299199	0.906571	0.750120
C77	C	1.675213	0.159586	0.000123
C78	C	1.925213	0.409586	0.250123
C79	C	2.175213	0.659586	0.500123
C80	C	2.425213	0.909586	0.750123
C81	C	1.334738	0.371041	0.000093
C82	C	1.584738	0.621041	0.250093
C83	C	1.834738	0.871041	0.500093
C84	C	2.084738	1.121041	0.750093
C85	C	1.337758	0.497054	0.000086
C86	C	1.587758	0.747054	0.250086
C87	C	1.837758	0.997054	0.500086
C88	C	2.087758	1.247054	0.750086
N89	N	1.341722	0.163589	0.318933
N90	N	1.591722	0.413589	0.568933
N91	N	1.841722	0.663589	0.818933
N92	N	2.091722	0.913589	1.068933
N93	N	1.341763	0.163564	-0.318724
N94	N	1.591763	0.413564	-0.068724
N95	N	1.841763	0.663564	0.181276
N96	N	2.091763	0.913564	0.431276
C97	C	1.341731	0.163589	0.430270
C98	C	1.591731	0.413589	0.680270
C99	C	1.841731	0.663589	0.930270
C100	C	2.091731	0.913589	1.180270
C101	C	1.341745	0.163579	0.569948
C102	C	1.591745	0.413579	0.819948
C103	C	1.841745	0.663579	1.069948
C104	C	2.091745	0.913579	1.319948
