data_functionalizedCrystal
_audit_creation_method	'MofGen! by Chris Wilmer'
_symmetry_space_group_name_H-M	'P1'
_symmetry_Int_Tables_number	1
_symmetry_cell_setting	triclinic
loop_
_symmetry_equiv_pos_as_xyz
  x,y,z
_cell_length_a	17.699077
_cell_length_b	17.019294
_cell_length_c	16.176319
_cell_angle_alpha	86.114226
_cell_angle_beta	89.993140
_cell_angle_gamma	83.337580
loop_
_atom_site_label
_atom_site_type_symbol
_atom_site_fract_x
_atom_site_fract_y
_atom_site_fract_z
O1	O	1.004150	0.099735	-0.075834
O2	O	0.783780	0.112718	-0.076762
O3	O	0.900112	-0.008619	-0.068119
O4	O	0.887818	0.221071	-0.084478
O5	O	0.900096	-0.008626	0.069375
O6	O	0.783764	0.112710	0.060731
O7	O	1.004134	0.099727	0.061660
Cu8	Cu	0.893948	0.106218	0.073750
Cu9	Cu	0.893967	0.106227	-0.088852
O10	O	0.887802	0.221064	0.053016
C11	C	0.755575	0.112250	-0.007983
C12	C	0.671556	0.110857	-0.007885
C13	C	0.632079	0.110196	0.067110
C14	C	0.553136	0.108874	0.067205
C15	C	0.513669	0.108219	-0.007696
C16	C	0.553152	0.108877	-0.082697
C17	C	0.632094	0.110193	-0.082791
C18	C	0.234785	0.103569	-0.082321
C19	C	0.155836	0.102255	-0.082222
C20	C	0.155826	0.102250	0.067676
C21	C	0.234769	0.103566	0.067582
C22	C	0.274245	0.104220	-0.007418
C23	C	0.359844	0.105651	-0.007520
C24	C	0.428070	0.106793	-0.007596
C25	C	0.899638	-0.038011	0.002720
C26	C	0.898239	-0.125579	0.008951
C27	C	0.897592	-0.166710	-0.063069
C28	C	0.896273	-0.248988	-0.057211
C29	C	0.895606	-0.290135	0.020667
C30	C	0.896251	-0.248998	0.092692
C31	C	0.897564	-0.166720	0.086834
C32	C	0.891634	-0.538561	0.042106
C33	C	0.890322	-0.620845	0.047959
C34	C	0.890343	-0.620829	-0.101945
C35	C	0.891662	-0.538550	-0.107797
C36	C	0.892302	-0.497420	-0.035772
C37	C	0.894260	-0.374238	0.026657
C38	C	0.893643	-0.413318	-0.041762
C39	C	1.032340	0.100195	-0.007122
C40	C	1.116359	0.101589	-0.007225
C41	C	0.888277	0.250456	-0.017824
C42	C	0.889675	0.338024	-0.024061
N43	N	0.893940	0.106211	0.188116
N44	N	0.893980	0.106228	-0.203218
C45	C	0.945467	0.052505	0.235206
C46	C	0.945471	0.052504	0.321753
C47	C	0.893951	0.106214	0.361208
C48	C	0.842418	0.159922	0.314112
C49	C	0.842411	0.159919	0.227566
C50	C	0.842444	0.159937	0.663139
C51	C	0.842456	0.159938	0.749690
C52	C	0.945504	0.052523	0.757325
C53	C	0.945497	0.052519	0.670780
C54	C	0.893962	0.106224	0.623691
C55	C	0.893957	0.106224	0.529847
C56	C	0.893958	0.106219	0.455050
H57	H	0.266917	0.104099	-0.143391
H58	H	0.664235	0.110733	-0.143860
H59	H	0.987428	0.008772	0.360093
Br60	Br	0.889425	-0.676689	0.153658
Br61	Br	0.894550	-0.357476	-0.147451
H62	H	0.987452	0.008786	0.638658
Br63	Br	0.889475	-0.676653	-0.199688
H64	H	0.800451	0.203651	0.189226
Br65	Br	0.772490	0.232810	0.367655
H66	H	0.521013	0.108338	-0.143683
H67	H	0.895703	-0.282506	0.156103
Br68	Br	1.015446	-0.020366	0.821235
Br69	Br	0.288325	0.104462	0.169237
Br70	Br	0.898438	-0.110898	0.184579
H71	H	0.664206	0.110736	0.128104
H72	H	0.893719	-0.407749	0.090065
Br73	Br	0.499561	0.107991	0.168989
Br74	Br	0.898506	-0.110876	-0.168766
H75	H	0.987424	0.008772	0.203087
H76	H	0.895750	-0.282474	-0.115857
H77	H	0.892206	-0.505054	-0.171214
H78	H	0.892170	-0.505085	0.100754
H79	H	0.123675	0.101713	0.128745
Br80	Br	0.102275	0.101367	-0.183881
Br81	Br	0.772531	0.232835	0.803237
Br82	Br	0.772507	0.232822	0.599238
