data_functionalizedCrystal
_audit_creation_method	'MofGen! by Chris Wilmer'
_symmetry_space_group_name_H-M	'P1'
_symmetry_Int_Tables_number	1
_symmetry_cell_setting	triclinic
loop_
_symmetry_equiv_pos_as_xyz
  x,y,z
_cell_length_a	10.654550
_cell_length_b	6.394989
_cell_length_c	9.130313
_cell_angle_alpha	89.998359
_cell_angle_beta	89.996220
_cell_angle_gamma	94.508693
loop_
_atom_site_label
_atom_site_type_symbol
_atom_site_fract_x
_atom_site_fract_y
_atom_site_fract_z
O1	O	1.670942	-0.293432	-0.121910
O2	O	1.305759	-0.321389	-0.121885
O3	O	1.493534	-0.003422	-0.121899
O4	O	1.483167	-0.611400	-0.121896
O5	O	1.493532	-0.003430	0.121700
O6	O	1.305757	-0.321398	0.121713
O7	O	1.670940	-0.293441	0.121689
Cu8	Cu	1.488348	-0.307420	0.143944
Cu9	Cu	1.488351	-0.307410	-0.144140
O10	O	1.483165	-0.611408	0.121703
C11	C	1.258939	-0.319341	-0.000083
C12	C	1.119430	-0.313199	-0.000074
C13	C	1.041927	-0.500414	-0.000094
C14	C	0.910845	-0.494630	-0.000120
C15	C	0.934782	-0.114402	-0.000110
C16	C	1.065861	-0.120188	-0.000074
C17	C	1.028107	-0.719936	-0.000106
C18	C	0.897025	-0.714152	-0.000132
C19	C	1.717760	-0.295489	-0.000117
C20	C	1.857269	-0.301631	-0.000135
C21	C	1.491483	0.074425	-0.000105
C22	C	1.485219	0.310751	-0.000106
N23	N	1.488355	-0.307426	0.346566
N24	N	1.488353	-0.307388	-0.346763
C25	C	1.571524	-0.166678	0.423212
C26	C	1.571521	-0.166653	0.576549
C27	C	1.405175	-0.448142	0.576581
C28	C	1.405174	-0.448155	0.423247
C29	C	1.667567	-0.004169	0.423195
C30	C	1.667563	-0.004143	0.576532
H31	H	1.058346	-0.805794	0.101846
H32	H	1.759289	-0.055053	0.375631
H33	H	1.764454	-0.039940	0.618143
C34	C	0.836255	-0.803835	0.141911
H35	H	0.747618	-0.796779	0.137045
H36	H	0.854865	-0.945806	0.153110
H37	H	0.868775	-0.724223	0.223205
C38	C	1.077288	-0.814422	-0.142152
H39	H	1.166319	-0.815208	-0.137283
H40	H	1.040956	-0.953964	-0.153370
H41	H	1.054947	-0.732360	-0.223438
C42	C	1.624195	0.200860	0.640778
H43	H	1.604889	0.292141	0.563284
H44	H	1.551381	0.170180	0.699352
H45	H	1.689581	0.266753	0.699321
C46	C	0.841841	-0.825600	-0.137965
H47	H	0.908096	-0.875366	-0.194630
H48	H	0.785011	-0.940479	-0.109827
H49	H	0.798391	-0.729601	-0.194517
H50	H	1.337440	-0.562745	0.360843
H51	H	1.337450	-0.562719	0.639030
C52	C	1.636292	0.212747	0.366960
H53	H	1.623418	0.301962	0.447885
H54	H	1.704158	0.272114	0.309149
H55	H	1.561982	0.197980	0.309168
H56	H	1.128960	0.032261	-0.000037
H57	H	0.891149	0.042742	-0.000133
