data_functionalizedCrystal
_audit_creation_method	'MofGen! by Chris Wilmer'
_symmetry_space_group_name_H-M	'P1'
_symmetry_Int_Tables_number	1
_symmetry_cell_setting	triclinic
loop_
_symmetry_equiv_pos_as_xyz
  x,y,z
_cell_length_a	15.944499
_cell_length_b	15.944493
_cell_length_c	15.021413
_cell_angle_alpha	90.009890
_cell_angle_beta	89.990095
_cell_angle_gamma	83.476327
loop_
_atom_site_label
_atom_site_type_symbol
_atom_site_fract_x
_atom_site_fract_y
_atom_site_fract_z
O1	O	1.114533	0.108117	-0.074074
O2	O	0.869975	0.121519	-0.074062
O3	O	0.998958	-0.007461	-0.074076
O4	O	0.985551	0.237097	-0.074060
O5	O	0.998937	-0.007443	0.073989
O6	O	0.869955	0.121537	0.074002
O7	O	1.114513	0.108135	0.073991
Zn8	Zn	0.992230	0.114839	0.097505
Zn9	Zn	0.992257	0.114815	-0.097576
O10	O	0.985530	0.237116	0.074004
C11	C	0.838670	0.120979	-0.000029
C12	C	0.745422	0.119334	-0.000025
C13	C	0.453871	0.194269	-0.000034
C14	C	0.514918	0.155307	-0.073041
C15	C	0.409787	0.113358	-0.000046
C16	C	0.514884	0.155303	0.072939
C17	C	0.574695	0.116299	-0.000034
C18	C	0.469606	0.074374	-0.073114
C19	C	0.469565	0.074382	0.072931
C20	C	0.530595	0.035361	-0.000094
C21	C	0.314787	0.111666	-0.000054
C22	C	0.669694	0.117984	-0.000033
C23	C	0.998400	-0.038747	-0.000047
C24	C	0.996757	-0.131995	-0.000059
C25	C	1.072679	-0.367769	-0.000045
C26	C	1.031747	-0.418339	-0.073046
C27	C	0.993713	-0.302716	-0.000048
C28	C	1.031709	-0.418297	0.072933
C29	C	0.990778	-0.467625	-0.000033
C30	C	0.952802	-0.352057	-0.073109
C31	C	0.952775	-0.352012	0.072936
C32	C	0.911785	-0.402548	-0.000082
C33	C	0.995405	-0.207716	-0.000057
C34	C	0.989079	-0.562622	-0.000030
C35	C	1.145818	0.108675	-0.000045
C36	C	1.239066	0.110320	-0.000054
C37	C	0.986088	0.268401	-0.000026
C38	C	0.987731	0.361650	-0.000021
N39	N	0.992218	0.114855	0.230642
N40	N	0.992276	0.114792	-0.230714
C41	C	0.932567	0.174468	0.470332
C42	C	1.008466	0.190761	0.529664
C43	C	0.992240	0.114834	0.412249
C44	C	0.916361	0.098560	0.529659
C45	C	0.992254	0.114816	0.587673
C46	C	1.068177	0.131165	0.470275
C47	C	0.976022	0.038931	0.470264
C48	C	1.051976	0.055192	0.529570
C49	C	0.992230	0.114847	0.311192
C50	C	0.992272	0.114803	0.688728
H51	H	0.534943	0.189546	0.134658
H52	H	1.140699	-0.352153	-0.000122
H53	H	0.852187	0.084803	0.555746
H54	H	0.420527	0.261416	-0.000100
O55	O	1.112309	-0.004996	0.560264
C56	C	1.223158	-0.114812	0.522560
C57	C	1.154873	-0.046673	0.487677
H58	H	1.257577	-0.148539	0.463891
H59	H	1.270188	-0.083949	0.565254
H60	H	1.192213	-0.162436	0.564369
H61	H	1.185744	0.000972	0.445830
H62	H	1.107850	-0.077595	0.445031
H63	H	0.449643	0.040176	-0.134905
H64	H	0.919446	-0.323037	0.134660
H65	H	0.843713	-0.418002	-0.000119
O66	O	1.071600	-0.452760	-0.146704
C67	C	1.146844	-0.427592	-0.281457
C68	C	1.101745	-0.388506	-0.198072
H69	H	1.171214	-0.375659	-0.323021
H70	H	1.202116	-0.475155	-0.260449
H71	H	1.100531	-0.460899	-0.322666
H72	H	1.147993	-0.355155	-0.156827
H73	H	1.046461	-0.340987	-0.219142
O74	O	0.445225	0.033669	0.146461
C75	C	0.377916	-0.083013	0.203712
C76	C	0.405660	-0.037139	0.120362
H77	H	0.345906	-0.140260	0.182641
H78	H	0.435547	-0.104549	0.246277
H79	H	0.331700	-0.038146	0.243930
H80	H	0.451857	-0.081956	0.080075
H81	H	0.347989	-0.015588	0.077862
H82	H	0.563787	-0.031847	-0.000137
H83	H	0.535018	0.189524	-0.134755
H84	H	1.132365	0.144999	0.444300
H85	H	0.962269	-0.025230	0.444153
H86	H	0.919481	-0.323239	-0.134892
O87	O	1.071612	-0.452721	0.146535
C88	C	1.201506	-0.474509	0.229654
C89	C	1.156405	-0.435467	0.146281
H90	H	1.270073	-0.460589	0.229467
H91	H	1.168580	-0.446185	0.291902
H92	H	1.199262	-0.545718	0.229284
H93	H	1.158636	-0.364259	0.146565
H94	H	1.189343	-0.463856	0.084071
O95	O	0.872517	0.234784	0.439332
C96	C	0.821780	0.382948	0.434474
C97	C	0.889846	0.314728	0.469625
H98	H	0.835757	0.447597	0.458967
H99	H	0.821931	0.382063	0.358585
H100	H	0.757221	0.369675	0.459899
H101	H	0.954439	0.327955	0.444266
H102	H	0.889621	0.315630	0.545512
O103	O	1.024869	0.267264	0.560950
C104	C	1.043900	0.352725	0.690114
C105	C	1.025348	0.266038	0.654805
H106	H	1.044276	0.351768	0.766000
H107	H	1.108122	0.367110	0.664739
H108	H	0.992974	0.403497	0.665734
H109	H	1.076220	0.215210	0.679171
H110	H	0.961101	0.251725	0.680174
