data_functionalizedCrystal
_audit_creation_method	'MofGen! by Chris Wilmer'
_symmetry_space_group_name_H-M	'P1'
_symmetry_Int_Tables_number	1
_symmetry_cell_setting	triclinic
loop_
_symmetry_equiv_pos_as_xyz
  x,y,z
_cell_length_a	6.817900
_cell_length_b	16.305681
_cell_length_c	16.305550
_cell_angle_alpha	95.371254
_cell_angle_beta	103.455250
_cell_angle_gamma	103.457389
loop_
_atom_site_label
_atom_site_type_symbol
_atom_site_fract_x
_atom_site_fract_y
_atom_site_fract_z
V1	V	-4.026191	-0.117429	-0.263322
O2	O	-4.013843	0.004910	-0.258012
O3	O	-3.977589	-0.232137	-0.261807
O4	O	-3.977598	-0.115944	-0.378035
O5	O	-4.013834	-0.112087	-0.140979
V6	V	-4.509870	-0.102758	-0.248654
O7	O	-4.287107	-0.149611	-0.295497
O8	O	-4.699152	-0.070575	-0.216479
O9	O	-4.335266	0.011951	-0.250169
O10	O	-4.639615	-0.225097	-0.253964
O11	O	-4.639624	-0.108100	-0.370997
O12	O	-4.335257	-0.104243	-0.133941
C13	C	-3.822547	-0.260091	-0.257726
C14	C	-3.864094	-0.353868	-0.257252
C15	C	-3.940236	-0.525570	-0.256406
C16	C	-3.736017	-0.556086	-0.251127
C17	C	-3.779332	-0.653679	-0.250964
C18	C	-4.015199	-0.694622	-0.255573
C19	C	-4.151340	-0.674609	-0.339102
C20	C	-4.106672	-0.577011	-0.339618
C21	C	-4.026207	-0.551426	-0.178454
C22	C	-4.064811	-0.648742	-0.176814
C23	C	-4.057579	-0.790163	-0.255105
C24	C	-3.897866	-0.430030	-0.256880
C25	C	-3.822557	-0.111874	-0.405986
C26	C	-3.864109	-0.111419	-0.499767
C27	C	-4.015197	-0.109656	-0.840508
C28	C	-3.779151	-0.104421	-0.799567
C29	C	-3.735957	-0.105244	-0.702074
C30	C	-3.940239	-0.110530	-0.671462
C31	C	-4.107233	-0.193843	-0.722295
C32	C	-4.149097	-0.193372	-0.819843
C33	C	-4.069988	-0.032242	-0.794473
C34	C	-4.022059	-0.031583	-0.696629
C35	C	-3.897889	-0.111027	-0.575926
C36	C	-4.057556	-0.109164	-0.936046
C37	C	-4.153650	0.039900	-0.254247
C38	C	-4.091341	0.133676	-0.254727
C39	C	-4.153640	-0.108316	-0.105985
C40	C	-4.091326	-0.108767	-0.012203
H41	H	-4.177665	-0.532034	-0.181547
C42	C	-4.313067	-0.550975	-0.349484
C43	C	-4.314554	-0.456941	-0.351962
C44	C	-4.520947	-0.430909	-0.361828
C45	C	-4.725853	-0.498912	-0.369216
C46	C	-4.724374	-0.592953	-0.366737
C47	C	-4.517981	-0.618985	-0.356871
H48	H	-4.162864	-0.406595	-0.346493
H49	H	-4.522041	-0.361294	-0.363663
H50	H	-4.878637	-0.479642	-0.376519
H51	H	-4.876064	-0.643299	-0.372206
H52	H	-4.516887	-0.688600	-0.355037
H53	H	-3.963914	-0.660527	-0.115061
C54	C	-4.031246	-0.556786	-0.419260
C55	C	-4.012000	-0.629381	-0.481947
C56	C	-3.936569	-0.609160	-0.561589
C57	C	-3.880385	-0.516344	-0.578544
C58	C	-3.899629	-0.443743	-0.515854
C59	C	-3.975060	-0.463964	-0.436212
H60	H	-4.053592	-0.698094	-0.469398
H61	H	-3.922323	-0.662905	-0.607996
H62	H	-3.824547	-0.501376	-0.637499
H63	H	-3.858037	-0.375030	-0.528403
H64	H	-3.989306	-0.410219	-0.389805
C65	C	-3.858583	0.051674	-0.649991
C66	C	-3.915682	0.114745	-0.589058
C67	C	-3.752201	0.198002	-0.542417
C68	C	-3.531622	0.218187	-0.556709
C69	C	-3.474513	0.155114	-0.617645
C70	C	-3.637993	0.071858	-0.664286
H71	H	-4.078977	0.099804	-0.578475
H72	H	-3.794479	0.244692	-0.497307
H73	H	-3.410604	0.279818	-0.522182
H74	H	-3.311217	0.170055	-0.628228
H75	H	-3.595715	0.025167	-0.709395
C76	C	-3.872717	-0.502808	-0.093629
C77	C	-3.667331	-0.438994	-0.094064
C78	C	-3.513821	-0.390374	-0.009244
C79	C	-3.565695	-0.405567	0.076011
C80	C	-3.771091	-0.469383	0.076449
C81	C	-3.924601	-0.518004	-0.008371
H82	H	-3.628922	-0.427745	-0.157177
H83	H	-3.361774	-0.343133	-0.009568
H84	H	-3.452058	-0.369576	0.138799
H85	H	-3.809500	-0.480633	0.139562
H86	H	-4.076648	-0.565245	-0.008047
C87	C	-4.302424	-0.036409	-0.830715
C88	C	-4.441896	-0.109659	-0.901720
C89	C	-4.674327	-0.113833	-0.937968
C90	C	-4.767285	-0.044757	-0.903211
C91	C	-4.627811	0.028498	-0.832201
C92	C	-4.395380	0.032672	-0.795953
H93	H	-4.373085	-0.160798	-0.927453
H94	H	-4.777575	-0.168062	-0.990534
H95	H	-4.939345	-0.047847	-0.930044
H96	H	-4.696622	0.079637	-0.806468
H97	H	-4.292132	0.086901	-0.743387
H98	H	-4.324961	-0.702057	-0.345517
C99	C	-4.292753	-0.685677	-0.174756
C100	C	-4.438484	-0.758468	-0.244869
C101	C	-4.666439	-0.795405	-0.242817
C102	C	-4.748662	-0.759551	-0.170652
C103	C	-4.602929	-0.686756	-0.100533
C104	C	-4.374974	-0.649819	-0.102585
H105	H	-4.377620	-0.785013	-0.298295
H106	H	-4.774320	-0.849293	-0.294724
H107	H	-4.917408	-0.786893	-0.169133
H108	H	-4.663793	-0.660210	-0.047107
H109	H	-4.267093	-0.595931	-0.050678
C110	C	-3.646183	-0.181246	-0.680241
C111	C	-3.613630	-0.241383	-0.751570
C112	C	-3.523854	-0.317390	-0.729738
C113	C	-3.466631	-0.333259	-0.636578
C114	C	-3.499183	-0.273120	-0.565244
C115	C	-3.588959	-0.197114	-0.587075
H116	H	-3.655990	-0.229637	-0.820538
H117	H	-3.499757	-0.361908	-0.782546
H118	H	-3.400173	-0.389524	-0.620417
H119	H	-3.456822	-0.284866	-0.496275
H120	H	-3.613055	-0.152595	-0.534268
C121	C	-3.946549	0.053045	-0.812305
C122	C	-3.796299	0.120061	-0.737773
C123	C	-3.672838	0.205346	-0.755602
C124	C	-3.699629	0.223614	-0.847962
C125	C	-3.849886	0.156597	-0.922500
C126	C	-3.973347	0.071312	-0.904672
H127	H	-3.776461	0.106540	-0.669397
H128	H	-3.561608	0.254957	-0.700423
H129	H	-3.608236	0.286747	-0.861160
H130	H	-3.869724	0.170118	-0.990876
H131	H	-4.084577	0.021701	-0.959850
H132	H	-3.673706	-0.666410	-0.190933
H133	H	-4.051772	-0.252463	-0.705627
H134	H	-3.608708	-0.521391	-0.191292
H135	H	-3.669674	-0.538725	-0.307126
H136	H	-4.169347	-0.030546	-0.675279
H137	H	-3.734102	-0.684236	-0.307122
H138	H	-4.118080	-0.706837	-0.397594
H139	H	-3.673041	-0.044236	-0.811781
H140	H	-3.609488	-0.045341	-0.666902
H141	H	-4.112925	-0.251976	-0.850370
H142	H	-3.734035	-0.160039	-0.831216
H143	H	-4.322930	-0.200679	-0.847853
H144	H	-4.260386	-0.200725	-0.703399
