data_functionalizedCrystal
_audit_creation_method	'MofGen! by Chris Wilmer'
_symmetry_space_group_name_H-M	'P1'
_symmetry_Int_Tables_number	1
_symmetry_cell_setting	triclinic
loop_
_symmetry_equiv_pos_as_xyz
  x,y,z
_cell_length_a	17.699083
_cell_length_b	15.455313
_cell_length_c	17.699083
_cell_angle_alpha	92.658725
_cell_angle_beta	83.282848
_cell_angle_gamma	87.324896
loop_
_atom_site_label
_atom_site_type_symbol
_atom_site_fract_x
_atom_site_fract_y
_atom_site_fract_z
O1	O	-1.007399	0.072118	-0.092392
O2	O	-0.674066	0.405451	0.240941
O3	O	-0.340732	0.738784	0.574274
O4	O	-0.787021	0.072123	-0.104845
O5	O	-0.453688	0.405456	0.228488
O6	O	-0.120354	0.738790	0.561822
O7	O	-0.903436	0.072113	0.011570
O8	O	-0.570103	0.405446	0.344904
O9	O	-0.236769	0.738779	0.678237
O10	O	-0.890984	0.072128	-0.208807
O11	O	-0.557651	0.405461	0.124526
O12	O	-0.224317	0.738795	0.457859
O13	O	-0.896779	-0.072149	0.004940
O14	O	-0.563445	0.261184	0.338274
O15	O	-0.230112	0.594518	0.671607
O16	O	-0.780364	-0.072139	-0.111475
O17	O	-0.447030	0.261195	0.221858
O18	O	-0.113697	0.594528	0.555192
O19	O	-1.000742	-0.072144	-0.099022
O20	O	-0.667409	0.261190	0.234311
O21	O	-0.334075	0.594523	0.567645
Cu22	Cu	-0.889945	-0.085313	-0.105854
Cu23	Cu	-0.556612	0.248020	0.227480
Cu24	Cu	-0.223278	0.581353	0.560813
Cu25	Cu	-0.897818	0.085293	-0.098013
Cu26	Cu	-0.564485	0.418626	0.235320
Cu27	Cu	-0.231151	0.751959	0.568653
O28	O	-0.884327	-0.072133	-0.215437
O29	O	-0.550994	0.261200	0.117896
O30	O	-0.217660	0.594533	0.451229
C31	C	-0.755495	-0.000007	-0.107714
C32	C	-0.422162	0.333326	0.225620
C33	C	-0.088829	0.666659	0.558953
C34	C	-0.671477	-0.000006	-0.106375
C35	C	-0.338144	0.333328	0.226958
C36	C	-0.004811	0.666661	0.560291
N37	N	-0.884413	-0.205308	-0.111368
N38	N	-0.551080	0.128025	0.221965
N39	N	-0.217747	0.461358	0.555299
C40	C	-0.628381	-0.078643	-0.109359
C41	C	-0.295048	0.254690	0.223975
C42	C	0.038285	0.588023	0.557308
C43	C	-0.549439	-0.078644	-0.108089
C44	C	-0.216106	0.254689	0.225244
C45	C	0.117228	0.588023	0.558578
C46	C	-0.513593	-0.000006	-0.103842
C47	C	-0.180260	0.333327	0.229492
C48	C	0.153073	0.666661	0.562825
C49	C	-0.556696	0.078638	-0.100856
C50	C	-0.223362	0.411971	0.232477
C51	C	0.109971	0.745304	0.565811
C52	C	-0.635637	0.078638	-0.102120
C53	C	-0.302304	0.411971	0.231213
C54	C	0.031030	0.745304	0.564547
C55	C	-0.238333	0.078640	-0.095756
C56	C	0.095000	0.411973	0.237577
C57	C	0.428334	0.745307	0.570910
C58	C	-0.159385	0.078634	-0.094495
C59	C	0.173948	0.411967	0.238839
C60	C	0.507281	0.745301	0.572172
C61	C	-0.152135	-0.078642	-0.101726
C62	C	0.181199	0.254692	0.231608
C63	C	0.514532	0.588025	0.564941
C64	C	-0.231076	-0.078642	-0.102990
C65	C	0.102257	0.254692	0.230344
C66	C	0.435590	0.588025	0.563677
C67	C	-0.274172	0.000001	-0.100000
C68	C	0.059161	0.333335	0.233333
C69	C	0.392494	0.666668	0.566667
C70	C	-0.359771	0.000001	-0.101375
C71	C	-0.026437	0.333335	0.231958
C72	C	0.306896	0.666668	0.565292
C73	C	-0.427996	-0.000005	-0.102472
C74	C	-0.094662	0.333328	0.230862
C75	C	0.238671	0.666662	0.564195
C76	C	-0.933888	-0.250707	-0.061929
C77	C	-0.600554	0.082626	0.271405
C78	C	-0.267221	0.415960	0.604738
C79	C	-0.929711	-0.341515	-0.066106
C80	C	-0.596378	-0.008181	0.267228
C81	C	-0.263044	0.325152	0.600561
C82	C	-0.876063	-0.386922	-0.119726
C83	C	-0.542730	-0.053588	0.213607
C84	C	-0.209397	0.279745	0.546941
C85	C	-0.826584	-0.341517	-0.169167
C86	C	-0.493251	-0.008184	0.164166
C87	C	-0.159917	0.325150	0.497499
C88	C	-0.830757	-0.250711	-0.164986
C89	C	-0.497424	0.082622	0.168347
C90	C	-0.164091	0.415956	0.501680
C91	C	-0.858050	-0.658502	-0.137753
C92	C	-0.524716	-0.325168	0.195580
C93	C	-0.191383	0.008165	0.528913
C94	C	-0.853881	-0.749314	-0.141932
C95	C	-0.520548	-0.415981	0.191401
C96	C	-0.187215	-0.082647	0.524734
C97	C	-0.957008	-0.749305	-0.038869
C98	C	-0.623675	-0.415972	0.294464
C99	C	-0.290341	-0.082639	0.627798
C100	C	-0.961180	-0.658498	-0.034696
C101	C	-0.627846	-0.325164	0.298638
C102	C	-0.294513	0.008169	0.631971
C103	C	-0.911698	-0.613101	-0.084134
C104	C	-0.578364	-0.279767	0.249199
C105	C	-0.245031	0.053566	0.582532
N106	N	-0.871795	-0.479742	-0.123999
N107	N	-0.538461	-0.146408	0.209335
N108	N	-0.205128	0.186925	0.542668
N109	N	-0.915963	-0.520282	-0.079858
N110	N	-0.582630	-0.186949	0.253476
N111	N	-0.249297	0.146384	0.586809
C112	C	-0.032268	-0.000011	-0.096148
C113	C	0.301065	0.333322	0.237185
C114	C	0.634398	0.666656	0.570518
C115	C	-0.116289	-0.000005	-0.097473
C116	C	0.217045	0.333329	0.235861
C117	C	0.550378	0.666662	0.569194
C118	C	-0.899661	-0.000018	0.036452
C119	C	-0.566328	0.333315	0.369786
C120	C	-0.232994	0.666648	0.703119
C121	C	-0.898323	-0.000019	0.120470
C122	C	-0.564989	0.333315	0.453804
C123	C	-0.231656	0.666648	0.787137
N124	N	-0.903356	0.205288	-0.092493
N125	N	-0.570022	0.538621	0.240840
N126	N	-0.236689	0.871954	0.574173
C127	C	-0.888102	-0.000001	-0.240319
C128	C	-0.554769	0.333333	0.093014
C129	C	-0.221435	0.666666	0.426347
C130	C	-0.889441	0.000005	-0.324337
C131	C	-0.556107	0.333339	0.008996
C132	C	-0.222774	0.666672	0.342330
C133	C	-0.966656	-0.000021	0.169091
C134	C	-0.633322	0.333312	0.502425
C135	C	-0.299989	0.666645	0.835758
C136	C	-0.965394	-0.000014	0.248035
C137	C	-0.632061	0.333320	0.581368
C138	C	-0.298727	0.666653	0.914702
C139	C	-0.895798	-0.000009	0.278356
C140	C	-0.562464	0.333324	0.611689
C141	C	-0.229131	0.666657	0.945023
C142	C	-0.827459	-0.000004	0.229729
C143	C	-0.494126	0.333329	0.563062
C144	C	-0.160793	0.666663	0.896395
C145	C	-0.828722	-0.000006	0.150787
C146	C	-0.495389	0.333328	0.484120
C147	C	-0.162056	0.666661	0.817454
C148	C	-0.822364	0.000003	0.548092
C149	C	-0.489031	0.333336	0.881425
C150	C	-0.155698	0.666670	1.214759
C151	C	-0.821106	0.000002	0.627040
C152	C	-0.487773	0.333335	0.960373
C153	C	-0.154440	0.666669	1.293707
C154	C	-0.959036	-0.000005	0.645340
C155	C	-0.625703	0.333328	0.978674
C156	C	-0.292369	0.666662	1.312007
C157	C	-0.960299	-0.000007	0.566398
C158	C	-0.626966	0.333327	0.899732
C159	C	-0.293632	0.666660	1.233065
C160	C	-0.891961	0.000003	0.517778
C161	C	-0.558628	0.333337	0.851112
C162	C	-0.225294	0.666670	1.184445
C163	C	-0.893330	-0.000003	0.432179
C164	C	-0.559997	0.333330	0.765512
C165	C	-0.226664	0.666663	1.098846
C166	C	-0.894427	-0.000009	0.363954
C167	C	-0.561094	0.333324	0.697287
C168	C	-0.227761	0.666658	1.030620
H169	H	-0.657560	-0.142680	-0.112824
H170	H	-0.324226	0.190654	0.220510
H171	H	0.009107	0.523987	0.553843
H172	H	-0.977576	-0.213742	-0.018268
H173	H	-0.644243	0.119591	0.315065
H174	H	-0.310910	0.452924	0.648398
Cl175	Cl	-0.786433	-0.806391	-0.209349
Cl176	Cl	-0.453100	-0.473058	0.123985
Cl177	Cl	-0.119766	-0.139725	0.457318
H178	H	-0.969996	-0.378478	-0.025848
H179	H	-0.636663	-0.045144	0.307485
H180	H	-0.303330	0.288189	0.640819
Cl181	Cl	-0.742814	0.000001	0.089663
Cl182	Cl	-0.409481	0.333335	0.422996
Cl183	Cl	-0.076147	0.666668	0.756329
H184	H	-0.790469	-0.213748	-0.205244
H185	H	-0.457136	0.119585	0.128089
H186	H	-0.123802	0.452918	0.461423
H187	H	-1.004864	-0.621529	0.008966
H188	H	-0.671531	-0.288195	0.342300
H189	H	-0.338197	0.045138	0.675633
Cl190	Cl	-0.689816	0.177501	-0.098366
Cl191	Cl	-0.356483	0.510834	0.234967
Cl192	Cl	-0.023149	0.844168	0.568301
Cl193	Cl	-0.759136	-0.398598	-0.236574
Cl194	Cl	-0.425803	-0.065265	0.096760
Cl195	Cl	-0.092470	0.268068	0.430093
H196	H	-0.130203	0.142674	-0.091035
H197	H	0.203130	0.476008	0.242298
H198	H	0.536464	0.809341	0.575631
Cl199	Cl	-1.047795	-0.000009	0.528286
Cl200	Cl	-0.714462	0.333324	0.861619
Cl201	Cl	-0.381128	0.666658	1.194952
Cl202	Cl	-1.054153	-0.000036	0.130982
Cl203	Cl	-0.720820	0.333298	0.464315
Cl204	Cl	-0.387486	0.666631	0.797649
Cl205	Cl	-1.044948	-0.000014	0.706468
Cl206	Cl	-0.711615	0.333319	1.039801
Cl207	Cl	-0.378282	0.666652	1.373134
H208	H	-0.260257	-0.142677	-0.106452
H209	H	0.073076	0.190656	0.226881
H210	H	0.406410	0.523990	0.560214
Cl211	Cl	-0.292500	0.177506	-0.091999
Cl212	Cl	0.040833	0.510840	0.241334
Cl213	Cl	0.374166	0.844173	0.574667
Cl214	Cl	-0.795848	-0.601437	-0.199906
Cl215	Cl	-0.462515	-0.268104	0.133427
Cl216	Cl	-0.129181	0.065229	0.466761
Cl217	Cl	-0.495262	-0.177508	-0.111853
Cl218	Cl	-0.161929	0.155826	0.221480
Cl219	Cl	0.171405	0.489159	0.554813
H220	H	-0.527505	0.142666	-0.097392
H221	H	-0.194171	0.475999	0.235941
H222	H	0.139162	0.809333	0.569275
Cl223	Cl	-1.019208	-0.806379	0.023281
Cl224	Cl	-0.685874	-0.473046	0.356615
Cl225	Cl	-0.352541	-0.139713	0.689948
H226	H	-1.021038	-0.000018	0.287620
H227	H	-0.687704	0.333315	0.620953
H228	H	-0.354371	0.666649	0.954286
H229	H	-0.117037	-0.142677	-0.104157
H230	H	0.216296	0.190656	0.229177
H231	H	0.549630	0.523990	0.562510
Cl232	Cl	-0.733607	0.000009	0.665156
Cl233	Cl	-0.400274	0.333343	0.998489
Cl234	Cl	-0.066940	0.666676	1.331823
Cl235	Cl	-0.736453	0.000018	0.486980
Cl236	Cl	-0.403120	0.333351	0.820314
Cl237	Cl	-0.069787	0.666685	1.153647
Cl238	Cl	-0.739966	0.000012	0.267847
Cl239	Cl	-0.406633	0.333345	0.601180
Cl240	Cl	-0.073300	0.666679	0.934514
