data_functionalizedCrystal
_audit_creation_method	'MofGen! by Chris Wilmer'
_symmetry_space_group_name_H-M	'P1'
_symmetry_Int_Tables_number	1
_symmetry_cell_setting	triclinic
loop_
_symmetry_equiv_pos_as_xyz
  x,y,z
_cell_length_a	13.897449
_cell_length_b	29.839131
_cell_length_c	13.897441
_cell_angle_alpha	89.958174
_cell_angle_beta	89.978743
_cell_angle_gamma	90.036054
loop_
_atom_site_label
_atom_site_type_symbol
_atom_site_fract_x
_atom_site_fract_y
_atom_site_fract_z
Zn1	Zn	1.474565	-0.178833	-0.545368
Zn2	Zn	1.807898	0.154500	-0.212035
Zn3	Zn	2.141231	0.487833	0.121299
Zn4	Zn	1.474415	-0.253967	-0.384035
Zn5	Zn	1.807749	0.079366	-0.050702
Zn6	Zn	2.141082	0.412700	0.282632
Zn7	Zn	1.313260	-0.178853	-0.384079
Zn8	Zn	1.646593	0.154480	-0.050745
Zn9	Zn	1.979927	0.487814	0.282588
Zn10	Zn	1.313186	-0.253938	-0.545280
Zn11	Zn	1.646520	0.079395	-0.211947
Zn12	Zn	1.979853	0.412728	0.121387
O13	O	1.393857	-0.216398	-0.464690
O14	O	1.727190	0.116935	-0.131357
O15	O	2.060523	0.450269	0.201976
O16	O	1.609527	-0.188804	-0.523985
O17	O	1.942860	0.144529	-0.190652
O18	O	2.276193	0.477863	0.142682
O19	O	1.453006	-0.244023	-0.249059
O20	O	1.786339	0.089310	0.084274
O21	O	2.119673	0.422643	0.417608
O22	O	1.334751	-0.115983	-0.405529
O23	O	1.668084	0.217350	-0.072196
O24	O	2.001417	0.550683	0.261137
O25	O	1.609417	-0.244004	-0.405454
O26	O	1.942750	0.089329	-0.072121
O27	O	2.276083	0.422662	0.261212
O28	O	1.453261	-0.115969	-0.524028
O29	O	1.786594	0.217364	-0.190694
O30	O	2.119927	0.550698	0.142639
O31	O	1.334606	-0.188837	-0.249091
O32	O	1.667939	0.144496	0.084242
O33	O	2.001272	0.477829	0.417575
O34	O	1.178269	-0.188809	-0.405444
O35	O	1.511602	0.144524	-0.072111
O36	O	1.844935	0.477857	0.261223
O37	O	1.334625	-0.243955	-0.680273
O38	O	1.667958	0.089378	-0.346940
O39	O	2.001292	0.422712	-0.013607
O40	O	1.178214	-0.243974	-0.523878
O41	O	1.511548	0.089359	-0.190545
O42	O	1.844881	0.422693	0.142789
O43	O	1.453189	-0.188776	-0.680338
O44	O	1.786523	0.144557	-0.347005
O45	O	2.119856	0.477891	-0.013671
O46	O	1.452935	-0.316830	-0.405369
O47	O	1.786268	0.016503	-0.072036
O48	O	2.119601	0.349836	0.261297
O49	O	1.334480	-0.316809	-0.523835
O50	O	1.667814	0.016524	-0.190502
O51	O	2.001147	0.349857	0.142831
C52	C	1.143242	-0.216391	-0.464657
C53	C	1.476576	0.116942	-0.131323
C54	C	1.809909	0.450276	0.202010
C55	C	1.036028	-0.216399	-0.464665
C56	C	1.369362	0.116934	-0.131332
C57	C	1.702695	0.450268	0.202001
C58	C	0.948959	-0.216400	-0.464681
C59	C	1.282292	0.116933	-0.131348
C60	C	1.615625	0.450266	0.201985
C61	C	0.839726	-0.216404	-0.464711
C62	C	1.173059	0.116930	-0.131377
C63	C	1.506393	0.450263	0.201956
C64	C	1.393709	-0.333120	-0.464609
C65	C	1.727043	0.000213	-0.131276
C66	C	2.060376	0.333546	0.202058
C67	C	1.393735	-0.383055	-0.464607
C68	C	1.727068	-0.049722	-0.131273
C69	C	2.060401	0.283612	0.202060
C70	C	1.455551	-0.692656	-0.526480
C71	C	1.788885	-0.359323	-0.193147
C72	C	2.122218	-0.025989	0.140186
C73	C	1.455656	-0.880329	-0.526538
C74	C	1.788989	-0.546996	-0.193205
C75	C	2.122323	-0.213662	0.140128
O76	O	1.508070	-0.904558	-0.579085
O77	O	1.841404	-0.571224	-0.245752
O78	O	2.174737	-0.237891	0.087581
N79	N	1.394020	-0.903840	-0.464797
N80	N	1.727354	-0.570507	-0.131464
N81	N	2.060687	-0.237173	0.201869
C82	C	1.332350	-0.880430	-0.403042
C83	C	1.665683	-0.547096	-0.069709
C84	C	1.999016	-0.213763	0.263625
O85	O	1.279920	-0.904734	-0.350536
O86	O	1.613254	-0.571400	-0.017203
O87	O	1.946587	-0.238067	0.316131
C88	C	1.332241	-0.692758	-0.402990
C89	C	1.665574	-0.359424	-0.069656
C90	C	1.998908	-0.026091	0.263677
C91	C	1.393887	-0.669249	-0.464728
C92	C	1.727221	-0.335916	-0.131394
C93	C	2.060554	-0.002582	0.201939
C94	C	1.517192	-0.669147	-0.588214
C95	C	1.850525	-0.335814	-0.254881
C96	C	2.183859	-0.002481	0.078452
C97	C	1.517169	-0.622232	-0.588195
C98	C	1.850502	-0.288899	-0.254862
C99	C	2.183836	0.044435	0.078471
C100	C	1.455505	-0.598825	-0.526443
C101	C	1.788838	-0.265492	-0.193109
C102	C	2.122172	0.067842	0.140224
C103	C	1.393864	-0.622334	-0.464709
C104	C	1.727198	-0.289000	-0.131376
C105	C	2.060531	0.044333	0.201958
C106	C	1.270566	-0.669348	-0.341240
C107	C	1.603899	-0.336015	-0.007907
C108	C	1.937233	-0.002682	0.325427
C109	C	1.270543	-0.622427	-0.341234
C110	C	1.603876	-0.289094	-0.007901
C111	C	1.937209	0.044239	0.325433
C112	C	1.332189	-0.598919	-0.402972
C113	C	1.665523	-0.265585	-0.069639
C114	C	1.998856	0.067748	0.263695
C115	C	1.332177	-0.552011	-0.402937
C116	C	1.665511	-0.218678	-0.069604
C117	C	1.998844	0.114655	0.263729
N118	N	1.393813	-0.528500	-0.464678
N119	N	1.727146	-0.195167	-0.131345
N120	N	2.060480	0.138166	0.201988
C121	C	1.455477	-0.551907	-0.526431
C122	C	1.788810	-0.218574	-0.193098
C123	C	2.122144	0.114759	0.140236
C124	C	1.332413	-0.978960	-0.403073
C125	C	1.665746	-0.645627	-0.069739
C126	C	1.999079	-0.312294	0.263594
C127	C	1.332441	-1.025878	-0.403084
C128	C	1.665774	-0.692545	-0.069751
C129	C	1.999108	-0.359212	0.263582
C130	C	1.455746	-1.025774	-0.526582
C131	C	1.789079	-0.692441	-0.193249
C132	C	2.122413	-0.359107	0.140085
C133	C	1.455722	-0.978855	-0.526565
C134	C	1.789055	-0.645522	-0.193232
C135	C	2.122389	-0.312189	0.140102
C136	C	1.394048	-0.955449	-0.464814
C137	C	1.727382	-0.622116	-0.131480
C138	C	2.060715	-0.288783	0.201853
C139	C	1.455424	-0.453381	-0.526386
C140	C	1.788758	-0.120048	-0.193053
C141	C	2.122091	0.213285	0.140280
C142	C	1.455399	-0.406462	-0.526359
C143	C	1.788732	-0.073128	-0.193026
C144	C	2.122065	0.260205	0.140307
C145	C	1.332090	-0.406570	-0.402865
C146	C	1.665424	-0.073237	-0.069532
C147	C	1.998757	0.260097	0.263801
C148	C	1.332119	-0.453485	-0.402888
C149	C	1.665452	-0.120152	-0.069555
C150	C	1.998786	0.213181	0.263778
C151	C	1.393789	-0.476890	-0.464657
C152	C	1.727123	-0.143557	-0.131323
C153	C	2.060456	0.189777	0.202010
O154	O	1.279783	-0.527754	-0.350426
O155	O	1.613116	-0.194420	-0.017092
O156	O	1.946450	0.138913	0.316241
O157	O	1.507883	-0.527595	-0.578944
O158	O	1.841217	-0.194262	-0.245611
O159	O	2.174550	0.139071	0.087722
C160	C	1.455574	-0.739571	-0.526499
C161	C	1.788908	-0.406238	-0.193166
C162	C	2.122241	-0.072905	0.140167
C163	C	1.393934	-0.763080	-0.464765
C164	C	1.727267	-0.429747	-0.131432
C165	C	2.060600	-0.096413	0.201901
C166	C	1.332270	-0.739673	-0.403013
C167	C	1.665603	-0.406340	-0.069679
C168	C	1.998936	-0.073006	0.263654
C169	C	1.393962	-0.809998	-0.464777
C170	C	1.727295	-0.476664	-0.131444
C171	C	2.060629	-0.143331	0.201890
C172	C	1.455626	-0.833405	-0.526530
C173	C	1.788959	-0.500071	-0.193196
C174	C	2.122292	-0.166738	0.140137
C175	C	1.517261	-0.809894	-0.588271
C176	C	1.850595	-0.476560	-0.254937
C177	C	2.183928	-0.143227	0.078396
C178	C	1.517238	-0.762978	-0.588252
C179	C	1.850571	-0.429645	-0.254919
C180	C	2.183905	-0.096312	0.078415
C181	C	1.270634	-0.763184	-0.341272
C182	C	1.603968	-0.429851	-0.007938
C183	C	1.937301	-0.096517	0.325395
C184	C	1.270663	-0.810100	-0.341295
C185	C	1.603996	-0.476766	-0.007962
C186	C	1.937330	-0.143433	0.325372
C187	C	1.332327	-0.833506	-0.403048
C188	C	1.665660	-0.500173	-0.069714
C189	C	1.998994	-0.166840	0.263619
C190	C	1.645449	-0.216405	-0.464725
C191	C	1.978783	0.116928	-0.131391
C192	C	2.312116	0.450262	0.201942
C193	C	1.752663	-0.216408	-0.464739
C194	C	2.085997	0.116925	-0.131406
C195	C	2.419330	0.450258	0.201927
C196	C	1.393916	-0.216360	-0.716284
C197	C	1.727249	0.116973	-0.382950
C198	C	2.060582	0.450306	-0.049617
C199	C	1.393941	-0.216344	-0.823498
C200	C	1.727274	0.116989	-0.490164
C201	C	2.060607	0.450323	-0.156831
C202	C	1.394031	-0.099220	-0.464793
C203	C	1.727364	0.234114	-0.131460
C204	C	2.060697	0.567447	0.201874
C205	C	1.394105	-0.049285	-0.464837
C206	C	1.727438	0.284048	-0.131504
C207	C	2.060771	0.617382	0.201830
C208	C	1.393961	-0.216331	-0.910567
C209	C	1.727294	0.117002	-0.577234
C210	C	2.060627	0.450335	-0.243901
C211	C	1.393988	-0.216311	-1.019800
C212	C	1.727322	0.117022	-0.686467
C213	C	2.060655	0.450356	-0.353133
C214	C	1.393853	-0.216403	-0.214076
C215	C	1.727187	0.116930	0.119257
C216	C	2.060520	0.450264	0.452591
C217	C	1.394015	-0.216293	-0.106863
C218	C	1.727348	0.117041	0.226471
C219	C	2.060682	0.450374	0.559804
H220	H	1.505602	-0.387323	-0.576634
H221	H	1.838935	-0.053989	-0.243300
H222	H	2.172269	0.279344	0.090033
F223	F	1.521374	-1.050693	-0.592304
F224	F	1.854707	-0.717360	-0.258970
F225	F	2.188041	-0.384027	0.074363
F226	F	1.582776	-0.597218	-0.653912
F227	F	1.916110	-0.263885	-0.320579
F228	F	2.249443	0.069449	0.012755
F229	F	1.582850	-0.737964	-0.653964
F230	F	1.916184	-0.404631	-0.320630
F231	F	2.249517	-0.071298	0.012703
H232	H	1.567406	-0.688200	-0.638506
H233	H	1.900739	-0.354867	-0.305173
H234	H	2.234073	-0.021534	0.028160
H235	H	1.282189	-0.959906	-0.352785
H236	H	1.615522	-0.626573	-0.019451
H237	H	1.948856	-0.293240	0.313882
F238	F	1.521333	-0.953840	-0.592275
F239	F	1.854666	-0.620507	-0.258942
F240	F	2.187999	-0.287173	0.074391
F241	F	1.521062	-0.478284	-0.592126
F242	F	1.854395	-0.144950	-0.258792
F243	F	2.187729	0.188383	0.074541
H244	H	1.220367	-0.688481	-0.290966
H245	H	1.553701	-0.355148	0.042368
H246	H	1.887034	-0.021814	0.375701
H247	H	1.282252	-1.045015	-0.352801
H248	H	1.615586	-0.711682	-0.019467
H249	H	1.948919	-0.378348	0.313866
H250	H	1.220317	-0.603372	-0.290950
H251	H	1.553651	-0.270039	0.042384
H252	H	1.886984	0.063294	0.375717
F253	F	1.266520	-0.478506	-0.337169
F254	F	1.599854	-0.145172	-0.003835
F255	F	1.933187	0.188161	0.329498
F256	F	1.266468	-0.381650	-0.337146
F257	F	1.599801	-0.048317	-0.003813
F258	F	1.933134	0.285016	0.329521
H259	H	1.567474	-0.828960	-0.638549
H260	H	1.900807	-0.495626	-0.305215
H261	H	2.234140	-0.162293	0.028118
H262	H	1.220465	-0.829236	-0.291011
H263	H	1.553798	-0.495903	0.042322
H264	H	1.887131	-0.162570	0.375655
H265	H	1.220419	-0.744130	-0.290986
H266	H	1.553752	-0.410797	0.042347
H267	H	1.887085	-0.077463	0.375680
