data_functionalizedCrystal
_audit_creation_method	'MofGen! by Chris Wilmer'
_symmetry_space_group_name_H-M	'P1'
_symmetry_Int_Tables_number	1
_symmetry_cell_setting	triclinic
loop_
_symmetry_equiv_pos_as_xyz
  x,y,z
_cell_length_a	14.908520
_cell_length_b	19.805407
_cell_length_c	14.908308
_cell_angle_alpha	86.722936
_cell_angle_beta	96.360765
_cell_angle_gamma	86.679227
loop_
_atom_site_label
_atom_site_type_symbol
_atom_site_fract_x
_atom_site_fract_y
_atom_site_fract_z
Zn1	Zn	-0.389877	-0.994811	-0.532596
Zn2	Zn	0.110123	-0.494811	-0.032596
Zn3	Zn	-0.532523	-0.994735	-0.389966
Zn4	Zn	-0.032523	-0.494735	0.110034
Zn5	Zn	-0.381179	-0.888556	-0.381250
Zn6	Zn	0.118821	-0.388556	0.118750
Zn7	Zn	-0.541195	-0.874670	-0.541272
Zn8	Zn	-0.041195	-0.374670	-0.041272
O9	O	-0.461194	-0.938193	-0.461271
O10	O	0.038806	-0.438193	0.038729
O11	O	-0.408810	-1.089517	-0.513692
O12	O	0.091190	-0.589517	-0.013692
O13	O	-0.505177	-0.986429	-0.262150
O14	O	-0.005177	-0.486429	0.237850
O15	O	-0.255669	-0.908495	-0.394048
O16	O	0.244331	-0.408495	0.105952
O17	O	-0.513611	-1.089460	-0.408903
O18	O	-0.013611	-0.589460	0.091097
O19	O	-0.262059	-0.986560	-0.505241
O20	O	0.237941	-0.486560	-0.005241
O21	O	-0.393986	-0.908420	-0.255746
O22	O	0.106014	-0.408420	0.244254
O23	O	-0.402395	-0.791999	-0.402461
O24	O	0.097605	-0.291999	0.097539
O25	O	-0.528392	-0.884828	-0.666781
O26	O	-0.028392	-0.384828	-0.166781
O27	O	-0.519958	-0.781797	-0.520028
O28	O	-0.019958	-0.281797	-0.020028
O29	O	-0.417220	-0.973095	-0.660407
O30	O	0.082780	-0.473095	-0.160407
O31	O	-0.660338	-0.972964	-0.417315
O32	O	-0.160338	-0.472964	0.082685
O33	O	-0.666709	-0.884754	-0.528479
O34	O	-0.166709	-0.384754	-0.028479
C35	C	-0.696367	-0.927361	-0.474804
C36	C	-0.196367	-0.427361	0.025196
C37	C	-0.796978	-0.922788	-0.480624
C38	C	-0.296978	-0.422788	0.019376
C39	C	-0.461175	-0.762339	-0.461241
C40	C	0.038825	-0.262339	0.038759
C41	C	-0.461190	-0.687106	-0.461250
C42	C	0.038810	-0.187106	0.038750
C43	C	-0.474744	-0.927421	-0.697354
C44	C	0.025256	-0.427421	-0.197354
C45	C	-0.480518	-0.922831	-0.797958
C46	C	0.019482	-0.422831	-0.297958
C47	C	-0.979344	-1.006133	-0.375899
C48	C	-0.479344	-0.506133	0.124101
C49	C	-1.073876	-1.001838	-0.381364
C50	C	-0.573876	-0.501838	0.118636
C51	C	-1.080575	-0.909908	-0.497024
C52	C	-0.580575	-0.409908	0.002976
C53	C	-0.986043	-0.914202	-0.491559
C54	C	-0.486043	-0.414202	0.008441
C55	C	-0.935431	-0.962316	-0.430993
C56	C	-0.435431	-0.462316	0.069007
C57	C	-0.840897	-0.966607	-0.425524
C58	C	-0.340897	-0.466607	0.074476
C59	C	-0.847598	-0.874680	-0.541187
C60	C	-0.347598	-0.374680	-0.041187
C61	C	-0.942130	-0.870385	-0.546653
C62	C	-0.442130	-0.370385	-0.046653
C63	C	-0.225103	-0.949085	-0.447705
C64	C	0.274897	-0.449085	0.052295
C65	C	-0.124495	-0.953726	-0.441924
C66	C	0.375505	-0.453726	0.058076
C67	C	-0.461213	-1.114734	-0.461302
C68	C	0.038787	-0.614734	0.038698
C69	C	-0.461222	-1.189965	-0.461315
C70	C	0.038778	-0.689965	0.038685
C71	C	-0.522486	-0.646468	-0.522379
C72	C	-0.022486	-0.146468	-0.022379
C73	C	-0.522489	-0.575779	-0.522392
C74	C	-0.022489	-0.075779	-0.022392
C75	C	-0.461198	-0.545729	-0.461271
C76	C	0.038802	-0.045729	0.038729
C77	C	-0.399895	-0.586373	-0.400140
C78	C	0.100105	-0.086373	0.099860
C79	C	-0.399889	-0.657061	-0.400132
C80	C	0.100111	-0.157061	0.099868
C81	C	-0.399916	-0.301298	-0.400171
C82	C	0.100084	0.198702	0.099829
C83	C	-0.399929	-0.230604	-0.400182
C84	C	0.100071	0.269396	0.099818
C85	C	-0.522516	-0.220016	-0.522431
C86	C	-0.022516	0.279984	-0.022431
C87	C	-0.522510	-0.290703	-0.522423
C88	C	-0.022510	0.209297	-0.022423
C89	C	-0.461204	-0.331341	-0.461295
C90	C	0.038796	0.168659	0.038705
C91	C	-0.461201	-0.407990	-0.461283
C92	C	0.038799	0.092010	0.038717
C93	C	-0.461204	-0.469082	-0.461278
C94	C	0.038796	0.030918	0.038722
C95	C	-0.375583	-1.006117	-0.980368
C96	C	0.124417	-0.506117	-0.480368
C97	C	-0.381005	-1.001806	-1.074895
C98	C	0.118995	-0.501806	-0.574895
C99	C	-0.496779	-0.909896	-1.081540
C100	C	0.003221	-0.409896	-0.581540
C101	C	-0.491357	-0.914207	-0.987013
C102	C	0.008643	-0.414207	-0.487013
C103	C	-0.430758	-0.962320	-0.936431
C104	C	0.069242	-0.462320	-0.436431
C105	C	-0.425341	-0.966633	-0.841902
C106	C	0.074659	-0.466633	-0.341902
C107	C	-0.541110	-0.874720	-0.848549
C108	C	-0.041110	-0.374720	-0.348549
C109	C	-0.546532	-0.870410	-0.943076
C110	C	-0.046532	-0.370410	-0.443076
C111	C	-0.447631	-0.948965	-0.226103
C112	C	0.052369	-0.448965	0.273897
C113	C	-0.441602	-0.953698	-0.125484
C114	C	0.058398	-0.453698	0.374516
H115	H	-0.938134	-1.045304	-0.326578
H116	H	-0.438134	-0.545304	0.173422
C117	C	-1.057754	-1.093133	-0.266486
C118	C	-0.557754	-0.593133	0.233514
C119	C	-1.122146	-1.049999	-0.320798
C120	C	-0.622146	-0.549999	0.179202
H121	H	-1.087556	-1.122864	-0.229091
H122	H	-0.587556	-0.622864	0.270909
H123	H	-1.023108	-1.118873	-0.303823
H124	H	-0.523108	-0.618873	0.196177
H125	H	-1.018938	-1.066913	-0.229699
H126	H	-0.518938	-0.566913	0.270301
H127	H	-1.160958	-1.076220	-0.357591
H128	H	-0.660958	-0.576220	0.142409
H129	H	-1.156807	-1.024257	-0.283458
H130	H	-0.656807	-0.524257	0.216542
C131	C	-0.644973	-0.719789	-0.541758
C132	C	-0.144973	-0.219789	-0.041758
C133	C	-0.589861	-0.679494	-0.589566
C134	C	-0.089861	-0.179494	-0.089566
H135	H	-0.686570	-0.740172	-0.583241
H136	H	-0.186570	-0.240172	-0.083241
H137	H	-0.608469	-0.754108	-0.505360
H138	H	-0.108469	-0.254108	-0.005360
H139	H	-0.677268	-0.692410	-0.504261
H140	H	-0.177268	-0.192410	-0.004261
H141	H	-0.557561	-0.706874	-0.627058
H142	H	-0.057561	-0.206874	-0.127058
H143	H	-0.626370	-0.645171	-0.625979
H144	H	-0.126370	-0.145171	-0.125979
H145	H	-0.375999	-1.005810	-0.800719
H146	H	0.124001	-0.505810	-0.300719
C147	C	-0.576927	-0.462717	-0.576694
C148	C	-0.076927	0.037283	-0.076694
C149	C	-0.589868	-0.531108	-0.589585
C150	C	-0.089868	-0.031108	-0.089585
H151	H	-0.618523	-0.435141	-0.618184
H152	H	-0.118523	0.064859	-0.118184
H153	H	-0.586589	-0.453295	-0.516624
H154	H	-0.086589	0.046705	-0.016624
H155	H	-0.516896	-0.453334	-0.586548
H156	H	-0.016896	0.046666	-0.086548
H157	H	-0.649898	-0.540493	-0.579725
H158	H	-0.149898	-0.040493	-0.079725
H159	H	-0.580213	-0.540535	-0.649670
H160	H	-0.080213	-0.040535	-0.149670
H161	H	-0.983352	-0.831215	-0.595966
H162	H	-0.483352	-0.331215	-0.095966
H163	H	-0.336074	-1.037469	-1.110665
H164	H	0.163926	-0.537469	-0.610665
C165	C	-0.803019	-1.007995	-0.270620
C166	C	-0.303019	-0.507995	0.229380
C167	C	-0.785262	-1.019492	-0.358952
C168	C	-0.285262	-0.519492	0.141048
H169	H	-0.768677	-1.040649	-0.229524
H170	H	-0.268677	-0.540649	0.270476
H171	H	-0.786816	-0.963841	-0.256424
H172	H	-0.286816	-0.463841	0.243576
H173	H	-0.865606	-1.011709	-0.266004
H174	H	-0.365606	-0.511709	0.233996
H175	H	-0.722675	-1.015773	-0.363570
H176	H	-0.222675	-0.515773	0.136430
H177	H	-0.801458	-1.063657	-0.373152
H178	H	-0.301458	-0.563657	0.126848
C179	C	-0.583526	-0.759400	-0.821964
C180	C	-0.083526	-0.259400	-0.321964
C181	C	-0.601758	-0.826571	-0.800249
C182	C	-0.101758	-0.326571	-0.300249
H183	H	-0.620972	-0.729677	-0.792148
H184	H	-0.120972	-0.229677	-0.292148
H185	H	-0.521827	-0.753011	-0.802971
H186	H	-0.021827	-0.253011	-0.302971
H187	H	-0.595431	-0.749954	-0.885502
H188	H	-0.095431	-0.249954	-0.385502
H189	H	-0.589846	-0.836018	-0.736712
H190	H	-0.089846	-0.336018	-0.236712
H191	H	-0.663471	-0.832962	-0.819237
H192	H	-0.163471	-0.332962	-0.319237
H193	H	-0.349970	-0.690148	-0.350360
H194	H	0.150030	-0.190148	0.149640
C195	C	-0.643694	-0.216650	-0.643277
C196	C	-0.143694	0.283350	-0.143277
C197	C	-0.589897	-0.175345	-0.589637
C198	C	-0.089897	0.324655	-0.089637
H199	H	-0.685293	-0.189072	-0.684762
H200	H	-0.185293	0.310928	-0.184762
H201	H	-0.606298	-0.244458	-0.675688
H202	H	-0.106298	0.255542	-0.175688
H203	H	-0.675986	-0.244424	-0.605758
H204	H	-0.175986	0.255576	-0.105758
H205	H	-0.557600	-0.147574	-0.627155
H206	H	-0.057600	0.352426	-0.127155
H207	H	-0.627297	-0.147526	-0.557224
H208	H	-0.127297	0.352474	-0.057224
H209	H	-0.350013	-0.206141	-0.350410
H210	H	0.149987	0.293859	0.149590
C211	C	-0.346766	-0.573617	-0.244400
C212	C	0.153234	-0.073617	0.255600
C213	C	-0.332520	-0.553344	-0.332956
C214	C	0.167480	-0.053344	0.167044
H215	H	-0.305168	-0.553229	-0.202924
H216	H	0.194832	-0.053229	0.297076
H217	H	-0.406790	-0.559838	-0.234559
H218	H	0.093210	-0.059838	0.265441
H219	H	-0.337986	-0.621533	-0.235659
H220	H	0.162014	-0.121533	0.264341
H221	H	-0.341307	-0.505428	-0.341699
H222	H	0.158693	-0.005428	0.158301
H223	H	-0.272482	-0.567119	-0.342801
H224	H	0.227518	-0.067119	0.157199
C225	C	-0.278741	-0.304654	-0.279334
C226	C	0.221259	0.195346	0.220666
C227	C	-0.332531	-0.345960	-0.332979
C228	C	0.167469	0.154040	0.167021
H229	H	-0.237141	-0.332231	-0.237848
H230	H	0.262859	0.167769	0.262152
H231	H	-0.246457	-0.276877	-0.316843
H232	H	0.253543	0.223123	0.183157
H233	H	-0.316148	-0.276849	-0.246916
H234	H	0.183852	0.223151	0.253084
H235	H	-0.295125	-0.373762	-0.365402
H236	H	0.204875	0.126238	0.134598
H237	H	-0.364817	-0.373749	-0.295465
H238	H	0.135183	0.126251	0.204535
H239	H	-0.326245	-1.045295	-0.939183
H240	H	0.173755	-0.545295	-0.439183
C241	C	-0.624613	-0.890019	-1.194864
C242	C	-0.124613	-0.390019	-0.694864
C243	C	-0.563372	-0.857008	-1.137155
C244	C	-0.063372	-0.357008	-0.637155
H245	H	-0.665724	-0.857365	-1.229196
H246	H	-0.165724	-0.357365	-0.729196
H247	H	-0.592524	-0.915486	-1.234549
H248	H	-0.092524	-0.415486	-0.734549
H249	H	-0.657136	-0.919586	-1.159982
H250	H	-0.157136	-0.419586	-0.659982
H251	H	-0.530845	-0.827444	-1.172038
H252	H	-0.030845	-0.327444	-0.672038
H253	H	-0.595465	-0.831530	-1.097466
H254	H	-0.095465	-0.331530	-0.597466
C255	C	-1.228465	-0.862512	-0.556751
C256	C	-0.728465	-0.362512	-0.056751
C257	C	-1.136219	-0.857024	-0.563592
C258	C	-0.636219	-0.357024	-0.063592
H259	H	-1.262816	-0.829860	-0.597844
H260	H	-0.762816	-0.329860	-0.097844
H261	H	-1.244653	-0.906668	-0.570954
H262	H	-0.744653	-0.406668	-0.070954
H263	H	-1.240489	-0.854718	-0.496816
H264	H	-0.740489	-0.354718	0.003184
H265	H	-1.124194	-0.864823	-0.623525
H266	H	-0.624194	-0.364823	-0.123525
H267	H	-1.120026	-0.812858	-0.549395
H268	H	-0.620026	-0.312858	-0.049395
C269	C	-0.705664	-0.840441	-0.584171
C270	C	-0.205664	-0.340441	-0.084171
C271	C	-0.799327	-0.826514	-0.601755
C272	C	-0.299327	-0.326514	-0.101755
H273	H	-0.675866	-0.810707	-0.621565
H274	H	-0.175866	-0.310707	-0.121565
H275	H	-0.686722	-0.834050	-0.522457
H276	H	-0.186722	-0.334050	-0.022457
H277	H	-0.690885	-0.886010	-0.596581
H278	H	-0.190885	-0.386010	-0.096581
H279	H	-0.814108	-0.780946	-0.589339
H280	H	-0.314108	-0.280946	-0.089339
H281	H	-0.818277	-0.832899	-0.663484
H282	H	-0.318277	-0.332899	-0.163484
H283	H	-0.572423	-0.315166	-0.572191
H284	H	-0.072423	0.184834	-0.072191
H285	H	-0.595868	-0.831236	-0.984273
H286	H	-0.095868	-0.331236	-0.484273
