data_functionalizedCrystal
_audit_creation_method	'MofGen! by Chris Wilmer'
_symmetry_space_group_name_H-M	'P1'
_symmetry_Int_Tables_number	1
_symmetry_cell_setting	triclinic
loop_
_symmetry_equiv_pos_as_xyz
  x,y,z
_cell_length_a	19.077105
_cell_length_b	19.077432
_cell_length_c	11.169409
_cell_angle_alpha	92.335551
_cell_angle_beta	92.320653
_cell_angle_gamma	85.334714
loop_
_atom_site_label
_atom_site_type_symbol
_atom_site_fract_x
_atom_site_fract_y
_atom_site_fract_z
Zn1	Zn	1.089015	-0.323957	0.730944
Zn2	Zn	1.589015	0.176043	1.230944
Zn3	Zn	1.093654	-0.441863	0.522489
Zn4	Zn	1.593654	0.058137	1.022489
Zn5	Zn	0.971121	-0.319255	0.522522
Zn6	Zn	1.471121	0.180745	1.022522
Zn7	Zn	0.975825	-0.437063	0.715388
Zn8	Zn	1.475825	0.062937	1.215388
O9	O	1.032404	-0.380534	0.622836
O10	O	1.532404	0.119466	1.122836
O11	O	1.188281	-0.343574	0.709789
O12	O	1.688281	0.156426	1.209789
O13	O	1.077372	-0.425640	0.354538
O14	O	1.577372	0.074360	0.854538
O15	O	0.982850	-0.221231	0.556694
O16	O	1.482850	0.278769	1.056694
O17	O	1.191689	-0.430199	0.556637
O18	O	1.691689	0.069801	1.056637
O19	O	1.069466	-0.224686	0.709821
O20	O	1.569466	0.275314	1.209821
O21	O	0.987348	-0.335560	0.354563
O22	O	1.487348	0.164440	0.854563
O23	O	0.873094	-0.330906	0.541610
O24	O	1.373094	0.169094	1.041610
O25	O	0.990867	-0.422019	0.885406
O26	O	1.490867	0.077981	1.385406
O27	O	0.876550	-0.417459	0.683307
O28	O	1.376550	0.082541	1.183307
O29	O	1.074028	-0.338920	0.896835
O30	O	1.574028	0.161080	1.396835
O31	O	1.081933	-0.539874	0.541553
O32	O	1.581933	-0.039874	1.041553
O33	O	0.995365	-0.536347	0.683275
O34	O	1.495365	-0.036347	1.183275
C35	C	0.849243	-0.373152	0.610775
C36	C	1.349243	0.126848	1.110775
C37	C	0.770887	-0.370010	0.605642
C38	C	1.270887	0.129990	1.105642
C39	C	0.735896	-0.413666	0.676880
C40	C	1.235896	0.086334	1.176880
C41	C	0.662271	-0.410705	0.672064
C42	C	1.162271	0.089295	1.172064
C43	C	0.623640	-0.364092	0.596003
C44	C	1.123640	0.135908	1.096003
C45	C	0.658636	-0.320431	0.524762
C46	C	1.158636	0.179569	1.024762
C47	C	0.732259	-0.323389	0.529585
C48	C	1.232259	0.176611	1.029585
C49	C	0.403256	-0.350402	0.573687
C50	C	0.903256	0.149598	1.073687
C51	C	0.329628	-0.347449	0.568866
C52	C	0.829628	0.152551	1.068866
C53	C	0.333268	-0.437723	0.716171
C54	C	0.833268	0.062277	1.216171
C55	C	0.406892	-0.440680	0.720982
C56	C	0.906892	0.059320	1.220982
C57	C	0.441882	-0.397016	0.649746
C58	C	0.941882	0.102984	1.149746
N59	N	0.548384	-0.361065	0.591076
N60	N	1.048384	0.138935	1.091076
N61	N	0.517136	-0.400039	0.654680
N62	N	1.017136	0.099961	1.154680
C63	C	1.039682	-0.563689	0.610750
C64	C	1.539682	-0.063689	1.110750
C65	C	1.042860	-0.642047	0.605623
C66	C	1.542860	-0.142047	1.105623
C67	C	0.999251	-0.677047	0.676937
C68	C	1.499251	-0.177047	1.176937
C69	C	1.002240	-0.750672	0.672116
C70	C	1.502240	-0.250672	1.172116
C71	C	1.048843	-0.789295	0.595986
C72	C	1.548843	-0.289295	1.095986
C73	C	1.092454	-0.754289	0.524665
C74	C	1.592454	-0.254289	1.024665
C75	C	1.089460	-0.680666	0.529481
C76	C	1.589460	-0.180666	1.029481
C77	C	1.062628	-1.009681	0.573673
C78	C	1.562628	-0.509681	1.073673
C79	C	1.065620	-1.083310	0.568865
C80	C	1.565620	-0.583310	1.068865
C81	C	0.975405	-1.079688	0.716315
C82	C	1.475405	-0.579688	1.216315
C83	C	0.972419	-1.006063	0.721129
C84	C	1.472419	-0.506063	1.221129
C85	C	1.016027	-0.971063	0.649803
C86	C	1.516027	-0.471063	1.149803
N87	N	1.051901	-0.864552	0.591059
N88	N	1.551901	-0.364552	1.091059
N89	N	1.012965	-0.895808	0.654725
N90	N	1.512965	-0.395808	1.154725
C91	C	1.216279	-0.387946	0.634944
C92	C	1.716279	0.112054	1.134944
C93	C	1.294636	-0.391105	0.640104
C94	C	1.794636	0.108895	1.140104
C95	C	1.032455	-0.380458	0.935887
C96	C	1.532455	0.119542	1.435887
C97	C	1.032476	-0.380426	1.069291
C98	C	1.532476	0.119574	1.569291
C99	C	1.025116	-0.196665	0.634996
C100	C	1.525116	0.303335	1.134996
C101	C	1.022011	-0.118311	0.640179
C102	C	1.522011	0.381689	1.140179
C103	C	1.032391	-0.380561	0.311008
C104	C	1.532391	0.119439	0.811008
C105	C	1.032498	-0.380400	0.177627
C106	C	1.532498	0.119600	0.677627
H107	H	0.633785	-0.446255	0.730073
H108	H	1.133785	0.053745	1.230073
H109	H	0.767344	-0.451627	0.738814
H110	H	1.267344	0.048373	1.238814
H111	H	0.627177	-0.282474	0.462837
H112	H	1.127177	0.217526	0.962837
Br113	Br	0.459316	-0.503948	0.824204
Br114	Br	0.959316	-0.003948	1.324204
Br115	Br	0.285778	-0.496980	0.812838
Br116	Br	0.785778	0.003020	1.312838
H117	H	0.298176	-0.309482	0.506936
H118	H	0.798176	0.190518	1.006936
H119	H	1.098137	-0.981190	0.515599
H120	H	1.598137	-0.481190	1.015599
Br121	Br	0.779748	-0.264135	0.432908
Br122	Br	1.279748	0.235865	0.932908
H123	H	0.431736	-0.314854	0.515672
H124	H	0.931736	0.185146	1.015672
H125	H	1.130395	-0.785742	0.462673
H126	H	1.630395	-0.285742	0.962673
H127	H	0.961305	-0.645605	0.738935
H128	H	1.461305	-0.145605	1.238935
Br129	Br	0.943060	-0.798171	0.768915
Br130	Br	1.443060	-0.298171	1.268915
Br131	Br	0.909175	-0.953651	0.824460
Br132	Br	1.409175	-0.453651	1.324460
Br133	Br	1.128872	-1.135727	0.465543
Br134	Br	1.628872	-0.635727	0.965543
H135	H	0.939901	-1.108192	0.774383
H136	H	1.439901	-0.608192	1.274383
H137	H	1.124971	-0.652169	0.471408
H138	H	1.624971	-0.152169	0.971408
