data_functionalizedCrystal
_audit_creation_method	'MofGen! by Chris Wilmer'
_symmetry_space_group_name_H-M	'P1'
_symmetry_Int_Tables_number	1
_symmetry_cell_setting	triclinic
loop_
_symmetry_equiv_pos_as_xyz
  x,y,z
_cell_length_a	13.262390
_cell_length_b	14.853567
_cell_length_c	13.930277
_cell_angle_alpha	89.999243
_cell_angle_beta	74.075490
_cell_angle_gamma	84.050546
loop_
_atom_site_label
_atom_site_type_symbol
_atom_site_fract_x
_atom_site_fract_y
_atom_site_fract_z
O1	O	1.392902	0.121431	-0.443510
O2	O	1.087327	0.134635	-0.363725
O3	O	1.248277	-0.003175	-0.405752
O4	O	1.231952	0.259241	-0.401484
O5	O	1.248255	-0.003178	-0.246084
O6	O	1.087305	0.134632	-0.204058
O7	O	1.392880	0.121428	-0.283842
Zn8	Zn	1.240089	0.128030	-0.218599
Zn9	Zn	1.240118	0.128034	-0.428968
O10	O	1.231930	0.259238	-0.241816
C11	C	1.048209	0.133894	-0.273681
C12	C	0.931684	0.131678	-0.243257
C13	C	0.603277	0.125426	-0.505651
C14	C	0.712759	0.127504	-0.534238
C15	C	0.767495	0.128548	-0.461495
C16	C	0.712740	0.127513	-0.360161
C17	C	0.603249	0.125429	-0.331572
C18	C	0.767467	0.128550	-0.287415
C19	C	0.712711	0.127516	-0.186081
C20	C	0.603231	0.125432	-0.157497
C21	C	0.548494	0.124388	-0.230240
C22	C	0.876958	0.130635	-0.316005
C23	C	0.876930	0.130637	-0.141925
C24	C	0.767448	0.128560	-0.113339
C25	C	1.247526	-0.036767	-0.325728
C26	C	1.245310	-0.136857	-0.325157
C27	C	1.140332	-0.549671	-0.297729
C28	C	1.331544	-0.570441	-0.347655
C29	C	1.333628	-0.476401	-0.348204
C30	C	1.239063	-0.418992	-0.323515
C31	C	1.142413	-0.455623	-0.298276
C32	C	1.430276	-0.439763	-0.373434
C33	C	1.432364	-0.345719	-0.373983
C34	C	1.337798	-0.288308	-0.349300
C35	C	1.241144	-0.324944	-0.324061
C36	C	1.146579	-0.267535	-0.299372
C37	C	1.049924	-0.304169	-0.274139
C38	C	1.047847	-0.398212	-0.273593
C39	C	1.339875	-0.194265	-0.349847
C40	C	1.148660	-0.173487	-0.299918
C41	C	1.431998	0.122170	-0.373889
C42	C	1.548523	0.124386	-0.404319
C43	C	1.232681	0.292830	-0.321842
C44	C	1.234897	0.392920	-0.322419
N45	N	1.240076	0.128026	-0.075030
N46	N	1.240139	0.128030	-0.572540
C47	C	1.168847	0.189032	0.395838
C48	C	1.311419	0.067029	0.358580
C49	C	1.311406	0.067026	0.258088
C50	C	1.240114	0.128028	0.226466
C51	C	1.168834	0.189033	0.295337
C52	C	1.382692	0.006028	0.189208
C53	C	1.382683	0.006024	0.088708
C54	C	1.311385	0.067022	0.057086
C55	C	1.240101	0.128029	0.125964
C56	C	1.168809	0.189030	0.094342
C57	C	1.097520	0.250033	0.163220
C58	C	1.097536	0.250031	0.263715
C59	C	1.311368	0.067025	-0.043408
C60	C	1.168797	0.189031	-0.006159
H61	H	0.921529	0.131479	-0.398511
C62	C	0.937135	0.131791	-0.061902
N63	N	0.982488	0.132661	-0.001634
H64	H	0.757334	0.128341	-0.616744
H65	H	1.369416	0.017361	-0.099485
C66	C	1.090394	0.256163	-0.040940
N67	N	1.031352	0.306736	-0.067139
H68	H	1.507266	-0.486512	-0.393525
C69	C	1.034017	-0.589969	-0.269966
N70	N	0.953939	-0.620323	-0.249050
C71	C	1.090425	0.256126	0.471605
N72	N	1.031355	0.306660	0.528674
C73	C	1.019102	0.317134	0.128422
N74	N	0.960038	0.367672	0.102208
H75	H	1.071652	-0.126750	-0.279817
C76	C	1.389836	-0.000069	0.393368
N77	N	1.448900	-0.050612	0.419575
H78	H	1.418570	-0.164442	-0.370384
H79	H	0.972929	-0.257415	-0.254030
H80	H	1.039496	0.299698	0.319800
C81	C	1.461107	-0.061069	0.223999
N82	N	1.520170	-0.111611	0.250208
C83	C	1.461093	-0.061087	0.012954
N84	N	1.520149	-0.111639	-0.044104
C85	C	0.428055	0.122115	-0.198799
N86	N	0.337338	0.120406	-0.175120
H87	H	0.969155	-0.428049	-0.253049
C88	C	1.435560	-0.633593	-0.374806
N89	N	1.513909	-0.681163	-0.395260
H90	H	0.558654	0.124573	-0.074985
H91	H	0.856640	0.130240	-0.484776
C92	C	0.543061	0.124271	-0.585656
N93	N	0.497704	0.123400	-0.645921
H94	H	0.722851	0.127717	-0.030831
H95	H	1.511066	-0.315900	-0.394530
