data_functionalizedCrystal
_audit_creation_method	'MofGen! by Chris Wilmer'
_symmetry_space_group_name_H-M	'P1'
_symmetry_Int_Tables_number	1
_symmetry_cell_setting	triclinic
loop_
_symmetry_equiv_pos_as_xyz
  x,y,z
_cell_length_a	10.654541
_cell_length_b	16.974800
_cell_length_c	15.455313
_cell_angle_alpha	90.973911
_cell_angle_beta	92.691200
_cell_angle_gamma	83.935819
loop_
_atom_site_label
_atom_site_type_symbol
_atom_site_fract_x
_atom_site_fract_y
_atom_site_fract_z
O1	O	0.160091	1.049949	0.001600
O2	O	0.179269	0.820621	-0.014505
O3	O	-0.013114	0.940558	-0.006077
O4	O	0.352474	0.930011	-0.006828
O5	O	-0.002158	0.933699	0.137703
O6	O	0.190225	0.813762	0.129275
O7	O	0.171046	1.043090	0.145381
Cu8	Cu	0.181636	0.927800	0.150456
Cu9	Cu	0.168680	0.935911	-0.019581
O10	O	0.363430	0.923152	0.136952
C11	C	0.183817	0.787827	0.055322
C12	C	0.181030	0.700330	0.049178
C13	C	0.185690	0.655490	0.124667
C14	C	0.183052	0.573279	0.118896
C15	C	0.175763	0.535909	0.037634
C16	C	0.171099	0.580755	-0.037861
C17	C	0.173728	0.662965	-0.032089
C18	C	0.167250	0.290438	0.011967
C19	C	0.164625	0.208221	0.006200
C20	C	0.176576	0.200750	0.162958
C21	C	0.179212	0.282962	0.168723
C22	C	0.174542	0.327802	0.093228
N23	N	0.173070	0.451875	0.031733
N24	N	0.177225	0.411834	0.099130
C25	C	-0.054426	0.936355	0.065758
C26	C	-0.193846	0.934039	0.065594
C27	C	-0.223299	1.077456	0.075678
C28	C	-0.303524	1.148074	0.080644
C29	C	-0.434519	1.145893	0.080488
C30	C	-0.485292	1.073087	0.075363
C31	C	-0.405068	1.002470	0.070396
C32	C	-0.274071	1.004658	0.070555
C33	C	-0.375615	0.859055	0.060307
C34	C	-0.244618	0.861233	0.060469
C35	C	-0.426388	0.786249	0.055181
C36	C	-0.346163	0.715629	0.050220
C37	C	-0.215160	0.717813	0.050377
C38	C	-0.164394	0.790616	0.055502
C39	C	0.404741	0.927356	0.065115
C40	C	0.544161	0.929672	0.065273
C41	C	0.166499	1.075884	0.075551
C42	C	0.169285	1.163381	0.081690
N43	N	0.190748	0.922100	0.270051
N44	N	0.159557	0.941616	-0.139175
C45	C	0.109047	0.973072	0.319027
C46	C	0.115950	0.968769	0.409533
C47	C	0.204561	0.913498	0.451061
C48	C	0.286265	0.862521	0.402078
C49	C	0.279356	0.866820	0.311574
C50	C	0.234352	0.894939	0.721338
C51	C	0.241258	0.890645	0.811849
C52	C	0.070941	0.996893	0.819297
C53	C	0.064044	1.001190	0.728791
C54	C	0.145744	0.950211	0.679816
N55	N	0.211622	0.909100	0.543572
N56	N	0.138676	0.954605	0.587306
H57	H	0.158693	0.177797	-0.059976
H58	H	0.345884	0.825313	0.271698
C59	C	-0.018935	1.052962	0.873169
C60	C	-0.162900	1.051453	0.860589
C61	C	-0.252785	1.107524	0.914460
C62	C	-0.198704	1.165103	0.980911
C63	C	-0.054731	1.166614	0.993495
C64	C	0.035153	1.110544	0.939624
H65	H	-0.202941	1.008828	0.811395
H66	H	-0.359363	1.106405	0.905145
H67	H	-0.265242	1.206609	1.020790
H68	H	-0.014691	1.209239	1.042688
H69	H	0.141732	1.111662	0.948939
H70	H	0.036897	1.018083	0.285222
H71	H	0.191636	0.685909	0.190839
C72	C	-0.402017	0.635552	0.044578
C73	C	-0.482356	0.610763	0.117737
C74	C	-0.538217	0.530685	0.112094
C75	C	-0.513737	0.475395	0.033293
C76	C	-0.433393	0.500182	-0.039871
C77	C	-0.377533	0.580261	-0.034229
H78	H	-0.500481	0.651693	0.176075
H79	H	-0.597693	0.512336	0.166256
H80	H	-0.555088	0.416116	0.029117
H81	H	-0.415268	0.459253	-0.098209
H82	H	-0.318057	0.598610	-0.088390
H83	H	-0.149847	0.660307	0.046329
H84	H	0.180376	0.164233	0.224422
C85	C	-0.247669	1.228156	0.086285
C86	C	-0.155983	1.245809	0.162443
C87	C	-0.100133	1.325891	0.168081
C88	C	-0.135969	1.388320	0.097561
C89	C	-0.227659	1.370669	0.021398
C90	C	-0.283510	1.290587	0.015760
H91	H	-0.129452	1.199594	0.214651
H92	H	-0.032258	1.338957	0.224463
H93	H	-0.094625	1.447602	0.101735
H94	H	-0.254191	1.416885	-0.030810
H95	H	-0.351385	1.277521	-0.040622
H96	H	0.049422	1.010274	0.449409
C97	C	-0.033432	1.061985	0.683107
C98	C	-0.123312	1.118057	0.736972
C99	C	-0.220784	1.178853	0.691285
C100	C	-0.228374	1.183578	0.591733
C101	C	-0.138490	1.127504	0.537863
C102	C	-0.041019	1.066708	0.583550
H103	H	-0.117696	1.114561	0.810670
H104	H	-0.287322	1.220362	0.731163
H105	H	-0.300529	1.228583	0.557913
H106	H	-0.144107	1.131000	0.464164
H107	H	0.025519	1.025199	0.543672
C108	C	0.383741	0.801720	0.447754
C109	C	0.391412	0.797025	0.547307
C110	C	0.488893	0.736225	0.592979
C111	C	0.578703	0.680120	0.539099
C112	C	0.571035	0.684814	0.439540
C113	C	0.473554	0.745614	0.393867
H114	H	0.324926	0.838558	0.587197
H115	H	0.494569	0.732750	0.666680
H116	H	0.650864	0.635113	0.572909
H117	H	0.637520	0.643281	0.399649
H118	H	0.467878	0.749089	0.320167
H119	H	0.165155	0.550323	-0.104026
H120	H	0.313421	0.845634	0.845656
H121	H	0.300878	0.853430	0.681469
H122	H	0.163443	0.326937	-0.049507
H123	H	0.185142	0.313383	0.234895
C124	C	0.188174	0.523959	0.201939
C125	C	0.302415	0.523819	0.266802
C126	C	0.307532	0.474502	0.349851
C127	C	0.198407	0.425325	0.368038
C128	C	0.084157	0.425463	0.303173
C129	C	0.079041	0.474780	0.220124
H130	H	0.383204	0.560224	0.253341
H131	H	0.392107	0.474400	0.397868
H132	H	0.202194	0.388818	0.429516
H133	H	0.003369	0.389058	0.316634
H134	H	-0.005535	0.474882	0.172107
H135	H	0.169936	0.699473	-0.093561
H136	H	-0.116636	1.079239	0.075817
H137	H	-0.499840	1.203396	0.084526
H138	H	-0.057732	0.792400	0.055635
H139	H	-0.591958	1.071319	0.075226
H140	H	-0.533053	0.784479	0.055049
