data_functionalizedCrystal
_audit_creation_method	'MofGen! by Chris Wilmer'
_symmetry_space_group_name_H-M	'P1'
_symmetry_Int_Tables_number	1
_symmetry_cell_setting	triclinic
loop_
_symmetry_equiv_pos_as_xyz
  x,y,z
_cell_length_a	6.817900
_cell_length_b	16.418055
_cell_length_c	11.102193
_cell_angle_alpha	93.885925
_cell_angle_beta	108.604059
_cell_angle_gamma	103.389726
loop_
_atom_site_label
_atom_site_type_symbol
_atom_site_fract_x
_atom_site_fract_y
_atom_site_fract_z
V1	V	-4.085009	-0.115891	-0.396699
O2	O	-4.071820	0.005563	-0.388693
O3	O	-4.035737	-0.229787	-0.394422
O4	O	-4.062190	-0.114111	-0.569513
O5	O	-4.045183	-0.110914	-0.212390
V6	V	-4.565435	-0.101364	-0.374601
O7	O	-4.353060	-0.147759	-0.445172
O8	O	-4.747581	-0.069496	-0.326127
O9	O	-4.391501	0.012532	-0.376877
O10	O	-4.696021	-0.222818	-0.382606
O11	O	-4.722658	-0.106341	-0.558910
O12	O	-4.365047	-0.103144	-0.201786
C13	C	-3.879697	-0.257552	-0.388277
C14	C	-3.920869	-0.350664	-0.387567
C15	C	-4.237294	-0.656650	-0.391695
C16	C	-4.198617	-0.569160	-0.392341
C17	C	-3.832511	-0.560616	-0.379605
C18	C	-3.871185	-0.648103	-0.378950
C19	C	-4.073584	-0.696119	-0.385001
C20	C	-3.996234	-0.521142	-0.386303
C21	C	-3.954298	-0.426282	-0.387003
C22	C	-4.115523	-0.790985	-0.384298
C23	C	-3.913440	-0.109995	-0.611621
C24	C	-3.976061	-0.109294	-0.752901
C25	C	-4.061303	-0.262704	-0.789812
C26	C	-4.133335	-0.339077	-0.874639
C27	C	-4.192173	-0.338413	-1.007382
C28	C	-4.178982	-0.261368	-1.055300
C29	C	-4.106950	-0.184996	-0.970474
C30	C	-4.048109	-0.185668	-0.837729
C31	C	-4.021723	-0.031588	-0.933564
C32	C	-3.962870	-0.032249	-0.800819
C33	C	-4.008532	0.045457	-0.981481
C34	C	-3.936484	0.121831	-0.896654
C35	C	-3.877642	0.121164	-0.763903
C36	C	-3.890838	0.044123	-0.715992
C37	C	-4.210881	0.040293	-0.383019
C38	C	-4.148949	0.133403	-0.383737
C39	C	-4.177138	-0.107262	-0.159671
C40	C	-4.093755	-0.107960	-0.018390
H41	H	-3.737861	-0.680239	-0.373497
H42	H	-4.013367	-0.263252	-0.681726
H43	H	-4.250831	-0.400602	-1.076450
O44	O	-4.433965	-0.703352	-0.397782
C45	C	-4.744621	-0.818481	-0.515034
C46	C	-4.521944	-0.765650	-0.508321
H47	H	-4.815799	-0.868873	-0.604383
H48	H	-4.855119	-0.775288	-0.520009
H49	H	-4.727723	-0.850432	-0.425612
H50	H	-4.538638	-0.733692	-0.597721
H51	H	-4.411529	-0.808883	-0.503282
H52	H	-3.925765	0.184554	-0.935681
O53	O	-3.635767	-0.513985	-0.373509
C54	C	-3.256441	-0.468589	-0.252209
C55	C	-3.479130	-0.521413	-0.258932
H56	H	-3.129734	-0.474590	-0.159595
H57	H	-3.256758	-0.399258	-0.253745
H58	H	-3.217960	-0.492860	-0.338375
H59	H	-3.517751	-0.497216	-0.172785
H60	H	-3.478699	-0.590735	-0.257458
H61	H	-4.144075	-0.401805	-0.835609
O62	O	-4.236486	-0.260839	-1.184283
C63	C	-4.518354	-0.305909	-1.391046
C64	C	-4.453499	-0.306592	-1.245001
H65	H	-4.693824	-0.342881	-1.440176
H66	H	-4.412838	-0.336557	-1.430376
H67	H	-4.496436	-0.237720	-1.410692
H68	H	-4.475424	-0.374754	-1.225242
H69	H	-4.559015	-0.275896	-1.205745
O70	O	-3.807629	0.195433	-0.681681
C71	C	-3.729450	0.347665	-0.659102
C72	C	-3.808724	0.263618	-0.752352
H73	H	-3.730352	0.402813	-0.716204
H74	H	-3.559176	0.354468	-0.591073
H75	H	-3.840291	0.347926	-0.600985
H76	H	-3.698041	0.263298	-0.810555
H77	H	-3.979036	0.256848	-0.820295
H78	H	-3.842917	0.043572	-0.607908
O79	O	-4.357562	-0.530743	-0.399014
C80	C	-4.581026	-0.448332	-0.517839
C81	C	-4.400963	-0.491784	-0.510427
H82	H	-4.616203	-0.416837	-0.607923
H83	H	-4.528035	-0.398361	-0.429134
H84	H	-4.732262	-0.497689	-0.521986
H85	H	-4.249662	-0.442489	-0.506320
H86	H	-4.454133	-0.541771	-0.599130
H87	H	-4.056460	0.045992	-1.089570
