data_functionalizedCrystal
_audit_creation_method	'MofGen! by Chris Wilmer'
_symmetry_space_group_name_H-M	'P1'
_symmetry_Int_Tables_number	1
_symmetry_cell_setting	triclinic
loop_
_symmetry_equiv_pos_as_xyz
  x,y,z
_cell_length_a	12.594517
_cell_length_b	12.594516
_cell_length_c	12.759393
_cell_angle_alpha	89.969957
_cell_angle_beta	89.987893
_cell_angle_gamma	90.014059
loop_
_atom_site_label
_atom_site_type_symbol
_atom_site_fract_x
_atom_site_fract_y
_atom_site_fract_z
Zn1	Zn	1.627258	-0.423796	-0.593815
Zn2	Zn	1.627140	-0.601815	-0.418140
Zn3	Zn	1.449260	-0.423838	-0.418174
Zn4	Zn	1.449237	-0.601720	-0.593801
O5	O	1.538224	-0.512792	-0.505982
O6	O	1.776188	-0.447433	-0.570503
O7	O	1.603504	-0.578264	-0.271123
O8	O	1.472930	-0.274887	-0.441493
O9	O	1.776102	-0.578223	-0.441435
O10	O	1.603705	-0.274856	-0.570536
O11	O	1.472816	-0.447505	-0.271148
O12	O	1.300311	-0.447413	-0.441479
O13	O	1.472892	-0.578060	-0.740824
O14	O	1.300295	-0.578101	-0.570512
O15	O	1.603683	-0.447340	-0.740834
O16	O	1.603482	-0.750748	-0.441422
O17	O	1.472778	-0.750678	-0.570479
C18	C	1.261683	-0.512752	-0.505998
C19	C	1.143377	-0.512760	-0.506030
C20	C	1.074146	-0.583981	-0.576075
C21	C	1.003341	-0.486934	-0.601913
C22	C	1.003383	-0.609888	-0.480169
C23	C	1.074131	-0.415661	-0.531918
C24	C	1.074179	-0.538681	-0.410129
C25	C	1.003406	-0.441567	-0.435931
C26	C	1.538144	-0.789333	-0.505968
C27	C	1.538207	-0.907639	-0.505997
C28	C	1.467175	-1.047656	-0.576156
C29	C	1.564210	-0.976750	-0.601916
C30	C	1.441181	-0.976973	-0.480283
C31	C	1.635467	-1.047518	-0.531846
C32	C	1.512373	-1.047747	-0.410169
C33	C	1.609476	-0.976873	-0.435893
C34	C	1.815845	-0.512833	-0.505967
C35	C	1.934150	-0.512851	-0.505960
C36	C	1.538298	-0.512685	-0.780016
C37	C	1.538330	-0.512639	-0.896792
C38	C	1.538333	-0.235171	-0.506020
C39	C	1.538380	-0.116866	-0.506036
C40	C	1.470305	-0.444540	-0.951667
C41	C	1.470330	-0.444508	-1.061391
C42	C	1.606413	-0.580675	-1.061357
C43	C	1.606382	-0.580712	-0.951634
C44	C	1.538211	-0.512823	-0.233015
C45	C	1.538386	-0.512569	-0.116239
H46	H	0.972541	-0.381307	-0.376666
H47	H	1.105317	-0.560602	-0.329081
H48	H	1.661820	-0.636097	-1.106022
O49	O	1.672567	-0.646901	-0.898485
C50	C	1.732625	-0.706989	-0.970415
H51	H	1.736358	-0.663369	-1.048638
H52	H	1.693616	-0.787814	-0.982072
C53	C	1.841301	-0.775942	-0.831501
C54	C	1.845892	-0.722362	-0.927573
H55	H	1.911168	-0.785430	-0.805073
H56	H	1.800836	-0.735463	-0.783039
H57	H	1.808788	-0.843291	-0.841228
H58	H	1.878393	-0.655010	-0.917842
H59	H	1.886366	-0.762830	-0.976032
O60	O	1.395649	-1.084874	-0.647029
C61	C	1.448426	-1.147851	-0.722047
H62	H	1.525894	-1.178852	-0.687440
H63	H	1.466355	-1.097935	-0.794484
C64	C	1.282059	-1.204121	-0.795394
C65	C	1.377204	-1.242204	-0.752886
H66	H	1.238126	-1.262320	-0.814422
H67	H	1.246502	-1.161689	-0.744856
H68	H	1.297015	-1.162524	-0.855753
H69	H	1.362248	-1.283789	-0.692521
H70	H	1.412757	-1.284646	-0.803415
H71	H	1.105210	-0.644094	-0.635386
H72	H	0.972226	-0.465042	-0.682985
H73	H	0.972301	-0.691989	-0.458327
H74	H	1.586140	-0.945568	-0.682972
H75	H	1.717618	-1.078380	-0.553705
O76	O	1.681446	-0.940070	-0.365250
C77	C	1.783655	-0.976229	-0.392755
H78	H	1.785646	-0.995927	-0.479927
H79	H	1.803512	-1.050410	-0.345425
C80	C	1.863347	-0.864720	-0.261917
C81	C	1.865794	-0.888905	-0.368985
H82	H	1.914016	-0.810857	-0.247250
H83	H	1.794487	-0.840361	-0.243383
H84	H	1.879892	-0.926544	-0.222488
H85	H	1.849237	-0.827084	-0.408411
H86	H	1.934654	-0.913251	-0.387525
O87	O	1.486368	-1.085038	-0.313470
C88	C	1.570824	-1.146555	-0.273815
H89	H	1.647896	-1.122253	-0.314099
H90	H	1.554566	-1.234170	-0.289483
C91	C	1.486269	-1.158071	-0.105441
C92	C	1.580931	-1.128218	-0.154911
H93	H	1.492502	-1.146765	-0.032095
H94	H	1.429367	-1.116630	-0.132157
H95	H	1.472731	-1.231083	-0.118508
H96	H	1.594461	-1.055205	-0.141855
H97	H	1.637836	-1.169647	-0.128190
H98	H	1.359055	-0.945979	-0.458519
O99	O	1.404102	-0.378406	-1.114577
C100	C	1.298003	-0.401674	-1.087777
H101	H	1.295765	-0.442619	-1.008105
H102	H	1.262141	-0.456367	-1.149520
C103	C	1.236324	-0.247611	-1.180577
C104	C	1.233574	-0.297892	-1.082718
H105	H	1.196578	-0.183595	-1.177461
H106	H	1.307804	-0.231936	-1.198636
H107	H	1.206440	-0.293199	-1.232019
H108	H	1.263469	-0.252309	-1.031281
H109	H	1.162097	-0.313557	-1.064650
H110	H	1.414892	-0.389111	-0.907018
H111	H	1.105078	-0.333536	-0.553854
