data_functionalizedCrystal
_audit_creation_method	'MofGen! by Chris Wilmer'
_symmetry_space_group_name_H-M	'P1'
_symmetry_Int_Tables_number	1
_symmetry_cell_setting	triclinic
loop_
_symmetry_equiv_pos_as_xyz
  x,y,z
_cell_length_a	27.732048
_cell_length_b	27.732048
_cell_length_c	12.503572
_cell_angle_alpha	93.489054
_cell_angle_beta	86.516589
_cell_angle_gamma	82.642655
loop_
_atom_site_label
_atom_site_type_symbol
_atom_site_fract_x
_atom_site_fract_y
_atom_site_fract_z
O1	O	0.643731	0.054704	-0.089192
O2	O	0.977065	0.388037	0.244141
O3	O	1.310398	0.721370	0.577474
O4	O	0.502939	0.063448	-0.089227
O5	O	0.836272	0.396781	0.244107
O6	O	1.169606	0.730115	0.577440
O7	O	0.577707	-0.011320	-0.089188
O8	O	0.911041	0.322013	0.244145
O9	O	1.244374	0.655347	0.577479
O10	O	0.568963	0.129472	-0.089231
O11	O	0.902297	0.462805	0.244102
O12	O	1.235630	0.796139	0.577436
O13	O	0.572084	-0.005688	0.089451
O14	O	0.905418	0.327645	0.422784
O15	O	1.238751	0.660979	0.756118
O16	O	0.497316	0.069080	0.089412
O17	O	0.830649	0.402414	0.422746
O18	O	1.163983	0.735747	0.756079
O19	O	0.638108	0.060336	0.089447
O20	O	0.971442	0.393669	0.422780
O21	O	1.304775	0.727003	0.756113
Cu22	Cu	0.567199	0.065222	0.105741
Cu23	Cu	0.900532	0.398556	0.439074
Cu24	Cu	1.233865	0.731889	0.772407
Cu25	Cu	0.573849	0.058562	-0.105521
Cu26	Cu	0.907182	0.391895	0.227813
Cu27	Cu	1.240515	0.725228	0.561146
O28	O	0.563340	0.135104	0.089408
O29	O	0.896673	0.468438	0.422741
O30	O	1.230007	0.801771	0.756075
C31	C	0.482121	0.066081	0.000089
C32	C	0.815454	0.399414	0.333422
C33	C	1.148787	0.732747	0.666755
C34	C	0.428466	0.065527	0.000077
C35	C	0.761800	0.398861	0.333410
C36	C	1.095133	0.732194	0.666743
C37	C	0.089650	0.106232	0.000111
C38	C	0.422983	0.439566	0.333444
C39	C	0.756317	0.772899	0.666777
C40	C	-0.112010	0.104182	0.000121
C41	C	0.221324	0.437515	0.333454
C42	C	0.554657	0.770848	0.666788
O43	O	-0.143267	0.141403	0.000156
O44	O	0.190067	0.474737	0.333489
O45	O	0.523400	0.808070	0.666823
N46	N	-0.131134	0.059847	0.000133
N47	N	0.202199	0.393180	0.333466
N48	N	0.535533	0.726513	0.666799
C49	C	-0.099840	0.016022	0.000149
C50	C	0.233494	0.349355	0.333482
C51	C	0.566827	0.682688	0.666815
O52	O	-0.120734	-0.021735	0.000170
O53	O	0.212600	0.311599	0.333503
O54	O	0.545933	0.644932	0.666837
C55	C	0.101819	0.018073	0.000146
C56	C	0.435152	0.351406	0.333480
C57	C	0.768486	0.684740	0.666813
C58	C	0.120940	0.062410	0.000124
C59	C	0.454274	0.395744	0.333457
C60	C	0.787607	0.729077	0.666790
C61	C	0.108772	0.150566	0.000089
C62	C	0.442105	0.483899	0.333423
C63	C	0.775439	0.817233	0.666756
C64	C	0.159184	0.151078	0.000081
C65	C	0.492518	0.484411	0.333414
C66	C	0.825851	0.817745	0.666748
C67	C	0.190475	0.107256	0.000094
C68	C	0.523808	0.440590	0.333427
C69	C	0.857141	0.773923	0.666761
C70	C	0.171353	0.062922	0.000115
C71	C	0.504686	0.396256	0.333449
C72	C	0.838019	0.729589	0.666782
C73	C	0.133112	-0.025751	0.000170
C74	C	0.466445	0.307582	0.333503
C75	C	0.799779	0.640915	0.666837
C76	C	0.183529	-0.025234	0.000172
C77	C	0.516862	0.308099	0.333505
C78	C	0.850196	0.641432	0.666839
C79	C	0.202651	0.019103	0.000150
C80	C	0.535984	0.352436	0.333483
C81	C	0.869317	0.685770	0.666816
C82	C	0.253055	0.019613	0.000120
C83	C	0.586388	0.352946	0.333453
C84	C	0.919722	0.686279	0.666786
N85	N	0.272179	0.063948	0.000108
N86	N	0.605512	0.397281	0.333442
N87	N	0.938846	0.730614	0.666775
C88	C	0.240889	0.107769	0.000095
C89	C	0.574222	0.441103	0.333429
C90	C	0.907556	0.774436	0.666762
C91	C	-0.205714	0.014948	0.000148
C92	C	0.127619	0.348281	0.333481
C93	C	0.460953	0.681614	0.666815
C94	C	-0.256128	0.014435	0.000147
C95	C	0.077205	0.347768	0.333480
C96	C	0.410538	0.681101	0.666813
C97	C	-0.268295	0.102595	0.000121
C98	C	0.065038	0.435928	0.333454
C99	C	0.398372	0.769261	0.666788
C100	C	-0.217879	0.103107	0.000115
C101	C	0.115454	0.436440	0.333448
C102	C	0.448787	0.769774	0.666781
C103	C	-0.186590	0.059283	0.000136
C104	C	0.146744	0.392616	0.333470
C105	C	0.480077	0.725949	0.666803
C106	C	0.346759	0.108841	0.000077
C107	C	0.680092	0.442175	0.333410
C108	C	1.013425	0.775508	0.666743
C109	C	0.397176	0.109349	0.000064
C110	C	0.730509	0.442683	0.333397
C111	C	1.063843	0.776016	0.666730
C112	C	0.409338	0.021189	0.000095
C113	C	0.742671	0.354523	0.333429
C114	C	1.076005	0.687856	0.666762
C115	C	0.358925	0.020681	0.000102
C116	C	0.692259	0.354014	0.333436
C117	C	1.025592	0.687348	0.666769
C118	C	0.327636	0.064511	0.000097
C119	C	0.660970	0.397844	0.333430
C120	C	0.994303	0.731178	0.666763
O121	O	0.284340	-0.017589	0.000097
O122	O	0.617673	0.315745	0.333430
O123	O	0.951006	0.649078	0.666763
O124	O	0.261791	0.145521	0.000098
O125	O	0.595125	0.478854	0.333431
O126	O	0.928458	0.812187	0.666765
C127	C	0.039238	0.105720	0.000119
C128	C	0.372571	0.439054	0.333453
C129	C	0.705905	0.772387	0.666786
C130	C	0.020116	0.061386	0.000141
C131	C	0.353449	0.394720	0.333474
C132	C	0.686783	0.728053	0.666807
C133	C	0.051406	0.017565	0.000153
C134	C	0.384740	0.350898	0.333487
C135	C	0.718073	0.684231	0.666820
C136	C	-0.030298	0.060873	0.000139
C137	C	0.303035	0.394207	0.333473
C138	C	0.636368	0.727540	0.666806
C139	C	-0.061589	0.104695	0.000126
C140	C	0.271745	0.438029	0.333460
C141	C	0.605078	0.771362	0.666793
C142	C	-0.042465	0.149030	0.000115
C143	C	0.290869	0.482363	0.333448
C144	C	0.624202	0.815697	0.666781
C145	C	0.007948	0.149542	0.000106
C146	C	0.341281	0.482875	0.333440
C147	C	0.674614	0.816209	0.666773
C148	C	0.032282	-0.026770	0.000165
C149	C	0.365615	0.306563	0.333498
C150	C	0.698949	0.639896	0.666832
C151	C	-0.018131	-0.027279	0.000172
C152	C	0.315203	0.306055	0.333506
C153	C	0.648536	0.639388	0.666839
C154	C	-0.049421	0.016543	0.000159
C155	C	0.283912	0.349876	0.333493
C156	C	0.617246	0.683210	0.666826
C157	C	0.574712	-0.026511	0.000134
C158	C	0.908045	0.306823	0.333468
C159	C	1.241379	0.640156	0.666801
C160	C	0.574159	-0.080165	0.000143
C161	C	0.907492	0.253168	0.333476
C162	C	1.240826	0.586501	0.666810
C163	C	0.614864	-0.418982	0.000098
C164	C	0.948198	-0.085649	0.333431
C165	C	1.281531	0.247685	0.666764
C166	C	0.612814	-0.620642	0.000082
C167	C	0.946147	-0.287309	0.333416
C168	C	1.279480	0.046025	0.666749
O169	O	0.650036	-0.651899	0.000044
O170	O	0.983369	-0.318566	0.333378
O171	O	1.316702	0.014768	0.666711
N172	N	0.568479	-0.639766	0.000073
N173	N	0.901812	-0.306433	0.333406
N174	N	1.235146	0.026901	0.666739
C175	C	0.524654	-0.608472	0.000060
C176	C	0.857987	-0.275138	0.333393
C177	C	1.191320	0.058195	0.666726
O178	O	0.486897	-0.629366	0.000040
O179	O	0.820231	-0.296032	0.333373
O180	O	1.153564	0.037301	0.666707
C181	C	0.526705	-0.406813	0.000067
C182	C	0.860038	-0.073480	0.333401
C183	C	1.193372	0.259854	0.666734
C184	C	0.571042	-0.387692	0.000088
C185	C	0.904376	-0.054358	0.333421
C186	C	1.237709	0.278975	0.666755
C187	C	0.659198	-0.399860	0.000117
C188	C	0.992531	-0.066527	0.333451
C189	C	1.325865	0.266807	0.666784
C190	C	0.659710	-0.349448	0.000127
C191	C	0.993043	-0.016114	0.333460
C192	C	1.326377	0.317219	0.666794
C193	C	0.615888	-0.318157	0.000117
C194	C	0.949222	0.015176	0.333451
C195	C	1.282555	0.348509	0.666784
C196	C	0.571554	-0.337279	0.000098
C197	C	0.904888	-0.003946	0.333431
C198	C	1.238221	0.329387	0.666764
C199	C	0.482881	-0.375520	0.000047
C200	C	0.816214	-0.042187	0.333380
C201	C	1.149547	0.291147	0.666714
C202	C	0.483397	-0.325103	0.000046
C203	C	0.816731	0.008231	0.333379
C204	C	1.150064	0.341564	0.666713
C205	C	0.527735	-0.305981	0.000067
C206	C	0.861068	0.027352	0.333400
C207	C	1.194401	0.360685	0.666733
C208	C	0.528244	-0.255577	0.000098
C209	C	0.861578	0.077757	0.333431
C210	C	1.194911	0.411090	0.666765
N211	N	0.572579	-0.236453	0.000108
N212	N	0.905913	0.096881	0.333441
N213	N	1.239246	0.430214	0.666774
C214	C	0.616401	-0.267743	0.000117
C215	C	0.949735	0.065590	0.333451
C216	C	1.283068	0.398924	0.666784
C217	C	0.523580	-0.714346	0.000058
C218	C	0.856913	-0.381013	0.333391
C219	C	1.190246	-0.047679	0.666724
C220	C	0.523067	-0.764760	0.000058
C221	C	0.856400	-0.431427	0.333391
C222	C	1.189733	-0.098094	0.666724
C223	C	0.611227	-0.776927	0.000078
C224	C	0.944560	-0.443594	0.333412
C225	C	1.277894	-0.110261	0.666745
C226	C	0.611739	-0.726512	0.000086
C227	C	0.945073	-0.393178	0.333419
C228	C	1.278406	-0.059845	0.666753
C229	C	0.567915	-0.695222	0.000067
C230	C	0.901248	-0.361889	0.333401
C231	C	1.234581	-0.028555	0.666734
C232	C	0.617473	-0.161873	0.000139
C233	C	0.950806	0.171460	0.333472
C234	C	1.284140	0.504794	0.666805
C235	C	0.617981	-0.111456	0.000153
C236	C	0.951314	0.221878	0.333486
C237	C	1.284648	0.555211	0.666819
C238	C	0.529821	-0.099294	0.000126
C239	C	0.863154	0.234040	0.333460
C240	C	1.196488	0.567373	0.666793
C241	C	0.529313	-0.149706	0.000118
C242	C	0.862646	0.183627	0.333451
C243	C	1.195979	0.516960	0.666785
C244	C	0.573143	-0.180996	0.000120
C245	C	0.906476	0.152338	0.333454
C246	C	1.239809	0.485671	0.666787
O247	O	0.491043	-0.224292	0.000124
O248	O	0.824376	0.109041	0.333457
O249	O	1.157710	0.442375	0.666790
O250	O	0.654153	-0.246841	0.000113
O251	O	0.987486	0.086493	0.333446
O252	O	1.320819	0.419826	0.666780
C253	C	0.614352	-0.469394	0.000088
C254	C	0.947686	-0.136061	0.333421
C255	C	1.281019	0.197272	0.666755
C256	C	0.570018	-0.488516	0.000069
C257	C	0.903352	-0.155183	0.333402
C258	C	1.236685	0.178151	0.666735
C259	C	0.526197	-0.457226	0.000059
C260	C	0.859530	-0.123892	0.333392
C261	C	1.192863	0.209441	0.666726
C262	C	0.569505	-0.538930	0.000069
C263	C	0.902839	-0.205597	0.333402
C264	C	1.236172	0.127736	0.666735
C265	C	0.613327	-0.570221	0.000078
C266	C	0.946661	-0.236888	0.333412
C267	C	1.279994	0.096446	0.666745
C268	C	0.657662	-0.551097	0.000088
C269	C	0.990996	-0.217763	0.333421
C270	C	1.324329	0.115570	0.666755
C271	C	0.658174	-0.500685	0.000098
C272	C	0.991508	-0.167351	0.333431
C273	C	1.324841	0.165982	0.666764
C274	C	0.481862	-0.476350	0.000049
C275	C	0.815195	-0.143016	0.333383
C276	C	1.148528	0.190317	0.666716
C277	C	0.481353	-0.526763	0.000041
C278	C	0.814687	-0.193429	0.333374
C279	C	1.148020	0.139904	0.666707
C280	C	0.525175	-0.558053	0.000050
C281	C	0.858508	-0.224720	0.333384
C282	C	1.191842	0.108614	0.666717
C283	C	0.658927	0.057703	0.000129
C284	C	0.992260	0.391037	0.333462
C285	C	1.325593	0.724370	0.666795
C286	C	0.712582	0.058256	0.000134
C287	C	1.045915	0.391590	0.333467
C288	C	1.379248	0.724923	0.666800
C289	C	0.566335	0.150295	0.000083
C290	C	0.899669	0.483628	0.333417
C291	C	1.233002	0.816962	0.666750
C292	C	0.566889	0.203949	0.000067
C293	C	0.900222	0.537283	0.333401
C294	C	1.233555	0.870616	0.666734
N295	N	0.562525	0.069907	0.254331
N296	N	0.895858	0.403240	0.587664
N297	N	1.229192	0.736574	0.920997
N298	N	0.578526	0.053873	-0.254111
N299	N	0.911860	0.387207	0.079223
N300	N	1.245193	0.720540	0.412556
C301	C	0.555650	0.076802	0.473442
C302	C	0.888983	0.410136	0.806776
C303	C	1.222316	0.743469	1.140109
C304	C	0.585400	0.046980	0.526785
C305	C	0.918733	0.380313	0.860118
C306	C	1.252067	0.713646	1.193451
C307	C	0.581574	0.050816	0.648706
C308	C	0.914908	0.384150	0.982039
C309	C	1.248241	0.717483	1.315373
C310	C	0.559475	0.072966	0.351510
C311	C	0.892808	0.406300	0.684843
C312	C	1.226141	0.739633	1.018177
H313	H	0.321288	0.144532	0.000075
H314	H	0.654622	0.477865	0.333409
H315	H	0.987955	0.811199	0.666742
H316	H	0.527309	0.105214	0.519335
H317	H	0.860642	0.438547	0.852668
H318	H	1.193976	0.771880	1.186002
H319	H	0.654087	-0.095890	0.000172
H320	H	0.987421	0.237443	0.333506
H321	H	1.320754	0.570776	0.666839
F322	F	0.622590	0.009985	0.466797
F323	F	0.955923	0.343319	0.800130
F324	F	1.289257	0.676652	1.133463
F325	F	0.417523	0.156541	0.000036
F326	F	0.750856	0.489874	0.333370
F327	F	1.084190	0.823208	0.666703
F328	F	0.705365	-0.480341	0.000113
F329	F	1.038698	-0.147008	0.333447
F330	F	1.372031	0.186326	0.666780
H331	H	0.647843	-0.710947	0.000102
H332	H	0.981176	-0.377613	0.333435
H333	H	1.314510	-0.044280	0.666769
F334	F	0.704301	-0.584407	0.000104
F335	F	1.037634	-0.251074	0.333438
F336	F	1.370967	0.082260	0.666771
F337	F	0.442648	-0.025446	0.000111
F338	F	0.775981	0.307887	0.333444
F339	F	1.109315	0.641220	0.666777
F340	F	0.434160	-0.547106	0.000026
F341	F	0.767493	-0.213773	0.333359
F342	F	1.100826	0.119560	0.666692
H343	H	0.023511	0.185646	0.000089
H344	H	0.356845	0.518979	0.333423
H345	H	0.690178	0.852313	0.666756
F346	F	0.706901	-0.329105	0.000126
F347	F	1.040235	0.004229	0.333459
F348	F	1.373568	0.337562	0.666792
F349	F	0.216827	-0.071880	0.000198
F350	F	0.550161	0.261453	0.333531
F351	F	0.883494	0.594787	0.666865
F352	F	0.075477	0.197212	0.000076
F353	F	0.408811	0.530545	0.333409
F354	F	0.742144	0.863878	0.666742
F355	F	0.179528	0.198268	0.000062
F356	F	0.512861	0.531602	0.333396
F357	F	0.846195	0.864935	0.666729
F358	F	-0.197534	0.150296	0.000093
F359	F	0.135800	0.483630	0.333426
F360	F	0.469133	0.816963	0.666759
H361	H	0.694885	-0.425332	0.000121
H362	H	1.028219	-0.091999	0.333455
H363	H	1.361552	0.241334	0.666788
H364	H	-0.293780	0.138276	0.000111
H365	H	0.039553	0.471610	0.333444
H366	H	0.372886	0.804943	0.666777
F367	F	-0.276472	-0.032756	0.000147
F368	F	0.056861	0.300577	0.333480
F369	F	0.390195	0.633911	0.666813
F370	F	-0.075775	0.195668	0.000095
F371	F	0.257559	0.529002	0.333429
F372	F	0.590892	0.862335	0.666762
H373	H	-0.180242	-0.020742	0.000166
H374	H	0.153092	0.312592	0.333499
H375	H	0.486425	0.645925	0.666832
H376	H	0.117552	-0.061855	0.000189
H377	H	0.450886	0.271478	0.333523
H378	H	0.784219	0.604811	0.666856
H379	H	0.343357	-0.015423	0.000105
H380	H	0.676690	0.317911	0.333438
H381	H	1.010023	0.651244	0.666772
H382	H	-0.033694	-0.063386	0.000182
H383	H	0.299640	0.269947	0.333515
H384	H	0.632973	0.603280	0.666849
F385	F	0.065578	-0.073414	0.000181
F386	F	0.398911	0.259919	0.333514
F387	F	0.732244	0.593253	0.666848
H388	H	0.646909	-0.802413	0.000087
H389	H	0.980242	-0.469079	0.333420
H390	H	1.313575	-0.135746	0.666753
F391	F	0.664122	-0.195167	0.000141
F392	F	0.997455	0.138167	0.333474
F393	F	1.330789	0.471500	0.666807
H394	H	0.486962	-0.780324	0.000060
H395	H	0.820296	-0.446990	0.333393
H396	H	1.153629	-0.113657	0.666726
F397	F	0.435690	-0.395859	0.000020
F398	F	0.769023	-0.062526	0.333354
F399	F	1.102357	0.270808	0.666687
F400	F	0.476932	-0.681050	0.000038
F401	F	0.810266	-0.347717	0.333371
F402	F	1.143599	-0.014384	0.666704
H403	H	0.447709	-0.299628	0.000029
H404	H	0.781042	0.033705	0.333363
H405	H	1.114376	0.367038	0.666696
H406	H	0.494142	-0.073808	0.000122
H407	H	0.827476	0.259525	0.333456
H408	H	1.160809	0.592859	0.666789
F409	F	0.482124	-0.170057	0.000115
F410	F	0.815457	0.163276	0.333449
F411	F	1.148790	0.496610	0.666782
H412	H	0.446176	-0.450877	0.000039
H413	H	0.779509	-0.117544	0.333372
H414	H	1.112842	0.215789	0.666706
