data_functionalizedCrystal
_audit_creation_method	'MofGen! by Chris Wilmer'
_symmetry_space_group_name_H-M	'P1'
_symmetry_Int_Tables_number	1
_symmetry_cell_setting	triclinic
loop_
_symmetry_equiv_pos_as_xyz
  x,y,z
_cell_length_a	16.959455
_cell_length_b	16.959453
_cell_length_c	16.959447
_cell_angle_alpha	90.028432
_cell_angle_beta	90.015720
_cell_angle_gamma	90.024590
loop_
_atom_site_label
_atom_site_type_symbol
_atom_site_fract_x
_atom_site_fract_y
_atom_site_fract_z
Zn1	Zn	-1.208351	0.314695	-0.446949
Zn2	Zn	-0.708351	0.814695	0.053051
Zn3	Zn	-1.208260	0.446888	-0.314774
Zn4	Zn	-0.708260	0.946888	0.185226
Zn5	Zn	-1.076180	0.314724	-0.314783
Zn6	Zn	-0.576180	0.814724	0.185217
Zn7	Zn	-1.076131	0.446832	-0.446910
Zn8	Zn	-0.576131	0.946832	0.053090
O9	O	-1.142231	0.380785	-0.380854
O10	O	-0.642231	0.880785	0.119146
O11	O	-1.318950	0.332242	-0.429428
O12	O	-0.818950	0.832242	0.070572
O13	O	-1.190722	0.429391	-0.204165
O14	O	-0.690722	0.929391	0.295835
O15	O	-1.093771	0.204109	-0.332335
O16	O	-0.593771	0.704109	0.167665
O17	O	-1.318883	0.429363	-0.332320
O18	O	-0.818883	0.929363	0.167680
O19	O	-1.190877	0.204088	-0.429436
O20	O	-0.690877	0.704088	0.070564
O21	O	-1.093683	0.332291	-0.204171
O22	O	-0.593683	0.832291	0.295829
O23	O	-0.965562	0.332237	-0.332297
O24	O	-0.465562	0.832237	0.167703
O25	O	-1.093688	0.429269	-0.557526
O26	O	-0.593688	0.929269	-0.057526
O27	O	-0.965527	0.429297	-0.429370
O28	O	-0.465527	0.929297	0.070630
O29	O	-1.190830	0.332188	-0.557554
O30	O	-0.690830	0.832188	-0.057554
O31	O	-1.190674	0.557491	-0.332283
O32	O	-0.690674	1.057491	0.167717
O33	O	-1.093600	0.557451	-0.429362
O34	O	-0.593600	1.057451	0.070638
C35	C	-0.936864	0.380765	-0.380831
C36	C	-0.436864	0.880765	0.119169
C37	C	-0.849008	0.380775	-0.380840
C38	C	-0.349008	0.880775	0.119160
C39	C	-0.807697	0.431269	-0.330207
C40	C	-0.307697	0.931269	0.169793
C41	C	-0.807765	0.330286	-0.431477
C42	C	-0.307765	0.830286	0.068523
C43	C	-0.725219	0.330291	-0.431485
C44	C	-0.225219	0.830291	0.068515
C45	C	-0.683908	0.380785	-0.380852
C46	C	-0.183908	0.880785	0.119148
C47	C	-0.725143	0.431274	-0.330212
C48	C	-0.225143	0.931274	0.169788
C49	C	-0.683978	0.279798	-0.482118
C50	C	-0.183978	0.779798	0.017882
C51	C	-0.601427	0.279800	-0.482128
C52	C	-0.101427	0.779800	0.017872
C53	C	-0.560115	0.330299	-0.431499
C54	C	-0.060115	0.830299	0.068501
C55	C	-0.601355	0.380790	-0.380857
C56	C	-0.101355	0.880790	0.119143
C57	C	-0.560044	0.431284	-0.330225
C58	C	-0.060044	0.931284	0.169775
C59	C	-0.601283	0.481780	-0.279587
C60	C	-0.101283	0.981780	0.220413
C61	C	-0.683831	0.481773	-0.279583
C62	C	-0.183831	0.981773	0.220417
C63	C	-0.477566	0.330306	-0.431502
C64	C	0.022434	0.830306	0.068498
C65	C	-0.477491	0.431289	-0.330230
C66	C	0.022509	0.931289	0.169770
C67	C	-1.142143	0.586151	-0.380834
C68	C	-0.642143	1.086151	0.119166
C69	C	-1.142178	0.674008	-0.380852
C70	C	-0.642178	1.174008	0.119148
C71	C	-0.348399	0.380802	-0.380873
C72	C	0.151601	0.880802	0.119127
C73	C	-0.436255	0.380800	-0.380870
C74	C	0.063745	0.880800	0.119130
C75	C	-1.091610	0.715290	-0.431363
C76	C	-0.591610	1.215290	0.068637
C77	C	-1.192784	0.715279	-0.330363
C78	C	-0.692784	1.215279	0.169637
C79	C	-1.192821	0.797825	-0.330381
C80	C	-0.692821	1.297825	0.169619
C81	C	-1.142253	0.839107	-0.380892
C82	C	-0.642253	1.339107	0.119108
C83	C	-1.091648	0.797843	-0.431385
C84	C	-0.591648	1.297843	0.068615
C85	C	-1.243432	0.839095	-0.279895
C86	C	-0.743432	1.339095	0.220105
C87	C	-1.243472	0.921646	-0.279912
C88	C	-0.743472	1.421646	0.220088
C89	C	-1.192899	0.962930	-0.330419
C90	C	-0.692899	1.462930	0.169581
C91	C	-1.142291	0.921661	-0.380913
C92	C	-0.642291	1.421661	0.119087
C93	C	-1.091723	0.962942	-0.431424
C94	C	-0.591723	1.462942	0.068576
C95	C	-1.041110	0.921675	-0.481915
C96	C	-0.541110	1.421675	0.018085
C97	C	-1.041075	0.839126	-0.481892
C98	C	-0.541075	1.339126	0.018108
C99	C	-1.192934	1.045478	-0.330442
C100	C	-0.692934	1.545478	0.169558
C101	C	-1.091761	1.045496	-0.431446
C102	C	-0.591761	1.545496	0.068554
C103	C	-1.142263	0.380719	-0.587022
C104	C	-0.642263	0.880719	-0.087022
C105	C	-1.142278	0.380691	-0.674879
C106	C	-0.642278	0.880691	-0.174879
C107	C	-1.142335	1.174617	-0.380902
C108	C	-0.642335	1.674617	0.119098
C109	C	-1.142366	1.086760	-0.380953
C110	C	-0.642366	1.586760	0.119047
C111	C	-1.091795	0.431153	-1.046342
C112	C	-0.591795	0.931153	-0.546342
C113	C	-1.192949	0.330063	-1.046367
C114	C	-0.692949	0.830063	-0.546367
C115	C	-1.192928	0.330079	-0.963821
C116	C	-0.692928	0.830079	-0.463821
C117	C	-1.142340	0.380635	-0.922532
C118	C	-0.642340	0.880635	-0.422532
C119	C	-1.091774	0.431173	-0.963789
C120	C	-0.591774	0.931173	-0.463789
C121	C	-1.243500	0.279547	-0.922558
C122	C	-0.743500	0.779547	-0.422558
C123	C	-1.243481	0.279563	-0.840007
C124	C	-0.743481	0.779563	-0.340007
C125	C	-1.192889	0.330115	-0.798717
C126	C	-0.692889	0.830115	-0.298717
C127	C	-1.142319	0.380655	-0.839978
C128	C	-0.642319	0.880655	-0.339978
C129	C	-1.091732	0.431210	-0.798689
C130	C	-0.591732	0.931210	-0.298689
C131	C	-1.041158	0.481747	-0.839949
C132	C	-0.541158	0.981747	-0.339949
C133	C	-1.041181	0.481725	-0.922498
C134	C	-0.541181	0.981725	-0.422498
C135	C	-1.192865	0.330136	-0.716168
C136	C	-0.692865	0.830136	-0.216168
C137	C	-1.091711	0.431230	-0.716136
C138	C	-0.591711	0.931230	-0.216136
C139	C	-1.142243	0.380793	-0.175488
C140	C	-0.642243	0.880793	0.324512
C141	C	-1.142382	0.380598	-0.087631
C142	C	-0.642382	0.880598	0.412369
H143	H	-0.717415	0.522882	-0.238354
H144	H	-0.217415	1.022882	0.261646
H145	H	-0.717619	0.238685	-0.523337
H146	H	-0.217619	0.738685	-0.023337
H147	H	-1.234140	0.288907	-1.079990
H148	H	-0.734140	0.788907	-0.579990
H149	H	-0.999868	0.805521	-0.523001
H150	H	-0.499868	1.305521	-0.023001
H151	H	-1.284690	0.238393	-0.956182
H152	H	-0.784690	0.738393	-0.456182
Cl153	Cl	-1.028217	0.494680	-1.098209
Cl154	Cl	-0.528217	0.994680	-0.598209
H155	H	-1.284607	0.805481	-0.238774
H156	H	-0.784607	1.305481	0.261226
H157	H	-0.841277	0.472384	-0.288981
H158	H	-0.341277	0.972384	0.211019
H159	H	-0.443861	0.472411	-0.289001
H160	H	0.056139	0.972411	0.210999
Cl161	Cl	-0.425727	0.266825	-0.495150
Cl162	Cl	0.074273	0.766825	0.004850
Cl163	Cl	-0.549591	0.216325	-0.545790
Cl164	Cl	-0.049591	0.716325	-0.045790
H165	H	-0.841405	0.289173	-0.472695
H166	H	-0.341405	0.789173	0.027305
Cl167	Cl	-1.256561	1.097354	-0.266978
Cl168	Cl	-0.756561	1.597354	0.233022
H169	H	-1.050581	1.079102	-0.472578
H170	H	-0.550581	1.579102	0.027422
Cl171	Cl	-1.307056	0.216029	-0.788145
Cl172	Cl	-0.807056	0.716029	-0.288145
Cl173	Cl	-0.977547	0.973582	-0.545417
Cl174	Cl	-0.477547	1.473582	-0.045417
Cl175	Cl	-1.256444	0.266615	-0.664302
Cl176	Cl	-0.756444	0.766615	-0.164302
H177	H	-1.050399	0.681687	-0.472470
H178	H	-0.550399	1.181687	0.027530
Cl179	Cl	-1.256358	0.663381	-0.266874
Cl180	Cl	-0.756358	1.163381	0.233126
H181	H	-0.567637	0.522889	-0.238359
H182	H	-0.067637	1.022889	0.261641
Cl183	Cl	-1.307096	0.973518	-0.216437
Cl184	Cl	-0.807096	1.473518	0.283563
Cl185	Cl	-0.977613	0.545255	-0.974372
Cl186	Cl	-0.477613	1.045255	-0.474372
H187	H	-0.999973	0.522912	-0.806321
H188	H	-0.499973	1.022912	-0.306321
Cl189	Cl	-1.028106	0.494785	-0.664236
Cl190	Cl	-0.528106	0.994785	-0.164236
