data_functionalizedCrystal
_audit_creation_method	'MofGen! by Chris Wilmer'
_symmetry_space_group_name_H-M	'P1'
_symmetry_Int_Tables_number	1
_symmetry_cell_setting	triclinic
loop_
_symmetry_equiv_pos_as_xyz
  x,y,z
_cell_length_a	15.625950
_cell_length_b	19.188925
_cell_length_c	14.750779
_cell_angle_alpha	77.401762
_cell_angle_beta	120.090508
_cell_angle_gamma	83.720912
loop_
_atom_site_label
_atom_site_type_symbol
_atom_site_fract_x
_atom_site_fract_y
_atom_site_fract_z
O1	O	1.286118	0.021527	0.367715
O2	O	1.786118	0.521527	0.867715
O3	O	0.999070	0.051303	0.267827
O4	O	1.499070	0.551303	0.767827
O5	O	1.150882	-0.065763	0.320661
O6	O	1.650882	0.434237	0.820661
O7	O	1.134306	0.138593	0.314882
O8	O	1.634306	0.638593	0.814882
O9	O	1.193797	-0.098853	0.495246
O10	O	1.693797	0.401147	0.995246
O11	O	1.041986	0.018213	0.442413
O12	O	1.541986	0.518213	0.942413
O13	O	1.329033	-0.011563	0.542301
O14	O	1.829033	0.488437	1.042301
Zn15	Zn	1.192323	-0.001929	0.520076
Zn16	Zn	1.692323	0.498071	1.020076
Zn17	Zn	1.135780	0.041669	0.290052
Zn18	Zn	1.635780	0.541669	0.790052
O19	O	1.177221	0.105503	0.489467
O20	O	1.677221	0.605503	0.989467
C21	C	0.983804	0.036686	0.342341
C22	C	1.483804	0.536686	0.842341
C23	C	0.874379	0.042423	0.304263
C24	C	1.374379	0.542423	0.804263
C25	C	0.631332	-0.028832	0.654732
C26	C	1.131332	0.471168	1.154732
C27	C	0.528496	-0.023418	0.618903
C28	C	1.028496	0.476582	1.118903
C29	C	0.481763	0.012653	0.428594
C30	C	0.981763	0.512653	0.928594
C31	C	0.584596	0.007245	0.464408
C32	C	1.084596	0.507245	0.964408
C33	C	0.659374	-0.013498	0.577478
C34	C	1.159374	0.486502	1.077478
C35	C	0.612638	0.022579	0.387153
C36	C	1.112638	0.522579	0.887153
C37	C	0.715464	0.017168	0.422965
C38	C	1.215464	0.517168	0.922965
C39	C	0.790247	-0.003576	0.536030
C40	C	1.290247	0.496424	1.036030
C41	C	0.762200	-0.018909	0.613289
C42	C	1.262200	0.481091	1.113289
C43	C	0.537860	0.043317	0.274084
C44	C	1.037860	0.543317	0.774084
C45	C	0.565901	0.058651	0.196829
C46	C	1.065901	0.558651	0.696829
C47	C	0.668728	0.053245	0.232640
C48	C	1.168728	0.553245	0.732640
C49	C	0.743511	0.032501	0.345706
C50	C	1.243511	0.532501	0.845706
C51	C	0.696775	0.068578	0.155381
C52	C	1.196775	0.568578	0.655381
C53	C	0.799601	0.063167	0.191192
C54	C	1.299601	0.563167	0.691192
C55	C	0.846337	0.027090	0.381517
C56	C	1.346337	0.527090	0.881517
C57	C	1.171804	-0.108285	0.407766
C58	C	1.671804	0.391715	0.907766
C59	C	1.170195	-0.185688	0.407204
C60	C	1.670195	0.314312	0.907204
C61	C	1.248496	-0.752375	0.434428
C62	C	1.748496	-0.252375	0.934428
C63	C	1.250018	-0.679650	0.434966
C64	C	1.750018	-0.179650	0.934966
C65	C	1.160940	-0.629116	0.403968
C66	C	1.660940	-0.129116	0.903968
C67	C	1.070341	-0.651319	0.372457
C68	C	1.570341	-0.151319	0.872457
C69	C	1.068824	-0.724046	0.371930
C70	C	1.568824	-0.224046	0.871930
N71	N	1.081845	-0.493119	0.322103
N72	N	1.581845	0.006881	0.822103
N73	N	1.083292	-0.424032	0.322603
N74	N	1.583292	0.075968	0.822603
C75	C	1.165506	-0.409994	0.405556
C76	C	1.665506	0.090006	0.905556
N77	N	1.246232	-0.467652	0.487982
N78	N	1.746232	0.032348	0.987982
N79	N	1.244786	-0.536745	0.487478
N80	N	1.744786	-0.036745	0.987478
C81	C	1.162576	-0.550255	0.404537
C82	C	1.662576	-0.050255	0.904537
C83	C	1.257752	-0.308943	0.437657
C84	C	1.757752	0.191057	0.937657
C85	C	1.259273	-0.236216	0.438201
C86	C	1.759273	0.263784	0.938201
C87	C	1.079590	-0.207885	0.375680
C88	C	1.579590	0.292115	0.875680
C89	C	1.078076	-0.280612	0.375148
C90	C	1.578076	0.219388	0.875148
C91	C	1.167158	-0.331136	0.406132
C92	C	1.667158	0.168864	0.906132
C93	C	1.344299	0.003054	0.467785
C94	C	1.844299	0.503054	0.967785
C95	C	1.453722	-0.002682	0.505856
C96	C	1.953722	0.497318	1.005856
C97	C	1.156299	0.148026	0.402359
C98	C	1.656299	0.648026	0.902359
C99	C	1.157906	0.225430	0.402914
C100	C	1.657906	0.725430	0.902914
N101	N	1.230919	-0.031684	0.677064
N102	N	1.730919	0.468316	1.177064
N103	N	1.097192	0.071418	0.133067
N104	N	1.597192	0.571418	0.633067
C105	C	0.989399	0.154488	0.944828
C106	C	1.489399	0.654488	1.444828
C107	C	1.016452	0.133642	1.054742
C108	C	1.516452	0.633642	1.554742
C109	C	1.150908	0.030013	1.101499
C110	C	1.650908	0.530013	1.601499
C111	C	1.123863	0.050848	0.991585
C112	C	1.623863	0.550848	1.491585
C113	C	1.043109	0.113087	0.913258
C114	C	1.543109	0.613087	1.413258
C115	C	1.177573	0.009447	0.960015
C116	C	1.677573	0.509447	1.460015
C117	C	1.150534	0.030284	0.850112
C118	C	1.650534	0.530284	1.350112
C119	C	1.069784	0.092521	0.771780
C120	C	1.569784	0.592521	1.271780
C121	C	1.016069	0.133923	0.803355
C122	C	1.516069	0.633923	1.303355
C123	C	1.258332	-0.052788	1.038346
C124	C	1.758332	0.447212	1.538346
C125	C	1.312042	-0.094189	1.006775
C126	C	1.812042	0.405811	1.506775
C127	C	1.284998	-0.073356	0.896869
C128	C	1.784998	0.426644	1.396869
C129	C	1.204249	-0.011119	0.818537
C130	C	1.704249	0.488881	1.318537
C131	C	1.338713	-0.114758	0.865294
C132	C	1.838713	0.385242	1.365294
C133	C	1.311674	-0.093922	0.755391
C134	C	1.811674	0.406078	1.255391
C135	C	1.177209	0.009717	0.708634
C136	C	1.677209	0.509717	1.208634
H137	H	0.692220	-0.045712	0.746805
H138	H	1.192220	0.454288	1.246805
Cl139	Cl	0.964183	-0.308513	0.335519
Cl140	Cl	1.464183	0.191487	0.835519
Cl141	Cl	0.967609	-0.144366	0.336725
Cl142	Cl	1.467609	0.355634	0.836725
H143	H	1.321035	-0.793510	0.459664
H144	H	1.821035	-0.293510	0.959664
Cl145	Cl	1.440240	-0.192992	0.963774
Cl146	Cl	1.940240	0.307008	1.463774
H147	H	1.333046	-0.218150	0.463870
H148	H	1.833046	0.281850	0.963870
H149	H	0.972708	0.167362	1.080437
H150	H	1.472708	0.667362	1.580437
Cl151	Cl	0.887866	0.232726	0.846351
Cl152	Cl	1.387866	0.732726	1.346351
H153	H	1.323789	-0.661575	0.460629
H154	H	1.823789	-0.161575	0.960629
Cl155	Cl	0.919517	-0.010385	0.581054
Cl156	Cl	1.419517	0.489615	1.081054
H157	H	1.377796	-0.144863	1.070562
H158	H	1.877796	0.355137	1.570562
Cl159	Cl	1.075676	0.087956	0.610157
Cl160	Cl	1.575676	0.587956	1.110157
Cl161	Cl	0.387753	0.038706	0.286455
Cl162	Cl	0.887753	0.538706	0.786455
Cl163	Cl	1.379200	-0.145969	0.715703
Cl164	Cl	1.879200	0.354031	1.215703
Cl165	Cl	0.834858	0.082442	0.094072
Cl166	Cl	1.334858	0.582442	0.594072
Cl167	Cl	1.252428	-0.048226	1.199973
Cl168	Cl	1.752428	0.451774	1.699973
Cl169	Cl	0.954930	-0.751948	0.332307
Cl170	Cl	1.454930	-0.251948	0.832307
Cl171	Cl	1.035795	0.118718	0.633616
Cl172	Cl	1.535795	0.618718	1.133616
Cl173	Cl	0.958359	-0.587793	0.333493
Cl174	Cl	1.458359	-0.087793	0.833493
H175	H	1.330289	-0.350082	0.462887
H176	H	1.830289	0.149918	0.962887
H177	H	0.950304	0.184599	0.739574
H178	H	1.450304	0.684599	1.239574
Cl179	Cl	0.856213	-0.044978	0.755437
Cl180	Cl	1.356213	0.455022	1.255437
Cl181	Cl	1.292326	-0.078976	1.176511
Cl182	Cl	1.792326	0.421024	1.676511
H183	H	0.907225	0.010209	0.473589
H184	H	1.407225	0.510209	0.973589
H185	H	0.454133	0.047726	0.244930
H186	H	0.954133	0.547726	0.744930
Cl187	Cl	0.493252	-0.042710	0.716037
Cl188	Cl	0.993252	0.457290	1.216037
H189	H	0.505005	0.075537	0.104767
H190	H	1.005005	0.575537	0.604767
H191	H	0.635878	0.085460	0.063319
H192	H	1.135878	0.585460	0.563319
