data_functionalizedCrystal
_audit_creation_method	'MofGen! by Chris Wilmer'
_symmetry_space_group_name_H-M	'P1'
_symmetry_Int_Tables_number	1
_symmetry_cell_setting	triclinic
loop_
_symmetry_equiv_pos_as_xyz
  x,y,z
_cell_length_a	19.188925
_cell_length_b	19.188930
_cell_length_c	18.266242
_cell_angle_alpha	90.011475
_cell_angle_beta	89.990012
_cell_angle_gamma	96.856335
loop_
_atom_site_label
_atom_site_type_symbol
_atom_site_fract_x
_atom_site_fract_y
_atom_site_fract_z
O1	O	0.926152	-0.087151	-0.060905
O2	O	0.722840	-0.098889	-0.060904
O3	O	0.830363	0.008636	-0.060890
O4	O	0.818629	-0.194675	-0.060919
O5	O	0.830345	0.008642	0.060872
O6	O	0.722822	-0.098883	0.060858
O7	O	0.926133	-0.087145	0.060857
Zn8	Zn	0.824475	-0.093013	0.080190
Zn9	Zn	0.824499	-0.093021	-0.080237
O10	O	0.818610	-0.194670	0.060843
C11	C	0.696820	-0.098507	-0.000023
C12	C	0.619315	-0.097367	-0.000022
C13	C	0.057545	-0.152831	-0.000031
C14	C	0.130368	-0.153908	-0.000035
C15	C	0.175302	-0.090816	-0.000025
C16	C	0.147408	-0.026642	-0.000030
C17	C	0.074586	-0.025568	-0.000033
N18	N	0.295973	-0.045138	0.041430
N19	N	0.365151	-0.046163	0.041435
C20	C	0.394712	-0.094050	-0.000017
N21	N	0.352480	-0.140883	-0.041464
N22	N	0.283296	-0.139860	-0.041465
C23	C	0.254267	-0.091974	-0.000022
C24	C	0.501561	-0.159386	-0.000022
C25	C	0.574385	-0.160460	-0.000031
C26	C	0.591425	-0.033193	-0.000018
C27	C	0.518601	-0.032121	-0.000016
C28	C	0.473673	-0.095220	-0.000015
C29	C	0.829974	0.034650	-0.000007
C30	C	0.828833	0.112154	-0.000001
C31	C	0.952154	-0.087527	-0.000026
C32	C	1.029658	-0.088666	-0.000032
C33	C	0.819000	-0.220684	-0.000041
C34	C	0.820140	-0.298188	-0.000053
N35	N	0.824463	-0.093008	0.189677
C36	C	0.891924	0.157079	0.000002
C37	C	0.890852	0.229903	-0.000009
C38	C	0.826686	0.257799	-0.000010
C39	C	0.763587	0.212864	-0.000017
C40	C	0.764660	0.140041	-0.000012
N41	N	0.777633	0.365805	0.041429
N42	N	0.776617	0.434983	0.041426
C43	C	0.823448	0.477207	-0.000024
N44	N	0.871343	0.447641	-0.041463
N45	N	0.872361	0.378456	-0.041457
C46	C	0.825515	0.336761	-0.000015
C47	C	0.885381	0.601097	-0.000035
C48	C	0.884307	0.673922	-0.000051
C49	C	0.757040	0.656880	-0.000051
C50	C	0.758116	0.584057	-0.000042
C51	C	0.822289	0.556170	-0.000031
N52	N	0.824515	-0.093020	-0.189724
C53	C	0.872090	-0.045419	0.227992
C54	C	0.872095	-0.045416	0.304637
C55	C	0.824479	-0.093013	0.342964
C56	C	0.776843	-0.140606	0.304639
C57	C	0.776836	-0.140603	0.227996
N58	N	0.815403	-0.154821	0.463287
N59	N	0.815415	-0.154821	0.536096
C60	C	0.824499	-0.093024	0.573886
N61	N	0.833584	-0.031223	0.536118
N62	N	0.833576	-0.031223	0.463303
C63	C	0.824482	-0.093021	0.426071
C64	C	0.872133	-0.045427	0.695308
C65	C	0.872132	-0.045423	0.771955
C66	C	0.776884	-0.140619	0.771956
C67	C	0.776881	-0.140617	0.695311
C68	C	0.824509	-0.093022	0.656992
H69	H	0.628010	0.018178	-0.000015
H70	H	0.183999	0.024728	-0.000023
H71	H	0.944179	0.134379	0.000009
C72	C	0.160791	-0.223505	-0.000062
C73	C	0.234182	-0.210939	-0.000073
C74	C	0.262229	-0.275034	-0.000104
H75	H	0.145424	-0.249516	0.042389
H76	H	0.145407	-0.249493	-0.042539
H77	H	0.249559	-0.184962	0.042399
H78	H	0.249568	-0.184938	-0.042521
H79	H	0.246845	-0.301022	-0.042581
H80	H	0.246857	-0.301040	0.042348
H81	H	0.312027	-0.266517	-0.000118
H82	H	0.942230	0.266488	-0.000010
C83	C	0.923651	0.006261	0.186219
C84	C	0.966303	-0.030649	0.142050
C85	C	1.013713	0.016987	0.103506
H86	H	0.898472	0.035154	0.156370
H87	H	0.952070	0.034713	0.219889
H88	H	0.937888	-0.059089	0.108384
H89	H	0.991497	-0.059539	0.171881
H90	H	1.042132	0.045439	0.137176
H91	H	0.988528	0.045878	0.073660
H92	H	1.042662	-0.008049	0.073537
H93	H	0.711342	0.235581	-0.000019
H94	H	0.704794	0.679592	-0.000055
H95	H	0.495896	0.020129	-0.000012
C96	C	0.696082	0.091376	0.000026
C97	C	0.639656	0.131388	0.000038
C98	C	0.576471	0.086581	0.000085
H99	H	0.693764	0.062586	-0.042420
H100	H	0.693811	0.062637	0.042508
H101	H	0.641926	0.160116	-0.042439
H102	H	0.641951	0.160177	0.042481
H103	H	0.574200	0.057841	0.042567
H104	H	0.574160	0.057793	-0.042362
H105	H	0.538179	0.113722	0.000100
C106	C	0.955123	0.570949	-0.000074
C107	C	1.010148	0.625884	-0.000104
C108	C	1.074403	0.598141	-0.000154
H109	H	0.958286	0.542916	0.042376
H110	H	0.958226	0.542905	-0.042551
H111	H	1.007047	0.653916	0.042369
H112	H	1.007009	0.653921	-0.042552
H113	H	1.077506	0.570097	-0.042630
H114	H	1.077559	0.570108	0.042298
H115	H	1.111746	0.635409	-0.000180
C116	C	0.452892	-0.227965	-0.000070
C117	C	0.492905	-0.284391	-0.000099
C118	C	0.448098	-0.347576	-0.000155
H119	H	0.424106	-0.230291	0.042378
H120	H	0.424148	-0.230230	-0.042549
H121	H	0.521637	-0.282128	0.042376
H122	H	0.521689	-0.282088	-0.042544
H123	H	0.419354	-0.349840	-0.042634
H124	H	0.419314	-0.349895	0.042294
H125	H	0.475240	-0.385868	-0.000181
H126	H	0.935686	0.710500	-0.000053
H127	H	0.706740	0.547478	-0.000041
C128	C	0.923881	0.006290	0.346115
C129	C	0.965597	0.047963	0.296152
C130	C	1.013314	0.095597	0.334333
H131	H	0.898939	0.035356	0.376030
H132	H	0.952906	-0.018739	0.375985
H133	H	0.936576	0.072990	0.266295
H134	H	0.990555	0.018916	0.266236
H135	H	1.042338	0.070569	0.364202
H136	H	0.988365	0.124659	0.364247
H137	H	1.041627	0.123874	0.300439
C138	C	0.725225	-0.192253	0.346380
C139	C	0.735438	-0.182084	0.421703
C140	C	0.687902	-0.229655	0.460176
H141	H	0.678620	-0.184831	0.333926
H142	H	0.732666	-0.238848	0.333846
H143	H	0.727991	-0.135501	0.434232
H144	H	0.782033	-0.189512	0.434179
H145	H	0.695343	-0.276249	0.447642
H146	H	0.641301	-0.222229	0.447716
H147	H	0.694830	-0.222766	0.511286
H148	H	0.051883	0.026685	-0.000033
C149	C	0.725096	-0.192356	0.186525
C150	C	0.683404	-0.234051	0.236490
C151	C	0.635742	-0.281741	0.198312
H152	H	0.696043	-0.167393	0.156635
H153	H	0.750102	-0.221397	0.156630
H154	H	0.658400	-0.205014	0.266372
H155	H	0.712438	-0.259029	0.266381
H156	H	0.660748	-0.310782	0.168417
H157	H	0.606694	-0.256772	0.168424
H158	H	0.607453	-0.310041	0.232207
C159	C	0.923866	0.006329	0.653831
C160	C	0.965561	0.048025	0.703795
C161	C	1.013218	0.095718	0.665615
H162	H	0.952916	-0.018632	0.623916
H163	H	0.898855	0.035370	0.623961
H164	H	0.990569	0.018989	0.733652
H165	H	0.936529	0.073002	0.733711
H166	H	0.988207	0.124758	0.635745
H167	H	1.042263	0.070751	0.635702
H168	H	1.041509	0.124018	0.699509
H169	H	0.910914	-0.006667	0.803151
H170	H	0.597088	-0.212713	-0.000036
C171	C	0.725150	-0.192185	0.813651
C172	C	0.682543	-0.155099	0.857686
C173	C	0.634880	-0.202577	0.896117
H174	H	0.696717	-0.220550	0.779935
H175	H	0.750157	-0.221180	0.843579
H176	H	0.657538	-0.126117	0.827761
H177	H	0.710956	-0.126737	0.891416
H178	H	0.659887	-0.231571	0.926044
H179	H	0.606452	-0.230939	0.862395
H180	H	0.605970	-0.177421	0.926004
C181	C	0.725257	-0.192407	0.653748
C182	C	0.736383	-0.260989	0.672358
C183	C	0.688842	-0.308717	0.634079
H184	H	0.678655	-0.185036	0.666293
H185	H	0.732074	-0.185638	0.602606
H186	H	0.729561	-0.267755	0.723489
H187	H	0.782975	-0.268382	0.659812
H188	H	0.695659	-0.301948	0.582937
H189	H	0.642244	-0.301340	0.646627
H190	H	0.696389	-0.355256	0.646696
H191	H	0.020968	-0.204211	-0.000034
