data_functionalizedCrystal
_audit_creation_method	'MofGen! by Chris Wilmer'
_symmetry_space_group_name_H-M	'P1'
_symmetry_Int_Tables_number	1
_symmetry_cell_setting	triclinic
loop_
_symmetry_equiv_pos_as_xyz
  x,y,z
_cell_length_a	6.817900
_cell_length_b	9.514072
_cell_length_c	14.651978
_cell_angle_alpha	84.463311
_cell_angle_beta	85.105845
_cell_angle_gamma	118.843421
loop_
_atom_site_label
_atom_site_type_symbol
_atom_site_fract_x
_atom_site_fract_y
_atom_site_fract_z
V1	V	-4.016743	-0.222730	0.286370
O2	O	-3.917524	0.010164	0.280180
O3	O	-4.051927	-0.441117	0.285122
O4	O	-3.925832	-0.219541	0.410942
O5	O	-4.044492	-0.212947	0.153489
V6	V	-4.495048	-0.194845	0.270390
O7	O	-4.289446	-0.283897	0.321424
O8	O	-4.672543	-0.133678	0.235337
O9	O	-4.236657	0.023542	0.271639
O10	O	-4.711664	-0.427739	0.276580
O11	O	-4.584696	-0.204628	0.403271
O12	O	-4.362752	-0.198035	0.145819
C13	C	-3.918637	-0.494348	0.280788
C14	C	-4.028408	-0.672884	0.280598
C15	C	-3.757789	-0.211703	0.441283
C16	C	-3.765296	-0.210540	0.543126
C17	C	-4.194125	-0.205875	0.115473
C18	C	-4.165327	-0.207057	0.011716
V19	V	-3.864414	-0.218096	-0.143197
O20	O	-3.774762	-0.208310	-0.276078
O21	O	-3.996715	-0.214909	-0.018625
O22	O	-4.122799	-0.436485	-0.144446
O23	O	-3.647805	0.014799	-0.149386
V24	V	-3.342699	-0.190200	-0.159175
O25	O	-3.686915	-0.279258	-0.108143
O26	O	-3.069994	-0.129028	-0.194227
O27	O	-3.433606	-0.193391	-0.283747
O28	O	-3.314952	-0.199983	-0.026293
O29	O	-3.441909	-0.423092	-0.152985
O30	O	-3.307523	0.028184	-0.157926
C31	C	-4.033293	0.076764	0.275970
C32	C	-3.902759	0.255299	0.276167
C33	C	-4.326163	-0.489711	-0.148778
C34	C	-4.456692	-0.668245	-0.148974
C35	C	-3.601650	-0.201232	-0.314088
C36	C	-3.594139	-0.202393	-0.415931
C37	C	-3.440815	0.081411	-0.153592
C38	C	-3.331044	0.259946	-0.153398
H39	H	-3.711197	-0.669590	0.272473
H40	H	-4.163190	-0.693827	-0.140876
Cl41	Cl	-4.748789	-0.763639	-0.154861
H42	H	-4.219981	-0.748000	0.284278
H43	H	-3.441869	-0.196322	0.541210
H44	H	-3.917587	-0.216630	0.585991
