data_functionalizedCrystal
_audit_creation_method	'MofGen! by Chris Wilmer'
_symmetry_space_group_name_H-M	'P1'
_symmetry_Int_Tables_number	1
_symmetry_cell_setting	triclinic
loop_
_symmetry_equiv_pos_as_xyz
  x,y,z
_cell_length_a	21.295419
_cell_length_b	21.295416
_cell_length_c	21.295411
_cell_angle_alpha	90.019171
_cell_angle_beta	90.025287
_cell_angle_gamma	90.046890
loop_
_atom_site_label
_atom_site_type_symbol
_atom_site_fract_x
_atom_site_fract_y
_atom_site_fract_z
Zn1	Zn	-0.962356	0.250403	-0.355935
Zn2	Zn	-0.629023	0.583736	-0.022601
Zn3	Zn	-0.295690	0.917069	0.310732
Zn4	Zn	-0.962259	0.355655	-0.250664
Zn5	Zn	-0.628926	0.688988	0.082669
Zn6	Zn	-0.295592	1.022321	0.416002
Zn7	Zn	-0.857080	0.250434	-0.250678
Zn8	Zn	-0.523746	0.583767	0.082655
Zn9	Zn	-0.190413	0.917100	0.415988
Zn10	Zn	-0.857049	0.355669	-0.355895
Zn11	Zn	-0.523716	0.689002	-0.022562
Zn12	Zn	-0.190383	1.022335	0.310772
O13	O	-0.909686	0.303040	-0.303293
O14	O	-0.576353	0.636373	0.030040
O15	O	-0.243019	0.969707	0.363374
O16	O	-1.050433	0.264346	-0.341981
O17	O	-0.717099	0.597679	-0.008648
O18	O	-0.383766	0.931013	0.324686
O19	O	-0.948279	0.341704	-0.162577
O20	O	-0.614945	0.675037	0.170756
O21	O	-0.281612	1.008371	0.504090
O22	O	-0.871098	0.162340	-0.264663
O23	O	-0.537765	0.495674	0.068670
O24	O	-0.204431	0.829007	0.402004
O25	O	-1.050361	0.341674	-0.264640
O26	O	-0.717028	0.675007	0.068694
O27	O	-0.383695	1.008341	0.402027
O28	O	-0.948444	0.162317	-0.341994
O29	O	-0.615111	0.495651	-0.008661
O30	O	-0.281778	0.828984	0.324672
O31	O	-0.871004	0.264399	-0.162587
O32	O	-0.537670	0.597732	0.170746
O33	O	-0.204337	0.931065	0.504080
O34	O	-0.768986	0.264412	-0.264625
O35	O	-0.435653	0.597745	0.068709
O36	O	-0.102319	0.931079	0.402042
O37	O	-0.871046	0.341698	-0.443990
O38	O	-0.537713	0.675031	-0.110656
O39	O	-0.204380	1.008364	0.222677
O40	O	-0.768964	0.341728	-0.341927
O41	O	-0.435631	0.675061	-0.008593
O42	O	-0.102297	1.008394	0.324740
O43	O	-0.948415	0.264359	-0.444019
O44	O	-0.615082	0.597693	-0.110685
O45	O	-0.281748	0.931026	0.222648
O46	O	-0.948249	0.443746	-0.264601
O47	O	-0.614916	0.777079	0.068732
O48	O	-0.281583	1.110413	0.402066
O49	O	-0.870952	0.443756	-0.341913
O50	O	-0.537619	0.777089	-0.008580
O51	O	-0.204285	1.110423	0.324753
C52	C	-0.746134	0.303075	-0.303273
C53	C	-0.412801	0.636408	0.030060
C54	C	-0.079468	0.969742	0.363393
C55	C	-0.676166	0.303105	-0.303280
C56	C	-0.342833	0.636439	0.030054
C57	C	-0.009500	0.969772	0.363387
C58	C	-0.643359	0.262907	-0.343613
C59	C	-0.310026	0.596241	-0.010280
C60	C	0.023307	0.929574	0.323053
C61	C	-0.577617	0.262893	-0.343615
C62	C	-0.244283	0.596226	-0.010281
C63	C	0.089050	0.929559	0.323052
C64	C	-0.544684	0.303087	-0.303289
C65	C	-0.211350	0.636420	0.030044
C66	C	0.121983	0.969753	0.363377
C67	C	-0.577499	0.343288	-0.262948
C68	C	-0.244165	0.676621	0.070385
C69	C	0.089168	1.009954	0.403719
C70	C	-0.643240	0.343297	-0.262943
C71	C	-0.309907	0.676630	0.070390
C72	C	0.023427	1.009963	0.403723
N73	N	-0.441409	0.358167	-0.298371
N74	N	-0.108075	0.691501	0.034963
N75	N	0.225258	1.024834	0.368296
N76	N	-0.378957	0.358157	-0.298379
N77	N	-0.045624	0.691490	0.034954
N78	N	0.287710	1.024823	0.368288
C79	C	-0.346609	0.303060	-0.303301
C80	C	-0.013276	0.636394	0.030033
C81	C	0.320058	0.969727	0.363366
N82	N	-0.379072	0.247974	-0.308226
N83	N	-0.045738	0.581307	0.025107
N84	N	0.287595	0.914640	0.358441
N85	N	-0.441529	0.247985	-0.308221
N86	N	-0.108196	0.581318	0.025112
N87	N	0.225138	0.914652	0.358446
C88	C	-0.473398	0.303081	-0.303290
C89	C	-0.140065	0.636414	0.030043
C90	C	0.193268	0.969748	0.363377
C91	C	-0.242517	0.262843	-0.343638
C92	C	0.090817	0.596176	-0.010305
C93	C	0.424150	0.929510	0.323029
C94	C	-0.176773	0.262827	-0.343635
C95	C	0.156560	0.596160	-0.010302
C96	C	0.489894	0.929494	0.323031
C97	C	-0.176656	0.343228	-0.262972
C98	C	0.156677	0.676561	0.070361
C99	C	0.490011	1.009894	0.403695
C100	C	-0.242398	0.343238	-0.262971
C101	C	0.090935	0.676571	0.070362
C102	C	0.424268	1.009905	0.403695
C103	C	-0.275325	0.303046	-0.303308
C104	C	0.058009	0.636380	0.030025
C105	C	0.391342	0.969713	0.363359
C106	C	-0.909604	0.466592	-0.303265
C107	C	-0.576271	0.799925	0.030068
C108	C	-0.242937	1.133258	0.363401
C109	C	-0.909627	0.536560	-0.303274
C110	C	-0.576293	0.869893	0.030059
C111	C	-0.242960	1.203226	0.363392
C112	C	-0.073876	0.303013	-0.303310
C113	C	0.259457	0.636346	0.030023
C114	C	0.592790	0.969679	0.363357
C115	C	-0.143844	0.303021	-0.303309
C116	C	0.189489	0.636354	0.030025
C117	C	0.522822	0.969687	0.363358
C118	C	-0.949911	0.569400	-0.263061
C119	C	-0.616578	0.902733	0.070273
C120	C	-0.283244	1.236067	0.403606
C121	C	-0.949941	0.635143	-0.263078
C122	C	-0.616607	0.968476	0.070256
C123	C	-0.283274	1.301809	0.403589
C124	C	-0.909675	0.668042	-0.303302
C125	C	-0.576341	1.001375	0.030032
C126	C	-0.243008	1.334709	0.363365
C127	C	-0.869387	0.635194	-0.343523
C128	C	-0.536054	0.968527	-0.010190
C129	C	-0.202721	1.301860	0.323143
C130	C	-0.869363	0.569453	-0.343510
C131	C	-0.536030	0.902786	-0.010176
C132	C	-0.202697	1.236119	0.323157
N133	N	-0.854608	0.771325	-0.308098
N134	N	-0.521275	1.104658	0.025235
N135	N	-0.187941	1.437991	0.358568
N136	N	-0.854633	0.833776	-0.308108
N137	N	-0.521299	1.167109	0.025226
N138	N	-0.187966	1.500443	0.358559
C139	C	-0.909746	0.866117	-0.303346
C140	C	-0.576412	1.199450	0.029987
C141	C	-0.243079	1.532783	0.363320
N142	N	-0.964835	0.833647	-0.298563
N143	N	-0.631501	1.166980	0.034770
N144	N	-0.298168	1.500313	0.368104
N145	N	-0.964809	0.771190	-0.298550
N146	N	-0.631476	1.104523	0.034783
N147	N	-0.298143	1.437856	0.368116
C148	C	-0.909697	0.739327	-0.303321
C149	C	-0.576363	1.072661	0.030012
C150	C	-0.243030	1.405994	0.363345
C151	C	-0.950066	0.970243	-0.263149
C152	C	-0.616733	1.303576	0.070184
C153	C	-0.283399	1.636909	0.403518
C154	C	-0.950097	1.035986	-0.263170
C155	C	-0.616763	1.369320	0.070163
C156	C	-0.283430	1.702653	0.403496
C157	C	-0.869538	1.036036	-0.343613
C158	C	-0.536204	1.369370	-0.010280
C159	C	-0.202871	1.702703	0.323054
C160	C	-0.869513	0.970294	-0.343595
C161	C	-0.536179	1.303627	-0.010261
C162	C	-0.202846	1.636961	0.323072
C163	C	-0.909776	0.937401	-0.303359
C164	C	-0.576442	1.270734	0.029974
C165	C	-0.243109	1.604068	0.363307
C166	C	-0.909738	0.303027	-0.467483
C167	C	-0.576405	0.636360	-0.134150
C168	C	-0.243072	0.969693	0.199183
C169	C	-0.909761	0.303021	-0.537451
C170	C	-0.576427	0.636354	-0.204118
C171	C	-0.243094	0.969688	0.129215
C172	C	-0.909786	1.138850	-0.303346
C173	C	-0.576453	1.472183	0.029988
C174	C	-0.243120	1.805516	0.363321
C175	C	-0.909831	1.068881	-0.303396
C176	C	-0.576498	1.402215	0.029938
C177	C	-0.243164	1.735548	0.363271
C178	C	-0.950045	0.262749	-0.570334
C179	C	-0.616711	0.596082	-0.237001
C180	C	-0.283378	0.929416	0.096332
C181	C	-0.950044	0.262722	-0.636077
C182	C	-0.616710	0.596055	-0.302744
C183	C	-0.283377	0.929388	0.030590
C184	C	-0.909765	0.302978	-0.668934
C185	C	-0.576432	0.636311	-0.335601
C186	C	-0.243099	0.969644	-0.002267
C187	C	-0.869473	0.343252	-0.636043
C188	C	-0.536140	0.676586	-0.302710
C189	C	-0.202807	1.009919	0.030623
C190	C	-0.869471	0.343274	-0.570302
C191	C	-0.536138	0.676607	-0.236969
C192	C	-0.202804	1.009941	0.096365
N193	N	-0.904909	0.358047	-0.772152
N194	N	-0.571576	0.691380	-0.438818
N195	N	-0.238242	1.024713	-0.105485
N196	N	-0.904915	0.358024	-0.834603
N197	N	-0.571582	0.691358	-0.501270
N198	N	-0.238248	1.024691	-0.167937
C199	C	-0.909769	0.302914	-0.867009
C200	C	-0.576436	0.636247	-0.533676
C201	C	-0.243103	0.969580	-0.200342
N202	N	-0.914630	0.247825	-0.834604
N203	N	-0.581297	0.581158	-0.501270
N204	N	-0.247963	0.914492	-0.167937
N205	N	-0.914627	0.247848	-0.772147
N206	N	-0.581294	0.581182	-0.438813
N207	N	-0.247961	0.914515	-0.105480
C208	C	-0.909763	0.302958	-0.740219
C209	C	-0.576430	0.636292	-0.406886
C210	C	-0.243097	0.969625	-0.073553
C211	C	-0.950055	0.262609	-0.971177
C212	C	-0.616721	0.595942	-0.637844
C213	C	-0.283388	0.929276	-0.304511
C214	C	-0.950049	0.262581	-1.036921
C215	C	-0.616716	0.595914	-0.703588
C216	C	-0.283383	0.929247	-0.370254
C217	C	-0.869482	0.343117	-1.036886
C218	C	-0.536149	0.676450	-0.703553
C219	C	-0.202816	1.009783	-0.370220
C220	C	-0.869484	0.343139	-0.971144
C221	C	-0.536151	0.676473	-0.637810
C222	C	-0.202818	1.009806	-0.304477
C223	C	-0.909774	0.302886	-0.938293
C224	C	-0.576441	0.636220	-0.604960
C225	C	-0.243107	0.969553	-0.271627
C226	C	-0.909670	0.303008	-0.139741
C227	C	-0.576337	0.636341	0.193592
C228	C	-0.243004	0.969674	0.526925
C229	C	-0.909770	0.302836	-0.069774
C230	C	-0.576437	0.636169	0.263560
C231	C	-0.243103	0.969503	0.596893
H232	H	-0.269327	0.230113	-0.376478
H233	H	0.064007	0.563446	-0.043145
H234	H	0.397340	0.896779	0.290188
H235	H	-0.982857	0.229829	-0.944429
H236	H	-0.649524	0.563162	-0.611096
H237	H	-0.316191	0.896496	-0.277762
H238	H	-0.149843	0.375954	-0.230138
H239	H	0.183491	0.709288	0.103195
H240	H	0.516824	1.042621	0.436529
N241	N	-0.828202	0.535902	-0.384579
N242	N	-0.494868	0.869236	-0.051245
N243	N	-0.161535	1.202569	0.282088
N244	N	-0.788085	0.499280	-0.362384
N245	N	-0.454751	0.832614	-0.029050
N246	N	-0.121418	1.165947	0.304283
H247	H	-0.759013	0.475584	-0.391388
H248	H	-0.425680	0.808917	-0.058055
H249	H	-0.092346	1.142250	0.275279
H250	H	-0.836604	0.661985	-0.376275
H251	H	-0.503270	0.995318	-0.042942
H252	H	-0.169937	1.328651	0.290391
N253	N	-0.991200	0.221433	-1.070503
N254	N	-0.657867	0.554766	-0.737169
N255	N	-0.324534	0.888099	-0.403836
N256	N	-1.027166	0.185498	-1.041161
N257	N	-0.693833	0.518831	-0.707828
N258	N	-0.360500	0.852164	-0.374494
H259	H	-1.056230	0.156436	-1.064878
H260	H	-0.722897	0.489769	-0.731544
H261	H	-0.389564	0.823102	-0.398211
H262	H	-0.982697	0.542621	-0.230300
H263	H	-0.649364	0.875954	0.103033
H264	H	-0.316031	1.209287	0.436367
N265	N	-0.676755	0.384353	-0.221735
N266	N	-0.343422	0.717687	0.111598
N267	N	-0.010088	1.051020	0.444932
N268	N	-0.669391	0.380088	-0.163657
N269	N	-0.336058	0.713421	0.169676
N270	N	-0.002724	1.046754	0.503010
H271	H	-0.693062	0.409084	-0.134553
H272	H	-0.359729	0.742418	0.198781
H273	H	-0.026396	1.075751	0.532114
N274	N	-0.991194	0.221575	-0.669666
N275	N	-0.657861	0.554908	-0.336332
N276	N	-0.324528	0.888241	-0.002999
N277	N	-1.027159	0.185635	-0.640327
N278	N	-0.693825	0.518969	-0.306994
N279	N	-0.360492	0.852302	0.026339
H280	H	-1.056221	0.156574	-0.664047
H281	H	-0.722888	0.489907	-0.330714
H282	H	-0.389554	0.823241	0.002620
H283	H	-0.836681	0.375887	-1.063638
H284	H	-0.503347	0.709221	-0.730305
H285	H	-0.170014	1.042554	-0.396971
H286	H	-0.982853	0.943460	-0.230389
H287	H	-0.649519	1.276794	0.102945
H288	H	-0.316186	1.610127	0.436278
H289	H	-0.836677	0.376027	-0.662800
H290	H	-0.503343	0.709360	-0.329466
H291	H	-0.170010	1.042693	0.003867
H292	H	-0.150063	0.230089	-0.376479
H293	H	0.183271	0.563423	-0.043145
H294	H	0.516604	0.896756	0.290188
H295	H	-0.836684	0.375937	-0.944370
H296	H	-0.503351	0.709270	-0.611037
H297	H	-0.170018	1.042604	-0.277703
H298	H	-0.982905	1.062724	-0.230425
H299	H	-0.649572	1.396057	0.102909
H300	H	-0.316238	1.729391	0.436242
H301	H	-0.982747	0.661887	-0.230331
H302	H	-0.649414	0.995220	0.103003
H303	H	-0.316081	1.328553	0.436336
H304	H	-0.836755	1.062823	-0.376367
H305	H	-0.503422	1.396156	-0.043034
H306	H	-0.170088	1.729489	0.290300
N307	N	-0.828357	0.936754	-0.384676
N308	N	-0.495024	1.270087	-0.051343
N309	N	-0.161691	1.603421	0.281991
N310	N	-0.792410	0.966133	-0.420590
N311	N	-0.459076	1.299467	-0.087257
N312	N	-0.125743	1.632800	0.246076
H313	H	-0.763343	0.942447	-0.449608
H314	H	-0.430010	1.275780	-0.116275
H315	H	-0.096676	1.609113	0.217059
N316	N	-0.991194	0.221619	-0.536792
N317	N	-0.657861	0.554953	-0.203458
N318	N	-0.324527	0.888286	0.129875
N319	N	-0.987055	0.163532	-0.544139
N320	N	-0.653722	0.496866	-0.210806
N321	N	-0.320388	0.830199	0.122527
H322	H	-1.016117	0.134482	-0.520450
H323	H	-0.682783	0.467816	-0.187117
H324	H	-0.349450	0.801149	0.146217
N325	N	-0.676982	0.221853	-0.384821
N326	N	-0.343648	0.555186	-0.051487
N327	N	-0.010315	0.888519	0.281846
N328	N	-0.647676	0.185965	-0.420832
N329	N	-0.314343	0.519298	-0.087498
N330	N	0.018990	0.852631	0.245835
H331	H	-0.671423	0.156969	-0.449936
H332	H	-0.338090	0.490303	-0.116602
H333	H	-0.004756	0.823636	0.216731
N334	N	-0.828314	0.384415	-0.536719
N335	N	-0.494980	0.717748	-0.203386
N336	N	-0.161647	1.051081	0.129947
N337	N	-0.792348	0.420351	-0.566060
N338	N	-0.459015	0.753685	-0.232726
N339	N	-0.125682	1.087018	0.100607
H340	H	-0.763280	0.449408	-0.542341
H341	H	-0.429947	0.782742	-0.209008
H342	H	-0.096614	1.116075	0.124325
H343	H	-0.550900	0.230155	-0.376458
H344	H	-0.217567	0.563489	-0.043125
H345	H	0.115767	0.896822	0.290209
H346	H	-0.269110	0.375974	-0.230130
H347	H	0.064223	0.709307	0.103203
H348	H	0.397556	1.042641	0.436537
H349	H	-0.550680	0.376013	-0.230114
H350	H	-0.217347	0.709347	0.103219
H351	H	0.115986	1.042680	0.436552
