data_functionalizedCrystal
_audit_creation_method	'MofGen! by Chris Wilmer'
_symmetry_space_group_name_H-M	'P1'
_symmetry_Int_Tables_number	1
_symmetry_cell_setting	triclinic
loop_
_symmetry_equiv_pos_as_xyz
  x,y,z
_cell_length_a	16.109301
_cell_length_b	15.944551
_cell_length_c	15.186229
_cell_angle_alpha	89.995303
_cell_angle_beta	89.999362
_cell_angle_gamma	83.480109
loop_
_atom_site_label
_atom_site_type_symbol
_atom_site_fract_x
_atom_site_fract_y
_atom_site_fract_z
O1	O	1.103166	0.107966	-0.073175
O2	O	0.861108	0.121402	-0.073189
O3	O	0.988747	-0.007593	-0.073174
O4	O	0.975527	0.236961	-0.073190
O5	O	0.988738	-0.007594	0.073284
O6	O	0.861099	0.121401	0.073268
O7	O	1.103157	0.107964	0.073282
Zn8	Zn	0.982127	0.114682	0.096529
Zn9	Zn	0.982138	0.114685	-0.096435
O10	O	0.975518	0.236960	0.073267
C11	C	0.830129	0.120857	0.000038
C12	C	0.737833	0.119226	0.000033
C13	C	0.515584	0.191975	0.000038
C14	C	0.428863	0.190435	0.000044
C15	C	0.448688	0.037387	0.000050
C16	C	0.535407	0.038927	0.000051
C17	C	0.568853	0.116224	0.000040
C18	C	0.395412	0.113143	0.000045
C19	C	0.301386	0.111473	0.000052
C20	C	0.662885	0.117894	0.000036
C21	C	0.988194	-0.038887	0.000055
C22	C	0.986548	-0.132133	0.000056
C23	C	0.903499	-0.346962	0.000039
C24	C	0.942060	-0.407993	0.072253
C25	C	0.983572	-0.302858	0.000049
C26	C	0.942087	-0.407975	-0.072142
C27	C	0.980691	-0.467769	0.000038
C28	C	1.022155	-0.362660	0.072323
C29	C	1.022171	-0.362636	-0.072137
C30	C	1.060790	-0.423649	0.000095
C31	C	0.985229	-0.207856	0.000055
C32	C	0.979039	-0.562770	0.000038
C33	C	1.134136	0.108510	0.000054
C34	C	1.226432	0.110141	0.000053
C35	C	0.976071	0.268254	0.000036
C36	C	0.977717	0.361500	0.000030
N37	N	0.982125	0.114680	0.228221
N38	N	0.982146	0.114680	-0.228128
C39	C	1.038663	0.057580	0.453951
C40	C	1.038666	0.057578	0.546141
C41	C	0.925603	0.171783	0.546136
C42	C	0.925597	0.171780	0.453948
C43	C	0.982132	0.114680	0.407858
C44	C	0.982140	0.114680	0.592236
C45	C	0.982143	0.114679	0.692192
C46	C	0.982128	0.114680	0.307895
H47	H	0.542812	0.254914	0.000036
O48	O	0.901686	-0.431784	-0.145043
C49	C	0.874196	-0.359866	-0.195723
H50	H	0.913906	-0.307066	-0.179695
H51	H	0.880482	-0.376179	-0.268683
H52	H	0.805972	-0.338200	-0.179773
H53	H	1.084698	0.011082	0.583667
H54	H	0.879558	0.218278	0.416417
O55	O	0.870773	0.227221	0.591046
C56	C	0.882887	0.214968	0.682298
H57	H	0.948983	0.183592	0.694887
H58	H	0.873644	0.278579	0.717326
H59	H	0.835830	0.172829	0.708471
O60	O	0.377153	0.264042	-0.000118
C61	C	0.392329	0.310980	-0.075964
H62	H	0.421965	0.266628	-0.128977
H63	H	0.330804	0.344681	-0.101425
H64	H	0.436488	0.359586	-0.058820
O65	O	1.062424	-0.338648	-0.145058
C66	C	1.020005	-0.361488	-0.221049
H67	H	0.952221	-0.368231	-0.203752
H68	H	1.022040	-0.310561	-0.273450
H69	H	1.051453	-0.424138	-0.247394
H70	H	0.421446	-0.025546	0.000064
O71	O	0.587040	-0.034740	0.000013
C72	C	0.538927	-0.103294	0.000037
H73	H	0.474204	-0.081962	-0.027694
H74	H	0.570920	-0.156366	-0.042480
H75	H	0.532751	-0.126990	0.070301
H76	H	1.084696	0.011085	0.416427
H77	H	0.837035	-0.313632	0.000107
H78	H	0.908189	-0.428091	0.133301
H79	H	1.127313	-0.456830	0.000139
O80	O	1.062464	-0.338686	0.145213
C81	C	1.063513	-0.250389	0.144345
H82	H	1.010146	-0.220174	0.101546
H83	H	1.055648	-0.224937	0.214359
H84	H	1.125593	-0.234655	0.116432
