data_functionalizedCrystal
_audit_creation_method	'MofGen! by Chris Wilmer'
_symmetry_space_group_name_H-M	'P1'
_symmetry_Int_Tables_number	1
_symmetry_cell_setting	triclinic
loop_
_symmetry_equiv_pos_as_xyz
  x,y,z
_cell_length_a	15.297475
_cell_length_b	15.298671
_cell_length_c	15.296721
_cell_angle_alpha	91.597403
_cell_angle_beta	88.382971
_cell_angle_gamma	110.785676
loop_
_atom_site_label
_atom_site_type_symbol
_atom_site_fract_x
_atom_site_fract_y
_atom_site_fract_z
Zn1	Zn	1.393295	0.709303	0.628150
Zn2	Zn	1.444439	0.840536	0.463451
Zn3	Zn	1.262074	0.658104	0.463497
Zn4	Zn	1.270899	0.831577	0.585823
O5	O	1.342677	0.759880	0.535231
O6	O	1.527622	0.751888	0.623998
O7	O	1.437959	0.798658	0.343337
O8	O	1.254383	0.537375	0.503072
O9	O	1.565198	0.848304	0.502994
O10	O	1.350790	0.574991	0.624042
O11	O	1.303976	0.664626	0.343370
O12	O	1.135701	0.655939	0.462029
O13	O	1.269424	0.833036	0.711559
O14	O	1.142185	0.783389	0.551902
O15	O	1.359347	0.743201	0.742657
O16	O	1.446516	0.966868	0.461951
O17	O	1.319017	0.960286	0.551857
C18	C	1.105873	0.713137	0.502378
C19	C	1.004568	0.693165	0.488341
C20	C	1.389296	0.996649	0.502328
C21	C	1.409319	1.097961	0.488293
C22	C	0.732734	0.902629	0.635558
C23	C	0.827916	0.921400	0.648743
C24	C	0.872084	0.864343	0.608644
C25	C	0.821060	0.788512	0.555357
C26	C	0.725870	0.769743	0.542165
C27	C	0.865220	0.731457	0.515251
C28	C	0.814196	0.655626	0.461963
C29	C	0.719015	0.636860	0.448774
C30	C	0.674847	0.693917	0.488873
C31	C	0.960410	0.750225	0.528443
C32	C	0.953546	0.617339	0.435049
C33	C	0.858363	0.598569	0.421864
C34	C	1.485143	1.148965	0.434943
C35	C	1.503963	1.244155	0.421760
C36	C	1.446956	1.288347	0.461921
C37	C	1.371126	1.237342	0.515267
C38	C	1.352309	1.142145	0.528456
C39	C	1.314122	1.281527	0.555434
C40	C	1.238292	1.230521	0.608780
C41	C	1.219477	1.135333	0.621967
C42	C	1.276484	1.091140	0.581806
C43	C	1.332939	1.376724	0.542245
C44	C	1.200105	1.369903	0.635758
C45	C	1.181285	1.274713	0.648941
C46	C	1.580406	0.806806	0.568212
C47	C	1.681711	0.826803	0.582267
C48	C	1.309665	0.792830	0.759125
C49	C	1.295597	0.806872	0.854535
C50	C	1.295889	1.522194	0.568294
C51	C	1.275929	1.420907	0.582408
C52	C	1.375599	0.727003	0.312224
C53	C	1.389793	0.712739	0.216874
C54	C	1.242166	0.860239	0.883165
C55	C	1.228951	0.873437	0.972807
C56	C	1.269160	0.833264	1.033828
C57	C	1.322587	0.779890	1.005199
C58	C	1.335809	0.766696	0.915548
C59	C	1.362803	0.739721	1.066211
C60	C	1.416230	0.686348	1.037581
C61	C	1.429450	0.673156	0.947939
C62	C	1.389241	0.713329	0.886918
C63	C	1.349581	0.752915	1.155862
C64	C	1.443224	0.659372	1.188244
C65	C	1.456440	0.646174	1.098602
H66	H	1.001944	0.811968	0.571831
Cl67	Cl	0.991742	0.887940	0.625224
H68	H	0.989507	0.570880	0.402396
H69	H	1.261165	1.013630	0.592537
H70	H	0.816806	0.536826	0.378477
Cl71	Cl	1.405836	0.696724	0.774219
Cl72	Cl	1.470308	1.407894	0.444959
H73	H	1.119543	1.233173	0.692376
Cl74	Cl	1.493780	0.608870	1.264951
Cl75	Cl	1.556807	1.093408	0.384472
H76	H	1.157739	1.093806	0.665412
Cl77	Cl	0.892054	1.016727	0.715729
H78	H	1.185452	0.916895	0.996111
Cl79	Cl	1.428264	1.440833	0.475183
H80	H	1.209439	0.892948	0.833475
H81	H	1.153687	1.405885	0.668463
H82	H	0.696765	0.949082	0.668195
Cl83	Cl	1.282416	0.820009	1.191842
H84	H	1.472964	0.629705	0.924632
Cl85	Cl	0.555183	0.670318	0.472306
Cl86	Cl	1.252543	0.849854	1.146522
Cl87	Cl	1.599289	1.308270	0.354702
Cl88	Cl	0.654875	0.541536	0.381776
H89	H	1.499941	0.602717	1.075279
