data_functionalizedCrystal
_audit_creation_method	'MofGen! by Chris Wilmer'
_symmetry_space_group_name_H-M	'P1'
_symmetry_Int_Tables_number	1
_symmetry_cell_setting	triclinic
loop_
_symmetry_equiv_pos_as_xyz
  x,y,z
_cell_length_a	11.169417
_cell_length_b	17.637651
_cell_length_c	11.169409
_cell_angle_alpha	78.747944
_cell_angle_beta	89.980176
_cell_angle_gamma	101.220276
loop_
_atom_site_label
_atom_site_type_symbol
_atom_site_fract_x
_atom_site_fract_y
_atom_site_fract_z
Zn1	Zn	1.738329	-0.314690	-0.581815
Zn2	Zn	2.238329	0.185310	-0.081815
Zn3	Zn	1.697610	-0.446936	-0.340484
Zn4	Zn	2.197610	0.053064	0.159516
Zn5	Zn	1.537600	-0.314739	-0.381135
Zn6	Zn	2.037600	0.185261	0.118865
Zn7	Zn	1.497034	-0.446871	-0.541148
Zn8	Zn	1.997034	0.053129	-0.041148
O9	O	1.617643	-0.380809	-0.461146
O10	O	2.117643	0.119191	0.038854
O11	O	1.900875	-0.332240	-0.549809
O12	O	2.400875	0.167760	-0.049809
O13	O	1.676320	-0.429446	-0.177912
O14	O	2.176320	0.070554	0.322088
O15	O	1.598246	-0.204089	-0.441788
O16	O	2.098246	0.295911	0.058212
O17	O	1.870959	-0.429400	-0.372504
O18	O	2.370959	0.070600	0.127496
O19	O	1.745721	-0.204054	-0.589227
O20	O	2.245721	0.295946	-0.089227
O21	O	1.558762	-0.332322	-0.207778
O22	O	2.058762	0.167678	0.292222
O23	O	1.364272	-0.332259	-0.402355
O24	O	1.864272	0.167741	0.097645
O25	O	1.529106	-0.429290	-0.714507
O26	O	2.029106	0.070710	-0.214507
O27	O	1.334467	-0.429337	-0.519916
O28	O	1.834467	0.070663	-0.019916
O29	O	1.706385	-0.332177	-0.744385
O30	O	2.206385	0.167823	-0.244385
O31	O	1.636984	-0.557570	-0.333070
O32	O	2.136984	-0.057570	0.166930
O33	O	1.489622	-0.557523	-0.480498
O34	O	1.989622	-0.057523	0.019502
C35	C	1.305822	-0.380797	-0.461134
C36	C	1.805822	0.119203	0.038866
C37	C	1.172418	-0.380811	-0.461152
C38	C	1.672418	0.119189	0.038848
C39	C	1.554515	-0.586235	-0.397986
C40	C	2.054515	-0.086235	0.102014
C41	C	1.527618	-0.674117	-0.371006
C42	C	2.027618	-0.174117	0.128994
C43	C	1.822755	-0.962763	-0.666486
C44	C	2.322755	-0.462763	-0.166486
C45	C	1.797443	-1.045342	-0.641114
C46	C	2.297443	-0.545342	-0.141114
C47	C	1.643980	-1.045486	-0.487437
C48	C	2.143980	-0.545486	0.012563
C49	C	1.669283	-0.962906	-0.512792
C50	C	2.169283	-0.462906	-0.012792
C51	C	1.758671	-0.921551	-0.602319
C52	C	2.258671	-0.421551	-0.102319
C53	C	1.605199	-0.921694	-0.448625
C54	C	2.105199	-0.421694	0.051375
C55	C	1.630496	-0.839121	-0.473984
C56	C	2.130496	-0.339121	0.026016
C57	C	1.719877	-0.797760	-0.563509
C58	C	2.219877	-0.297760	-0.063509
C59	C	1.783968	-0.838978	-0.627677
C60	C	2.283968	-0.338978	-0.127677
C61	C	1.515806	-0.963050	-0.359105
C62	C	2.015806	-0.463050	0.140895
C63	C	1.451722	-0.921838	-0.294938
C64	C	1.951722	-0.421838	0.205062
C65	C	1.477024	-0.839263	-0.320290
C66	C	1.977024	-0.339263	0.179710
C67	C	1.566405	-0.797902	-0.409815
C68	C	2.066405	-0.297902	0.090185
C69	C	1.412933	-0.798045	-0.256121
C70	C	1.912933	-0.298045	0.243879
C71	C	1.438230	-0.715472	-0.281480
C72	C	1.938230	-0.215472	0.218520
C73	C	1.591702	-0.715329	-0.435173
C74	C	2.091702	-0.215329	0.064827
C75	C	1.930682	-0.380822	-0.461158
C76	C	2.430682	0.119178	0.038842
C77	C	2.064080	-0.380827	-0.461163
C78	C	2.564080	0.119173	0.038837
C79	C	1.617762	-0.380721	-0.774215
C80	C	2.117762	0.119279	-0.274215
C81	C	1.617813	-0.380684	-0.907627
C82	C	2.117813	0.119316	-0.407627
C83	C	1.681051	-0.174581	-0.524578
C84	C	2.181051	0.325419	-0.024578
C85	C	1.708071	-0.086699	-0.551609
C86	C	2.208071	0.413301	-0.051609
C87	C	1.617611	-0.380839	-0.149312
C88	C	2.117611	0.119161	0.350688
C89	C	1.617861	-0.380654	-0.015969
C90	C	2.117861	0.119346	0.484031
H91	H	1.664500	-0.681657	-0.508066
H92	H	2.164500	-0.181657	-0.008066
F93	F	1.370028	-0.671608	-0.213183
F94	F	1.870028	-0.171608	0.286817
F95	F	1.746503	-0.709878	-0.590795
F96	F	2.246503	-0.209878	-0.090795
F97	F	1.317789	-0.842068	-0.160860
F98	F	1.817789	-0.342068	0.339140
F99	F	1.548842	-1.089508	-0.392167
F100	F	2.048842	-0.589508	0.107833
H101	H	1.895553	-0.929091	-0.739379
H102	H	2.395553	-0.429091	-0.239379
F103	F	1.865664	-1.089201	-0.709410
F104	F	2.365664	-0.589201	-0.209410
H105	H	1.856766	-0.805305	-0.700570
H106	H	2.356766	-0.305305	-0.200570
H107	H	1.378939	-0.955520	-0.222048
H108	H	1.878939	-0.455520	0.277952
F109	F	1.489025	-1.050933	-0.331978
F110	F	1.989025	-0.550933	0.168022
