data_functionalizedCrystal
_audit_creation_method	'MofGen! by Chris Wilmer'
_symmetry_space_group_name_H-M	'P1'
_symmetry_Int_Tables_number	1
_symmetry_cell_setting	triclinic
loop_
_symmetry_equiv_pos_as_xyz
  x,y,z
_cell_length_a	17.639617
_cell_length_b	18.050589
_cell_length_c	17.639306
_cell_angle_alpha	78.808443
_cell_angle_beta	65.670249
_cell_angle_gamma	78.779680
loop_
_atom_site_label
_atom_site_type_symbol
_atom_site_fract_x
_atom_site_fract_y
_atom_site_fract_z
Zn1	Zn	1.354198	0.175801	-0.721147
Zn2	Zn	1.326233	0.279121	-0.583320
Zn3	Zn	1.188521	0.175773	-0.555440
Zn4	Zn	1.216290	0.320799	-0.693188
O5	O	1.271311	0.237873	-0.638274
O6	O	1.465836	0.172076	-0.726233
O7	O	1.284640	0.247958	-0.464293
O8	O	1.210581	0.071842	-0.577454
O9	O	1.445290	0.247985	-0.624973
O10	O	1.332303	0.071863	-0.699198
O11	O	1.183464	0.172028	-0.443809
O12	O	1.076857	0.212441	-0.550343
O13	O	1.257909	0.319018	-0.812226
O14	O	1.097259	0.318991	-0.651546
O15	O	1.359229	0.212489	-0.832767
O16	O	1.311567	0.388584	-0.597862
O17	O	1.230792	0.419204	-0.678581
C18	C	1.057150	0.270236	-0.594886
C19	C	0.965534	0.284102	-0.576344
C20	C	0.717756	0.132551	-0.779339
C21	C	0.631667	0.145597	-0.761900
C22	C	0.610263	0.224460	-0.656305
C23	C	0.696354	0.211425	-0.673739
C24	C	0.750094	0.165469	-0.735256
C25	C	0.728691	0.244342	-0.629656
C26	C	0.814773	0.231304	-0.647085
C27	C	0.868518	0.185349	-0.708598
C28	C	0.836176	0.152431	-0.752686
C29	C	0.674949	0.290293	-0.568135
C30	C	0.707286	0.323211	-0.524052
C31	C	0.793370	0.310178	-0.541485
C32	C	0.847115	0.264222	-0.602998
C33	C	0.825712	0.343096	-0.497397
C34	C	0.911794	0.330058	-0.514827
C35	C	0.933197	0.251184	-0.620427
C36	C	1.271184	0.430842	-0.638236
C37	C	1.271211	0.513388	-0.638262
C38	C	1.227311	0.729510	-0.682145
C39	C	1.192020	0.770587	-0.602875
C40	C	1.271275	0.664511	-0.638286
C41	C	1.306591	0.770513	-0.717570
C42	C	1.271337	0.810490	-0.638316
C43	C	1.235937	0.704501	-0.558968
C44	C	1.350553	0.704425	-0.673721
C45	C	1.315279	0.745468	-0.594405
C46	C	1.271238	0.580416	-0.638270
C47	C	1.271373	0.894581	-0.638323
C48	C	1.486308	0.205385	-0.681832
C49	C	1.577927	0.191540	-0.700393
C50	C	1.314786	0.270406	-0.853236
C51	C	1.333313	0.284269	-0.944840
C52	C	1.271432	1.044155	-0.638329
C53	C	1.271404	0.961617	-0.638339
C54	C	1.130886	0.132230	-1.192820
C55	C	1.148313	0.145269	-1.278899
C56	C	1.253657	0.224327	-1.300207
C57	C	1.236241	0.211291	-1.214128
C58	C	1.174854	0.165242	-1.160440
C59	C	1.280210	0.244303	-1.181749
C60	C	1.262792	0.231272	-1.095677
C61	C	1.201406	0.185227	-1.041983
C62	C	1.157437	0.152210	-1.074368
C63	C	1.341592	0.290356	-1.235437
C64	C	1.385561	0.323369	-1.203058
C65	C	1.368148	0.310333	-1.116985
C66	C	1.306762	0.264288	-1.063292
C67	C	1.412117	0.343349	-1.084600
C68	C	1.394700	0.330318	-0.998528
C69	C	1.289344	0.251256	-0.977220
C70	C	1.228052	0.205407	-0.424157
C71	C	1.209685	0.191310	-0.332586
H72	H	0.761516	0.095133	-0.829436
O73	O	0.773519	0.387630	-0.437530
C74	C	0.777964	0.355685	-0.359684
H75	H	0.800834	0.292151	-0.360431
H76	H	0.713109	0.364434	-0.307490
H77	H	0.823541	0.384639	-0.348183
O78	O	1.342339	0.804717	-0.797550
C79	C	1.425424	0.769768	-0.835218
H80	H	1.449432	0.740932	-0.784403
H81	H	1.466991	0.814714	-0.877652
H82	H	1.427037	0.725399	-0.874059
O83	O	1.112042	0.804826	-0.567012
C84	C	1.074529	0.769978	-0.483889
H85	H	1.108125	0.709906	-0.477050
H86	H	1.005636	0.767115	-0.468410
H87	H	1.079491	0.804731	-0.438993
O88	O	1.359767	0.754353	-0.550244
C89	C	1.427753	0.794459	-0.603273
H90	H	1.443834	0.787594	-0.671308
H91	H	1.484502	0.770811	-0.586541
H92	H	1.409902	0.857398	-0.594851
O93	O	1.430535	0.670194	-0.709542
C94	C	1.486651	0.724676	-0.735355
H95	H	1.452240	0.783886	-0.744707
H96	H	1.540584	0.711750	-0.796923
H97	H	1.512506	0.722447	-0.685310
H98	H	1.080907	0.094723	-1.149105
H99	H	0.605342	0.118783	-0.797798
O100	O	1.105547	0.113111	-1.310220
C101	C	1.047617	0.069692	-1.244370
H102	H	1.068965	0.052727	-1.189853
H103	H	1.043899	0.016271	-1.267482
H104	H	0.983143	0.104969	-1.222529
H105	H	1.430515	0.357188	-0.972167
O106	O	1.182743	0.720526	-0.726185
C107	C	1.099215	0.754489	-0.688554
H108	H	1.083896	0.758240	-0.619891
H109	H	1.054934	0.718544	-0.692724
H110	H	1.091272	0.814145	-0.722618
H111	H	1.239365	0.213750	-0.933505
O112	O	1.200248	0.670471	-0.478898
C113	C	1.175304	0.724984	-0.422908
H114	H	1.213612	0.774612	-0.454048
H115	H	1.186291	0.697740	-0.363724
H116	H	1.105841	0.746678	-0.405677
O117	O	1.471837	0.387969	-1.136811
C118	C	1.535171	0.345187	-1.197416
H119	H	1.535066	0.281993	-1.172538
H120	H	1.598780	0.362612	-1.211231
H121	H	1.522880	0.356359	-1.257485
O122	O	0.655095	0.367751	-0.464189
C123	C	0.659535	0.335812	-0.386340
H124	H	0.682398	0.272277	-0.387078
H125	H	0.594681	0.344569	-0.334147
H126	H	0.705116	0.364764	-0.374843
H127	H	1.187220	0.174624	-0.971897
O128	O	0.952155	0.172578	-0.725612
C129	C	0.992653	0.124975	-0.789375
H130	H	0.945411	0.090872	-0.790954
H131	H	1.045232	0.084280	-0.776224
H132	H	1.020065	0.161279	-0.852507
O133	O	1.097695	0.107581	-1.022219
C134	C	1.019789	0.139400	-1.026623
H135	H	1.020367	0.202943	-1.049425
H136	H	0.967620	0.130592	-0.961773
H137	H	1.008381	0.110394	-1.072230
H138	H	1.303635	0.261822	-1.343930
H139	H	0.976957	0.213766	-0.670523
O140	O	1.358437	0.303148	-1.319033
C141	C	1.343045	0.381884	-1.343474
H142	H	1.297047	0.410506	-1.286581
H143	H	1.315176	0.391257	-1.393055
H144	H	1.404462	0.407557	-1.370550
H145	H	0.938123	0.356863	-0.478930
O146	O	0.558156	0.269198	-0.596611
C147	C	0.582769	0.342768	-0.618757
H148	H	0.651681	0.339677	-0.663091
H149	H	0.573652	0.366538	-0.559811
H150	H	0.542878	0.381580	-0.651275
O151	O	0.888322	0.107864	-0.812546
C152	C	0.883919	0.139837	-0.890402
H153	H	0.821738	0.178101	-0.879400
H154	H	0.888504	0.092345	-0.926876
H155	H	0.937951	0.174919	-0.927886
O156	O	0.591301	0.303010	-0.551072
C157	C	0.550805	0.350640	-0.487333
H158	H	0.590662	0.346167	-0.449205
H159	H	0.486904	0.332180	-0.444443
H160	H	0.542104	0.412085	-0.516810
O161	O	1.445096	0.368211	-1.255158
C162	C	1.422784	0.441766	-1.230433
H163	H	1.352145	0.451891	-1.193437
H164	H	1.441313	0.485956	-1.288459
H165	H	1.456852	0.446931	-1.189411
