data_functionalizedCrystal
_audit_creation_method	'MofGen! by Chris Wilmer'
_symmetry_space_group_name_H-M	'P1'
_symmetry_Int_Tables_number	1
_symmetry_cell_setting	triclinic
loop_
_symmetry_equiv_pos_as_xyz
  x,y,z
_cell_length_a	15.538191
_cell_length_b	16.109301
_cell_length_c	14.586319
_cell_angle_alpha	90.005214
_cell_angle_beta	90.004821
_cell_angle_gamma	65.366787
loop_
_atom_site_label
_atom_site_type_symbol
_atom_site_fract_x
_atom_site_fract_y
_atom_site_fract_z
O1	O	-1.249994	0.270055	-0.076243
O2	O	-0.975705	0.174048	-0.076245
O3	O	-1.120384	0.345355	-0.076234
O4	O	-1.105315	0.098748	-0.076253
O5	O	-1.120374	0.345353	0.076246
O6	O	-0.975695	0.174046	0.076236
O7	O	-1.249984	0.270054	0.076238
Cu8	Cu	-1.112839	0.222050	0.090160
Cu9	Cu	-1.112850	0.222052	-0.090167
O10	O	-1.105305	0.098747	0.076227
C11	C	-0.940602	0.164002	-0.000005
C12	C	-0.836019	0.134081	-0.000005
C13	C	-1.119769	0.376145	0.000006
C14	C	-1.117939	0.467888	0.000008
C15	C	-1.285087	0.280100	-0.000004
C16	C	-1.389670	0.310020	-0.000010
C17	C	-0.548320	0.431335	0.000003
C18	C	-0.450045	0.403199	0.000000
C19	C	-0.427554	0.244941	-0.000012
C20	C	-0.525828	0.273063	-0.000004
C21	C	-0.586204	0.366262	0.000002
C22	C	-0.563712	0.207990	-0.000005
C23	C	-0.661978	0.236111	-0.000003
C24	C	-0.722360	0.329305	0.000001
C25	C	-0.684470	0.394382	0.000004
C26	C	-0.503335	0.114793	-0.000018
C27	C	-0.541219	0.049719	-0.000019
C28	C	-0.639487	0.077840	-0.000010
C29	C	-0.699869	0.171034	-0.000007
C30	C	-0.677377	0.012763	-0.000014
C31	C	-0.775643	0.040883	-0.000012
C32	C	-0.798135	0.199155	-0.000004
C33	C	-1.105920	0.067957	-0.000015
C34	C	-1.107750	-0.023786	-0.000023
N35	N	-1.112837	0.222052	0.216991
C36	C	-1.199533	0.714764	-0.000006
C37	C	-1.197806	0.800964	-0.000014
C38	C	-1.026149	0.729329	-0.000012
C39	C	-1.027877	0.643131	-0.000011
C40	C	-1.114572	0.635852	-0.000003
C41	C	-1.111117	0.808250	-0.000012
C42	C	-1.109244	0.901711	-0.000020
C43	C	-1.116446	0.542385	0.000003
N44	N	-1.112859	0.222059	-0.216998
C45	C	-1.176922	0.297894	0.452002
C46	C	-1.176925	0.297897	0.547984
C47	C	-1.048767	0.146212	0.547984
C48	C	-1.048761	0.146212	0.452004
C49	C	-1.112844	0.222054	0.404016
C50	C	-1.112853	0.222056	0.595977
C51	C	-1.112855	0.222059	0.700044
C52	C	-1.112840	0.222053	0.299942
H53	H	-0.802374	0.352199	-0.000010
H54	H	-1.270125	0.708843	-0.000002
H55	H	-0.806488	-0.012106	-0.000004
H56	H	-0.958687	0.578874	-0.000011
H57	H	-0.419205	0.456196	-0.000000
H58	H	-1.229102	0.359653	0.587052
H59	H	-0.492048	-0.026163	-0.000028
H60	H	-0.628205	-0.063119	-0.000028
H61	H	-0.955565	0.735267	-0.000016
O62	O	-1.289445	0.886076	-0.000003
H63	H	-1.330944	0.886699	-0.062144
O64	O	-1.246025	0.379696	0.400239
H65	H	-1.290576	0.432436	0.449736
O66	O	-0.979665	0.064405	0.599741
H67	H	-0.933895	0.085604	0.643491
O68	O	-0.362434	0.144423	-0.000005
H69	H	-0.287738	0.135799	0.000002
O70	O	-0.979648	0.064409	0.400237
H71	H	-0.935099	0.011665	0.449729
H72	H	-0.733632	0.470273	0.000015
O73	O	-0.863267	0.299676	0.000018
H74	H	-0.908589	0.316276	-0.062123
O75	O	-0.613452	0.531856	0.000012
H76	H	-0.570603	0.572387	0.000010
H77	H	-0.423321	0.091900	-0.000023
