data_functionalizedCrystal
_audit_creation_method	'MofGen! by Chris Wilmer'
_symmetry_space_group_name_H-M	'P1'
_symmetry_Int_Tables_number	1
_symmetry_cell_setting	triclinic
loop_
_symmetry_equiv_pos_as_xyz
  x,y,z
_cell_length_a	15.021413
_cell_length_b	14.519709
_cell_length_c	14.519709
_cell_angle_alpha	83.680145
_cell_angle_beta	90.003076
_cell_angle_gamma	89.998285
loop_
_atom_site_label
_atom_site_type_symbol
_atom_site_fract_x
_atom_site_fract_y
_atom_site_fract_z
O1	O	0.073918	-1.223873	-0.120879
O2	O	0.073946	-0.955396	-0.135115
O3	O	0.073923	-1.096752	0.006241
O4	O	0.073941	-1.082516	-0.262236
O5	O	-0.074141	-1.096730	0.006221
O6	O	-0.074119	-0.955373	-0.135136
O7	O	-0.074146	-1.223850	-0.120899
Zn8	Zn	-0.097641	-1.089608	-0.128021
Zn9	Zn	0.097440	-1.089638	-0.127994
O10	O	-0.074124	-1.082493	-0.262256
C11	C	-0.000083	-0.921025	-0.134462
C12	C	-0.000073	-0.818643	-0.132474
N13	N	-0.230778	-1.089595	-0.128038
C14	C	-0.000109	-1.096078	0.040591
C15	C	-0.000109	-1.094090	0.142972
C16	C	-0.470451	-1.024221	-0.193371
C17	C	-0.529793	-1.107584	-0.211408
C18	C	-0.412385	-1.089618	-0.128015
C19	C	-0.529785	-1.006278	-0.109999
C20	C	-0.587809	-1.089633	-0.127995
C21	C	-0.470421	-1.173023	-0.146094
C22	C	-0.470408	-1.071663	-0.044649
C23	C	-0.529723	-1.155085	-0.062650
C24	C	-0.311328	-1.089608	-0.128029
C25	C	-0.688865	-1.089653	-0.127980
N26	N	0.230578	-1.089659	-0.127969
C27	C	-0.000116	-1.258221	-0.121553
C28	C	-0.000120	-1.360602	-0.123541
C29	C	-0.000114	-0.443748	-0.125154
C30	C	-0.000102	-0.548056	-0.127187
C31	C	-0.000093	-0.631192	-0.128814
C32	C	-0.000083	-0.735507	-0.130847
C33	C	-0.000090	-1.083168	-0.296606
C34	C	-0.000083	-1.085156	-0.398987
C35	C	-0.000086	-1.086770	0.517868
C36	C	-0.000092	-1.088803	0.413560
C37	C	-0.000098	-1.090430	0.330423
C38	C	-0.000104	-1.092463	0.226109
H39	H	-0.444427	-0.968973	-0.248685
H40	H	-0.555864	-0.935793	-0.094770
H41	H	-0.555877	-1.122784	-0.281900
C42	C	-0.435352	-1.268267	-0.166787
C43	C	-0.376059	-1.325890	-0.095591
C44	C	-0.340990	-1.421131	-0.116288
C45	C	-0.365213	-1.458747	-0.208182
C46	C	-0.424509	-1.401123	-0.279384
C47	C	-0.459579	-1.305882	-0.258687
H48	H	-0.358125	-1.298045	-0.027560
H49	H	-0.297095	-1.463788	-0.063579
H50	H	-0.339253	-1.529250	-0.223503
H51	H	-0.442444	-1.428968	-0.347415
H52	H	-0.503473	-1.263225	-0.311396
C53	C	-0.435132	-1.051096	0.050551
C54	C	-0.334138	-1.048171	0.068208
C55	C	-0.298859	-1.027593	0.163407
C56	C	-0.364575	-1.009940	0.240948
C57	C	-0.465575	-1.012864	0.223293
C58	C	-0.500853	-1.033442	0.128094
H59	H	-0.285486	-1.061240	0.010805
H60	H	-0.224092	-1.025428	0.176476
H61	H	-0.338460	-0.994706	0.311420
H62	H	-0.514227	-0.999795	0.280696
H63	H	-0.575620	-1.035607	0.115025
H64	H	-0.555584	-1.210456	-0.007369
