data_functionalizedCrystal
_audit_creation_method	'MofGen! by Chris Wilmer'
_symmetry_space_group_name_H-M	'P1'
_symmetry_Int_Tables_number	1
_symmetry_cell_setting	triclinic
loop_
_symmetry_equiv_pos_as_xyz
  x,y,z
_cell_length_a	14.044220
_cell_length_b	14.044220
_cell_length_c	13.101039
_cell_angle_alpha	86.340132
_cell_angle_beta	93.667477
_cell_angle_gamma	93.188878
loop_
_atom_site_label
_atom_site_type_symbol
_atom_site_fract_x
_atom_site_fract_y
_atom_site_fract_z
O1	O	0.225348	1.281968	-0.085109
O2	O	0.725348	1.781968	0.414891
O3	O	0.217041	1.005298	-0.085135
O4	O	0.717041	1.505298	0.414865
O5	O	0.082860	1.139480	-0.085112
O6	O	0.582860	1.639480	0.414888
O7	O	0.359530	1.147787	-0.085132
O8	O	0.859530	1.647787	0.414868
O9	O	0.092504	1.129854	0.085316
O10	O	0.592504	1.629854	0.585316
O11	O	0.226686	0.995673	0.085293
O12	O	0.726686	1.495673	0.585293
O13	O	0.234993	1.272343	0.085319
O14	O	0.734993	1.772343	0.585319
Zn15	Zn	0.232371	1.132479	0.112365
Zn16	Zn	0.732371	1.632479	0.612365
Zn17	Zn	0.219663	1.145162	-0.112181
Zn18	Zn	0.719663	1.645162	0.387819
O19	O	0.369175	1.138161	0.085296
O20	O	0.869175	1.638161	0.585296
C21	C	0.218228	0.964864	0.000076
C22	C	0.718228	1.464864	0.500076
C23	C	0.207383	0.858722	0.000066
C24	C	0.707383	1.358722	0.500066
C25	C	0.052060	1.131031	0.000102
C26	C	0.552060	1.631031	0.500102
C27	C	-0.054083	1.120187	0.000102
C28	C	0.445917	1.620187	0.500102
C29	C	0.187558	0.664383	0.000088
C30	C	0.687558	1.164383	0.500088
C31	C	0.264472	0.613253	0.000087
C32	C	0.764472	1.113253	0.500087
C33	C	0.253441	0.505116	0.000099
C34	C	0.753441	1.005116	0.500099
C35	C	0.198587	0.772529	0.000076
C36	C	0.698587	1.272529	0.500076
C37	C	-0.248421	1.100362	0.000086
C38	C	0.251579	1.600362	0.500086
C39	C	-0.299551	1.177276	0.000090
C40	C	0.200449	1.677276	0.500090
C41	C	-0.407688	1.166245	0.000080
C42	C	0.092312	1.666245	0.500080
C43	C	-0.140275	1.111391	0.000095
C44	C	0.359725	1.611391	0.500095
C45	C	0.399974	1.146610	0.000080
C46	C	0.899974	1.646610	0.500080
C47	C	0.506116	1.157455	0.000073
C48	C	1.006116	1.657455	0.500073
C49	C	0.233806	1.312777	0.000106
C50	C	0.733806	1.812777	0.500106
C51	C	0.244651	1.418920	0.000109
C52	C	0.744651	1.918920	0.500109
N53	N	0.241043	1.123831	0.265612
N54	N	0.741043	1.623831	0.765612
N55	N	0.210984	1.153817	-0.265428
N56	N	0.710984	1.653817	0.234572
C57	C	0.252851	1.112065	0.474653
C58	C	0.752851	1.612065	0.974653
C59	C	0.199179	1.165580	0.525538
C60	C	0.699179	1.665580	1.025538
C61	C	0.205749	1.159034	0.641855
C62	C	0.705749	1.659034	1.141855
C63	C	0.246282	1.118610	0.358325
C64	C	0.746282	1.618610	0.858325
H65	H	0.113431	0.626945	0.000099
H66	H	0.613431	1.126945	0.500099
O67	O	0.131775	1.232783	0.467534
O68	O	0.631775	1.732783	0.967534
H69	H	0.151287	1.307122	0.488057
H70	H	0.651287	1.807122	0.988057
O71	O	0.362675	0.662834	0.000077
O72	O	0.862675	1.162834	0.500077
H73	H	0.398067	0.645728	-0.069384
H74	H	0.898067	1.145728	0.430616
H75	H	-0.285859	1.026235	0.000076
H76	H	0.214141	1.526235	0.500076
O77	O	-0.249969	1.275477	0.000117
O78	O	0.250031	1.775477	0.500117
H79	H	-0.171583	1.268846	0.000134
H80	H	0.328417	1.768846	0.500134
H81	H	0.303733	1.061336	0.518442
H82	H	0.803733	1.561336	1.018442
