data_functionalizedCrystal
_audit_creation_method	'MofGen! by Chris Wilmer'
_symmetry_space_group_name_H-M	'P1'
_symmetry_Int_Tables_number	1
_symmetry_cell_setting	triclinic
loop_
_symmetry_equiv_pos_as_xyz
  x,y,z
_cell_length_a	14.519709
_cell_length_b	11.792241
_cell_length_c	10.868271
_cell_angle_alpha	89.996558
_cell_angle_beta	89.993918
_cell_angle_gamma	83.936780
loop_
_atom_site_label
_atom_site_type_symbol
_atom_site_fract_x
_atom_site_fract_y
_atom_site_fract_z
O1	O	0.126404	1.506208	-0.102301
O2	O	0.139432	1.175794	-0.102309
O3	O	-0.001288	1.349761	-0.102294
O4	O	0.267124	1.332241	-0.102316
O5	O	-0.001294	1.349747	0.102351
O6	O	0.139426	1.175780	0.102336
O7	O	0.126399	1.506193	0.102344
Zn8	Zn	0.132912	1.340984	0.134832
Zn9	Zn	0.132919	1.341003	-0.134797
O10	O	0.267119	1.332226	0.102329
C11	C	-0.035654	1.348938	0.000029
C12	C	-0.138044	1.346491	0.000030
C13	C	0.127220	1.548487	0.000020
C14	C	0.129669	1.674487	0.000014
C15	C	0.138611	1.133501	0.000013
C16	C	0.136161	1.007501	0.000010
C17	C	-0.512973	1.337483	-0.000003
C18	C	-0.408656	1.339984	0.000007
C19	C	-0.325512	1.341987	0.000015
C20	C	-0.221188	1.344489	0.000022
C21	C	0.301484	1.333050	0.000003
C22	C	0.403875	1.335497	-0.000005
N23	N	0.132906	1.340980	0.318846
C24	C	0.134173	1.905174	0.000015
C25	C	0.131671	1.776803	0.000015
N26	N	0.132917	1.341017	-0.318811
C27	C	0.132917	1.340997	0.569852
C28	C	0.132914	1.340984	0.430174
