data_functionalizedCrystal
_audit_creation_method	'MofGen! by Chris Wilmer'
_symmetry_space_group_name_H-M	'P1'
_symmetry_Int_Tables_number	1
_symmetry_cell_setting	triclinic
loop_
_symmetry_equiv_pos_as_xyz
  x,y,z
_cell_length_a	15.021413
_cell_length_b	17.699083
_cell_length_c	17.699083
_cell_angle_alpha	96.716985
_cell_angle_beta	90.009441
_cell_angle_gamma	90.001011
loop_
_atom_site_label
_atom_site_type_symbol
_atom_site_fract_x
_atom_site_fract_y
_atom_site_fract_z
O1	O	0.073909	-1.004076	0.095715
O2	O	0.323909	-0.754076	0.345715
O3	O	0.573909	-0.504076	0.595715
O4	O	0.823909	-0.254076	0.845715
O5	O	0.073938	-0.783697	0.108168
O6	O	0.323938	-0.533697	0.358168
O7	O	0.573938	-0.283697	0.608168
O8	O	0.823938	-0.033697	0.858168
O9	O	0.073915	-0.900113	-0.008248
O10	O	0.323915	-0.650113	0.241752
O11	O	0.573915	-0.400113	0.491752
O12	O	0.823915	-0.150113	0.741752
O13	O	0.073932	-0.887660	0.212131
O14	O	0.323932	-0.637660	0.462131
O15	O	0.573932	-0.387660	0.712131
O16	O	0.823932	-0.137660	0.962131
O17	O	-0.074149	-0.900103	-0.008260
O18	O	0.175851	-0.650103	0.241740
O19	O	0.425851	-0.400103	0.491740
O20	O	0.675851	-0.150103	0.741740
O21	O	-0.074126	-0.783687	0.108156
O22	O	0.175874	-0.533687	0.358156
O23	O	0.425874	-0.283687	0.608156
O24	O	0.675874	-0.033687	0.858156
O25	O	-0.074155	-1.004066	0.095703
O26	O	0.175845	-0.754066	0.345703
O27	O	0.425845	-0.504066	0.595703
O28	O	0.675845	-0.254066	0.845703
Zn29	Zn	-0.097649	-0.893875	0.101928
Zn30	Zn	0.152351	-0.643875	0.351928
Zn31	Zn	0.402351	-0.393875	0.601928
Zn32	Zn	0.652351	-0.143875	0.851928
Zn33	Zn	0.097432	-0.893888	0.101943
Zn34	Zn	0.347432	-0.643888	0.351943
Zn35	Zn	0.597432	-0.393888	0.601943
Zn36	Zn	0.847432	-0.143888	0.851943
O37	O	-0.074132	-0.887650	0.212119
O38	O	0.175868	-0.637650	0.462119
O39	O	0.425868	-0.387650	0.712119
O40	O	0.675868	-0.137650	0.962119
C41	C	-0.000090	-0.755495	0.107716
C42	C	0.249910	-0.505495	0.357716
C43	C	0.499910	-0.255495	0.607716
C44	C	0.749910	-0.005495	0.857716
C45	C	-0.000079	-0.671477	0.106377
C46	C	0.249921	-0.421477	0.356377
C47	C	0.499921	-0.171477	0.606377
C48	C	0.749921	0.078523	0.856377
N49	N	-0.230786	-0.893871	0.101917
N50	N	0.019214	-0.643871	0.351917
N51	N	0.269214	-0.393871	0.601917
N52	N	0.519214	-0.143871	0.851917
C53	C	-0.000117	-0.899662	-0.036451
C54	C	0.249883	-0.649662	0.213549
C55	C	0.499883	-0.399662	0.463549
C56	C	0.749883	-0.149662	0.713549
C57	C	-0.000117	-0.898323	-0.120469
C58	C	0.249883	-0.648323	0.129531
C59	C	0.499883	-0.398323	0.379531
C60	C	0.749883	-0.148323	0.629531
C61	C	-0.529789	-0.947300	0.047660
C62	C	-0.279789	-0.697300	0.297660
C63	C	-0.029789	-0.447300	0.547660
C64	C	0.220211	-0.197300	0.797660
C65	C	-0.470419	-0.962477	0.115815
C66	C	-0.220419	-0.712477	0.365815
C67	C	0.029581	-0.462477	0.615815
C68	C	0.279581	-0.212477	0.865815
C69	C	-0.587823	-0.893889	0.101940
C70	C	-0.337823	-0.643889	0.351940
C71	C	-0.087823	-0.393889	0.601940
C72	C	0.162177	-0.143889	0.851940
C73	C	-0.470451	-0.878739	0.033775
C74	C	-0.220451	-0.628739	0.283775
C75	C	0.029549	-0.378739	0.533775
C76	C	0.279549	-0.128739	0.783775
C77	C	-0.412399	-0.893882	0.101924
C78	C	-0.162399	-0.643882	0.351924
C79	C	0.087601	-0.393882	0.601924
C80	C	0.337601	-0.143882	0.851924
C81	C	-0.529760	-0.909101	0.170129
C82	C	-0.279760	-0.659101	0.420129
C83	C	-0.029760	-0.409101	0.670129
C84	C	0.220240	-0.159101	0.920129
C85	C	-0.529798	-0.825332	0.088044
C86	C	-0.279798	-0.575332	0.338044
C87	C	-0.029798	-0.325332	0.588044
C88	C	0.220202	-0.075332	0.838044
C89	C	-0.470455	-0.840480	0.156249
C90	C	-0.220455	-0.590480	0.406249
C91	C	0.029545	-0.340480	0.656249
C92	C	0.279545	-0.090480	0.906249
C93	C	-0.688881	-0.893895	0.101947
C94	C	-0.438881	-0.643895	0.351947
C95	C	-0.188881	-0.393895	0.601947
C96	C	0.061119	-0.143895	0.851947
C97	C	-0.311344	-0.893876	0.101925
C98	C	-0.061344	-0.643876	0.351925
C99	C	0.188656	-0.393876	0.601925
C100	C	0.438656	-0.143876	0.851925
N101	N	0.230570	-0.893898	0.101949
N102	N	0.480570	-0.643898	0.351949
N103	N	0.730570	-0.393898	0.601949
N104	N	0.980570	-0.143898	0.851949
C105	C	-0.000125	-1.032268	0.096156
C106	C	0.249875	-0.782268	0.346156
C107	C	0.499875	-0.532268	0.596156
C108	C	0.749875	-0.282268	0.846156
C109	C	-0.000130	-1.116286	0.097494
C110	C	0.249870	-0.866286	0.347494
C111	C	0.499870	-0.616286	0.597494
C112	C	0.749870	-0.366286	0.847494
C113	C	-0.000074	-0.622856	0.174710
C114	C	0.249926	-0.372856	0.424710
C115	C	0.499926	-0.122856	0.674710
C116	C	0.749926	0.127144	0.924710
C117	C	-0.000086	-0.543913	0.173448
C118	C	0.249914	-0.293913	0.423448
C119	C	0.499914	-0.043913	0.673448
C120	C	0.749914	0.206087	0.923448
C121	C	-0.000096	-0.513592	0.103852
C122	C	0.249904	-0.263592	0.353852
C123	C	0.499904	-0.013592	0.603852
C124	C	0.749904	0.236408	0.853852
C125	C	-0.000104	-0.562219	0.035513
C126	C	0.249896	-0.312219	0.285513
C127	C	0.499896	-0.062219	0.535513
C128	C	0.749896	0.187781	0.785513
C129	C	-0.000098	-0.641161	0.036776
C130	C	0.249902	-0.391161	0.286776
C131	C	0.499902	-0.141161	0.536776
C132	C	0.749902	0.108839	0.786776
C133	C	-0.000126	-0.243856	0.030418
C134	C	0.249874	0.006144	0.280418
C135	C	0.499874	0.256144	0.530418
C136	C	0.749874	0.506144	0.780418
C137	C	-0.000129	-0.164908	0.029160
C138	C	0.249871	0.085092	0.279160
C139	C	0.499871	0.335092	0.529160
C140	C	0.749871	0.585092	0.779160
C141	C	-0.000113	-0.146608	0.167090
C142	C	0.249887	0.103392	0.417090
C143	C	0.499887	0.353392	0.667090
C144	C	0.749887	0.603392	0.917090
C145	C	-0.000108	-0.225550	0.168353
C146	C	0.249892	0.024450	0.418353
C147	C	0.499892	0.274450	0.668353
C148	C	0.749892	0.524450	0.918353
C149	C	-0.000120	-0.274170	0.100015
C150	C	0.249880	-0.024170	0.350015
C151	C	0.499880	0.225830	0.600015
C152	C	0.749880	0.475830	0.850015
C153	C	-0.000110	-0.359769	0.101384
C154	C	0.249890	-0.109769	0.351384
C155	C	0.499890	0.140231	0.601384
C156	C	0.749890	0.390231	0.851384
C157	C	-0.000100	-0.427995	0.102481
C158	C	0.249900	-0.177995	0.352481
C159	C	0.499900	0.072005	0.602481
C160	C	0.749900	0.322005	0.852481
C161	C	-0.000128	-0.966656	-0.169090
C162	C	0.249872	-0.716656	0.080910
C163	C	0.499872	-0.466656	0.330910
C164	C	0.749872	-0.216656	0.580910
C165	C	-0.000120	-0.965394	-0.248033
C166	C	0.249880	-0.715394	0.001967
C167	C	0.499880	-0.465394	0.251967
C168	C	0.749880	-0.215394	0.501967
C169	C	-0.000108	-0.895798	-0.278354
C170	C	0.249892	-0.645798	-0.028354
C171	C	0.499892	-0.395798	0.221646
C172	C	0.749892	-0.145798	0.471646
C173	C	-0.000095	-0.827459	-0.229727
C174	C	0.249905	-0.577459	0.020273
C175	C	0.499905	-0.327459	0.270273
C176	C	0.749905	-0.077459	0.520273
C177	C	-0.000096	-0.828722	-0.150785
C178	C	0.249904	-0.578722	0.099215
C179	C	0.499904	-0.328722	0.349215
C180	C	0.749904	-0.078722	0.599215
C181	C	-0.000087	-0.822364	-0.548090
C182	C	0.249913	-0.572364	-0.298090
C183	C	0.499913	-0.322364	-0.048090
C184	C	0.749913	-0.072364	0.201910
C185	C	-0.000088	-0.821106	-0.627038
C186	C	0.249912	-0.571106	-0.377038
C187	C	0.499912	-0.321106	-0.127038
C188	C	0.749912	-0.071106	0.122962
C189	C	-0.000110	-0.959036	-0.645338
C190	C	0.249890	-0.709036	-0.395338
C191	C	0.499890	-0.459036	-0.145338
C192	C	0.749890	-0.209036	0.104662
C193	C	-0.000112	-0.960299	-0.566396
C194	C	0.249888	-0.710299	-0.316396
C195	C	0.499888	-0.460299	-0.066396
C196	C	0.749888	-0.210299	0.183604
C197	C	-0.000094	-0.891961	-0.517776
C198	C	0.249906	-0.641961	-0.267776
C199	C	0.499906	-0.391961	-0.017776
C200	C	0.749906	-0.141961	0.232224
C201	C	-0.000101	-0.893330	-0.432177
C202	C	0.249899	-0.643330	-0.182177
C203	C	0.499899	-0.393330	0.067823
C204	C	0.749899	-0.143330	0.317823
C205	C	-0.000107	-0.894427	-0.363951
C206	C	0.249893	-0.644427	-0.113951
C207	C	0.499893	-0.394427	0.136049
C208	C	0.749893	-0.144427	0.386049
C209	C	-0.000098	-0.888102	0.240322
C210	C	0.249902	-0.638102	0.490322
C211	C	0.499902	-0.388102	0.740322
C212	C	0.749902	-0.138102	0.990322
C213	C	-0.000092	-0.889440	0.324340
C214	C	0.249908	-0.639440	0.574340
C215	C	0.499908	-0.389440	0.824340
C216	C	0.749908	-0.139440	1.074340
H217	H	-0.555839	-0.992501	0.001815
H218	H	-0.305839	-0.742501	0.251815
H219	H	-0.055839	-0.492501	0.501815
H220	H	0.194161	-0.242501	0.751815
H221	H	-0.444398	-0.865927	-0.023865
H222	H	-0.194398	-0.615927	0.226135
H223	H	0.055602	-0.365927	0.476135
H224	H	0.305602	-0.115927	0.726135
H225	H	-0.000079	-0.770792	-0.254420
H226	H	0.249921	-0.520792	-0.004420
H227	H	0.499921	-0.270792	0.245580
H228	H	0.749921	-0.020792	0.495580
H229	H	-0.000130	-1.021038	-0.287618
H230	H	0.249870	-0.771038	-0.037618
H231	H	0.499870	-0.521038	0.212382
H232	H	0.749870	-0.271038	0.462382
H233	H	-0.444336	-1.020452	0.127568
H234	H	-0.194336	-0.770452	0.377568
H235	H	0.055664	-0.520452	0.627568
H236	H	0.305664	-0.270452	0.877568
H237	H	-0.555703	-0.921975	0.227782
H238	H	-0.305703	-0.671975	0.477782
H239	H	-0.055703	-0.421975	0.727782
H240	H	0.194297	-0.171975	0.977782
H241	H	-0.000080	-0.764429	-0.651721
H242	H	0.249920	-0.514429	-0.401721
H243	H	0.499920	-0.264429	-0.151721
H244	H	0.749920	-0.014429	0.098279
H245	H	-0.000102	-0.680748	-0.018868
H246	H	0.249898	-0.430748	0.231132
H247	H	0.499898	-0.180748	0.481132
H248	H	0.749898	0.069252	0.731132
H249	H	-0.000143	-1.023330	-0.144409
H250	H	0.249857	-0.773330	0.105591
H251	H	0.499857	-0.523330	0.355591
H252	H	0.749857	-0.273330	0.605591
H253	H	-0.000080	-0.504328	0.229092
H254	H	0.249920	-0.254328	0.479092
H255	H	0.499920	-0.004328	0.729092
H256	H	0.749920	0.245672	0.979092
H257	H	-0.000065	-0.647537	0.231384
H258	H	0.249935	-0.397537	0.481384
H259	H	0.499935	-0.147537	0.731384
H260	H	0.749935	0.102463	0.981384
H261	H	-0.000095	-0.250232	0.225025
H262	H	0.249905	-0.000232	0.475025
H263	H	0.499905	0.249768	0.725025
H264	H	0.749905	0.499768	0.975025
H265	H	-0.555900	-0.767376	0.076270
H266	H	-0.305900	-0.517376	0.326270
H267	H	-0.055900	-0.267376	0.576270
H268	H	0.194100	-0.017376	0.826270
H269	H	-0.000120	-1.014680	-0.684934
H270	H	0.249880	-0.764680	-0.434934
H271	H	0.499880	-0.514680	-0.184934
H272	H	0.749880	-0.264680	0.065066
H273	H	-0.000072	-0.766718	-0.508512
H274	H	0.249928	-0.516718	-0.258512
H275	H	0.499928	-0.266718	-0.008512
H276	H	0.749928	-0.016718	0.241488
H277	H	-0.000137	-0.283434	-0.025228
H278	H	0.249863	-0.033434	0.224772
H279	H	0.499863	0.216566	0.474772
H280	H	0.749863	0.466566	0.724772
H281	H	-0.000126	-1.016971	-0.541714
H282	H	0.249874	-0.766971	-0.291714
H283	H	0.499874	-0.516971	-0.041714
H284	H	0.749874	-0.266971	0.208286
H285	H	-0.000088	-0.773078	-0.111198
H286	H	0.249912	-0.523078	0.138802
H287	H	0.499912	-0.273078	0.388802
H288	H	0.749912	-0.023078	0.638802
H289	H	-0.444568	-0.795307	0.202194
H290	H	-0.194568	-0.545307	0.452194
H291	H	0.055432	-0.295307	0.702194
H292	H	0.305432	-0.045307	0.952194
H293	H	-0.000108	-0.107012	0.222734
H294	H	0.249892	0.142988	0.472734
H295	H	0.499892	0.392988	0.722734
H296	H	0.749892	0.642988	0.972734
H297	H	-0.000138	-0.140225	-0.027517
H298	H	0.249862	0.109775	0.222483
H299	H	0.499862	0.359775	0.472483
H300	H	0.749862	0.609775	0.722483
H301	H	-0.000125	-0.537526	-0.021154
H302	H	0.249875	-0.287526	0.228846
H303	H	0.499875	-0.037526	0.478846
H304	H	0.749875	0.212474	0.728846
