data_functionalizedCrystal
_audit_creation_method	'MofGen! by Chris Wilmer'
_symmetry_space_group_name_H-M	'P1'
_symmetry_Int_Tables_number	1
_symmetry_cell_setting	triclinic
loop_
_symmetry_equiv_pos_as_xyz
  x,y,z
_cell_length_a	29.839131
_cell_length_b	18.215407
_cell_length_c	29.839125
_cell_angle_alpha	90.014050
_cell_angle_beta	89.988394
_cell_angle_gamma	89.958132
loop_
_atom_site_label
_atom_site_type_symbol
_atom_site_fract_x
_atom_site_fract_y
_atom_site_fract_z
Zn1	Zn	-0.178938	-1.124945	-0.254010
Zn2	Zn	0.321062	-0.624945	0.245990
Zn3	Zn	-0.254042	-1.124831	-0.178880
Zn4	Zn	0.245958	-0.624831	0.321120
Zn5	Zn	-0.178927	-1.001890	-0.178892
Zn6	Zn	0.321073	-0.501890	0.321108
Zn7	Zn	-0.254042	-1.001808	-0.253981
Zn8	Zn	0.245958	-0.501808	0.246019
O9	O	-0.216487	-1.063369	-0.216441
O10	O	0.283513	-0.563369	0.283559
O11	O	-0.188905	-1.227914	-0.244051
O12	O	0.311095	-0.727914	0.255949
O13	O	-0.244073	-1.108509	-0.116015
O14	O	0.255927	-0.608509	0.383985
O15	O	-0.116062	-1.018296	-0.188874
O16	O	0.383938	-0.518296	0.311126
O17	O	-0.244084	-1.227830	-0.188853
O18	O	0.255916	-0.727830	0.311147
O19	O	-0.116069	-1.108704	-0.244063
O20	O	0.383931	-0.608704	0.255937
O21	O	-0.188887	-1.018185	-0.116024
O22	O	0.311113	-0.518185	0.383976
O23	O	-0.188887	-0.898895	-0.188846
O24	O	0.311113	-0.398895	0.311154
O25	O	-0.244084	-1.018156	-0.316852
O26	O	0.255916	-0.518156	0.183148
O27	O	-0.244074	-0.898835	-0.244013
O28	O	0.255926	-0.398835	0.255987
O29	O	-0.188905	-1.108625	-0.316873
O30	O	0.311095	-0.608625	0.183127
O31	O	-0.316909	-1.108429	-0.188825
O32	O	0.183091	-0.608429	0.311175
O33	O	-0.316909	-1.018045	-0.244002
O34	O	0.183091	-0.518045	0.255998
C35	C	-0.216480	-0.872162	-0.216428
C36	C	0.283520	-0.372162	0.283572
C37	C	-0.216487	-0.790363	-0.216433
C38	C	0.283513	-0.290363	0.283567
C39	C	-0.333210	-1.063236	-0.216419
C40	C	0.166790	-0.563236	0.283581
C41	C	-0.383144	-1.063246	-0.216424
C42	C	0.116856	-0.563246	0.283576
C43	C	-0.216496	-1.063394	-0.333619
C44	C	0.283504	-0.563394	0.166381
C45	C	-0.216499	-1.063405	-0.383554
C46	C	0.283501	-0.563405	0.116446
C47	C	-0.692775	-1.110517	-0.187753
C48	C	-0.192775	-0.610517	0.312247
C49	C	-0.880448	-1.110608	-0.187770
C50	C	-0.380448	-0.610608	0.312230
O51	O	-0.904702	-1.150694	-0.163375
O52	O	-0.404702	-0.650694	0.336625
N53	N	-0.903929	-1.063521	-0.216475
N54	N	-0.403929	-0.563521	0.283525
C55	C	-0.880490	-1.016412	-0.245179
C56	C	-0.380490	-0.516412	0.254821
O57	O	-0.904768	-0.976369	-0.269598
O58	O	-0.404768	-0.476369	0.230402
C59	C	-0.692818	-1.016325	-0.245164
C60	C	-0.192818	-0.516325	0.254836
C61	C	-0.669339	-1.063410	-0.216454
C62	C	-0.169339	-0.563410	0.283546
C63	C	-0.669296	-1.157598	-0.159045
C64	C	-0.169296	-0.657598	0.340955
C65	C	-0.622381	-1.157572	-0.159040
C66	C	-0.122381	-0.657572	0.340960
C67	C	-0.598944	-1.110465	-0.187741
C68	C	-0.098944	-0.610465	0.312259
C69	C	-0.622423	-1.063384	-0.216448
C70	C	-0.122423	-0.563384	0.283552
C71	C	-0.669379	-0.969220	-0.273870
C72	C	-0.169379	-0.469220	0.226130
C73	C	-0.622458	-0.969204	-0.273865
C74	C	-0.122458	-0.469204	0.226135
C75	C	-0.598979	-1.016288	-0.245155
C76	C	-0.098979	-0.516288	0.254845
C77	C	-0.552071	-1.016250	-0.245144
C78	C	-0.052071	-0.516250	0.254856
N79	N	-0.528590	-1.063337	-0.216439
N80	N	-0.028590	-0.563337	0.283561
C81	C	-0.552026	-1.110445	-0.187738
C82	C	-0.052026	-0.610445	0.312262
C83	C	-0.979020	-1.016460	-0.245185
C84	C	-0.479020	-0.516460	0.254815
C85	C	-1.025938	-1.016480	-0.245188
C86	C	-0.525938	-0.516480	0.254812
C87	C	-1.025893	-1.110677	-0.187779
C88	C	-0.525893	-0.610677	0.312221
C89	C	-0.978975	-1.110653	-0.187774
C90	C	-0.478975	-0.610653	0.312226
C91	C	-0.955539	-1.063546	-0.216480
C92	C	-0.455539	-0.563546	0.283520
C93	C	-0.453501	-1.110386	-0.187727
C94	C	0.046499	-0.610386	0.312273
C95	C	-0.406581	-1.110354	-0.187723
C96	C	0.093419	-0.610354	0.312277
C97	C	-0.406630	-1.016159	-0.245133
C98	C	0.093370	-0.516159	0.254867
C99	C	-0.453545	-1.016189	-0.245136
C100	C	0.046455	-0.516189	0.254864
C101	C	-0.476980	-1.063308	-0.216432
C102	C	0.023020	-0.563308	0.283568
O103	O	-0.527788	-0.976191	-0.269529
O104	O	-0.027788	-0.476191	0.230471
O105	O	-0.527740	-1.150493	-0.163329
O106	O	-0.027740	-0.650493	0.336671
C107	C	-0.739691	-1.110543	-0.187758
C108	C	-0.239691	-0.610543	0.312242
C109	C	-0.763170	-1.063462	-0.216466
C110	C	-0.263170	-0.563462	0.283534
C111	C	-0.739733	-1.016354	-0.245167
C112	C	-0.239733	-0.516354	0.254833
C113	C	-0.810087	-1.063482	-0.216469
C114	C	-0.310087	-0.563482	0.283531
C115	C	-0.833524	-1.110590	-0.187768
C116	C	-0.333524	-0.610590	0.312232
C117	C	-0.810042	-1.157677	-0.159063
C118	C	-0.310042	-0.657677	0.340937
C119	C	-0.763127	-1.157650	-0.159057
C120	C	-0.263127	-0.657650	0.340943
C121	C	-0.763214	-0.969268	-0.273872
C122	C	-0.263214	-0.469268	0.226128
C123	C	-0.810130	-0.969297	-0.273875
C124	C	-0.310130	-0.469297	0.226125
C125	C	-0.833566	-1.016404	-0.245173
C126	C	-0.333566	-0.516404	0.254827
C127	C	-0.099309	-1.063522	-0.216473
C128	C	0.400691	-0.563522	0.283527
C129	C	-0.049375	-1.063587	-0.216487
C130	C	0.450625	-0.563587	0.283513
C131	C	-0.216495	-1.255322	-0.216454
C132	C	0.283505	-0.755322	0.283546
C133	C	-0.216499	-1.337120	-0.216460
C134	C	0.283501	-0.837120	0.283540
C135	C	-0.245268	-0.602157	-0.245123
C136	C	0.254732	-0.102157	0.254877
C137	C	-0.245269	-0.525299	-0.245128
C138	C	0.254731	-0.025299	0.254872
C139	C	-0.187715	-0.525332	-0.187769
C140	C	0.312285	-0.025332	0.312231
C141	C	-0.187712	-0.602189	-0.187766
C142	C	0.312288	-0.102189	0.312234
C143	C	-0.216491	-0.640600	-0.216442
C144	C	0.283509	-0.140600	0.283558
C145	C	-0.216495	-0.486884	-0.216451
C146	C	0.283505	0.013116	0.283549
C147	C	-0.216497	-0.403550	-0.216457
C148	C	0.283503	0.096450	0.283543
C149	C	-0.216489	-0.723939	-0.216437
C150	C	0.283511	-0.223939	0.283563
C151	C	-0.245128	-1.016349	-0.740130
C152	C	0.254872	-0.516349	-0.240130
C153	C	-0.245180	-1.016323	-0.552457
C154	C	0.254820	-0.516323	-0.052457
O155	O	-0.269605	-0.976242	-0.528183
O156	O	0.230395	-0.476242	-0.028183
N157	N	-0.216458	-1.063421	-0.528999
N158	N	0.283542	-0.563421	-0.028999
C159	C	-0.187719	-1.110526	-0.552462
C160	C	0.312281	-0.610526	-0.052462
O161	O	-0.163287	-1.150581	-0.528204
O162	O	0.336713	-0.650581	-0.028204
C163	C	-0.187665	-1.110548	-0.740135
C164	C	0.312335	-0.610548	-0.240135
C165	C	-0.216392	-1.063452	-0.763590
C166	C	0.283608	-0.563452	-0.263590
C167	C	-0.273852	-0.969256	-0.763585
C168	C	0.226148	-0.469256	-0.263585
C169	C	-0.273841	-0.969266	-0.810501
C170	C	0.226159	-0.469266	-0.310501
C171	C	-0.245105	-1.016369	-0.833961
C172	C	0.254895	-0.516369	-0.333961
C173	C	-0.216381	-1.063462	-0.810505
C174	C	0.283619	-0.563462	-0.310505
C175	C	-0.158924	-1.157649	-0.763597
C176	C	0.341076	-0.657649	-0.263597
C177	C	-0.158913	-1.157649	-0.810518
C178	C	0.341087	-0.657649	-0.310518
C179	C	-0.187640	-1.110553	-0.833973
C180	C	0.312360	-0.610553	-0.333973
C181	C	-0.187633	-1.110575	-0.880881
C182	C	0.312367	-0.610575	-0.380881
N183	N	-0.216355	-1.063476	-0.904339
N184	N	0.283645	-0.563476	-0.404339
C185	C	-0.245091	-1.016373	-0.880879
C186	C	0.254909	-0.516373	-0.380879
C187	C	-0.187750	-1.110512	-0.453932
C188	C	0.312250	-0.610512	0.046068
C189	C	-0.187764	-1.110508	-0.407014
C190	C	0.312236	-0.610508	0.092986
C191	C	-0.245224	-1.016303	-0.407012
C192	C	0.254776	-0.516303	0.092988
C193	C	-0.245212	-1.016312	-0.453930
C194	C	0.254788	-0.516312	0.046070
C195	C	-0.216472	-1.063414	-0.477389
C196	C	0.283528	-0.563414	0.022611
C197	C	-0.245065	-1.016398	-0.979405
C198	C	0.254935	-0.516398	-0.479405
C199	C	-0.245052	-1.016414	-1.026324
C200	C	0.254948	-0.516414	-0.526324
C201	C	-0.187590	-1.110616	-1.026322
C202	C	0.312410	-0.610616	-0.526322
C203	C	-0.187605	-1.110603	-0.979407
C204	C	0.312395	-0.610603	-0.479407
C205	C	-0.216343	-1.063488	-0.955949
C206	C	0.283657	-0.563488	-0.455949
O207	O	-0.163217	-1.150629	-0.905184
O208	O	0.336783	-0.650629	-0.405184
O209	O	-0.269512	-0.976314	-0.905145
O210	O	0.230488	-0.476314	-0.405145
C211	C	-0.245140	-1.016339	-0.693214
C212	C	0.254860	-0.516339	-0.193214
C213	C	-0.216415	-1.063432	-0.669759
C214	C	0.283585	-0.563432	-0.169759
C215	C	-0.187679	-1.110535	-0.693219
C216	C	0.312321	-0.610535	-0.193219
C217	C	-0.216429	-1.063428	-0.622841
C218	C	0.283571	-0.563428	-0.122841
C219	C	-0.245165	-1.016325	-0.599381
C220	C	0.254835	-0.516325	-0.099381
C221	C	-0.273887	-0.969226	-0.622839
C222	C	0.226113	-0.469226	-0.122839
C223	C	-0.273875	-0.969236	-0.669754
C224	C	0.226125	-0.469236	-0.169754
C225	C	-0.158957	-1.157634	-0.669761
C226	C	0.341043	-0.657634	-0.169761
C227	C	-0.158972	-1.157621	-0.622846
C228	C	0.341028	-0.657621	-0.122846
C229	C	-0.187707	-1.110518	-0.599386
C230	C	0.312293	-0.610518	-0.099386
C231	C	-0.216447	-1.063386	-0.099718
C232	C	0.283553	-0.563386	0.400282
C233	C	-0.216316	-1.063517	-0.049784
C234	C	0.283684	-0.563517	0.450216
H235	H	-0.387466	-1.148695	-0.164342
H236	H	0.112534	-0.648695	0.335658
Br237	Br	-0.284324	-0.473129	-0.284056
Br238	Br	0.215676	0.026871	0.215944
Br239	Br	-0.148660	-0.473198	-0.148853
Br240	Br	0.351340	0.026802	0.351147
H241	H	-1.045051	-0.978132	-0.268563
H242	H	-0.545051	-0.478132	0.231437
H243	H	-0.268623	-0.977951	-0.387902
H244	H	0.231377	-0.477951	0.112098
H245	H	-0.164275	-0.633490	-0.164411
H246	H	0.335725	-0.133490	0.335589
Br247	Br	-0.284044	-0.952498	-1.058154
Br248	Br	0.215956	-0.452498	-0.558154
H249	H	-0.164376	-1.148866	-0.387920
H250	H	0.335624	-0.648866	0.112080
H251	H	-0.268701	-0.633429	-0.268474
H252	H	0.231299	-0.133429	0.231526
H253	H	-0.164345	-1.148872	-0.473028
H254	H	0.335655	-0.648872	0.026972
Br255	Br	-0.312830	-0.905346	-0.842326
Br256	Br	0.187170	-0.405346	-0.342326
Br257	Br	-0.284068	-0.952456	-0.947576
Br258	Br	0.215932	-0.452456	-0.447576
Br259	Br	-0.312855	-0.905320	-0.731756
Br260	Br	0.187145	-0.405320	-0.231756
Br261	Br	-0.284200	-0.952393	-0.485758
Br262	Br	0.215800	-0.452393	0.014242
H263	H	-0.297286	-0.930876	-0.603730
H264	H	0.202714	-0.430876	-0.103730
Br265	Br	-0.119935	-1.221569	-0.731777
Br266	Br	0.380065	-0.721569	-0.231777
H267	H	-0.603267	-1.195915	-0.135663
H268	H	-0.103267	-0.695915	0.364337
H269	H	-0.135506	-1.196003	-0.829616
H270	H	0.364494	-0.696003	-0.329616
H271	H	-0.164216	-1.148958	-0.960308
H272	H	0.335784	-0.648958	-0.460308
Br273	Br	-0.947222	-0.952523	-0.284147
Br274	Br	-0.447222	-0.452523	0.215853
Br275	Br	-0.485297	-1.174334	-0.148771
Br276	Br	0.014703	-0.674334	0.351229
Br277	Br	-0.148595	-1.174541	-1.058170
Br278	Br	0.351405	-0.674541	-0.558170
Br279	Br	-0.119984	-1.221548	-0.591019
Br280	Br	0.380016	-0.721548	-0.091019
H281	H	-0.688373	-1.195963	-0.135673
H282	H	-0.188373	-0.695963	0.364327
Br283	Br	-0.947115	-1.174555	-0.148809
Br284	Br	-0.447115	-0.674555	0.351191
H285	H	-1.044983	-1.149034	-0.164410
H286	H	-0.544983	-0.649034	0.335590
H287	H	-0.688487	-0.930875	-0.297247
H288	H	-0.188487	-0.430875	0.202753
H289	H	-0.297268	-0.930885	-0.688848
H290	H	0.202732	-0.430885	-0.188848
H291	H	-0.603379	-0.930845	-0.297242
H292	H	-0.103379	-0.430845	0.202758
H293	H	-0.472663	-0.977851	-0.268516
H294	H	0.027337	-0.477851	0.231484
H295	H	-0.829133	-1.196031	-0.135692
H296	H	-0.329133	-0.696031	0.364308
H297	H	-0.135557	-1.195991	-0.688858
H298	H	0.364443	-0.695991	-0.188858
H299	H	-0.387541	-0.977803	-0.268500
H300	H	0.112459	-0.477803	0.231500
H301	H	-0.744014	-1.195991	-0.135679
H302	H	-0.244014	-0.695991	0.364321
H303	H	-0.744136	-0.930908	-0.297245
H304	H	-0.244136	-0.430908	0.202755
Br305	Br	-0.841988	-0.905388	-0.312841
Br306	Br	-0.341988	-0.405388	0.187159
