data_functionalizedCrystal
_audit_creation_method	'MofGen! by Chris Wilmer'
_symmetry_space_group_name_H-M	'P1'
_symmetry_Int_Tables_number	1
_symmetry_cell_setting	triclinic
loop_
_symmetry_equiv_pos_as_xyz
  x,y,z
_cell_length_a	10.489746
_cell_length_b	23.532357
_cell_length_c	8.965430
_cell_angle_alpha	89.994894
_cell_angle_beta	89.999075
_cell_angle_gamma	83.684797
loop_
_atom_site_label
_atom_site_type_symbol
_atom_site_fract_x
_atom_site_fract_y
_atom_site_fract_z
O1	O	1.691346	0.080356	-0.123960
O2	O	1.319897	0.087894	-0.123986
O3	O	1.516856	0.001266	-0.123942
O4	O	1.494388	0.166984	-0.124004
O5	O	1.516839	0.001272	0.124137
O6	O	1.319881	0.087900	0.124092
O7	O	1.691329	0.080361	0.124119
Cu8	Cu	1.505604	0.084131	0.146757
Cu9	Cu	1.505623	0.084124	-0.146625
O10	O	1.494371	0.166990	0.124074
C11	C	1.272377	0.087327	0.000050
C12	C	1.130805	0.085622	0.000041
C13	C	1.516286	-0.019952	0.000103
C14	C	1.514596	-0.083181	0.000116
C15	C	0.979836	0.029493	0.000083
C16	C	1.056277	0.057558	0.122384
C17	C	1.056249	0.057565	-0.122202
C18	C	0.954998	0.110677	0.122481
C19	C	0.954965	0.110676	-0.122215
C20	C	1.031356	0.138780	0.000115
C21	C	1.503997	-0.475266	-0.135193
C22	C	1.502391	-0.534676	-0.135201
O23	O	1.501525	-0.565401	-0.250207
N24	N	1.501586	-0.564390	0.000025
C25	C	1.502373	-0.534689	0.135268
O26	O	1.501539	-0.565418	0.250287
C27	C	1.503970	-0.475280	0.135275
C28	C	1.504789	-0.445570	0.000040
C29	C	1.504814	-0.445557	-0.270416
C30	C	1.506423	-0.386151	-0.270407
C31	C	1.507214	-0.356455	-0.135174
C32	C	1.506397	-0.386164	0.000049
C33	C	1.504749	-0.445580	0.270517
C34	C	1.506345	-0.386166	0.270512
C35	C	1.507163	-0.356457	0.135277
C36	C	1.508797	-0.297062	0.135292
N37	N	1.509603	-0.267349	0.000066
C38	C	1.508811	-0.297045	-0.135167
C39	C	1.499017	-0.659453	0.135243
C40	C	1.497429	-0.718862	0.135237
C41	C	1.497445	-0.718845	-0.135232
C42	C	1.499042	-0.659435	-0.135225
C43	C	1.499823	-0.629740	0.000017
C44	C	1.512191	-0.172288	-0.135138
C45	C	1.513805	-0.112878	-0.135116
C46	C	1.513782	-0.112899	0.135352
C47	C	1.512175	-0.172305	0.135332
C48	C	1.511375	-0.201998	0.000075
O49	O	1.509659	-0.266299	0.250239
O50	O	1.509629	-0.266308	-0.250167
C51	C	1.738850	0.080929	0.000080
C52	C	1.880422	0.082634	0.000079
C53	C	1.494941	0.188207	0.000027
C54	C	1.496631	0.251437	0.000003
N55	N	1.505599	0.084136	0.353107
N56	N	1.505638	0.084115	-0.352974
C57	C	1.414485	0.124185	0.450392
C58	C	1.529593	0.135709	0.549809
C59	C	1.390539	0.072617	0.549817
C60	C	1.620765	0.095686	0.450335
C61	C	1.481636	0.032570	0.450334
C62	C	1.596828	0.044073	0.549706
H63	H	0.956670	-0.016715	0.000224
O64	O	1.058873	0.193922	0.000366
C65	C	1.162511	0.266281	0.128396
C66	C	1.131461	0.203819	0.128269
H67	H	1.221180	0.274306	0.231811
H68	H	1.219897	0.274585	0.024161
H69	H	1.069348	0.296208	0.129355
H70	H	1.224558	0.173852	0.127363
H71	H	1.074023	0.195562	0.232496
O72	O	1.108893	0.030874	-0.245718
C73	C	1.114959	0.028025	-0.514315
C74	C	1.055262	0.058318	-0.374570
H75	H	1.071603	0.050193	-0.618527
H76	H	1.223076	0.029960	-0.513827
H77	H	1.094329	-0.018538	-0.514037
H78	H	1.075795	0.104892	-0.374757
H79	H	0.947162	0.056337	-0.375112
H80	H	1.100502	0.035127	0.225802
O81	O	1.503823	-0.474411	-0.401755
C82	C	1.391584	-0.535496	-0.558756
C83	C	1.392517	-0.502840	-0.409967
H84	H	1.301616	-0.558499	-0.565430
H85	H	1.392359	-0.504068	-0.655445
H86	H	1.480152	-0.568132	-0.565498
H87	H	1.303964	-0.470204	-0.403079
H88	H	1.391808	-0.534302	-0.313348
H89	H	0.910958	0.133097	0.225997
H90	H	1.718106	0.105472	0.406820
O91	O	0.902297	0.137493	-0.245549
C92	C	0.870046	0.225107	-0.386420
C93	C	0.929783	0.194810	-0.246688
H94	H	0.892223	0.271456	-0.387371
H95	H	0.911884	0.202420	-0.490667
H96	H	0.761714	0.223881	-0.384613
H97	H	1.038114	0.196027	-0.248351
H98	H	0.887844	0.217506	-0.142502
H99	H	1.514474	-0.088691	-0.245246
O100	O	1.499768	-0.630662	-0.266724
C101	C	1.499697	-0.636937	-0.534991
C102	C	1.498846	-0.669587	-0.386171
H103	H	1.498979	-0.668394	-0.631602
H104	H	1.411152	-0.604291	-0.541869
H105	H	1.589691	-0.613952	-0.541668
H106	H	1.408911	-0.692606	-0.379394
H107	H	1.587451	-0.702200	-0.379356
O108	O	1.511451	-0.201041	-0.266657
C109	C	1.511514	-0.194731	-0.534922
C110	C	1.512391	-0.162101	-0.386087
H111	H	1.512247	-0.163262	-0.631520
H112	H	1.600043	-0.227385	-0.541818
H113	H	1.421504	-0.217704	-0.541603
H114	H	1.602342	-0.139094	-0.379306
H115	H	1.423802	-0.129480	-0.379254
O116	O	1.457229	-0.019378	0.397972
C117	C	1.318001	-0.071791	0.250183
C118	C	1.345529	-0.012924	0.309355
H119	H	1.227677	-0.066595	0.178549
H120	H	1.402571	-0.091116	0.180113
H121	H	1.303334	-0.101252	0.348183
H122	H	1.360169	0.016581	0.211446
H123	H	1.260945	0.006354	0.379469
O124	O	1.506906	-0.357244	-0.401723
C125	C	1.397857	-0.284269	-0.558736
C126	C	1.397259	-0.316934	-0.409917
H127	H	1.309204	-0.251680	-0.565424
H128	H	1.487758	-0.261230	-0.565735
H129	H	1.397016	-0.315750	-0.655280
H130	H	1.398054	-0.285491	-0.313288
H131	H	1.307365	-0.339983	-0.403049
O132	O	1.504134	-0.474473	0.401836
C133	C	1.612667	-0.547592	0.558829
C134	C	1.613566	-0.514903	0.410071
H135	H	1.701119	-0.580295	0.565522
H136	H	1.613563	-0.516191	0.655548
H137	H	1.522587	-0.570518	0.565499
H138	H	1.703631	-0.491975	0.403254
H139	H	1.612602	-0.546331	0.313422
H140	H	1.337502	0.158085	0.406786
H141	H	1.496796	-0.743034	-0.245347
O142	O	1.554022	0.187678	0.602030
C143	C	1.694383	0.240277	0.747688
C144	C	1.666901	0.181389	0.688620
H145	H	1.785629	0.235211	0.817734
H146	H	1.707289	0.270012	0.649748
H147	H	1.610506	0.259203	0.819400
H148	H	1.750738	0.162413	0.616931
H149	H	1.653944	0.151694	0.786629
H150	H	1.496782	-0.743048	0.245359
O151	O	1.507276	-0.357270	0.401801
C152	C	1.619611	-0.296244	0.558869
C153	C	1.618701	-0.328928	0.410118
H154	H	1.709701	-0.273331	0.565656
H155	H	1.531153	-0.263547	0.565652
H156	H	1.618686	-0.327698	0.655479
H157	H	1.619669	-0.297517	0.313424
H158	H	1.707151	-0.361634	0.403466
H159	H	1.673980	0.010194	0.593039
H160	H	1.499657	-0.635279	0.245380
H161	H	1.511520	-0.196497	0.245451
H162	H	1.514432	-0.088710	0.245456
H163	H	1.293219	0.062883	0.593519
