data_functionalizedCrystal
_audit_creation_method	'MofGen! by Chris Wilmer'
_symmetry_space_group_name_H-M	'P1'
_symmetry_Int_Tables_number	1
_symmetry_cell_setting	triclinic
loop_
_symmetry_equiv_pos_as_xyz
  x,y,z
_cell_length_a	16.959455
_cell_length_b	25.639239
_cell_length_c	16.959447
_cell_angle_alpha	89.966924
_cell_angle_beta	89.985678
_cell_angle_gamma	90.035633
loop_
_atom_site_label
_atom_site_type_symbol
_atom_site_fract_x
_atom_site_fract_y
_atom_site_fract_z
Zn1	Zn	1.208282	-0.208183	-0.446894
Zn2	Zn	1.708282	0.291817	0.053106
Zn3	Zn	1.208161	-0.295624	-0.314709
Zn4	Zn	1.708161	0.204376	0.185291
Zn5	Zn	1.076110	-0.208199	-0.314731
Zn6	Zn	1.576110	0.291801	0.185269
Zn7	Zn	1.076032	-0.295585	-0.446847
Zn8	Zn	1.576032	0.204415	0.053153
O9	O	1.142146	-0.251898	-0.380795
O10	O	1.642146	0.248102	0.119205
O11	O	1.318876	-0.219792	-0.429369
O12	O	1.818876	0.280208	0.070631
O13	O	1.190627	-0.284050	-0.204101
O14	O	1.690627	0.215950	0.295899
O15	O	1.093726	-0.135032	-0.332291
O16	O	1.593726	0.364968	0.167709
O17	O	1.318788	-0.284034	-0.332253
O18	O	1.818788	0.215966	0.167747
O19	O	1.190832	-0.135020	-0.429391
O20	O	1.690832	0.364980	0.070609
O21	O	1.093609	-0.219820	-0.204117
O22	O	1.593609	0.280180	0.295883
O23	O	0.965489	-0.219782	-0.332247
O24	O	1.465489	0.280218	0.167753
O25	O	1.093593	-0.283967	-0.557464
O26	O	1.593593	0.216033	-0.057464
O27	O	0.965431	-0.283983	-0.429312
O28	O	1.465431	0.216017	0.070688
O29	O	1.190756	-0.219754	-0.557498
O30	O	1.690756	0.280246	-0.057498
O31	O	1.190551	-0.368784	-0.332208
O32	O	1.690551	0.131216	0.167792
O33	O	1.093476	-0.368755	-0.429290
O34	O	1.593476	0.131245	0.070710
C35	C	0.936780	-0.251880	-0.380777
C36	C	1.436780	0.248120	0.119223
C37	C	0.848923	-0.251886	-0.380788
C38	C	1.348923	0.248114	0.119212
C39	C	0.477453	-0.218441	-0.330359
C40	C	0.977453	0.281559	0.169641
C41	C	0.477442	-0.285398	-0.431277
C42	C	0.977442	0.214602	0.068723
C43	C	0.559988	-0.285390	-0.431272
C44	C	1.059988	0.214610	0.068728
C45	C	0.601270	-0.251908	-0.380809
C46	C	1.101270	0.248092	0.119191
C47	C	0.560007	-0.218433	-0.330351
C48	C	1.060007	0.281567	0.169649
C49	C	0.601258	-0.318868	-0.481723
C50	C	1.101258	0.181132	0.018277
C51	C	0.683809	-0.318863	-0.481720
C52	C	1.183809	0.181137	0.018280
C53	C	0.725092	-0.285377	-0.431260
C54	C	1.225092	0.214623	0.068740
C55	C	0.683824	-0.251901	-0.380801
C56	C	1.183824	0.248099	0.119199
C57	C	0.725106	-0.218418	-0.330338
C58	C	1.225106	0.281582	0.169662
C59	C	0.683839	-0.184939	-0.279882
C60	C	1.183839	0.315061	0.220118
C61	C	0.601290	-0.184948	-0.279891
C62	C	1.101290	0.315052	0.220109
C63	C	0.807641	-0.285368	-0.431251
C64	C	1.307641	0.214632	0.068749
C65	C	0.807660	-0.218411	-0.330330
C66	C	1.307660	0.281589	0.169670
C67	C	1.142013	-0.387740	-0.380759
C68	C	1.642013	0.112260	0.119241
C69	C	1.142029	-0.445854	-0.380770
C70	C	1.642029	0.054146	0.119230
C71	C	1.192825	-0.806220	-0.330331
C72	C	1.692825	-0.306220	0.169669
C73	C	1.192855	-0.860824	-0.330341
C74	C	1.692855	-0.360824	0.169659
O75	O	1.235906	-0.889063	-0.287417
O76	O	1.735906	-0.389063	0.212583
N77	N	1.142285	-0.888137	-0.380847
N78	N	1.642285	-0.388137	0.119153
C79	C	1.091686	-0.860842	-0.431352
C80	C	1.591686	-0.360842	0.068648
O81	O	1.048675	-0.889088	-0.474313
O82	O	1.548675	-0.389088	0.025687
C83	C	1.091660	-0.806239	-0.431345
C84	C	1.591660	-0.306239	0.068655
C85	C	1.142228	-0.778929	-0.380830
C86	C	1.642228	-0.278929	0.119170
C87	C	1.243389	-0.778910	-0.279820
C88	C	1.743389	-0.278910	0.220180
C89	C	1.243358	-0.724309	-0.279809
C90	C	1.743358	-0.224309	0.220191
C91	C	1.192761	-0.697019	-0.330308
C92	C	1.692761	-0.197019	0.169692
C93	C	1.142196	-0.724329	-0.380818
C94	C	1.642196	-0.224329	0.119182
C95	C	1.041066	-0.778946	-0.481853
C96	C	1.541066	-0.278946	0.018147
C97	C	1.041045	-0.724339	-0.481842
C98	C	1.541045	-0.224339	0.018158
C99	C	1.091613	-0.697029	-0.431326
C100	C	1.591613	-0.197029	0.068674
C101	C	1.091568	-0.642437	-0.431306
C102	C	1.591568	-0.142437	0.068694
N103	N	1.142139	-0.615125	-0.380800
N104	N	1.642139	-0.115125	0.119200
C105	C	1.192735	-0.642415	-0.330301
C106	C	1.692735	-0.142415	0.169699
C107	C	1.091746	-0.975513	-0.431364
C108	C	1.591746	-0.475513	0.068636
C109	C	1.091767	-1.030115	-0.431368
C110	C	1.591767	-0.530115	0.068632
C111	C	1.192938	-1.030093	-0.330358
C112	C	1.692938	-0.530093	0.169642
C113	C	1.192912	-0.975490	-0.330351
C114	C	1.692912	-0.475490	0.169649
C115	C	1.142316	-0.948200	-0.380858
C116	C	1.642316	-0.448200	0.119142
C117	C	1.192664	-0.527750	-0.330280
C118	C	1.692664	-0.027750	0.169720
C119	C	1.192625	-0.473145	-0.330271
C120	C	1.692625	0.026855	0.169729
C121	C	1.091458	-0.473172	-0.431283
C122	C	1.591458	0.026828	0.068717
C123	C	1.091493	-0.527772	-0.431290
C124	C	1.591493	-0.027772	0.068710
C125	C	1.142103	-0.555060	-0.380786
C126	C	1.642103	-0.055060	0.119214
O127	O	1.048541	-0.614164	-0.474211
O128	O	1.548541	-0.114164	0.025789
O129	O	1.235746	-0.614163	-0.287355
O130	O	1.735746	-0.114163	0.212645
C131	C	1.348314	-0.251915	-0.380814
C132	C	1.848314	0.248085	0.119186
C133	C	1.436171	-0.251923	-0.380822
C134	C	1.936171	0.248077	0.119178
C135	C	1.142179	-0.251854	-0.586963
C136	C	1.642179	0.248146	-0.086963
C137	C	1.142193	-0.251836	-0.674820
C138	C	1.642193	0.248164	-0.174820
C139	C	1.142301	-0.115525	-0.380849
C140	C	1.642301	0.384475	0.119151
C141	C	1.142367	-0.057411	-0.380872
C142	C	1.642367	0.442589	0.119128
C143	C	1.091699	-0.285214	-1.046281
C144	C	1.591699	0.214786	-0.546281
C145	C	1.192876	-0.218348	-1.046311
C146	C	1.692876	0.281652	-0.546311
C147	C	1.192855	-0.218359	-0.963765
C148	C	1.692855	0.281641	-0.463765
C149	C	1.142256	-0.251799	-0.922473
C150	C	1.642256	0.248201	-0.422473
C151	C	1.091678	-0.285227	-0.963727
C152	C	1.591678	0.214773	-0.463727
C153	C	1.243438	-0.184935	-0.922505
C154	C	1.743438	0.315065	-0.422505
C155	C	1.243419	-0.184945	-0.839954
C156	C	1.743419	0.315055	-0.339954
C157	C	1.192816	-0.218382	-0.798661
C158	C	1.692816	0.281618	-0.298661
C159	C	1.142235	-0.251812	-0.839920
C160	C	1.642235	0.248188	-0.339920
C161	C	1.091636	-0.285251	-0.798628
C162	C	1.591636	0.214749	-0.298628
C163	C	1.041051	-0.318679	-0.839885
C164	C	1.541051	0.181321	-0.339885
C165	C	1.041074	-0.318665	-0.922433
C166	C	1.541074	0.181335	-0.422433
C167	C	1.192792	-0.218396	-0.716112
C168	C	1.692792	0.281604	-0.216112
C169	C	1.091615	-0.285265	-0.716074
C170	C	1.591615	0.214735	-0.216074
C171	C	1.142159	-0.251903	-0.175429
C172	C	1.642159	0.248097	0.324571
C173	C	1.142298	-0.251774	-0.087573
C174	C	1.642298	0.248226	0.412427
H175	H	0.567640	-0.346132	-0.522802
H176	H	1.067640	0.153868	-0.022802
H177	H	0.567683	-0.157691	-0.238812
H178	H	1.067683	0.342309	0.261188
C179	C	0.985389	-0.694323	-0.537401
C180	C	1.485389	-0.194323	-0.037401
H181	H	0.955277	-0.718412	-0.567480
H182	H	1.455277	-0.218412	-0.067480
H183	H	1.015592	-0.672987	-0.571863
H184	H	1.515592	-0.172987	-0.071863
H185	H	0.950949	-0.673060	-0.507130
H186	H	1.450949	-0.173060	-0.007130
H187	H	1.234139	-1.052323	-0.289242
H188	H	1.734139	-0.552323	0.210758
C189	C	0.432065	-0.181617	-0.274859
C190	C	0.932065	0.318383	0.225141
H191	H	0.376988	-0.186417	-0.282085
H192	H	0.876988	0.313583	0.217915
H193	H	0.445626	-0.146497	-0.286519
H194	H	0.945626	0.353503	0.213481
H195	H	0.445569	-0.189230	-0.221726
H196	H	0.945569	0.310770	0.278274
C197	C	1.298968	-0.694273	-0.224230
C198	C	1.798968	-0.194273	0.275770
H199	H	1.291702	-0.657843	-0.231439
H200	H	1.791702	-0.157843	0.268561
H201	H	1.352077	-0.703179	-0.235831
H202	H	1.852077	-0.203179	0.264169
H203	H	1.287415	-0.703263	-0.171117
H204	H	1.787415	-0.203263	0.328883
H205	H	1.234089	-0.953257	-0.289218
H206	H	1.734089	-0.453257	0.210782
H207	H	1.284608	-0.157726	-0.806369
H208	H	1.784608	0.342274	-0.306369
C209	C	1.299046	-0.808921	-0.224262
C210	C	1.799046	-0.308921	0.275738
H211	H	1.329147	-0.784829	-0.194180
H212	H	1.829147	-0.284829	0.305820
H213	H	1.333484	-0.830190	-0.254520
H214	H	1.833484	-0.330190	0.245480
H215	H	1.268836	-0.830252	-0.189791
H216	H	1.768836	-0.330252	0.310209
C217	C	0.985442	-0.355435	-0.967814
C218	C	1.485442	0.144565	-0.467814
H219	H	0.955298	-0.375350	-0.931401
H220	H	1.455298	0.124650	-0.431401
H221	H	1.015664	-0.378212	-1.000002
H222	H	1.515664	0.121788	-0.500002
H223	H	0.951031	-0.335424	-1.000028
H224	H	1.451031	0.164576	-0.500028
C225	C	0.853031	-0.322190	-0.486745
C226	C	1.353031	0.177810	0.013255
H227	H	0.816622	-0.342131	-0.516801
H228	H	1.316622	0.157869	-0.016801
H229	H	0.885210	-0.344941	-0.456443
H230	H	1.385210	0.155059	0.043557
H231	H	0.885256	-0.302212	-0.521243
H232	H	1.385256	0.197788	-0.021243
C233	C	1.036139	-1.060153	-0.486928
C234	C	1.536139	-0.560153	0.013072
H235	H	1.043395	-1.096582	-0.479704
H236	H	1.543395	-0.596582	0.020296
H237	H	1.047668	-1.051168	-0.540043
H238	H	1.547668	-0.551168	-0.040043
H239	H	0.983031	-1.051243	-0.475304
H240	H	1.483031	-0.551243	0.024696
H241	H	1.050538	-0.953296	-0.472491
H242	H	1.550538	-0.453296	0.027509
H243	H	0.717401	-0.346123	-0.522805
H244	H	1.217401	0.153877	-0.022805
H245	H	1.050403	-0.312491	-0.682460
H246	H	1.550403	0.187509	-0.182460
C247	C	1.248256	-0.443107	-0.274706
C248	C	1.748256	0.056893	0.225294
H249	H	1.278399	-0.467184	-0.244640
H250	H	1.778399	0.032816	0.255360
H251	H	1.218034	-0.421842	-0.240232
H252	H	1.718034	0.078158	0.259768
H253	H	1.282668	-0.421771	-0.304975
H254	H	1.782668	0.078229	0.195025
C255	C	0.729251	-0.148108	-0.224376
C256	C	1.229251	0.351892	0.275624
H257	H	0.692856	-0.128171	-0.194325
H258	H	1.192856	0.371829	0.305675
H259	H	0.761485	-0.125354	-0.254676
H260	H	1.261485	0.374646	0.245324
H261	H	0.761423	-0.168082	-0.189874
H262	H	1.261423	0.331918	0.310126
C263	C	1.299096	-0.148156	-0.967922
C264	C	1.799096	0.351844	-0.467922
H265	H	1.329224	-0.128255	-0.931530
H266	H	1.829224	0.371745	-0.431530
H267	H	1.268895	-0.125367	-1.000136
H268	H	1.768895	0.374633	-0.500136
H269	H	1.333520	-0.168160	-1.000114
H270	H	1.833520	0.331840	-0.500114
H271	H	0.443825	-0.312661	-0.472356
H272	H	0.943825	0.187339	0.027644
H273	H	1.233876	-0.549962	-0.289157
H274	H	1.733876	-0.049962	0.210843
C275	C	1.248429	-0.181634	-0.670729
C276	C	1.748429	0.318366	-0.170729
H277	H	1.241173	-0.186432	-0.615652
H278	H	1.741173	0.313568	-0.115652
H279	H	1.236912	-0.146500	-0.684276
H280	H	1.736912	0.353500	-0.184276
H281	H	1.301534	-0.189296	-0.684252
H282	H	1.801534	0.310704	-0.184252
C283	C	0.985446	-0.808975	-0.537426
C284	C	1.485446	-0.308975	-0.037426
H285	H	0.955321	-0.784894	-0.567503
H286	H	1.455321	-0.284894	-0.067503
H287	H	0.951028	-0.830313	-0.507175
H288	H	1.451028	-0.330313	-0.007175
H289	H	1.015679	-0.830237	-0.571901
H290	H	1.515679	-0.330237	-0.071901
H291	H	1.050319	-0.550009	-0.472426
H292	H	1.550319	-0.050009	0.027574
C293	C	1.035810	-0.443145	-0.486831
C294	C	1.535810	0.056855	0.013169
H295	H	1.043045	-0.406715	-0.479592
H296	H	1.543045	0.093285	0.020408
H297	H	0.982710	-0.452129	-0.475227
H298	H	1.482710	0.047871	0.024773
H299	H	1.047359	-0.452061	-0.539954
H300	H	1.547359	0.047939	-0.039954
H301	H	0.841266	-0.191142	-0.289241
H302	H	1.341266	0.308858	0.210759
H303	H	0.999857	-0.345907	-0.806254
H304	H	1.499857	0.154093	-0.306254
C305	C	1.036062	-0.321983	-1.091658
C306	C	1.536062	0.178017	-0.591658
H307	H	1.043321	-0.317189	-1.146736
H308	H	1.543321	0.182811	-0.646736
H309	H	0.982959	-0.314330	-1.078131
H310	H	1.482959	0.185670	-0.578131
H311	H	1.047594	-0.357117	-1.078112
H312	H	1.547594	0.142883	-0.578112
C313	C	1.248526	-0.181565	-1.091730
C314	C	1.748526	0.318435	-0.591730
H315	H	1.241290	-0.186342	-1.146802
H316	H	1.741290	0.313658	-0.646802
H317	H	1.301624	-0.189217	-1.078199
H318	H	1.801624	0.310783	-0.578199
H319	H	1.236982	-0.146435	-1.078220
H320	H	1.736982	0.353565	-0.578220
