data_functionalizedCrystal
_audit_creation_method	'MofGen! by Chris Wilmer'
_symmetry_space_group_name_H-M	'P1'
_symmetry_Int_Tables_number	1
_symmetry_cell_setting	triclinic
loop_
_symmetry_equiv_pos_as_xyz
  x,y,z
_cell_length_a	23.532355
_cell_length_b	22.610064
_cell_length_c	11.026607
_cell_angle_alpha	90.007521
_cell_angle_beta	84.293256
_cell_angle_gamma	90.004347
loop_
_atom_site_label
_atom_site_type_symbol
_atom_site_fract_x
_atom_site_fract_y
_atom_site_fract_z
O1	O	-0.770724	-0.049129	0.146805
O2	O	-0.270724	0.450871	0.646805
O3	O	-0.607102	-0.049141	0.168158
O4	O	-0.107102	0.450859	0.668158
O5	O	-0.675352	-0.049134	-0.019003
O6	O	-0.175352	0.450866	0.480997
O7	O	-0.702474	-0.049136	0.333966
O8	O	-0.202474	0.450864	0.833966
O9	O	-0.675339	0.049235	-0.018974
O10	O	-0.175339	0.549235	0.481026
O11	O	-0.607089	0.049228	0.168187
O12	O	-0.107089	0.549228	0.668187
O13	O	-0.770711	0.049240	0.146834
O14	O	-0.270711	0.549240	0.646834
Zn15	Zn	-0.688898	0.064852	0.157515
Zn16	Zn	-0.188898	0.564852	0.657515
Zn17	Zn	-0.688915	-0.064753	0.157477
Zn18	Zn	-0.188915	0.435247	0.657477
O19	O	-0.702461	0.049233	0.333994
O20	O	-0.202461	0.549233	0.833994
C21	C	-0.585823	0.000042	0.167639
C22	C	-0.085823	0.500042	0.667639
C23	C	-0.522436	0.000037	0.166034
C24	C	-0.022436	0.500037	0.666034
C25	C	-0.248460	-0.053578	0.159000
C26	C	0.251540	0.446422	0.659000
C27	C	-0.308019	-0.053580	0.160519
C28	C	0.191981	0.446420	0.660519
O29	O	-0.338829	-0.099182	0.161249
O30	O	0.161171	0.400818	0.661249
N31	N	-0.337799	0.000041	0.161302
N32	N	0.162201	0.500041	0.661302
C33	C	-0.308015	0.053667	0.160553
C34	C	0.191985	0.553667	0.660553
O35	O	-0.338814	0.099276	0.161358
O36	O	0.161186	0.599276	0.661358
C37	C	-0.248456	0.053668	0.159026
C38	C	0.251544	0.553668	0.659026
C39	C	-0.218680	0.000044	0.158255
C40	C	0.281320	0.500044	0.658255
C41	C	-0.218684	-0.107199	0.158228
C42	C	0.281316	0.392801	0.658228
C43	C	-0.159128	-0.107196	0.156711
C44	C	0.340872	0.392804	0.656711
C45	C	-0.129349	-0.053574	0.155967
C46	C	0.370651	0.446426	0.655967
C47	C	-0.159125	0.000046	0.156738
C48	C	0.340875	0.500046	0.656738
C49	C	-0.218673	0.107294	0.158269
C50	C	0.281327	0.607294	0.658269
C51	C	-0.159110	0.107291	0.156740
C52	C	0.340890	0.607291	0.656740
C53	C	-0.129334	0.053666	0.155969
C54	C	0.370666	0.553666	0.655969
C55	C	-0.069790	0.053671	0.154477
C56	C	0.430210	0.553671	0.654477
N57	N	-0.040010	0.000050	0.153694
N58	N	0.459990	0.500050	0.653694
C59	C	-0.069790	-0.053573	0.154439
C60	C	0.430210	0.446427	0.654439
C61	C	-0.433093	0.053660	0.163759
C62	C	0.066907	0.553660	0.663759
C63	C	-0.492651	0.053660	0.165296
C64	C	0.007349	0.553660	0.665296
C65	C	-0.492651	-0.053588	0.165259
C66	C	0.007349	0.446412	0.665259
C67	C	-0.433092	-0.053587	0.163731
C68	C	0.066908	0.446413	0.663731
C69	C	-0.403313	0.000039	0.162976
C70	C	0.096687	0.500039	0.662976
C71	C	0.055281	-0.053564	0.151255
C72	C	0.555281	0.446436	0.651255
C73	C	0.114841	-0.053557	0.149743
C74	C	0.614841	0.446443	0.649743
C75	C	0.114836	0.053690	0.149774
C76	C	0.614836	0.553690	0.649774
C77	C	0.055281	0.053684	0.151292
C78	C	0.555281	0.553684	0.651292
C79	C	0.025505	0.000052	0.152028
C80	C	0.525505	0.500052	0.652028
O81	O	-0.038942	0.099249	0.153741
O82	O	0.461058	0.599249	0.653741
O83	O	-0.038983	-0.099174	0.153618
O84	O	0.461017	0.400826	0.653618
N85	N	-0.688891	0.153305	0.157540
N86	N	-0.188891	0.653305	0.657540
C87	C	-0.719139	0.561950	0.074624
C88	C	-0.219139	1.061950	0.574624
C89	C	-0.719141	0.623869	0.074616
C90	C	-0.219141	1.123869	0.574616
O91	O	-0.744837	0.655891	0.004131
O92	O	-0.244837	1.155891	0.504131
N93	N	-0.688912	0.654842	0.157462
N94	N	-0.188912	1.154842	0.657462
C95	C	-0.658674	0.623891	0.240314
C96	C	-0.158674	1.123891	0.740314
O97	O	-0.632962	0.655922	0.310780
O98	O	-0.132962	1.155922	0.810780
C99	C	-0.658669	0.561973	0.240315
C100	C	-0.158669	1.061973	0.740315
C101	C	-0.688905	0.531003	0.157471
C102	C	-0.188905	1.031003	0.657471
C103	C	-0.749372	0.530980	-0.008214
C104	C	-0.249372	1.030980	0.491786
C105	C	-0.749371	0.469064	-0.008204
C106	C	-0.249371	0.969064	0.491796
C107	C	-0.719137	0.438118	0.074643
C108	C	-0.219137	0.938118	0.574643
C109	C	-0.688904	0.469088	0.157481
C110	C	-0.188904	0.969088	0.657481
C111	C	-0.628428	0.531023	0.323160
C112	C	-0.128428	1.031023	0.823160
C113	C	-0.628426	0.469100	0.323153
C114	C	-0.128426	0.969100	0.823153
C115	C	-0.658661	0.438131	0.240309
C116	C	-0.158661	0.938131	0.740309
C117	C	-0.658668	0.376226	0.240338
C118	C	-0.158668	0.876226	0.740338
N119	N	-0.688898	0.345253	0.157492
N120	N	-0.188898	0.845253	0.657492
C121	C	-0.719132	0.376199	0.074645
C122	C	-0.219132	0.876199	0.574645
C123	C	-0.658686	0.753925	0.240304
C124	C	-0.158686	1.253925	0.740304
C125	C	-0.658694	0.815843	0.240309
C126	C	-0.158694	1.315843	0.740309
C127	C	-0.719160	0.815816	0.074610
C128	C	-0.219160	1.315816	0.574610
C129	C	-0.719155	0.753898	0.074611
C130	C	-0.219155	1.253898	0.574611
C131	C	-0.688915	0.722953	0.157457
C132	C	-0.188915	1.222953	0.657457
C133	C	-0.719127	0.246172	0.074672
C134	C	-0.219127	0.746172	0.574672
C135	C	-0.719125	0.184251	0.074692
C136	C	-0.219125	0.684251	0.574692
C137	C	-0.658657	0.184283	0.240387
C138	C	-0.158657	0.684283	0.740387
C139	C	-0.658661	0.246198	0.240372
C140	C	-0.158661	0.746198	0.740372
C141	C	-0.688897	0.277142	0.157504
C142	C	-0.188897	0.777142	0.657504
O143	O	-0.632984	0.344165	0.310784
O144	O	-0.132984	0.844165	0.810784
O145	O	-0.744834	0.344162	0.004180
O146	O	-0.244834	0.844162	0.504180
C147	C	0.208010	0.000058	0.147363
C148	C	0.708010	0.500058	0.647363
C149	C	0.144621	0.000065	0.148999
C150	C	0.644621	0.500065	0.648999
C151	C	-0.670342	0.000050	-0.064137
C152	C	-0.170342	0.500050	0.435863
C153	C	-0.655427	0.000046	-0.198665
C154	C	-0.155427	0.500046	0.301335
N155	N	-0.688926	0.846794	0.157457
N156	N	-0.188926	1.346794	0.657457
C157	C	-0.696611	0.000049	-0.272984
C158	C	-0.196611	0.500049	0.227016
C159	C	-0.681196	0.000045	-0.412026
C160	C	-0.181196	0.500045	0.087974
C161	C	-0.707471	0.000048	0.379129
C162	C	-0.207471	0.500048	0.879129
C163	C	-0.722386	0.000048	0.513657
C164	C	-0.222386	0.500048	1.013657
H165	H	-0.134868	0.150961	0.156136
H166	H	0.365132	0.650961	0.656136
C167	C	-0.785440	0.000058	-0.433259
C168	C	-0.285440	0.500058	0.066741
H169	H	-0.787530	0.000065	-0.346772
H170	H	-0.287530	0.500065	0.153228
H171	H	-0.803852	-0.034242	-0.460127
H172	H	-0.303852	0.465758	0.039873
H173	H	-0.803834	0.034369	-0.460117
H174	H	-0.303834	0.534369	0.039883
C175	C	-0.618143	0.000040	-0.465113
C176	C	-0.118143	0.500040	0.034887
H177	H	-0.616054	0.000042	-0.551600
H178	H	-0.116054	0.500042	-0.051600
H179	H	-0.599743	-0.034264	-0.438256
H180	H	-0.099743	0.465736	0.061744
H181	H	-0.599736	0.034348	-0.438247
H182	H	-0.099736	0.534348	0.061753
C183	C	-0.592377	0.000041	-0.251758
C184	C	-0.092377	0.500041	0.248242
H185	H	-0.590288	0.000043	-0.338245
H186	H	-0.090288	0.500043	0.161755
H187	H	-0.573976	-0.034263	-0.224901
H188	H	-0.073976	0.465737	0.275099
H189	H	-0.573970	0.034349	-0.224892
H190	H	-0.073970	0.534349	0.275108
H191	H	-0.134890	-0.150863	0.156078
H192	H	0.365110	0.349137	0.656078
C193	C	-0.625376	0.280266	0.331451
C194	C	-0.125376	0.780266	0.831451
H195	H	-0.607359	0.252965	0.380773
H196	H	-0.107359	0.752965	0.880773
H197	H	-0.650984	0.304441	0.381691
H198	H	-0.150984	0.804441	0.881691
H199	H	-0.597229	0.304401	0.288049
H200	H	-0.097229	0.804401	0.788049
C201	C	-0.595174	0.565076	0.414299
C202	C	-0.095174	1.065076	0.914299
H203	H	-0.577167	0.537769	0.463627
H204	H	-0.077167	1.037769	0.963627
H205	H	-0.620808	0.589229	0.464526
H206	H	-0.120808	1.089229	0.964526
H207	H	-0.567022	0.589232	0.370972
H208	H	-0.067022	1.089232	0.870972
H209	H	0.139082	-0.097227	0.149119
H210	H	0.639082	0.402773	0.649119
H211	H	-0.743282	0.000056	-0.233673
H212	H	-0.243282	0.500056	0.266327
C213	C	-0.525416	-0.112572	0.166072
C214	C	-0.025416	0.387428	0.666072
H215	H	-0.565150	-0.104889	0.167081
H216	H	-0.065150	0.395111	0.667081
H217	H	-0.518559	-0.134609	0.236498
H218	H	-0.018559	0.365391	0.736498
H219	H	-0.512758	-0.134603	0.095120
H220	H	-0.012758	0.365397	0.595120
H221	H	-0.242924	-0.150867	0.158830
H222	H	0.257076	0.349133	0.658830
H223	H	-0.408852	-0.097253	0.163104
H224	H	0.091148	0.402747	0.663104
C225	C	0.022535	-0.112558	0.152079
C226	C	0.522535	0.387442	0.652079
H227	H	0.048805	-0.144487	0.151414
H228	H	0.548805	0.355513	0.651414
H229	H	0.002200	-0.114796	0.081990
H230	H	0.502200	0.385204	0.581990
H231	H	-0.003597	-0.114788	0.223368
H232	H	0.496403	0.385212	0.723368
C233	C	-0.595164	0.435061	0.414288
C234	C	-0.095164	0.935061	0.914288
H235	H	-0.599487	0.393749	0.402429
H236	H	-0.099487	0.893749	0.902429
H237	H	-0.609630	0.445217	0.495105
H238	H	-0.109630	0.945217	0.995105
H239	H	-0.555849	0.445214	0.401536
H240	H	-0.055849	0.945214	0.901536
C241	C	-0.525402	0.112645	0.166159
C242	C	-0.025402	0.612645	0.666159
H243	H	-0.565139	0.104970	0.167180
H244	H	-0.065139	0.604970	0.667180
H245	H	-0.512737	0.134679	0.095235
H246	H	-0.012737	0.634679	0.595235
H247	H	-0.518539	0.134673	0.236613
H248	H	-0.018539	0.634673	0.736613
C249	C	-0.400342	0.112653	0.162954
C250	C	0.099658	0.612653	0.662954
H251	H	-0.426612	0.144583	0.163651
H252	H	0.073388	0.644583	0.663651
H253	H	-0.374207	0.114891	0.091678
H254	H	0.125793	0.614891	0.591678
H255	H	-0.380011	0.114881	0.233056
H256	H	0.119989	0.614881	0.733056
H257	H	-0.743776	0.728686	0.007152
H258	H	-0.243776	1.228686	0.507152
H259	H	-0.634042	0.159077	0.307844
H260	H	-0.134042	0.659077	0.807844
C261	C	-0.251414	0.166282	0.159119
C262	C	0.248586	0.666282	0.659119
H263	H	-0.225140	0.198213	0.158445
H264	H	0.274860	0.698213	0.658445
H265	H	-0.277548	0.168517	0.230398
H266	H	0.222452	0.668517	0.730398
H267	H	-0.271747	0.168515	0.089020
H268	H	0.228253	0.668515	0.589020
H269	H	0.031035	0.097349	0.151944
H270	H	0.531035	0.597349	0.651944
H271	H	-0.743749	0.159038	0.007231
H272	H	-0.243749	0.659038	0.507231
H273	H	0.139093	0.097348	0.149173
H274	H	0.639093	0.597348	0.649173
C275	C	-0.752389	0.280201	-0.016475
C276	C	-0.252389	0.780201	0.483525
H277	H	-0.770396	0.252882	-0.065796
H278	H	-0.270396	0.752882	0.434204
H279	H	-0.726761	0.304355	-0.066710
H280	H	-0.226761	0.804355	0.433290
H281	H	-0.780542	0.304354	0.026860
H282	H	-0.280542	0.804354	0.526860
C283	C	-0.782623	0.435006	-0.099347
C284	C	-0.282623	0.935006	0.400653
H285	H	-0.800621	0.462312	-0.148691
H286	H	-0.300621	0.962312	0.351309
H287	H	-0.810772	0.410848	-0.056029
H288	H	-0.310772	0.910848	0.443971
H289	H	-0.756982	0.410855	-0.149575
H290	H	-0.256982	0.910855	0.350425
C291	C	-0.782636	0.565012	-0.099348
C292	C	-0.282636	1.065012	0.400652
H293	H	-0.800642	0.537691	-0.148668
H294	H	-0.300642	1.037691	0.351332
H295	H	-0.757013	0.589169	-0.149583
H296	H	-0.257013	1.089169	0.350417
H297	H	-0.810791	0.589160	-0.056006
H298	H	-0.310791	1.089160	0.443994
H299	H	-0.743778	0.841024	0.007149
H300	H	-0.243778	1.341024	0.507149
H301	H	-0.634063	0.728733	0.307777
H302	H	-0.134063	1.228733	0.807777
C303	C	-0.625435	0.849902	0.331438
C304	C	-0.125435	1.349902	0.831438
H305	H	-0.607426	0.822598	0.380768
H306	H	-0.107426	1.322598	0.880768
H307	H	-0.651063	0.874062	0.381665
H308	H	-0.151063	1.374062	0.881665
H309	H	-0.597284	0.874052	0.288089
H310	H	-0.097284	1.374052	0.788089
