data_functionalizedCrystal
_audit_creation_method	'MofGen! by Chris Wilmer'
_symmetry_space_group_name_H-M	'P1'
_symmetry_Int_Tables_number	1
_symmetry_cell_setting	triclinic
loop_
_symmetry_equiv_pos_as_xyz
  x,y,z
_cell_length_a	14.853567
_cell_length_b	14.519709
_cell_length_c	13.930277
_cell_angle_alpha	89.994503
_cell_angle_beta	89.995755
_cell_angle_gamma	83.657538
loop_
_atom_site_label
_atom_site_type_symbol
_atom_site_fract_x
_atom_site_fract_y
_atom_site_fract_z
O1	O	1.196415	0.120405	-0.079767
O2	O	0.933961	0.134748	-0.079783
O3	O	1.072147	-0.006665	-0.079766
O4	O	1.058230	0.261817	-0.079784
O5	O	1.072128	-0.006668	0.079896
O6	O	0.933942	0.134745	0.079878
O7	O	1.196396	0.120402	0.079895
Zn8	Zn	1.065166	0.127573	0.105236
Zn9	Zn	1.065191	0.127577	-0.105125
O10	O	1.058210	0.261814	0.079878
C11	C	0.900363	0.134096	0.000045
C12	C	0.800278	0.132149	0.000039
C13	C	0.387709	0.039914	0.000067
C14	C	0.366493	0.207916	0.000055
C15	C	0.460527	0.209747	0.000052
C16	C	0.518157	0.126660	0.000055
C17	C	0.481752	0.041743	0.000061
C18	C	0.496939	0.294663	0.000035
C19	C	0.590979	0.296498	0.000031
C20	C	0.648610	0.213410	0.000041
C21	C	0.612200	0.128489	0.000049
C22	C	0.669830	0.045403	0.000052
C23	C	0.633422	-0.039520	0.000066
C24	C	0.539383	-0.041345	0.000071
C25	C	0.742649	0.215235	0.000036
C26	C	0.763873	0.047231	0.000046
C27	C	1.071488	-0.041026	0.000065
C28	C	1.069545	-0.143407	0.000065
C29	C	1.062390	-0.518299	0.000040
C30	C	1.064377	-0.413992	0.000047
C31	C	1.065967	-0.330856	0.000054
C32	C	1.067955	-0.226543	0.000059
C33	C	1.229994	0.121053	0.000064
C34	C	1.330079	0.123001	0.000064
C35	C	1.058869	0.296175	0.000044
C36	C	1.060812	0.398556	0.000038
N37	N	1.065155	0.127569	0.248803
N38	N	1.065209	0.127573	-0.248691
C39	C	1.004000	0.190170	0.701064
C40	C	1.126407	0.064977	0.701049
C41	C	1.126396	0.064974	0.600553
C42	C	1.065188	0.127571	0.550308
C43	C	1.003989	0.190171	0.600559
C44	C	1.187599	0.002381	0.550295
C45	C	1.187592	0.002376	0.449793
C46	C	1.126378	0.064970	0.399546
C47	C	1.065177	0.127571	0.449803
C48	C	1.003968	0.190168	0.399558
C49	C	0.942762	0.252767	0.449814
C50	C	0.942776	0.252764	0.550312
C51	C	1.126364	0.064972	0.299047
C52	C	1.003957	0.190169	0.299053
H53	H	0.509731	-0.110484	0.000105
H54	H	0.358060	-0.029228	0.000082
C55	C	1.254075	-0.065694	0.395409
C56	C	1.307665	-0.120527	0.460923
C57	C	1.368908	-0.183253	0.410858
H58	H	1.291735	-0.032559	0.356184
H59	H	1.221601	-0.104197	0.356240
H60	H	1.340137	-0.082028	0.500075
H61	H	1.270030	-0.153681	0.500149
H62	H	1.336434	-0.221757	0.371689
H63	H	1.406562	-0.150112	0.371635
H64	H	1.405271	-0.220471	0.455301
H65	H	0.810790	-0.020429	0.000052
H66	H	0.772288	0.284378	0.000026
C67	C	0.876291	0.320579	0.605002
C68	C	0.821057	0.271347	0.662740
C69	C	0.759813	0.333787	0.713148
H70	H	0.839743	0.357888	0.560801
H71	H	0.908767	0.359014	0.644249
H72	H	0.788583	0.232928	0.623496
H73	H	0.857579	0.234042	0.706959
H74	H	0.792288	0.372223	0.752395
H75	H	0.723272	0.371093	0.668940
H76	H	0.722334	0.300393	0.752336
H77	H	0.954110	0.241140	0.258150
C78	C	0.695846	-0.129826	0.000016
C79	C	0.643842	-0.204590	0.000006
C80	C	0.701319	-0.287791	-0.000055
H81	H	0.732997	-0.132733	0.055672
H82	H	0.732953	-0.132649	-0.055691
H83	H	0.606751	-0.201769	0.055707
H84	H	0.606693	-0.201713	-0.055645
H85	H	0.738426	-0.290613	-0.055761
H86	H	0.738467	-0.290688	0.055602
H87	H	0.666043	-0.338528	-0.000070
H88	H	0.319566	0.275561	0.000044
H89	H	0.450011	0.362307	0.000023
C90	C	0.630330	0.388788	0.000074
C91	C	0.559731	0.461158	0.000096
C92	C	0.595948	0.546188	0.000152
H93	H	0.666565	0.393130	-0.055587
H94	H	0.666542	0.393040	0.055775
H95	H	0.523534	0.456908	-0.055599
H96	H	0.523491	0.456847	0.055753
H97	H	0.632160	0.550441	0.055853
H98	H	0.632182	0.550520	-0.055510
H99	H	0.548053	0.595301	0.000176
C100	C	1.192677	-0.003005	0.244349
C101	C	1.144583	-0.059542	0.186635
C102	C	1.205647	-0.122159	0.136219
H103	H	1.229172	-0.040373	0.288545
H104	H	1.230221	0.030245	0.205084
H105	H	1.107054	-0.092789	0.225896
H106	H	1.108090	-0.022200	0.142422
H107	H	1.243191	-0.088910	0.096954
H108	H	1.242140	-0.159520	0.180422
H109	H	1.173025	-0.160522	0.097048
H110	H	0.892929	0.303738	0.408893
C111	C	0.937507	0.257983	0.755745
C112	C	0.882266	0.208749	0.813472
C113	C	0.821010	0.271187	0.863869
H114	H	0.900966	0.295290	0.711537
H115	H	0.969974	0.296421	0.794999
H116	H	0.849801	0.170327	0.774222
H117	H	0.918782	0.171446	0.857698
H118	H	0.853477	0.309625	0.903122
H119	H	0.784475	0.308490	0.819654
H120	H	0.783527	0.237791	0.903049
H121	H	1.176246	0.014016	0.741962
C122	C	1.253952	-0.065535	0.605019
C123	C	1.240840	-0.052155	0.703787
C124	C	1.301941	-0.114713	0.754233
H125	H	1.314172	-0.055464	0.588657
H126	H	1.244060	-0.127124	0.588612
H127	H	1.250740	0.009420	0.720188
H128	H	1.180633	-0.062233	0.720178
H129	H	1.292049	-0.176303	0.737826
H130	H	1.362157	-0.104637	0.737863
H131	H	1.293048	-0.105649	0.821252
