data_functionalizedCrystal
_audit_creation_method	'MofGen! by Chris Wilmer'
_symmetry_space_group_name_H-M	'P1'
_symmetry_Int_Tables_number	1
_symmetry_cell_setting	triclinic
loop_
_symmetry_equiv_pos_as_xyz
  x,y,z
_cell_length_a	14.908571
_cell_length_b	19.120786
_cell_length_c	14.908308
_cell_angle_alpha	89.316475
_cell_angle_beta	89.824947
_cell_angle_gamma	89.019960
loop_
_atom_site_label
_atom_site_type_symbol
_atom_site_fract_x
_atom_site_fract_y
_atom_site_fract_z
Zn1	Zn	1.326486	-0.364755	0.566477
Zn2	Zn	1.826486	0.135245	1.066477
Zn3	Zn	1.329365	-0.475309	0.409721
Zn4	Zn	1.829365	0.024691	0.909721
Zn5	Zn	1.185494	-0.351330	0.408252
Zn6	Zn	1.685494	0.148670	0.908252
Zn7	Zn	1.170436	-0.474479	0.551420
Zn8	Zn	1.670436	0.025521	1.051420
O9	O	1.252945	-0.416468	0.483967
O10	O	1.752945	0.083532	0.983967
O11	O	1.452386	-0.385386	0.552599
O12	O	1.952386	0.114614	1.052599
O13	O	1.317787	-0.453592	0.284006
O14	O	1.817787	0.046408	0.784006
O15	O	1.209293	-0.255305	0.434927
O16	O	1.709293	0.244695	0.934927
O17	O	1.454502	-0.466610	0.437431
O18	O	1.954502	0.033390	0.937431
O19	O	1.312880	-0.265169	0.551175
O20	O	1.812880	0.234831	1.051175
O21	O	1.212085	-0.362505	0.282927
O22	O	1.712085	0.137495	0.782927
O23	O	1.057978	-0.361700	0.420327
O24	O	1.557978	0.138300	0.920327
O25	O	1.183630	-0.465195	0.678937
O26	O	1.683630	0.034805	1.178937
O27	O	1.046915	-0.452177	0.525513
O28	O	1.546915	0.047823	1.025513
O29	O	1.298279	-0.384581	0.689999
O30	O	1.798279	0.115419	1.189999
O31	O	1.303186	-0.573005	0.422831
O32	O	1.803186	-0.073005	0.922831
O33	O	1.186422	-0.572395	0.526937
O34	O	1.686422	-0.072395	1.026937
C35	C	1.019901	-0.405392	0.471127
C36	C	1.519901	0.094608	0.971127
C37	C	0.920201	-0.400672	0.465654
C38	C	1.420201	0.099328	0.965654
C39	C	0.721386	-0.486147	0.564738
C40	C	1.221386	0.013853	1.064738
C41	C	0.627709	-0.481714	0.559598
C42	C	1.127709	0.018286	1.059598
C43	C	0.639169	-0.387369	0.450242
C44	C	1.139169	0.112631	0.950242
C45	C	0.732846	-0.391802	0.455381
C46	C	1.232846	0.108198	0.955381
C47	C	0.773951	-0.441194	0.512630
C48	C	1.273951	0.058806	1.012630
C49	C	0.867630	-0.445630	0.517764
C50	C	1.367630	0.054370	1.017764
C51	C	0.879087	-0.351282	0.408413
C52	C	1.379087	0.148718	0.908413
C53	C	0.785410	-0.346849	0.403274
C54	C	1.285410	0.153151	0.903274
C55	C	1.243506	-0.598062	0.473430
C56	C	1.743506	-0.098062	0.973430
C57	C	1.239548	-0.675754	0.468957
C58	C	1.739548	-0.175754	0.968957
C59	C	1.291575	-0.717328	0.527424
C60	C	1.791575	-0.217328	1.027424
C61	C	1.287852	-0.790327	0.523222
C62	C	1.787852	-0.290327	1.023222
C63	C	1.232106	-0.821751	0.460549
C64	C	1.732106	-0.321751	0.960549
C65	C	1.180074	-0.780171	0.402079
C66	C	1.680074	-0.280171	0.902079
C67	C	1.183792	-0.707173	0.406286
C68	C	1.683792	-0.207173	0.906286
C69	C	1.218179	-1.041904	0.444821
C70	C	1.718179	-0.541904	0.944821
C71	C	1.214466	-1.114908	0.440617
C72	C	1.714466	-0.614908	0.940617
C73	C	1.322244	-1.125059	0.561761
C74	C	1.822244	-0.625059	1.061761
C75	C	1.325961	-1.052059	0.565958
C76	C	1.825961	-0.552059	1.065958
C77	C	1.273925	-1.010486	0.507492
C78	C	1.773925	-0.510486	1.007492
C79	C	1.228302	-0.896368	0.456250
C80	C	1.728302	-0.396368	0.956250
C81	C	1.277725	-0.935870	0.511796
C82	C	1.777725	-0.435870	1.011796
C83	C	1.486900	-0.427588	0.496858
C84	C	1.986900	0.072412	0.996858
C85	C	1.586597	-0.432327	0.502352
C86	C	2.086597	0.067673	1.002352
C87	C	1.238954	-0.426293	0.717924
C88	C	1.738954	0.073707	1.217924
C89	C	1.232991	-0.430480	0.817623
C90	C	1.732991	0.069520	1.317623
C91	C	1.262445	-0.234168	0.494567
C92	C	1.762445	0.265832	0.994567
C93	C	1.266493	-0.156482	0.499083
C94	C	1.766493	0.343518	0.999083
C95	C	1.266937	-0.406634	0.250926
C96	C	1.766937	0.093366	0.750926
C97	C	1.273083	-0.402259	0.151249
C98	C	1.773083	0.097741	0.651249
C99	C	1.341170	-0.354387	1.016488
C100	C	1.841170	0.145613	1.516488
C101	C	1.335570	-0.358318	1.110164
C102	C	1.835570	0.141682	1.610164
C103	C	1.216189	-0.442270	1.098652
C104	C	1.716189	0.057730	1.598652
C105	C	1.221789	-0.438338	1.004976
C106	C	1.721789	0.061662	1.504976
C107	C	1.284282	-0.394396	0.963898
C108	C	1.784282	0.105604	1.463898
C109	C	1.289885	-0.390469	0.870220
C110	C	1.789885	0.109531	1.370220
C111	C	1.170500	-0.474416	0.858710
C112	C	1.670500	0.025584	1.358710
C113	C	1.164901	-0.478347	0.952386
C114	C	1.664901	0.021653	1.452386
H115	H	0.751929	-0.306634	0.356666
H116	H	1.251929	0.193366	0.856666
H117	H	1.124180	-0.506996	0.815880
H118	H	1.624180	-0.006996	1.315880
N119	N	0.763396	-0.536598	0.623197
N120	N	1.263396	-0.036598	1.123197
N121	N	0.815252	-0.582238	0.591825
N122	N	1.315252	-0.082238	1.091825
H123	H	0.844923	-0.617871	0.633112
H124	H	1.344923	-0.117871	1.133112
N125	N	1.165033	-0.999434	0.385108
N126	N	1.665033	-0.499434	0.885108
N127	N	1.202111	-0.957783	0.332068
N128	N	1.702111	-0.457783	0.832068
H129	H	1.164571	-0.927782	0.289900
H130	H	1.664571	-0.427782	0.789900
N131	N	0.574028	-0.527634	0.612836
N132	N	1.074028	-0.027634	1.112836
N133	N	0.610745	-0.571726	0.663947
N134	N	1.110745	-0.071726	1.163947
H135	H	0.572833	-0.604159	0.701550
H136	H	1.072833	-0.104159	1.201550
N137	N	1.157542	-1.147032	0.376596
N138	N	1.657542	-0.647032	0.876596
N139	N	1.190514	-1.186862	0.318873
N140	N	1.690514	-0.686862	0.818873
H141	H	1.150321	-1.209557	0.273660
H142	H	1.650321	-0.709557	0.773660
H143	H	0.605684	-0.347153	0.403639
H144	H	1.105684	0.152847	0.903639
N145	N	0.932795	-0.305369	0.355182
N146	N	1.432795	0.194631	0.855182
N147	N	1.016434	-0.309336	0.359771
N148	N	1.516434	0.190664	0.859771
H149	H	1.054367	-0.276914	0.322175
H150	H	1.554367	0.223086	0.822175
N151	N	1.353715	-0.345592	0.828242
N152	N	1.853715	0.154408	1.328242
N153	N	1.412719	-0.370701	0.777689
N154	N	1.912719	0.129299	1.277689
H155	H	1.457799	-0.339004	0.748043
H156	H	1.957799	0.160996	1.248043
N157	N	1.375389	-1.167536	0.621471
N158	N	1.875389	-0.667536	1.121471
N159	N	1.372066	-1.232712	0.617709
N160	N	1.872066	-0.732712	1.117709
H161	H	1.409601	-1.262712	0.659883
H162	H	1.909601	-0.762712	1.159883
N163	N	1.348531	-0.685244	0.591442
N164	N	1.848531	-0.185244	1.091442
N165	N	1.394978	-0.722377	0.643639
N166	N	1.894978	-0.222377	1.143639
H167	H	1.435205	-0.699720	0.688856
H168	H	1.935205	-0.199720	1.188856
H169	H	1.330225	-0.824175	0.570825
H170	H	1.830225	-0.324175	1.070825
H171	H	1.371354	-1.026476	0.616992
H172	H	1.871354	-0.526476	1.116992
H173	H	1.392058	-0.318611	0.983042
H174	H	1.892058	0.181389	1.483042
H175	H	1.141425	-0.673323	0.358678
H176	H	1.641425	-0.173323	0.858678
N177	N	0.909606	-0.496087	0.576237
N178	N	1.409606	0.003913	1.076237
N179	N	0.862658	-0.536220	0.622757
N180	N	1.362658	-0.036220	1.122757
H181	H	0.892300	-0.571857	0.664057
H182	H	1.392300	-0.071857	1.164057
H183	H	1.134681	-0.805762	0.351053
H184	H	1.634681	-0.305762	0.851053
H185	H	1.323110	-0.910283	0.562827
H186	H	1.823110	-0.410283	1.062827
H187	H	1.182917	-0.921961	0.405219
H188	H	1.682917	-0.421961	0.905219
N189	N	1.393681	-0.317441	1.163871
N190	N	1.893681	0.182559	1.663871
N191	N	1.449467	-0.278209	1.127178
N192	N	1.949467	0.221791	1.627178
H193	H	1.490509	-0.249335	1.165108
H194	H	1.990509	0.250665	1.665108
N195	N	1.152355	-0.487139	1.140636
N196	N	1.652355	0.012861	1.640636
N197	N	1.147361	-0.490634	1.224275
N198	N	1.647361	0.009366	1.724275
H199	H	1.102276	-0.522323	1.253929
H200	H	1.602276	-0.022323	1.753929
H201	H	1.114019	-0.514122	0.985845
H202	H	1.614019	-0.014122	1.485845
