data_functionalizedCrystal
_audit_creation_method	'MofGen! by Chris Wilmer'
_symmetry_space_group_name_H-M	'P1'
_symmetry_Int_Tables_number	1
_symmetry_cell_setting	triclinic
loop_
_symmetry_equiv_pos_as_xyz
  x,y,z
_cell_length_a	17.640112
_cell_length_b	18.101397
_cell_length_c	17.640968
_cell_angle_alpha	78.764690
_cell_angle_beta	92.139080
_cell_angle_gamma	101.246095
loop_
_atom_site_label
_atom_site_type_symbol
_atom_site_fract_x
_atom_site_fract_y
_atom_site_fract_z
Zn1	Zn	1.247779	-0.021278	-0.195078
Zn2	Zn	1.747779	0.478722	0.304922
Zn3	Zn	1.222013	-0.174069	-0.068085
Zn4	Zn	1.722013	0.325931	0.431915
Zn5	Zn	1.095112	-0.069452	-0.093721
Zn6	Zn	1.595112	0.430548	0.406279
Zn7	Zn	1.120754	-0.164321	-0.220668
Zn8	Zn	1.620754	0.335679	0.279332
O9	O	1.171414	-0.107280	-0.144388
O10	O	1.671414	0.392720	0.355612
O11	O	1.350630	-0.025465	-0.156795
O12	O	1.850630	0.474535	0.343205
O13	O	1.183665	-0.184432	0.034789
O14	O	1.683665	0.315568	0.534789
O15	O	1.115416	0.040585	-0.107186
O16	O	1.615416	0.540585	0.392814
O17	O	1.331700	-0.137720	-0.063493
O18	O	1.831700	0.362280	0.436507
O19	O	1.227579	0.075978	-0.181653
O20	O	1.727579	0.575978	0.318347
O21	O	1.090432	-0.107570	0.015954
O22	O	1.590432	0.392430	0.515954
O23	O	0.992245	-0.098118	-0.131999
O24	O	1.492245	0.401882	0.368001
O25	O	1.159118	-0.121106	-0.323548
O26	O	1.659118	0.378894	0.176452
O27	O	1.011084	-0.167818	-0.225266
O28	O	1.511084	0.332182	0.274734
O29	O	1.252443	-0.016013	-0.304748
O30	O	1.752443	0.483987	0.195252
O31	O	1.208529	-0.276423	-0.088306
O32	O	1.708529	0.223577	0.411694
O33	O	1.134134	-0.269261	-0.200408
O34	O	1.634134	0.230739	0.299592
C35	C	0.974110	-0.137138	-0.184192
C36	C	1.474110	0.362862	0.315808
C37	C	0.889706	-0.149925	-0.201238
C38	C	1.389706	0.350075	0.298762
C39	C	1.171342	-0.299709	-0.144364
C40	C	1.671342	0.200291	0.355636
C41	C	1.171386	-0.382015	-0.144366
C42	C	1.671386	0.117985	0.355634
C43	C	0.563039	-0.010125	-0.014897
C44	C	1.063039	0.489875	0.485103
C45	C	0.483731	-0.022153	-0.030925
C46	C	0.983731	0.477847	0.469075
C47	C	0.503368	-0.094900	-0.127877
C48	C	1.003368	0.405100	0.372123
C49	C	0.582680	-0.082875	-0.111860
C50	C	1.082680	0.417125	0.388140
C51	C	0.612509	-0.040488	-0.055369
C52	C	1.112509	0.459512	0.444631
C53	C	0.632150	-0.113237	-0.152331
C54	C	1.132150	0.386763	0.347669
C55	C	0.711455	-0.101217	-0.136313
C56	C	1.211455	0.398783	0.363687
C57	C	0.741290	-0.058833	-0.079822
C58	C	1.241290	0.441167	0.420178
C59	C	0.691814	-0.028467	-0.039350
C60	C	1.191814	0.471533	0.460650
C61	C	0.602319	-0.155629	-0.208818
C62	C	1.102319	0.344371	0.291182
C63	C	0.651789	-0.185992	-0.249290
C64	C	1.151789	0.314008	0.250710
C65	C	0.731096	-0.173966	-0.233275
C66	C	1.231096	0.326034	0.266725
C67	C	0.760931	-0.131583	-0.176785
C68	C	1.260931	0.368417	0.323215
C69	C	0.780572	-0.204333	-0.273747
C70	C	1.280572	0.295667	0.226253
C71	C	0.859877	-0.192312	-0.257729
C72	C	1.359877	0.307688	0.242271
C73	C	0.840236	-0.119562	-0.160766
C74	C	1.340236	0.380438	0.339234
C75	C	1.171497	-0.681075	-0.144415
C76	C	1.671497	-0.181075	0.355585
C77	C	1.218108	-0.654286	-0.073760
C78	C	1.718108	-0.154286	0.426240
C79	C	1.218342	-0.568602	-0.073871
C80	C	1.718342	-0.068602	0.426129
C81	C	1.171442	-0.532708	-0.144390
C82	C	1.671442	-0.032708	0.355610
C83	C	1.209323	-0.542195	-0.220066
C84	C	1.709323	-0.042195	0.279934
C85	C	1.209711	-0.627845	-0.219654
C86	C	1.709711	-0.127845	0.280346
C87	C	1.086988	-0.666422	-0.140120
C88	C	1.586988	-0.166422	0.359880
C89	C	1.087023	-0.581120	-0.138253
C90	C	1.587023	-0.081120	0.361747
C91	C	1.171410	-0.448856	-0.144381
C92	C	1.671410	0.051144	0.355619
C93	C	1.171531	-0.764925	-0.144430
C94	C	1.671531	-0.264925	0.355570
C95	C	1.369490	-0.077307	-0.104430
C96	C	1.869490	0.422693	0.395570
C97	C	1.453897	-0.064534	-0.087402
C98	C	1.953897	0.435466	0.412598
C99	C	1.211515	-0.062098	-0.342474
C100	C	1.711515	0.437902	0.157526
C101	C	1.228603	-0.042844	-0.426887
C102	C	1.728603	0.457156	0.073113
C103	C	1.171511	0.085907	-0.144424
C104	C	1.671511	0.585907	0.355576
C105	C	1.171552	0.168232	-0.144440
C106	C	1.671552	0.668232	0.355560
C107	C	1.041888	-0.253103	-0.753445
C108	C	1.541888	0.246897	-0.253445
C109	C	1.057961	-0.234999	-0.832760
C110	C	1.557961	0.265001	-0.332760
C111	C	1.155131	-0.125576	-0.813174
C112	C	1.655131	0.374424	-0.313174
C113	C	1.139064	-0.143668	-0.733856
C114	C	1.639064	0.356332	-0.233856
C115	C	1.082442	-0.207433	-0.703998
C116	C	1.582442	0.292567	-0.203998
C117	C	1.179618	-0.097998	-0.684410
C118	C	1.679618	0.402002	-0.184410
C119	C	1.163554	-0.116092	-0.605098
C120	C	1.663554	0.383908	-0.105098
C121	C	1.106936	-0.179855	-0.575233
C122	C	1.606936	0.320145	-0.075233
C123	C	1.066378	-0.225527	-0.624687
C124	C	1.566378	0.274473	-0.124687
C125	C	1.236244	-0.034237	-0.714269
C126	C	1.736244	0.465763	-0.214269
C127	C	1.276798	0.011433	-0.664822
C128	C	1.776798	0.511433	-0.164822
C129	C	1.260731	-0.006657	-0.585510
C130	C	1.760731	0.493343	-0.085510
C131	C	1.204113	-0.070420	-0.555645
C132	C	1.704113	0.429580	-0.055645
C133	C	1.301289	0.039015	-0.536057
C134	C	1.801289	0.539015	-0.036057
C135	C	1.285225	0.020921	-0.456745
C136	C	1.785225	0.520921	0.043255
C137	C	1.188049	-0.088514	-0.476333
C138	C	1.688049	0.411486	0.023667
C139	C	1.131514	-0.152227	0.052936
C140	C	1.631514	0.347773	0.552936
C141	C	1.114573	-0.171250	0.137378
C142	C	1.614573	0.328750	0.637378
H143	H	0.864526	-0.085033	-0.114777
H144	H	1.364526	0.414967	0.385223
H145	H	1.280023	-0.663736	-0.075228
H146	H	1.780023	-0.163736	0.424772
C147	C	1.302463	-0.524493	-0.075983
C148	C	1.802463	-0.024493	0.424017
H149	H	1.336626	-0.558930	-0.076783
H150	H	1.836626	-0.058930	0.423217
H151	H	1.312410	-0.501924	-0.031427
H152	H	1.812410	-0.001924	0.468573
H153	H	1.310254	-0.485417	-0.121055
H154	H	1.810254	0.014583	0.378945
H155	H	1.052059	-0.683524	-0.191779
H156	H	1.552059	-0.183524	0.308221
C157	C	1.167028	-0.650237	-0.292016
C158	C	1.667028	-0.150237	0.207984
H159	H	1.166971	-0.702687	-0.292252
H160	H	1.666971	-0.202687	0.207748
H161	H	1.192495	-0.619195	-0.337027
H162	H	1.692495	-0.119195	0.162973
H163	H	1.115278	-0.642654	-0.291403
H164	H	1.615278	-0.142654	0.208597
H165	H	1.270978	-0.507870	-0.226014
H166	H	1.770978	-0.007870	0.273986
H167	H	1.141923	-0.140423	-0.452025
H168	H	1.641923	0.359577	0.047975
C169	C	0.828522	-0.045608	-0.062197
C170	C	1.328522	0.454392	0.437803
H171	H	0.839200	-0.016020	-0.022753
H172	H	1.339200	0.483980	0.477247
H173	H	0.856406	-0.018970	-0.107600
H174	H	1.356406	0.481030	0.392400
H175	H	0.843775	-0.093680	-0.045347
H176	H	1.343775	0.406320	0.454653
H177	H	1.271964	-0.634913	-0.225176
H178	H	1.771964	-0.134913	0.274824
C179	C	1.089262	-0.199764	-0.487993
C180	C	1.589262	0.300236	0.012007
H181	H	1.049737	-0.244283	-0.477294
H182	H	1.549737	0.255717	0.022706
H183	H	1.072519	-0.158050	-0.472707
H184	H	1.572519	0.341950	0.027293
H185	H	1.134629	-0.209255	-0.460158
H186	H	1.634629	0.290745	0.039842
C187	C	1.253917	-0.014330	-0.801509
C188	C	1.753917	0.485670	-0.301509
H189	H	1.293453	0.030180	-0.812209
H190	H	1.793453	0.530180	-0.312209
H191	H	1.208554	-0.004840	-0.829346
H192	H	1.708554	0.495160	-0.329346
H193	H	1.270661	-0.056049	-0.816792
H194	H	1.770661	0.443951	-0.316792
H195	H	1.055653	-0.704137	-0.086740
H196	H	1.555653	-0.204137	0.413260
H197	H	1.318247	0.058111	-0.416484
H198	H	1.818247	0.558111	0.083516
C199	C	1.339074	0.081573	-0.697672
C200	C	1.839074	0.581573	-0.197672
H201	H	1.342829	0.085813	-0.751990
H202	H	1.842829	0.585813	-0.251990
H203	H	1.387460	0.075497	-0.674374
H204	H	1.887460	0.575497	-0.174374
H205	H	1.325339	0.126690	-0.686927
H206	H	1.825339	0.626690	-0.186927
H207	H	1.177113	-0.517834	-0.273428
H208	H	1.677113	-0.017834	0.226572
C209	C	1.048825	-0.575223	-0.063133
C210	C	1.548825	-0.075223	0.436867
H211	H	1.084169	-0.543388	-0.035622
H212	H	1.584169	-0.043388	0.464378
H213	H	1.034874	-0.624942	-0.032068
H214	H	1.534874	-0.124942	0.467932
H215	H	1.003873	-0.553680	-0.075369
H216	H	1.503873	-0.053680	0.424631
C217	C	1.013345	-0.285235	-0.887154
C218	C	1.513345	0.214765	-0.387154
H219	H	1.031024	-0.265331	-0.938665
H220	H	1.531024	0.234669	-0.438665
H221	H	0.959695	-0.285083	-0.884455
H222	H	1.459695	0.214917	-0.384455
H223	H	1.021808	-0.336285	-0.871904
H224	H	1.521808	0.163715	-0.371904
H225	H	1.049115	-0.557640	-0.187247
H226	H	1.549115	-0.057640	0.312753
H227	H	1.020252	-0.277436	-0.600379
H228	H	1.520252	0.222564	-0.100379
H229	H	0.716104	0.006063	0.006639
H230	H	1.216104	0.506063	0.506639
H231	H	0.995762	-0.305012	-0.729137
H232	H	1.495762	0.194988	-0.229137
C233	C	1.363570	0.109149	-0.568907
C234	C	1.863570	0.609149	-0.068907
H235	H	1.367327	0.113385	-0.623224
H236	H	1.867327	0.613385	-0.123224
H237	H	1.411955	0.103068	-0.545607
H238	H	1.911955	0.603068	-0.045607
H239	H	1.349842	0.154270	-0.558166
H240	H	1.849842	0.654270	-0.058166
H241	H	1.201235	-0.073660	-0.837496
H242	H	1.701235	0.426340	-0.337496
C243	C	0.470552	-0.141519	-0.190016
C244	C	0.970552	0.358481	0.309984
H245	H	0.416236	-0.144326	-0.193764
H246	H	0.916236	0.355674	0.306236
H247	H	0.481273	-0.191847	-0.176192
H248	H	0.981273	0.308153	0.323808
H249	H	0.493897	-0.117130	-0.238436
H250	H	0.993897	0.382870	0.261564
H251	H	0.900157	-0.217035	-0.290685
H252	H	1.400157	0.282965	0.209315
C253	C	0.595858	0.036512	0.047232
C254	C	1.095858	0.536512	0.547232
H255	H	0.555039	0.052877	0.069043
H256	H	1.055039	0.552877	0.569043
H257	H	0.632700	0.080062	0.024363
H258	H	1.132700	0.580062	0.524363
H259	H	0.620074	0.005361	0.086627
H260	H	1.120074	0.505361	0.586627
H261	H	0.443455	0.002582	0.002031
H262	H	0.943455	0.502582	0.502031
C263	C	0.618986	-0.232559	-0.311473
C264	C	1.118986	0.267441	0.188527
H265	H	0.659811	-0.248906	-0.333293
H266	H	1.159811	0.251094	0.166707
H267	H	0.594788	-0.201366	-0.350839
H268	H	1.094788	0.298634	0.149161
H269	H	0.582132	-0.276129	-0.288657
H270	H	1.082132	0.223871	0.211343
C271	C	0.747765	-0.250910	-0.335922
C272	C	1.247765	0.249090	0.164078
H273	H	0.788589	-0.267261	-0.357741
H274	H	1.288589	0.232739	0.142259
H275	H	0.723563	-0.219725	-0.375290
H276	H	1.223563	0.280275	0.124710
H277	H	0.710914	-0.294478	-0.313096
H278	H	1.210914	0.205522	0.186904
H279	H	1.192767	-0.563216	-0.017252
H280	H	1.692767	-0.063216	0.482748
C281	C	1.183749	-0.703241	0.003018
C282	C	1.683749	-0.203241	0.503018
H283	H	1.212696	-0.686155	0.044936
H284	H	1.712696	-0.186155	0.544936
H285	H	1.185832	-0.755524	0.004354
H286	H	1.685832	-0.255524	0.504354
H287	H	1.131517	-0.698238	0.007136
H288	H	1.631517	-0.198238	0.507136
H289	H	0.537744	-0.165415	-0.221858
H290	H	1.037744	0.334585	0.278142
