data_functionalizedCrystal
_audit_creation_method	'MofGen! by Chris Wilmer'
_symmetry_space_group_name_H-M	'P1'
_symmetry_Int_Tables_number	1
_symmetry_cell_setting	triclinic
loop_
_symmetry_equiv_pos_as_xyz
  x,y,z
_cell_length_a	16.959455
_cell_length_b	29.839131
_cell_length_c	16.959455
_cell_angle_alpha	90.013151
_cell_angle_beta	90.005786
_cell_angle_gamma	90.038367
loop_
_atom_site_label
_atom_site_type_symbol
_atom_site_fract_x
_atom_site_fract_y
_atom_site_fract_z
Zn1	Zn	1.208200	-0.178973	0.446889
Zn2	Zn	1.708200	0.321027	0.946889
Zn3	Zn	1.208093	-0.254079	0.314702
Zn4	Zn	1.708093	0.245921	0.814702
Zn5	Zn	1.076048	-0.178960	0.314726
Zn6	Zn	1.576048	0.321040	0.814726
Zn7	Zn	1.075944	-0.254073	0.446840
Zn8	Zn	1.575944	0.245927	0.946840
O9	O	1.142071	-0.216521	0.380789
O10	O	1.642071	0.283479	0.880789
O11	O	1.318796	-0.188944	0.429364
O12	O	1.818796	0.311056	0.929364
O13	O	1.190576	-0.244112	0.204094
O14	O	1.690576	0.255888	0.704094
O15	O	1.093667	-0.116095	0.332288
O16	O	1.593667	0.383905	0.832288
O17	O	1.318718	-0.244124	0.332247
O18	O	1.818718	0.255876	0.832247
O19	O	1.190758	-0.116104	0.429387
O20	O	1.690758	0.383896	0.929387
O21	O	1.093563	-0.188922	0.204112
O22	O	1.593563	0.311078	0.704112
O23	O	0.965423	-0.188916	0.332241
O24	O	1.465423	0.311084	0.832241
O25	O	1.093489	-0.244114	0.557458
O26	O	1.593489	0.255886	1.057458
O27	O	0.965347	-0.244101	0.429305
O28	O	1.465347	0.255899	0.929305
O29	O	1.190657	-0.188938	0.557493
O30	O	1.690657	0.311062	1.057493
O31	O	1.190475	-0.316945	0.332200
O32	O	1.690475	0.183055	0.832200
O33	O	1.093385	-0.316941	0.429282
O34	O	1.593385	0.183059	0.929282
C35	C	0.936705	-0.216506	0.380771
C36	C	1.436705	0.283494	0.880771
C37	C	0.848848	-0.216511	0.380782
C38	C	1.348848	0.283489	0.880782
C39	C	0.477388	-0.187763	0.330354
C40	C	0.977388	0.312237	0.830354
C41	C	0.477357	-0.245317	0.431270
C42	C	0.977357	0.254683	0.931270
C43	C	0.559903	-0.245310	0.431265
C44	C	1.059903	0.254690	0.931265
C45	C	0.601195	-0.216530	0.380803
C46	C	1.101195	0.283470	0.880803
C47	C	0.559942	-0.187757	0.330346
C48	C	1.059942	0.312243	0.830346
C49	C	0.601163	-0.274087	0.481716
C50	C	1.101163	0.225913	0.981716
C51	C	0.683714	-0.274082	0.481712
C52	C	1.183714	0.225918	0.981712
C53	C	0.725008	-0.245299	0.431254
C54	C	1.225008	0.254701	0.931254
C55	C	0.683749	-0.216524	0.380795
C56	C	1.183749	0.283476	0.880795
C57	C	0.725041	-0.187744	0.330333
C58	C	1.225041	0.312256	0.830333
C59	C	0.683784	-0.158966	0.279877
C60	C	1.183784	0.341034	0.779877
C61	C	0.601235	-0.158974	0.279887
C62	C	1.101235	0.341026	0.779887
C63	C	0.807556	-0.245291	0.431244
C64	C	1.307556	0.254709	0.931244
C65	C	0.807595	-0.187737	0.330325
C66	C	1.307595	0.312263	0.830325
C67	C	1.141928	-0.333244	0.380750
C68	C	1.641928	0.166756	0.880750
C69	C	1.141940	-0.383178	0.380760
C70	C	1.641940	0.116822	0.880760
C71	C	1.192717	-0.692811	0.330313
C72	C	1.692717	-0.192811	0.830313
C73	C	1.192815	-0.880485	0.330343
C74	C	1.692815	-0.380485	0.830343
O75	O	1.235875	-0.904741	0.287421
O76	O	1.735875	-0.404741	0.787421
N77	N	1.142235	-0.903963	0.380849
N78	N	1.642235	-0.403963	0.880849
C79	C	1.091631	-0.880521	0.431354
C80	C	1.591631	-0.380521	0.931354
O81	O	1.048617	-0.904797	0.474318
O82	O	1.548617	-0.404797	0.974318
C83	C	1.091538	-0.692849	0.431327
C84	C	1.591538	-0.192849	0.931327
C85	C	1.142115	-0.669372	0.380812
C86	C	1.642115	-0.169372	0.880812
C87	C	1.243292	-0.669335	0.279803
C88	C	1.743292	-0.169335	0.779803
C89	C	1.243264	-0.622420	0.279793
C90	C	1.743264	-0.122420	0.779793
C91	C	1.192662	-0.598981	0.330292
C92	C	1.692662	-0.098981	0.830292
C93	C	1.142087	-0.622457	0.380802
C94	C	1.642087	-0.122457	0.880802
C95	C	1.040938	-0.669407	0.481835
C96	C	1.540938	-0.169407	0.981835
C97	C	1.040921	-0.622486	0.481825
C98	C	1.540921	-0.122486	0.981825
C99	C	1.091498	-0.599010	0.431311
C100	C	1.591498	-0.099010	0.931311
C101	C	1.091457	-0.552103	0.431291
C102	C	1.591457	-0.052103	0.931291
N103	N	1.142037	-0.528624	0.380786
N104	N	1.642037	-0.028624	0.880786
C105	C	1.192639	-0.552063	0.330286
C106	C	1.692639	-0.052063	0.830286
C107	C	1.091682	-0.979052	0.431364
C108	C	1.591682	-0.479052	0.931364
C109	C	1.091704	-1.025969	0.431370
C110	C	1.591704	-0.525969	0.931370
C111	C	1.192890	-1.025930	0.330360
C112	C	1.692890	-0.525930	0.830360
C113	C	1.192863	-0.979011	0.330350
C114	C	1.692863	-0.479011	0.830350
C115	C	1.142262	-0.955573	0.380858
C116	C	1.642262	-0.455573	0.880858
C117	C	1.192576	-0.453537	0.330268
C118	C	1.692576	0.046463	0.830268
C119	C	1.192542	-0.406617	0.330260
C120	C	1.692542	0.093383	0.830260
C121	C	1.091359	-0.406661	0.431272
C122	C	1.591359	0.093339	0.931272
C123	C	1.091391	-0.453577	0.431278
C124	C	1.591391	0.046423	0.931278
C125	C	1.142006	-0.477013	0.380773
C126	C	1.642006	0.022987	0.880773
O127	O	1.048426	-0.527817	0.474197
O128	O	1.548426	-0.027817	0.974197
O129	O	1.235659	-0.527778	0.287341
O130	O	1.735659	-0.027778	0.787341
C131	C	1.192745	-0.739727	0.330323
C132	C	1.692745	-0.239727	0.830323
C133	C	1.142171	-0.763203	0.380833
C134	C	1.642171	-0.263203	0.880833
C135	C	1.091569	-0.739764	0.431332
C136	C	1.591569	-0.239764	0.931332
C137	C	1.142193	-0.810121	0.380839
C138	C	1.642193	-0.310121	0.880839
C139	C	1.192795	-0.833560	0.330339
C140	C	1.692795	-0.333560	0.830339
C141	C	1.243375	-0.810081	0.279834
C142	C	1.743375	-0.310081	0.779834
C143	C	1.243347	-0.763166	0.279823
C144	C	1.743347	-0.263166	0.779823
C145	C	1.040989	-0.763243	0.481838
C146	C	1.540989	-0.263243	0.981838
C147	C	1.041021	-0.810159	0.481843
C148	C	1.541021	-0.310159	0.981843
C149	C	1.091623	-0.833598	0.431344
C150	C	1.591623	-0.333598	0.931344
C151	C	1.348239	-0.216537	0.380808
C152	C	1.848239	0.283463	0.880808
C153	C	1.436096	-0.216543	0.380816
C154	C	1.936096	0.283457	0.880816
C155	C	1.142073	-0.216527	0.586957
C156	C	1.642073	0.283473	1.086957
C157	C	1.142074	-0.216529	0.674814
C158	C	1.642074	0.283471	1.174814
C159	C	1.142236	-0.099343	0.380846
C160	C	1.642236	0.400657	0.880846
C161	C	1.142306	-0.049408	0.380870
C162	C	1.642306	0.450592	0.880870
C163	C	1.091485	-0.245258	0.716071
C164	C	1.591485	0.254742	1.216071
C165	C	1.192660	-0.187799	0.716111
C166	C	1.692660	0.312201	1.216111
C167	C	1.192660	-0.187799	0.798656
C168	C	1.692660	0.312201	1.298656
C169	C	1.142070	-0.216528	0.839913
C170	C	1.642070	0.283472	1.339913
C171	C	1.091481	-0.245257	0.798625
C172	C	1.591481	0.254743	1.298625
C173	C	1.243242	-0.159067	0.839951
C174	C	1.743242	0.340933	1.339951
C175	C	1.243243	-0.159064	0.922502
C176	C	1.743243	0.340936	1.422502
C177	C	1.192657	-0.187796	0.963761
C178	C	1.692657	0.312204	1.463761
C179	C	1.142066	-0.216527	0.922467
C180	C	1.642066	0.283473	1.422467
C181	C	1.091477	-0.245256	0.963724
C182	C	1.591477	0.254744	1.463724
C183	C	1.040890	-0.273989	0.922432
C184	C	1.540890	0.226011	1.422432
C185	C	1.040895	-0.273988	0.839883
C186	C	1.540895	0.226012	1.339883
C187	C	1.192652	-0.187797	1.046309
C188	C	1.692652	0.312203	1.546309
C189	C	1.091473	-0.245255	1.046278
C190	C	1.591473	0.254745	1.546278
C191	C	1.142063	-0.216526	1.175423
C192	C	1.642063	0.283474	1.675423
C193	C	1.142062	-0.216525	1.087566
C194	C	1.642062	0.283475	1.587566
H195	H	0.567537	-0.297521	0.522794
H196	H	1.067537	0.202479	1.022794
Cl197	Cl	0.735704	-0.122790	0.216437
Cl198	Cl	1.235704	0.377210	0.716437
H199	H	0.717298	-0.297514	0.522797
H200	H	1.217298	0.202486	1.022797
H201	H	1.233794	-0.472614	0.289144
H202	H	1.733794	0.027386	0.789144
Cl203	Cl	1.256224	-0.151668	1.098216
Cl204	Cl	1.756224	0.348332	1.598216
Cl205	Cl	1.256227	-0.151670	0.664244
Cl206	Cl	1.756227	0.348330	1.164244
Cl207	Cl	0.549365	-0.122800	0.216463
Cl208	Cl	1.049365	0.377200	0.716463
Cl209	Cl	1.028060	-0.949593	0.494864
Cl210	Cl	1.528060	-0.449593	0.994864
Cl211	Cl	1.306855	-0.122953	0.974405
Cl212	Cl	1.806855	0.377047	1.474405
Cl213	Cl	0.859498	-0.151552	0.266887
Cl214	Cl	1.359498	0.348448	0.766887
H215	H	0.841144	-0.268723	0.472322
H216	H	1.341144	0.231277	0.972322
H217	H	0.443732	-0.268751	0.472349
H218	H	0.943732	0.231249	0.972349
Cl219	Cl	0.425525	-0.151585	0.266932
Cl220	Cl	0.925525	0.348415	0.766932
Cl221	Cl	1.256130	-0.377107	0.266752
Cl222	Cl	1.756130	0.122893	0.766752
H223	H	1.284450	-0.603308	0.238662
H224	H	1.784450	-0.103308	0.738662
H225	H	1.284502	-0.688414	0.238680
H226	H	1.784502	-0.188414	0.738680
H227	H	0.999748	-0.688514	0.522966
H228	H	1.499748	-0.188514	1.022966
Cl229	Cl	1.027894	-0.281379	0.664164
Cl230	Cl	1.527894	0.218621	1.164164
H231	H	1.234048	-0.959899	0.289218
H232	H	1.734048	-0.459899	0.789218
Cl233	Cl	1.306792	-0.122928	0.788083
Cl234	Cl	1.806792	0.377072	1.288083
H235	H	1.234092	-1.045022	0.289241
H236	H	1.734092	-0.545022	0.789241
Cl237	Cl	1.028109	-1.055477	0.494867
Cl238	Cl	1.528109	-0.555477	0.994867
Cl239	Cl	0.977305	-0.593024	0.545326
Cl240	Cl	1.477305	-0.093024	1.045326
H241	H	1.050209	-0.472692	0.472413
H242	H	1.550209	0.027308	0.972413
H243	H	1.050157	-0.387570	0.472386
H244	H	1.550157	0.112430	0.972386
H245	H	1.284575	-0.829174	0.238713
H246	H	1.784575	-0.329174	0.738713
Cl247	Cl	1.306938	-0.733660	0.216319
Cl248	Cl	1.806938	-0.233660	0.716319
H249	H	0.999827	-0.829269	0.522977
H250	H	1.499827	-0.329269	1.022977
H251	H	0.999784	-0.744163	0.522961
H252	H	1.499784	-0.244163	1.022961
Cl253	Cl	1.027875	-0.281376	1.098137
Cl254	Cl	1.527875	0.218624	1.598137
H255	H	0.999695	-0.297378	0.956034
H256	H	1.499695	0.202622	1.456034
H257	H	0.999709	-0.297381	0.806255
H258	H	1.499709	0.202619	1.306255
