data_functionalizedCrystal
_audit_creation_method	'MofGen! by Chris Wilmer'
_symmetry_space_group_name_H-M	'P1'
_symmetry_Int_Tables_number	1
_symmetry_cell_setting	triclinic
loop_
_symmetry_equiv_pos_as_xyz
  x,y,z
_cell_length_a	13.033291
_cell_length_b	16.120297
_cell_length_c	13.032721
_cell_angle_alpha	99.654124
_cell_angle_beta	105.184202
_cell_angle_gamma	85.312033
loop_
_atom_site_label
_atom_site_type_symbol
_atom_site_fract_x
_atom_site_fract_y
_atom_site_fract_z
Zn1	Zn	1.522678	-0.652701	-0.264376
Zn2	Zn	1.856012	-0.319367	0.068958
Zn3	Zn	2.189345	0.013966	0.402291
Zn4	Zn	1.509005	-0.528984	-0.433006
Zn5	Zn	1.842338	-0.195650	-0.099673
Zn6	Zn	2.175672	0.137683	0.233661
Zn7	Zn	1.356339	-0.497564	-0.275647
Zn8	Zn	1.689672	-0.164231	0.057687
Zn9	Zn	2.023006	0.169102	0.391020
Zn10	Zn	1.322464	-0.652605	-0.464475
Zn11	Zn	1.655797	-0.319272	-0.131142
Zn12	Zn	1.989131	0.014062	0.202192
O13	O	1.427622	-0.582963	-0.359376
O14	O	1.760955	-0.249630	-0.026042
O15	O	2.094288	0.083703	0.307291
O16	O	1.668546	-0.649479	-0.268858
O17	O	2.001879	-0.316145	0.064475
O18	O	2.335213	0.017188	0.397809
O19	O	1.497208	-0.408155	-0.403679
O20	O	1.830542	-0.074822	-0.070346
O21	O	2.163875	0.258512	0.262988
O22	O	1.398304	-0.505035	-0.124554
O23	O	1.731637	-0.171701	0.208779
O24	O	2.064970	0.161632	0.542113
O25	O	1.658501	-0.558584	-0.392750
O26	O	1.991834	-0.225251	-0.059417
O27	O	2.325167	0.108082	0.273917
O28	O	1.520512	-0.619013	-0.116273
O29	O	1.853846	-0.285679	0.217060
O30	O	2.187179	0.047654	0.550393
O31	O	1.385045	-0.385071	-0.288068
O32	O	1.718379	-0.051738	0.045266
O33	O	2.051712	0.281595	0.378599
O34	O	1.204164	-0.504942	-0.318582
O35	O	1.537497	-0.171608	0.014752
O36	O	1.870831	0.161725	0.348085
O37	O	1.340568	-0.769279	-0.446384
O38	O	1.673902	-0.435945	-0.113051
O39	O	2.007235	-0.102612	0.220282
O40	O	1.179276	-0.618849	-0.457313
O41	O	1.512609	-0.285516	-0.123980
O42	O	1.845943	0.047817	0.209354
O43	O	1.487665	-0.769349	-0.299372
O44	O	1.820998	-0.436016	0.033961
O45	O	2.154331	-0.102682	0.367294
O46	O	1.464361	-0.558491	-0.586778
O47	O	1.797694	-0.225158	-0.253445
O48	O	2.131028	0.108175	0.079889
O49	O	1.327310	-0.649315	-0.609898
O50	O	1.660643	-0.315982	-0.276565
O51	O	1.993977	0.017351	0.056769
C52	C	1.153428	-0.558476	-0.392586
C53	C	1.486761	-0.225143	-0.059253
C54	C	1.820094	0.108190	0.274081
C55	C	1.036121	-0.548023	-0.406821
C56	C	1.369455	-0.214689	-0.073487
C57	C	1.702788	0.118644	0.259846
C58	C	0.867535	-0.577624	-0.366676
C59	C	1.200868	-0.244290	-0.033343
C60	C	1.534202	0.089043	0.299990
C61	C	0.988777	-0.588428	-0.351966
C62	C	1.322110	-0.255094	-0.018633
C63	C	1.655444	0.078239	0.314700
C64	C	1.411863	-0.800409	-0.375131
C65	C	1.745196	-0.467075	-0.041798
C66	C	2.078530	-0.133742	0.291535
C67	C	1.405148	-0.893071	-0.381845
C68	C	1.738481	-0.559737	-0.048512
C69	C	2.071814	-0.226404	0.284821
C70	C	1.392852	-1.062720	-0.394084
C71	C	1.726185	-0.729387	-0.060751
C72	C	2.059518	-0.396053	0.272582
C73	C	1.462642	-1.104049	-0.324322
C74	C	1.795975	-0.770716	0.009012
C75	C	2.129309	-0.437383	0.342345
C76	C	1.455801	-1.198448	-0.331132
C77	C	1.789134	-0.865115	0.002202
C78	C	2.122467	-0.531781	0.335535
C79	C	1.399692	-0.968313	-0.387276
C80	C	1.733025	-0.634980	-0.053943
C81	C	2.066358	-0.301646	0.279391
C82	C	1.702886	-0.607547	-0.326037
C83	C	2.036220	-0.274213	0.007297
C84	C	2.369553	0.059120	0.340630
C85	C	1.820188	-0.618023	-0.311829
C86	C	2.153521	-0.284689	0.021504
C87	C	2.486854	0.048644	0.354837
C88	C	1.390703	-0.607323	-0.637125
C89	C	1.724036	-0.273990	-0.303792
C90	C	2.057370	0.059344	0.029542
C91	C	1.375004	-0.617781	-0.755937
C92	C	1.708337	-0.284447	-0.422604
C93	C	2.041670	0.048886	-0.089271
C94	C	1.443390	-0.366363	-0.343597
C95	C	1.776723	-0.033030	-0.010264
C96	C	2.110057	0.300304	0.323070
C97	C	1.450350	-0.273693	-0.336557
C98	C	1.783683	0.059640	-0.003224
C99	C	2.117016	0.392974	0.330109
C100	C	1.435869	-0.577548	-0.797430
C101	C	1.769202	-0.244215	-0.464096
C102	C	2.102535	0.089119	-0.130763
C103	C	1.419644	-0.588356	-0.920229
C104	C	1.752977	-0.255022	-0.586895
C105	C	2.086311	0.078311	-0.253562
C106	C	1.464712	-0.558530	-0.080540
C107	C	1.798045	-0.225196	0.252793
C108	C	2.131378	0.108137	0.586127
C109	C	1.480517	-0.548117	0.038283
C110	C	1.813851	-0.214784	0.371617
C111	C	2.147184	0.118549	0.704950
H112	H	1.037997	-0.631012	-0.294111
H113	H	1.371330	-0.297679	0.039223
H114	H	1.704664	0.035654	0.372556
H115	H	1.527529	-1.068536	-0.259481
H116	H	1.860863	-0.735203	0.073853
H117	H	2.194196	-0.401870	0.407186
C118	C	1.567124	-0.490752	-0.886909
C119	C	1.900457	-0.157419	-0.553575
C120	C	2.233790	0.175914	-0.220242
H121	H	1.566655	-0.491000	-0.814189
H122	H	1.899989	-0.157666	-0.480855
H123	H	2.233322	0.175667	-0.147522
H124	H	1.634758	-0.510899	-0.897365
H125	H	1.968091	-0.177565	-0.564032
H126	H	2.301424	0.155768	-0.230699
H127	H	1.553366	-0.434954	-0.903012
H128	H	1.886699	-0.101621	-0.569679
H129	H	2.220032	0.231712	-0.236345
C130	C	1.305207	-1.110690	-0.481680
C131	C	1.638541	-0.777357	-0.148347
C132	C	1.971874	-0.444023	0.184986
H133	H	1.312062	-1.168764	-0.474826
H134	H	1.645395	-0.835431	-0.141493
H135	H	1.978728	-0.502097	0.191840
H136	H	1.237385	-1.088764	-0.473631
H137	H	1.570718	-0.755430	-0.140298
H138	H	1.904052	-0.422097	0.193035
H139	H	1.312124	-1.104155	-0.550633
H140	H	1.645457	-0.770822	-0.217299
H141	H	1.978790	-0.437489	0.116034
C142	C	1.333018	-0.645703	-0.995035
C143	C	1.666351	-0.312370	-0.661702
C144	C	1.999685	0.020963	-0.328369
H145	H	1.296941	-0.669549	-0.953079
H146	H	1.630274	-0.336215	-0.619746
H147	H	1.963608	-0.002882	-0.286413
H148	H	1.283661	-0.613494	-1.041898
H149	H	1.616994	-0.280161	-0.708565
H150	H	1.950328	0.053172	-0.375231
H151	H	1.365021	-0.689460	-1.036270
H152	H	1.698354	-0.356127	-0.702936
H153	H	2.031687	-0.022794	-0.369603
C154	C	0.801049	-0.520094	-0.444825
C155	C	1.134383	-0.186760	-0.111491
C156	C	1.467716	0.146573	0.221842
H157	H	0.728282	-0.520384	-0.444465
H158	H	1.061615	-0.187051	-0.111132
H159	H	1.394948	0.146283	0.222202
H160	H	0.825196	-0.464311	-0.422848
H161	H	1.158529	-0.130977	-0.089514
H162	H	1.491862	0.202356	0.243819
H163	H	0.808641	-0.540107	-0.515387
H164	H	1.141975	-0.206774	-0.182053
H165	H	1.475308	0.126560	0.151280
C166	C	0.969640	-0.490494	-0.484980
C167	C	1.302974	-0.157161	-0.151647
C168	C	1.636307	0.176172	0.181687
H169	H	0.896872	-0.490785	-0.484624
H170	H	1.230205	-0.157452	-0.151290
H171	H	1.563539	0.175882	0.182043
H172	H	0.993785	-0.434710	-0.463008
H173	H	1.327118	-0.101377	-0.129675
H174	H	1.660451	0.231956	0.203659
H175	H	0.977237	-0.510512	-0.555539
H176	H	1.310570	-0.177179	-0.222206
H177	H	1.643903	0.156154	0.111127
C178	C	0.886673	-0.675556	-0.233686
C179	C	1.220006	-0.342223	0.099648
C180	C	1.553339	-0.008890	0.432981
H181	H	0.959438	-0.675276	-0.234057
H182	H	1.292771	-0.341942	0.099276
H183	H	1.626105	-0.008609	0.432610
H184	H	0.879079	-0.655556	-0.163127
H185	H	1.212413	-0.322223	0.170206
H186	H	1.545746	0.011111	0.503539
H187	H	0.862524	-0.731343	-0.255679
H188	H	1.195857	-0.398010	0.077654
H189	H	1.529190	-0.064676	0.410987
H190	H	1.499993	-0.535105	-0.742044
H191	H	1.833326	-0.201772	-0.408710
H192	H	2.166660	0.131561	-0.075377
H193	H	1.310888	-0.660230	-0.811325
H194	H	1.644221	-0.326897	-0.477992
H195	H	1.977554	0.006437	-0.144659
