data_functionalizedCrystal
_audit_creation_method	'MofGen! by Chris Wilmer'
_symmetry_space_group_name_H-M	'P1'
_symmetry_Int_Tables_number	1
_symmetry_cell_setting	triclinic
loop_
_symmetry_equiv_pos_as_xyz
  x,y,z
_cell_length_a	16.959455
_cell_length_b	25.639239
_cell_length_c	16.959447
_cell_angle_alpha	90.033631
_cell_angle_beta	90.020374
_cell_angle_gamma	90.036304
loop_
_atom_site_label
_atom_site_type_symbol
_atom_site_fract_x
_atom_site_fract_y
_atom_site_fract_z
Zn1	Zn	1.208278	-0.208182	0.447018
Zn2	Zn	1.708278	0.291818	0.947018
Zn3	Zn	1.208156	-0.295623	0.314832
Zn4	Zn	1.708156	0.204377	0.814832
Zn5	Zn	1.076107	-0.208199	0.314842
Zn6	Zn	1.576107	0.291801	0.814842
Zn7	Zn	1.076027	-0.295584	0.446957
Zn8	Zn	1.576027	0.204416	0.946957
O9	O	1.142142	-0.251897	0.380912
O10	O	1.642142	0.248103	0.880912
O11	O	1.318873	-0.219791	0.429505
O12	O	1.818873	0.280209	0.929505
O13	O	1.190622	-0.284049	0.204222
O14	O	1.690622	0.215951	0.704222
O15	O	1.093724	-0.135031	0.332405
O16	O	1.593724	0.364969	0.832405
O17	O	1.318784	-0.284033	0.332388
O18	O	1.818784	0.215967	0.832388
O19	O	1.190830	-0.135019	0.429514
O20	O	1.690830	0.364981	0.929514
O21	O	1.093606	-0.219819	0.204229
O22	O	1.593606	0.280181	0.704229
O23	O	0.965485	-0.219781	0.332345
O24	O	1.465485	0.280219	0.832345
O25	O	1.093588	-0.283966	0.557576
O26	O	1.593588	0.216034	1.057576
O27	O	0.965427	-0.283982	0.429410
O28	O	1.465427	0.216018	0.929410
O29	O	1.190753	-0.219753	0.557621
O30	O	1.690753	0.280247	1.057621
O31	O	1.190545	-0.368783	0.332329
O32	O	1.690545	0.131217	0.832329
O33	O	1.093470	-0.368754	0.429400
O34	O	1.593470	0.131246	0.929400
C35	C	0.936776	-0.251880	0.380872
C36	C	1.436776	0.248120	0.880872
C37	C	0.848919	-0.251885	0.380874
C38	C	1.348919	0.248115	0.880874
C39	C	0.477386	-0.285315	0.330318
C40	C	0.977386	0.214685	0.830318
C41	C	0.477501	-0.218522	0.431603
C42	C	0.977501	0.281478	0.931603
C43	C	0.560047	-0.218514	0.431583
C44	C	1.060047	0.281486	0.931583
C45	C	0.601266	-0.251907	0.380931
C46	C	1.101266	0.248093	0.880931
C47	C	0.559940	-0.285308	0.330299
C48	C	1.059940	0.214692	0.830299
C49	C	0.601379	-0.185117	0.482221
C50	C	1.101379	0.314883	0.982221
C51	C	0.683930	-0.185107	0.482204
C52	C	1.183930	0.314893	0.982204
C53	C	0.725151	-0.218498	0.431548
C54	C	1.225151	0.281502	0.931548
C55	C	0.683820	-0.251900	0.380912
C56	C	1.183820	0.248100	0.880912
C57	C	0.725039	-0.285293	0.330260
C58	C	1.225039	0.214707	0.830260
C59	C	0.683709	-0.318693	0.279620
C60	C	1.183709	0.181307	0.779620
C61	C	0.601161	-0.318699	0.279642
C62	C	1.101161	0.181301	0.779642
C63	C	0.807700	-0.218492	0.431526
C64	C	1.307700	0.281508	0.931526
C65	C	0.807593	-0.285286	0.330241
C66	C	1.307593	0.214714	0.830241
C67	C	1.142007	-0.387739	0.380874
C68	C	1.642007	0.112261	0.880874
C69	C	1.142022	-0.445853	0.380884
C70	C	1.642022	0.054147	0.880884
C71	C	1.091586	-0.697044	0.431441
C72	C	1.591586	-0.197044	0.931441
C73	C	1.091556	-0.642440	0.431432
C74	C	1.591556	-0.142440	0.931432
O75	O	1.048544	-0.614201	0.474391
O76	O	1.548544	-0.114201	0.974391
N77	N	1.142121	-0.615127	0.380925
N78	N	1.642121	-0.115127	0.880925
C79	C	1.192724	-0.642422	0.330430
C80	C	1.692724	-0.142422	0.830430
O81	O	1.235731	-0.614176	0.287470
O82	O	1.735731	-0.114176	0.787470
C83	C	1.192757	-0.697025	0.330444
C84	C	1.692757	-0.197025	0.830444
C85	C	1.142183	-0.724335	0.380948
C86	C	1.642183	-0.224335	0.880948
C87	C	1.041017	-0.724354	0.481942
C88	C	1.541017	-0.224354	0.981942
C89	C	1.041045	-0.778955	0.481950
C90	C	1.541045	-0.278955	0.981950
C91	C	1.091643	-0.806245	0.431457
C92	C	1.591643	-0.306245	0.931457
C93	C	1.142211	-0.778935	0.380956
C94	C	1.642211	-0.278935	0.880956
C95	C	1.243363	-0.724318	0.279954
C96	C	1.743363	-0.224318	0.779954
C97	C	1.243392	-0.778925	0.279972
C98	C	1.743392	-0.278925	0.779972
C99	C	1.192818	-0.806235	0.330476
C100	C	1.692818	-0.306235	0.830476
C101	C	1.192837	-0.860826	0.330471
C102	C	1.692837	-0.360826	0.830471
N103	N	1.142273	-0.888139	0.380978
N104	N	1.642273	-0.388139	0.880978
C105	C	1.091675	-0.860849	0.431471
C106	C	1.591675	-0.360849	0.931471
C107	C	1.192652	-0.527751	0.330406
C108	C	1.692652	-0.027751	0.830406
C109	C	1.192616	-0.473149	0.330388
C110	C	1.692616	0.026851	0.830388
C111	C	1.091450	-0.473171	0.431391
C112	C	1.591450	0.026829	0.931391
C113	C	1.091482	-0.527774	0.431404
C114	C	1.591482	-0.027774	0.931404
C115	C	1.142088	-0.555064	0.380913
C116	C	1.642088	-0.055064	0.880913
C117	C	1.091738	-0.975514	0.431483
C118	C	1.591738	-0.475514	0.931483
C119	C	1.091769	-1.030119	0.431484
C120	C	1.591769	-0.530119	0.931484
C121	C	1.192938	-1.030092	0.330485
C122	C	1.692938	-0.530092	0.830485
C123	C	1.192905	-0.975492	0.330480
C124	C	1.692905	-0.475492	0.830480
C125	C	1.142302	-0.948204	0.380986
C126	C	1.642302	-0.448204	0.880986
O127	O	1.235830	-0.889100	0.287536
O128	O	1.735830	-0.389100	0.787536
O129	O	1.048683	-0.889101	0.474431
O130	O	1.548683	-0.389101	0.974431
C131	C	1.348310	-0.251914	0.380952
C132	C	1.848310	0.248086	0.880952
C133	C	1.436167	-0.251922	0.380970
C134	C	1.936167	0.248078	0.880970
C135	C	1.142175	-0.251853	0.587080
C136	C	1.642175	0.248147	1.087080
C137	C	1.142189	-0.251835	0.674937
C138	C	1.642189	0.248165	1.174937
C139	C	1.142299	-0.115524	0.380968
C140	C	1.642299	0.384476	0.880968
C141	C	1.142366	-0.057410	0.380991
C142	C	1.642366	0.442590	0.880991
C143	C	1.142155	-0.251902	0.175546
C144	C	1.642155	0.248098	0.675546
C145	C	1.142294	-0.251773	0.087690
C146	C	1.642294	0.248227	0.587690
C147	C	1.091694	-0.285213	1.046392
C148	C	1.591694	0.214787	1.546392
C149	C	1.192873	-0.218347	1.046434
C150	C	1.692873	0.281653	1.546434
C151	C	1.192852	-0.218358	0.963888
C152	C	1.692852	0.281642	1.463888
C153	C	1.142252	-0.251798	0.922590
C154	C	1.642252	0.248202	1.422590
C155	C	1.091674	-0.285226	0.963838
C156	C	1.591674	0.214774	1.463838
C157	C	1.243435	-0.184934	0.922634
C158	C	1.743435	0.315066	1.422634
C159	C	1.243416	-0.184944	0.840083
C160	C	1.743416	0.315056	1.340083
C161	C	1.192812	-0.218381	0.798783
C162	C	1.692812	0.281619	1.298783
C163	C	1.142231	-0.251811	0.840037
C164	C	1.642231	0.248189	1.340037
C165	C	1.091632	-0.285250	0.798739
C166	C	1.591632	0.214750	1.298739
C167	C	1.041046	-0.318678	0.839990
C168	C	1.541046	0.181322	1.339990
C169	C	1.041069	-0.318664	0.922539
C170	C	1.541069	0.181336	1.422539
C171	C	1.192789	-0.218395	0.716235
C172	C	1.692789	0.281605	1.216235
C173	C	1.091611	-0.285264	0.716185
C174	C	1.591611	0.214736	1.216185
H175	H	0.841148	-0.312478	0.288991
H176	H	1.341148	0.187522	0.788991
N177	N	1.247439	-0.946027	0.276005
N178	N	1.747439	-0.446027	0.776005
H179	H	1.235203	-0.955561	0.219517
H180	H	1.735203	-0.455561	0.719517
H181	H	1.303891	-0.955500	0.288404
H182	H	1.803891	-0.455500	0.788404
H183	H	1.284606	-0.157725	0.806503
H184	H	1.784606	0.342275	1.306503
H185	H	1.234130	-1.052322	0.289372
H186	H	1.734130	-0.552322	0.789372
H187	H	1.050305	-0.550006	0.472534
H188	H	1.550305	-0.050006	0.972534
H189	H	0.999888	-0.345880	0.956133
H190	H	1.499888	0.154120	1.456133
H191	H	1.050399	-0.312490	0.682566
H192	H	1.550399	0.187510	1.182566
H193	H	0.717574	-0.157910	0.523438
H194	H	1.217574	0.342090	1.023438
H195	H	0.999862	-0.801186	0.523074
H196	H	1.499862	-0.301186	1.023074
N197	N	1.298008	-0.148870	0.967174
N198	N	1.798008	0.351130	1.467174
H199	H	1.354471	-0.157001	0.952815
H200	H	1.854471	0.342999	1.452815
H201	H	1.290274	-0.153951	1.025713
H202	H	1.790274	0.346049	1.525713
H203	H	0.567812	-0.157933	0.523464
H204	H	1.067812	0.342067	1.023464
N205	N	0.852278	-0.182477	0.486143
N206	N	1.352278	0.317523	0.986143
H207	H	0.813639	-0.161326	0.518237
H208	H	1.313639	0.338674	1.018237
H209	H	0.886527	-0.158249	0.454030
H210	H	1.386527	0.341751	0.954030
N211	N	1.037143	-0.321269	1.090880
N212	N	1.537143	0.178731	1.590880
H213	H	1.005089	-0.342454	1.052189
H214	H	1.505089	0.157546	1.552189
H215	H	1.000594	-0.299978	1.125136
H216	H	1.500594	0.200022	1.625136
N217	N	0.986437	-0.694922	0.536401
N218	N	1.486437	-0.194922	1.036401
H219	H	0.998677	-0.704391	0.592892
H220	H	1.498677	-0.204391	1.092892
H221	H	0.930001	-0.704487	0.523994
H222	H	1.430001	-0.204487	1.023994
H223	H	0.567503	-0.345891	0.238413
H224	H	1.067503	0.154109	0.738413
H225	H	0.443935	-0.191338	0.472846
H226	H	0.943935	0.308662	0.972846
N227	N	0.432817	-0.321333	0.275694
N228	N	0.932817	0.178667	0.775694
H229	H	0.374267	-0.316271	0.283385
H230	H	0.874267	0.183729	0.783385
H231	H	0.447221	-0.358684	0.287887
H232	H	0.947221	0.141316	0.787887
N233	N	1.036875	-0.443731	0.485853
N234	N	1.536875	0.056269	0.985853
H235	H	1.044534	-0.404997	0.478178
H236	H	1.544534	0.095003	0.978178
H237	H	1.049147	-0.453238	0.542320
H238	H	1.549147	0.046762	1.042320
H239	H	0.717281	-0.345884	0.238383
H240	H	1.217281	0.154116	0.738383
H241	H	1.050584	-1.052352	0.472613
H242	H	1.550584	-0.552352	0.972613
H243	H	1.284604	-0.801142	0.238857
H244	H	1.784604	-0.301142	0.738857
H245	H	1.234073	-0.191125	1.080064
H246	H	1.734073	0.308875	1.580064
H247	H	0.999851	-0.345907	0.806355
H248	H	1.499851	0.154093	1.306355
H249	H	1.050534	-0.953302	0.472610
H250	H	1.550534	-0.453302	0.972610
H251	H	1.233789	-0.450917	0.289254
H252	H	1.733789	0.049083	0.789254
H253	H	1.233860	-0.549967	0.289283
H254	H	1.733860	-0.049967	0.789283
N255	N	1.297920	-0.694871	0.225490
N256	N	1.797920	-0.194871	0.725490
H257	H	1.329980	-0.720453	0.193517
H258	H	1.829980	-0.220453	0.693517
H259	H	1.334464	-0.672181	0.257708
H260	H	1.834464	-0.172181	0.757708
N261	N	1.247347	-0.182351	0.671741
N262	N	1.747347	0.317649	1.171741
H263	H	1.279408	-0.161167	0.710429
H264	H	1.779408	0.338833	1.210429
H265	H	1.215195	-0.158155	0.637501
H266	H	1.715195	0.341845	1.137501
