data_functionalizedCrystal
_audit_creation_method	'MofGen! by Chris Wilmer'
_symmetry_space_group_name_H-M	'P1'
_symmetry_Int_Tables_number	1
_symmetry_cell_setting	triclinic
loop_
_symmetry_equiv_pos_as_xyz
  x,y,z
_cell_length_a	17.699097
_cell_length_b	17.699104
_cell_length_c	16.776229
_cell_angle_alpha	89.992410
_cell_angle_beta	89.989262
_cell_angle_gamma	83.289974
loop_
_atom_site_label
_atom_site_type_symbol
_atom_site_fract_x
_atom_site_fract_y
_atom_site_fract_z
O1	O	1.004079	0.095760	-0.066356
O2	O	0.783703	0.108202	-0.066343
O3	O	0.900109	-0.008207	-0.066343
O4	O	0.887673	0.212169	-0.066356
O5	O	0.900094	-0.008214	0.066234
O6	O	0.783688	0.108195	0.066233
O7	O	1.004064	0.095753	0.066220
Zn8	Zn	0.893873	0.101972	0.087276
Zn9	Zn	0.893894	0.101982	-0.087399
O10	O	0.887658	0.212161	0.066220
C11	C	0.755499	0.107751	-0.000053
C12	C	0.671481	0.106408	-0.000048
C13	C	0.155771	0.098183	-0.072347
C14	C	0.234715	0.099439	-0.072344
C15	C	0.274172	0.100064	-0.000073
C16	C	0.234683	0.099426	0.072199
C17	C	0.155741	0.098164	0.072194
C18	C	0.553047	0.104513	0.072219
C19	C	0.631994	0.105777	0.072218
C20	C	0.632021	0.105788	-0.072318
C21	C	0.553079	0.104526	-0.072323
C22	C	0.513597	0.103884	-0.000052
C23	C	0.427997	0.102520	-0.000057
C24	C	0.359770	0.101433	-0.000067
C25	C	0.899653	-0.036407	-0.000055
C26	C	0.898308	-0.120425	-0.000054
C27	C	0.959052	-0.645293	-0.000080
C28	C	0.960311	-0.566349	-0.000073
C29	C	0.891976	-0.517735	-0.000067
C30	C	0.822378	-0.548068	-0.000061
C31	C	0.821119	-0.627010	-0.000062
C32	C	0.827451	-0.229702	-0.000054
C33	C	0.828715	-0.150754	-0.000055
C34	C	0.966642	-0.169040	-0.000066
C35	C	0.965384	-0.247983	-0.000067
C36	C	0.895786	-0.278309	-0.000056
C37	C	0.894422	-0.363909	-0.000062
C38	C	0.893340	-0.432136	-0.000067
C39	C	1.032268	0.096204	-0.000071
C40	C	1.116286	0.097546	-0.000082
C41	C	0.888114	0.240362	-0.000070
C42	C	0.889459	0.324379	-0.000076
N43	N	0.893865	0.101966	0.206487
N44	N	0.893908	0.101983	-0.206610
C45	C	0.945425	0.050441	0.248205
C46	C	0.945430	0.050440	0.331657
C47	C	0.893877	0.101969	0.373390
C48	C	0.842311	0.153496	0.331667
C49	C	0.842304	0.153492	0.248217
C50	C	0.842338	0.153511	0.668214
C51	C	0.842351	0.153512	0.751671
C52	C	0.945464	0.050459	0.751655
C53	C	0.945457	0.050455	0.668204
C54	C	0.893889	0.101979	0.626488
C55	C	0.893884	0.101978	0.536000
C56	C	0.893884	0.101974	0.463877
H57	H	0.123649	0.097679	-0.131199
H58	H	0.987413	0.008485	0.365623
N59	N	1.041712	-0.136333	-0.000063
H60	H	1.045317	-0.103977	-0.049204
H61	H	1.045257	-0.104036	0.049120
H62	H	0.987451	0.008502	0.785629
H63	H	0.664119	0.106286	0.131074
N64	N	0.674602	0.106472	-0.150274
H65	H	0.701141	0.153893	-0.153497
H66	H	0.713532	0.060063	-0.153449
H67	H	0.764450	-0.651702	-0.000052
H68	H	0.987439	0.008499	0.634227
H69	H	0.266860	0.099952	-0.131190
N70	N	0.786724	0.209092	0.623239
H71	H	0.815577	0.242570	0.588599
H72	H	0.753269	0.180160	0.588678
H73	H	0.520912	0.103979	0.131067
H74	H	0.520956	0.104021	-0.131173
N75	N	0.277236	0.100098	0.150150
H76	H	0.333237	0.100997	0.139188
H77	H	0.257210	0.146776	0.181703
N78	N	0.786740	0.209086	0.796686
H79	H	0.754068	0.241724	0.757598
H80	H	0.753347	0.180142	0.831326
N81	N	0.113153	0.097473	0.150139
H82	H	0.150196	0.097530	0.195920
H83	H	0.074540	0.144118	0.153528
H84	H	1.014698	-0.684870	-0.000092
N85	N	0.786701	0.209069	0.376675
H86	H	0.794529	0.201255	0.435871
H87	H	0.795342	0.262751	0.362074
H88	H	1.016980	-0.541660	-0.000076
H89	H	1.021029	-0.287561	-0.000076
N90	N	0.755008	-0.098317	-0.000049
H91	H	0.710726	-0.129507	-0.000040
H92	H	0.752527	-0.065170	0.049098
N93	N	0.752388	-0.262405	-0.000031
H94	H	0.709292	-0.219628	-0.000026
H95	H	0.748857	-0.294760	-0.049173
N96	N	0.748672	-0.495638	-0.000031
H97	H	0.760028	-0.441026	-0.000028
H98	H	0.718329	-0.505432	-0.049171
H99	H	0.987409	0.008484	0.214231
H100	H	0.800317	0.195448	0.214251
