data_functionalizedCrystal
_audit_creation_method	'MofGen! by Chris Wilmer'
_symmetry_space_group_name_H-M	'P1'
_symmetry_Int_Tables_number	1
_symmetry_cell_setting	triclinic
loop_
_symmetry_equiv_pos_as_xyz
  x,y,z
_cell_length_a	21.395362
_cell_length_b	18.215405
_cell_length_c	18.215387
_cell_angle_alpha	89.906010
_cell_angle_beta	89.922988
_cell_angle_gamma	90.040762
loop_
_atom_site_label
_atom_site_type_symbol
_atom_site_fract_x
_atom_site_fract_y
_atom_site_fract_z
Zn1	Zn	0.958090	-0.292219	-0.416482
Zn2	Zn	1.458090	0.207781	0.083518
Zn3	Zn	0.957942	-0.415426	-0.293409
Zn4	Zn	1.457942	0.084574	0.206591
Zn5	Zn	0.853244	-0.292412	-0.293387
Zn6	Zn	1.353244	0.207588	0.206613
Zn7	Zn	0.853285	-0.415282	-0.416393
Zn8	Zn	1.353285	0.084718	0.083607
O9	O	0.905640	-0.353835	-0.354918
O10	O	1.405640	0.146165	0.145082
O11	O	1.045748	-0.308542	-0.400202
O12	O	1.545748	0.191458	0.099798
O13	O	0.943975	-0.399249	-0.190422
O14	O	1.443975	0.100751	0.309578
O15	O	0.867197	-0.189402	-0.309744
O16	O	1.367197	0.310598	0.190256
O17	O	1.045640	-0.399062	-0.309781
O18	O	1.545640	0.100938	0.190219
O19	O	0.944227	-0.189260	-0.400181
O20	O	1.444227	0.310740	0.099819
O21	O	0.867054	-0.308871	-0.190406
O22	O	1.367054	0.191129	0.309594
O23	O	0.765572	-0.308732	-0.309658
O24	O	1.265572	0.191268	0.190342
O25	O	0.867266	-0.398816	-0.519390
O26	O	1.367266	0.101184	-0.019390
O27	O	0.765601	-0.399004	-0.400030
O28	O	1.265601	0.100996	0.099970
O29	O	0.944266	-0.308402	-0.519455
O30	O	1.444266	0.191598	-0.019455
O31	O	0.944014	-0.518391	-0.309696
O32	O	1.444014	-0.018391	0.190304
O33	O	0.867123	-0.518286	-0.400052
O34	O	1.367123	-0.018286	0.099948
C35	C	0.742853	-0.353874	-0.354833
C36	C	1.242853	0.146126	0.145167
C37	C	0.673211	-0.353908	-0.354814
C38	C	1.173211	0.146092	0.145186
C39	C	0.640530	-0.400975	-0.401800
C40	C	1.140530	0.099025	0.098200
C41	C	0.575095	-0.400957	-0.401833
C42	C	1.075095	0.099043	0.098167
C43	C	0.542343	-0.353880	-0.354866
C44	C	1.042343	0.146120	0.145134
C45	C	0.575032	-0.306803	-0.307876
C46	C	1.075032	0.193197	0.192124
C47	C	0.640466	-0.306818	-0.307850
C48	C	1.140466	0.193182	0.192150
C49	C	0.438585	-0.348037	-0.288614
C50	C	0.938585	0.151963	0.211386
C51	C	0.373152	-0.348028	-0.288639
C52	C	0.873152	0.151972	0.211361
C53	C	0.340522	-0.353832	-0.354947
C54	C	0.840522	0.146168	0.145053
C55	C	0.373333	-0.359660	-0.421233
C56	C	0.873333	0.140340	0.078767
C57	C	0.438768	-0.359674	-0.421207
C58	C	0.938768	0.140326	0.078793
C59	C	0.471391	-0.353859	-0.354889
C60	C	0.971391	0.146141	0.145111
C61	C	0.236889	-0.400882	-0.401973
C62	C	0.736889	0.099118	0.098027
C63	C	0.171452	-0.400858	-0.402007
C64	C	0.671452	0.099142	0.097993
C65	C	0.171391	-0.306709	-0.308044
C66	C	0.671391	0.193291	0.191956
C67	C	0.236826	-0.306728	-0.308017
C68	C	0.736826	0.193272	0.191983
C69	C	0.269571	-0.353818	-0.354980
C70	C	0.769571	0.146182	0.145020
C71	C	0.905574	-0.545041	-0.354883
C72	C	1.405574	-0.045041	0.145117
C73	C	0.905603	-0.626840	-0.354892
C74	C	1.405603	-0.126840	0.145108
C75	C	0.945735	-0.815064	-0.307930
C76	C	1.445735	-0.315064	0.192070
C77	C	0.945763	-0.891923	-0.307948
C78	C	1.445763	-0.391923	0.192052
C79	C	0.865626	-0.891853	-0.401958
C80	C	1.365626	-0.391853	0.098042
C81	C	0.865602	-0.814996	-0.401944
C82	C	1.365602	-0.314996	0.098056
C83	C	0.905655	-0.776603	-0.354926
C84	C	1.405655	-0.276603	0.145074
C85	C	0.905707	-0.930319	-0.354958
C86	C	1.405707	-0.430319	0.145042
C87	C	0.905738	-1.013653	-0.354978
C88	C	1.405738	-0.513653	0.145022
C89	C	0.905626	-0.693264	-0.354907
C90	C	1.405626	-0.193264	0.145093
C91	C	1.069064	-0.353796	-0.355004
C92	C	1.569064	0.146204	0.144996
C93	C	1.138705	-0.353780	-0.355041
C94	C	1.638705	0.146220	0.144959
C95	C	0.905787	-0.353571	-0.546871
C96	C	1.405787	0.146429	-0.046871
C97	C	0.905849	-0.353459	-0.628671
C98	C	1.405849	0.146541	-0.128671
C99	C	0.905724	-0.161882	-0.354970
C100	C	1.405724	0.338118	0.145030
C101	C	0.905759	-0.080083	-0.354992
C102	C	1.405759	0.419917	0.145008
C103	C	0.905530	-0.354044	-0.163711
C104	C	1.405530	0.145956	0.336289
C105	C	0.905589	-0.353949	-0.081913
C106	C	1.405589	0.146051	0.418087
C107	C	0.945542	-0.306252	0.182917
C108	C	1.445542	0.193748	0.682917
C109	C	0.945497	-0.306334	0.106058
C110	C	1.445497	0.193666	0.606058
C111	C	0.865892	-0.401158	0.106505
C112	C	1.365892	0.098842	0.606505
C113	C	0.865935	-0.401072	0.183362
C114	C	1.365935	0.098928	0.683362
C115	C	0.905763	-0.353621	0.221566
C116	C	1.405763	0.146379	0.721566
C117	C	0.905676	-0.353787	0.067851
C118	C	1.405676	0.146213	0.567851
C119	C	0.905627	-0.353876	-0.015483
C120	C	1.405627	0.146124	0.484517
C121	C	0.905811	-0.353531	0.304905
C122	C	1.405811	0.146469	0.804905
H123	H	0.465147	-0.343308	-0.234614
H124	H	0.965147	0.156692	0.265386
O125	O	0.988394	-0.255238	0.064368
O126	O	1.488394	0.244762	0.564368
H127	H	1.020434	-0.287932	0.029355
H128	H	1.520434	0.212068	0.529355
O129	O	0.988494	-0.255073	0.224127
O130	O	1.488494	0.244927	0.724127
H131	H	0.977408	-0.197425	0.209249
H132	H	1.477408	0.302575	0.709249
H133	H	0.263551	-0.439222	-0.440217
H134	H	0.763551	0.060778	0.059783
H135	H	0.548362	-0.268471	-0.269637
H136	H	1.048362	0.231529	0.230363
O137	O	0.988999	-0.933403	-0.257266
O138	O	1.488999	-0.433403	0.242734
H139	H	0.982297	-0.993297	-0.265182
H140	H	1.482297	-0.493297	0.234818
O141	O	0.337764	-0.341738	-0.217151
O142	O	0.837764	0.158262	0.282849
H143	H	0.371445	-0.337688	-0.171039
H144	H	0.871445	0.162312	0.328961
H145	H	0.667075	-0.268488	-0.269588
H146	H	1.167075	0.231512	0.230412
H147	H	0.833015	-0.923121	-0.440238
H148	H	1.333015	-0.423121	0.059762
O149	O	0.822937	-0.452338	0.065301
O150	O	1.322937	0.047662	0.565301
H151	H	0.829593	-0.444445	0.005364
H152	H	1.329593	0.055555	0.505364
O153	O	0.822362	-0.773504	-0.452623
O154	O	1.322362	-0.273504	0.047377
H155	H	0.794504	-0.813111	-0.485308
H156	H	1.294504	-0.313111	0.014692
O157	O	0.988946	-0.773660	-0.257230
O158	O	1.488946	-0.273660	0.242770
H159	H	1.020808	-0.738545	-0.290219
H160	H	1.520808	-0.238545	0.209781
H161	H	0.667187	-0.439319	-0.440042
H162	H	1.167187	0.060681	0.059958
O163	O	0.823010	-0.452143	0.225057
O164	O	1.323010	0.047857	0.725057
H165	H	0.795307	-0.485153	0.185581
H166	H	1.295307	0.014847	0.685581
H167	H	0.548480	-0.439285	-0.440097
H168	H	1.048480	0.060715	0.059903
H169	H	0.465480	-0.364418	-0.475179
H170	H	0.965480	0.135582	0.024821
H171	H	0.346768	-0.364385	-0.475228
H172	H	0.846768	0.135615	0.024772
H173	H	0.144725	-0.268374	-0.269807
H174	H	0.644725	0.231626	0.230193
O175	O	0.136197	-0.451723	-0.452590
O176	O	0.636197	0.048277	0.047410
H177	H	0.169963	-0.484508	-0.485198
H178	H	0.669963	0.015492	0.014802
H179	H	0.263436	-0.268404	-0.269752
H180	H	0.763436	0.231596	0.230248
