data_functionalizedCrystal
_audit_creation_method	'MofGen! by Chris Wilmer'
_symmetry_space_group_name_H-M	'P1'
_symmetry_Int_Tables_number	1
_symmetry_cell_setting	triclinic
loop_
_symmetry_equiv_pos_as_xyz
  x,y,z
_cell_length_a	17.000371
_cell_length_b	14.853567
_cell_length_c	13.930277
_cell_angle_alpha	90.000757
_cell_angle_beta	89.992357
_cell_angle_gamma	100.382911
loop_
_atom_site_label
_atom_site_type_symbol
_atom_site_fract_x
_atom_site_fract_y
_atom_site_fract_z
O1	O	1.056142	-0.032482	-0.079833
O2	O	1.556142	0.467518	0.420167
O3	O	0.824445	-0.065199	-0.079831
O4	O	1.324445	0.434801	0.420169
O5	O	0.946482	0.082889	-0.079835
O6	O	1.446482	0.582889	0.420165
O7	O	0.934104	-0.180570	-0.079829
O8	O	1.434104	0.319430	0.420171
O9	O	0.946465	0.082890	0.079827
O10	O	1.446465	0.582890	0.579827
O11	O	0.824428	-0.065198	0.079831
O12	O	1.324428	0.434802	0.579831
O13	O	1.056125	-0.032480	0.079829
O14	O	1.556125	0.467520	0.579829
Zn15	Zn	0.940274	-0.048839	0.105180
Zn16	Zn	1.440274	0.451161	0.605180
Zn17	Zn	0.940296	-0.048841	-0.105182
Zn18	Zn	1.440296	0.451159	0.394818
O19	O	0.934088	-0.180568	0.079833
O20	O	1.434088	0.319432	0.579833
C21	C	0.794785	-0.066956	-0.000000
C22	C	1.294785	0.433044	0.500000
C23	C	0.706432	-0.072181	-0.000000
C24	C	1.206432	0.427819	0.500000
N25	N	0.940264	-0.048836	0.248746
N26	N	1.440264	0.451164	0.748746
C27	C	0.945913	0.116433	-0.000007
C28	C	1.445913	0.616433	0.499993
C29	C	0.944232	0.216381	-0.000015
C30	C	1.444232	0.716381	0.499985
C31	C	0.674318	0.008233	-0.000000
C32	C	1.174318	0.508233	0.500000
C33	C	0.591300	0.003318	-0.000007
C34	C	1.091300	0.503318	0.499993
C35	C	0.540398	-0.082013	-0.000007
C36	C	1.040398	0.417987	0.499993
C37	C	0.572518	-0.162433	-0.000010
C38	C	1.072518	0.337567	0.499990
C39	C	0.655534	-0.157517	-0.000010
C40	C	1.155534	0.342483	0.499990
C41	C	0.289273	-0.101003	-0.000013
C42	C	0.789273	0.398997	0.499987
C43	C	0.206252	-0.105913	-0.000010
C44	C	0.706252	0.394087	0.499990
C45	C	0.225040	0.059839	-0.000009
C46	C	0.725040	0.559839	0.499991
C47	C	0.308057	0.064748	-0.000004
C48	C	0.808057	0.564748	0.499996
C49	C	0.340169	-0.015673	-0.000011
C50	C	0.840169	0.484327	0.499989
C51	C	0.455541	-0.087039	-0.000011
C52	C	0.955541	0.412961	0.499989
C53	C	0.425025	-0.010646	-0.000014
C54	C	0.925025	0.489354	0.499986
C55	C	1.085785	-0.030724	-0.000004
C56	C	1.585785	0.469276	0.499996
C57	C	1.174138	-0.025498	-0.000010
C58	C	1.674138	0.474502	0.499990
C59	C	0.934657	-0.214112	0.000003
C60	C	1.434657	0.285888	0.500003
C61	C	0.936338	-0.314061	0.000005
C62	C	1.436338	0.185939	0.500005
C63	C	0.864635	0.622492	0.000004
C64	C	1.364635	1.122492	0.500004
C65	C	1.009618	0.655472	0.000003
C66	C	1.509618	1.155472	0.500003
C67	C	1.011198	0.561566	-0.000003
C68	C	1.511198	1.061566	0.499997
C69	C	0.939496	0.498118	-0.000004
C70	C	1.439496	0.998118	0.499996
C71	C	0.866213	0.528576	0.000001
C72	C	1.366213	1.028576	0.500001
C73	C	1.084480	0.531100	0.000002
C74	C	1.584480	1.031100	0.500002
C75	C	1.086063	0.437188	-0.000002
C76	C	1.586063	0.937188	0.499998
C77	C	1.014360	0.373739	-0.000010
C78	C	1.514360	0.873739	0.499990
C79	C	0.941074	0.404202	-0.000007
C80	C	1.441074	0.904202	0.499993
C81	C	0.869372	0.340755	-0.000008
C82	C	1.369372	0.840755	0.499992
C83	C	0.796085	0.371217	-0.000011
C84	C	1.296085	0.871217	0.499989
C85	C	0.794510	0.465127	-0.000007
C86	C	1.294510	0.965127	0.499993
C87	C	1.015935	0.279828	-0.000014
C88	C	1.515935	0.779828	0.499986
C89	C	0.870950	0.246839	-0.000010
C90	C	1.370950	0.746839	0.499990
N91	N	0.940312	-0.048836	-0.248748
N92	N	1.440312	0.451164	0.251252
C93	C	0.886256	-0.114390	0.701017
C94	C	1.386256	0.385610	1.201017
C95	C	0.994358	0.016717	0.700983
C96	C	1.494358	0.516717	1.200983
C97	C	0.994349	0.016719	0.600487
C98	C	1.494349	0.516719	1.100487
C99	C	0.940293	-0.048835	0.550251
C100	C	1.440293	0.451165	1.050251
C101	C	0.886246	-0.114392	0.600512
C102	C	1.386246	0.385608	1.100512
C103	C	1.048400	0.082269	0.550219
C104	C	1.548400	0.582269	1.050219
C105	C	1.048393	0.082273	0.449718
C106	C	1.548393	0.582273	0.949718
C107	C	0.994333	0.016722	0.399480
C108	C	1.494333	0.516722	0.899480
C109	C	0.940283	-0.048837	0.449746
C110	C	1.440283	0.451163	0.949746
C111	C	0.886227	-0.114391	0.399511
C112	C	1.386227	0.385609	0.899511
C113	C	0.832174	-0.179947	0.449775
C114	C	1.332174	0.320053	0.949775
C115	C	0.832186	-0.179943	0.550274
C116	C	1.332186	0.320057	1.050274
C117	C	0.994320	0.016718	0.298981
C118	C	1.494320	0.516718	0.798981
C119	C	0.886218	-0.114393	0.299006
C120	C	1.386218	0.385607	0.799006
H121	H	0.715757	0.077719	0.000004
H122	H	1.215757	0.577719	0.500004
H123	H	0.842244	-0.167763	0.741944
H124	H	1.342244	0.332237	1.241944
H125	H	1.038373	0.070086	0.741888
H126	H	1.538373	0.570086	1.241888
Br127	Br	0.765179	0.663829	-0.000014
Br128	Br	1.265179	1.163829	0.499986
Br129	Br	1.121766	0.171226	0.618392
Br130	Br	1.621766	0.671226	1.118392
H131	H	0.565157	0.068800	-0.000008
H132	H	1.065157	0.568800	0.499992
H133	H	0.164809	-0.175403	-0.000005
H134	H	0.664809	0.324597	0.499995
Br135	Br	0.332844	-0.210145	-0.000025
Br136	Br	0.832844	0.289855	0.499975
Br137	Br	1.185520	0.395855	-0.000013
Br138	Br	1.685520	0.895855	0.499987
Br139	Br	0.698778	0.285099	0.000000
Br140	Br	1.198778	0.785099	0.500000
Br141	Br	1.115386	0.238489	0.000013
Br142	Br	1.615386	0.738489	0.500013
H143	H	1.092405	0.135652	0.408798
H144	H	1.592405	0.635652	0.908798
Br145	Br	0.503438	-0.278241	-0.000023
Br146	Br	1.003438	0.221759	0.499977
Br147	Br	1.067680	0.105672	0.230771
Br148	Br	1.567680	0.605672	0.730771
H149	H	0.198885	0.125313	-0.000014
H150	H	0.698885	0.625313	0.499986
H151	H	0.681680	-0.222999	-0.000005
H152	H	1.181680	0.277001	0.499995
H153	H	0.466473	0.058830	-0.000020
H154	H	0.966473	0.558830	0.499980
Br155	Br	0.377133	0.180558	0.000008
Br156	Br	0.877133	0.680558	0.500008
H157	H	0.414088	-0.156515	-0.000010
H158	H	0.914088	0.343485	0.499990
H159	H	0.812560	0.195185	-0.000015
H160	H	1.312560	0.695185	0.499985
H161	H	1.142856	0.582765	0.000012
H162	H	1.642856	1.082765	0.500012
Br163	Br	1.106924	0.741578	0.000025
Br164	Br	1.606924	1.241578	0.500025
Br165	Br	0.695059	0.506475	-0.000018
Br166	Br	1.195059	1.006475	0.499982
Br167	Br	0.812846	-0.203358	0.230836
Br168	Br	1.312846	0.296642	0.730836
H169	H	0.788164	-0.233326	0.408862
H170	H	1.288164	0.266674	0.908862
Br171	Br	0.758834	-0.268906	0.618491
Br172	Br	1.258834	0.231094	1.118491
