data_functionalizedCrystal
_audit_creation_method	'MofGen! by Chris Wilmer'
_symmetry_space_group_name_H-M	'P1'
_symmetry_Int_Tables_number	1
_symmetry_cell_setting	triclinic
loop_
_symmetry_equiv_pos_as_xyz
  x,y,z
_cell_length_a	17.077404
_cell_length_b	12.645330
_cell_length_c	17.077395
_cell_angle_alpha	89.975056
_cell_angle_beta	89.984359
_cell_angle_gamma	90.012871
loop_
_atom_site_label
_atom_site_type_symbol
_atom_site_fract_x
_atom_site_fract_y
_atom_site_fract_z
Zn1	Zn	1.200081	-0.422046	-0.443855
Zn2	Zn	1.533414	-0.088713	-0.110522
Zn3	Zn	1.866747	0.244621	0.222812
Zn4	Zn	1.200020	-0.599328	-0.312594
Zn5	Zn	1.533353	-0.265994	0.020739
Zn6	Zn	1.866687	0.067339	0.354072
Zn7	Zn	1.068821	-0.422079	-0.312603
Zn8	Zn	1.402155	-0.088746	0.020730
Zn9	Zn	1.735488	0.244587	0.354064
Zn10	Zn	1.068804	-0.599269	-0.443818
Zn11	Zn	1.402137	-0.265935	-0.110485
Zn12	Zn	1.735470	0.067398	0.222849
O13	O	1.134431	-0.510681	-0.378218
O14	O	1.467765	-0.177347	-0.044884
O15	O	1.801098	0.155986	0.288449
O16	O	1.309919	-0.445574	-0.426455
O17	O	1.643253	-0.112240	-0.093122
O18	O	1.976586	0.221093	0.240212
O19	O	1.182598	-0.575854	-0.202749
O20	O	1.515931	-0.242521	0.130585
O21	O	1.849265	0.090813	0.463918
O22	O	1.086266	-0.273728	-0.330033
O23	O	1.419599	0.059606	0.003300
O24	O	1.752932	0.392939	0.336633
O25	O	1.309875	-0.575822	-0.330018
O26	O	1.643208	-0.242488	0.003315
O27	O	1.976542	0.090845	0.336648
O28	O	1.182701	-0.273703	-0.426464
O29	O	1.516035	0.059630	-0.093130
O30	O	1.849368	0.392963	0.240203
O31	O	1.086207	-0.445630	-0.202755
O32	O	1.419540	-0.112297	0.130578
O33	O	1.752874	0.221036	0.463912
O34	O	0.958972	-0.445573	-0.329997
O35	O	1.292305	-0.112240	0.003336
O36	O	1.625639	0.221093	0.336670
O37	O	1.086236	-0.575721	-0.553670
O38	O	1.419569	-0.242388	-0.220337
O39	O	1.752903	0.090946	0.112997
O40	O	0.958959	-0.575753	-0.426400
O41	O	1.292293	-0.242420	-0.093067
O42	O	1.625626	0.090913	0.240267
O43	O	1.182685	-0.445516	-0.553697
O44	O	1.516018	-0.112183	-0.220364
O45	O	1.849351	0.221150	0.112969
O46	O	1.182581	-0.747667	-0.329982
O47	O	1.515915	-0.414334	0.003351
O48	O	1.849248	-0.081000	0.336684
O49	O	1.086177	-0.747624	-0.426392
O50	O	1.419511	-0.414290	-0.093058
O51	O	1.752844	-0.080957	0.240275
C52	C	0.930484	-0.510661	-0.378196
C53	C	1.263817	-0.177328	-0.044863
C54	C	1.597150	0.156005	0.288471
C55	C	0.843234	-0.510679	-0.378205
C56	C	1.176567	-0.177345	-0.044872
C57	C	1.509900	0.155988	0.288461
C58	C	0.802257	-0.578566	-0.428322
C59	C	1.135591	-0.245232	-0.094989
C60	C	1.468924	0.088101	0.238345
C61	C	0.720277	-0.578568	-0.428334
C62	C	1.053610	-0.245235	-0.095001
C63	C	1.386944	0.088099	0.238332
C64	C	0.679274	-0.510688	-0.378226
C65	C	1.012608	-0.177354	-0.044893
C66	C	1.345941	0.155979	0.288441
C67	C	0.720256	-0.442793	-0.328107
C68	C	1.053590	-0.109460	0.005226
C69	C	1.386923	0.223873	0.338560
C70	C	0.802235	-0.442786	-0.328099
C71	C	1.135569	-0.109453	0.005234
C72	C	1.468902	0.223880	0.338568
C73	C	0.549386	-0.442814	-0.328126
C74	C	0.882720	-0.109481	0.005207
C75	C	1.216053	0.223853	0.338541
C76	C	0.467402	-0.442822	-0.328133
C77	C	0.800735	-0.109489	0.005201
C78	C	1.134068	0.223845	0.338534
C79	C	0.467428	-0.578596	-0.428361
C80	C	0.800761	-0.245262	-0.095028
C81	C	1.134095	0.088071	0.238305
C82	C	0.549407	-0.578589	-0.428353
C83	C	0.882740	-0.245256	-0.095020
C84	C	1.216074	0.088078	0.238313
C85	C	0.590383	-0.510695	-0.378233
C86	C	0.923717	-0.177362	-0.044900
C87	C	1.257050	0.155971	0.288433
C88	C	1.134392	-0.786110	-0.378199
C89	C	1.467725	-0.452777	-0.044866
C90	C	1.801059	-0.119444	0.288468
C91	C	1.134447	-0.903940	-0.378217
C92	C	1.467780	-0.570607	-0.044884
C93	C	1.801114	-0.237274	0.288449
C94	C	1.194997	-1.071487	-0.317443
C95	C	1.528331	-0.738154	0.015890
C96	C	1.861664	-0.404821	0.349224
C97	C	1.195195	-0.948927	-0.317592
C98	C	1.528528	-0.615594	0.015741
C99	C	1.861861	-0.282260	0.349075
C100	C	1.156874	-0.948326	-0.460961
C101	C	1.490207	-0.614993	-0.127628
C102	C	1.823540	-0.281660	0.205705
C103	C	1.157354	-1.070924	-0.460639
C104	C	1.490687	-0.737591	-0.127305
C105	C	1.824021	-0.404258	0.206028
C106	C	1.051446	-1.071267	-0.357063
C107	C	1.384780	-0.737934	-0.023730
C108	C	1.718113	-0.404600	0.309603
C109	C	1.051844	-0.948663	-0.355208
C110	C	1.385178	-0.615329	-0.021874
C111	C	1.718511	-0.281996	0.311459
C112	C	1.339176	-0.510701	-0.378240
C113	C	1.672509	-0.177367	-0.044907
C114	C	2.005842	0.155966	0.288427
C115	C	1.426425	-0.510709	-0.378249
C116	C	1.759759	-0.177376	-0.044916
C117	C	2.093092	0.155958	0.288417
C118	C	1.134465	-0.510609	-0.582962
C119	C	1.467798	-0.177275	-0.249629
C120	C	1.801132	0.156058	0.083705
C121	C	1.134479	-0.510578	-0.670212
C122	C	1.467813	-0.177244	-0.336879
C123	C	1.801146	0.156089	-0.003545
C124	C	1.134492	-0.234175	-0.378253
C125	C	1.467826	0.099158	-0.044920
C126	C	1.801159	0.432491	0.288413
C127	C	1.134518	-0.116345	-0.378269
C128	C	1.467852	0.216988	-0.044935
C129	C	1.801185	0.550321	0.288398
C130	C	1.184787	-0.442636	-1.046042
C131	C	1.518121	-0.109303	-0.712709
C132	C	1.851454	0.224030	-0.379375
C133	C	1.184771	-0.442674	-0.964061
C134	C	1.518105	-0.109340	-0.630728
C135	C	1.851438	0.223993	-0.297395
C136	C	1.134544	-0.510478	-0.923061
C137	C	1.467877	-0.177144	-0.589728
C138	C	1.801211	0.156189	-0.256394
C139	C	1.084335	-0.578256	-0.964045
C140	C	1.417669	-0.244923	-0.630712
C141	C	1.751002	0.088410	-0.297378
C142	C	1.084356	-0.578224	-1.046024
C143	C	1.417689	-0.244891	-0.712691
C144	C	1.751023	0.088443	-0.379357
C145	C	1.084295	-0.578318	-0.793175
C146	C	1.417628	-0.244984	-0.459842
C147	C	1.750961	0.088349	-0.126508
C148	C	1.084273	-0.578349	-0.711190
C149	C	1.417606	-0.245016	-0.377857
C150	C	1.750940	0.088317	-0.044524
C151	C	1.184710	-0.442767	-0.711212
C152	C	1.518043	-0.109434	-0.377879
C153	C	1.851377	0.223899	-0.044546
C154	C	1.184731	-0.442735	-0.793191
C155	C	1.518064	-0.109402	-0.459858
C156	C	1.851397	0.223932	-0.126525
C157	C	1.134521	-0.510513	-0.834170
C158	C	1.467854	-0.177179	-0.500837
C159	C	1.801187	0.156154	-0.167503
C160	C	1.134443	-0.510676	-0.174270
C161	C	1.467776	-0.177342	0.159064
C162	C	1.801110	0.155991	0.492397
C163	C	1.134581	-0.510408	-0.087020
C164	C	1.467914	-0.177074	0.246313
C165	C	1.801247	0.156259	0.579646
H166	H	1.181164	-0.918921	-0.256239
H167	H	1.514497	-0.585588	0.077095
H168	H	1.847831	-0.252254	0.410428
H169	H	1.181142	-1.101037	-0.255910
H170	H	1.514476	-0.767704	0.077423
H171	H	1.847809	-0.434371	0.410756
H172	H	1.031051	-1.102273	-0.297778
H173	H	1.364384	-0.768940	0.035556
H174	H	1.697717	-0.435607	0.368889
Br175	Br	0.664669	-0.670702	-0.496355
Br176	Br	0.998002	-0.337369	-0.163021
Br177	Br	1.331336	-0.004035	0.170312
Br178	Br	0.605054	-0.670723	-0.496351
Br179	Br	0.938387	-0.337390	-0.163017
Br180	Br	1.271720	-0.004057	0.170316
Br181	Br	0.604997	-0.350670	-0.260107
Br182	Br	0.938330	-0.017336	0.073226
Br183	Br	1.271663	0.315997	0.406560
Br184	Br	0.411755	-0.350706	-0.260122
Br185	Br	0.745088	-0.017373	0.073212
Br186	Br	1.078422	0.315961	0.406545
H187	H	1.115233	-1.100594	-0.507520
H188	H	1.448566	-0.767261	-0.174186
H189	H	1.781900	-0.433928	0.159147
Br190	Br	1.297002	-1.122701	-0.340555
Br191	Br	1.630335	-0.789368	-0.007222
Br192	Br	1.963669	-0.456035	0.326112
H193	H	0.686865	-0.387519	-0.287311
H194	H	1.020199	-0.054186	0.046022
H195	H	1.353532	0.279147	0.379355
H196	H	0.835597	-0.387500	-0.287293
H197	H	1.168930	-0.054167	0.046040
H198	H	1.502264	0.279167	0.379373
H199	H	1.225683	-0.387416	-1.079419
H200	H	1.559016	-0.054082	-0.746085
H201	H	1.892350	0.279251	-0.412752
Br202	Br	0.411819	-0.670723	-0.496392
Br203	Br	0.745152	-0.337390	-0.163058
Br204	Br	1.078485	-0.004057	0.170275
Br205	Br	1.252875	-0.350814	-0.655600
Br206	Br	1.586209	-0.017481	-0.322267
Br207	Br	1.919542	0.315853	0.011067
H208	H	1.114164	-0.919183	-0.507495
H209	H	1.447497	-0.585850	-0.174162
H210	H	1.780831	-0.252516	0.159172
Br211	Br	1.297746	-0.899902	-0.340973
Br212	Br	1.631080	-0.566569	-0.007640
Br213	Br	1.964413	-0.233236	0.325694
H214	H	1.043356	-0.633537	-0.677810
H215	H	1.376689	-0.300203	-0.344477
H216	H	1.710022	0.033130	-0.011143
H217	H	1.218075	-1.099437	-0.478601
H218	H	1.551409	-0.766104	-0.145267
H219	H	1.884742	-0.432771	0.188066
Br220	Br	0.857896	-0.670702	-0.496324
Br221	Br	1.191229	-0.337369	-0.162991
Br222	Br	1.524563	-0.004035	0.170342
H223	H	1.216909	-0.917539	-0.479223
H224	H	1.550242	-0.584205	-0.145889
H225	H	1.883576	-0.250872	0.187444
H226	H	1.034934	-0.919663	-0.294315
H227	H	1.368268	-0.586330	0.039018
H228	H	1.701601	-0.252996	0.372351
Br229	Br	1.252914	-0.350697	-0.908450
Br230	Br	1.586247	-0.017364	-0.575117
Br231	Br	1.919581	0.315969	-0.241784
H232	H	1.004352	-0.918050	-0.396262
H233	H	1.337686	-0.584717	-0.062928
H234	H	1.671019	-0.251384	0.270405
H235	H	1.225627	-0.387518	-0.826572
H236	H	1.558960	-0.054185	-0.493238
H237	H	1.892293	0.279148	-0.159905
H238	H	1.006384	-1.100277	-0.401365
H239	H	1.339718	-0.766944	-0.068032
H240	H	1.673051	-0.433611	0.265302
Br241	Br	1.016153	-0.670304	-0.848788
Br242	Br	1.349487	-0.336971	-0.515455
Br243	Br	1.682820	-0.003638	-0.182122
Br244	Br	1.016172	-0.670282	-0.908403
Br245	Br	1.349506	-0.336949	-0.575069
Br246	Br	1.682839	-0.003615	-0.241736
H247	H	1.043473	-0.633411	-1.079388
H248	H	1.376807	-0.300078	-0.746054
H249	H	1.710140	0.033255	-0.412721
