data_functionalizedCrystal
_audit_creation_method	'MofGen! by Chris Wilmer'
_symmetry_space_group_name_H-M	'P1'
_symmetry_Int_Tables_number	1
_symmetry_cell_setting	triclinic
loop_
_symmetry_equiv_pos_as_xyz
  x,y,z
_cell_length_a	18.101395
_cell_length_b	16.959455
_cell_length_c	18.101389
_cell_angle_alpha	90.017877
_cell_angle_beta	89.983159
_cell_angle_gamma	89.971949
loop_
_atom_site_label
_atom_site_type_symbol
_atom_site_fract_x
_atom_site_fract_y
_atom_site_fract_z
Zn1	Zn	-0.294968	-1.208351	-0.418719
Zn2	Zn	0.205032	-0.708351	0.081281
Zn3	Zn	-0.418793	-1.208240	-0.294881
Zn4	Zn	0.081207	-0.708240	0.205119
Zn5	Zn	-0.294964	-1.076171	-0.294894
Zn6	Zn	0.205036	-0.576171	0.205106
Zn7	Zn	-0.418765	-1.076119	-0.418684
Zn8	Zn	0.081235	-0.576119	0.081316
O9	O	-0.356872	-1.142220	-0.356795
O10	O	0.143128	-0.642220	0.143205
O11	O	-0.311407	-1.318947	-0.402301
O12	O	0.188593	-0.818947	0.097699
O13	O	-0.402377	-1.190696	-0.191250
O14	O	0.097623	-0.690696	0.308750
O15	O	-0.191331	-1.093774	-0.311341
O16	O	0.308669	-0.593774	0.188659
O17	O	-0.402381	-1.318865	-0.311318
O18	O	0.097619	-0.818865	0.188682
O19	O	-0.191334	-1.190885	-0.402314
O20	O	0.308666	-0.690885	0.097686
O21	O	-0.311400	-1.093666	-0.191260
O22	O	0.188600	-0.593666	0.308740
O23	O	-0.311373	-0.965553	-0.311306
O24	O	0.188627	-0.465553	0.188694
O25	O	-0.402333	-1.093684	-0.522321
O26	O	0.097667	-0.593684	-0.022321
O27	O	-0.402329	-0.965515	-0.402253
O28	O	0.097671	-0.465515	0.097747
O29	O	-0.311380	-1.190834	-0.522348
O30	O	0.188620	-0.690834	-0.022348
O31	O	-0.522422	-1.190645	-0.311284
O32	O	-0.022422	-0.690645	0.188716
O33	O	-0.522402	-1.093576	-0.402241
O34	O	-0.022402	-0.593576	0.097759
C35	C	-0.549283	-1.142114	-0.356773
C36	C	-0.049283	-0.642114	0.143227
C37	C	-0.631597	-1.142141	-0.356788
C38	C	-0.131597	-0.642141	0.143212
C39	C	-0.356848	-0.936854	-0.356778
C40	C	0.143152	-0.436854	0.143222
C41	C	-0.356855	-0.848997	-0.356788
C42	C	0.143145	-0.348997	0.143212
C43	C	-0.356854	-1.142266	-0.549957
C44	C	0.143146	-0.642266	-0.049957
C45	C	-0.356846	-1.142285	-0.632271
C46	C	0.143154	-0.642285	-0.132271
C47	C	-0.930688	-1.142315	-0.356828
C48	C	-0.430688	-0.642315	0.143172
C49	C	-0.899381	-1.081383	-0.414198
C50	C	-0.399381	-0.581383	0.085802
C51	C	-0.813763	-1.081094	-0.414019
C52	C	-0.313763	-0.581094	0.085981
C53	C	-0.782305	-1.142229	-0.356809
C54	C	-0.282305	-0.642229	0.143191
C55	C	-0.813441	-1.119677	-0.278760
C56	C	-0.313441	-0.619677	0.221240
C57	C	-0.899087	-1.119284	-0.279103
C58	C	-0.399087	-0.619284	0.220897
C59	C	-0.899040	-1.225932	-0.376821
C60	C	-0.399040	-0.725932	0.123179
C61	C	-0.813389	-1.225440	-0.378532
C62	C	-0.313389	-0.725440	0.121468
C63	C	-0.698446	-1.142181	-0.356794
C64	C	-0.198446	-0.642181	0.143206
C65	C	-1.014547	-1.142360	-0.356839
C66	C	-0.514547	-0.642360	0.143161
C67	C	-0.163710	-1.142348	-0.356833
C68	C	0.336290	-0.642348	0.143167
C69	C	-0.081396	-1.142402	-0.356849
C70	C	0.418604	-0.642402	0.143151
C71	C	-0.356897	-1.348388	-0.356812
C72	C	0.143103	-0.848388	0.143188
C73	C	-0.356908	-1.436245	-0.356820
C74	C	0.143092	-0.936245	0.143180
C75	C	-0.309473	-0.477517	-0.309537
C76	C	0.190527	0.022483	0.190463
C77	C	-0.404333	-0.477526	-0.404095
C78	C	0.095667	0.022474	0.095905
C79	C	-0.404323	-0.560072	-0.404090
C80	C	0.095677	-0.060072	0.095910
C81	C	-0.356887	-0.601344	-0.356808
C82	C	0.143113	-0.101344	0.143192
C83	C	-0.309462	-0.560071	-0.309530
C84	C	0.190538	-0.060071	0.190470
C85	C	-0.451752	-0.601351	-0.451362
C86	C	0.048248	-0.101351	0.048638
C87	C	-0.451744	-0.683902	-0.451359
C88	C	0.048256	-0.183902	0.048641
C89	C	-0.404304	-0.725176	-0.404079
C90	C	0.095696	-0.225176	0.095921
C91	C	-0.356877	-0.683898	-0.356800
C92	C	0.143123	-0.183898	0.143200
C93	C	-0.309441	-0.725170	-0.309518
C94	C	0.190559	-0.225170	0.190482
C95	C	-0.262009	-0.683893	-0.262242
C96	C	0.237991	-0.183893	0.237758
C97	C	-0.262022	-0.601345	-0.262250
C98	C	0.237978	-0.101345	0.237750
C99	C	-0.404291	-0.807725	-0.404070
C100	C	0.095709	-0.307725	0.095930
C101	C	-0.309430	-0.807724	-0.309510
C102	C	0.190570	-0.307724	0.190490
C103	C	-0.356707	-1.142331	-0.931362
C104	C	0.143293	-0.642331	-0.431362
C105	C	-0.413750	-1.080996	-0.900020
C106	C	0.086250	-0.580996	-0.400020
C107	C	-0.414015	-1.081162	-0.814402
C108	C	0.085985	-0.581162	-0.314402
C109	C	-0.356776	-1.142308	-0.782979
C110	C	0.143224	-0.642308	-0.282979
C111	C	-0.377964	-1.225587	-0.814077
C112	C	0.122036	-0.725587	-0.314077
C113	C	-0.378339	-1.225245	-0.899722
C114	C	0.121661	-0.725245	-0.399722
C115	C	-0.278348	-1.121111	-0.899786
C116	C	0.221652	-0.621111	-0.399786
C117	C	-0.278801	-1.119258	-0.814136
C118	C	0.221199	-0.619258	-0.314136
C119	C	-0.356813	-1.142300	-0.699120
C120	C	0.143187	-0.642300	-0.199120
C121	C	-0.356671	-1.142345	-1.015222
C122	C	0.143329	-0.642345	-0.515222
C123	C	-0.356838	-1.142220	-0.164384
C124	C	0.143162	-0.642220	0.335616
C125	C	-0.356637	-1.142354	-0.082071
C126	C	0.143363	-0.642354	0.417929
H127	H	-0.792710	-1.095203	-0.471891
H128	H	-0.292710	-0.595203	0.028109
H129	H	-0.434636	-1.243887	-0.792634
H130	H	0.065364	-0.743887	-0.292634
H131	H	-0.471478	-1.094867	-0.921546
H132	H	0.028522	-0.594867	-0.421546
Br133	Br	-0.779706	-0.977790	-0.391953
Br134	Br	-0.279706	-0.477790	0.108047
H135	H	-0.792050	-1.059201	-0.261521
H136	H	-0.292050	-0.559201	0.238479
H137	H	-0.435620	-1.243234	-0.919705
H138	H	0.064380	-0.743234	-0.419705
Br139	Br	-0.933648	-1.104661	-0.510973
Br140	Br	-0.433648	-0.604661	-0.010973
Br141	Br	-0.935369	-0.978711	-0.392425
Br142	Br	-0.435369	-0.478711	0.107575
Br143	Br	-0.510813	-1.104559	-0.780257
Br144	Br	-0.010813	-0.604559	-0.280257
H145	H	-0.442957	-0.443917	-0.442585
H146	H	0.057043	0.056083	0.057415
H147	H	-0.919123	-1.058161	-0.262168
H148	H	-0.419123	-0.558161	0.237832
H149	H	-0.400627	-1.019056	-0.920612
H150	H	0.099373	-0.519056	-0.420612
Br151	Br	-0.245098	-0.421503	-0.245386
Br152	Br	0.254902	0.078497	0.254614
H153	H	-0.919798	-1.161739	-0.234901
H154	H	-0.419798	-0.661739	0.265099
Br155	Br	-0.312049	-1.303946	-0.934285
Br156	Br	0.187951	-0.803946	-0.434285
Br157	Br	-0.779485	-1.191317	-0.205569
Br158	Br	-0.279485	-0.691317	0.294431
Br159	Br	-0.934972	-1.260203	-0.470063
Br160	Br	-0.434972	-0.760203	0.029937
H161	H	-0.793037	-1.242446	-0.435972
H162	H	-0.293037	-0.742446	0.064028
Br163	Br	-0.777686	-1.305114	-0.313970
Br164	Br	-0.277686	-0.805114	0.186030
H165	H	-0.919284	-1.271328	-0.335036
H166	H	-0.419284	-0.771328	0.164964
Br167	Br	-0.197642	-0.739916	-0.198068
Br168	Br	0.302358	-0.239916	0.301932
Br169	Br	-0.245044	-0.863730	-0.245344
Br170	Br	0.254956	-0.363730	0.254656
H171	H	-0.490365	-0.717503	-0.489854
H172	H	0.009635	-0.217503	0.010146
Br173	Br	-0.516152	-0.545336	-0.515499
Br174	Br	-0.016152	-0.045336	-0.015499
H175	H	-0.337722	-1.272513	-0.793725
H176	H	0.162278	-0.772513	-0.293725
H177	H	-0.262823	-1.057972	-0.793810
H178	H	0.237177	-0.557972	-0.293810
Br179	Br	-0.468663	-0.863741	-0.468218
Br180	Br	0.031337	-0.363741	0.031782
H181	H	-0.400756	-1.019407	-0.793376
H182	H	0.099244	-0.519407	-0.293376
Br183	Br	-0.246175	-1.021653	-0.935771
Br184	Br	0.253825	-0.521653	-0.435771
H185	H	-0.223407	-0.567730	-0.223760
H186	H	0.276593	-0.067730	0.276240
H187	H	-0.234044	-1.160672	-0.792746
H188	H	0.265956	-0.660672	-0.292746
H189	H	-0.235848	-1.165785	-0.920056
H190	H	0.264152	-0.665785	-0.420056
