data_functionalizedCrystal
_audit_creation_method	'MofGen! by Chris Wilmer'
_symmetry_space_group_name_H-M	'P1'
_symmetry_Int_Tables_number	1
_symmetry_cell_setting	triclinic
loop_
_symmetry_equiv_pos_as_xyz
  x,y,z
_cell_length_a	13.339070
_cell_length_b	15.995350
_cell_length_c	11.804365
_cell_angle_alpha	101.833003
_cell_angle_beta	74.875130
_cell_angle_gamma	99.560835
loop_
_atom_site_label
_atom_site_type_symbol
_atom_site_fract_x
_atom_site_fract_y
_atom_site_fract_z
O1	O	1.362724	0.407602	-0.099048
O2	O	1.068197	0.352506	-0.099044
O3	O	1.223511	0.260037	-0.099045
O4	O	1.207410	0.500071	-0.099047
O5	O	1.182623	0.284347	0.099011
O6	O	1.027308	0.376816	0.099012
O7	O	1.321836	0.431912	0.099008
Cu8	Cu	1.170839	0.406583	0.117094
Cu9	Cu	1.219194	0.377835	-0.117130
O10	O	1.166521	0.524381	0.099009
C11	C	1.010063	0.355354	-0.000015
C12	C	0.897761	0.327613	-0.000014
C13	C	0.532972	0.543314	-0.000035
C14	C	0.638486	0.569380	-0.000040
C15	C	0.703310	0.508941	-0.000033
C16	C	0.662610	0.422430	-0.000022
C17	C	0.557088	0.396360	-0.000026
C18	C	0.727425	0.361987	-0.000024
C19	C	0.686725	0.275476	-0.000013
C20	C	0.581213	0.249410	-0.000017
C21	C	0.516389	0.309850	-0.000024
C22	C	0.832947	0.388057	-0.000020
C23	C	0.857062	0.241103	-0.000012
C24	C	0.751549	0.215036	-0.000007
C25	C	1.202402	0.240842	-0.000019
C26	C	1.200408	0.147427	-0.000026
C27	C	1.193240	-0.191985	-0.000022
C28	C	1.082719	-0.170302	-0.000464
C29	C	1.084623	-0.073093	-0.000018
C30	C	1.196795	-0.023599	-0.000025
C31	C	1.228004	-0.038120	0.113072
C32	C	1.225206	-0.135389	0.113167
C33	C	1.273989	-0.162861	-0.112060
C34	C	1.274271	-0.066105	-0.113555
C35	C	1.198810	0.071567	-0.000022
C36	C	1.191227	-0.287149	-0.000016
C37	C	1.379970	0.429063	-0.000023
C38	C	1.492274	0.456804	-0.000032
C39	C	1.187631	0.543575	-0.000019
C40	C	1.189627	0.636989	-0.000020
N41	N	1.136835	0.426805	0.281835
N42	N	1.253205	0.357608	-0.281871
C43	C	1.334859	0.309033	0.655782
C44	C	1.360581	0.293731	0.531121
C45	C	1.304647	0.326998	0.468793
C46	C	1.222986	0.375570	0.531140
C47	C	1.197267	0.390878	0.655814
C48	C	1.167054	0.408844	0.468824
C49	C	1.085394	0.457415	0.531171
C50	C	1.059678	0.472721	0.655833
C51	C	1.115613	0.439454	0.718160
C52	C	1.192774	0.393535	0.344150
C53	C	1.055181	0.475380	0.344182
C54	C	1.029459	0.490682	0.468843
H55	H	0.430470	0.288631	-0.000019
C56	C	1.333480	-0.152618	0.120112
N57	N	1.415030	-0.165589	0.125350
H58	H	0.993193	0.512278	0.706596
C59	C	0.706766	0.119875	-0.000002
N60	N	0.673034	0.048199	-0.000000
H61	H	0.671618	0.639816	-0.000058
C62	C	0.461662	0.609787	-0.000045
N63	N	0.407948	0.659858	-0.000051
H64	H	1.355701	-0.175769	-0.112825
C65	C	0.993647	0.511975	0.275627
N66	N	0.947304	0.539536	0.223983
C67	C	1.003648	-0.035529	0.109699
N68	N	0.942656	-0.007236	0.192344
H69	H	1.380399	0.281957	0.706538
H70	H	0.866073	0.458495	-0.000024
H71	H	0.548081	0.178966	-0.000021
H72	H	1.259262	0.353989	0.293399
C73	C	0.819374	0.537620	-0.000023
N74	N	0.906796	0.559226	-0.000006
H75	H	1.167968	-0.152556	0.197713
H76	H	0.909843	0.191887	-0.000011
C77	C	1.332938	0.310157	0.331661
N78	N	1.354246	0.297466	0.228368
H79	H	1.058474	-0.064585	-0.081090
C80	C	1.045601	-0.222671	-0.110024
N81	N	1.017643	-0.262125	-0.192545
C82	C	1.338153	0.007542	0.118768
N83	N	1.421115	0.041941	0.123061
H84	H	1.172735	-0.008211	0.197240
C85	C	1.450400	0.240299	0.462549
N86	N	1.518053	0.200049	0.410899
C87	C	1.000768	-0.197181	0.108519
N88	N	0.939047	-0.217416	0.190617
H89	H	1.255521	-0.202324	-0.197781
C90	C	0.939632	0.544108	0.537441
N91	N	0.871973	0.584347	0.589110
H92	H	1.251655	-0.058393	-0.197221
H93	H	1.357482	-0.032578	-0.120388
H94	H	1.094667	0.451909	0.819670
