data_functionalizedCrystal
_audit_creation_method	'MofGen! by Chris Wilmer'
_symmetry_space_group_name_H-M	'P1'
_symmetry_Int_Tables_number	1
_symmetry_cell_setting	triclinic
loop_
_symmetry_equiv_pos_as_xyz
  x,y,z
_cell_length_a	12.827893
_cell_length_b	12.645330
_cell_length_c	12.827885
_cell_angle_alpha	90.029760
_cell_angle_beta	90.019272
_cell_angle_gamma	90.012546
loop_
_atom_site_label
_atom_site_type_symbol
_atom_site_fract_x
_atom_site_fract_y
_atom_site_fract_z
Zn1	Zn	1.597691	-0.421983	0.590849
Zn2	Zn	1.597595	-0.599284	0.416109
Zn3	Zn	1.422933	-0.422036	0.416123
Zn4	Zn	1.422927	-0.599206	0.590809
O5	O	1.510287	-0.510627	0.503472
O6	O	1.743915	-0.445514	0.567680
O7	O	1.574387	-0.575826	0.269875
O8	O	1.446158	-0.273681	0.439322
O9	O	1.743844	-0.575776	0.439300
O10	O	1.574552	-0.273643	0.567693
O11	O	1.446064	-0.445603	0.269885
O12	O	1.276696	-0.445527	0.439284
O13	O	1.446148	-0.575642	0.737051
O14	O	1.276692	-0.575693	0.567626
O15	O	1.574547	-0.445438	0.737080
O16	O	1.574382	-0.747621	0.439261
O17	O	1.446054	-0.747563	0.567613
C18	C	1.238777	-0.510608	0.503453
C19	C	1.122624	-0.510625	0.503469
C20	C	1.070874	-0.446281	0.567095
C21	C	0.950823	-0.446298	0.567113
C22	C	1.510235	-0.786057	0.503454
C23	C	1.510309	-0.903887	0.503481
C24	C	1.591132	-0.948761	0.422805
C25	C	1.590947	-1.071321	0.422517
C26	C	1.400183	-1.071896	0.473892
C27	C	1.400598	-0.949298	0.473277
C28	C	1.538759	-0.948959	0.614010
C29	C	1.541242	-1.071564	0.613450
C30	C	1.782857	-0.510648	0.503493
C31	C	1.899010	-0.510656	0.503502
C32	C	1.510358	-0.510525	0.776043
C33	C	1.510388	-0.510482	0.892196
C34	C	1.510366	-0.234122	0.503514
C35	C	1.510400	-0.116292	0.503531
C36	C	1.510276	-0.510652	0.231963
C37	C	1.510448	-0.510397	0.115810
C38	C	1.573931	-0.446040	0.943995
C39	C	1.573963	-0.445994	1.064046
H40	H	0.906320	-0.391214	0.621589
H41	H	1.617733	-0.917958	0.641021
H42	H	1.628304	-0.390900	0.899466
H43	H	0.943507	-0.565752	0.449032
H44	H	1.572511	-0.918030	0.341375
C45	C	1.130482	-0.372923	0.639674
C46	C	1.237704	-0.387517	0.625251
C47	C	1.292645	-0.319966	0.692104
H48	H	1.112770	-0.301621	0.624586
H49	H	1.112741	-0.388520	0.709903
H50	H	1.255438	-0.371913	0.555037
H51	H	1.255448	-0.458805	0.640346
H52	H	1.274903	-0.335563	0.762333
H53	H	1.274924	-0.248667	0.677011
H54	H	1.365400	-0.329865	0.682334
C55	C	1.063149	-0.584231	0.431024
C56	C	1.000530	-0.652216	0.490149
C57	C	0.945741	-0.720048	0.423449
H58	H	1.020466	-0.543716	0.385583
H59	H	1.111151	-0.624661	0.391123
H60	H	0.952533	-0.611791	0.530033
H61	H	1.043187	-0.692755	0.535588
H62	H	0.993743	-0.760478	0.383547
H63	H	0.903064	-0.679524	0.378010
H64	H	0.903255	-0.766190	0.463555
H65	H	1.456004	-0.565612	0.936726
C66	C	1.699989	-1.111142	0.447165
C67	C	1.766634	-1.024812	0.462461
C68	C	1.867100	-1.061448	0.485147
H69	H	1.698134	-1.152947	0.508637
H70	H	1.724797	-1.152737	0.390689
H71	H	1.741833	-0.983234	0.518931
H72	H	1.768521	-0.982999	0.401001
H73	H	1.891908	-1.103044	0.428672
H74	H	1.865233	-1.103253	0.546618
H75	H	1.912333	-1.002880	0.495519
C76	C	1.646389	-0.372461	1.123621
C77	C	1.631995	-0.387006	1.230849
C78	C	1.698686	-0.319273	1.285764
H79	H	1.716653	-0.387899	1.105915
H80	H	1.631111	-0.301201	1.105854
H81	H	1.647280	-0.458250	1.248609
H82	H	1.561745	-0.371561	1.248587
H83	H	1.683408	-0.248013	1.267996
H84	H	1.768946	-0.334716	1.268049
H85	H	1.688922	-0.329125	1.358523
H86	H	1.456048	-0.565575	1.071271
H87	H	1.338348	-1.101028	0.530861
H88	H	1.338314	-0.919617	0.529499
H89	H	1.673081	-0.919214	0.441099
H90	H	1.572119	-1.100733	0.340635
C91	C	1.649310	-1.110315	0.643470
C92	C	1.643045	-1.168774	0.735921
C93	C	1.742575	-1.204491	0.763611
H94	H	1.676247	-1.153814	0.589435
H95	H	1.694137	-1.051379	0.653596
H96	H	1.598234	-1.227702	0.725789
H97	H	1.616126	-1.125297	0.789977
H98	H	1.787402	-1.145556	0.773737
H99	H	1.769504	-1.247986	0.709570
H100	H	1.738339	-1.244151	0.826346
H101	H	1.376527	-0.920789	0.392492
C102	C	1.367413	-1.113080	0.367470
C103	C	1.274787	-1.170819	0.377213
C104	C	1.244582	-1.208784	0.279199
H105	H	1.356592	-1.055223	0.321528
H106	H	1.420576	-1.157543	0.340322
H107	H	1.221636	-1.126359	0.404346
H108	H	1.285582	-1.228691	0.423136
H109	H	1.297745	-1.253247	0.252052
H110	H	1.233766	-1.150921	0.233265
H111	H	1.181738	-1.247972	0.285798
H112	H	1.486718	-1.102170	0.676772
C113	C	1.460196	-0.910461	0.694174
C114	C	1.410450	-0.997521	0.739665
C115	C	1.338062	-0.962090	0.813498
H116	H	1.495172	-0.870966	0.746597
H117	H	1.409846	-0.866875	0.660968
H118	H	1.460793	-1.041089	0.772870
H119	H	1.375454	-1.037024	0.687268
H120	H	1.287711	-0.918504	0.780292
H121	H	1.373046	-0.922595	0.865914
H122	H	1.304294	-1.021153	0.844366
