data_functionalizedCrystal
_audit_creation_method	'MofGen! by Chris Wilmer'
_symmetry_space_group_name_H-M	'P1'
_symmetry_Int_Tables_number	1
_symmetry_cell_setting	triclinic
loop_
_symmetry_equiv_pos_as_xyz
  x,y,z
_cell_length_a	29.839131
_cell_length_b	16.959455
_cell_length_c	16.959447
_cell_angle_alpha	89.976354
_cell_angle_beta	90.033915
_cell_angle_gamma	89.963588
loop_
_atom_site_label
_atom_site_type_symbol
_atom_site_fract_x
_atom_site_fract_y
_atom_site_fract_z
Zn1	Zn	-0.178904	-1.208267	0.447086
Zn2	Zn	0.154429	-0.874933	0.780419
Zn3	Zn	0.487762	-0.541600	1.113752
Zn4	Zn	-0.254038	-1.208140	0.314899
Zn5	Zn	0.079296	-0.874806	0.648232
Zn6	Zn	0.412629	-0.541473	0.981565
Zn7	Zn	-0.178916	-1.076095	0.314901
Zn8	Zn	0.154417	-0.742762	0.648235
Zn9	Zn	0.487751	-0.409428	0.981568
Zn10	Zn	-0.254002	-1.076010	0.447016
Zn11	Zn	0.079332	-0.742677	0.780349
Zn12	Zn	0.412665	-0.409344	1.113682
O13	O	-0.216465	-1.142128	0.380975
O14	O	0.116868	-0.808795	0.714309
O15	O	0.450202	-0.475461	1.047642
O16	O	-0.188881	-1.318861	0.429579
O17	O	0.144452	-0.985527	0.762912
O18	O	0.477785	-0.652194	1.096245
O19	O	-0.244093	-1.190606	0.204288
O20	O	0.089241	-0.857273	0.537621
O21	O	0.422574	-0.523939	0.870955
O22	O	-0.116047	-1.093716	0.332466
O23	O	0.217286	-0.760383	0.665800
O24	O	0.550619	-0.427050	0.999133
O25	O	-0.244081	-1.318767	0.332461
O26	O	0.089252	-0.985434	0.665795
O27	O	0.422585	-0.652101	0.999128
O28	O	-0.116039	-1.190822	0.429581
O29	O	0.217294	-0.857489	0.762915
O30	O	0.550628	-0.524155	1.096248
O31	O	-0.188901	-1.093593	0.204290
O32	O	0.144432	-0.760260	0.537624
O33	O	0.477766	-0.426927	0.870957
O34	O	-0.188866	-0.965473	0.332399
O35	O	0.144467	-0.632140	0.665732
O36	O	0.477801	-0.298806	0.999065
O37	O	-0.244020	-1.093572	0.557636
O38	O	0.089313	-0.760239	0.890969
O39	O	0.422647	-0.426906	1.224303
O40	O	-0.244031	-0.965411	0.429462
O41	O	0.089302	-0.632077	0.762796
O42	O	0.422636	-0.298744	1.096129
O43	O	-0.188846	-1.190740	0.557687
O44	O	0.144487	-0.857407	0.891021
O45	O	0.477820	-0.524074	1.224354
O46	O	-0.316900	-1.190524	0.332394
O47	O	0.016433	-0.857191	0.665727
O48	O	0.349767	-0.523857	0.999060
O49	O	-0.316874	-1.093449	0.429460
O50	O	0.016460	-0.760116	0.762793
O51	O	0.349793	-0.426783	1.096126
C52	C	-0.216446	-0.936762	0.380924
C53	C	0.116887	-0.603428	0.714257
C54	C	0.450221	-0.270095	1.047590
C55	C	-0.216449	-0.848905	0.380920
C56	C	0.116884	-0.515572	0.714254
C57	C	0.450218	-0.182238	1.047587
C58	C	-0.245166	-0.477370	0.330343
C59	C	0.088168	-0.144037	0.663676
C60	C	0.421501	0.189296	0.997009
C61	C	-0.187775	-0.477489	0.431628
C62	C	0.145559	-0.144155	0.764962
C63	C	0.478892	0.189178	1.098295
C64	C	-0.187769	-0.560034	0.431614
C65	C	0.145564	-0.226701	0.764947
C66	C	0.478898	0.106632	1.098280
C67	C	-0.216463	-0.601252	0.380964
C68	C	0.116871	-0.267919	0.714297
C69	C	0.450204	0.065415	1.047630
C70	C	-0.245162	-0.559924	0.330328
C71	C	0.088171	-0.226591	0.663662
C72	C	0.421505	0.106743	0.996995
C73	C	-0.159073	-0.601369	0.482254
C74	C	0.174260	-0.268036	0.815587
C75	C	0.507593	0.065298	1.148921
C76	C	-0.159067	-0.683920	0.482242
C77	C	0.174267	-0.350587	0.815575
C78	C	0.507600	-0.017253	1.148909
C79	C	-0.187758	-0.725139	0.431588
C80	C	0.145575	-0.391806	0.764921
C81	C	0.478908	-0.058472	1.098254
C82	C	-0.216459	-0.683806	0.380949
C83	C	0.116875	-0.350472	0.714283
C84	C	0.450208	-0.017139	1.047616
C85	C	-0.245152	-0.725023	0.330299
C86	C	0.088181	-0.391690	0.663633
C87	C	0.421514	-0.058357	0.996966
C88	C	-0.273850	-0.683692	0.279657
C89	C	0.059483	-0.350358	0.612990
C90	C	0.392816	-0.017025	0.946323
C91	C	-0.273854	-0.601143	0.279674
C92	C	0.059480	-0.267810	0.613007
C93	C	0.392813	0.065524	0.946340
C94	C	-0.187755	-0.807687	0.431570
C95	C	0.145578	-0.474354	0.764904
C96	C	0.478911	-0.141021	1.098237
C97	C	-0.245148	-0.807577	0.330285
C98	C	0.088185	-0.474244	0.663618
C99	C	0.421518	-0.140910	0.996952
C100	C	-0.333188	-1.141985	0.380936
C101	C	0.000146	-0.808652	0.714269
C102	C	0.333479	-0.475319	1.047603
C103	C	-0.383122	-1.141996	0.380946
C104	C	-0.049789	-0.808663	0.714279
C105	C	0.283545	-0.475330	1.047612
C106	C	-0.692766	-1.192767	0.330507
C107	C	-0.359433	-0.859433	0.663840
C108	C	-0.026100	-0.526100	0.997174
C109	C	-0.880440	-1.192864	0.330538
C110	C	-0.547106	-0.859531	0.663871
C111	C	-0.213773	-0.526198	0.997204
O112	O	-0.904705	-1.235918	0.287623
O113	O	-0.571372	-0.902584	0.620956
O114	O	-0.238039	-0.569251	0.954289
N115	N	-0.903907	-1.142292	0.381035
N116	N	-0.570574	-0.808959	0.714368
N117	N	-0.237240	-0.475625	1.047702
C118	C	-0.880453	-1.091695	0.431532
C119	C	-0.547120	-0.758362	0.764865
C120	C	-0.213787	-0.425028	1.098198
O121	O	-0.904720	-1.048688	0.474489
O122	O	-0.571387	-0.715355	0.807823
O123	O	-0.238053	-0.382021	1.141156
C124	C	-0.692781	-1.091602	0.431505
C125	C	-0.359448	-0.758269	0.764838
C126	C	-0.026114	-0.424935	1.098171
C127	C	-0.669316	-1.142172	0.380998
C128	C	-0.335983	-0.808839	0.714332
C129	C	-0.002649	-0.475506	1.047665
C130	C	-0.669301	-1.243333	0.280006
C131	C	-0.335968	-0.910000	0.613339
C132	C	-0.002635	-0.576667	0.946672
C133	C	-0.622386	-1.243305	0.279995
C134	C	-0.289053	-0.909972	0.613329
C135	C	0.044281	-0.576639	0.946662
C136	C	-0.598936	-1.192711	0.330487
C137	C	-0.265602	-0.859378	0.663820
C138	C	0.067731	-0.526044	0.997153
C139	C	-0.622401	-1.142144	0.380988
C140	C	-0.289067	-0.808811	0.714321
C141	C	0.044266	-0.475478	1.047655
C142	C	-0.669328	-1.041010	0.482005
C143	C	-0.335995	-0.707677	0.815338
C144	C	-0.002662	-0.374343	1.148671
C145	C	-0.622407	-1.040993	0.481995
C146	C	-0.289074	-0.707659	0.815328
C147	C	0.044259	-0.374326	1.148662
C148	C	-0.598942	-1.091563	0.431489
C149	C	-0.265609	-0.758229	0.764822
C150	C	0.067724	-0.424896	1.098155
C151	C	-0.552035	-1.091522	0.431469
C152	C	-0.218701	-0.758188	0.764802
C153	C	0.114632	-0.424855	1.098136
N154	N	-0.528567	-1.142094	0.380972
N155	N	-0.195234	-0.808761	0.714305
N156	N	0.138099	-0.475428	1.047639
C157	C	-0.552018	-1.192689	0.330481
C158	C	-0.218684	-0.859355	0.663814
C159	C	0.114649	-0.526022	0.997147
C160	C	-0.978984	-1.091746	0.431541
C161	C	-0.645651	-0.758413	0.764875
C162	C	-0.312317	-0.425080	1.098208
C163	C	-1.025902	-1.091768	0.431547
C164	C	-0.692568	-0.758435	0.764881
C165	C	-0.359235	-0.425102	1.098214
C166	C	-1.025885	-1.192939	0.330554
C167	C	-0.692551	-0.859606	0.663888
C168	C	-0.359218	-0.526272	0.997221
C169	C	-0.978966	-1.192912	0.330545
C170	C	-0.645633	-0.859579	0.663878
C171	C	-0.312299	-0.526246	0.997211
C172	C	-0.955516	-1.142319	0.381044
C173	C	-0.622183	-0.808985	0.714378
C174	C	-0.288850	-0.475652	1.047711
C175	C	-0.453492	-1.192626	0.330463
C176	C	-0.120159	-0.859292	0.663796
C177	C	0.213175	-0.525959	0.997129
C178	C	-0.406572	-1.192591	0.330455
C179	C	-0.073239	-0.859258	0.663788
C180	C	0.260094	-0.525924	0.997121
C181	C	-0.406593	-1.091424	0.431450
C182	C	-0.073260	-0.758091	0.764784
C183	C	0.260073	-0.424757	1.098117
C184	C	-0.453509	-1.091455	0.431456
C185	C	-0.120176	-0.758122	0.764789
C186	C	0.213158	-0.424789	1.098122
C187	C	-0.476957	-1.142063	0.380959
C188	C	-0.143624	-0.808729	0.714293
C189	C	0.189710	-0.475396	1.047626
O190	O	-0.527740	-1.048497	0.474368
O191	O	-0.194407	-0.715164	0.807701
O192	O	0.138927	-0.381830	1.141035
O193	O	-0.527743	-1.235702	0.287542
O194	O	-0.194410	-0.902368	0.620875
O195	O	0.138924	-0.569035	0.954209
C196	C	-0.739682	-1.192795	0.330517
C197	C	-0.406349	-0.859461	0.663851
C198	C	-0.073015	-0.526128	0.997184
C199	C	-0.763147	-1.142228	0.381019
C200	C	-0.429814	-0.808895	0.714352
C201	C	-0.096480	-0.475561	1.047685
C202	C	-0.739697	-1.091634	0.431510
C203	C	-0.406363	-0.758300	0.764843
C204	C	-0.073030	-0.424967	1.098177
C205	C	-0.810065	-1.142250	0.381025
C206	C	-0.476731	-0.808917	0.714358
C207	C	-0.143398	-0.475584	1.047691
C208	C	-0.833515	-1.192845	0.330533
C209	C	-0.500182	-0.859511	0.663867
C210	C	-0.166849	-0.526178	0.997200
C211	C	-0.810048	-1.243417	0.280036
C212	C	-0.476714	-0.910084	0.613369
C213	C	-0.143381	-0.576751	0.946703
C214	C	-0.763132	-1.243389	0.280026
C215	C	-0.429799	-0.910056	0.613359
C216	C	-0.096466	-0.576723	0.946693
C217	C	-0.763164	-1.041061	0.482007
C218	C	-0.429831	-0.707728	0.815341
C219	C	-0.096497	-0.374394	1.148674
C220	C	-0.810080	-1.041093	0.482013
C221	C	-0.476746	-0.707759	0.815346
C222	C	-0.143413	-0.374426	1.148679
C223	C	-0.833530	-1.091687	0.431521
C224	C	-0.500197	-0.758354	0.764855
C225	C	-0.166863	-0.425020	1.098188
C226	C	-0.099287	-1.142293	0.381032
C227	C	0.234047	-0.808959	0.714365
C228	C	0.567380	-0.475626	1.047699
C229	C	-0.049352	-1.142363	0.381056
C230	C	0.283981	-0.809030	0.714389
C231	C	0.617315	-0.475696	1.047723
C232	C	-0.216428	-1.142161	0.587144
C233	C	0.116906	-0.808828	0.920477
C234	C	0.450239	-0.475494	1.253810
C235	C	-0.216412	-1.142175	0.675000
C236	C	0.116921	-0.808842	1.008334
C237	C	0.450255	-0.475508	1.341667
C238	C	-0.216479	-0.348296	0.381013
C239	C	0.116854	-0.014963	0.714347
C240	C	0.450188	0.318371	1.047680
C241	C	-0.216472	-0.436153	0.380993
C242	C	0.116861	-0.102819	0.714326
C243	C	0.450194	0.230514	1.047659
C244	C	-0.216470	-1.142141	0.175609
C245	C	0.116864	-0.808807	0.508942
C246	C	0.450197	-0.475474	0.842276
C247	C	-0.216359	-1.142280	0.087753
C248	C	0.116974	-0.808947	0.421086
C249	C	0.450308	-0.475613	0.754420
C250	C	-0.245091	-1.091678	1.046452
C251	C	0.088242	-0.758345	1.379785
C252	C	0.421576	-0.425012	1.713119
C253	C	-0.187638	-1.192860	1.046500
C254	C	0.145695	-0.859527	1.379834
C255	C	0.479028	-0.526194	1.713167
C256	C	-0.187648	-1.192839	0.963954
C257	C	0.145686	-0.859506	1.297288
C258	C	0.479019	-0.526173	1.630621
C259	C	-0.216380	-1.142238	0.922653
C260	C	0.116954	-0.808905	1.255987
C261	C	0.450287	-0.475571	1.589320
C262	C	-0.245102	-1.091657	0.963898
C263	C	0.088231	-0.758324	1.297232
C264	C	0.421564	-0.424991	1.630565
C265	C	-0.158929	-1.243424	0.922703
C266	C	0.174404	-0.910091	1.256037
C267	C	0.507738	-0.576758	1.589370
C268	C	-0.158938	-1.243406	0.840152
C269	C	0.174396	-0.910073	1.173486
C270	C	0.507729	-0.576739	1.506819
C271	C	-0.187668	-1.192800	0.798850
C272	C	0.145666	-0.859467	1.132183
C273	C	0.478999	-0.526133	1.465517
C274	C	-0.216391	-1.142217	0.840100
C275	C	0.116942	-0.808884	1.173433
C276	C	0.450276	-0.475550	1.506766
C277	C	-0.245123	-1.091615	0.798799
C278	C	0.088210	-0.758282	1.132132
C279	C	0.421544	-0.424949	1.465465
C280	C	-0.273844	-1.041028	0.840047
C281	C	0.059489	-0.707694	1.173381
C282	C	0.392822	-0.374361	1.506714
C283	C	-0.273832	-1.041051	0.922596
C284	C	0.059501	-0.707718	1.255929
C285	C	0.392834	-0.374385	1.589262
C286	C	-0.187680	-1.192776	0.716301
C287	C	0.145653	-0.859443	1.049635
C288	C	0.478987	-0.526110	1.382968
C289	C	-0.245134	-1.091595	0.716245
C290	C	0.088199	-0.758261	1.049579
C291	C	0.421532	-0.424928	1.382912
H292	H	-0.387469	-1.233771	0.289324
H293	H	-0.054135	-0.900438	0.622657
H294	H	0.279198	-0.567104	0.955990
H295	H	-0.135551	-1.284597	0.806575
H296	H	0.197783	-0.951264	1.139908
H297	H	0.531116	-0.617930	1.473241
N298	N	-0.478773	-1.247203	0.275988
N299	N	-0.145440	-0.913870	0.609321
N300	N	0.187894	-0.580536	0.942654
H301	H	-0.498270	-1.215114	0.239326
H302	H	-0.164936	-0.881781	0.572659
H303	H	0.168397	-0.548447	0.905993
H304	H	-0.498182	-1.283823	0.308195
H305	H	-0.164848	-0.950490	0.641529
H306	H	0.168485	-0.617156	0.974862
N307	N	-0.127944	-1.298003	0.967246
N308	N	0.205389	-0.964670	1.300580
N309	N	0.538723	-0.631336	1.633913
H310	H	-0.132294	-1.290336	1.025799
H311	H	0.201039	-0.957003	1.359133
H312	H	0.534373	-0.623669	1.692466
H313	H	-0.095859	-1.285745	0.952834
H314	H	0.237474	-0.952412	1.286167
H315	H	0.570807	-0.619078	1.619501
N316	N	-1.051206	-1.037222	0.486021
N317	N	-0.717873	-0.703889	0.819354
N318	N	-0.384540	-0.370556	1.152688
H319	H	-1.084488	-1.044908	0.478369
H320	H	-0.751155	-0.711575	0.811702
H321	H	-0.417821	-0.378241	1.145036
H322	H	-1.043038	-0.980775	0.473658
H323	H	-0.709704	-0.647442	0.806991
H324	H	-0.376371	-0.314108	1.140324
H325	H	-0.297240	-0.999832	0.806409
H326	H	0.036093	-0.666498	1.139743
H327	H	0.369427	-0.333165	1.473076
H328	H	-0.164297	-1.233966	0.682721
H329	H	0.169037	-0.900633	1.016054
H330	H	0.502370	-0.567299	1.349387
H331	H	-0.744074	-0.999862	0.523124
H332	H	-0.410741	-0.666528	0.856458
H333	H	-0.077408	-0.333195	1.189791
N334	N	-0.304799	-0.728147	0.225027
N335	N	0.028534	-0.394814	0.558360
N336	N	0.361868	-0.061480	0.891693
H337	H	-0.325639	-0.762393	0.257079
H338	H	0.007695	-0.429060	0.590412
H339	H	0.341028	-0.095726	0.923746
H340	H	-0.286481	-0.762350	0.188466
H341	H	0.046852	-0.429017	0.521799
H342	H	0.380186	-0.095684	0.855132
N343	N	-0.276117	-1.037003	0.671701
N344	N	0.057216	-0.703670	1.005034
N345	N	0.390550	-0.370337	1.338368
H346	H	-0.294306	-1.004960	0.710359
H347	H	0.039027	-0.671626	1.043692
H348	H	0.372360	-0.338293	1.377026
H349	H	-0.296919	-1.069131	0.637440
H350	H	0.036415	-0.735797	0.970774
H351	H	0.369748	-0.402464	1.304107
H352	H	-0.297217	-0.999868	0.956188
H353	H	0.036116	-0.666535	1.289521
H354	H	0.369450	-0.333202	1.622854
H355	H	-0.268474	-1.050489	1.080040
H356	H	0.064860	-0.717156	1.413373
H357	H	0.398193	-0.383822	1.746707
N358	N	-0.276114	-0.432791	0.275721
N359	N	0.057220	-0.099458	0.609055
N360	N	0.390553	0.233875	0.942388
H361	H	-0.296957	-0.398537	0.307778
H362	H	0.036376	-0.065203	0.641112
H363	H	0.369710	0.268130	0.974445
H364	H	-0.294260	-0.471477	0.243643
H365	H	0.039074	-0.138144	0.576976
H366	H	0.372407	0.195189	0.910309
H367	H	-0.164248	-1.234062	1.080133
H368	H	0.169085	-0.900729	1.413466
H369	H	0.502418	-0.567395	1.746799
H370	H	-0.268513	-0.841130	0.289036
H371	H	0.064820	-0.507797	0.622370
H372	H	0.398154	-0.174464	0.955703
H373	H	-0.297218	-0.567483	0.238443
H374	H	0.036115	-0.234150	0.571776
H375	H	0.369449	0.099183	0.905109
H376	H	-0.135699	-0.717565	0.523478
H377	H	0.197635	-0.384232	0.856811
H378	H	0.530968	-0.050899	1.190145
N379	N	-0.835345	-1.297981	0.225570
N380	N	-0.502012	-0.964648	0.558903
N381	N	-0.168679	-0.631314	0.892236
H382	H	-0.868627	-1.290318	0.233244
H383	H	-0.535294	-0.956984	0.566578
H384	H	-0.201961	-0.623651	0.899911
H385	H	-0.827112	-1.354423	0.237928
H386	H	-0.493779	-1.021089	0.571261
H387	H	-0.160446	-0.687756	0.904595
H388	H	-0.959864	-1.234091	0.289419
H389	H	-0.626530	-0.900758	0.622752
H390	H	-0.293197	-0.567424	0.956085
N391	N	-0.128130	-0.556912	0.536883
N392	N	0.205203	-0.223579	0.870216
N393	N	0.538537	0.109754	1.203549
H394	H	-0.096021	-0.571303	0.524714
H395	H	0.237312	-0.237970	0.858047
H396	H	0.570646	0.095363	1.191381
H397	H	-0.135188	-0.571320	0.593311
H398	H	0.198145	-0.237986	0.926645
H399	H	0.531479	0.095347	1.259978
H400	H	-0.603283	-1.284486	0.238871
H401	H	-0.269950	-0.951153	0.572205
H402	H	0.063383	-0.617819	0.905538
H403	H	-0.164416	-0.443924	0.472870
H404	H	0.168917	-0.110591	0.806203
H405	H	0.502251	0.222742	1.139536
H406	H	-0.164391	-0.841336	0.472805
H407	H	0.168943	-0.508003	0.806138
H408	H	0.502276	-0.174669	1.139471
H409	H	-0.387493	-1.050228	0.472557
H410	H	-0.054159	-0.716894	0.805891
H411	H	0.279174	-0.383561	1.139224
H412	H	-1.044986	-1.234135	0.289442
H413	H	-0.711653	-0.900802	0.622776
H414	H	-0.378319	-0.567469	0.956109
H415	H	-0.688390	-1.284538	0.238889
H416	H	-0.355056	-0.951204	0.572223
H417	H	-0.021723	-0.617871	0.905556
H418	H	-0.959894	-1.050545	0.472665
H419	H	-0.626561	-0.717212	0.805999
H420	H	-0.293228	-0.383878	1.139332
H421	H	-0.603317	-0.999794	0.523120
H422	H	-0.269984	-0.666461	0.856454
H423	H	0.063350	-0.333127	1.189787
N424	N	-0.694629	-0.986462	0.536476
N425	N	-0.361296	-0.653128	0.869809
N426	N	-0.027963	-0.319795	1.203143
H427	H	-0.672648	-0.954414	0.568458
H428	H	-0.339314	-0.621081	0.901791
H429	H	-0.005981	-0.287748	1.235124
H430	H	-0.714064	-1.018619	0.573096
H431	H	-0.380731	-0.685286	0.906430
H432	H	-0.047398	-0.351953	1.239763
H433	H	-0.472615	-1.050279	0.472585
H434	H	-0.139282	-0.716946	0.805918
H435	H	0.194052	-0.383613	1.139251
H436	H	-0.744030	-1.284568	0.238899
H437	H	-0.410697	-0.951235	0.572233
H438	H	-0.077364	-0.617902	0.905566
H439	H	-0.829181	-0.999905	0.523140
H440	H	-0.495847	-0.666572	0.856474
H441	H	-0.162514	-0.333239	1.189807
