data_functionalizedCrystal
_audit_creation_method	'MofGen! by Chris Wilmer'
_symmetry_space_group_name_H-M	'P1'
_symmetry_Int_Tables_number	1
_symmetry_cell_setting	triclinic
loop_
_symmetry_equiv_pos_as_xyz
  x,y,z
_cell_length_a	14.044220
_cell_length_b	17.699083
_cell_length_c	16.776229
_cell_angle_alpha	90.007545
_cell_angle_beta	89.997978
_cell_angle_gamma	91.764054
loop_
_atom_site_label
_atom_site_type_symbol
_atom_site_fract_x
_atom_site_fract_y
_atom_site_fract_z
O1	O	1.257290	-0.182444	-0.066207
O2	O	0.981336	-0.175860	-0.066227
O3	O	1.127109	-0.069500	-0.066209
O4	O	1.111516	-0.288803	-0.066224
O5	O	1.127090	-0.069492	0.066367
O6	O	0.981317	-0.175852	0.066350
O7	O	1.257271	-0.182435	0.066370
Zn8	Zn	1.119290	-0.179142	0.087409
Zn9	Zn	1.119316	-0.179153	-0.087266
O10	O	1.111497	-0.288795	0.066352
C11	C	0.946018	-0.172974	0.000059
C12	C	0.840812	-0.164378	0.000052
C13	C	0.648187	-0.148663	0.000069
C14	C	0.590414	-0.209629	0.000068
C15	C	0.483230	-0.200885	0.000077
C16	C	0.755381	-0.157406	0.000059
C17	C	1.126541	-0.041261	0.000079
C18	C	1.124865	0.042873	0.000079
C19	C	1.292588	-0.185321	0.000082
C20	C	1.397794	-0.193917	0.000085
C21	C	1.112066	-0.317035	0.000062
C22	C	1.113742	-0.401168	0.000057
N23	N	1.119280	-0.179134	0.206620
C24	C	1.210431	0.085591	0.000087
C25	C	1.208850	0.164644	0.000080
C26	C	1.121702	0.200976	0.000071
C27	C	1.036130	0.158252	0.000061
C28	C	1.037712	0.079201	0.000063
C29	C	1.029750	0.477055	0.000054
C30	C	1.028175	0.556112	0.000055
C31	C	1.200888	0.562498	0.000071
C32	C	1.202470	0.483447	0.000073
C33	C	1.116898	0.440730	0.000059
C34	C	1.118613	0.355012	0.000065
C35	C	1.119987	0.286692	0.000070
N36	N	1.119334	-0.179155	-0.206477
C37	C	1.183848	-0.132061	0.248345
C38	C	1.183853	-0.132061	0.331798
C39	C	1.119294	-0.179138	0.373523
C40	C	1.054719	-0.226214	0.331793
C41	C	1.054710	-0.226210	0.248342
C42	C	1.054754	-0.226231	0.668340
C43	C	1.054770	-0.226233	0.751796
C44	C	1.183897	-0.132082	0.751795
C45	C	1.183888	-0.132078	0.668345
C46	C	1.119310	-0.179150	0.626621
C47	C	1.119304	-0.179149	0.536133
C48	C	1.119304	-0.179144	0.464010
H49	H	1.281396	0.056016	0.000099
H50	H	0.621449	-0.268391	0.000060
N51	N	0.950299	0.035574	0.000045
N52	N	0.872494	0.068021	0.000032
H53	H	0.810755	0.037210	0.000015
N54	N	1.249855	-0.083980	0.794404
N55	N	1.307492	-0.041951	0.757138
H56	H	1.354076	-0.007979	0.787227
N57	N	0.609277	-0.074945	0.000080
N58	N	0.627900	-0.030168	0.055962
H59	H	0.600411	0.021896	0.055968
H60	H	1.278527	0.199422	0.000087
N61	N	1.249852	-0.083995	0.625736
N62	N	1.307503	-0.041971	0.663001
H63	H	1.354093	-0.008012	0.632911
N64	N	1.291497	0.446347	0.000089
N65	N	1.367891	0.484499	0.000095
H66	H	1.430769	0.458299	0.000105
H67	H	1.002131	-0.264541	0.214370
N68	N	1.288292	0.606145	0.000086
N69	N	1.286875	0.676725	0.000085
H70	H	1.348602	0.707551	0.000099
H71	H	0.957205	0.585691	0.000050
H72	H	1.002194	-0.264571	0.785768
H73	H	0.960072	0.442284	0.000043
N74	N	1.249738	-0.083933	0.205713
N75	N	1.248538	-0.013901	0.215051
H76	H	1.295051	0.020103	0.184935
H77	H	1.236429	-0.093729	0.365770
H78	H	0.965173	0.187840	0.000049
H79	H	1.002174	-0.264561	0.634375
H80	H	1.002149	-0.264543	0.365771
