data_functionalizedCrystal
_audit_creation_method	'MofGen! by Chris Wilmer'
_symmetry_space_group_name_H-M	'P1'
_symmetry_Int_Tables_number	1
_symmetry_cell_setting	triclinic
loop_
_symmetry_equiv_pos_as_xyz
  x,y,z
_cell_length_a	25.427154
_cell_length_b	25.426324
_cell_length_c	25.422586
_cell_angle_alpha	60.006367
_cell_angle_beta	60.012446
_cell_angle_gamma	59.992398
loop_
_atom_site_label
_atom_site_type_symbol
_atom_site_fract_x
_atom_site_fract_y
_atom_site_fract_z
O1	O	0.072968	-0.768436	0.642532
O2	O	0.027520	-0.598284	0.517710
O3	O	0.135268	-0.705940	0.517611
O4	O	-0.034780	-0.660780	0.642632
O5	O	0.171018	-0.670200	0.553260
O6	O	0.063270	-0.562544	0.553360
O7	O	0.108718	-0.732696	0.678182
Zn8	Zn	0.091670	-0.641945	0.621431
Zn9	Zn	0.044568	-0.689034	0.574461
O10	O	0.000970	-0.625039	0.678281
N11	N	0.123818	-0.609812	0.653490
N12	N	0.012426	-0.721173	0.542402
C13	C	0.168482	-0.466269	0.698103
C14	C	0.168494	-0.565177	0.698095
C15	C	0.193243	-0.540453	0.722807
C16	C	0.301113	-0.521853	0.665993
C17	C	0.368545	-0.544324	0.643486
C18	C	0.368579	-0.653434	0.685090
C19	C	0.301149	-0.630961	0.707599
C20	C	0.184722	-0.432539	0.631812
C21	C	0.162210	-0.365100	0.609357
C22	C	0.107225	-0.365129	0.719489
C23	C	0.129737	-0.432567	0.741943
C24	C	0.102194	-0.548896	0.714421
C25	C	0.079702	-0.571372	0.691949
C26	C	0.189805	-0.626409	0.636839
C27	C	0.212300	-0.603934	0.659303
C28	C	0.102289	-0.548918	0.830735
C29	C	0.079866	-0.571415	0.898171
C30	C	0.190015	-0.626466	0.898104
C31	C	0.212437	-0.603971	0.830666
C32	C	0.168573	-0.565195	0.796984
C33	C	0.267418	-0.565170	0.698047
C34	C	-0.130981	-0.765617	0.497386
C35	C	-0.032127	-0.765741	0.497606
C36	C	-0.056804	-0.790430	0.472789
C37	C	-0.075480	-0.898263	0.529507
C38	C	-0.053057	-0.965702	0.552014
C39	C	0.056052	-0.965829	0.510599
C40	C	0.033627	-0.898392	0.488091
C41	C	-0.164787	-0.781859	0.563659
C42	C	-0.232219	-0.759299	0.586018
C43	C	-0.232034	-0.704261	0.475827
C44	C	-0.164602	-0.726821	0.453469
C45	C	-0.048372	-0.699446	0.481299
C46	C	-0.025938	-0.677008	0.503867
C47	C	0.028987	-0.787155	0.559036
C48	C	0.006552	-0.809596	0.536475
C49	C	-0.048188	-0.699454	0.364860
C50	C	-0.025608	-0.677017	0.297425
C51	C	0.029406	-0.787170	0.297492
C52	C	0.006827	-0.809605	0.364929
C53	C	-0.031972	-0.765745	0.398611
C54	C	-0.032140	-0.864611	0.497548
N55	N	0.401319	-0.609788	0.653344
O56	O	0.621664	-0.620517	0.494685
O57	O	0.621901	-0.745740	0.664659
O58	O	0.621803	-0.745452	0.556857
O59	O	0.621762	-0.620805	0.602487
O60	O	0.514676	-0.709815	0.592658
O61	O	0.514774	-0.710104	0.700460
O62	O	0.514537	-0.584881	0.530485
Zn63	Zn	0.497647	-0.641834	0.621157
Zn64	Zn	0.638791	-0.688787	0.573988
O65	O	0.514635	-0.585169	0.638287
N66	N	0.735119	-0.720834	0.541794
N67	N	0.123794	-0.332357	0.653504
O68	O	-0.034774	-0.111885	0.642639
O69	O	0.135202	-0.111860	0.517412
O70	O	0.027364	-0.111888	0.517742
O71	O	0.073064	-0.111857	0.642310
O72	O	0.063120	-0.219026	0.553444
O73	O	0.170958	-0.218998	0.553115
O74	O	0.000983	-0.219022	0.678342
Zn75	Zn	0.091647	-0.236020	0.621397
Zn76	Zn	0.044537	-0.094862	0.574357
O77	O	0.108821	-0.218994	0.678013
N78	N	0.012383	0.001474	0.542251
N79	N	0.124036	-0.609854	0.930891
O80	O	0.113202	-0.768401	1.151342
O81	O	-0.011992	-0.598359	1.151385
O82	O	-0.011700	-0.706176	1.151343
O83	O	0.112910	-0.660584	1.151384
O84	O	0.023980	-0.670446	1.044212
O85	O	0.023689	-0.562630	1.044253
O86	O	0.148882	-0.732671	1.044211
Zn87	Zn	0.091951	-0.641977	1.027223
Zn88	Zn	0.044940	-0.689053	1.168373
O89	O	0.148590	-0.624854	1.044252
N90	N	0.012853	-0.721183	1.264704
C91	C	0.041135	-0.558973	0.518338
C92	C	0.174567	-0.692292	0.518215
C93	C	0.095103	-0.772007	0.677553
C94	C	-0.038330	-0.638687	0.677677
C95	C	0.568366	-0.745166	0.703974
C96	C	0.568246	-0.744810	0.570474
C97	C	0.568069	-0.585454	0.491172
C98	C	0.568192	-0.585812	0.624671
C99	C	0.174449	-0.165294	0.517975
C100	C	0.040949	-0.165460	0.518427
C101	C	-0.038309	-0.165456	0.677735
C102	C	0.095236	-0.165423	0.677328
C103	C	-0.011393	-0.559072	1.097824
C104	C	-0.011024	-0.692583	1.097752
C105	C	0.148283	-0.771958	1.097772
C106	C	0.147922	-0.638440	1.097820
H107	H	0.066565	-0.517338	0.803314
H108	H	0.025716	-0.558101	0.705227
H109	H	0.187070	-0.628684	1.097824
O110	O	0.066496	-0.829695	0.596861
C111	C	0.035760	-0.819968	0.656815
H112	H	0.000157	-0.768770	0.651333
H113	H	0.073361	-0.827512	0.674181
H114	H	0.008911	-0.855756	0.693411
H115	H	-0.050155	-0.702322	1.097697
O116	O	-0.264598	-0.666566	0.433081
C117	C	-0.220300	-0.657093	0.369789
H118	H	-0.172254	-0.664683	0.370005
H119	H	-0.239713	-0.605947	0.337725
H120	H	-0.213113	-0.692987	0.350459
O121	O	0.232828	-0.703875	0.471397
C122	C	0.244338	-0.755995	0.456510
H123	H	0.214241	-0.786945	0.499108
H124	H	0.297590	-0.786333	0.446054
H125	H	0.230490	-0.736854	0.412331
O126	O	0.106778	-0.830362	0.724245
C127	C	0.170087	-0.870311	0.700874
H128	H	0.187070	-0.852755	0.646007
H129	H	0.170966	-0.921946	0.720549
H130	H	0.203416	-0.868537	0.717169
H131	H	0.568264	-0.783967	0.560707
H132	H	-0.039168	-0.623025	0.490592
H133	H	-0.087123	-0.165464	0.717049
O134	O	0.029624	-0.500637	0.471582
C135	C	0.073828	-0.472029	0.454212
H136	H	0.092686	-0.493362	0.495499
H137	H	0.048770	-0.417843	0.443694
H138	H	0.115771	-0.481749	0.409400
O139	O	-0.058267	-0.500785	1.097723
C140	C	-0.075584	-0.472273	1.042244
H141	H	-0.034217	-0.493581	1.003457
H142	H	-0.086236	-0.418066	1.023634
H143	H	-0.120301	-0.482116	1.054780
O144	O	0.568472	-0.792007	0.762237
C145	C	0.568473	-0.768807	0.802329
H146	H	0.588704	-0.727432	0.771357
H147	H	0.599628	-0.809279	0.833157
H148	H	0.517091	-0.750952	0.834892
H149	H	0.031160	-0.165463	0.479291
O150	O	0.568207	-0.539035	0.636197
C151	C	0.568105	-0.483425	0.580906
H152	H	0.588352	-0.497478	0.536612
H153	H	0.599194	-0.459412	0.575245
H154	H	0.516689	-0.448418	0.586152
H155	H	-0.087172	-0.629063	0.716934
O156	O	0.567894	-0.538569	0.432942
C157	C	0.512376	-0.523633	0.421439
H158	H	0.493935	-0.566238	0.451493
H159	H	0.524795	-0.513099	0.368175
H160	H	0.473505	-0.479485	0.435347
H161	H	0.187590	-0.820792	1.097751
H162	H	0.223163	-0.164989	0.478564
O163	O	0.107026	-0.165453	0.723961
C164	C	0.170339	-0.165429	0.700475
H165	H	0.200792	-0.185703	0.659118
H166	H	0.192043	-0.196538	0.740805
H167	H	0.169378	-0.114029	0.682513
H168	H	0.225736	-0.658027	0.925521
O169	O	0.015453	-0.555509	0.930850
C170	C	-0.018449	-0.516474	0.886657
H171	H	0.013684	-0.491953	0.838579
H172	H	-0.063445	-0.478322	0.906163
H173	H	-0.033001	-0.547580	0.879494
H174	H	0.066522	-0.517340	0.746005
O175	O	0.276844	-0.619897	0.797953
C176	C	0.304869	-0.687442	0.814397
H177	H	0.272929	-0.711051	0.863366
H178	H	0.354484	-0.703203	0.816675
H179	H	0.309858	-0.702690	0.776446
O180	O	0.232446	-0.664030	0.599146
C181	C	0.295785	-0.673593	0.589576
H182	H	0.295665	-0.632939	0.597115
H183	H	0.327770	-0.673935	0.538424
H184	H	0.315140	-0.721638	0.625450
H185	H	0.273715	-0.666239	0.733700
O186	O	0.276695	-0.619627	0.643377
C187	C	0.292943	-0.562950	0.609455
H188	H	0.254896	-0.522444	0.586660
H189	H	0.341879	-0.571815	0.570139
H190	H	0.295193	-0.548762	0.644132
H191	H	0.396045	-0.707006	0.692856
H192	H	0.395978	-0.509050	0.617384
H193	H	0.216267	-0.459978	0.596113
O194	O	0.268419	-0.457919	0.656603
C195	C	0.284837	-0.423121	0.590022
H196	H	0.333789	-0.452583	0.563452
H197	H	0.287138	-0.375580	0.581112
H198	H	0.246862	-0.413061	0.571665
O199	O	0.177871	-0.332300	0.544964
C200	C	0.121184	-0.293282	0.528705
H201	H	0.080698	-0.313618	0.566735
H202	H	0.130034	-0.292502	0.479753
H203	H	0.106983	-0.242176	0.526479
O204	O	0.069577	-0.332485	0.762160
C205	C	0.060097	-0.376719	0.825489
H206	H	0.067637	-0.424791	0.825368
H207	H	0.008969	-0.357248	0.857532
H208	H	0.096016	-0.383885	0.844776
H209	H	0.116505	-0.460032	0.795926
H210	H	-0.079784	-0.663733	0.392281
O211	O	-0.041485	-0.612610	0.264676
C212	C	-0.109017	-0.584541	0.281051
H213	H	-0.130768	-0.622902	0.299537
H214	H	-0.121851	-0.544785	0.236659
H215	H	-0.129039	-0.563238	0.320199
O216	O	0.067009	-0.829839	0.264850
C217	C	0.032932	-0.868754	0.281240
H218	H	-0.006379	-0.869358	0.330157
H219	H	0.067500	-0.919922	0.283606
H220	H	0.010120	-0.848452	0.243212
O221	O	-0.085963	-0.656758	0.443576
C222	C	-0.095480	-0.593433	0.434016
H223	H	-0.088016	-0.593562	0.474727
H224	H	-0.146593	-0.561367	0.433566
H225	H	-0.059529	-0.574164	0.386024
O226	O	0.022416	-0.874016	0.552347
C227	C	0.061353	-0.907914	0.591504
H228	H	0.085872	-0.875795	0.582968
H229	H	0.099501	-0.952947	0.578911
H230	H	0.030173	-0.922412	0.644295
O231	O	0.022468	-0.873989	0.397785
C232	C	-0.034225	-0.890209	0.436681
H233	H	-0.076584	-0.845733	0.446721
H234	H	-0.028277	-0.929309	0.484138
H235	H	-0.043657	-0.908702	0.410639
H236	H	0.068924	-0.870994	0.462067
H237	H	0.109606	-0.993335	0.502902
O238	O	-0.095243	-0.998291	0.583030
C239	C	-0.126792	-0.981806	0.541719
H240	H	-0.125142	-0.932891	0.503284
H241	H	-0.179088	-0.979384	0.570830
H242	H	-0.101660	-1.019812	0.517639
O243	O	-0.132196	-0.819608	0.606378
C244	C	-0.148726	-0.876130	0.645329
H245	H	-0.197664	-0.867027	0.645893
H246	H	-0.151114	-0.890344	0.696500
H247	H	-0.110770	-0.916724	0.625091
O248	O	-0.265136	-0.775101	0.650383
C249	C	-0.304140	-0.809000	0.666583
H250	H	-0.314158	-0.796826	0.622085
H251	H	-0.351599	-0.794599	0.705628
H252	H	-0.278205	-0.862984	0.685138
H253	H	-0.137077	-0.713589	0.399501
H254	H	-0.129033	-0.870764	0.537213
