data_functionalizedCrystal
_audit_creation_method	'MofGen! by Chris Wilmer'
_symmetry_space_group_name_H-M	'P1'
_symmetry_Int_Tables_number	1
_symmetry_cell_setting	triclinic
loop_
_symmetry_equiv_pos_as_xyz
  x,y,z
_cell_length_a	14.853569
_cell_length_b	9.565339
_cell_length_c	14.853567
_cell_angle_alpha	89.995974
_cell_angle_beta	83.635248
_cell_angle_gamma	90.001586
loop_
_atom_site_label
_atom_site_type_symbol
_atom_site_fract_x
_atom_site_fract_y
_atom_site_fract_z
O1	O	1.196363	0.116184	0.117704
O2	O	1.696363	0.616184	0.617704
O3	O	0.933904	0.116199	0.131724
O4	O	1.433904	0.616199	0.631724
O5	O	1.072144	0.116195	-0.006515
O6	O	1.572144	0.616195	0.493485
O7	O	1.058123	0.116188	0.255944
O8	O	1.558123	0.616188	0.755944
O9	O	1.072133	-0.116325	-0.006507
O10	O	1.572133	0.383675	0.493493
O11	O	0.933893	-0.116321	0.131733
O12	O	1.433893	0.383679	0.631733
O13	O	1.196352	-0.116336	0.117713
O14	O	1.696352	0.383664	0.617713
Zn15	Zn	1.065121	-0.153246	0.124724
Zn16	Zn	1.565121	0.346754	0.624724
Zn17	Zn	1.065135	0.153109	0.124713
Zn18	Zn	1.565135	0.653109	0.624713
O19	O	1.058112	-0.116332	0.255953
O20	O	1.558112	0.383668	0.755953
C21	C	0.900310	-0.000059	0.131093
C22	C	1.400310	0.499941	0.631093
C23	C	0.800226	-0.000052	0.129189
C24	C	1.300226	0.499948	0.629189
N25	N	1.065118	-0.362325	0.124732
N26	N	1.565118	0.137675	0.624732
C27	C	0.763850	-0.000045	0.046178
C28	C	1.263850	0.499955	0.546178
C29	C	0.742560	-0.000065	0.210410
C30	C	1.242560	0.499935	0.710410
C31	C	0.648526	-0.000067	0.208624
C32	C	1.148526	0.499933	0.708624
C33	C	0.612150	-0.000059	0.125613
C34	C	1.112150	0.499941	0.625613
C35	C	0.669807	-0.000051	0.044389
C36	C	1.169807	0.499949	0.544389
C37	C	0.590862	-0.000090	0.289847
C38	C	1.090862	0.499910	0.789847
C39	C	0.496821	-0.000093	0.288064
C40	C	0.996821	0.499907	0.788064
C41	C	0.460443	-0.000076	0.205052
C42	C	0.960443	0.499924	0.705052
C43	C	0.518107	-0.000065	0.123824
C44	C	1.018107	0.499935	0.623824
C45	C	0.481730	-0.000058	0.040813
C46	C	0.981730	0.499942	0.540813
C47	C	0.539393	-0.000037	-0.040415
C48	C	1.039393	0.499963	0.459585
C49	C	0.633429	-0.000033	-0.038623
C50	C	1.133429	0.499967	0.461377
C51	C	0.366407	-0.000080	0.203259
C52	C	0.866407	0.499920	0.703259
C53	C	0.387688	-0.000064	0.039024
C54	C	0.887688	0.499936	0.539024
C55	C	1.001167	-0.453527	0.188642
C56	C	1.501167	0.046473	0.688642
C57	C	1.082657	-0.546711	0.206237
C58	C	1.582657	-0.046711	0.706237
C59	C	0.983663	-0.546696	0.107143
C60	C	1.483663	-0.046696	0.607143
C61	C	1.146648	-0.453458	0.142368
C62	C	1.646648	0.046542	0.642368
C63	C	1.047602	-0.453435	0.043238
C64	C	1.547602	0.046565	0.543238
C65	C	1.129150	-0.546577	0.060799
C66	C	1.629150	-0.046577	0.560799
C67	C	1.229947	-0.000075	0.118344
C68	C	1.729947	0.499925	0.618344
C69	C	1.330030	-0.000072	0.120249
C70	C	1.830030	0.499928	0.620249
C71	C	1.071504	-0.000061	-0.040100
C72	C	1.571504	0.499939	0.459900
C73	C	1.069600	-0.000048	-0.140183
C74	C	1.569600	0.499952	0.359817
N75	N	1.065146	0.362189	0.124699
N76	N	1.565146	0.862189	0.624699
C77	C	0.979434	-0.000070	-0.552718
C78	C	1.479434	0.499930	-0.052718
C79	C	1.143667	-0.000079	-0.573998
C80	C	1.643667	0.499921	-0.073998
C81	C	1.145457	-0.000071	-0.479964
C82	C	1.645457	0.499929	0.020036
C83	C	1.064234	-0.000064	-0.422303
C84	C	1.564234	0.499936	0.077697
C85	C	0.981222	-0.000066	-0.458675
C86	C	1.481222	0.499934	0.041325
C87	C	1.228468	-0.000084	-0.443585
C88	C	1.728468	0.499916	0.056415
C89	C	1.230262	-0.000077	-0.349545
C90	C	1.730262	0.499923	0.150455
C91	C	1.149038	-0.000061	-0.291882
C92	C	1.649038	0.499939	0.208118
C93	C	1.066022	-0.000060	-0.328260
C94	C	1.566022	0.499940	0.171740
C95	C	0.984800	-0.000054	-0.270599
C96	C	1.484800	0.499946	0.229401
C97	C	0.901783	-0.000043	-0.306974
C98	C	1.401783	0.499957	0.193026
C99	C	0.899998	-0.000049	-0.401012
C100	C	1.399998	0.499951	0.098988
C101	C	1.150822	-0.000055	-0.197845
C102	C	1.650822	0.499945	0.302155
C103	C	0.986587	-0.000050	-0.176556
C104	C	1.486587	0.499950	0.323444
C105	C	1.058753	-0.000073	0.289537
C106	C	1.558753	0.499927	0.789537
C107	C	1.060657	-0.000076	0.389621
C108	C	1.560657	0.499924	0.889621
H109	H	0.358078	-0.000050	-0.028574
H110	H	0.858078	0.499950	0.471426
H111	H	0.449880	-0.000107	0.354205
H112	H	0.949880	0.499893	0.854205
H113	H	1.209794	-0.000096	-0.620951
H114	H	1.709794	0.499904	-0.120951
F115	F	0.781278	-0.000077	0.298751
F116	F	1.281278	0.499923	0.798751
F117	F	0.930544	-0.400117	0.259347
F118	F	1.430544	0.099883	0.759347
H119	H	1.294595	-0.000102	-0.490539
H120	H	1.794595	0.499898	0.009461
H121	H	0.680385	-0.000019	-0.104755
H122	H	1.180385	0.499981	0.395245
H123	H	1.097491	-0.587682	0.275141
H124	H	1.597491	-0.087682	0.775141
H125	H	0.810802	-0.000023	-0.019956
H126	H	1.310802	0.499977	0.480044
F127	F	0.500667	-0.000041	-0.128759
F128	F	1.000667	0.499959	0.371241
F129	F	0.629581	-0.000095	0.378186
F130	F	1.129581	0.499905	0.878186
H131	H	0.319463	-0.000109	0.269395
H132	H	0.819463	0.499891	0.769395
H133	H	0.914767	-0.587655	0.092280
H134	H	1.414767	-0.087655	0.592280
H135	H	1.215560	-0.412675	0.157313
H136	H	1.715560	0.087325	0.657313
F137	F	1.199929	-0.599653	-0.009866
F138	F	1.699929	-0.099653	0.490134
F139	F	1.318614	-0.000071	-0.310840
F140	F	1.818614	0.499929	0.189160
F141	F	1.239168	-0.000088	-0.159134
F142	F	1.739168	0.499912	0.340866
H143	H	1.032742	-0.412432	-0.025643
H144	H	1.532742	0.087568	0.474357
H145	H	0.920445	-0.000038	-0.129613
H146	H	1.420445	0.499962	0.370387
F147	F	0.815343	-0.000047	-0.245597
F148	F	1.315343	0.499953	0.254403
F149	F	0.891086	-0.000047	-0.591431
F150	F	1.391086	0.499953	-0.091431
F151	F	0.811654	-0.000034	-0.439732
F152	F	1.311654	0.499966	0.060268
