data_functionalizedCrystal
_audit_creation_method	'MofGen! by Chris Wilmer'
_symmetry_space_group_name_H-M	'P1'
_symmetry_Int_Tables_number	1
_symmetry_cell_setting	triclinic
loop_
_symmetry_equiv_pos_as_xyz
  x,y,z
_cell_length_a	19.288840
_cell_length_b	19.288868
_cell_length_c	17.766277
_cell_angle_alpha	89.994224
_cell_angle_beta	89.983415
_cell_angle_gamma	83.131872
loop_
_atom_site_label
_atom_site_type_symbol
_atom_site_fract_x
_atom_site_fract_y
_atom_site_fract_z
O1	O	0.921365	0.086566	-0.062719
O2	O	1.421365	0.586566	0.437281
O3	O	0.719102	0.098273	-0.062693
O4	O	1.219102	0.598273	0.437307
O5	O	0.826077	-0.008711	-0.062703
O6	O	1.326077	0.491289	0.437297
O7	O	0.814391	0.193550	-0.062709
O8	O	1.314391	0.693550	0.437291
O9	O	0.826058	-0.008717	0.062486
O10	O	1.326058	0.491283	0.562486
O11	O	0.719084	0.098267	0.062496
O12	O	1.219084	0.598267	0.562496
O13	O	0.921347	0.086560	0.062470
O14	O	1.421347	0.586560	0.562470
Cu15	Cu	0.820213	0.092413	0.073913
Cu16	Cu	1.320213	0.592413	0.573913
Cu17	Cu	0.820236	0.092420	-0.074137
Cu18	Cu	1.320236	0.592420	0.425863
O19	O	0.814372	0.193544	0.062480
O20	O	1.314372	0.693544	0.562480
C21	C	0.693216	0.097896	-0.000095
C22	C	1.193216	0.597896	0.499905
C23	C	0.616112	0.096774	-0.000085
C24	C	1.116112	0.596774	0.499915
C25	C	0.579918	0.096238	-0.068327
C26	C	1.079918	0.596238	0.431673
C27	C	0.507471	0.095176	-0.068336
C28	C	1.007471	0.595176	0.431664
C29	C	0.471222	0.094636	-0.000100
C30	C	0.971222	0.594636	0.499900
C31	C	0.507424	0.095176	0.068152
C32	C	1.007424	0.595176	0.568152
C33	C	0.579869	0.096245	0.068159
C34	C	1.079869	0.596245	0.568159
C35	C	0.361886	0.052256	0.052170
C36	C	0.861886	0.552256	0.552170
C37	C	0.289444	0.051183	0.052160
C38	C	0.789444	0.551183	0.552160
C39	C	0.247779	0.091342	-0.000119
C40	C	0.747779	0.591342	0.499881
C41	C	0.278567	0.132566	-0.052401
C42	C	0.778567	0.632566	0.447599
C43	C	0.351011	0.133635	-0.052394
C44	C	0.851011	0.633635	0.447606
C45	C	0.392668	0.093477	-0.000100
C46	C	0.892668	0.593477	0.499900
C47	C	0.133030	0.089655	-0.068376
C48	C	0.633030	0.589655	0.431624
C49	C	0.060581	0.088598	-0.068382
C50	C	0.560581	0.588598	0.431618
C51	C	0.060536	0.088591	0.068108
C52	C	0.560536	0.588591	0.568108
C53	C	0.132983	0.089656	0.068112
C54	C	0.632983	0.589656	0.568112
C55	C	0.169226	0.090184	-0.000132
C56	C	0.669226	0.590184	0.499868
C57	C	0.825691	-0.034591	-0.000109
C58	C	1.325691	0.465409	0.499891
C59	C	0.824561	-0.111694	-0.000111
C60	C	1.324561	0.388306	0.499889
C61	C	0.947233	0.086937	-0.000130
C62	C	1.447233	0.586937	0.499870
C63	C	1.024337	0.088059	-0.000145
C64	C	1.524337	0.588059	0.499855
N65	N	0.820203	0.092408	0.178044
N66	N	1.320203	0.592408	0.678044
C67	C	0.814758	0.219424	-0.000116
C68	C	1.314758	0.719424	0.499884
C69	C	0.815888	0.296527	-0.000119
C70	C	1.315888	0.796527	0.499881
C71	C	0.824049	0.852093	-0.068350
C72	C	1.324049	1.352093	0.431650
C73	C	0.822982	0.779647	-0.068353
C74	C	1.322982	1.279647	0.431647
C75	C	0.822442	0.743415	-0.000113
C76	C	1.322442	1.243415	0.499887
C77	C	0.822950	0.779637	0.068135
C78	C	1.322950	1.279637	0.568135
C79	C	0.824010	0.852083	0.068136
C80	C	1.324010	1.352083	0.568136
C81	C	0.861437	0.623184	0.052163
C82	C	1.361437	1.123184	0.552163
C83	C	0.860382	0.550739	0.052159
C84	C	1.360382	1.050739	0.552159
C85	C	0.819170	0.519968	-0.000113
C86	C	1.319170	1.019968	0.499887
C87	C	0.779023	0.561650	-0.052394
C88	C	1.279023	1.061650	0.447606
C89	C	0.780083	0.634096	-0.052393
C90	C	1.280083	1.134096	0.447607
C91	C	0.821292	0.664859	-0.000106
C92	C	1.321292	1.164859	0.499894
C93	C	0.817500	0.405201	-0.068360
C94	C	1.317500	0.905201	0.431640
C95	C	0.816429	0.332754	-0.068360
C96	C	1.316429	0.832754	0.431640
C97	C	0.816404	0.332745	0.068130
C98	C	1.316404	0.832745	0.568130
C99	C	0.817468	0.405191	0.068128
C100	C	1.317468	0.905191	0.568128
C101	C	0.818020	0.441414	-0.000119
C102	C	1.318020	0.941414	0.499881
N103	N	0.820252	0.092419	-0.178267
N104	N	1.320252	0.592419	0.321733
C105	C	0.867586	0.045059	0.217426
C106	C	1.367586	0.545059	0.717426
C107	C	0.867590	0.045056	0.296228
C108	C	1.367590	0.545056	0.796228
C109	C	0.820217	0.092414	0.335644
C110	C	1.320217	0.592414	0.835644
C111	C	0.772825	0.139767	0.296252
C112	C	1.272825	0.639767	0.796252
C113	C	0.772818	0.139764	0.217452
C114	C	1.272818	0.639764	0.717452
C115	C	0.810919	0.155702	0.460481
C116	C	1.310919	0.655702	0.960481
C117	C	0.810932	0.155706	0.539280
C118	C	1.310932	0.655706	1.039280
C119	C	0.820236	0.092422	0.578691
C120	C	1.320236	0.592422	1.078691
C121	C	0.829543	0.029132	0.539293
C122	C	1.329543	0.529132	1.039293
C123	C	0.829536	0.029129	0.460492
C124	C	1.329536	0.529129	0.960492
C125	C	0.820220	0.092422	0.421090
C126	C	1.320220	0.592422	0.921090
C127	C	0.867627	0.045065	0.703519
C128	C	1.367627	0.545065	1.203519
C129	C	0.867626	0.045061	0.782322
C130	C	1.367626	0.545061	1.282322
C131	C	0.772864	0.139778	0.782345
C132	C	1.272864	0.639778	1.282345
C133	C	0.772861	0.139777	0.703543
C134	C	1.272861	0.639777	1.203543
C135	C	0.820246	0.092421	0.664135
C136	C	1.320246	0.592421	1.164135
H137	H	0.395805	0.019552	0.094746
H138	H	0.895805	0.519552	0.594746
H139	H	0.031113	0.088165	-0.123955
H140	H	0.531113	0.588165	0.376045
H141	H	0.477905	0.094738	0.123711
H142	H	0.977905	0.594738	0.623711
H143	H	0.031022	0.088155	0.123668
H144	H	0.531022	0.588155	0.623668
H145	H	0.822508	0.750133	0.123697
H146	H	1.322508	1.250133	0.623697
N147	N	0.822430	0.740571	-0.141952
N148	N	1.322430	1.240571	0.358048
H149	H	0.779574	0.758944	-0.171789
H150	H	1.279574	1.258944	0.328211
H151	H	0.865700	0.747421	-0.171728
H152	H	1.365700	1.247421	0.328272
H153	H	0.244644	0.165270	-0.094969
H154	H	0.744644	0.665270	0.405031
H155	H	0.734280	0.178336	0.671476
H156	H	1.234280	0.678336	1.171476
H157	H	0.264383	0.017613	0.094728
H158	H	0.764383	0.517613	0.594728
N159	N	0.905892	0.656364	0.108547
N160	N	1.405892	1.156364	0.608547
H161	H	0.941127	0.681764	0.081043
H162	H	1.441127	1.181764	0.581043
H163	H	0.875114	0.690560	0.140697
H164	H	1.375114	1.190560	0.640697
N165	N	0.818033	0.444248	0.141733
N166	N	1.318033	0.944248	0.641733
H167	H	0.861522	0.468537	0.144769
H168	H	1.361522	0.968537	0.644769
H169	H	0.775395	0.480038	0.144738
H170	H	1.275395	0.980038	0.644738
H171	H	0.162452	0.090087	0.123682
H172	H	0.662452	0.590087	0.623682
H173	H	0.609423	0.096669	-0.123897
H174	H	1.109423	0.596669	0.376103
H175	H	0.906209	0.006500	0.814388
H176	H	1.406209	0.506500	1.314388
N177	N	0.468422	0.094599	-0.141943
N178	N	0.968422	0.594599	0.358057
H179	H	0.502375	0.095098	-0.185173
H180	H	1.002375	0.595098	0.314827
H181	H	0.444140	0.051105	-0.144910
H182	H	0.944140	0.551105	0.355090
H183	H	0.824496	0.881582	-0.123922
H184	H	1.324496	1.381582	0.376078
N185	N	0.903682	0.505783	0.108541
N186	N	1.403682	1.005783	0.608541
H187	H	0.954634	0.511593	0.101569
H188	H	1.454634	1.011593	0.601569
H189	H	0.888604	0.520443	0.161200
H190	H	1.388604	1.020443	0.661200
N191	N	0.172127	0.090229	-0.141977
N192	N	0.672127	0.590229	0.358023
H193	H	0.138202	0.089734	-0.185211
H194	H	0.638202	0.589734	0.314789
H195	H	0.196416	0.133721	-0.144946
H196	H	0.696416	0.633721	0.355054
H197	H	0.837119	-0.022400	0.571379
H198	H	1.337119	0.477600	1.071379
H199	H	0.906208	0.006503	0.671431
H200	H	1.406208	0.506503	1.171431
N201	N	0.618911	0.096826	0.141766
N202	N	1.118911	0.596826	0.641766
H203	H	0.584957	0.096326	0.184994
H204	H	1.084957	0.596326	0.684994
H205	H	0.654739	0.054219	0.144744
H206	H	1.154739	0.554219	0.644744
N207	N	0.818092	0.444277	-0.141964
N208	N	1.318092	0.944277	0.358036
H209	H	0.817600	0.410341	-0.185195
H210	H	1.317600	0.910341	0.314805
H211	H	0.775485	0.480106	-0.144932
H212	H	1.275485	0.980106	0.355068
N213	N	0.815935	0.293684	-0.141964
N214	N	1.315935	0.793684	0.358036
H215	H	0.816468	0.327624	-0.185194
H216	H	1.316468	0.827624	0.314806
H217	H	0.858566	0.257878	-0.144887
H218	H	1.358566	0.757878	0.355113
H219	H	0.906177	0.006497	0.328299
H220	H	1.406177	0.506497	0.828299
N221	N	0.384216	0.178105	-0.108769
N222	N	0.884216	0.678105	0.391231
H223	H	0.436430	0.172687	-0.100828
H224	H	0.936430	0.672687	0.399172
H225	H	0.373615	0.162714	-0.161432
H226	H	0.873615	0.662714	0.338568
H227	H	0.747392	0.668031	-0.094960
H228	H	1.247392	1.168031	0.405040
N229	N	0.734572	0.528474	-0.108781
N230	N	1.234572	1.028474	0.391219
H231	H	0.739989	0.476256	-0.100849
H232	H	1.239989	0.976256	0.399151
H233	H	0.684010	0.547939	-0.101777
H234	H	1.184010	1.047939	0.398223
N235	N	0.815814	0.293678	0.141734
N236	N	1.315814	0.793678	0.641734
H237	H	0.815063	0.242288	0.131380
H238	H	1.315063	0.742288	0.631380
H239	H	0.859043	0.300569	0.171533
H240	H	1.359043	0.800569	0.671533
H241	H	0.824424	0.881568	0.123706
H242	H	1.324424	1.381568	0.623706
H243	H	0.906169	0.006498	0.185342
H244	H	1.406169	0.506498	0.685342
N245	N	0.839571	-0.039127	0.417998
N246	N	1.339571	0.460873	0.917998
H247	H	0.845468	-0.079219	0.454915
H248	H	1.345468	0.420781	0.954915
H249	H	0.797385	-0.043070	0.385322
H250	H	1.297385	0.456930	0.885322
N251	N	0.721762	0.190854	0.824847
N252	N	1.221762	0.690854	1.324847
H253	H	0.728954	0.183670	0.880743
H254	H	1.228954	0.683670	1.380743
H255	H	0.729626	0.240109	0.811063
H256	H	1.229626	0.740109	1.311063
N257	N	0.800890	0.223964	0.581770
N258	N	1.300890	0.723964	1.081770
H259	H	0.794982	0.264053	0.544849
H260	H	1.294982	0.764053	1.044849
H261	H	0.757900	0.225521	0.614481
H262	H	1.257900	0.725521	1.114481
N263	N	0.800884	0.223962	0.417977
N264	N	1.300884	0.723962	0.917977
H265	H	0.794998	0.264055	0.454890
H266	H	1.294998	0.764055	0.954890
H267	H	0.843066	0.227902	0.385266
H268	H	1.343066	0.727902	0.885266
H269	H	0.734252	0.178326	0.328349
H270	H	1.234252	0.678326	0.828349
H271	H	0.734231	0.178322	0.185386
H272	H	1.234231	0.678322	0.685386
