data_functionalizedCrystal
_audit_creation_method	'MofGen! by Chris Wilmer'
_symmetry_space_group_name_H-M	'P1'
_symmetry_Int_Tables_number	1
_symmetry_cell_setting	triclinic
loop_
_symmetry_equiv_pos_as_xyz
  x,y,z
_cell_length_a	14.971482
_cell_length_b	17.699092
_cell_length_c	14.048226
_cell_angle_alpha	89.995250
_cell_angle_beta	89.994098
_cell_angle_gamma	83.449488
loop_
_atom_site_label
_atom_site_type_symbol
_atom_site_fract_x
_atom_site_fract_y
_atom_site_fract_z
O1	O	1.186614	0.098619	-0.079145
O2	O	0.926173	0.110434	-0.079149
O3	O	1.063747	-0.005644	-0.079144
O4	O	1.049039	0.214697	-0.079149
O5	O	1.063731	-0.005651	0.079177
O6	O	0.926156	0.110427	0.079173
O7	O	1.186597	0.098613	0.079177
Zn8	Zn	1.056374	0.104519	0.104312
Zn9	Zn	1.056396	0.104528	-0.104284
O10	O	1.049022	0.214691	0.079172
C11	C	0.892842	0.109903	0.000011
C12	C	0.793550	0.108321	0.000010
C13	C	0.746899	0.107572	0.086312
C14	C	0.653605	0.106074	0.086313
C15	C	0.606964	0.105329	0.000011
C16	C	0.653622	0.106076	-0.086298
C17	C	0.746914	0.107569	-0.086298
C18	C	0.459170	0.102966	-0.086292
C19	C	0.365871	0.101474	-0.086292
C20	C	0.365861	0.101471	0.086319
C21	C	0.459154	0.102964	0.086319
C22	C	0.505805	0.103712	0.000010
C23	C	1.063211	-0.033846	0.000015
C24	C	1.061626	-0.117867	0.000010
C25	C	1.060892	-0.157333	-0.086292
C26	C	1.059398	-0.236280	-0.086293
C27	C	1.058643	-0.275760	0.000009
C28	C	1.059374	-0.236289	0.086318
C29	C	1.060862	-0.157343	0.086318
C30	C	1.053370	-0.554668	0.086319
C31	C	1.051884	-0.633620	0.086312
C32	C	1.051905	-0.633605	-0.086292
C33	C	1.053394	-0.554659	-0.086292
C34	C	1.054120	-0.515194	0.000017
C35	C	1.055739	-0.429591	0.000017
C36	C	1.057030	-0.361362	0.000010
C37	C	1.219928	0.099144	0.000015
C38	C	1.319220	0.100726	0.000010
C39	C	1.049559	0.242892	0.000011
C40	C	1.051144	0.326914	0.000009
N41	N	1.056366	0.104512	0.246672
N42	N	1.056411	0.104528	-0.246644
C43	C	1.117303	0.053134	0.296492
C44	C	1.117309	0.053134	0.396150
C45	C	1.056381	0.104515	0.445986
C46	C	0.995438	0.155896	0.396159
C47	C	0.995428	0.155892	0.296503
C48	C	0.995464	0.155901	0.603873
C49	C	0.995474	0.155906	0.703536
C50	C	1.117344	0.053143	0.703520
C51	C	1.117335	0.053139	0.603864
C52	C	1.056392	0.104521	0.554044
H53	H	0.497126	0.103574	0.156594
Br54	Br	1.050920	-0.687169	-0.203427
H55	H	1.058753	-0.268439	0.156586
Br56	Br	0.912783	0.225642	0.771163
H57	H	1.061447	-0.125209	0.156594
H58	H	0.327873	0.100862	0.156595
H59	H	1.061512	-0.125194	-0.156569
H60	H	1.166921	0.011296	0.255922
Br61	Br	1.058401	-0.289837	-0.203422
H62	H	1.051267	-0.665762	0.156594
Br63	Br	1.200007	-0.016597	0.463766
H64	H	0.497151	0.103575	-0.156574
Br65	Br	1.054426	-0.501083	-0.203420
H66	H	0.784896	0.108180	-0.156574
H67	H	0.784866	0.108184	0.156589
Br68	Br	0.590329	0.105033	-0.203424
Br69	Br	0.302572	0.100465	-0.203417
H70	H	1.053979	-0.522547	0.156596
Br71	Br	1.200029	-0.016586	0.536226
H72	H	1.166965	0.011306	0.744089
H73	H	0.945834	0.197739	0.563313
Br74	Br	0.912742	0.225625	0.463789
H75	H	0.945806	0.197728	0.255940
H76	H	0.615628	0.105451	0.156588
