data_functionalizedCrystal
_audit_creation_method	'MofGen! by Chris Wilmer'
_symmetry_space_group_name_H-M	'P1'
_symmetry_Int_Tables_number	1
_symmetry_cell_setting	triclinic
loop_
_symmetry_equiv_pos_as_xyz
  x,y,z
_cell_length_a	12.759401
_cell_length_b	19.077068
_cell_length_c	19.077174
_cell_angle_alpha	94.657148
_cell_angle_beta	87.686247
_cell_angle_gamma	92.328499
loop_
_atom_site_label
_atom_site_type_symbol
_atom_site_fract_x
_atom_site_fract_y
_atom_site_fract_z
Zn1	Zn	1.612885	-0.296648	-0.409819
Zn2	Zn	1.599186	-0.409803	-0.296663
Zn3	Zn	1.430419	-0.291937	-0.291952
Zn4	Zn	1.430349	-0.414501	-0.414511
O5	O	1.518210	-0.353222	-0.353236
O6	O	1.758089	-0.311663	-0.394817
O7	O	1.571095	-0.390230	-0.197390
O8	O	1.460386	-0.193913	-0.303652
O9	O	1.748024	-0.394798	-0.311681
O10	O	1.594443	-0.197374	-0.390249
O11	O	1.447103	-0.303634	-0.193929
O12	O	1.283389	-0.308190	-0.308202
O13	O	1.460267	-0.402806	-0.512537
O14	O	1.283338	-0.398238	-0.398246
O15	O	1.594375	-0.316219	-0.509090
O16	O	1.571027	-0.509075	-0.316231
O17	O	1.446984	-0.512527	-0.402814
C18	C	1.245242	-0.353213	-0.353222
C19	C	1.128465	-0.353227	-0.353233
C20	C	1.073596	-0.400180	-0.400051
C21	C	0.963873	-0.400184	-0.400065
C22	C	0.963897	-0.306278	-0.306438
C23	C	1.073619	-0.306272	-0.306428
C24	C	1.507541	-0.536381	-0.360558
C25	C	1.503074	-0.614738	-0.363714
C26	C	1.565612	-0.649731	-0.320155
C27	C	1.561418	-0.723356	-0.323128
C28	C	1.494678	-0.761986	-0.369656
C29	C	1.432137	-0.726988	-0.413220
C30	C	1.436338	-0.653364	-0.410250
C31	C	1.475187	-0.982372	-0.383370
C32	C	1.470989	-1.056000	-0.386335
C33	C	1.600271	-1.052363	-0.296243
C34	C	1.604462	-0.978738	-0.293275
C35	C	1.541925	-0.943747	-0.336841
N36	N	1.490386	-0.837242	-0.372694
N37	N	1.546223	-0.868492	-0.333806
C38	C	1.792243	-0.353232	-0.353251
C39	C	1.909020	-0.353236	-0.353258
C40	C	1.528841	-0.360562	-0.537107
C41	C	1.533372	-0.363690	-0.615461
C42	C	1.528950	-0.169349	-0.345901
C43	C	1.533527	-0.090993	-0.342776
C44	C	1.470947	-0.320075	-0.650470
C45	C	1.475199	-0.323019	-0.724093
C46	C	1.541883	-0.369576	-0.762705
C47	C	1.604310	-0.413197	-0.727692
C48	C	1.600051	-0.410255	-0.654070
C49	C	1.561537	-0.383212	-0.983083
C50	C	1.565793	-0.386149	-1.056709
C51	C	1.436680	-0.295972	-1.053105
C52	C	1.432432	-0.293032	-0.979482
C53	C	1.494855	-0.336655	-0.944475
N54	N	1.546234	-0.372586	-0.837959
N55	N	1.490498	-0.333648	-0.869222
C56	C	1.507683	-0.345860	-0.170079
C57	C	1.503368	-0.342534	-0.091717
H58	H	1.118295	-0.268032	-0.268303
H59	H	1.620099	-0.424062	-1.088145
H60	H	1.424265	-0.953888	-0.418842
H61	H	1.658599	-0.451108	-0.759136
H62	H	0.919228	-0.268049	-0.268329
H63	H	1.658806	-0.947287	-0.255388
H64	H	1.619954	-0.618282	-0.282264
Br65	Br	1.646302	-0.770844	-0.264013
Br66	Br	1.148028	-0.463903	-0.463574
H67	H	1.651187	-1.080861	-0.260775
H68	H	1.416655	-1.087452	-0.424236
Br69	Br	1.341570	-0.779414	-0.476372
Br70	Br	1.351468	-0.605873	-0.469373
Br71	Br	1.380452	-0.256881	-0.598074
H72	H	1.385858	-0.260458	-1.081615
Br73	Br	1.390417	-0.263863	-0.771603
H74	H	1.378128	-0.255122	-0.948048
Br75	Br	1.646261	-0.442411	-0.935582
H76	H	1.650892	-0.445766	-0.625567
Br77	Br	0.889411	-0.463906	-0.463609
