data_functionalizedCrystal
_audit_creation_method	'MofGen! by Chris Wilmer'
_symmetry_space_group_name_H-M	'P1'
_symmetry_Int_Tables_number	1
_symmetry_cell_setting	triclinic
loop_
_symmetry_equiv_pos_as_xyz
  x,y,z
_cell_length_a	10.540539
_cell_length_b	11.026607
_cell_length_c	10.065875
_cell_angle_alpha	100.731764
_cell_angle_beta	81.165690
_cell_angle_gamma	96.555754
loop_
_atom_site_label
_atom_site_type_symbol
_atom_site_fract_x
_atom_site_fract_y
_atom_site_fract_z
O1	O	-1.737937	-0.153654	0.113423
O2	O	-1.237937	0.346346	0.613423
O3	O	-1.372062	-0.169796	0.113440
O4	O	-0.872062	0.330204	0.613440
O5	O	-1.524676	0.015190	0.113428
O6	O	-1.024676	0.515190	0.613428
O7	O	-1.585324	-0.338641	0.113435
O8	O	-1.085324	0.161359	0.613435
O9	O	-1.495607	-0.020227	-0.113559
O10	O	-0.995607	0.479773	0.386441
O11	O	-1.342994	-0.205214	-0.113547
O12	O	-0.842994	0.294786	0.386453
O13	O	-1.708868	-0.189071	-0.113563
O14	O	-1.208868	0.310929	0.386437
Zn15	Zn	-1.521316	-0.202766	-0.149594
Zn16	Zn	-1.021316	0.297234	0.350406
Zn17	Zn	-1.559615	-0.156102	0.149470
Zn18	Zn	-1.059615	0.343898	0.649470
O19	O	-1.556255	-0.374058	-0.113551
O20	O	-1.056255	0.125942	0.386449
C21	C	-1.309960	-0.186294	-0.000051
C22	C	-0.809960	0.313706	0.499949
C23	C	-1.168219	-0.182671	-0.000045
C24	C	-0.668219	0.317329	0.499955
C25	C	-1.498953	0.042790	-0.000063
C26	C	-0.998953	0.542790	0.499937
C27	C	-1.465601	0.177794	-0.000057
C28	C	-0.965601	0.677794	0.499943
C29	C	-1.770971	-0.172573	-0.000069
C30	C	-1.270971	0.327427	0.499931
C31	C	-1.912713	-0.176195	-0.000066
C32	C	-1.412713	0.323805	0.499934
C33	C	-0.954321	-0.043949	-0.000578
C34	C	-0.454321	0.456051	0.499422
C35	C	-1.101810	-0.047539	-0.000052
C36	C	-0.601810	0.452461	0.499948
C37	C	-1.137390	-0.227478	0.129571
C38	C	-0.637390	0.272522	0.629571
C39	C	-0.989848	-0.222851	0.129666
C40	C	-0.489848	0.277149	0.629666
C41	C	-0.956905	-0.265876	-0.128460
C42	C	-0.456905	0.234124	0.371540
C43	C	-1.103942	-0.267386	-0.130159
C44	C	-0.603942	0.232614	0.369841
C45	C	-1.581978	-0.401657	-0.000057
C46	C	-1.081978	0.098343	0.499943
C47	C	-1.615331	-0.536659	-0.000055
C48	C	-1.115331	-0.036659	0.499945
N49	N	-1.495187	-0.234612	-0.353698
N50	N	-0.995187	0.265388	0.146302
C51	C	-1.557694	0.250801	-0.000059
C52	C	-1.057694	0.750801	0.499941
C53	C	-1.523225	0.390335	-0.000053
C54	C	-1.023225	0.890335	0.499947
C55	C	-1.550514	-0.167174	-0.421481
C56	C	-1.050514	0.332826	0.078519
C57	C	-1.530416	-0.191694	-0.578646
C58	C	-1.030416	0.308306	-0.078646
N59	N	-1.585752	-0.124246	0.353574
N60	N	-1.085752	0.375754	0.853574
H61	H	-1.121317	-0.010867	-0.092967
H62	H	-0.621317	0.489133	0.407033
Cl63	Cl	-1.304471	0.240771	-0.000036
Cl64	Cl	-0.804471	0.740771	0.499964
H65	H	-1.662054	0.210003	-0.000072
H66	H	-1.162054	0.710003	0.499928
Cl67	Cl	-0.949810	-0.371475	0.138755
Cl68	Cl	-0.449810	0.128525	0.638755
H69	H	-1.418858	0.431127	-0.000039
H70	H	-0.918858	0.931127	0.499961
H71	H	-1.468160	-0.267582	-0.636962
H72	H	-0.968160	0.232418	-0.136962
Cl73	Cl	-1.682194	-0.007333	-0.556401
Cl74	Cl	-1.182194	0.492667	-0.056401
Cl75	Cl	-1.776471	0.400375	-0.000056
Cl76	Cl	-1.276471	0.900375	0.499944
H77	H	-0.963517	-0.159669	0.226554
H78	H	-0.463517	0.340331	0.726554
H79	H	-1.612756	-0.091282	-0.363161
H80	H	-1.112756	0.408718	0.136839
H81	H	-1.432934	-0.310495	-0.412019
H82	H	-0.932934	0.189505	0.087981
H83	H	-0.902138	-0.005068	-0.093534
H84	H	-0.402138	0.494932	0.406466
H85	H	-0.924307	0.023633	0.091858
H86	H	-0.424307	0.523633	0.591858
H87	H	-1.144188	0.018514	0.093022
H88	H	-0.644188	0.518514	0.593022
H89	H	-1.182437	-0.167251	0.226033
H90	H	-0.682437	0.332749	0.726033
Cl91	Cl	-1.206454	-0.379514	0.137056
Cl92	Cl	-0.706454	0.120486	0.637056
H93	H	-1.122218	-0.234840	-0.226049
H94	H	-0.622218	0.265160	0.273951
Cl95	Cl	-0.873994	-0.222020	-0.280150
Cl96	Cl	-0.373994	0.277980	0.219850
H97	H	-1.148746	-0.367127	-0.137983
H98	H	-0.648746	0.132873	0.362017
Cl99	Cl	-0.916827	-0.416781	-0.129811
Cl100	Cl	-0.416827	0.083219	0.370189
