data_functionalizedCrystal
_audit_creation_method	'MofGen! by Chris Wilmer'
_symmetry_space_group_name_H-M	'P1'
_symmetry_Int_Tables_number	1
_symmetry_cell_setting	triclinic
loop_
_symmetry_equiv_pos_as_xyz
  x,y,z
_cell_length_a	19.188925
_cell_length_b	17.666332
_cell_length_c	10.540539
_cell_angle_alpha	90.003026
_cell_angle_beta	83.834020
_cell_angle_gamma	90.010202
loop_
_atom_site_label
_atom_site_type_symbol
_atom_site_fract_x
_atom_site_fract_y
_atom_site_fract_z
O1	O	0.927208	0.062961	0.158436
O2	O	1.427208	0.562961	0.658436
O3	O	0.724039	0.062959	0.179776
O4	O	1.224039	0.562959	0.679776
O5	O	0.830259	0.062959	-0.015702
O6	O	1.330259	0.562959	0.484298
O7	O	0.820988	0.062961	0.353915
O8	O	1.320988	0.562961	0.853915
O9	O	0.830240	-0.062938	-0.015708
O10	O	1.330240	0.437062	0.484292
O11	O	0.724020	-0.062938	0.179771
O12	O	1.224020	0.437062	0.679771
O13	O	0.927189	-0.062936	0.158431
O14	O	1.427189	0.437064	0.658431
Cu15	Cu	0.825603	-0.074432	0.169100
Cu16	Cu	1.325603	0.425568	0.669100
Cu17	Cu	0.825625	0.074455	0.169107
Cu18	Cu	1.325625	0.574455	0.669107
O19	O	0.820969	-0.062936	0.353910
O20	O	1.320969	0.437064	0.853910
C21	C	0.698013	0.000010	0.179084
C22	C	1.198013	0.500010	0.679084
C23	C	0.620495	0.000009	0.177013
C24	C	1.120495	0.500009	0.677013
N25	N	0.825592	-0.179152	0.169095
N26	N	1.325592	0.320848	0.669095
C27	C	0.059397	0.000011	0.277845
C28	C	0.559397	0.500011	0.777845
C29	C	0.132233	0.000016	0.279802
C30	C	0.632233	0.500016	0.779802
C31	C	0.176403	0.000014	0.165102
C32	C	0.676403	0.500014	0.665102
C33	C	0.147731	0.000027	0.048435
C34	C	0.647731	0.500027	0.548435
C35	C	0.074896	0.000031	0.046482
C36	C	0.574896	0.500031	0.546482
N37	N	0.296520	-0.042843	0.082061
N38	N	0.796520	0.457157	0.582061
N39	N	0.365710	-0.042848	0.083925
N40	N	0.865710	0.457152	0.583925
C41	C	0.395851	0.000005	0.170981
C42	C	0.895851	0.500005	0.670981
N43	N	0.354188	0.042853	0.256123
N44	N	0.854188	0.542853	0.756123
N45	N	0.284992	0.042854	0.254262
N46	N	0.784992	0.542854	0.754262
C47	C	0.255381	0.000010	0.167207
C48	C	0.755381	0.500010	0.667207
C49	C	0.503492	0.000001	0.289762
C50	C	1.003492	0.500001	0.789762
C51	C	0.576330	0.000010	0.291714
C52	C	1.076330	0.500010	0.791714
C53	C	0.591827	0.000014	0.060344
C54	C	1.091827	0.500014	0.560344
C55	C	0.518990	0.000013	0.058395
C56	C	1.018990	0.500013	0.558395
C57	C	0.474827	0.000003	0.173108
C58	C	0.974827	0.500003	0.673108
C59	C	0.868313	-0.218754	0.245895
C60	C	1.368313	0.281246	0.745895
C61	C	0.868324	-0.298002	0.245891
C62	C	1.368324	0.201998	0.745891
C63	C	0.825601	-0.337644	0.169102
C64	C	1.325601	0.162356	0.669102
C65	C	0.782878	-0.298032	0.092286
C66	C	1.282878	0.201968	0.592286
C67	C	0.782873	-0.218786	0.092283
C68	C	1.282873	0.281214	0.592283
N69	N	0.764432	-0.462084	0.165977
N70	N	1.264432	0.037916	0.665977
N71	N	0.764438	-0.537364	0.165988
N72	N	1.264438	-0.037364	0.665988
C73	C	0.825614	-0.576408	0.169106
C74	C	1.325614	-0.076408	0.669106
N75	N	0.886784	-0.537327	0.172239
N76	N	1.386784	-0.037327	0.672239
N77	N	0.886777	-0.462039	0.172235
N78	N	1.386777	0.037961	0.672235
C79	C	0.825602	-0.423573	0.169097
C80	C	1.325602	0.076427	0.669097
C81	C	0.868351	-0.701940	0.245907
C82	C	1.368351	-0.201940	0.745907
C83	C	0.868364	-0.781189	0.245894
C84	C	1.368364	-0.281189	0.745894
C85	C	0.782911	-0.781217	0.092296
C86	C	1.282911	-0.281217	0.592296
C87	C	0.782904	-0.701970	0.092302
C88	C	1.282904	-0.201970	0.592302
C89	C	0.825624	-0.662336	0.169114
C90	C	1.325624	-0.162336	0.669114
C91	C	0.953214	0.000015	0.159123
C92	C	1.453214	0.500015	0.659123
C93	C	1.030733	0.000021	0.161194
C94	C	1.530733	0.500021	0.661194
C95	C	0.829554	0.000012	-0.062993
C96	C	1.329554	0.500012	0.437007
C97	C	0.827474	0.000016	-0.203895
C98	C	1.327474	0.500016	0.296105
N99	N	0.825641	0.179175	0.169102
N100	N	1.325641	0.679175	0.669102
C101	C	0.747773	0.000298	-0.385563
C102	C	1.247773	0.500298	0.114437
C103	C	0.749881	0.000014	-0.238991
C104	C	1.249881	0.500014	0.261009
C105	C	0.864804	-0.071877	-0.266380
C106	C	1.364804	0.428123	0.233620
C107	C	0.862156	-0.071937	-0.412866
C108	C	1.362156	0.428063	0.087134
C109	C	0.863756	0.071231	-0.413413
C110	C	1.363756	0.571231	0.086587
C111	C	0.864471	0.072181	-0.266447
C112	C	1.364471	0.572181	0.233553
C113	C	0.821674	0.000013	0.401200
C114	C	1.321674	0.500013	0.901200
C115	C	0.823754	0.000014	0.542102
C116	C	1.323754	0.500014	1.042102
H117	H	0.023443	0.000007	0.371254
H118	H	0.523443	0.500007	0.871254
N119	N	0.830281	0.138922	-0.214345
N120	N	1.330281	0.638922	0.285655
N121	N	0.803377	0.184353	-0.285841
N122	N	1.303377	0.684353	0.214159
H123	H	0.779237	0.231492	-0.249033
H124	H	1.279237	0.731492	0.250967
N125	N	0.458364	-0.000004	0.406917
N126	N	0.958364	0.499996	0.906917
N127	N	0.415981	-0.053071	0.431633
N128	N	0.915981	0.446929	0.931633
H129	H	0.384109	-0.053074	0.514373
H130	H	0.884109	0.446926	1.014373
H131	H	0.495652	0.000015	-0.036595
H132	H	0.995652	0.500015	0.463405
H133	H	0.599666	0.000009	0.386709
H134	H	1.099666	0.500009	0.886709
H135	H	0.627789	0.000018	-0.033047
H136	H	1.127789	0.500018	0.466953
N137	N	0.832262	0.139584	-0.452316
N138	N	1.332262	0.639584	0.047684
N139	N	0.779947	0.136637	-0.513309
N140	N	1.279947	0.636637	-0.013309
H141	H	0.757698	0.184907	-0.540788
H142	H	1.257698	0.684907	-0.040788
H143	H	0.921042	0.076523	-0.243474
H144	H	1.421042	0.576523	0.256526
N145	N	0.911942	-0.178282	0.324381
N146	N	1.411942	0.321718	0.824381
N147	N	0.950076	-0.213658	0.392961
N148	N	1.450076	0.286342	0.892961
H149	H	0.980886	-0.185074	0.448400
H150	H	1.480886	0.314926	0.948400
H151	H	0.903113	-0.330252	0.308434
H152	H	1.403113	0.169748	0.808434
H153	H	0.748113	-0.669725	0.029768
H154	H	1.248113	-0.169725	0.529768
H155	H	0.917959	-0.075198	-0.462066
H156	H	1.417959	0.424802	0.037934
H157	H	0.720507	0.051550	-0.195737
H158	H	1.220507	0.551550	0.304263
N159	N	0.161511	0.000006	0.398975
N160	N	0.661511	0.500006	0.898975
N161	N	0.122072	-0.000002	0.501384
N162	N	0.622072	0.499998	1.001384
H163	H	0.142747	-0.000010	0.585551
H164	H	0.642747	0.499990	1.085551
H165	H	0.717238	-0.050970	-0.415099
H166	H	1.217238	0.449030	0.084901
N167	N	0.709335	0.064972	-0.420613
N168	N	1.209335	0.564972	0.079387
N169	N	0.698764	0.074764	-0.534422
N170	N	1.198764	0.574764	-0.034422
H171	H	0.671619	0.120443	-0.559187
H172	H	1.171619	0.620443	-0.059187
H173	H	0.183699	0.000028	-0.044954
H174	H	0.683699	0.500028	0.455046
H175	H	0.748093	-0.330313	0.029763
H176	H	1.248093	0.169687	0.529763
N177	N	0.912010	-0.661452	0.324322
N178	N	1.412010	-0.161452	0.824322
N179	N	0.976997	-0.670286	0.308796
N180	N	1.476997	-0.170286	0.808796
H181	H	1.007836	-0.641691	0.364167
H182	H	1.507836	-0.141691	0.864167
N183	N	0.936284	-0.075258	-0.239906
N184	N	1.436284	0.424742	0.260094
N185	N	0.974463	-0.128881	-0.282137
N186	N	1.474463	0.371119	0.217863
H187	H	1.024945	-0.131271	-0.263434
H188	H	1.524945	0.368729	0.236566
H189	H	0.720285	-0.051608	-0.196585
H190	H	1.220285	0.448392	0.303415
N191	N	0.832249	-0.138989	-0.212220
N192	N	1.332249	0.361011	0.287780
N193	N	0.781564	-0.134058	-0.127620
N194	N	1.281564	0.365942	0.372380
H195	H	0.758567	-0.181454	-0.089370
H196	H	1.258567	0.318546	0.410630
H197	H	0.834551	-0.125679	-0.440459
H198	H	1.334551	0.374321	0.059541
N199	N	0.739233	-0.178340	0.013814
N200	N	1.239233	0.321660	0.513814
N201	N	0.701095	-0.213739	-0.054757
N202	N	1.201095	0.286261	0.445243
H203	H	0.670274	-0.185174	-0.110178
H204	H	1.170274	0.314826	0.389822
H205	H	0.903157	-0.813432	0.308430
H206	H	1.403157	-0.313432	0.808430
H207	H	0.748126	-0.813493	0.029772
H208	H	1.248126	-0.313493	0.529772
N209	N	0.934068	0.071857	-0.474183
N210	N	1.434068	0.571857	0.025817
N211	N	0.984467	0.070058	-0.408324
N212	N	1.484467	0.570058	0.091676
H213	H	1.034125	0.070497	-0.451243
H214	H	1.534125	0.570497	0.048757
H215	H	0.051559	0.000038	-0.048512
H216	H	0.551559	0.500038	0.451488
