data_functionalizedCrystal
_audit_creation_method	'MofGen! by Chris Wilmer'
_symmetry_space_group_name_H-M	'P1'
_symmetry_Int_Tables_number	1
_symmetry_cell_setting	triclinic
loop_
_symmetry_equiv_pos_as_xyz
  x,y,z
_cell_length_a	18.101398
_cell_length_b	19.120785
_cell_length_c	18.101389
_cell_angle_alpha	92.462206
_cell_angle_beta	90.024802
_cell_angle_gamma	92.461139
loop_
_atom_site_label
_atom_site_type_symbol
_atom_site_fract_x
_atom_site_fract_y
_atom_site_fract_z
Zn1	Zn	1.119575	-0.279744	0.406243
Zn2	Zn	1.369575	-0.029744	0.656243
Zn3	Zn	1.619575	0.220256	0.906243
Zn4	Zn	1.869575	0.470256	1.156243
Zn5	Zn	1.114204	-0.397185	0.277109
Zn6	Zn	1.364204	-0.147185	0.527109
Zn7	Zn	1.614204	0.102815	0.777109
Zn8	Zn	1.864204	0.352815	1.027109
Zn9	Zn	0.995734	-0.279742	0.282403
Zn10	Zn	1.245734	-0.029742	0.532403
Zn11	Zn	1.495734	0.220258	0.782403
Zn12	Zn	1.745734	0.470258	1.032403
Zn13	Zn	0.990418	-0.397160	0.400898
Zn14	Zn	1.240418	-0.147160	0.650898
Zn15	Zn	1.490418	0.102840	0.900898
Zn16	Zn	1.740418	0.352840	1.150898
O17	O	1.054983	-0.338458	0.341663
O18	O	1.304983	-0.088458	0.591663
O19	O	1.554983	0.161542	0.841663
O20	O	1.804983	0.411542	1.091663
O21	O	1.222495	-0.295334	0.389134
O22	O	1.472495	-0.045334	0.639134
O23	O	1.722495	0.204666	0.889134
O24	O	1.972495	0.454666	1.139134
O25	O	1.098465	-0.381615	0.174178
O26	O	1.348465	-0.131615	0.424178
O27	O	1.598465	0.118385	0.674178
O28	O	1.848465	0.368385	0.924178
O29	O	1.016634	-0.181453	0.303283
O30	O	1.266634	0.068547	0.553283
O31	O	1.516634	0.318547	0.803283
O32	O	1.766634	0.568547	1.053283
O33	O	1.218548	-0.381618	0.294261
O34	O	1.468548	-0.131618	0.544261
O35	O	1.718548	0.118382	0.794261
O36	O	1.968548	0.368382	1.044261
O37	O	1.107619	-0.181454	0.394267
O38	O	1.357619	0.068546	0.644267
O39	O	1.607619	0.318546	0.894267
O40	O	1.857619	0.568546	1.144267
O41	O	1.011426	-0.295330	0.178067
O42	O	1.261426	-0.045330	0.428067
O43	O	1.511426	0.204670	0.678067
O44	O	1.761426	0.454670	0.928067
O45	O	0.891396	-0.295306	0.298100
O46	O	1.141396	-0.045306	0.548100
O47	O	1.391396	0.204694	0.798100
O48	O	1.641396	0.454694	1.048100
O49	O	1.007575	-0.381575	0.505240
O50	O	1.257575	-0.131575	0.755240
O51	O	1.507575	0.118425	1.005240
O52	O	1.757575	0.368425	1.255240
O53	O	0.887491	-0.381573	0.385158
O54	O	1.137491	-0.131573	0.635158
O55	O	1.387491	0.118427	0.885158
O56	O	1.637491	0.368427	1.135158
O57	O	1.102465	-0.295310	0.509167
O58	O	1.352465	-0.045310	0.759167
O59	O	1.602465	0.204690	1.009167
O60	O	1.852465	0.454690	1.259167
O61	O	1.093311	-0.495471	0.289078
O62	O	1.343311	-0.245471	0.539078
O63	O	1.593311	0.004529	0.789078
O64	O	1.843311	0.254529	1.039078
O65	O	1.002366	-0.495453	0.380025
O66	O	1.252366	-0.245453	0.630025
O67	O	1.502366	0.004547	0.880025
O68	O	1.752366	0.254547	1.130025
C69	C	0.862573	-0.338437	0.341624
C70	C	1.112573	-0.088437	0.591624
C71	C	1.362573	0.161563	0.841624
C72	C	1.612573	0.411563	1.091624
C73	C	0.780259	-0.338445	0.341624
C74	C	1.030259	-0.088445	0.591624
C75	C	1.280259	0.161555	0.841624
C76	C	1.530259	0.411555	1.091624
C77	C	0.629550	-0.338460	0.341657
C78	C	0.879550	-0.088460	0.591657
C79	C	1.129550	0.161540	0.841657
C80	C	1.379550	0.411540	1.091657
C81	C	0.600631	-0.284105	0.286981
C82	C	0.850631	-0.034105	0.536981
C83	C	1.100631	0.215895	0.786981
C84	C	1.350631	0.465895	1.036981
C85	C	0.515023	-0.283901	0.287178
C86	C	0.765023	-0.033901	0.537178
C87	C	1.015023	0.216099	0.787178
C88	C	1.265023	0.466099	1.037178
C89	C	0.481166	-0.338474	0.341687
C90	C	0.731166	-0.088474	0.591687
C91	C	0.981166	0.161526	0.841687
C92	C	1.231166	0.411526	1.091687
C93	C	0.513192	-0.318728	0.420713
C94	C	0.763192	-0.068728	0.670713
C95	C	1.013192	0.181272	0.920713
C96	C	1.263192	0.431272	1.170713
C97	C	0.598855	-0.318325	0.420382
C98	C	0.848855	-0.068325	0.670382
C99	C	1.098855	0.181675	0.920382
C100	C	1.348855	0.431675	1.170382
C101	C	0.594616	-0.412700	0.317990
C102	C	0.844616	-0.162700	0.567990
C103	C	1.094616	0.087300	0.817990
C104	C	1.344616	0.337300	1.067990
C105	C	0.508982	-0.412309	0.316305
C106	C	0.758982	-0.162309	0.566305
C107	C	1.008982	0.087691	0.816305
C108	C	1.258982	0.337691	1.066305
C109	C	0.397306	-0.338483	0.341710
C110	C	0.647306	-0.088483	0.591710
C111	C	0.897306	0.161517	0.841710
C112	C	1.147306	0.411517	1.091710
C113	C	0.713409	-0.338449	0.341640
C114	C	0.963409	-0.088449	0.591640
C115	C	1.213409	0.161551	0.841640
C116	C	1.463409	0.411551	1.091640
C117	C	1.046699	-0.520947	0.333413
C118	C	1.296699	-0.270947	0.583413
C119	C	1.546699	-0.020947	0.833413
C120	C	1.796699	0.229053	1.083413
C121	C	1.043223	-0.599017	0.329909
C122	C	1.293223	-0.349017	0.579909
C123	C	1.543223	-0.099017	0.829909
C124	C	1.793223	0.150983	1.079909
C125	C	1.021170	-1.040568	0.307733
C126	C	1.271170	-0.790568	0.557733
C127	C	1.521170	-0.540568	0.807733
C128	C	1.771170	-0.290568	1.057733
C129	C	1.024438	-0.967213	0.311026
C130	C	1.274438	-0.717213	0.561026
C131	C	1.524438	-0.467213	0.811026
C132	C	1.774438	-0.217213	1.061026
C133	C	1.073411	-0.930477	0.360081
C134	C	1.323411	-0.680477	0.610081
C135	C	1.573411	-0.430477	0.860081
C136	C	1.823411	-0.180477	1.110081
C137	C	1.119113	-0.967100	0.405851
C138	C	1.369113	-0.717100	0.655851
C139	C	1.619113	-0.467100	0.905851
C140	C	1.869113	-0.217100	1.155851
C141	C	1.115842	-1.040453	0.402561
C142	C	1.365842	-0.790453	0.652561
C143	C	1.615842	-0.540453	0.902561
C144	C	1.865842	-0.290453	1.152561
C145	C	1.085654	-0.708994	0.372389
C146	C	1.335654	-0.458994	0.622389
C147	C	1.585654	-0.208994	0.872389
C148	C	1.835654	0.041006	1.122389
C149	C	1.088924	-0.635635	0.375673
C150	C	1.338924	-0.385635	0.625673
C151	C	1.588924	-0.135635	0.875673
C152	C	1.838924	0.114365	1.125673
C153	C	0.994247	-0.635753	0.280850
C154	C	1.244247	-0.385753	0.530850
C155	C	1.494247	-0.135753	0.780850
C156	C	1.744247	0.114247	1.030850
C157	C	0.990983	-0.709108	0.277561
C158	C	1.240983	-0.459108	0.527561
C159	C	1.490983	-0.209108	0.777561
C160	C	1.740983	0.040892	1.027561
C161	C	1.036683	-0.745724	0.323334
C162	C	1.286683	-0.495724	0.573334
C163	C	1.536683	-0.245724	0.823334
C164	C	1.786683	0.004276	1.073334
C165	C	1.076753	-0.855497	0.363446
C166	C	1.326753	-0.605497	0.613446
C167	C	1.576753	-0.355497	0.863446
C168	C	1.826753	-0.105497	1.113446
C169	C	1.033336	-0.820704	0.319971
C170	C	1.283336	-0.570704	0.569971
C171	C	1.533336	-0.320704	0.819971
C172	C	1.783336	-0.070704	1.069971
C173	C	1.248144	-0.338479	0.341703
C174	C	1.498144	-0.088479	0.591703
C175	C	1.748144	0.161521	0.841703
C176	C	1.998144	0.411521	1.091703
C177	C	1.330457	-0.338488	0.341720
C178	C	1.580457	-0.088488	0.591720
C179	C	1.830457	0.161512	0.841720
C180	C	2.080457	0.411512	1.091720
C181	C	1.055026	-0.338440	0.534826
C182	C	1.305026	-0.088440	0.784826
C183	C	1.555026	0.161560	1.034826
C184	C	1.805026	0.411560	1.284826
C185	C	1.055045	-0.338432	0.617141
C186	C	1.305045	-0.088432	0.867141
C187	C	1.555045	0.161568	1.117141
C188	C	1.805045	0.411568	1.367141
C189	C	1.063319	-0.155255	0.349962
C190	C	1.313319	0.094745	0.599962
C191	C	1.563319	0.344745	0.849962
C192	C	1.813319	0.594745	1.099962
C193	C	1.066871	-0.077186	0.353498
C194	C	1.316871	0.172814	0.603498
C195	C	1.566871	0.422814	0.853498
C196	C	1.816871	0.672814	1.103498
C197	C	1.054984	-0.338425	0.149254
C198	C	1.304984	-0.088425	0.399254
C199	C	1.554984	0.161575	0.649254
C200	C	1.804984	0.411575	0.899254
C201	C	1.055118	-0.338234	0.066949
C202	C	1.305118	-0.088234	0.316949
C203	C	1.555118	0.161766	0.566949
C204	C	1.805118	0.411766	0.816949
C205	C	1.055094	-0.338301	0.916238
C206	C	1.305094	-0.088301	1.166238
C207	C	1.555094	0.161699	1.416238
C208	C	1.805094	0.411699	1.666238
C209	C	0.995202	-0.392404	0.882450
C210	C	1.245202	-0.142404	1.132450
C211	C	1.495202	0.107596	1.382450
C212	C	1.745202	0.357596	1.632450
C213	C	0.995346	-0.392655	0.796820
C214	C	1.245346	-0.142655	1.046820
C215	C	1.495346	0.107345	1.296820
C216	C	1.745346	0.357345	1.546820
C217	C	1.055069	-0.338366	0.767852
C218	C	1.305069	-0.088366	1.017852
C219	C	1.555069	0.161634	1.267852
C220	C	1.805069	0.411634	1.517852
C221	C	1.132193	-0.358461	0.798053
C222	C	1.382193	-0.108461	1.048053
C223	C	1.632193	0.141539	1.298053
C224	C	1.882193	0.391539	1.548053
C225	C	1.131857	-0.358816	0.883682
C226	C	1.381857	-0.108816	1.133682
C227	C	1.631857	0.141184	1.383682
C228	C	1.881857	0.391184	1.633682
C229	C	1.038546	-0.263983	0.888011
C230	C	1.288546	-0.013983	1.138011
C231	C	1.538546	0.236017	1.388011
C232	C	1.788546	0.486017	1.638011
C233	C	1.036790	-0.264412	0.802340
C234	C	1.286790	-0.014412	1.052340
C235	C	1.536790	0.235588	1.302340
C236	C	1.786790	0.485588	1.552340
C237	C	1.055060	-0.338402	0.683991
C238	C	1.305060	-0.088402	0.933991
C239	C	1.555060	0.161598	1.183991
C240	C	1.805060	0.411598	1.433991
C241	C	1.055108	-0.338267	1.000099
C242	C	1.305108	-0.088267	1.250099
C243	C	1.555108	0.161733	1.500099
C244	C	1.805108	0.411733	1.750099
H245	H	0.491130	-0.357112	0.462724
H246	H	0.741130	-0.107112	0.712724
H247	H	0.991130	0.142888	0.962724
H248	H	1.241130	0.392888	1.212724
H249	H	0.957039	-0.605933	0.243585
H250	H	1.207039	-0.355933	0.493585
H251	H	1.457039	-0.105933	0.743585
H252	H	1.707039	0.144067	0.993585
N253	N	0.961636	-0.244328	0.776311
N254	N	1.211636	0.005672	1.026311
N255	N	1.461636	0.255672	1.276311
N256	N	1.711636	0.505672	1.526311
H257	H	0.922866	-0.280145	0.792199
H258	H	1.172866	-0.030145	1.042199
H259	H	1.422866	0.219855	1.292199
H260	H	1.672866	0.469855	1.542199
H261	H	0.961571	-0.242656	0.720621
H262	H	1.211571	0.007344	0.970621
H263	H	1.461571	0.257344	1.220621
H264	H	1.711571	0.507344	1.470621
N265	N	1.096371	-0.210584	0.917285
N266	N	1.346371	0.039416	1.167285
N267	N	1.596371	0.289416	1.417285
N268	N	1.846371	0.539416	1.667285
H269	H	1.085456	-0.162942	0.898972
H270	H	1.335456	0.087058	1.148972
H271	H	1.585456	0.337058	1.398972
H272	H	1.835456	0.587058	1.648972
H273	H	1.146781	-0.224292	0.899367
H274	H	1.396781	0.025708	1.149367
H275	H	1.646781	0.275708	1.399367
H276	H	1.896781	0.525708	1.649367
H277	H	1.128807	-0.605728	0.415621
H278	H	1.378807	-0.355728	0.665621
H279	H	1.628807	-0.105728	0.915621
H280	H	1.878807	0.144272	1.165621
H281	H	1.122875	-0.738798	0.409652
H282	H	1.372875	-0.488798	0.659652
H283	H	1.622875	-0.238798	0.909652
H284	H	1.872875	0.011202	1.159652
H285	H	1.116629	-0.825580	0.403386
H286	H	1.366629	-0.575580	0.653386
H287	H	1.616629	-0.325580	0.903386
H288	H	1.866629	-0.075580	1.153386
N289	N	0.919464	-0.375968	0.769703
N290	N	1.169464	-0.125968	1.019703
N291	N	1.419464	0.124032	1.269703
N292	N	1.669464	0.374032	1.519703
H293	H	0.885618	-0.368386	0.813396
H294	H	1.135618	-0.118386	1.063396
H295	H	1.385618	0.131614	1.313396
H296	H	1.635618	0.381614	1.563396
H297	H	0.898886	-0.416278	0.736960
H298	H	1.148886	-0.166278	0.986960
H299	H	1.398886	0.083722	1.236960
H300	H	1.648886	0.333722	1.486960
N301	N	1.151714	-0.429658	0.766444
N302	N	1.401714	-0.179658	1.016444
N303	N	1.651714	0.070342	1.266444
N304	N	1.901714	0.320342	1.516444
H305	H	1.112853	-0.465878	0.781207
H306	H	1.362853	-0.215878	1.031207
H307	H	1.612853	0.034122	1.281207
H308	H	1.862853	0.284122	1.531207
H309	H	1.201445	-0.442059	0.786217
H310	H	1.451445	-0.192059	1.036217
H311	H	1.701445	0.057941	1.286217
H312	H	1.951445	0.307941	1.536217
H313	H	0.983459	-0.245675	0.910421
H314	H	1.233459	0.004325	1.160421
H315	H	1.483459	0.254325	1.410421
H316	H	1.733459	0.504325	1.660421
H317	H	0.987224	-0.937399	0.273762
H318	H	1.237224	-0.687399	0.523762
H319	H	1.487224	-0.437399	0.773762
H320	H	1.737224	-0.187399	1.023762
N321	N	1.171927	-0.927475	0.458763
N322	N	1.421927	-0.677475	0.708763
N323	N	1.671927	-0.427475	0.958763
N324	N	1.921927	-0.177475	1.208763
H325	H	1.207621	-0.897032	0.430066
H326	H	1.457621	-0.647032	0.680066
H327	H	1.707621	-0.397032	0.930066
H328	H	1.957621	-0.147032	1.180066
H329	H	1.200331	-0.961846	0.487248
H330	H	1.450331	-0.711846	0.737248
H331	H	1.700331	-0.461846	0.987248
H332	H	1.950331	-0.211846	1.237248
N333	N	0.632410	-0.211647	0.307900
N334	N	0.882410	0.038353	0.557900
N335	N	1.132410	0.288353	0.807900
N336	N	1.382410	0.538353	1.057900
H337	H	0.662204	-0.193076	0.265263
H338	H	0.912204	0.056924	0.515263
H339	H	1.162204	0.306924	0.765263
H340	H	1.412204	0.556924	1.015263
H341	H	0.665420	-0.213942	0.352650
H342	H	0.915420	0.036058	0.602650
H343	H	1.165420	0.286058	0.852650
H344	H	1.415420	0.536058	1.102650
H345	H	0.497027	-0.228892	0.303148
H346	H	0.747027	0.021108	0.553148
H347	H	0.997027	0.271108	0.803148
H348	H	1.247027	0.521108	1.053148
H349	H	1.153051	-1.070267	0.439833
H350	H	1.403051	-0.820267	0.689833
H351	H	1.653051	-0.570267	0.939833
H352	H	1.903051	-0.320267	1.189833
H353	H	0.620626	-0.296282	0.228313
H354	H	0.870626	-0.046282	0.478313
H355	H	1.120626	0.203718	0.728313
H356	H	1.370626	0.453718	0.978313
H357	H	0.993459	-0.850617	0.280035
H358	H	1.243459	-0.600617	0.530035
H359	H	1.493459	-0.350617	0.780035
H360	H	1.743459	-0.100617	1.030035
H361	H	1.077495	-0.221962	0.782869
H362	H	1.327495	0.028038	1.032869
H363	H	1.577495	0.278038	1.282869
H364	H	1.827495	0.528038	1.532869
N365	N	1.009491	-0.465622	0.766414
N366	N	1.259491	-0.215622	1.016414
N367	N	1.509491	0.034378	1.266414
N368	N	1.759491	0.284378	1.516414
H369	H	1.056002	-0.464469	0.735610
H370	H	1.306002	-0.214469	0.985610
H371	H	1.556002	0.035531	1.235610
H372	H	1.806002	0.285531	1.485610
H373	H	0.966251	-0.483514	0.734647
H374	H	1.216251	-0.233514	0.984647
H375	H	1.466251	0.016486	1.234647
H376	H	1.716251	0.266486	1.484647
N377	N	0.486390	-0.300214	0.209715
N378	N	0.736390	-0.050214	0.459715
N379	N	0.986390	0.199786	0.709715
N380	N	1.236390	0.449786	0.959715
H381	H	0.529396	-0.307602	0.175132
H382	H	0.779396	-0.057602	0.425132
H383	H	1.029396	0.192398	0.675132
H384	H	1.279396	0.442398	0.925132
H385	H	0.457288	-0.259818	0.193043
H386	H	0.707288	-0.009818	0.443043
H387	H	0.957288	0.240182	0.693043
H388	H	1.207288	0.490182	0.943043
H389	H	0.494178	-0.265070	0.440610
H390	H	0.744178	-0.015070	0.690610
H391	H	0.994178	0.234930	0.940610
H392	H	1.244178	0.484930	1.190610
H393	H	0.617902	-0.356210	0.462711
H394	H	0.867902	-0.106210	0.712711
H395	H	1.117902	0.143790	0.962711
H396	H	1.367902	0.393790	1.212711
N397	N	0.919063	-0.375911	0.910438
N398	N	1.169063	-0.125911	1.160438
N399	N	1.419063	0.124089	1.410438
N400	N	1.669063	0.374089	1.660438
H401	H	0.922651	-0.333211	0.945295
H402	H	1.172651	-0.083211	1.195295
H403	H	1.422651	0.166789	1.445295
H404	H	1.672651	0.416789	1.695295
H405	H	0.897458	-0.417138	0.937438
H406	H	1.147458	-0.167138	1.187438
H407	H	1.397458	0.082862	1.437438
H408	H	1.647458	0.332862	1.687438
H409	H	0.621293	-0.264067	0.440003
H410	H	0.871293	-0.014067	0.690003
H411	H	1.121293	0.235933	0.940003
H412	H	1.371293	0.485933	1.190003
N413	N	0.622099	-0.436593	0.242702
N414	N	0.872099	-0.186593	0.492702
N415	N	1.122099	0.063407	0.742702
N416	N	1.372099	0.313407	0.992702
H417	H	0.657478	-0.399529	0.223173
H418	H	0.907478	-0.149529	0.473173
H419	H	1.157478	0.100471	0.723173
H420	H	1.407478	0.350471	0.973173
H421	H	0.578762	-0.444479	0.207732
H422	H	0.828762	-0.194479	0.457732
H423	H	1.078762	0.055521	0.707732
H424	H	1.328762	0.305521	0.957732
N425	N	0.478123	-0.468793	0.364823
N426	N	0.728123	-0.218793	0.614823
N427	N	0.978123	0.031207	0.864823
N428	N	1.228123	0.281207	1.114823
H429	H	0.494429	-0.458102	0.417621
H430	H	0.744429	-0.208102	0.667621
H431	H	0.994429	0.041898	0.917621
H432	H	1.244429	0.291898	1.167621
H433	H	0.496937	-0.515568	0.347142
H434	H	0.746937	-0.265568	0.597142
H435	H	0.996937	-0.015568	0.847142
H436	H	1.246937	0.234432	1.097142
N437	N	0.481139	-0.432045	0.239245
N438	N	0.731139	-0.182045	0.489245
N439	N	0.981139	0.067955	0.739245
N440	N	1.231139	0.317955	0.989245
H441	H	0.450632	-0.393326	0.220847
H442	H	0.700632	-0.143326	0.470847
H443	H	0.950632	0.106674	0.720847
H444	H	1.200632	0.356674	0.970847
H445	H	0.449615	-0.476877	0.240207
H446	H	0.699615	-0.226877	0.490207
H447	H	0.949615	0.023123	0.740207
H448	H	1.199615	0.273123	0.990207
N449	N	1.009173	-0.464934	0.907666
N450	N	1.259173	-0.214934	1.157666
N451	N	1.509173	0.035066	1.407666
N452	N	1.759173	0.285066	1.657666
H453	H	1.054128	-0.462898	0.940885
H454	H	1.304128	-0.212898	1.190885
H455	H	1.554128	0.037102	1.440885
H456	H	1.804128	0.287102	1.690885
H457	H	1.017951	-0.497162	0.863155
H458	H	1.267951	-0.247162	1.113155
H459	H	1.517951	0.002838	1.363155
H460	H	1.767951	0.252838	1.613155
H461	H	0.613074	-0.453193	0.357772
H462	H	0.863074	-0.203193	0.607772
H463	H	1.113074	0.046807	0.857772
H464	H	1.363074	0.296807	1.107772
N465	N	1.150954	-0.430776	0.906918
N466	N	1.400954	-0.180776	1.156918
N467	N	1.650954	0.069224	1.406918
N468	N	1.900954	0.319224	1.656918
H469	H	1.159510	-0.461968	0.861549
H470	H	1.409510	-0.211968	1.111549
H471	H	1.659510	0.038032	1.361549
H472	H	1.909510	0.288032	1.611549
H473	H	1.108827	-0.451505	0.936602
H474	H	1.358827	-0.201505	1.186602
H475	H	1.608827	0.048495	1.436602
H476	H	1.858827	0.298495	1.686602
H477	H	0.981294	-1.070473	0.267785
H478	H	1.231294	-0.820473	0.517785
H479	H	1.481294	-0.570473	0.767785
H480	H	1.731294	-0.320473	1.017785
N481	N	0.938166	-0.748729	0.224649
N482	N	1.188166	-0.498729	0.474649
N483	N	1.438166	-0.248729	0.724649
N484	N	1.688166	0.001271	0.974649
H485	H	0.909710	-0.714400	0.196155
H486	H	1.159710	-0.464400	0.446155
H487	H	1.409710	-0.214400	0.696155
H488	H	1.659710	0.035600	0.946155
H489	H	0.902520	-0.779175	0.253393
H490	H	1.152520	-0.529175	0.503393
H491	H	1.402520	-0.279175	0.753393
H492	H	1.652520	-0.029175	1.003393
H493	H	1.177815	-0.321120	0.906121
H494	H	1.427815	-0.071120	1.156121
H495	H	1.677815	0.178880	1.406121
H496	H	1.927815	0.428880	1.656121
N497	N	1.192703	-0.307901	0.773397
N498	N	1.442703	-0.057901	1.023397
N499	N	1.692703	0.192099	1.273397
N500	N	1.942703	0.442099	1.523397
H501	H	1.170650	-0.271397	0.742335
H502	H	1.420650	-0.021397	0.992335
H503	H	1.670650	0.228603	1.242335
H504	H	1.920650	0.478603	1.492335
H505	H	1.230166	-0.334313	0.743184
H506	H	1.480166	-0.084313	0.993184
H507	H	1.730166	0.165687	1.243184
H508	H	1.980166	0.415687	1.493184
