data_functionalizedCrystal
_audit_creation_method	'MofGen! by Chris Wilmer'
_symmetry_space_group_name_H-M	'P1'
_symmetry_Int_Tables_number	1
_symmetry_cell_setting	triclinic
loop_
_symmetry_equiv_pos_as_xyz
  x,y,z
_cell_length_a	17.038272
_cell_length_b	10.723024
_cell_length_c	9.798715
_cell_angle_alpha	89.996609
_cell_angle_beta	89.996844
_cell_angle_gamma	92.210287
loop_
_atom_site_label
_atom_site_type_symbol
_atom_site_fract_x
_atom_site_fract_y
_atom_site_fract_z
O1	O	-0.109720	1.667337	-0.113462
O2	O	-0.120222	1.305156	-0.113465
O3	O	-0.001144	1.484094	-0.113475
O4	O	-0.228799	1.488399	-0.113451
O5	O	-0.001144	1.484079	0.113507
O6	O	-0.120222	1.305141	0.113517
O7	O	-0.109720	1.667322	0.113520
Zn8	Zn	-0.114971	1.486230	0.149557
Zn9	Zn	-0.114971	1.486248	-0.149502
O10	O	-0.228798	1.488384	0.113531
C11	C	-0.119458	1.258578	0.000026
C12	C	-0.117171	1.119813	0.000024
C13	C	-0.183801	1.050993	0.000030
C14	C	-0.181440	0.907571	0.000028
C15	C	-0.257948	1.492307	0.000043
C16	C	-0.344806	1.503989	0.000052
C17	C	-0.394327	1.396734	0.000050
C18	C	-0.475938	1.407718	0.000033
C19	C	-0.508027	1.525958	0.000027
C20	C	-0.458499	1.633222	0.000025
C21	C	-0.376889	1.622237	0.000032
C22	C	-0.753999	1.564767	-0.000003
C23	C	-0.835615	1.575744	-0.000007
C24	C	-0.853049	1.350239	-0.000001
C25	C	-0.771437	1.339264	0.000015
C26	C	-0.721916	1.446528	0.000005
C27	C	-0.591446	1.537189	0.000014
C28	C	-0.638498	1.435296	0.000008
C29	C	0.028006	1.480171	0.000010
C30	C	0.114864	1.468489	-0.000008
C31	C	-0.110484	1.713900	0.000027
C32	C	-0.112771	1.852666	0.000020
N33	N	-0.114970	1.486226	0.353657
N34	N	-0.114966	1.486261	-0.353601
C35	C	-0.064752	1.561337	0.421429
C36	C	-0.064749	1.561356	0.578592
H37	H	-0.368208	1.300450	0.000071
N38	N	-0.007806	1.646489	0.344155
H39	H	-0.017146	1.736135	0.368919
H40	H	0.047749	1.625888	0.368970
N41	N	-0.529350	1.292034	0.000034
H42	H	-0.563588	1.291565	-0.084118
H43	H	-0.496582	1.215530	0.000096
H44	H	-0.055727	0.911814	0.000006
N45	N	-0.039292	1.057216	0.000028
H46	H	-0.035270	1.003438	-0.084113
H47	H	0.004805	1.122917	0.000078
N48	N	-0.007801	1.646550	0.655778
H49	H	-0.015872	1.634491	0.757108
H50	H	0.047752	1.626011	0.630873
N51	N	-0.736819	1.211741	0.000008
H52	H	-0.703353	1.202162	0.084155
H53	H	-0.780611	1.145526	-0.000049
H54	H	-0.617582	1.633461	0.000055
H55	H	-0.893377	1.262912	0.000006
H56	H	-0.157965	1.421957	0.588126
N57	N	-0.870231	1.703278	-0.000001
H58	H	-0.852224	1.750672	-0.084145
H59	H	-0.929438	1.693839	0.000059
N60	N	-0.261685	1.113578	0.000047
H61	H	-0.252332	1.207163	0.000048
H62	H	-0.292414	1.087662	-0.084096
N63	N	-0.257002	0.829226	0.000022
H64	H	-0.244604	0.737876	0.000018
H65	H	-0.288482	0.848749	0.084171
H66	H	-0.713689	1.652109	-0.000003
N67	N	-0.493107	1.760753	0.000031
H68	H	-0.449349	1.827032	0.000032
H69	H	-0.526585	1.770230	-0.084113
N70	N	-0.171917	1.401060	0.430912
H71	H	-0.227496	1.421549	0.406123
H72	H	-0.162501	1.311452	0.406101
N73	N	-0.323473	1.737918	0.000027
H74	H	-0.356183	1.814491	0.000024
H75	H	-0.289236	1.738270	0.084172
H76	H	-0.612368	1.339025	0.000006
