data_functionalizedCrystal
_audit_creation_method	'MofGen! by Chris Wilmer'
_symmetry_space_group_name_H-M	'P1'
_symmetry_Int_Tables_number	1
_symmetry_cell_setting	triclinic
loop_
_symmetry_equiv_pos_as_xyz
  x,y,z
_cell_length_a	15.995350
_cell_length_b	9.130313
_cell_length_c	10.654550
_cell_angle_alpha	90.000110
_cell_angle_beta	96.011361
_cell_angle_gamma	90.003412
loop_
_atom_site_label
_atom_site_type_symbol
_atom_site_fract_x
_atom_site_fract_y
_atom_site_fract_z
O1	O	1.111921	-0.121671	-0.161867
O2	O	1.611921	0.378329	0.338133
O3	O	0.868262	-0.121701	-0.181857
O4	O	1.368262	0.378299	0.318143
O5	O	0.995693	-0.121680	0.010950
O6	O	1.495693	0.378320	0.510950
O7	O	0.984489	-0.121692	-0.354674
O8	O	1.484489	0.378308	0.145326
O9	O	0.995692	0.121919	0.010945
O10	O	1.495692	0.621919	0.510945
O11	O	0.868260	0.121898	-0.181862
O12	O	1.368260	0.621898	0.318138
O13	O	1.111919	0.121927	-0.161873
O14	O	1.611919	0.621927	0.338127
Cu15	Cu	0.990089	0.144155	-0.171868
Cu16	Cu	1.490089	0.644155	0.328132
Cu17	Cu	0.990091	-0.143929	-0.171862
Cu18	Cu	1.490091	0.356071	0.328138
O19	O	0.984487	0.121906	-0.354680
O20	O	1.484487	0.621906	0.145320
C21	C	0.837061	0.000095	-0.181033
C22	C	1.337061	0.500095	0.318967
C23	C	0.744096	0.000083	-0.178555
C24	C	1.244096	0.500083	0.321445
N25	N	0.990094	0.346778	-0.171871
N26	N	1.490094	0.846778	0.328129
N27	N	0.990093	-0.346551	-0.171848
N28	N	1.490093	0.153449	0.328152
C29	C	0.406297	0.000114	-0.169658
C30	C	0.906297	0.500114	0.330342
C31	C	0.452934	0.000662	-0.032344
C32	C	0.952934	0.500662	0.467656
C33	C	0.549639	0.000103	-0.034822
C34	C	1.049639	0.500103	0.465178
C35	C	0.573883	0.000100	-0.174071
C36	C	1.073883	0.500100	0.325929
C37	C	0.533190	-0.139004	-0.241796
C38	C	1.033190	0.360996	0.258204
C39	C	0.436535	-0.139110	-0.238347
C40	C	0.936535	0.360890	0.261653
C41	C	0.436210	0.137907	-0.241190
C42	C	0.936210	0.637907	0.258810
C43	C	0.533156	0.139736	-0.241157
C44	C	1.033156	0.639736	0.258843
C45	C	0.668595	0.000086	-0.176573
C46	C	1.168595	0.500086	0.323427
C47	C	0.311585	0.000117	-0.167161
C48	C	0.811585	0.500117	0.332839
C49	C	1.143119	0.000129	-0.162696
C50	C	1.643119	0.500129	0.337304
C51	C	1.236084	0.000130	-0.165174
C52	C	1.736084	0.500130	0.334826
C53	C	0.994870	0.000117	0.057735
C54	C	1.494870	0.500117	0.557735
C55	C	0.992409	0.000112	0.197146
C56	C	1.492409	0.500112	0.697146
C57	C	1.046536	0.423439	-0.086525
C58	C	1.546536	0.923439	0.413475
C59	C	1.046533	0.576776	-0.086510
C60	C	1.546533	1.076776	0.413490
C61	C	0.933646	0.576777	-0.257198
C62	C	1.433646	1.076777	0.242802
C63	C	0.933644	0.423443	-0.257206
C64	C	1.433644	0.923443	0.242794
C65	C	1.102985	0.346774	-0.001190
C66	C	1.602985	0.846774	0.498810
C67	C	1.159432	0.423436	0.084162
C68	C	1.659432	0.923436	0.584162
C69	C	1.159430	0.576772	0.084177
C70	C	1.659430	1.076772	0.584177
C71	C	1.102981	0.653448	-0.001160
C72	C	1.602981	1.153448	0.498840
C73	C	0.985311	0.000106	-0.401464
C74	C	1.485311	0.500106	0.098536
C75	C	0.987772	0.000101	-0.540875
C76	C	1.487772	0.500101	-0.040875
C77	C	1.067438	0.000126	0.277612
C78	C	1.567438	0.500126	0.777612
C79	C	1.065121	0.000115	0.408603
C80	C	1.565121	0.500115	0.908603
C81	C	0.912737	0.000084	0.378648
C82	C	1.412737	0.500084	0.878648
C83	C	0.915055	0.000084	0.247660
C84	C	1.415055	0.500084	0.747660
C85	C	1.144792	0.000154	0.227098
C86	C	1.644792	0.500154	0.727098
C87	C	1.219828	0.000169	0.307565
C88	C	1.719828	0.500169	0.807565
C89	C	1.217510	0.000159	0.438555
C90	C	1.717510	0.500159	0.938555
C91	C	1.140156	0.000133	0.489079
C92	C	1.640156	0.500133	0.989079
H93	H	0.434092	0.100419	0.022541
H94	H	0.934092	0.600419	0.522541
H95	H	1.278608	0.000156	0.504069
H96	H	1.778608	0.500156	1.004069
O97	O	1.147298	0.000165	0.085817
O98	O	1.647298	0.500165	0.585817
H99	H	1.115018	0.099453	0.044824
H100	H	1.615018	0.599453	0.544824
H101	H	1.102994	0.221920	-0.001197
H102	H	1.602994	0.721920	0.498803
H103	H	0.549110	0.148136	-0.342702
H104	H	1.049110	0.648136	0.157298
H105	H	0.415414	0.243344	-0.196301
H106	H	0.915414	0.743344	0.303699
O107	O	0.834130	0.000086	0.160866
O108	O	1.334130	0.500086	0.660866
H109	H	0.831539	-0.099206	0.100477
H110	H	1.331539	0.400794	0.600477
O111	O	1.220295	0.340750	0.176232
O112	O	1.720295	0.840750	0.676232
H113	H	1.210814	0.221247	0.161889
H114	H	1.710814	0.721247	0.661889
H115	H	0.577758	0.099818	0.018413
H116	H	1.077758	0.599818	0.518413
O117	O	0.426554	-0.130725	0.040047
O118	O	0.926554	0.369275	0.540047
H119	H	0.442820	-0.232458	-0.008995
H120	H	0.942820	0.267542	0.491005
O121	O	0.586132	-0.132212	0.036168
O122	O	1.086132	0.367788	0.536168
H123	H	0.655410	-0.133066	0.034655
H124	H	1.155410	0.366934	0.534655
H125	H	1.205385	0.639189	0.153682
H126	H	1.705385	1.139189	0.653682
O127	O	0.872773	0.659466	-0.349251
O128	O	1.372773	1.159466	0.150749
H129	H	0.882263	0.778968	-0.334916
H130	H	1.382263	1.278968	0.165084
H131	H	0.417940	-0.243091	-0.188954
H132	H	0.917940	0.256909	0.311046
H133	H	0.887684	0.361024	-0.326702
H134	H	1.387684	0.861024	0.173298
H135	H	0.849759	0.000065	0.419796
H136	H	1.349759	0.500065	0.919796
H137	H	1.138275	0.000109	0.595741
H138	H	1.638275	0.500109	1.095741
O139	O	0.394583	-0.147505	-0.371876
O140	O	0.894583	0.352495	0.128124
H141	H	0.443358	-0.151483	-0.438625
H142	H	0.943358	0.348517	0.061375
H143	H	0.547909	-0.144178	-0.344099
H144	H	1.047909	0.355822	0.155901
H145	H	0.561292	-0.242525	-0.194753
H146	H	1.061292	0.257475	0.305247
O147	O	1.303257	0.000192	0.253084
O148	O	1.803257	0.500192	0.753084
H149	H	1.292266	0.000210	0.148480
H150	H	1.792266	0.500210	0.648480
H151	H	0.560185	0.242644	-0.191718
H152	H	1.060185	0.742644	0.308282
O153	O	0.394912	0.139180	-0.375289
O154	O	0.894912	0.639180	0.124711
H155	H	0.353278	0.042205	-0.390977
H156	H	0.853278	0.542205	0.109023
H157	H	1.102978	0.778305	-0.001132
H158	H	1.602978	1.278305	0.498868
