data_functionalizedCrystal
_audit_creation_method	'MofGen! by Chris Wilmer'
_symmetry_space_group_name_H-M	'P1'
_symmetry_Int_Tables_number	1
_symmetry_cell_setting	triclinic
loop_
_symmetry_equiv_pos_as_xyz
  x,y,z
_cell_length_a	15.995300
_cell_length_b	23.532357
_cell_length_c	14.472310
_cell_angle_alpha	89.993352
_cell_angle_beta	89.985388
_cell_angle_gamma	83.150049
loop_
_atom_site_label
_atom_site_type_symbol
_atom_site_fract_x
_atom_site_fract_y
_atom_site_fract_z
O1	O	1.110394	0.073269	-0.076886
O2	O	0.866535	0.082364	-0.076882
O3	O	0.995840	-0.005090	-0.076865
O4	O	0.981089	0.160723	-0.076903
O5	O	0.995807	-0.005085	0.076817
O6	O	0.866502	0.082369	0.076800
O7	O	1.110361	0.073274	0.076796
Cu8	Cu	0.988428	0.077822	0.090830
Cu9	Cu	0.988468	0.077816	-0.090917
O10	O	0.981056	0.160728	0.076779
C11	C	0.835326	0.081996	-0.000040
C12	C	0.742383	0.080884	-0.000038
C13	C	0.572218	0.078830	-0.000044
C14	C	0.524217	0.141099	-0.000056
C15	C	0.427539	0.139963	-0.000407
C16	C	0.404678	0.076808	-0.000050
C17	C	0.446095	0.045912	-0.087630
C18	C	0.542715	0.047487	-0.087701
C19	C	0.542964	0.046571	0.087070
C20	C	0.446020	0.046577	0.088219
C21	C	0.309993	0.075663	-0.000056
C22	C	0.666903	0.079974	-0.000045
C23	C	0.995454	-0.026305	-0.000021
C24	C	0.994345	-0.089528	-0.000013
C25	C	0.987399	-0.481568	-0.083835
C26	C	0.986345	-0.540971	-0.083840
O27	O	0.985786	-0.571692	-0.155085
N28	N	0.985804	-0.570682	-0.000069
C29	C	0.986309	-0.540985	0.083713
O30	O	0.985751	-0.571710	0.154966
C31	C	0.987357	-0.481582	0.083717
C32	C	0.987907	-0.451875	-0.000059
C33	C	0.987948	-0.451861	-0.167604
C34	C	0.989004	-0.392462	-0.167599
C35	C	0.989511	-0.362770	-0.083823
C36	C	0.988963	-0.392476	-0.000054
C37	C	0.987856	-0.451886	0.167498
C38	C	0.988904	-0.392479	0.167495
C39	C	0.989453	-0.362772	0.083718
C40	C	0.990526	-0.303385	0.083727
N41	N	0.991067	-0.273674	-0.000044
C42	C	0.990560	-0.303367	-0.083819
C43	C	0.984105	-0.665735	0.083697
C44	C	0.983063	-0.725137	0.083694
C45	C	0.983097	-0.725119	-0.083859
C46	C	0.984146	-0.665716	-0.083855
C47	C	0.984646	-0.636024	-0.000074
C48	C	0.992778	-0.178624	-0.083801
C49	C	0.993838	-0.119220	-0.083788
C50	C	0.993799	-0.119243	0.083764
C51	C	0.992744	-0.178642	0.083752
C52	C	0.992230	-0.208331	-0.000038
O53	O	0.991082	-0.272626	0.154936
O54	O	0.991106	-0.272633	-0.155060
C55	C	1.141570	0.073642	-0.000048
C56	C	1.234513	0.074755	-0.000057
C57	C	0.981442	0.181943	-0.000067
C58	C	0.982551	0.245166	-0.000082
N59	N	0.988407	0.077826	0.218661
N60	N	0.988496	0.077808	-0.218747
C61	C	0.988466	0.077814	0.592752
C62	C	0.919049	0.124452	0.553578
C63	C	0.919206	0.124622	0.446489
C64	C	0.988436	0.077820	0.407161
C65	C	1.075692	0.090788	0.445993
C66	C	1.075301	0.091120	0.553115
C67	C	0.971410	0.018069	0.553296
C68	C	0.969402	0.018468	0.446168
C69	C	0.988425	0.077822	0.302273
C70	C	0.988484	0.077813	0.697641
H71	H	0.431076	0.000533	0.093777
O72	O	1.032071	-0.029665	0.410723
H73	H	1.065878	-0.051810	0.469965
H74	H	0.905219	0.008626	0.420790
H75	H	0.992356	-0.202790	-0.152031
O76	O	0.933561	0.183348	0.412510
H77	H	0.991745	0.179982	0.370061
O78	O	0.832834	0.114391	0.587750
H79	H	0.791948	0.107440	0.527843
H80	H	0.982628	-0.749320	0.151913
O81	O	0.982528	-0.757143	-0.174226
H82	H	1.039118	-0.789300	-0.178248
O83	O	0.409548	0.076465	0.174052
H84	H	0.362167	0.112697	0.153941
O85	O	0.989574	-0.360422	-0.257957
H86	H	0.989031	-0.391056	-0.316204
H87	H	1.090410	0.134691	0.578080
O88	O	0.569858	0.073723	0.175037
H89	H	0.541294	0.119051	0.177875
O90	O	0.548413	0.174250	0.083119
H91	H	0.491469	0.187690	0.125222
H92	H	1.091175	0.133862	0.419146
O93	O	0.888984	0.001550	0.589127
H94	H	0.846413	-0.003967	0.530089
O95	O	0.992163	-0.210695	0.174102
H96	H	0.935277	-0.194212	0.214275
O97	O	0.984722	-0.633677	-0.174214
H98	H	1.041602	-0.650164	-0.214392
O99	O	0.549904	0.173751	-0.083146
H100	H	0.596709	0.145823	-0.124435
H101	H	0.575139	0.000661	0.087923
O102	O	0.987399	-0.483884	-0.257967
H103	H	0.929840	-0.505857	-0.261983
H104	H	0.994287	-0.095036	-0.152012
H105	H	1.128561	0.057723	0.420516
O106	O	0.984668	-0.633712	0.174066
H107	H	0.984126	-0.664356	0.232310
H108	H	0.432394	-0.000493	-0.090630
H109	H	0.987410	-0.476063	0.235718
H110	H	1.022039	-0.016637	0.578629
O111	O	0.989454	-0.360453	0.257860
H112	H	0.988904	-0.391095	0.316107
H113	H	1.128543	0.058490	0.579027
O114	O	0.389533	0.172121	0.082730
H115	H	0.403750	0.217115	0.079869
H116	H	0.560857	0.069750	-0.153427
O117	O	0.390372	0.172027	-0.084011
H118	H	0.441463	0.188395	-0.124361
H119	H	0.575381	0.001763	-0.091433
O120	O	0.994345	-0.087213	0.174121
H121	H	0.995161	-0.040916	0.160042
H122	H	0.854331	0.116897	0.420237
H123	H	0.929735	0.168538	0.580477
H124	H	0.417542	0.067090	-0.153062
