data_functionalizedCrystal
_audit_creation_method	'MofGen! by Chris Wilmer'
_symmetry_space_group_name_H-M	'P1'
_symmetry_Int_Tables_number	1
_symmetry_cell_setting	triclinic
loop_
_symmetry_equiv_pos_as_xyz
  x,y,z
_cell_length_a	12.759401
_cell_length_b	12.594516
_cell_length_c	12.759393
_cell_angle_alpha	90.028398
_cell_angle_beta	89.980324
_cell_angle_gamma	89.972842
loop_
_atom_site_label
_atom_site_type_symbol
_atom_site_fract_x
_atom_site_fract_y
_atom_site_fract_z
Zn1	Zn	1.606179	0.423679	-0.594000
Zn2	Zn	1.606033	0.601695	-0.418327
Zn3	Zn	1.430477	0.423732	-0.418339
Zn4	Zn	1.430432	0.601617	-0.593968
O5	O	1.518280	0.512680	-0.506158
O6	O	1.753180	0.447303	-0.570705
O7	O	1.582703	0.578142	-0.271307
O8	O	1.453864	0.274779	-0.441660
O9	O	1.753073	0.578091	-0.441638
O10	O	1.582951	0.274740	-0.570717
O11	O	1.453723	0.447394	-0.271316
O12	O	1.283450	0.447318	-0.441628
O13	O	1.453788	0.577958	-0.740993
O14	O	1.283417	0.578010	-0.570662
O15	O	1.582908	0.447228	-0.741017
O16	O	1.582659	0.750630	-0.441607
O17	O	1.453646	0.750573	-0.570650
C18	C	1.245313	0.512662	-0.506143
C19	C	1.128536	0.512680	-0.506162
C20	C	1.073731	0.444702	-0.573471
C21	C	0.964007	0.444713	-0.573478
C22	C	0.963903	0.580689	-0.438864
C23	C	1.073625	0.580672	-0.438853
C24	C	0.814113	0.319254	-0.611241
C25	C	0.759304	0.251285	-0.678566
C26	C	0.794966	0.235063	-0.781104
C27	C	0.885435	0.286825	-0.816338
C28	C	0.940239	0.354802	-0.749019
C29	C	0.904578	0.371004	-0.646466
C30	C	1.223521	0.706132	-0.401100
C31	C	1.278327	0.774115	-0.333785
C32	C	1.242667	0.790348	-0.231245
C33	C	1.152194	0.738605	-0.196015
C34	C	1.097388	0.670622	-0.263330
C35	C	1.133056	0.654387	-0.365869
C36	C	1.518160	0.789221	-0.506146
C37	C	1.518205	0.907527	-0.506176
C38	C	1.448016	0.976788	-0.576313
C39	C	1.422401	1.047656	-0.480446
C40	C	1.543877	1.047457	-0.602058
C41	C	1.492541	0.976837	-0.410259
C42	C	1.614060	0.976632	-0.531936
C43	C	1.588483	1.047469	-0.436003
C44	C	1.792313	0.512700	-0.506174
C45	C	1.909090	0.512708	-0.506180
C46	C	1.518383	1.235060	-0.506192
C47	C	1.518308	1.116754	-0.506202
C48	C	1.518359	0.512578	-0.780192
C49	C	1.518392	0.512535	-0.896969
C50	C	1.585630	0.444452	-0.951845
C51	C	1.585648	0.444407	-1.061569
C52	C	1.451187	0.580534	-1.061531
C53	C	1.451165	0.580574	-0.951809
C54	C	1.623286	0.318828	-1.211541
C55	C	1.690540	0.250755	-1.266421
C56	C	1.793056	0.234436	-1.230827
C57	C	1.828339	0.286204	-1.140355
C58	C	1.761091	0.354285	-1.085481
C59	C	1.658560	0.370585	-1.121073
C60	C	1.413538	0.706154	-0.801834
C61	C	1.346294	0.774241	-0.746958
C62	C	1.243776	0.790571	-0.782550
C63	C	1.208497	0.738821	-0.873026
C64	C	1.275741	0.670734	-0.927902
C65	C	1.378257	0.654402	-0.892302
C66	C	1.518262	0.512705	-0.233191
C67	C	1.518432	0.512449	-0.116415
H68	H	0.785076	0.332445	-0.527743
H69	H	0.919182	0.636046	-0.384065
H70	H	1.640368	0.389047	-0.907197
N71	N	1.004967	0.617760	-0.227364
N72	N	0.919405	0.633136	-0.272574
H73	H	0.854132	0.595803	-0.247175
H74	H	1.189030	0.846023	-0.737865
H75	H	1.123155	0.751828	-0.112521
N76	N	1.465218	0.938111	-0.308517
N77	N	1.445834	1.001980	-0.236035
H78	H	1.426533	0.974629	-0.164182
H79	H	1.252570	0.692911	-0.484594
H80	H	1.352005	0.816232	-0.362473
N81	N	1.320775	1.086796	-0.453095
N82	N	1.280995	1.062934	-0.366727
H83	H	1.209219	1.090573	-0.347414
N84	N	1.662997	1.086151	-0.361519
N85	N	1.653416	1.063312	-0.266675
H86	H	1.706038	1.090633	-0.214067
H87	H	1.695055	0.945414	-0.553748
N88	N	1.571077	1.086395	-0.703754
N89	N	1.576228	1.184146	-0.719838
H90	H	1.595431	1.211646	-0.791662
N91	N	1.103775	0.755515	-0.909380
N92	N	1.043747	0.816306	-0.860375
H93	H	0.969786	0.828102	-0.886049
H94	H	1.789819	0.396438	-1.011823
H95	H	1.375031	0.816388	-0.673295
H96	H	1.911822	0.272919	-1.111387
N97	N	1.298665	0.859790	-0.162494
N98	N	1.392197	0.840794	-0.140195
H99	H	1.431745	0.889833	-0.091639
H100	H	1.013901	0.396940	-0.777703
H101	H	1.847815	0.179008	-1.275518
H102	H	1.661803	0.208605	-1.340084
H103	H	1.539807	0.332101	-1.240526
N104	N	1.382525	0.650024	-1.117568
N105	N	1.382553	0.649980	-1.215533
H106	H	1.334061	0.699060	-1.255109
N107	N	1.239717	0.617861	-1.020321
N108	N	1.238793	0.518691	-1.024125
H109	H	1.213359	0.481352	-1.089400
H110	H	1.497014	0.692855	-0.772841
N111	N	0.921835	0.270259	-0.921092
N112	N	0.872892	0.209566	-0.981188
H113	H	0.898601	0.197864	-1.055173
H114	H	1.118436	0.389335	-0.628275
H115	H	0.685643	0.209141	-0.649869
N116	N	0.738975	0.165618	-0.849853
N117	N	0.727271	0.070074	-0.826130
H118	H	0.687725	0.021022	-0.874675
N119	N	1.373436	0.937860	-0.650609
N120	N	1.278577	0.960675	-0.640873
H121	H	1.225902	0.933182	-0.693340
