data_functionalizedCrystal
_audit_creation_method	'MofGen! by Chris Wilmer'
_symmetry_space_group_name_H-M	'P1'
_symmetry_Int_Tables_number	1
_symmetry_cell_setting	triclinic
loop_
_symmetry_equiv_pos_as_xyz
  x,y,z
_cell_length_a	16.959455
_cell_length_b	16.959455
_cell_length_c	16.959454
_cell_angle_alpha	90.010582
_cell_angle_beta	90.019023
_cell_angle_gamma	90.003969
loop_
_atom_site_label
_atom_site_type_symbol
_atom_site_fract_x
_atom_site_fract_y
_atom_site_fract_z
Zn1	Zn	1.208284	0.446979	-0.314814
Zn2	Zn	1.208236	0.314809	-0.446969
Zn3	Zn	1.076142	0.314811	-0.314806
Zn4	Zn	1.076077	0.446942	-0.446952
O5	O	1.142185	0.380885	-0.380885
O6	O	1.318889	0.429461	-0.332355
O7	O	1.190721	0.204198	-0.429442
O8	O	1.093718	0.332360	-0.204196
O9	O	1.318853	0.332356	-0.429449
O10	O	1.190803	0.429463	-0.204202
O11	O	1.093672	0.204200	-0.332342
O12	O	0.965523	0.332324	-0.332325
O13	O	1.093608	0.557557	-0.429420
O14	O	0.965475	0.429399	-0.429412
O15	O	1.190740	0.557585	-0.332339
O16	O	1.190658	0.332320	-0.557578
O17	O	1.093561	0.429397	-0.557565
C18	C	0.936819	0.380858	-0.380867
C19	C	0.848962	0.380865	-0.380878
C20	C	0.807689	0.330404	-0.330257
C21	C	0.807681	0.431339	-0.431504
C22	C	0.725135	0.431351	-0.431513
C23	C	0.683863	0.380889	-0.380893
C24	C	0.725136	0.330415	-0.330263
C25	C	0.683856	0.481829	-0.482137
C26	C	0.601305	0.481843	-0.482147
C27	C	0.560031	0.431377	-0.431530
C28	C	0.601309	0.380900	-0.380898
C29	C	0.560036	0.330439	-0.330278
C30	C	0.601313	0.279958	-0.279650
C31	C	0.683862	0.279949	-0.279645
C32	C	0.477482	0.431386	-0.431534
C33	C	0.477483	0.330450	-0.330283
C34	C	1.142172	0.587053	-0.380878
C35	C	1.142166	0.674910	-0.380875
C36	C	1.091606	1.046373	-0.431442
C37	C	1.192750	1.046397	-0.330351
C38	C	1.192748	0.963851	-0.330344
C39	C	1.142174	0.922563	-0.380888
C40	C	1.091603	0.963820	-0.431439
C41	C	1.243323	0.922588	-0.279800
C42	C	1.243323	0.840037	-0.279792
C43	C	1.192745	0.798747	-0.330333
C44	C	1.142172	0.840009	-0.380885
C45	C	1.091598	0.798721	-0.431429
C46	C	1.041020	0.839981	-0.481978
C47	C	1.041025	0.922530	-0.481979
C48	C	1.192740	0.716198	-0.330331
C49	C	1.091596	0.716167	-0.431426
C50	C	1.348353	0.380912	-0.380905
C51	C	1.436210	0.380924	-0.380913
C52	C	1.142187	1.175519	-0.380907
C53	C	1.142179	1.087662	-0.380898
C54	C	1.142119	0.380871	-0.586252
C55	C	1.142163	0.380892	-0.674108
C56	C	1.091700	0.431428	-1.045607
C57	C	1.192890	0.330423	-1.045561
C58	C	1.192862	0.330415	-0.963015
C59	C	1.142252	0.380914	-0.921761
C60	C	1.091669	0.431420	-0.963054
C61	C	1.243438	0.279904	-0.921716
C62	C	1.243412	0.279894	-0.839165
C63	C	1.192805	0.330398	-0.797910
C64	C	1.142221	0.380907	-0.839208
C65	C	1.091611	0.431406	-0.797954
C66	C	1.041030	0.481919	-0.839250
C67	C	1.041062	0.481924	-0.921799
C68	C	1.192773	0.330393	-0.715362
C69	C	1.091580	0.431398	-0.715401
C70	C	1.142273	0.380916	-0.174717
C71	C	1.142311	0.380929	-0.086861
H72	H	1.050405	0.682556	-0.472578
O73	O	0.556802	0.225529	-0.225048
H74	H	0.572632	0.163470	-0.238515
O75	O	0.852198	0.275954	-0.275652
H76	H	0.889823	0.311386	-0.235478
O77	O	1.037140	0.485897	-1.090146
H78	H	1.072492	0.526148	-1.127725
H79	H	0.717477	0.238851	-0.238426
H80	H	0.443885	0.289356	-0.289062
H81	H	1.234090	0.289304	-1.079154
H82	H	0.717466	0.522915	-0.523347
H83	H	0.999847	0.806354	-0.523134
O84	O	0.432985	0.485827	-0.486151
H85	H	0.395393	0.526119	-0.450851
O86	O	1.298021	0.225455	-0.966228
H87	H	1.284516	0.163397	-0.950436
H88	H	1.284598	0.238765	-0.805547
H89	H	0.999850	0.956132	-0.523136
H90	H	1.233951	0.289262	-0.681742
H91	H	0.567705	0.522947	-0.523373
O92	O	0.852190	0.485789	-0.486077
H93	H	0.916526	0.477307	-0.477561
O94	O	1.037051	1.090867	-0.485959
H95	H	1.045546	1.155206	-0.477474
O96	O	1.247274	1.090923	-0.275815
H97	H	1.238769	1.155256	-0.284299
O98	O	1.247292	0.671699	-0.275822
H99	H	1.238799	0.607361	-0.284314
O100	O	1.297839	0.967116	-0.225258
H101	H	1.289325	1.031448	-0.233736
O102	O	1.297868	0.795534	-0.225273
H103	H	1.333032	0.838114	-0.190126
O104	O	1.036981	0.485860	-0.670913
H105	H	1.050481	0.547912	-0.686732
O106	O	0.986444	0.536387	-0.794754
H107	H	0.994926	0.527893	-0.730416
H108	H	0.999882	0.523048	-0.955429
