data_functionalizedCrystal
_audit_creation_method	'MofGen! by Chris Wilmer'
_symmetry_space_group_name_H-M	'P1'
_symmetry_Int_Tables_number	1
_symmetry_cell_setting	triclinic
loop_
_symmetry_equiv_pos_as_xyz
  x,y,z
_cell_length_a	19.288867
_cell_length_b	10.654550
_cell_length_c	17.766277
_cell_angle_alpha	89.994852
_cell_angle_beta	89.992126
_cell_angle_gamma	83.810986
loop_
_atom_site_label
_atom_site_type_symbol
_atom_site_fract_x
_atom_site_fract_y
_atom_site_fract_z
O1	O	0.922378	0.156669	-0.062566
O2	O	0.720256	0.177799	-0.062573
O3	O	0.825964	-0.015605	-0.062567
O4	O	0.816670	0.350072	-0.062572
O5	O	0.825945	-0.015615	0.062622
O6	O	0.720237	0.177789	0.062615
O7	O	0.922359	0.156659	0.062623
Cu8	Cu	0.821296	0.167223	0.074050
Cu9	Cu	0.821319	0.167235	-0.074000
O10	O	0.816651	0.350063	0.062616
C11	C	0.694366	0.177114	0.000020
C12	C	0.617249	0.175071	0.000018
C13	C	0.061597	0.160367	-0.068214
C14	C	0.134057	0.162278	-0.068217
C15	C	0.170282	0.163234	0.000024
C16	C	0.134043	0.162247	0.068272
C17	C	0.061585	0.160323	0.068272
C18	C	0.280103	0.239829	0.052303
C19	C	0.352559	0.241761	0.052299
C20	C	0.393766	0.169163	0.000024
C21	C	0.362508	0.094649	-0.052261
C22	C	0.290050	0.092725	-0.052260
C23	C	0.248850	0.165320	0.000030
C24	C	0.508567	0.172214	-0.068223
C25	C	0.581029	0.174117	-0.068223
C26	C	0.581012	0.174099	0.068267
C27	C	0.508552	0.172182	0.068265
C28	C	0.472334	0.171246	0.000018
C29	C	0.825272	-0.062393	0.000027
C30	C	0.823230	-0.201793	0.000024
C31	C	0.885470	-0.282610	0.000029
C32	C	0.883547	-0.413590	0.000023
C33	C	0.757140	-0.382922	0.000012
C34	C	0.759064	-0.251945	0.000012
C35	C	0.949636	-0.232458	0.000041
C36	C	1.011881	-0.313276	0.000046
C37	C	1.009958	-0.444256	0.000040
C38	C	0.945791	-0.494417	0.000030
C39	C	0.948249	0.157344	0.000028
C40	C	1.025366	0.159386	0.000025
N41	N	0.821286	0.167214	0.178180
C42	C	0.817343	0.396851	0.000021
C43	C	0.819384	0.536250	0.000019
N44	N	0.821335	0.167234	-0.178131
C45	C	0.868109	0.081617	0.217570
C46	C	0.868113	0.081611	0.296372
C47	C	0.821301	0.167224	0.335781
C48	C	0.774469	0.252828	0.296381
C49	C	0.774461	0.252823	0.217581
C50	C	0.812751	0.281645	0.460617
C51	C	0.812763	0.281652	0.539415
C52	C	0.821319	0.167239	0.578827
C53	C	0.829878	0.052815	0.539430
C54	C	0.829870	0.052810	0.460630
C55	C	0.821303	0.167239	0.421226
C56	C	0.868149	0.081629	0.703663
C57	C	0.868148	0.081621	0.782466
C58	C	0.774507	0.252849	0.782474
C59	C	0.774505	0.252845	0.703672
C60	C	0.821329	0.167237	0.664271
H61	H	0.610506	0.174872	0.123829
C62	C	0.722962	0.346979	0.339724
H63	H	0.695066	0.397946	0.304976
H64	H	0.748184	0.399155	0.370461
H65	H	0.693842	0.301905	0.370467
H66	H	0.736331	0.322528	0.185509
C67	C	0.468695	0.171125	0.143329
H68	H	0.500644	0.171979	0.183971
H69	H	0.445372	0.097162	0.146168
H70	H	0.435486	0.243601	0.146163
C71	C	1.082460	-0.258110	0.000054
H72	H	1.119252	-0.325004	0.000049
H73	H	1.085831	-0.207662	0.043712
H74	H	1.085845	-0.207646	-0.043606
C75	C	0.839273	-0.073042	0.417293
H76	H	0.844465	-0.141184	0.452044
H77	H	0.879642	-0.075696	0.386458
H78	H	0.799500	-0.079898	0.386650
H79	H	0.906235	0.011906	0.185492
C80	C	1.078422	-0.533152	0.000045
H81	H	1.116910	-0.484520	0.000057
H82	H	1.080312	-0.584879	-0.043611
H83	H	1.080289	-0.584887	0.043706
H84	H	0.944231	-0.601071	0.000018
H85	H	0.378002	0.302464	0.094857
H86	H	0.836845	-0.040351	0.571517
C87	C	0.686564	-0.438098	0.000010
H88	H	0.694333	-0.527678	0.000018
H89	H	0.660914	-0.410331	-0.043646
H90	H	0.660906	-0.410337	0.043671
H91	H	0.736389	0.322552	0.814560
C92	C	0.173919	0.163372	-0.143282
H93	H	0.141970	0.162549	-0.183926
H94	H	0.207134	0.090915	-0.146127
H95	H	0.197234	0.237353	-0.146107
C96	C	0.951750	-0.088385	0.000044
H97	H	0.905492	-0.047435	0.000044
H98	H	0.975539	-0.064407	-0.043607
H99	H	0.975515	-0.064428	0.043711
H100	H	0.708383	-0.186141	0.000009
C101	C	0.803350	0.407507	0.582748
H102	H	0.804588	0.391126	0.635323
H103	H	0.759758	0.452482	0.569844
H104	H	0.839909	0.456553	0.569819
C105	C	0.919646	-0.012548	0.660318
H106	H	0.947526	-0.063543	0.695067
H107	H	0.948772	0.032490	0.629568
H108	H	0.894403	-0.064712	0.629589
H109	H	0.906243	0.011905	0.328449
C110	C	0.803334	0.407503	0.417268
H111	H	0.804547	0.391114	0.364695
H112	H	0.839892	0.456551	0.430166
H113	H	0.759741	0.452479	0.430192
H114	H	0.396058	0.035537	-0.094831
H115	H	0.032113	0.159599	-0.123786
H116	H	0.610528	0.174906	-0.123794
C117	C	0.919658	-0.012539	0.825795
H118	H	0.947546	-0.063512	0.791040
H119	H	0.894431	-0.064707	0.856545
H120	H	0.948786	0.032521	0.856523
H121	H	0.264603	0.032052	-0.094831
H122	H	0.736380	0.322552	0.671599
H123	H	0.479076	0.171447	-0.123794
C124	C	0.234781	0.319698	0.109807
H125	H	0.263772	0.364365	0.140935
H126	H	0.210090	0.265924	0.140043
H127	H	0.202526	0.378101	0.083911
H128	H	0.163542	0.163023	0.123833
C129	C	0.021728	0.159257	0.143338
H130	H	0.053677	0.160107	0.183981
H131	H	-0.001597	0.085297	0.146176
H132	H	-0.011479	0.231736	0.146174
