data_functionalizedCrystal
_audit_creation_method	'MofGen! by Chris Wilmer'
_symmetry_space_group_name_H-M	'P1'
_symmetry_Int_Tables_number	1
_symmetry_cell_setting	triclinic
loop_
_symmetry_equiv_pos_as_xyz
  x,y,z
_cell_length_a	14.044220
_cell_length_b	9.065218
_cell_length_c	8.140239
_cell_angle_alpha	90.002802
_cell_angle_beta	89.995422
_cell_angle_gamma	90.897619
loop_
_atom_site_label
_atom_site_type_symbol
_atom_site_fract_x
_atom_site_fract_y
_atom_site_fract_z
O1	O	0.139141	-1.975818	-0.136623
O2	O	0.472474	-1.642484	0.196710
O3	O	0.805808	-1.309151	0.530043
O4	O	0.150554	-1.547798	-0.136626
O5	O	0.483887	-1.214464	0.196707
O6	O	0.817221	-0.881131	0.530041
O7	O	0.006808	-1.755383	-0.136608
O8	O	0.340141	-1.422050	0.196725
O9	O	0.673474	-1.088717	0.530058
O10	O	0.282887	-1.768232	-0.136641
O11	O	0.616220	-1.434899	0.196692
O12	O	0.949554	-1.101566	0.530026
O13	O	0.006806	-1.755371	0.136619
O14	O	0.340139	-1.422037	0.469952
O15	O	0.673473	-1.088704	0.803285
O16	O	0.150552	-1.547785	0.136601
O17	O	0.483885	-1.214452	0.469934
O18	O	0.817219	-0.881118	0.803268
O19	O	0.139139	-1.975805	0.136604
O20	O	0.472472	-1.642472	0.469937
O21	O	0.805806	-1.309138	0.803270
Zn22	Zn	0.144845	-1.761793	0.179983
Zn23	Zn	0.478179	-1.428460	0.513316
Zn24	Zn	0.811512	-1.095126	0.846650
Zn25	Zn	0.144848	-1.761810	-0.180005
Zn26	Zn	0.478181	-1.428476	0.153328
Zn27	Zn	0.811514	-1.095143	0.486661
O28	O	0.282885	-1.768220	0.136586
O29	O	0.616219	-1.434886	0.469920
O30	O	0.949552	-1.101553	0.803253
C31	C	0.149456	-1.492683	-0.000013
C32	C	0.482789	-1.159350	0.333321
C33	C	0.816123	-0.826017	0.666654
C34	C	0.146176	-1.328477	-0.000013
C35	C	0.479510	-0.995144	0.333320
C36	C	0.812843	-0.661810	0.666653
C37	C	-0.028556	-1.749752	0.000006
C38	C	0.304777	-1.416419	0.333339
C39	C	0.638111	-1.083086	0.666672
C40	C	-0.133926	-1.732975	0.000008
C41	C	0.199408	-1.399642	0.333341
C42	C	0.532741	-1.066309	0.666674
C43	C	0.140237	-2.030920	-0.000013
C44	C	0.473570	-1.697586	0.333320
C45	C	0.806904	-1.364253	0.666653
C46	C	0.143517	-2.195126	-0.000023
C47	C	0.476850	-1.861793	0.333310
C48	C	0.810183	-1.528459	0.666643
C49	C	-0.326850	-1.702304	-0.000016
C50	C	0.006483	-1.368970	0.333317
C51	C	0.339816	-1.035637	0.666650
C52	C	-0.383462	-1.821293	-0.000020
C53	C	-0.050129	-1.487959	0.333313
C54	C	0.283205	-1.154626	0.666646
C55	C	-0.490812	-1.804226	-0.000034
C56	C	-0.157479	-1.470893	0.333300
C57	C	0.175855	-1.137560	0.666633
C58	C	-0.219491	-1.719368	-0.000003
C59	C	0.113843	-1.386034	0.333330
C60	C	0.447176	-1.052701	0.666664
C61	C	0.318249	-1.773850	-0.000032
C62	C	0.651582	-1.440517	0.333302
C63	C	0.984916	-1.107184	0.666635
C64	C	0.423619	-1.790627	-0.000044
C65	C	0.756952	-1.457294	0.333289
C66	C	1.090285	-1.123961	0.666622
N67	N	0.144843	-1.761792	0.425666
N68	N	0.478177	-1.428459	0.758999
N69	N	0.811510	-1.095126	1.092332
N70	N	0.144842	-1.761821	-0.425688
N71	N	0.478176	-1.428488	-0.092355
N72	N	0.811509	-1.095155	0.240979
H73	H	-0.351306	-1.935980	-0.000130
H74	H	-0.017973	-1.602646	0.333203
H75	H	0.315360	-1.269313	0.666537
F76	F	-0.368878	-1.552409	-0.000026
F77	F	-0.035544	-1.219075	0.333308
F78	F	0.297789	-0.885742	0.666641
