data_functionalizedCrystal
_audit_creation_method	'MofGen! by Chris Wilmer'
_symmetry_space_group_name_H-M	'P1'
_symmetry_Int_Tables_number	1
_symmetry_cell_setting	triclinic
loop_
_symmetry_equiv_pos_as_xyz
  x,y,z
_cell_length_a	27.732048
_cell_length_b	14.044191
_cell_length_c	13.101039
_cell_angle_alpha	86.337551
_cell_angle_beta	93.329410
_cell_angle_gamma	87.917216
loop_
_atom_site_label
_atom_site_type_symbol
_atom_site_fract_x
_atom_site_fract_y
_atom_site_fract_z
O1	O	0.114035	1.261251	-0.085186
O2	O	0.614035	1.761251	0.414814
O3	O	0.109828	0.985344	-0.085198
O4	O	0.609828	1.485344	0.414802
O5	O	0.041938	1.131865	-0.085172
O6	O	0.541938	1.631865	0.414828
O7	O	0.181926	1.114729	-0.085211
O8	O	0.681926	1.614729	0.414789
O9	O	0.046818	1.121352	0.085256
O10	O	0.546818	1.621352	0.585256
O11	O	0.114708	0.974831	0.085230
O12	O	0.614708	1.474831	0.585230
O13	O	0.118915	1.250738	0.085242
O14	O	0.618915	1.750738	0.585242
Zn15	Zn	0.117586	1.111115	0.112295
Zn16	Zn	0.617586	1.611115	0.612295
Zn17	Zn	0.111157	1.124966	-0.112251
Zn18	Zn	0.611157	1.624966	0.387749
O19	O	0.186805	1.104216	0.085216
O20	O	0.686805	1.604216	0.585216
C21	C	0.110428	0.944800	0.000015
C22	C	0.610428	1.444800	0.500015
C23	C	0.104940	0.839654	0.000011
C24	C	0.604940	1.339654	0.500011
C25	C	0.133831	0.588945	0.000013
C26	C	0.633831	1.088945	0.500013
C27	C	0.094914	0.647143	0.000023
C28	C	0.594914	1.147143	0.500023
C29	C	0.100494	0.754266	0.000016
C30	C	0.600494	1.254266	0.500016
C31	C	0.128252	0.481811	0.000020
C32	C	0.628252	0.981811	0.500020
C33	C	0.026354	1.126249	0.000045
C34	C	0.526354	1.626249	0.500045
C35	C	-0.027352	1.125165	0.000053
C36	C	0.472648	1.625165	0.500053
C37	C	-0.362424	1.204934	0.000004
C38	C	0.137576	1.704934	0.500004
C39	C	-0.564272	1.200915	-0.000010
C40	C	-0.064272	1.700915	0.499990
O41	O	-0.592105	1.273858	-0.000052
O42	O	-0.092105	1.773858	0.499948
N43	N	-0.587475	1.114033	-0.000013
N44	N	-0.087475	1.614033	0.499987
C45	C	-0.560212	1.028150	-0.000019
C46	C	-0.060212	1.528150	0.499981
O47	O	-0.584578	0.954160	-0.000032
O48	O	-0.084578	1.454160	0.499968
C49	C	-0.358364	1.032170	-0.000012
C50	C	0.141636	1.532170	0.499988
C51	C	-0.335164	1.119057	0.000001
C52	C	0.164836	1.619057	0.500001
C53	C	-0.339224	1.291814	0.000016
C54	C	0.160776	1.791814	0.500016
C55	C	-0.288764	1.292817	0.000026
C56	C	0.211236	1.792817	0.500026
C57	C	-0.261505	1.206940	0.000023
C58	C	0.238495	1.706940	0.500023
C59	C	-0.284705	1.120060	0.000011
C60	C	0.215295	1.620060	0.500011
C61	C	-0.331102	0.946288	-0.000025
C62	C	0.168898	1.446288	0.499975
C63	C	-0.280637	0.947301	-0.000026
C64	C	0.219363	1.447301	0.499974
C65	C	-0.257438	1.034188	-0.000013
C66	C	0.242562	1.534188	0.499987
C67	C	-0.206986	1.035187	0.000017
C68	C	0.293014	1.535187	0.500017
N69	N	-0.183784	1.122069	0.000020
N70	N	0.316216	1.622069	0.500020
C71	C	-0.211043	1.207946	0.000023
C72	C	0.288957	1.707946	0.500023
C73	C	-0.666185	1.026046	-0.000021
C74	C	-0.166185	1.526046	0.499979
C75	C	-0.716646	1.025040	-0.000021
C76	C	-0.216646	1.525040	0.499979
C77	C	-0.720704	1.197806	-0.000014
C78	C	-0.220704	1.697806	0.499986
C79	C	-0.670241	1.198810	-0.000006
C80	C	-0.170241	1.698810	0.499994
C81	C	-0.642982	1.112928	-0.000018
C82	C	-0.142982	1.612928	0.499982
C83	C	-0.105075	1.210046	0.000043
C84	C	0.394925	1.710046	0.500043
C85	C	-0.054611	1.211042	0.000056
C86	C	0.445389	1.711042	0.500056
C87	C	-0.050558	1.038277	0.000044
C88	C	0.449442	1.538277	0.500044
C89	C	-0.101018	1.037280	0.000036
C90	C	0.398982	1.537280	0.500036
C91	C	-0.128275	1.123173	0.000032
C92	C	0.371725	1.623173	0.500032
O93	O	-0.179123	0.962284	0.000047
O94	O	0.320877	1.462284	0.500047
O95	O	-0.186668	1.281926	0.000013
O96	O	0.313332	1.781926	0.500013
C97	C	-0.412883	1.203930	-0.000005
C98	C	0.087117	1.703930	0.499995
C99	C	-0.436083	1.117050	-0.000017
C100	C	0.063917	1.617050	0.499983
C101	C	-0.408824	1.031174	-0.000020
C102	C	0.091176	1.531174	0.499980
C103	C	-0.486545	1.116045	-0.000017
C104	C	0.013455	1.616045	0.499983
C105	C	-0.513804	1.201922	-0.000014
C106	C	-0.013804	1.701922	0.499986
C107	C	-0.490602	1.288804	-0.000011
C108	C	0.009398	1.788804	0.499989
C109	C	-0.440142	1.289807	-0.000002
C110	C	0.059858	1.789807	0.499998
C111	C	-0.432026	0.944292	-0.000023
C112	C	0.067974	1.444292	0.499977
C113	C	-0.482485	0.943295	-0.000031
C114	C	0.017515	1.443295	0.499969
C115	C	-0.509745	1.029172	-0.000028
C116	C	-0.009745	1.529172	0.499972
C117	C	0.202389	1.109833	-0.000003
C118	C	0.702389	1.609833	0.499997
C119	C	0.256094	1.110917	-0.000018
C120	C	0.756094	1.610917	0.499982
C121	C	0.118315	1.291282	0.000028
C122	C	0.618315	1.791282	0.500028
C123	C	0.123803	1.396428	0.000025
C124	C	0.623803	1.896428	0.500025
N125	N	0.121974	1.101669	0.265542
N126	N	0.621974	1.601669	0.765542
N127	N	0.106765	1.134420	-0.265498
N128	N	0.606765	1.634420	0.234502
C129	C	0.127949	1.088817	0.474583
C130	C	0.627949	1.588817	0.974583
C131	C	0.100793	1.147269	0.525469
C132	C	0.600793	1.647269	1.025469
C133	C	0.104117	1.140118	0.641786
C134	C	0.604117	1.640118	1.141786
C135	C	0.124625	1.095967	0.358255
C136	C	0.624625	1.595967	0.858255
H137	H	0.057403	0.616521	-0.000039
H138	H	0.557403	1.116521	0.499961
Cl139	Cl	-0.641081	1.308043	0.000009
Cl140	Cl	-0.141081	1.808043	0.500009
Cl141	Cl	0.061243	1.233181	0.457862
Cl142	Cl	0.561243	1.733181	0.957862
Cl143	Cl	0.191739	0.636228	-0.000016
Cl144	Cl	0.691739	1.136228	0.499984
H145	H	0.153693	1.033409	0.518370
H146	H	0.653693	1.533409	1.018370
Cl147	Cl	-0.025449	1.320279	0.000071
Cl148	Cl	0.474551	1.820279	0.500071
Cl149	Cl	-0.631924	0.918068	-0.000034
Cl150	Cl	-0.131924	1.418068	0.499966
Cl151	Cl	-0.139334	1.318027	0.000040
Cl152	Cl	0.360666	1.818027	0.500040
Cl153	Cl	-0.259608	1.402054	0.000013
Cl154	Cl	0.240392	1.902054	0.500013
H155	H	-0.361413	1.361749	0.000015
H156	H	0.138587	1.861749	0.500015
H157	H	-0.742907	1.267730	-0.000011
H158	H	-0.242907	1.767730	0.499989
Cl159	Cl	-0.745805	0.915805	-0.000018
Cl160	Cl	-0.245805	1.415805	0.499982
Cl161	Cl	-0.246373	0.839328	-0.000041
Cl162	Cl	0.253627	1.339328	0.499959
Cl163	Cl	-0.360255	0.837052	-0.000049
Cl164	Cl	0.139745	1.337052	0.499951
H165	H	-0.028354	0.968358	0.000045
H166	H	0.471646	1.468358	0.500045
Cl167	Cl	-0.130183	0.928049	0.000039
Cl168	Cl	0.369817	1.428049	0.500039
Cl169	Cl	-0.410985	1.399043	0.000006
Cl170	Cl	0.089015	1.899043	0.500006
H171	H	-0.512805	1.358727	-0.000004
H172	H	-0.012805	1.858727	0.499996
Cl173	Cl	-0.511644	0.834054	-0.000043
Cl174	Cl	-0.011644	1.334054	0.499957
H175	H	-0.409836	0.874359	-0.000027
H176	H	0.090164	1.374359	0.499973
