data_functionalizedCrystal
_audit_creation_method	'MofGen! by Chris Wilmer'
_symmetry_space_group_name_H-M	'P1'
_symmetry_Int_Tables_number	1
_symmetry_cell_setting	triclinic
loop_
_symmetry_equiv_pos_as_xyz
  x,y,z
_cell_length_a	12.811457
_cell_length_b	13.262508
_cell_length_c	11.892095
_cell_angle_alpha	109.778227
_cell_angle_beta	91.498327
_cell_angle_gamma	82.749985
loop_
_atom_site_label
_atom_site_type_symbol
_atom_site_fract_x
_atom_site_fract_y
_atom_site_fract_z
O1	O	1.386616	0.148016	0.093659
O2	O	1.083020	0.161473	0.066671
O3	O	1.245837	-0.001340	0.033310
O4	O	1.223799	0.310829	0.127020
O5	O	1.232262	0.012214	0.224092
O6	O	1.069445	0.175027	0.257453
O7	O	1.373041	0.161570	0.284441
Zn8	Zn	1.219088	0.170450	0.301238
Zn9	Zn	1.236973	0.152593	0.049874
O10	O	1.210224	0.324383	0.317802
C11	C	1.037434	0.167081	0.157725
C12	C	0.921825	0.163583	0.144797
C13	C	0.689784	0.171769	0.328512
C14	C	0.581159	0.168483	0.316371
C15	C	0.595949	0.153718	0.108372
C16	C	0.704574	0.157004	0.120513
C17	C	0.751487	0.166031	0.230587
C18	C	0.860113	0.169325	0.242730
C19	C	0.874902	0.154552	0.034729
C20	C	0.766277	0.151266	0.022588
C21	C	1.239063	-0.034543	0.116409
C22	C	1.239089	-0.153672	0.079781
C23	C	1.209557	-0.459936	0.392527
C24	C	1.209524	-0.348008	0.426941
C25	C	1.216916	-0.299418	0.340154
C26	C	1.224339	-0.362769	0.218947
C27	C	1.224364	-0.474707	0.184528
C28	C	1.231723	-0.314189	0.132155
C29	C	1.239146	-0.377539	0.010948
C30	C	1.239171	-0.489467	-0.023465
C31	C	1.231780	-0.538056	0.063322
C32	C	1.231698	-0.202250	0.166574
C33	C	1.246505	-0.217021	-0.041425
C34	C	1.246538	-0.328950	-0.075840
C35	C	1.418628	0.155962	0.193385
C36	C	1.534237	0.159459	0.206305
C37	C	1.216999	0.357586	0.234701
C38	C	1.216973	0.476715	0.271321
N39	N	1.206889	0.182637	0.472788
N40	N	1.249181	0.140397	-0.121678
C41	C	1.334067	0.055534	0.683399
C42	C	1.325548	0.064060	0.803489
C43	C	1.181326	0.208211	0.833057
C44	C	1.189846	0.199684	0.712968
C45	C	1.266220	0.123344	0.638143
C46	C	1.274743	0.114824	0.518053
C47	C	1.130518	0.258969	0.547621
C48	C	1.121998	0.267495	0.667711
H49	H	0.530923	0.173162	0.396114
H50	H	1.225644	-0.150680	0.265261
O51	O	1.057335	0.332118	0.498813
H52	H	0.974731	0.319079	0.509074
O53	O	0.740386	0.181524	0.447235
H54	H	0.800092	0.110413	0.436399
H55	H	1.396260	-0.006618	0.622478
H56	H	1.203491	-0.296437	0.525629
H57	H	0.557735	0.146350	0.018750
H58	H	1.203532	-0.499508	0.463175
O59	O	1.398725	-0.009076	0.852307
H60	H	1.444676	0.040608	0.926203
H61	H	1.231811	-0.629198	0.035308
O62	O	1.247125	-0.557794	-0.154196
H63	H	1.252253	-0.505206	-0.208765
H64	H	1.252581	-0.380545	-0.174529
O65	O	0.715676	0.141536	-0.096129
H66	H	0.629774	0.140223	-0.088120
H67	H	1.336933	0.052667	0.457132
O68	O	1.098956	0.290544	0.913767
H69	H	1.104438	0.285080	1.004876
O70	O	1.216896	-0.178697	0.377265
H71	H	1.210505	-0.142810	0.476127
O72	O	0.941454	0.148366	-0.070898
H73	H	0.934708	0.071229	-0.144457
O74	O	0.910719	0.179072	0.361449
H75	H	0.849560	0.182503	0.427499
O76	O	1.254481	-0.164632	-0.135046
H77	H	1.253229	-0.076158	-0.090750
O78	O	1.039632	0.349837	0.748417
H79	H	1.045110	0.344382	0.839530
