data_functionalizedCrystal
_audit_creation_method	'MofGen! by Chris Wilmer'
_symmetry_space_group_name_H-M	'P1'
_symmetry_Int_Tables_number	1
_symmetry_cell_setting	triclinic
loop_
_symmetry_equiv_pos_as_xyz
  x,y,z
_cell_length_a	14.809374
_cell_length_b	20.875492
_cell_length_c	20.875641
_cell_angle_alpha	60.662107
_cell_angle_beta	81.061316
_cell_angle_gamma	53.089510
loop_
_atom_site_label
_atom_site_type_symbol
_atom_site_fract_x
_atom_site_fract_y
_atom_site_fract_z
Zr1	Zr	0.837813	0.724618	-0.206935
O2	O	0.686593	0.858857	-0.296352
O3	O	0.891173	0.585899	-0.175369
O4	O	0.888577	0.716581	-0.310741
O5	O	0.683270	0.736076	-0.058923
O6	O	1.039941	0.715337	-0.326818
O7	O	0.689188	0.728175	-0.160980
O8	O	1.044583	0.481570	-0.084663
O9	O	0.678628	0.969843	-0.301078
O10	O	1.018431	0.643686	-0.178925
O11	O	0.901053	0.650511	-0.090763
O12	O	0.897998	0.804373	-0.250145
O13	O	0.780620	0.811198	-0.161983
Zr14	Zr	1.069783	0.735234	-0.069807
Zr15	Zr	1.079221	0.722633	-0.232576
Zr16	Zr	0.828375	0.737219	-0.044166
Zr17	Zr	0.825110	0.901626	-0.214473
Zr18	Zr	1.082486	0.558225	-0.062269
O19	O	1.016423	0.873952	-0.101373
O20	O	1.029844	0.856035	-0.332810
O21	O	0.673173	0.876775	-0.064915
O22	O	1.221003	0.600994	0.019609
O23	O	1.234423	0.583077	-0.211828
O24	O	0.877752	0.603816	0.056067
O25	O	1.224326	0.723775	-0.217819
O26	O	1.019018	0.743270	0.033999
O27	O	0.867655	0.744515	0.050076
O28	O	1.218408	0.731676	-0.115762
O29	O	0.870515	0.968265	-0.321459
O30	O	1.037081	0.491587	0.044717
O31	O	1.228968	0.490009	0.024336
O32	O	1.236470	0.479992	-0.105044
O33	O	0.671126	0.979859	-0.171698
O34	O	0.863013	0.978281	-0.192079
O35	O	1.009598	0.655479	-0.026597
O36	O	1.126975	0.648654	-0.114759
O37	O	1.006543	0.809340	-0.185979
O38	O	0.889165	0.816165	-0.097817
C39	C	0.969688	0.508515	-0.128942
C40	C	0.975081	0.433370	-0.125742
C41	C	0.893095	0.455563	-0.174222
C42	C	0.898166	0.384968	-0.171243
C43	C	0.985219	0.292180	-0.119779
C44	C	1.067213	0.269987	-0.071297
C45	C	1.062146	0.340582	-0.074281
C46	C	1.009442	0.074883	-0.105502
C47	C	1.014501	0.004288	-0.102520
C48	C	0.845454	0.119274	-0.202467
C49	C	0.840391	0.189864	-0.205443
C50	C	0.922388	0.167666	-0.156964
N51	N	0.990403	0.220019	-0.116731
N52	N	0.917209	0.239826	-0.160016
C53	C	0.651834	0.732409	-0.106298
C54	C	0.549350	0.733251	-0.095413
C55	C	0.506758	0.729491	-0.143993
C56	C	0.400835	0.730361	-0.132743
C57	C	1.255762	0.727443	-0.170444
C58	C	1.358246	0.726600	-0.181329
C59	C	0.965604	0.714164	-0.341971
C60	C	0.969611	0.708814	-0.411070
C61	C	0.937908	0.951337	-0.147800
C62	C	0.932515	1.026481	-0.151000
C63	C	0.908631	0.790175	-0.480710
C64	C	0.912410	0.785143	-0.545635
C65	C	0.977165	0.698749	-0.540919
C66	C	1.038152	0.617382	-0.471272
C67	C	1.034378	0.622415	-0.406349
C68	C	0.995199	0.674703	-0.731102
C69	C	0.998965	0.669676	-0.796032
C70	C	0.873225	0.837438	-0.870392
C71	C	0.869451	0.842464	-0.805463
C72	C	0.930443	0.761096	-0.735823
N73	N	0.981027	0.693604	-0.607281
N74	N	0.926587	0.766243	-0.669463
C75	C	0.941992	0.745688	0.065228
C76	C	0.937985	0.751037	0.134328
C77	C	1.271652	0.506032	-0.161015
C78	C	1.379529	0.430044	-0.168700
C79	C	0.957882	0.524277	0.074657
C80	C	0.959268	0.454482	0.146957
C81	C	1.259846	0.521794	0.042584
C82	C	1.363716	0.451156	0.103999
C83	C	0.647750	0.938058	-0.319327
C84	C	0.543880	1.008696	-0.380741
C85	C	0.635944	0.953820	-0.115727
C86	C	0.528067	1.029807	-0.108042
C87	C	0.949714	0.935575	-0.351400
C88	C	0.948328	1.005370	-0.423699
C89	C	1.373530	0.391766	-0.205810
C90	C	1.474883	0.320377	-0.213046
C91	C	1.582233	0.287262	-0.183167
C92	C	1.588229	0.325547	-0.146056
C93	C	1.486877	0.396940	-0.138825
C94	C	1.016577	0.424299	0.214411
C95	C	1.017874	0.358729	0.282350
C96	C	0.961868	0.323339	0.282834
C97	C	0.904551	0.353528	0.215374
C98	C	0.903248	0.419101	0.147436
C99	C	1.473774	0.414421	0.086819
C100	C	1.571380	0.348058	0.144517
C101	C	1.558925	0.318427	0.219394
C102	C	1.448855	0.355169	0.236574
C103	C	1.351251	0.421535	0.178876
C104	C	0.433821	1.045439	-0.363562
C105	C	0.336214	1.111824	-0.421261
C106	C	0.348668	1.141459	-0.496138
C107	C	0.458739	1.104712	-0.513317
C108	C	0.556343	1.038333	-0.455619
C109	C	0.534066	1.068092	-0.070939
C110	C	0.432713	1.139500	-0.063722
C111	C	0.325362	1.172617	-0.093604
C112	C	0.319367	1.134329	-0.130712
C113	C	0.420718	1.062927	-0.137933
C114	C	1.004346	1.040740	-0.424159
C115	C	1.003066	1.106311	-0.492088
C116	C	0.945761	1.136516	-0.559556
C117	C	0.889741	1.101139	-0.559095
C118	C	0.891029	1.035564	-0.491167
H119	H	0.778698	0.137337	-0.241937
H120	H	0.843084	1.125742	-0.614036
H121	H	0.845407	1.006773	-0.490802
H122	H	0.231948	1.161304	-0.155039
Br123	Br	1.082127	0.999763	-0.332606
H124	H	0.621466	1.041134	-0.046600
H125	H	0.423659	1.021314	-0.302596
H126	H	1.064552	0.334157	0.337272
H127	H	0.816725	0.912815	-0.809313
H128	H	1.076210	0.056797	-0.066026
H129	H	1.138099	0.194433	-0.029398
H130	H	1.469978	0.289213	-0.243264
Br131	Br	0.428165	0.720147	-0.264533
H132	H	1.051695	0.599320	-0.792184
H133	H	0.769519	0.265413	-0.247362
H134	H	0.507402	0.737111	-0.045492
H135	H	0.415818	1.031757	-0.168143
Br136	Br	1.126039	0.500131	-0.464870
Br137	Br	1.720746	0.298205	0.121185
H138	H	1.483937	0.438536	0.025854
Br139	Br	1.132653	-0.121643	-0.032673
H140	H	1.048682	1.135108	-0.492450
H141	H	0.437617	1.170663	-0.033504
H142	H	1.286130	0.418726	-0.230152
Br143	Br	1.173425	0.310460	-0.008490
H144	H	0.822195	0.531113	-0.216120
H145	H	0.962938	0.269945	0.338159
H146	H	0.831404	0.403046	-0.210720
H147	H	0.548712	0.725621	-0.193910
Br148	Br	0.820741	0.907431	-0.487120
H149	H	0.862756	0.851396	-0.602337
H150	H	0.242844	1.230757	-0.087719
Br151	Br	1.495039	0.448876	-0.088453
Br152	Br	0.186848	1.161679	-0.397929
Br153	Br	0.944023	1.225513	-0.651739
H154	H	0.358891	0.734221	-0.082818
H155	H	0.823569	0.903683	-0.927098
Br156	Br	1.117158	0.511991	-0.311837
Br157	Br	0.825467	0.460052	0.055895
H158	H	1.261641	0.451437	0.192875
H159	H	0.269183	1.195508	-0.543113
Br160	Br	1.719772	0.190370	-0.192986
Br161	Br	1.077924	0.564275	-0.636593
Br162	Br	1.733929	0.280592	-0.105507
H163	H	0.858952	0.324704	0.215779
Br164	Br	1.092602	0.472309	0.213774
H165	H	1.638410	0.264387	0.266368
Br166	Br	1.431971	0.314946	0.338198
H167	H	0.468866	1.128849	-0.574289
Br168	Br	0.705706	0.988470	-0.478948
