data_functionalizedCrystal
_audit_creation_method	'MofGen! by Chris Wilmer'
_symmetry_space_group_name_H-M	'P1'
_symmetry_Int_Tables_number	1
_symmetry_cell_setting	triclinic
loop_
_symmetry_equiv_pos_as_xyz
  x,y,z
_cell_length_a	27.732048
_cell_length_b	27.732048
_cell_length_c	16.776229
_cell_angle_alpha	89.988391
_cell_angle_beta	89.998347
_cell_angle_gamma	82.642655
loop_
_atom_site_label
_atom_site_type_symbol
_atom_site_fract_x
_atom_site_fract_y
_atom_site_fract_z
O1	O	0.640929	0.057518	-0.066194
O2	O	0.500135	0.066264	-0.066219
O3	O	0.574905	-0.008506	-0.066191
O4	O	0.566159	0.132288	-0.066223
O5	O	0.574895	-0.008510	0.066386
O6	O	0.500126	0.066259	0.066357
O7	O	0.640919	0.057514	0.066383
Zn8	Zn	0.570521	0.061886	0.087419
Zn9	Zn	0.570534	0.061892	-0.087256
O10	O	0.566150	0.132283	0.066354
C11	C	0.482124	0.066078	0.000066
C12	C	0.428469	0.065525	0.000057
C13	C	0.089654	0.106229	0.000082
C14	C	-0.112006	0.104178	0.000090
O15	O	-0.143262	0.141398	0.000116
N16	N	-0.131130	0.059843	0.000098
C17	C	-0.099835	0.016017	0.000110
O18	O	-0.120728	-0.021740	0.000126
C19	C	0.101824	0.018068	0.000109
C20	C	0.120944	0.062407	0.000092
C21	C	0.108775	0.150563	0.000066
C22	C	0.159187	0.151075	0.000060
C23	C	0.190477	0.107253	0.000070
C24	C	0.171356	0.062919	0.000086
C25	C	0.133117	-0.025757	0.000126
C26	C	0.183535	-0.025240	0.000128
C27	C	0.202655	0.019098	0.000111
C28	C	0.253059	0.019609	0.000089
N29	N	0.272183	0.063944	0.000080
C30	C	0.240892	0.107766	0.000071
C31	C	-0.205709	0.014943	0.000110
C32	C	-0.256124	0.014430	0.000109
C33	C	-0.268291	0.102591	0.000090
C34	C	-0.217876	0.103104	0.000085
C35	C	-0.186585	0.059278	0.000101
C36	C	0.346761	0.108839	0.000057
C37	C	0.397178	0.109347	0.000047
C38	C	0.409341	0.021186	0.000071
C39	C	0.358929	0.020678	0.000076
C40	C	0.327639	0.064508	0.000072
O41	O	0.284343	-0.017592	0.000072
O42	O	0.261794	0.145518	0.000073
C43	C	0.039242	0.105716	0.000088
C44	C	0.020120	0.061382	0.000104
C45	C	0.051411	0.017560	0.000114
C46	C	-0.030294	0.060869	0.000103
C47	C	-0.061585	0.104691	0.000094
C48	C	-0.042461	0.149026	0.000085
C49	C	0.007951	0.149539	0.000079
C50	C	0.032287	-0.026775	0.000123
C51	C	-0.018125	-0.027284	0.000128
C52	C	-0.049416	0.016538	0.000118
C53	C	0.574716	-0.026515	0.000100
C54	C	0.574164	-0.080170	0.000106
C55	C	0.614867	-0.418985	0.000073
C56	C	0.612816	-0.620645	0.000061
O57	O	0.650037	-0.651900	0.000033
N58	N	0.568481	-0.639768	0.000054
C59	C	0.524656	-0.608474	0.000044
O60	O	0.486899	-0.629367	0.000030
C61	C	0.526707	-0.406815	0.000050
C62	C	0.571045	-0.387694	0.000065
C63	C	0.659202	-0.399864	0.000087
C64	C	0.659714	-0.349452	0.000094
C65	C	0.615892	-0.318161	0.000087
C66	C	0.571557	-0.337282	0.000073
C67	C	0.482882	-0.375521	0.000035
C68	C	0.483399	-0.325104	0.000034
C69	C	0.527737	-0.305983	0.000050
C70	C	0.528247	-0.255580	0.000073
N71	N	0.572583	-0.236456	0.000080
C72	C	0.616405	-0.267747	0.000087
C73	C	0.523582	-0.714348	0.000043
C74	C	0.523069	-0.764762	0.000043
C75	C	0.611230	-0.776930	0.000058
C76	C	0.611742	-0.726514	0.000064
C77	C	0.567917	-0.695224	0.000050
C78	C	0.617477	-0.161878	0.000103
C79	C	0.617986	-0.111461	0.000113
C80	C	0.529825	-0.099298	0.000094
C81	C	0.529316	-0.149710	0.000088
C82	C	0.573147	-0.180999	0.000089
O83	O	0.491047	-0.224296	0.000092
O84	O	0.654156	-0.246844	0.000084
C85	C	0.614355	-0.469397	0.000065
C86	C	0.570021	-0.488518	0.000051
C87	C	0.526198	-0.457228	0.000044
C88	C	0.569508	-0.538933	0.000051
C89	C	0.613330	-0.570223	0.000058
C90	C	0.657665	-0.551100	0.000065
C91	C	0.658177	-0.500688	0.000073
C92	C	0.481863	-0.476351	0.000037
C93	C	0.481355	-0.526764	0.000030
C94	C	0.525177	-0.558054	0.000037
C95	C	0.658931	0.057699	0.000096
C96	C	0.712586	0.058252	0.000099
C97	C	0.566338	0.150292	0.000062
C98	C	0.566891	0.203947	0.000050
N99	N	0.570515	0.061881	0.206630
N100	N	0.570543	0.061892	-0.206467
C101	C	0.603633	0.028787	0.248360
C102	C	0.603636	0.028786	0.331812
C103	C	0.570523	0.061883	0.373533
C104	C	0.537401	0.094979	0.331798
C105	C	0.537397	0.094977	0.248347
C106	C	0.537419	0.094989	0.668345
C107	C	0.537427	0.094989	0.751801
C108	C	0.603658	0.028798	0.751810
C109	C	0.603653	0.028796	0.668360
C110	C	0.570531	0.061890	0.626631
C111	C	0.570527	0.061889	0.536143
C112	C	0.570528	0.061886	0.464020
H113	H	0.117558	-0.061861	0.000140
F114	F	0.216833	-0.071886	0.000147
F115	F	0.502181	0.130217	0.796203
H116	H	0.446177	-0.450879	0.000029
F117	F	0.664126	-0.195171	0.000104
F118	F	0.502169	0.130211	0.623941
F119	F	0.436752	-0.291805	0.000018
H120	H	0.343360	-0.015426	0.000078
H121	H	0.412743	0.145454	0.000033
H122	H	0.174750	0.187180	0.000046
H123	H	0.510428	0.121925	0.214371
F124	F	0.476933	-0.681052	0.000028
F125	F	0.442651	-0.025450	0.000082
H126	H	-0.293777	0.138273	0.000082
F127	F	0.704304	-0.584410	0.000077
F128	F	0.638880	-0.006438	0.203966
F129	F	0.638898	-0.006428	0.623960
F130	F	0.502157	0.130202	0.376201
F131	F	0.638883	-0.006437	0.376225
F132	F	0.638909	-0.006426	0.796227
F133	F	0.075480	0.197209	0.000056
F134	F	0.482127	-0.170060	0.000086
F135	F	0.435691	-0.395860	0.000015
F136	F	0.313468	0.155488	0.000053
H137	H	0.694282	-0.485125	0.000085
F138	F	-0.197531	0.150294	0.000069
F139	F	-0.038469	-0.074478	0.000136
H140	H	0.494146	-0.073812	0.000091
H141	H	-0.180236	-0.020747	0.000123
F142	F	0.028294	0.196730	0.000061
F143	F	-0.276468	-0.032761	0.000109
H144	H	-0.067947	0.184708	0.000074
F145	F	0.065583	-0.073420	0.000134
H146	H	0.647846	-0.710950	0.000076
H147	H	0.695819	-0.333889	0.000103
H148	H	0.654093	-0.095896	0.000128
H149	H	0.694889	-0.425336	0.000090
F150	F	0.475878	-0.785106	0.000041
F151	F	0.657869	-0.810240	0.000064
F152	F	0.434160	-0.547107	0.000019
