data_functionalizedCrystal
_audit_creation_method	'MofGen! by Chris Wilmer'
_symmetry_space_group_name_H-M	'P1'
_symmetry_Int_Tables_number	1
_symmetry_cell_setting	triclinic
loop_
_symmetry_equiv_pos_as_xyz
  x,y,z
_cell_length_a	11.792241
_cell_length_b	12.996460
_cell_length_c	11.792254
_cell_angle_alpha	90.006311
_cell_angle_beta	84.196007
_cell_angle_gamma	90.001369
loop_
_atom_site_label
_atom_site_type_symbol
_atom_site_fract_x
_atom_site_fract_y
_atom_site_fract_z
O1	O	1.506917	0.085467	0.155569
O2	O	2.006917	0.585467	0.655569
O3	O	1.176577	0.085491	0.171602
O4	O	1.676577	0.585491	0.671602
O5	O	1.349756	0.085472	-0.001584
O6	O	1.849756	0.585472	0.498416
O7	O	1.333738	0.085487	0.328755
O8	O	1.833738	0.585487	0.828755
O9	O	1.349738	-0.085662	-0.001594
O10	O	1.849738	0.414338	0.498406
O11	O	1.176559	-0.085642	0.171592
O12	O	1.676559	0.414358	0.671592
O13	O	1.506899	-0.085666	0.155559
O14	O	2.006899	0.414334	0.655559
Cu15	Cu	1.341727	-0.101280	0.163575
Cu16	Cu	1.841727	0.398720	0.663575
Cu17	Cu	1.341749	0.101105	0.163586
Cu18	Cu	1.841749	0.601105	0.663586
O19	O	1.333720	-0.085647	0.328745
O20	O	1.833720	0.414353	0.828745
C21	C	1.134277	-0.000072	0.170590
C22	C	1.634277	0.499928	0.670590
C23	C	1.008263	-0.000063	0.167576
C24	C	1.508263	0.499937	0.667576
N25	N	1.341720	-0.243627	0.163566
N26	N	1.841720	0.256373	0.663566
C27	C	0.777551	-0.000093	0.162033
C28	C	1.277551	0.499907	0.662033
C29	C	0.905936	-0.000077	0.165112
C30	C	1.405936	0.499923	0.665112
C31	C	1.341747	-0.663442	0.163588
C32	C	1.841747	-0.163442	0.663588
C33	C	1.341736	-0.546637	0.163585
C34	C	1.841736	-0.046637	0.663585
C35	C	1.341734	-0.453538	0.163578
C36	C	1.841734	0.046462	0.663578
C37	C	1.341723	-0.336726	0.163574
C38	C	1.841723	0.163274	0.663574
C39	C	1.549199	-0.000100	0.156571
C40	C	2.049199	0.499900	0.656571
C41	C	1.675213	-0.000102	0.159586
C42	C	2.175213	0.499898	0.659586
C43	C	1.348738	-0.000095	-0.043880
C44	C	1.848738	0.499905	0.456120
C45	C	1.345718	-0.000094	-0.169893
C46	C	1.845718	0.499906	0.330107
N47	N	1.341765	0.243452	0.163586
N48	N	1.841765	0.743452	0.663586
C49	C	1.343264	-0.000090	-0.272229
C50	C	1.843264	0.499910	0.227771
C51	C	1.340196	-0.000080	-0.400616
C52	C	1.840196	0.499920	0.099384
C53	C	1.334738	-0.000078	0.371041
C54	C	1.834738	0.499922	0.871041
C55	C	1.337758	-0.000072	0.497054
C56	C	1.837758	0.499928	0.997054
