data_functionalizedCrystal
_audit_creation_method	'MofGen! by Chris Wilmer'
_symmetry_space_group_name_H-M	'P1'
_symmetry_Int_Tables_number	1
_symmetry_cell_setting	triclinic
loop_
_symmetry_equiv_pos_as_xyz
  x,y,z
_cell_length_a	23.203873
_cell_length_b	23.204288
_cell_length_c	23.204116
_cell_angle_alpha	59.999358
_cell_angle_beta	90.000740
_cell_angle_gamma	60.000205
loop_
_atom_site_label
_atom_site_type_symbol
_atom_site_fract_x
_atom_site_fract_y
_atom_site_fract_z
O1	O	-0.491171	-0.412508	0.017125
O2	O	-0.407373	-0.294492	-0.017078
O3	O	-0.407364	-0.412503	0.100931
O4	O	-0.491180	-0.294497	-0.100884
O5	O	-0.311510	-0.508350	0.100930
O6	O	-0.311519	-0.390339	-0.017079
O7	O	-0.395317	-0.508355	0.017125
Zn8	Zn	-0.338199	-0.464565	0.000023
Zn9	Zn	-0.464491	-0.338282	0.000024
O10	O	-0.395326	-0.390344	-0.100884
C11	C	-0.310629	-0.285833	-0.024856
C12	C	-0.346197	-0.326283	-0.019966
C13	C	-0.345468	-0.215990	-0.025342
C14	C	-0.206264	-0.285844	-0.024850
C15	C	-0.130243	-0.326306	-0.019954
C16	C	-0.241261	-0.216001	-0.025336
C17	C	-0.310620	-0.181482	-0.024851
C18	C	-0.346178	-0.110359	-0.019955
C19	C	-0.241271	-0.320193	-0.025341
C20	C	-0.658505	-0.590076	0.035846
C21	C	-0.734524	-0.549623	0.030953
C22	C	-0.623500	-0.659920	0.036334
C23	C	-0.554148	-0.590068	0.035843
C24	C	-0.518589	-0.549608	0.030946
C25	C	-0.519302	-0.659913	0.036331
C26	C	-0.554143	-0.694431	0.035845
C27	C	-0.518577	-0.765555	0.030952
C28	C	-0.623506	-0.555716	0.036332
C29	C	-0.489845	-0.823015	0.026997
C30	C	-0.795940	-0.516941	0.026999
C31	C	-0.489861	-0.516919	0.026989
C32	C	-0.453798	-0.895103	0.022037
C33	C	-0.872989	-0.475940	0.022039
C34	C	-0.453820	-0.475910	0.022026
C35	C	-0.554170	-0.212801	-0.445783
C36	C	-0.518605	-0.253257	-0.481344
C37	C	-0.623530	-0.142958	-0.480627
C38	C	-0.554171	-0.212800	-0.341424
C39	C	-0.518607	-0.253255	-0.265405
C40	C	-0.623531	-0.142957	-0.376427
C41	C	-0.658533	-0.108445	-0.445785
C42	C	-0.734555	-0.037323	-0.481348
C43	C	-0.519326	-0.247155	-0.376425
C44	C	-0.795973	0.020136	-0.510079
C45	C	-0.489873	-0.285943	-0.510073
C46	C	-0.489876	-0.285940	-0.203988
C47	C	-0.873024	0.092221	-0.546124
C48	C	-0.453827	-0.326947	-0.546116
C49	C	-0.453831	-0.326943	-0.126939
O50	O	0.100951	-0.508385	0.017137
O51	O	-0.100865	-0.390365	-0.017066
O52	O	0.017142	-0.508381	0.100943
O53	O	-0.017055	-0.390369	-0.100872
O54	O	0.017151	-0.412538	0.100948
O55	O	-0.100856	-0.294522	-0.017061
O56	O	0.100960	-0.412542	0.017142
Zn57	Zn	0.000054	-0.338315	0.000041
Zn58	Zn	0.000042	-0.464592	0.000035
O59	O	-0.017046	-0.294526	-0.100867
O60	O	-0.395292	0.083738	0.017139
O61	O	-0.311494	-0.083871	-0.017063
O62	O	-0.311490	-0.083879	0.100946
O63	O	-0.395296	0.083745	-0.100869
O64	O	-0.407347	-0.083869	0.100941
O65	O	-0.407351	-0.083862	-0.017068
O66	O	-0.491149	0.083748	0.017134
Zn67	Zn	-0.464469	-0.000055	0.000032
Zn68	Zn	-0.338174	-0.000068	0.000039
O69	O	-0.491153	0.083755	-0.100874
O70	O	-1.100899	0.280983	-0.592589
O71	O	-0.899081	0.113376	-0.508777
O72	O	-1.017083	0.113367	-0.508776
O73	O	-0.982897	0.280992	-0.592591
O74	O	-1.017080	0.113365	-0.604626
O75	O	-0.899079	0.113373	-0.604627
O76	O	-1.100897	0.280981	-0.688439
Zn77	Zn	-0.999987	0.197177	-0.661751
Zn78	Zn	-0.999990	0.197180	-0.535465
O79	O	-0.982895	0.280990	-0.688440
O80	O	-0.407364	-0.412503	-0.688426
O81	O	-0.491177	-0.294500	-0.604619
O82	O	-0.491169	-0.412510	-0.604615
O83	O	-0.407371	-0.294494	-0.688429
O84	O	-0.395315	-0.508358	-0.508764
O85	O	-0.395322	-0.390349	-0.508767
O86	O	-0.311510	-0.508351	-0.592574
Zn87	Zn	-0.338197	-0.464568	-0.535452
Zn88	Zn	-0.464490	-0.338284	-0.661741
O89	O	-0.311517	-0.390342	-0.592577
C90	C	-0.206263	-0.621374	0.310693
C91	C	-0.130241	-0.692496	0.346256
C92	C	-0.241266	-0.586861	0.345536
C93	C	-0.310626	-0.517018	0.206333
C94	C	-0.346190	-0.476562	0.130313
C95	C	-0.345470	-0.482663	0.241334
C96	C	-0.310626	-0.517018	0.310692
C97	C	-0.346190	-0.476563	0.346254
C98	C	-0.241266	-0.586861	0.241335
C99	C	0.024933	-0.517057	0.310709
C100	C	0.020044	-0.476605	0.346273
C101	C	0.025416	-0.586899	0.345550
C102	C	0.024929	-0.517053	0.206347
C103	C	0.020035	-0.476595	0.130328
C104	C	0.025411	-0.586894	0.241347
C105	C	0.024923	-0.621409	0.310705
C106	C	0.020024	-0.692529	0.346265
C107	C	0.025421	-0.482701	0.241351
C108	C	-0.310607	-0.285870	0.310695
C109	C	-0.346173	-0.326324	0.346253
C110	C	-0.241246	-0.320235	0.345540
C111	C	-0.310606	-0.181504	0.206342
C112	C	-0.346171	-0.110371	0.130325
C113	C	-0.241245	-0.216028	0.241346
C114	C	-0.206242	-0.285880	0.310701
C115	C	-0.130219	-0.326346	0.346265
C116	C	-0.345452	-0.216017	0.241340
C117	C	-0.035755	-0.108466	-0.445768
C118	C	-0.030856	-0.037345	-0.481329
C119	C	-0.036247	-0.142976	-0.480612
C120	C	-0.035761	-0.212822	-0.341409
C121	C	-0.030867	-0.253278	-0.265390
C122	C	-0.036253	-0.247174	-0.376413
C123	C	-0.035765	-0.212818	-0.445770
C124	C	-0.030876	-0.253271	-0.481334
C125	C	-0.036243	-0.142980	-0.376410
C126	C	-0.026924	-0.285954	-0.510065
C127	C	-0.026896	0.020112	-0.510058
C128	C	-0.026912	-0.285964	-0.203974
C129	C	-0.021968	-0.326955	-0.546111
C130	C	-0.021929	0.092196	-0.546100
C131	C	-0.021951	-0.326970	-0.126924
O132	O	-0.017052	-0.390385	0.491248
O133	O	0.017154	-0.508395	0.407445
O134	O	-0.100856	-0.390384	0.407434
O135	O	0.100958	-0.508395	0.491259
O136	O	-0.100850	-0.294537	0.311585
O137	O	0.017160	-0.412547	0.311596
O138	O	-0.017046	-0.294538	0.395399
Zn139	Zn	0.000058	-0.338324	0.338279
Zn140	Zn	0.000050	-0.464608	0.464565
O141	O	0.100964	-0.412548	0.395410
C142	C	-0.658509	0.409981	-0.445764
C143	C	-0.734531	0.450445	-0.481329
C144	C	-0.623506	0.444336	-0.480603
C145	C	-0.554145	0.305606	-0.341405
C146	C	-0.518581	0.234473	-0.265388
C147	C	-0.519300	0.340120	-0.376403
C148	C	-0.554145	0.409973	-0.445758
C149	C	-0.518581	0.450429	-0.481315
C150	C	-0.623506	0.340128	-0.376409
C151	C	-0.489849	0.483114	-0.510041
C152	C	-0.795950	0.483137	-0.510060
C153	C	-0.489849	0.177005	-0.203973
C154	C	-0.453803	0.524118	-0.546079
C155	C	-0.873002	0.524149	-0.546106
C156	C	-0.453803	0.104908	-0.126926
H157	H	-0.213155	-0.187119	-0.026123
H158	H	-0.037042	-0.303373	-0.348309
C159	C	-0.421414	-0.407634	0.203749
C160	C	-0.425165	-0.343803	0.143364
C161	C	-0.495106	-0.274671	0.108724
H162	H	-0.437299	-0.391929	0.234470
H163	H	-0.450428	-0.419740	0.190480
H164	H	-0.396161	-0.331697	0.156635
H165	H	-0.409294	-0.359481	0.112627
H166	H	-0.524120	-0.286778	0.095454
H167	H	-0.510986	-0.258974	0.139450
H168	H	-0.497662	-0.231356	0.067745
H169	H	-0.037033	-0.114087	-0.537600
H170	H	-0.462316	-0.688790	0.037110
H171	H	-0.651625	-0.114068	-0.537619
C172	C	-0.443294	-0.321997	-0.339023
C173	C	-0.400735	-0.303843	-0.376557
C174	C	-0.330693	-0.372762	-0.342113
H175	H	-0.440500	-0.365461	-0.336591
H176	H	-0.427439	-0.337591	-0.292627
H177	H	-0.416585	-0.288260	-0.422941
H178	H	-0.403507	-0.260390	-0.378991
H179	H	-0.314838	-0.388356	-0.295717
H180	H	-0.327908	-0.416222	-0.339683
H181	H	-0.301808	-0.360452	-0.367571
C182	C	-0.660856	-0.480852	0.037486
C183	C	-0.623298	-0.499013	0.098191
C184	C	-0.657678	-0.430068	0.099273
H185	H	-0.707262	-0.465180	0.037736
H186	H	-0.663238	-0.437437	-0.003207
H187	H	-0.620924	-0.542414	0.138873
H188	H	-0.576893	-0.514676	0.097954
H189	H	-0.660059	-0.386653	0.058579
H190	H	-0.704082	-0.414401	0.099521
H191	H	-0.632196	-0.442378	0.140456
C192	C	-0.203683	-0.625331	0.203873
C193	C	-0.143308	-0.625613	0.200426
C194	C	-0.108670	-0.661029	0.165912
H195	H	-0.234410	-0.594780	0.157446
H196	H	-0.190401	-0.679725	0.229236
H197	H	-0.156591	-0.571229	0.175062
H198	H	-0.112565	-0.656168	0.246843
H199	H	-0.095389	-0.715423	0.191275
H200	H	-0.139403	-0.630474	0.119487
H201	H	-0.067700	-0.661232	0.163575
C202	C	0.026308	-0.625287	0.421486
C203	C	-0.033779	-0.568671	0.425244
C204	C	-0.032989	-0.604008	0.495179
H205	H	0.067411	-0.641056	0.450538
H206	H	0.026487	-0.671890	0.437320
H207	H	-0.033951	-0.522082	0.409419
H208	H	-0.074891	-0.552897	0.396208
H209	H	-0.032811	-0.650611	0.511013
H210	H	0.008116	-0.619776	0.524225
H211	H	-0.073760	-0.565602	0.497737
H212	H	-0.651631	-0.114076	-0.348323
H213	H	-0.213161	-0.615750	0.402524
C214	C	-0.421490	-0.177474	-0.026502
C215	C	-0.464036	-0.154333	-0.087202
C216	C	-0.534066	-0.118858	-0.088291
H217	H	-0.437409	-0.130814	-0.026761
H218	H	-0.424217	-0.215778	0.014194
H219	H	-0.461312	-0.116032	-0.127888
H220	H	-0.448139	-0.200978	-0.086956
H221	H	-0.536793	-0.157162	-0.047595
H222	H	-0.549978	-0.072202	-0.088548
H223	H	-0.562940	-0.103160	-0.129472
C224	C	-0.421474	-0.177331	0.203809
C225	C	-0.464011	-0.097232	0.184416
C226	C	-0.534040	-0.061566	0.149830
H227	H	-0.437408	-0.207807	0.234529
H228	H	-0.424189	-0.176983	0.162772
H229	H	-0.461300	-0.097584	0.225448
H230	H	-0.448100	-0.066735	0.153689
H231	H	-0.536755	-0.061219	0.108792
H232	H	-0.549967	-0.092048	0.180554
H233	H	-0.562909	-0.007213	0.136661
C234	C	0.026584	-0.407842	0.203836
C235	C	0.087291	-0.426011	0.184443
C236	C	0.088381	-0.357071	0.149876
H237	H	0.026836	-0.392168	0.234567
H238	H	-0.014108	-0.364425	0.162799
H239	H	0.127972	-0.469414	0.225474
H240	H	0.087051	-0.441675	0.153704
H241	H	0.047689	-0.313654	0.108839
H242	H	0.088631	-0.341403	0.180612
H243	H	0.129566	-0.369388	0.136708
H244	H	-0.462312	0.311227	-0.348296
H245	H	-0.651617	0.311257	-0.348309
H246	H	0.026202	-0.615781	0.213245
C247	C	-0.661087	-0.698316	0.037373
C248	C	-0.729453	-0.653110	0.037679
C249	C	-0.764094	-0.688457	0.038637
H250	H	-0.635770	-0.752667	0.078525
H251	H	-0.663538	-0.698594	-0.003350
H252	H	-0.726998	-0.652841	0.078397
H253	H	-0.754788	-0.598760	-0.003470
H254	H	-0.766545	-0.688734	-0.002086
H255	H	-0.738772	-0.742807	0.079790
H256	H	-0.810486	-0.657785	0.038838
C257	C	-0.203852	-0.177387	0.203904
C258	C	-0.241394	-0.097299	0.184537
C259	C	-0.206963	-0.061684	0.150059
H260	H	-0.201428	-0.177011	0.162864
H261	H	-0.157454	-0.207926	0.234702
H262	H	-0.287780	-0.066767	0.153741
H263	H	-0.243820	-0.097651	0.225564
H264	H	-0.160565	-0.092224	0.180856
H265	H	-0.204541	-0.061314	0.109022
H266	H	-0.232427	-0.007344	0.136920
C267	C	-0.203893	-0.395104	0.421560
C268	C	-0.241453	-0.376952	0.464104
C269	C	-0.207069	-0.445900	0.534133
H270	H	-0.157489	-0.410770	0.437484
H271	H	-0.201504	-0.438521	0.424281
H272	H	-0.243833	-0.333548	0.461387
H273	H	-0.287855	-0.361295	0.448203
H274	H	-0.204681	-0.489317	0.536854
H275	H	-0.160667	-0.461560	0.550050
H276	H	-0.232552	-0.433595	0.563007
C277	C	-0.037436	-0.104340	-0.339018
C278	C	-0.098150	-0.024246	-0.376568
C279	C	-0.099280	0.011367	-0.342138
H280	H	0.003235	-0.103977	-0.336587
H281	H	-0.037701	-0.134873	-0.292623
H282	H	-0.097879	0.006279	-0.422951
H283	H	-0.138831	-0.024586	-0.379000
H284	H	-0.099545	-0.019165	-0.295742
H285	H	-0.058606	0.011725	-0.339709
H286	H	-0.140477	0.065712	-0.367606
C287	C	-0.203846	-0.395206	-0.026277
C288	C	-0.200404	-0.459044	0.033790
C289	C	-0.165941	-0.528152	0.032949
H290	H	-0.157419	-0.410920	-0.026463
H291	H	-0.229241	-0.383068	-0.067407
H292	H	-0.175008	-0.471181	0.074909
H293	H	-0.246821	-0.443356	0.033989
H294	H	-0.191336	-0.516015	-0.008181
H295	H	-0.119516	-0.543859	0.032761
H296	H	-0.163606	-0.571472	0.073700
C297	C	-0.661118	0.519331	-0.556563
C298	C	-0.729496	0.542207	-0.579713
C299	C	-0.764170	0.611303	-0.649672
H300	H	-0.635834	0.507278	-0.585641
H301	H	-0.663549	0.562747	-0.559235
H302	H	-0.727061	0.498802	-0.577047
H303	H	-0.754798	0.554277	-0.550655
H304	H	-0.766601	0.654718	-0.652344
H305	H	-0.738881	0.599242	-0.678743
H306	H	-0.810570	0.626837	-0.665386
