data_functionalizedCrystal
_audit_creation_method	'MofGen! by Chris Wilmer'
_symmetry_space_group_name_H-M	'P1'
_symmetry_Int_Tables_number	1
_symmetry_cell_setting	triclinic
loop_
_symmetry_equiv_pos_as_xyz
  x,y,z
_cell_length_a	9.065215
_cell_length_b	15.995292
_cell_length_c	7.540329
_cell_angle_alpha	90.004132
_cell_angle_beta	90.002642
_cell_angle_gamma	84.241657
loop_
_atom_site_label
_atom_site_type_symbol
_atom_site_fract_x
_atom_site_fract_y
_atom_site_fract_z
O1	O	0.189751	1.112452	0.147527
O2	O	0.213323	0.868849	0.147519
O3	O	-0.013226	0.995687	0.147516
O4	O	0.416300	0.985614	0.147531
O5	O	-0.013228	0.995679	-0.147449
O6	O	0.213321	0.868841	-0.147446
O7	O	0.189749	1.112444	-0.147438
Cu8	Cu	0.201534	0.990642	-0.174375
Cu9	Cu	0.201538	0.990651	0.174456
O10	O	0.416298	0.985606	-0.147434
C11	C	0.212363	0.837642	0.000036
C12	C	0.209486	0.744667	0.000033
C13	C	0.198913	0.406849	0.000053
C14	C	0.362430	0.431400	0.000717
C15	C	0.365538	0.528099	0.000045
C16	C	0.204159	0.574444	0.000044
C17	C	0.122407	0.544719	-0.168392
C18	C	0.120438	0.447913	-0.168526
C19	C	0.117103	0.448041	0.166904
C20	C	0.123162	0.544580	0.169123
C21	C	0.207116	0.669163	0.000033
C22	C	0.195951	0.312131	0.000052
C23	C	-0.068191	0.994716	0.000035
C24	C	-0.231965	0.991823	0.000040
C25	C	0.471263	0.986578	0.000050
C26	C	0.635037	0.989470	0.000056
C27	C	0.190709	1.143651	0.000049
C28	C	0.193586	1.236626	0.000064
N29	N	0.201531	0.990642	-0.419723
N30	N	0.201529	0.990658	0.419804
H31	H	0.000547	0.432454	-0.176178
H32	H	0.425458	0.403885	0.121511
H33	H	0.425106	0.402853	-0.119394
H34	H	0.179177	0.565205	-0.293742
Br35	Br	0.472882	0.559590	-0.201544
Br36	Br	-0.073172	0.598037	0.186079
H37	H	0.003654	0.575687	-0.174656
Br38	Br	0.202302	0.401488	0.379691
Br39	Br	0.214806	0.403921	-0.378378
H40	H	0.182686	0.563604	0.293731
Br41	Br	-0.083507	0.423207	0.168796
H42	H	0.429554	0.547614	0.120791
