data_functionalizedCrystal
_audit_creation_method	'MofGen! by Chris Wilmer'
_symmetry_space_group_name_H-M	'P1'
_symmetry_Int_Tables_number	1
_symmetry_cell_setting	triclinic
loop_
_symmetry_equiv_pos_as_xyz
  x,y,z
_cell_length_a	11.169417
_cell_length_b	25.639240
_cell_length_c	11.169409
_cell_angle_alpha	90.034264
_cell_angle_beta	90.019824
_cell_angle_gamma	90.032938
loop_
_atom_site_label
_atom_site_type_symbol
_atom_site_fract_x
_atom_site_fract_y
_atom_site_fract_z
Zn1	Zn	1.834781	-0.208096	0.678527
Zn2	Zn	1.834595	-0.295546	0.477837
Zn3	Zn	1.634067	-0.208128	0.477861
Zn4	Zn	1.633999	-0.295504	0.678482
O5	O	1.734360	-0.251819	0.578177
O6	O	2.002706	-0.219701	0.651913
O7	O	1.807945	-0.283981	0.309890
O8	O	1.660799	-0.134959	0.504509
O9	O	2.002569	-0.283950	0.504467
O10	O	1.808263	-0.134935	0.651937
O11	O	1.660618	-0.219755	0.309908
O12	O	1.466108	-0.219714	0.504465
O13	O	1.660682	-0.283878	0.846437
O14	O	1.466058	-0.283909	0.651860
O15	O	1.808196	-0.219660	0.846470
O16	O	1.807878	-0.368706	0.504424
O17	O	1.660501	-0.368675	0.651837
C18	C	1.422536	-0.251811	0.578161
C19	C	1.289136	-0.251820	0.578183
C20	C	1.734195	-0.387661	0.578149
C21	C	1.734233	-0.445775	0.578177
C22	C	1.811138	-0.696905	0.655021
C23	C	1.811102	-0.642301	0.655012
O24	O	1.876351	-0.614010	0.720307
N25	N	1.734365	-0.615049	0.578192
C26	C	1.657667	-0.642404	0.501368
O27	O	1.592394	-0.614211	0.436025
C28	C	1.657710	-0.697008	0.501372
C29	C	1.734444	-0.724257	0.578205
C30	C	1.887866	-0.724154	0.731847
C31	C	1.887900	-0.778755	0.731857
C32	C	1.811206	-0.806106	0.655042
C33	C	1.734478	-0.778857	0.578216
C34	C	1.581020	-0.724362	0.424543
C35	C	1.581070	-0.778969	0.424553
C36	C	1.657804	-0.806218	0.501386
C37	C	1.657818	-0.860809	0.501410
N38	N	1.734555	-0.888061	0.578230
C39	C	1.811249	-0.860710	0.655045
C40	C	1.657584	-0.527734	0.501364
C41	C	1.657534	-0.473131	0.501365
C42	C	1.810971	-0.473032	0.655008
C43	C	1.811014	-0.527635	0.655012
C44	C	1.734321	-0.554986	0.578184
C45	C	1.811314	-0.975375	0.655062
C46	C	1.811338	-1.029980	0.655069
C47	C	1.657907	-1.030075	0.501423
C48	C	1.657878	-0.975474	0.501420
C49	C	1.734592	-0.948126	0.578243
O50	O	1.592606	-0.889134	0.436145
O51	O	1.876523	-0.888910	0.720366
C52	C	2.047403	-0.251827	0.578193
C53	C	2.180803	-0.251830	0.578200
C54	C	1.734453	-0.251761	0.891219
C55	C	1.734492	-0.251736	1.024619
C56	C	1.734559	-0.115446	0.578230
C57	C	1.734644	-0.057331	0.578254
C58	C	1.734338	-0.251839	0.266352
C59	C	1.734531	-0.251716	0.132952
H60	H	1.873783	-0.953113	0.717617
H61	H	1.595462	-1.052354	0.438885
H62	H	1.950325	-0.701889	0.794399
H63	H	1.518538	-0.702184	0.361978
N64	N	1.966290	-0.806576	0.810349
N65	N	2.034755	-0.782140	0.878922
H66	H	2.090125	-0.801786	0.934360
H67	H	1.873492	-0.549817	0.717581
H68	H	1.595121	-0.549999	0.438805
H69	H	1.518618	-0.801235	0.361987
H70	H	1.873822	-1.052164	0.717643
N71	N	1.579132	-0.445295	0.422914
N72	N	1.502606	-0.414846	0.465076
H73	H	1.447231	-0.395188	0.409667
N74	N	1.889356	-0.445086	0.733434
N75	N	1.965831	-0.414609	0.691224
H76	H	2.021199	-0.394874	0.746601
N77	N	1.579474	-0.947645	0.422949
N78	N	1.510995	-0.972075	0.354377
H79	H	1.455625	-0.952425	0.298949
