data_functionalizedCrystal
_audit_creation_method	'MofGen! by Chris Wilmer'
_symmetry_space_group_name_H-M	'P1'
_symmetry_Int_Tables_number	1
_symmetry_cell_setting	triclinic
loop_
_symmetry_equiv_pos_as_xyz
  x,y,z
_cell_length_a	12.837943
_cell_length_b	11.792254
_cell_length_c	11.892095
_cell_angle_alpha	93.915908
_cell_angle_beta	85.689438
_cell_angle_gamma	89.513769
loop_
_atom_site_label
_atom_site_type_symbol
_atom_site_fract_x
_atom_site_fract_y
_atom_site_fract_z
O1	O	1.383715	0.288690	-0.093984
O2	O	1.883715	0.788690	0.406016
O3	O	1.081827	0.274106	-0.093991
O4	O	1.581827	0.774106	0.406009
O5	O	1.240090	0.116971	-0.093980
O6	O	1.740090	0.616971	0.406020
O7	O	1.225453	0.445824	-0.093996
O8	O	1.725453	0.945824	0.406004
O9	O	1.226894	0.130050	0.094027
O10	O	1.726894	0.630050	0.594027
O11	O	1.068632	0.287185	0.094016
O12	O	1.568632	0.787185	0.594016
O13	O	1.370519	0.301769	0.094022
O14	O	1.870519	0.801769	0.594022
Zn15	Zn	1.217480	0.296554	0.123869
Zn16	Zn	1.717480	0.796554	0.623869
Zn17	Zn	1.234866	0.279321	-0.123838
Zn18	Zn	1.734866	0.779321	0.376162
O19	O	1.212257	0.458904	0.094011
O20	O	1.712257	0.958904	0.594011
C21	C	1.036581	0.275718	0.000011
C22	C	1.536581	0.775718	0.500011
C23	C	0.921421	0.261025	0.000009
C24	C	1.421421	0.761025	0.500009
C25	C	1.232570	0.081126	0.000023
C26	C	1.732570	0.581126	0.500023
C27	C	1.229810	-0.045167	0.000022
C28	C	1.729810	0.454833	0.500022
C29	C	0.681462	0.437671	0.000017
C30	C	1.181462	0.937671	0.500017
C31	C	0.573258	0.423870	0.000015
C32	C	1.073258	0.923870	0.500015
C33	C	0.596807	0.219623	0.000013
C34	C	1.096807	0.719623	0.500013
C35	C	0.705010	0.233424	0.000015
C36	C	1.205010	0.733424	0.500015
C37	C	0.747334	0.342451	0.000015
C38	C	1.247334	0.842451	0.500015
C39	C	0.855541	0.356251	0.000008
C40	C	1.355541	0.856251	0.500008
C41	C	0.879086	0.152006	0.000014
C42	C	1.379086	0.652006	0.500014
C43	C	0.770882	0.138205	0.000013
C44	C	1.270882	0.638205	0.500013
C45	C	1.227568	-0.147731	0.000018
C46	C	1.727568	0.352269	0.500018
C47	C	1.224764	-0.276403	0.000008
C48	C	1.724764	0.223597	0.500008
C49	C	1.415766	0.300156	0.000017
C50	C	1.915766	0.800156	0.500017
C51	C	1.530926	0.314849	0.000012
C52	C	2.030926	0.814849	0.500012
C53	C	1.219777	0.494748	0.000005
C54	C	1.719777	0.994748	0.500005
C55	C	1.222537	0.621041	-0.000001
C56	C	1.722537	1.121041	0.499999
N57	N	1.205622	0.308314	0.292922
N58	N	1.705622	0.808314	0.792922
N59	N	1.246732	0.267552	-0.292891
N60	N	1.746732	0.767552	0.207109
C61	C	1.329245	0.185650	0.529579
C62	C	1.829245	0.685650	1.029579
C63	C	1.320964	0.193880	0.647920
C64	C	1.820964	0.693880	1.147920
C65	C	1.180775	0.332997	0.647948
C66	C	1.680775	0.832997	1.147948
C67	C	1.189056	0.324767	0.529607
C68	C	1.689056	0.824767	1.029607
C69	C	1.263294	0.251093	0.470426
C70	C	1.763294	0.751093	0.970426
C71	C	1.271580	0.242870	0.352083
C72	C	1.771580	0.742870	0.852083
C73	C	1.131387	0.381980	0.352113
C74	C	1.631387	0.881980	0.852113
C75	C	1.123106	0.390210	0.470454
C76	C	1.623106	0.890210	0.970454
H77	H	0.889998	0.445026	0.000010
H78	H	1.389998	0.945026	0.500010
O79	O	0.722408	0.543655	0.000059
O80	O	1.222408	1.043655	0.500059
C81	C	0.641065	0.624740	0.000022
C82	C	1.141065	1.124740	0.500022
H83	H	0.564886	0.587444	0.035618
H84	H	1.064886	1.087444	0.535618
H85	H	0.660266	0.703949	0.054598
H86	H	1.160266	1.203949	0.554598
H87	H	0.632268	0.648393	-0.090177
H88	H	1.132268	1.148393	0.409823
H89	H	0.736406	0.049439	0.000026
H90	H	1.236406	0.549439	0.500026
H91	H	0.932732	0.074471	0.000005
H92	H	1.432732	0.574471	0.500005
H93	H	0.519628	0.501408	0.000020
H94	H	1.019628	1.001408	0.500020
H95	H	1.389699	0.125670	0.481393
H96	H	1.889699	0.625670	0.981393
H97	H	1.374666	0.140589	0.696079
H98	H	1.874666	0.640589	1.196079
H99	H	0.562321	0.130865	0.000107
H100	H	1.062321	0.630865	0.500107
H101	H	1.332031	0.182883	0.303899
H102	H	1.832031	0.682883	0.803899
H103	H	1.062660	0.450191	0.518653
H104	H	1.562660	0.950191	1.018653
H105	H	1.120325	0.392973	0.696148
H106	H	1.620325	0.892973	1.196148
O107	O	1.067374	0.445445	0.294476
O108	O	1.567374	0.945445	0.794476
C109	C	1.090623	0.422416	0.177334
C110	C	1.590623	0.922416	0.677334
H111	H	1.129998	0.335211	0.161159
H112	H	1.629998	0.835211	0.661159
H113	H	1.015297	0.423401	0.132369
H114	H	1.515297	0.923401	0.632369
H115	H	1.145371	0.490013	0.143750
H116	H	1.645371	0.990013	0.643750
