data_functionalizedCrystal
_audit_creation_method	'MofGen! by Chris Wilmer'
_symmetry_space_group_name_H-M	'P1'
_symmetry_Int_Tables_number	1
_symmetry_cell_setting	triclinic
loop_
_symmetry_equiv_pos_as_xyz
  x,y,z
_cell_length_a	10.685901
_cell_length_b	10.686285
_cell_length_c	17.077396
_cell_angle_alpha	85.608118
_cell_angle_beta	94.362478
_cell_angle_gamma	81.630962
loop_
_atom_site_label
_atom_site_type_symbol
_atom_site_fract_x
_atom_site_fract_y
_atom_site_fract_z
Zn1	Zn	1.979321	-0.653888	-0.318046
Zn2	Zn	2.479321	-0.153888	0.181954
Zn3	Zn	1.995513	-0.866148	-0.175903
Zn4	Zn	2.495513	-0.366148	0.324097
Zn5	Zn	1.767072	-0.637681	-0.197718
Zn6	Zn	2.267072	-0.137681	0.302282
Zn7	Zn	1.783353	-0.849829	-0.318052
Zn8	Zn	2.283353	-0.349829	0.181948
O9	O	1.881315	-0.751887	-0.252430
O10	O	2.381315	-0.251887	0.247570
O11	O	2.159086	-0.695657	-0.290059
O12	O	2.659086	-0.195657	0.209941
O13	O	1.965173	-0.835888	-0.068950
O14	O	2.465173	-0.335888	0.431050
O15	O	1.781637	-0.462215	-0.222807
O16	O	2.281637	0.037785	0.277193
O17	O	2.170982	-0.851604	-0.185627
O18	O	2.670982	-0.351604	0.314373
O19	O	1.937576	-0.474122	-0.311211
O20	O	2.437576	0.025878	0.188789
O21	O	1.797338	-0.668035	-0.084977
O22	O	2.297338	-0.168035	0.415023
O23	O	1.591614	-0.652211	-0.222812
O24	O	2.091614	-0.152211	0.277188
O25	O	1.809386	-0.823790	-0.427898
O26	O	2.309386	-0.323790	0.072102
O27	O	1.603576	-0.808075	-0.311221
O28	O	2.103576	-0.308075	0.188779
O29	O	1.953363	-0.679833	-0.427894
O30	O	2.453363	-0.179833	0.072106
O31	O	1.980960	-1.041599	-0.185633
O32	O	2.480960	-0.541599	0.314367
O33	O	1.825087	-1.029609	-0.290068
O34	O	2.325087	-0.529609	0.209932
C35	C	1.551541	-0.726614	-0.269385
C36	C	2.051541	-0.226614	0.230615
C37	C	1.410465	-0.715833	-0.276655
C38	C	1.910465	-0.215833	0.223345
C39	C	1.906582	-1.081661	-0.235499
C40	C	2.406582	-0.581661	0.264501
C41	C	1.917507	-1.222748	-0.228277
C42	C	2.417507	-0.722748	0.271723
C43	C	2.212376	-0.777259	-0.235409
C44	C	2.712376	-0.277259	0.264591
C45	C	2.353455	-0.788071	-0.228156
C46	C	2.853455	-0.288071	0.271844
C47	C	1.881384	-0.751799	-0.457175
C48	C	2.381384	-0.251799	0.042825
C49	C	1.881414	-0.751762	-0.544425
C50	C	2.381414	-0.251762	-0.044425
C51	C	1.855984	-0.420827	-0.269442
C52	C	2.355984	0.079173	0.230558
C53	C	1.845189	-0.279750	-0.276691
C54	C	2.345189	0.220250	0.223309
C55	C	1.956385	-0.676797	-0.585415
C56	C	2.456385	-0.176797	-0.085415
C57	C	1.956397	-0.676756	-0.667396
C58	C	2.456397	-0.176756	-0.167396
C59	C	1.881444	-0.751687	-0.708387
C60	C	2.381444	-0.251687	-0.208387
C61	C	1.806464	-0.826655	-0.667392
C62	C	2.306464	-0.326655	-0.167392
C63	C	1.806446	-0.826688	-0.585412
C64	C	2.306446	-0.326688	-0.085412
C65	C	1.806509	-0.826582	-0.838263
C66	C	2.306509	-0.326582	-0.338263
C67	C	1.806529	-0.826551	-0.920248
C68	C	2.306529	-0.326551	-0.420248
C69	C	1.956461	-0.676650	-0.920248
C70	C	2.456461	-0.176650	-0.420248
C71	C	1.956443	-0.676683	-0.838268
C72	C	2.456443	-0.176683	-0.338268
C73	C	1.881464	-0.751653	-0.797278
C74	C	2.381464	-0.251653	-0.297278
C75	C	1.881311	-0.751888	-0.048482
C76	C	2.381311	-0.251888	0.451518
C77	C	1.881500	-0.751586	0.038762
C78	C	2.381500	-0.251586	0.538762
H79	H	1.351341	-0.645742	-0.323744
H80	H	1.851341	-0.145742	0.176256
H81	H	1.745383	-0.887718	-0.552041
H82	H	2.245383	-0.387718	-0.052041
O83	O	1.761537	-1.209168	-0.332816
O84	O	2.261537	-0.709168	0.167184
C85	C	1.827878	-1.137880	-0.383714
C86	C	2.327878	-0.637880	0.116286
H87	H	1.930895	-1.185479	-0.381451
H88	H	2.430895	-0.685479	0.118549
H89	H	1.781790	-1.132703	-0.446548
H90	H	2.281790	-0.632703	0.053452
H91	H	1.824593	-1.037817	-0.364301
H92	H	2.324593	-0.537817	0.135699
H93	H	1.412573	-0.858168	-0.181076
H94	H	1.912573	-0.358168	0.318924
H95	H	1.987774	-1.281889	-0.181293
H96	H	2.487774	-0.781889	0.318707
H97	H	2.017425	-0.615783	-0.552046
H98	H	2.517425	-0.115783	-0.052046
O99	O	2.029347	-0.603909	-0.707087
O100	O	2.529347	-0.103909	-0.207087
C101	C	2.095481	-0.537764	-0.653331
C102	C	2.595481	-0.037764	-0.153331
H103	H	2.103836	-0.590117	-0.591996
H104	H	2.603836	-0.090117	-0.091996
H105	H	2.194456	-0.531887	-0.672575
H106	H	2.694456	-0.031887	-0.172575
H107	H	2.041632	-0.437805	-0.651952
H108	H	2.541632	0.062195	-0.151952
H109	H	2.017484	-0.615675	-0.804895
H110	H	2.517484	-0.115675	-0.304895
O111	O	2.029162	-0.603836	-0.960187
O112	O	2.529162	-0.103836	-0.460187
C113	C	2.013121	-0.619882	-1.041333
C114	C	2.513121	-0.119882	-0.541333
H115	H	1.918355	-0.653949	-1.055422
H116	H	2.418355	-0.153949	-0.555422
H117	H	2.014447	-0.525448	-1.076928
H118	H	2.514447	-0.025448	-0.576928
H119	H	2.093588	-0.693221	-1.057266
H120	H	2.593588	-0.193221	-0.557266
H121	H	1.745492	-0.887564	-0.953621
H122	H	2.245492	-0.387564	-0.453621
H123	H	1.745433	-0.887609	-0.804894
H124	H	2.245433	-0.387609	-0.304894
O125	O	1.733730	-0.899624	-0.707110
O126	O	2.233730	-0.399624	-0.207110
C127	C	1.771163	-1.028263	-0.679163
C128	C	2.271163	-0.528263	-0.179163
H129	H	1.820140	-1.034657	-0.616998
H130	H	2.320140	-0.534657	-0.116998
H131	H	1.683913	-1.078157	-0.678140
H132	H	2.183913	-0.578157	-0.178140
H133	H	1.839703	-1.075997	-0.719751
H134	H	2.339703	-0.575997	-0.219751
