data_functionalizedCrystal
_audit_creation_method	'MofGen! by Chris Wilmer'
_symmetry_space_group_name_H-M	'P1'
_symmetry_Int_Tables_number	1
_symmetry_cell_setting	triclinic
loop_
_symmetry_equiv_pos_as_xyz
  x,y,z
_cell_length_a	19.077115
_cell_length_b	21.295417
_cell_length_c	19.076919
_cell_angle_alpha	92.267699
_cell_angle_beta	90.076897
_cell_angle_gamma	87.725900
loop_
_atom_site_label
_atom_site_type_symbol
_atom_site_fract_x
_atom_site_fract_y
_atom_site_fract_z
Zn1	Zn	1.058240	-0.304535	-0.440381
Zn2	Zn	1.558240	0.195465	0.059619
Zn3	Zn	1.062869	-0.405748	-0.322866
Zn4	Zn	1.562869	0.094252	0.177134
Zn5	Zn	0.945458	-0.296102	-0.318176
Zn6	Zn	1.445458	0.203898	0.181824
Zn7	Zn	0.940691	-0.405368	-0.435620
Zn8	Zn	1.440691	0.094632	0.064380
O9	O	1.001815	-0.352938	-0.379261
O10	O	1.501815	0.147062	0.120739
O11	O	1.157185	-0.321649	-0.428748
O12	O	1.657185	0.178351	0.071252
O13	O	1.051227	-0.387833	-0.223913
O14	O	1.551227	0.112167	0.276087
O15	O	0.960476	-0.209134	-0.334417
O16	O	1.460476	0.290866	0.165583
O17	O	1.160587	-0.396009	-0.342410
O18	O	1.660587	0.103991	0.157590
O19	O	1.043336	-0.215330	-0.424200
O20	O	1.543336	0.284670	0.075800
O21	O	0.964966	-0.307276	-0.220468
O22	O	1.464966	0.192724	0.279532
O23	O	0.846495	-0.306908	-0.329801
O24	O	1.346495	0.193092	0.170199
O25	O	0.952352	-0.395363	-0.534583
O26	O	1.452352	0.104637	-0.034583
O27	O	0.842992	-0.387186	-0.416086
O28	O	1.342992	0.112814	0.083914
O29	O	1.038714	-0.321281	-0.538081
O30	O	1.538714	0.178719	-0.038081
O31	O	1.046605	-0.493784	-0.337794
O32	O	1.546605	0.006216	0.162206
O33	O	0.956841	-0.493505	-0.420633
O34	O	1.456841	0.006495	0.079367
C35	C	0.819247	-0.346091	-0.371918
C36	C	1.319247	0.153909	0.128082
C37	C	0.741143	-0.343178	-0.368794
C38	C	1.241143	0.156822	0.131206
C39	C	0.301695	-0.322256	-0.346390
C40	C	0.801695	0.177744	0.153610
C41	C	0.375081	-0.324997	-0.349330
C42	C	0.875081	0.175003	0.150670
C43	C	0.409970	-0.368227	-0.395651
C44	C	0.909970	0.131773	0.104349
C45	C	0.371468	-0.408714	-0.439040
C46	C	0.871468	0.091286	0.060960
C47	C	0.298083	-0.405970	-0.436103
C48	C	0.798083	0.094030	0.063897
C49	C	0.629256	-0.380921	-0.409246
C50	C	1.129256	0.119079	0.090754
C51	C	0.702647	-0.383664	-0.412178
C52	C	1.202647	0.116336	0.087822
C53	C	0.706255	-0.299945	-0.322468
C54	C	1.206255	0.200055	0.177532
C55	C	0.632868	-0.297207	-0.319533
C56	C	1.132868	0.202793	0.180467
C57	C	0.594372	-0.337692	-0.362925
C58	C	1.094372	0.162308	0.137075
N59	N	0.484983	-0.371031	-0.398655
N60	N	0.984983	0.128969	0.101345
N61	N	0.519360	-0.334884	-0.359923
N62	N	1.019360	0.165116	0.140077
C63	C	1.001727	-0.516485	-0.379222
C64	C	1.501727	-0.016485	0.120778
C65	C	1.001752	-0.586454	-0.379231
C66	C	1.501752	-0.086454	0.120769
C67	C	1.044870	-0.622490	-0.426012
C68	C	1.544870	-0.122490	0.073988
C69	C	1.044894	-0.688234	-0.426031
C70	C	1.544894	-0.188234	0.073969
C71	C	1.001808	-0.717940	-0.379256
C72	C	1.501808	-0.217940	0.120744
C73	C	0.958682	-0.681896	-0.332471
C74	C	1.458682	-0.181896	0.167529
C75	C	0.958653	-0.616153	-0.332459
C76	C	1.458653	-0.116153	0.167541
N77	N	0.998974	-0.818882	-0.317547
N78	N	1.498974	-0.318882	0.182453
N79	N	0.999005	-0.881335	-0.317561
N80	N	1.499005	-0.381335	0.182439
C81	C	1.001889	-0.916019	-0.379291
C82	C	1.501889	-0.416019	0.120709
N83	N	1.004755	-0.885891	-0.441008
N84	N	1.504755	-0.385891	0.058992
N85	N	1.004728	-0.823432	-0.440994
N86	N	1.504728	-0.323432	0.059006
C87	C	1.001834	-0.789226	-0.379264
C88	C	1.501834	-0.289226	0.120736
C89	C	1.045036	-1.023342	-0.426096
C90	C	1.545036	-0.523342	0.073904
C91	C	1.045055	-1.089087	-0.426115
C92	C	1.545055	-0.589087	0.073885
C93	C	0.958846	-1.082747	-0.332549
C94	C	1.458846	-0.582747	0.167451
C95	C	0.958823	-1.017004	-0.332536
C96	C	1.458823	-0.517004	0.167464
C97	C	1.001921	-0.987305	-0.379308
C98	C	1.501921	-0.487305	0.120692
C99	C	1.185095	-0.359812	-0.386633
C100	C	1.685095	0.140188	0.113367
C101	C	1.263198	-0.362741	-0.389774
C102	C	1.763198	0.137259	0.110226
C103	C	0.994485	-0.359220	-0.562541
C104	C	1.494485	0.140780	-0.062541
C105	C	0.991361	-0.361897	-0.640644
C106	C	1.491361	0.138103	-0.140644
C107	C	1.001922	-0.188754	-0.379316
C108	C	1.501922	0.311246	0.120684
C109	C	1.001967	-0.118788	-0.379340
C110	C	1.501967	0.381212	0.120660
C111	C	1.034855	-0.324586	-0.679159
C112	C	1.534855	0.175414	-0.179159
C113	C	1.031912	-0.327098	-0.752544
C114	C	1.531912	0.172902	-0.252544
C115	C	0.985477	-0.366926	-0.787414
C116	C	1.485477	0.133074	-0.287414
C117	C	0.941978	-0.404238	-0.748893
C118	C	1.441978	0.095762	-0.248893
C119	C	0.944918	-0.401722	-0.675509
C120	C	1.444918	0.098278	-0.175509
C121	C	0.971858	-0.378584	-1.006694
C122	C	1.471858	0.121416	-0.506694
C123	C	0.968922	-0.381099	-1.080084
C124	C	1.468922	0.118901	-0.580084
C125	C	1.058856	-0.303958	-1.083730
C126	C	1.558856	0.196042	-0.583730
C127	C	1.061795	-0.301448	-1.010344
C128	C	1.561795	0.198552	-0.510344
C129	C	1.018293	-0.338758	-0.971830
C130	C	1.518293	0.161242	-0.471830
N131	N	0.982469	-0.369496	-0.862426
N132	N	1.482469	0.130504	-0.362426
N133	N	1.021298	-0.336183	-0.896819
N134	N	1.521298	0.163817	-0.396819
C135	C	1.009157	-0.346637	-0.196696
C136	C	1.509157	0.153363	0.303304
C137	C	1.012416	-0.343788	-0.118599
C138	C	1.512416	0.156212	0.381401
H139	H	0.604467	-0.262008	-0.281808
H140	H	1.104467	0.237992	0.218192
O141	O	0.416606	-0.281346	-0.302518
O142	O	0.916606	0.218654	0.197482
H143	H	0.380018	-0.250836	-0.269803
H144	H	0.880018	0.249164	0.230197
O145	O	1.105751	-0.263704	-1.125278
O146	O	1.605751	0.236296	-0.625278
H147	H	1.140141	-0.294355	-1.160154
H148	H	1.640141	0.205645	-0.660154
O149	O	0.747781	-0.256281	-0.275675
O150	O	1.247781	0.243719	0.224325
H151	H	0.735890	-0.264585	-0.219939
H152	H	1.235890	0.235415	0.280061
O153	O	0.740281	-0.430288	-0.462146
O154	O	1.240281	0.069712	0.037854
H155	H	0.701184	-0.457975	-0.491831
H156	H	1.201184	0.042025	0.008169
H157	H	0.931107	-0.413532	-1.108472
H158	H	1.431107	0.086468	-0.608472
H159	H	1.072670	-0.292156	-0.650774
H160	H	1.572670	0.207844	-0.150774
O161	O	0.256562	-0.449638	-0.482899
O162	O	0.756562	0.050362	0.017101
H163	H	0.199671	-0.440462	-0.473082
H164	H	0.699671	0.059538	0.026918
O165	O	0.587745	-0.424708	-0.455901
O166	O	1.087745	0.075292	0.044099
H167	H	0.624339	-0.455276	-0.488546
H168	H	1.124339	0.044724	0.011454
H169	H	0.399881	-0.443911	-0.476759
H170	H	0.899881	0.056089	0.023241
H171	H	1.080166	-1.118426	-0.464213
H172	H	1.580166	-0.618426	0.035787
O173	O	1.091366	-0.590456	-0.476446
O174	O	1.591366	-0.090456	0.023554
H175	H	1.121355	-0.626564	-0.508977
H176	H	1.621355	-0.126564	-0.008977
H177	H	0.923541	-0.586812	-0.294363
H178	H	1.423541	-0.086812	0.205637
O179	O	1.091407	-0.727114	-0.476484
O180	O	1.591407	-0.227114	0.023516
H181	H	1.121375	-0.695417	-0.509001
H182	H	1.621375	-0.195417	-0.009001
O183	O	0.264079	-0.275631	-0.296417
O184	O	0.764079	0.224369	0.203583
H185	H	0.232065	-0.301280	-0.259262
H186	H	0.732065	0.198720	0.240738
H187	H	0.923760	-1.106933	-0.294468
H188	H	1.423760	-0.606933	0.205532
H189	H	0.923599	-0.706087	-0.294388
H190	H	1.423599	-0.206087	0.205612
O191	O	1.091511	-0.991301	-0.476545
O192	O	1.591511	-0.491301	0.023455
H193	H	1.121491	-1.027408	-0.509087
H194	H	1.621491	-0.527408	-0.009087
O195	O	0.912330	-0.978130	-0.282066
O196	O	1.412330	-0.478130	0.217934
H197	H	0.882379	-1.009829	-0.249536
H198	H	1.382379	-0.509829	0.250464
H199	H	1.067331	-0.296717	-0.783900
H200	H	1.567331	0.203283	-0.283900
O201	O	1.111881	-0.258494	-0.972734
O202	O	1.611881	0.241506	-0.472734
H203	H	1.141630	-0.232969	-1.011846
H204	H	1.641630	0.267031	-0.511846
H205	H	0.936446	-0.408974	-0.975345
H206	H	1.436446	0.091026	-0.475345
H207	H	0.904167	-0.436664	-0.777290
H208	H	1.404167	0.063336	-0.277290
H209	H	0.909493	-0.432098	-0.644150
H210	H	1.409493	0.067902	-0.144150
