data_functionalizedCrystal
_audit_creation_method	'MofGen! by Chris Wilmer'
_symmetry_space_group_name_H-M	'P1'
_symmetry_Int_Tables_number	1
_symmetry_cell_setting	triclinic
loop_
_symmetry_equiv_pos_as_xyz
  x,y,z
_cell_length_a	23.532407
_cell_length_b	27.731996
_cell_length_c	22.610064
_cell_angle_alpha	89.998076
_cell_angle_beta	89.994501
_cell_angle_gamma	82.735067
loop_
_atom_site_label
_atom_site_type_symbol
_atom_site_fract_x
_atom_site_fract_y
_atom_site_fract_z
O1	O	0.755125	0.058674	-0.049155
O2	O	1.255125	0.558674	0.450845
O3	O	0.589242	0.067164	-0.049165
O4	O	1.089242	0.567164	0.450835
O5	O	0.677351	-0.007471	-0.049147
O6	O	1.177351	0.492529	0.450853
O7	O	0.667016	0.133310	-0.049173
O8	O	1.167016	0.633310	0.450827
O9	O	0.677335	-0.007461	0.049222
O10	O	1.177335	0.492539	0.549222
O11	O	0.589226	0.067175	0.049204
O12	O	1.089226	0.567175	0.549204
O13	O	0.755110	0.058685	0.049214
O14	O	1.255110	0.558685	0.549214
Zn15	Zn	0.672165	0.062932	0.064827
Zn16	Zn	1.172165	0.562932	0.564827
Zn17	Zn	0.672186	0.062917	-0.064778
Zn18	Zn	1.172186	0.562917	0.435222
O19	O	0.667001	0.133321	0.049196
O20	O	1.167001	0.633321	0.549196
C21	C	0.568019	0.066954	0.000018
C22	C	1.068019	0.566954	0.500018
C23	C	0.504803	0.066303	0.000015
C24	C	1.004803	0.566303	0.500015
C25	C	0.238746	0.019455	0.000040
C26	C	0.738746	0.519455	0.500040
C27	C	0.298145	0.020059	0.000039
C28	C	0.798145	0.520059	0.500039
O29	O	0.334977	-0.017106	0.000067
O30	O	0.834977	0.482894	0.500067
N31	N	0.320666	0.064430	0.000027
N32	N	0.820666	0.564430	0.500027
C33	C	0.283786	0.108200	0.000021
C34	C	0.783786	0.608200	0.500021
O35	O	0.308396	0.145996	0.000011
O36	O	0.808396	0.645996	0.500011
C37	C	0.224388	0.107595	0.000026
C38	C	0.724388	0.607595	0.500026
C39	C	0.201870	0.063221	0.000032
C40	C	0.701870	0.563221	0.500032
C41	C	0.216227	-0.024915	0.000047
C42	C	0.716227	0.475085	0.500047
C43	C	0.156832	-0.025519	0.000046
C44	C	0.656832	0.474481	0.500046
C45	C	0.119956	0.018248	0.000038
C46	C	0.619956	0.518248	0.500038
C47	C	0.142475	0.062618	0.000031
C48	C	0.642475	0.562618	0.500031
C49	C	0.187509	0.151365	0.000024
C50	C	0.687509	0.651365	0.500024
C51	C	0.128108	0.150757	0.000029
C52	C	0.628108	0.650757	0.500029
C53	C	0.105589	0.106383	0.000035
C54	C	0.605589	0.606383	0.500035
C55	C	0.046205	0.105781	0.000022
C56	C	0.546205	0.605781	0.500022
N57	N	0.023683	0.061410	0.000035
N58	N	0.523683	0.561410	0.500035
C59	C	0.060559	0.017643	0.000042
C60	C	0.560559	0.517643	0.500042
C61	C	0.408525	0.109465	0.000013
C62	C	0.908525	0.609465	0.500013
C63	C	0.467922	0.110070	0.000004
C64	C	0.967922	0.610070	0.500004
C65	C	0.482277	0.021929	0.000023
C66	C	0.982277	0.521929	0.500023
C67	C	0.422879	0.021325	0.000028
C68	C	0.922879	0.521325	0.500028
C69	C	0.386004	0.065095	0.000025
C70	C	0.886004	0.565095	0.500025
C71	C	-0.064175	0.016379	0.000040
C72	C	0.435825	0.516379	0.500040
C73	C	-0.123576	0.015779	0.000037
C74	C	0.376424	0.515779	0.500037
C75	C	-0.137925	0.103920	0.000021
C76	C	0.362075	0.603920	0.500021
C77	C	-0.078530	0.104520	0.000021
C78	C	0.421470	0.604520	0.500021
C79	C	-0.041656	0.060745	0.000033
C80	C	0.458344	0.560745	0.500033
O81	O	0.009338	0.142926	-0.000003
O82	O	0.509338	0.642926	0.499997
O83	O	0.035940	-0.020147	0.000060
O84	O	0.535940	0.479853	0.500060
C85	C	0.677131	-0.025474	0.000040
C86	C	1.177131	0.474526	0.500040
C87	C	0.676491	-0.079131	0.000046
C88	C	1.176491	0.420869	0.500046
C89	C	0.672477	-0.411859	-0.053605
C90	C	1.172477	0.088141	0.446395
C91	C	0.670048	-0.613521	-0.053615
C92	C	1.170048	-0.113521	0.446385
O93	O	0.669717	-0.639598	-0.099218
O94	O	1.169717	-0.139598	0.400782
N95	N	0.669738	-0.638733	0.000005
N96	N	1.169738	-0.138733	0.500005
C97	C	0.670032	-0.613526	0.053632
C98	C	1.170032	-0.113526	0.553632
O99	O	0.669706	-0.639596	0.099240
O100	O	1.169706	-0.139596	0.599240
C101	C	0.672456	-0.411864	0.053642
C102	C	1.172456	0.088136	0.553642
C103	C	0.672772	-0.386656	0.000018
C104	C	1.172772	0.113344	0.500018
C105	C	0.672792	-0.386651	-0.107224
C106	C	1.172792	0.113349	0.392776
C107	C	0.673402	-0.336239	-0.107221
C108	C	1.173402	0.163761	0.392779
C109	C	0.673697	-0.311035	-0.053598
C110	C	1.173697	0.188965	0.446402
C111	C	0.673382	-0.336244	0.000021
C112	C	1.173382	0.163756	0.500021
C113	C	0.672745	-0.386657	0.107269
C114	C	1.172745	0.113343	0.607269
C115	C	0.673350	-0.336238	0.107266
C116	C	1.173350	0.163762	0.607266
C117	C	0.673665	-0.311030	0.053642
C118	C	1.173665	0.188970	0.553642
C119	C	0.674287	-0.260628	0.053647
C120	C	1.174287	0.239372	0.553647
N121	N	0.674597	-0.235416	0.000027
N122	N	1.174597	0.264584	0.500027
C123	C	0.674302	-0.260620	-0.053596
C124	C	1.174302	0.239380	0.446404
C125	C	0.668760	-0.719401	0.053623
C126	C	1.168760	-0.219401	0.553623
C127	C	0.668155	-0.769816	0.053621
C128	C	1.168155	-0.269816	0.553621
C129	C	0.668171	-0.769808	-0.053627
C130	C	1.168171	-0.269808	0.446373
C131	C	0.668780	-0.719393	-0.053624
C132	C	1.168780	-0.219393	0.446376
C133	C	0.669070	-0.694189	0.000003
C134	C	1.169070	-0.194189	0.500003
C135	C	0.675584	-0.154751	-0.053585
C136	C	1.175584	0.345249	0.446415
C137	C	0.676196	-0.104335	-0.053577
C138	C	1.176196	0.395665	0.446423
C139	C	0.676178	-0.104347	0.053670
C140	C	1.176178	0.395653	0.553670
C141	C	0.675568	-0.154759	0.053663
C142	C	1.175568	0.345241	0.553663
C143	C	0.675269	-0.179959	0.000030
C144	C	1.175269	0.320041	0.500030
O145	O	0.674612	-0.234520	0.099227
O146	O	1.174612	0.265480	0.599227
O147	O	0.674615	-0.234539	-0.099196
O148	O	1.174615	0.265461	0.400804
C149	C	0.671867	-0.462272	-0.053608
C150	C	1.171867	0.037728	0.446392
C151	C	0.671551	-0.487480	0.000012
C152	C	1.171551	0.012520	0.500012
C153	C	0.671846	-0.462276	0.053635
C154	C	1.171846	0.037724	0.553635
C155	C	0.670946	-0.537895	0.000010
C156	C	1.170946	-0.037895	0.500010
C157	C	0.670651	-0.563099	-0.053613
C158	C	1.170651	-0.063099	0.446387
C159	C	0.670961	-0.537887	-0.107234
C160	C	1.170961	-0.037887	0.392766
C161	C	0.671572	-0.487475	-0.107231
C162	C	1.171572	0.012525	0.392769
C163	C	0.671536	-0.487488	0.107255
C164	C	1.171536	0.012512	0.607255
C165	C	0.670927	-0.537900	0.107248
C166	C	1.170927	-0.037900	0.607248
C167	C	0.670632	-0.563104	0.053625
C168	C	1.170632	-0.063104	0.553625
C169	C	0.776333	0.058896	0.000030
C170	C	1.276333	0.558896	0.500030
C171	C	0.839548	0.059546	0.000029
C172	C	1.339548	0.559546	0.500029
C173	C	0.667221	0.151323	0.000008
C174	C	1.167221	0.651323	0.500008
C175	C	0.667860	0.204980	-0.000002
C176	C	1.167860	0.704980	0.499998
N177	N	0.672156	0.062941	0.153280
N178	N	1.172156	0.562941	0.653280
N179	N	0.672200	0.062904	-0.153231
N180	N	1.172200	0.562904	0.346769
C181	C	0.711202	0.029874	0.561929
C182	C	1.211202	0.529874	1.061929
C183	C	0.711205	0.029870	0.623849
C184	C	1.211205	0.529870	1.123849
O185	O	0.744380	0.001762	0.655875
O186	O	1.244380	0.501762	1.155875
N187	N	0.672186	0.062907	0.654817
N188	N	1.172186	0.562907	1.154817
C189	C	0.633157	0.095947	0.623862
C190	C	1.133157	0.595947	1.123862
O191	O	0.599967	0.124047	0.655888
O192	O	1.099967	0.624047	1.155888
C193	C	0.633151	0.095948	0.561943
C194	C	1.133151	0.595948	1.061943
C195	C	0.672178	0.062912	0.530978
C196	C	1.172178	0.562912	1.030978
C197	C	0.750225	-0.003160	0.530965
C198	C	1.250225	0.496840	1.030965
C199	C	0.750223	-0.003156	0.469049
C200	C	1.250223	0.496844	0.969049
C201	C	0.711198	0.029882	0.438098
C202	C	1.211198	0.529882	0.938098
C203	C	0.672175	0.062916	0.469063
C204	C	1.172175	0.562916	0.969063
C205	C	0.594120	0.128985	0.530989
C206	C	1.094120	0.628985	1.030989
C207	C	0.594118	0.128982	0.469066
C208	C	1.094118	0.628982	0.969066
C209	C	0.633144	0.095946	0.438101
C210	C	1.133144	0.595946	0.938101
C211	C	0.633148	0.095958	0.376196
C212	C	1.133148	0.595958	0.876196
N213	N	0.672168	0.062921	0.345228
N214	N	1.172168	0.562921	0.845228
C215	C	0.711192	0.029883	0.376179
C216	C	1.211192	0.529883	0.876179
C217	C	0.633170	0.095942	0.753895
C218	C	1.133170	0.595942	1.253895
C219	C	0.633177	0.095944	0.815813
C220	C	1.133177	0.595944	1.315813
C221	C	0.711225	0.029866	0.815796
C222	C	1.211225	0.529866	1.315796
C223	C	0.711220	0.029867	0.753877
C224	C	1.211220	0.529867	1.253877
C225	C	0.672189	0.062905	0.722927
C226	C	1.172189	0.562905	1.222927
C227	C	0.711185	0.029895	0.246152
C228	C	1.211185	0.529895	0.746152
C229	C	0.711181	0.029903	0.184231
C230	C	1.211181	0.529903	0.684231
C231	C	0.633131	0.095979	0.184253
C232	C	1.133131	0.595979	0.684253
C233	C	0.633137	0.095972	0.246169
C234	C	1.133137	0.595972	0.746169
C235	C	0.672166	0.062926	0.277117
C236	C	1.172166	0.562926	0.777117
O237	O	0.599989	0.124051	0.344131
O238	O	1.099989	0.624051	0.844131
O239	O	0.744371	0.001783	0.344146
O240	O	1.244371	0.501783	0.844146
H241	H	0.205832	0.187499	0.000016
H242	H	0.705832	0.687499	0.500016
H243	H	0.486250	0.146204	-0.000010
H244	H	0.986250	0.646204	0.499990
H245	H	0.670724	-0.558417	-0.150895
H246	H	1.170724	-0.058417	0.349105
O247	O	0.753301	-0.005770	0.720477
O248	O	1.253301	0.494230	1.220477
H249	H	0.797644	0.000191	0.732350
H250	H	1.297644	0.500191	1.232350
O251	O	-0.147859	-0.032085	0.000046
O252	O	0.352141	0.467915	0.500046
H253	H	-0.195358	-0.025156	0.000039
H254	H	0.304642	0.474844	0.500039
O255	O	0.753270	-0.005733	0.150832
O256	O	1.253270	0.494267	0.650832
H257	H	0.780401	-0.028710	0.182761
H258	H	1.280401	0.471290	0.682761
H259	H	0.676455	-0.083812	-0.097246
H260	H	1.176455	0.416188	0.402754
H261	H	0.669036	-0.698871	-0.097289
H262	H	1.169036	-0.198871	0.402711
O263	O	0.671865	-0.460312	0.165097
O264	O	1.171865	0.039688	0.665097
H265	H	0.632918	-0.465495	0.190813
H266	H	1.132918	0.034505	0.690813
O267	O	0.675257	-0.181928	-0.111429
O268	O	1.175257	0.318072	0.388571
H269	H	0.675580	-0.155923	-0.148709
H270	H	1.175580	0.344077	0.351291
H271	H	0.782004	-0.030066	0.556160
H272	H	1.282004	0.469934	1.056160
O273	O	0.753314	-0.005774	0.849184
O274	O	1.253314	0.494226	1.349184
H275	H	0.746753	-0.000226	0.897441
H276	H	1.246753	0.499774	1.397441
H277	H	-0.034158	-0.019267	0.000050
H278	H	0.465842	0.480733	0.500050
O279	O	0.671909	-0.460289	-0.165068
O280	O	1.171909	0.039711	0.334932
H281	H	0.633356	-0.432820	-0.167636
H282	H	1.133356	0.067180	0.332364
H283	H	0.246247	-0.060558	0.000055
H284	H	0.746247	0.439442	0.500055
O285	O	0.670585	-0.565088	0.165089
O286	O	1.170585	-0.065088	0.665089
H287	H	0.670886	-0.539086	0.202373
H288	H	1.170886	-0.039086	0.702373
H289	H	0.742965	0.002985	0.271343
H290	H	1.242965	0.502985	0.771343
H291	H	0.098086	0.186400	0.000029
H292	H	0.598086	0.686400	0.500029
H293	H	0.601405	0.122850	0.841020
H294	H	1.101405	0.622850	1.341020
H295	H	0.378504	0.145110	0.000006
H296	H	0.878504	0.645110	0.500006
O297	O	0.398594	-0.026535	0.000039
O298	O	0.898594	0.473465	0.500039
H299	H	0.371874	-0.028914	0.040135
H300	H	0.871874	0.471086	0.540135
O301	O	-0.054236	0.152378	0.000012
O302	O	0.445764	0.652378	0.500012
H303	H	-0.089860	0.182710	0.000009
H304	H	0.410140	0.682710	0.500009
H305	H	0.601364	0.122878	0.271380
H306	H	1.101364	0.622878	0.771380
H307	H	0.601359	0.122879	0.159043
H308	H	1.101359	0.622879	0.659043
O309	O	0.673664	-0.309056	0.165109
O310	O	1.173664	0.190944	0.665109
H311	H	0.712771	-0.290584	0.167679
H312	H	1.212771	0.209416	0.667679
H313	H	0.138504	-0.061653	0.000053
H314	H	0.638504	0.438347	0.500053
H315	H	0.512312	-0.013708	0.000030
H316	H	1.012312	0.486292	0.500030
O317	O	-0.177703	0.151125	0.000022
O318	O	0.322297	0.651125	0.500022
H319	H	-0.222788	0.143246	0.000032
H320	H	0.277212	0.643246	0.500032
H321	H	0.673657	-0.315718	-0.150887
H322	H	1.173657	0.184282	0.349113
H323	H	0.672550	-0.407166	-0.150893
H324	H	1.172550	0.092834	0.349107
O325	O	0.792307	-0.038794	0.435654
O326	O	1.292307	0.461206	0.935654
H327	H	0.819435	-0.061769	0.467587
H328	H	1.319435	0.438231	0.967587
O329	O	0.591078	0.131584	0.720514
O330	O	1.091078	0.631584	1.220514
H331	H	0.563953	0.154558	0.752455
H332	H	1.063953	0.654558	1.252455
O333	O	0.667845	-0.796995	-0.111465
O334	O	1.167845	-0.296995	0.388535
H335	H	0.667366	-0.836285	-0.102452
H336	H	1.167366	-0.336285	0.397548
O337	O	0.552048	0.164634	0.564378
O338	O	1.052048	0.664634	1.064378
H339	H	0.524918	0.187606	0.532443
H340	H	1.024918	0.687606	1.032443
O341	O	0.667819	-0.797005	0.111458
O342	O	1.167819	-0.297005	0.611458
H343	H	0.668120	-0.771003	0.148742
H344	H	1.168120	-0.271003	0.648742
H345	H	0.562333	0.155885	0.443869
H346	H	1.062333	0.655885	0.943869
H347	H	0.672489	-0.407173	0.150935
H348	H	1.172489	0.092827	0.650935
H349	H	0.668999	-0.698885	0.097295
H350	H	1.168999	-0.198885	0.597295
O351	O	0.675236	-0.181958	0.111494
O352	O	1.175236	0.318042	0.611494
H353	H	0.636515	-0.167787	0.137205
H354	H	1.136515	0.332213	0.637205
O355	O	0.676495	-0.077159	0.111506
O356	O	1.176495	0.422841	0.611506
H357	H	0.676965	-0.037867	0.102493
H358	H	1.176965	0.462133	0.602493
