data_functionalizedCrystal
_audit_creation_method	'MofGen! by Chris Wilmer'
_symmetry_space_group_name_H-M	'P1'
_symmetry_Int_Tables_number	1
_symmetry_cell_setting	triclinic
loop_
_symmetry_equiv_pos_as_xyz
  x,y,z
_cell_length_a	16.959455
_cell_length_b	16.959453
_cell_length_c	21.395355
_cell_angle_alpha	89.982675
_cell_angle_beta	89.970528
_cell_angle_gamma	90.017008
loop_
_atom_site_label
_atom_site_type_symbol
_atom_site_fract_x
_atom_site_fract_y
_atom_site_fract_z
Zn1	Zn	1.208455	-0.314836	-0.354349
Zn2	Zn	1.208357	-0.446997	-0.249574
Zn3	Zn	1.076263	-0.314829	-0.249577
Zn4	Zn	1.076249	-0.446969	-0.354305
O5	O	1.142331	-0.380908	-0.301951
O6	O	1.319053	-0.332382	-0.340467
O7	O	1.190799	-0.429473	-0.161896
O8	O	1.093845	-0.204219	-0.263495
O9	O	1.318981	-0.429479	-0.263489
O10	O	1.190967	-0.204224	-0.340470
O11	O	1.093750	-0.332370	-0.161898
O12	O	0.965650	-0.332344	-0.263452
O13	O	1.093821	-0.429433	-0.441989
O14	O	0.965640	-0.429427	-0.340395
O15	O	1.190953	-0.332355	-0.442021
O16	O	1.190785	-0.557604	-0.263447
O17	O	1.093726	-0.557584	-0.340392
C18	C	0.936965	-0.380882	-0.301919
C19	C	0.849108	-0.380890	-0.301921
C20	C	0.477584	-0.431417	-0.261848
C21	C	0.477681	-0.330465	-0.342130
C22	C	0.560227	-0.330452	-0.342115
C23	C	0.601455	-0.380923	-0.301966
C24	C	0.560138	-0.431407	-0.261833
C25	C	0.601550	-0.279974	-0.382252
C26	C	0.684101	-0.279960	-0.382239
C27	C	0.725331	-0.330427	-0.342087
C28	C	0.684009	-0.380913	-0.301951
C29	C	0.725237	-0.431384	-0.261803
C30	C	0.683916	-0.481866	-0.221663
C31	C	0.601368	-0.481875	-0.221681
C32	C	0.807880	-0.330419	-0.342069
C33	C	0.807791	-0.431374	-0.261787
C34	C	1.142265	-0.586274	-0.301928
C35	C	1.142309	-0.674131	-0.301939
C36	C	1.192967	-1.045550	-0.342108
C37	C	1.091916	-1.045662	-0.261887
C38	C	1.091887	-0.963116	-0.261873
C39	C	1.142397	-0.921784	-0.301977
C40	C	1.192937	-0.962997	-0.342096
C41	C	1.041342	-0.921897	-0.221759
C42	C	1.041310	-0.839346	-0.221744
C43	C	1.091825	-0.798012	-0.261845
C44	C	1.142368	-0.839230	-0.301965
C45	C	1.192879	-0.797897	-0.342070
C46	C	1.243426	-0.839114	-0.382187
C47	C	1.243453	-0.921663	-0.382198
C48	C	1.091798	-0.715463	-0.261835
C49	C	1.192849	-0.715344	-0.342058
C50	C	1.348499	-0.380934	-0.301983
C51	C	1.436356	-0.380946	-0.301997
C52	C	1.142396	-0.380892	-0.465374
C53	C	1.142424	-0.380885	-0.535016
C54	C	1.142419	-0.174740	-0.301988
C55	C	1.142456	-0.086883	-0.302003
C56	C	1.192999	-0.330334	-0.567747
C57	C	1.192998	-0.330300	-0.633182
C58	C	1.142431	-0.380831	-0.665884
C59	C	1.091846	-0.431385	-0.633145
C60	C	1.091843	-0.431412	-0.567711
C61	C	1.136166	-0.452002	-0.769550
C62	C	1.136175	-0.451976	-0.834983
C63	C	1.142435	-0.380748	-0.867705
C64	C	1.148704	-0.309542	-0.834985
C65	C	1.148701	-0.309569	-0.769551
C66	C	1.142428	-0.380807	-0.736836
C67	C	1.193011	-0.330156	-0.971388
C68	C	1.193005	-0.330121	-1.036825
C69	C	1.091858	-0.431213	-1.036787
C70	C	1.091860	-0.431241	-0.971351
C71	C	1.142441	-0.380714	-0.938656
C72	C	1.142311	-0.380867	-0.139163
C73	C	1.142436	-0.380651	-0.069522
H74	H	0.841353	-0.472472	-0.229091
H75	H	0.717495	-0.522964	-0.188978
Br76	Br	1.023201	-0.659529	-0.207397
H77	H	0.443937	-0.472516	-0.229166
H78	H	1.050789	-1.079320	-0.229238
H79	H	1.000217	-0.955556	-0.189110
H80	H	1.153803	-0.251591	-0.742914
Br81	Br	0.545285	-0.550380	-0.167212
H82	H	1.131076	-0.509956	-0.861618
Br83	Br	1.261619	-0.261672	-0.677613
H84	H	1.233984	-0.681696	-0.374714
Br85	Br	1.127693	-0.548681	-0.725149
Br86	Br	1.311963	-0.783010	-0.436620
Br87	Br	1.157207	-0.212868	-0.879384
Br88	Br	1.261652	-0.261583	-0.927012
Br89	Br	1.261568	-1.101483	-0.396547
H90	H	0.717738	-0.238854	-0.414922
Br91	Br	1.261660	-0.261522	-1.081247
Br92	Br	1.312044	-0.977604	-0.436639
Br93	Br	0.972708	-0.783416	-0.167303
H94	H	1.050677	-0.472348	-1.063412
Br95	Br	1.261641	-0.261759	-0.523377
H96	H	1.050682	-0.472409	-0.944702
Br97	Br	1.023214	-0.499958	-0.677524
Br98	Br	1.023200	-0.500021	-0.523287
H99	H	0.444108	-0.289378	-0.374821
Br100	Br	0.863955	-0.261920	-0.396544
Br101	Br	0.545595	-0.211496	-0.436746
