data_functionalizedCrystal
_audit_creation_method	'MofGen! by Chris Wilmer'
_symmetry_space_group_name_H-M	'P1'
_symmetry_Int_Tables_number	1
_symmetry_cell_setting	triclinic
loop_
_symmetry_equiv_pos_as_xyz
  x,y,z
_cell_length_a	15.072220
_cell_length_b	12.837943
_cell_length_c	12.837942
_cell_angle_alpha	94.828940
_cell_angle_beta	90.000314
_cell_angle_gamma	89.988287
loop_
_atom_site_label
_atom_site_type_symbol
_atom_site_fract_x
_atom_site_fract_y
_atom_site_fract_z
O1	O	0.073766	-1.402348	-0.272135
O2	O	0.073771	-1.099215	-0.258691
O3	O	0.073763	-1.244060	-0.113846
O4	O	0.073774	-1.257503	-0.416980
O5	O	-0.073802	-1.244021	-0.113851
O6	O	-0.073794	-1.099176	-0.258696
O7	O	-0.073799	-1.402309	-0.272140
Zn8	Zn	-0.097226	-1.250736	-0.265419
Zn9	Zn	0.097198	-1.250787	-0.265412
O10	O	-0.073791	-1.257464	-0.416985
C11	C	-0.000011	-1.060126	-0.254153
C12	C	-0.000009	-0.943711	-0.240608
N13	N	-0.229915	-1.250709	-0.265423
C14	C	-0.000015	-1.441398	-0.276679
C15	C	-0.000011	-1.557813	-0.290223
C16	C	-0.589116	-1.250785	-0.265408
C17	C	-0.551505	-1.172964	-0.342595
C18	C	-0.448679	-1.173193	-0.342927
C19	C	-0.410912	-1.250746	-0.265416
C20	C	-0.448204	-1.362331	-0.300062
C21	C	-0.551062	-1.361907	-0.300623
C22	C	-0.551220	-1.217971	-0.153417
C23	C	-0.448356	-1.215537	-0.153902
C24	C	-0.310199	-1.250731	-0.265419
C25	C	-0.689829	-1.250807	-0.265408
N26	N	0.229886	-1.250822	-0.265400
C27	C	-0.000019	-1.239499	-0.074780
C28	C	-0.000017	-1.225954	0.041635
C29	C	-0.000016	-0.718837	-0.403437
C30	C	-0.000015	-0.609454	-0.390716
C31	C	-0.000012	-0.615562	-0.202445
C32	C	-0.000013	-0.724944	-0.215166
C33	C	-0.000014	-0.776578	-0.315666
C34	C	-0.000008	-0.885962	-0.328386
C35	C	-0.000012	-0.892067	-0.140116
C36	C	-0.000011	-0.782685	-0.127395
C37	C	-0.000007	-1.262025	-0.456052
C38	C	-0.000003	-1.275569	-0.572467
C39	C	-0.000001	-1.388784	0.266510
C40	C	0.000000	-1.376062	0.375892
C41	C	-0.000006	-1.187791	0.369785
C42	C	-0.000007	-1.200513	0.260402
C43	C	-0.000007	-1.301012	0.208769
C44	C	-0.000015	-1.313732	0.099384
C45	C	-0.000014	-1.125462	0.093279
C46	C	-0.000013	-1.112741	0.202661
H47	H	-0.423467	-1.090598	-0.320693
H48	H	-0.000009	-1.470614	0.224469
O49	O	-0.000005	-1.470728	0.438175
H50	H	-0.000013	-1.542744	0.383890
O51	O	-0.000013	-1.079401	0.425482
H52	H	-0.000017	-1.085307	0.511243
H53	H	-0.000026	-1.053992	0.046254
H54	H	-0.000010	-0.928000	-0.410218
O55	O	-0.000018	-0.774539	-0.511825
H56	H	-0.000023	-0.716010	-0.570723
H57	H	-0.000019	-0.562446	-0.462189
O58	O	-0.414074	-1.398945	-0.407539
H59	H	-0.440897	-1.477926	-0.431172
H60	H	-0.576265	-1.090129	-0.320569
O61	O	-0.000026	-1.004348	0.258352
H62	H	-0.000032	-1.010246	0.344114
O63	O	-0.000012	-1.422126	0.043695
H64	H	-0.000022	-1.416230	-0.042067
O65	O	-0.583441	-1.292961	-0.077151
H66	H	-0.626238	-1.353311	-0.118739
H67	H	-0.000085	-0.573502	-0.120623
O68	O	-0.000015	-0.726993	-0.019002
H69	H	0.060132	-0.677323	-0.008701
O70	O	-0.585714	-1.201885	-0.451755
H71	H	-0.629386	-1.271447	-0.451275
O72	O	-0.414323	-1.284659	-0.073152
H73	H	-0.340802	-1.280447	-0.070213
O74	O	-0.416058	-1.202441	-0.452709
H75	H	-0.473751	-1.216488	-0.505767
H76	H	-0.000004	-0.939092	-0.068646
H77	H	-0.575041	-1.389175	-0.382627
H78	H	-0.575940	-1.422198	-0.247198
H79	H	-0.577210	-1.137786	-0.122780
O80	O	-0.415802	-1.441476	-0.228182
H81	H	-0.372667	-1.402026	-0.166858
H82	H	-0.423984	-1.133399	-0.127860
