data_functionalizedCrystal
_audit_creation_method	'MofGen! by Chris Wilmer'
_symmetry_space_group_name_H-M	'P1'
_symmetry_Int_Tables_number	1
_symmetry_cell_setting	triclinic
loop_
_symmetry_equiv_pos_as_xyz
  x,y,z
_cell_length_a	15.538191
_cell_length_b	14.044220
_cell_length_c	14.750779
_cell_angle_alpha	76.182253
_cell_angle_beta	97.572172
_cell_angle_gamma	70.230486
loop_
_atom_site_label
_atom_site_type_symbol
_atom_site_fract_x
_atom_site_fract_y
_atom_site_fract_z
O1	O	1.206574	-0.272382	-0.079830
O2	O	0.941253	-0.166009	-0.079832
O3	O	1.069934	-0.355813	-0.079822
O4	O	1.077894	-0.082578	-0.079840
O5	O	1.106310	-0.409464	0.079832
O6	O	0.977630	-0.219660	0.079821
O7	O	1.242951	-0.326033	0.079823
Zn8	Zn	1.116066	-0.281365	0.105171
Zn9	Zn	1.068138	-0.210677	-0.105179
O10	O	1.114271	-0.136229	0.079813
C11	C	0.925281	-0.181705	-0.000006
C12	C	0.823493	-0.148554	-0.000006
C13	C	0.508030	-0.477901	0.000002
C14	C	0.412383	-0.446726	-0.000001
C15	C	0.404671	-0.271379	-0.000013
C16	C	0.500321	-0.302541	-0.000005
C17	C	0.551992	-0.405802	0.000001
C18	C	0.544283	-0.230442	-0.000006
C19	C	0.639923	-0.261599	-0.000004
C20	C	0.691600	-0.364855	-0.000000
C21	C	0.647632	-0.436960	0.000003
C22	C	0.492608	-0.127179	-0.000020
C23	C	0.536570	-0.055080	-0.000020
C24	C	0.632213	-0.086239	-0.000011
C25	C	0.683891	-0.189495	-0.000008
C26	C	0.676182	-0.014135	-0.000015
C27	C	0.771821	-0.045293	-0.000012
C28	C	0.779531	-0.220653	-0.000005
C29	C	1.084636	-0.416754	0.000005
C30	C	1.074236	-0.518402	0.000007
C31	C	1.055220	-0.704517	-0.000007
C32	C	1.128978	-0.787527	-0.000010
C33	C	1.118398	-0.891088	-0.000018
C34	C	1.065800	-0.600946	0.000000
C35	C	1.258923	-0.310337	-0.000005
C36	C	1.360709	-0.343485	-0.000011
C37	C	1.099569	-0.075288	-0.000016
C38	C	1.109967	0.026362	-0.000024
N39	N	1.148782	-0.329610	0.248729
N40	N	1.035429	-0.162442	-0.248738
C41	C	0.944054	-0.027741	0.600530
C42	C	0.966986	-0.061544	0.701031
C43	C	1.080962	-0.229579	0.701003
C44	C	1.058036	-0.195791	0.600500
C45	C	0.989582	-0.094871	0.550272
C46	C	1.103564	-0.262921	0.550242
C47	C	1.080643	-0.229134	0.449748
C48	C	1.012193	-0.128217	0.399512
C49	C	0.966661	-0.061084	0.449778
C50	C	1.172023	-0.363838	0.600472
C51	C	1.217551	-0.430968	0.550214
C52	C	1.194625	-0.397185	0.449718
C53	C	1.126176	-0.296267	0.399482
C54	C	1.240158	-0.464318	0.399452
C55	C	1.217236	-0.430530	0.298958
C56	C	1.103254	-0.262480	0.298988
H57	H	0.689708	-0.521047	0.000014
H58	H	1.190686	-0.391342	0.682301
H59	H	1.200056	-0.780794	-0.000074
C60	C	0.967220	-0.815911	-0.000000
C61	C	0.959254	-0.713574	0.000000
H62	H	0.907977	-0.821512	0.000014
H63	H	0.986841	-0.829096	-0.055676
H64	H	1.012235	-0.866530	0.055673
H65	H	0.914244	-0.662956	-0.055677
H66	H	0.939621	-0.700379	0.055682
H67	H	1.047505	-0.180305	0.258090
H68	H	0.807618	0.013414	-0.000004
H69	H	1.273289	-0.513137	0.591121
H70	H	0.550106	-0.561988	0.000013
H71	H	0.376593	-0.505445	-0.000002
C72	C	1.067169	-0.090847	0.255527
C73	C	0.986995	-0.091074	0.289046
H74	H	1.051611	-0.067922	0.187331
H75	H	1.089819	-0.043912	0.278255
H76	H	1.114446	-0.160562	0.278253
H77	H	0.939720	-0.021357	0.266326
H78	H	0.964331	-0.138010	0.266308
H79	H	0.888305	0.054434	0.559632
H80	H	0.910911	0.021091	0.408880
C81	C	1.200863	-0.524658	0.185836
C82	C	1.267309	-0.504242	0.243660
H83	H	1.231790	-0.570136	0.151681
H84	H	1.168954	-0.557976	0.225020
H85	H	1.156792	-0.459705	0.141579
H86	H	1.311377	-0.569195	0.287921
H87	H	1.299234	-0.470926	0.204472
C88	C	0.851997	0.107956	0.690963
C89	C	0.916924	0.012247	0.756277
H90	H	0.821088	0.153504	0.725071
H91	H	0.883948	0.141191	0.651764
H92	H	0.806914	0.094079	0.651768
H93	H	0.962012	0.026123	0.795467
H94	H	0.884972	-0.020995	0.795492
C95	C	0.254640	-0.145755	-0.000014
C96	C	0.347870	-0.157879	-0.000013
H97	H	0.219578	-0.075686	-0.000005
H98	H	0.227870	-0.157953	-0.055687
H99	H	0.253243	-0.195394	0.055663
H100	H	0.349267	-0.108245	-0.055693
H101	H	0.374646	-0.145670	0.055666
H102	H	1.136701	-0.311748	0.741911
H103	H	0.634094	0.069943	-0.000030
H104	H	0.414731	-0.101813	-0.000025
C105	C	1.325910	-0.590722	0.553492
C106	C	1.315403	-0.575245	0.454671
H107	H	1.372360	-0.659207	0.587579
H108	H	1.344772	-0.538190	0.569946
H109	H	1.267724	-0.585281	0.569971
H110	H	1.373588	-0.580678	0.438191
H111	H	1.296545	-0.627791	0.438210
H112	H	0.494485	0.028997	-0.000030
C113	C	0.796869	-0.352143	-0.082068
C114	C	0.836343	-0.334159	0.000001
H115	H	0.831948	-0.422211	-0.082066
H116	H	0.733630	-0.343920	-0.082058
H117	H	0.798273	-0.302503	-0.137738
H118	H	0.834933	-0.383795	0.055672
H119	H	0.899599	-0.342393	0.000000
H120	H	0.769474	-0.390218	-0.000011
