data_functionalizedCrystal
_audit_creation_method	'MofGen! by Chris Wilmer'
_symmetry_space_group_name_H-M	'P1'
_symmetry_Int_Tables_number	1
_symmetry_cell_setting	triclinic
loop_
_symmetry_equiv_pos_as_xyz
  x,y,z
_cell_length_a	16.992696
_cell_length_b	16.992694
_cell_length_c	15.455301
_cell_angle_alpha	87.178730
_cell_angle_beta	87.165327
_cell_angle_gamma	90.668339
loop_
_atom_site_label
_atom_site_type_symbol
_atom_site_fract_x
_atom_site_fract_y
_atom_site_fract_z
O1	O	-0.170181	-1.054116	0.072049
O2	O	0.163153	-0.720782	0.405382
O3	O	0.496486	-0.387449	0.738715
O4	O	-0.168351	-0.825717	0.072074
O5	O	0.164983	-0.492384	0.405407
O6	O	0.498316	-0.159050	0.738741
O7	O	-0.055065	-0.938999	0.072037
O8	O	0.278269	-0.605666	0.405371
O9	O	0.611602	-0.272333	0.738704
O10	O	-0.283467	-0.940833	0.072085
O11	O	0.049866	-0.607500	0.405419
O12	O	0.383200	-0.274167	0.738752
O13	O	-0.048524	-0.932451	-0.072226
O14	O	0.284809	-0.599118	0.261108
O15	O	0.618142	-0.265785	0.594441
O16	O	-0.161810	-0.819169	-0.072189
O17	O	0.171523	-0.485836	0.261144
O18	O	0.504856	-0.152502	0.594477
O19	O	-0.163640	-1.047568	-0.072214
O20	O	0.169693	-0.714235	0.261119
O21	O	0.503026	-0.380901	0.594452
Cu22	Cu	-0.162128	-0.932771	-0.085374
Cu23	Cu	0.171205	-0.599437	0.247959
Cu24	Cu	0.504538	-0.266104	0.581292
Cu25	Cu	-0.169863	-0.940514	0.085234
Cu26	Cu	0.163470	-0.607181	0.418567
Cu27	Cu	0.496804	-0.273848	0.751900
O28	O	-0.276927	-0.934285	-0.072178
O29	O	0.056407	-0.600952	0.261155
O30	O	0.389740	-0.267619	0.594489
C31	C	-0.022434	-0.933369	-0.000098
C32	C	0.310899	-0.600036	0.333235
C33	C	0.644233	-0.266703	0.666568
C34	C	0.065051	-0.926340	-0.000110
C35	C	0.398384	-0.593007	0.333223
C36	C	0.731718	-0.259673	0.666556
C37	C	-0.162725	-0.793083	-0.000055
C38	C	0.170608	-0.459750	0.333279
C39	C	0.503942	-0.126416	0.666612
C40	C	-0.155697	-0.705599	-0.000046
C41	C	0.177637	-0.372265	0.333287
C42	C	0.510970	-0.038932	0.666620
C43	C	0.111043	-0.994157	-0.000126
C44	C	0.444376	-0.660824	0.333208
C45	C	0.777709	-0.327491	0.666541
C46	C	0.193243	-0.987548	-0.000129
C47	C	0.526577	-0.654215	0.333204
C48	C	0.859910	-0.320881	0.666537
C49	C	0.229451	-0.913120	-0.000123
C50	C	0.562785	-0.579787	0.333210
C51	C	0.896118	-0.246454	0.666543
C52	C	0.183454	-0.845298	-0.000105
C53	C	0.516787	-0.511965	0.333228
C54	C	0.850120	-0.178632	0.666561
C55	C	0.101254	-0.851909	-0.000096
C56	C	0.434587	-0.518575	0.333238
C57	C	0.767921	-0.185242	0.666571
C58	C	0.474767	-0.885724	-0.000145
C59	C	0.808100	-0.552391	0.333188
C60	C	1.141433	-0.219058	0.666521
C61	C	0.556973	-0.879119	-0.000157
C62	C	0.890306	-0.545786	0.333176
C63	C	1.223639	-0.212452	0.666509
C64	C	0.566757	-1.021370	-0.000180
C65	C	0.900090	-0.688036	0.333154
C66	C	1.233423	-0.354703	0.666487
C67	C	0.484555	-1.027973	-0.000175
C68	C	0.817889	-0.694640	0.333158
C69	C	1.151222	-0.361306	0.666491
C70	C	0.438564	-0.960151	-0.000153
C71	C	0.771898	-0.626818	0.333181
C72	C	1.105231	-0.293484	0.666514
N73	N	0.313474	-0.906363	-0.000130
N74	N	0.646807	-0.573030	0.333204
N75	N	0.980141	-0.239696	0.666537
N76	N	0.354543	-0.966910	-0.000140
N77	N	0.687877	-0.633576	0.333193
N78	N	1.021210	-0.300243	0.666526
C79	C	-0.169266	-1.080202	-0.000084
C80	C	0.164067	-0.746869	0.333250
C81	C	0.497400	-0.413535	0.666583
C82	C	-0.176295	-1.167686	-0.000087
C83	C	0.157038	-0.834353	0.333247
C84	C	0.490372	-0.501020	0.666580
C85	C	0.690445	-0.939913	-0.000078
C86	C	1.023778	-0.606580	0.333255
C87	C	1.357111	-0.273246	0.666589
C88	C	0.602964	-0.946936	-0.000173
C89	C	0.936298	-0.613603	0.333160
C90	C	1.269631	-0.280270	0.666494
N91	N	-0.156688	-0.927330	-0.205371
N92	N	0.176645	-0.593996	0.127963
N93	N	0.509979	-0.260663	0.461296
C94	C	-0.223515	-0.659609	-0.000033
C95	C	0.109818	-0.326275	0.333301
C96	C	0.443152	0.007058	0.666634
C97	C	-0.216906	-0.577407	-0.000046
C98	C	0.116428	-0.244074	0.333287
C99	C	0.449761	0.089259	0.666621
C100	C	-0.142477	-0.541198	-0.000067
C101	C	0.190856	-0.207864	0.333267
C102	C	0.524190	0.125469	0.666600
C103	C	-0.074653	-0.587194	-0.000083
C104	C	0.258680	-0.253861	0.333250
C105	C	0.592013	0.079473	0.666584
C106	C	-0.081263	-0.669393	-0.000076
C107	C	0.252070	-0.336060	0.333258
C108	C	0.585403	-0.002727	0.666591
C109	C	-0.115081	-0.295882	-0.000096
C110	C	0.218252	0.037451	0.333238
C111	C	0.551585	0.370785	0.666571
C112	C	-0.108476	-0.213677	-0.000100
C113	C	0.224857	0.119657	0.333233
C114	C	0.558190	0.452990	0.666566
C115	C	-0.250729	-0.203895	-0.000065
C116	C	0.082604	0.129438	0.333268
C117	C	0.415937	0.462771	0.666602
C118	C	-0.257333	-0.286097	-0.000053
C119	C	0.076000	0.047236	0.333281
C120	C	0.409334	0.380569	0.666614
C121	C	-0.189509	-0.332086	-0.000073
C122	C	0.143824	0.001247	0.333260
C123	C	0.477158	0.334581	0.666593
N124	N	-0.135719	-0.457175	-0.000078
N125	N	0.197614	-0.123842	0.333256
N126	N	0.530947	0.209492	0.666589
N127	N	-0.196267	-0.416107	-0.000069
N128	N	0.137066	-0.082774	0.333265
N129	N	0.470399	0.250560	0.666598
C130	C	-0.205396	-0.976006	-0.250756
C131	C	0.127938	-0.642673	0.082577
C132	C	0.461271	-0.309340	0.415910
C133	C	-0.201277	-0.971902	-0.341565
C134	C	0.132056	-0.638569	-0.008232
C135	C	0.465390	-0.305235	0.325102
C136	C	-0.148454	-0.919116	-0.386986
C137	C	0.184879	-0.585783	-0.053653
C138	C	0.518212	-0.252450	0.279680
C139	C	-0.099741	-0.870438	-0.341594
C140	C	0.233592	-0.537105	-0.008261
C141	C	0.566925	-0.203771	0.325073
C142	C	-0.103856	-0.874547	-0.250787
C143	C	0.229477	-0.541214	0.082546
C144	C	0.562810	-0.207880	0.415879
C145	C	-0.130700	-0.901391	-0.658571
C146	C	0.202634	-0.568058	-0.325237
C147	C	0.535967	-0.234725	0.008096
C148	C	-0.126590	-0.897284	-0.749384
C149	C	0.206744	-0.563951	-0.416051
C150	C	0.540077	-0.230618	-0.082717
C151	C	-0.228125	-0.998750	-0.749349
C152	C	0.105208	-0.665416	-0.416015
C153	C	0.438542	-0.332083	-0.082682
C154	C	-0.232239	-1.002851	-0.658540
C155	C	0.101095	-0.669517	-0.325207
C156	C	0.434428	-0.336184	0.008127
C157	C	-0.183523	-0.954175	-0.613156
C158	C	0.149810	-0.620842	-0.279822
C159	C	0.483144	-0.287509	0.053511
N160	N	-0.144245	-0.914918	-0.479807
N161	N	0.189088	-0.581585	-0.146474
N162	N	0.522422	-0.248251	0.186859
N163	N	-0.187729	-0.958378	-0.520336
N164	N	0.145605	-0.625045	-0.187003
N165	N	0.478938	-0.291711	0.146330
N166	N	-0.175297	-0.945961	0.205230
N167	N	0.158036	-0.612627	0.538564
N168	N	0.491369	-0.279294	0.871897
H169	H	0.081569	-1.054764	-0.000136
H170	H	0.414902	-0.721430	0.333198
H171	H	0.748235	-0.388097	0.666531
Cl172	Cl	0.251058	-1.072808	-0.000151
Cl173	Cl	0.584392	-0.739475	0.333182
Cl174	Cl	0.917725	-0.406142	0.666516
Cl175	Cl	-0.350905	-0.331612	-0.000021
Cl176	Cl	-0.017571	0.001722	0.333313
Cl177	Cl	0.315762	0.335055	0.666646
Cl178	Cl	-0.289362	-1.059939	-0.806408
Cl179	Cl	0.043971	-0.726606	-0.473075
Cl180	Cl	0.377305	-0.393273	-0.139741
H181	H	-0.248414	-1.018985	-0.213781
H182	H	0.084919	-0.685652	0.119552
H183	H	0.418253	-0.352319	0.452886
Cl184	Cl	0.602490	-0.785546	-0.000155
Cl185	Cl	0.935824	-0.452213	0.333178
Cl186	Cl	1.269157	-0.118879	0.666511
Cl187	Cl	-0.029816	-0.353686	-0.000121
Cl188	Cl	0.303518	-0.020353	0.333213
Cl189	Cl	0.636851	0.312981	0.666546
Cl190	Cl	-0.335988	-0.146077	-0.000042
Cl191	Cl	-0.002655	0.187257	0.333291
Cl192	Cl	0.330679	0.520590	0.666624
Cl193	Cl	-0.033334	-0.804080	-0.398695
Cl194	Cl	0.299999	-0.470746	-0.065362
Cl195	Cl	0.633333	-0.137413	0.267971
Cl196	Cl	0.228972	-0.751732	-0.000087
Cl197	Cl	0.562305	-0.418399	0.333246
Cl198	Cl	0.895639	-0.085065	0.666579
Cl199	Cl	-0.069485	-0.840169	-0.601528
Cl200	Cl	0.263848	-0.506836	-0.268195
Cl201	Cl	0.597181	-0.173502	0.065138
Cl202	Cl	-0.060178	-0.830921	-0.806484
Cl203	Cl	0.273155	-0.497588	-0.473151
Cl204	Cl	0.606489	-0.164255	-0.139817
Cl205	Cl	-0.042614	-0.813358	-0.193731
Cl206	Cl	0.290720	-0.480025	0.139603
Cl207	Cl	0.624053	-0.146692	0.472936
Cl208	Cl	0.018915	-0.541673	-0.000114
Cl209	Cl	0.352248	-0.208340	0.333219
Cl210	Cl	0.685582	0.124994	0.666552
Cl211	Cl	-0.298679	-1.069181	-0.601446
Cl212	Cl	0.034655	-0.735847	-0.268112
Cl213	Cl	0.367988	-0.402514	0.065221
H214	H	0.063808	-0.796684	-0.000083
H215	H	0.397142	-0.463351	0.333250
H216	H	0.730475	-0.130018	0.666584
Cl217	Cl	-0.014901	-0.168157	-0.000146
Cl218	Cl	0.318432	0.165177	0.333188
Cl219	Cl	0.651766	0.498510	0.666521
H220	H	-0.284123	-0.689084	-0.000015
H221	H	0.049210	-0.355750	0.333318
H222	H	0.382544	-0.022417	0.666651
H223	H	0.604211	-1.076586	-0.000196
H224	H	0.937544	-0.743253	0.333137
H225	H	1.270878	-0.409919	0.666470
Cl226	Cl	0.439042	-1.121544	-0.000154
Cl227	Cl	0.772375	-0.788211	0.333179
Cl228	Cl	1.105708	-0.454877	0.666512
Cl229	Cl	0.416960	-0.800461	-0.000115
Cl230	Cl	0.750294	-0.467128	0.333219
Cl231	Cl	1.083627	-0.133795	0.666552
H232	H	-0.026038	-0.706838	-0.000086
H233	H	0.307295	-0.373505	0.333247
H234	H	0.640629	-0.040171	0.666580
H235	H	-0.272131	-0.539965	-0.000034
H236	H	0.061202	-0.206632	0.333299
H237	H	0.394536	0.126701	0.666633
Cl238	Cl	-0.262514	-1.033097	-0.398618
Cl239	Cl	0.070819	-0.699763	-0.065284
Cl240	Cl	0.404152	-0.366430	0.268049
