data_functionalizedCrystal
_audit_creation_method	'MofGen! by Chris Wilmer'
_symmetry_space_group_name_H-M	'P1'
_symmetry_Int_Tables_number	1
_symmetry_cell_setting	triclinic
loop_
_symmetry_equiv_pos_as_xyz
  x,y,z
_cell_length_a	11.792241
_cell_length_b	15.995350
_cell_length_c	10.868271
_cell_angle_alpha	89.997096
_cell_angle_beta	89.999893
_cell_angle_gamma	83.842895
loop_
_atom_site_label
_atom_site_type_symbol
_atom_site_fract_x
_atom_site_fract_y
_atom_site_fract_z
O1	O	1.505951	0.114763	-0.102196
O2	O	1.175511	0.126591	-0.102224
O3	O	1.349764	-0.001170	-0.102208
O4	O	1.331698	0.242524	-0.102212
O5	O	1.349750	-0.001175	0.102436
O6	O	1.175497	0.126586	0.102420
O7	O	1.505937	0.114758	0.102448
Zn8	Zn	1.340715	0.120671	0.134926
Zn9	Zn	1.340734	0.120678	-0.134702
O10	O	1.331684	0.242519	0.102432
C11	C	1.133220	0.125845	0.000094
C12	C	1.007224	0.123621	0.000084
C13	C	1.349010	-0.032370	0.000112
C14	C	1.346771	-0.125331	0.000104
C15	C	0.776546	0.119532	0.000119
C16	C	0.904913	0.121804	0.000099
C17	C	1.338730	-0.463115	0.000108
C18	C	1.214630	-0.416244	-0.000362
C19	C	1.216870	-0.319544	0.000100
C20	C	1.342718	-0.295536	0.000105
C21	C	1.403921	-0.336339	0.116971
C22	C	1.400803	-0.432989	0.117068
C23	C	1.403383	-0.433329	-0.115651
C24	C	1.403354	-0.336384	-0.117195
C25	C	1.344979	-0.200829	0.000108
C26	C	1.336473	-0.557823	0.000113
C27	C	1.548229	0.115504	0.000127
C28	C	1.674224	0.117727	0.000130
C29	C	1.332438	0.273719	0.000110
C30	C	1.334677	0.366680	0.000109
N31	N	1.340710	0.120666	0.318940
N32	N	1.340747	0.120676	-0.318716
C33	C	1.340728	0.120676	0.569946
C34	C	1.340714	0.120673	0.430269
H35	H	1.168760	-0.291338	-0.083674
O36	O	1.514196	-0.318950	0.122393
C37	C	1.531613	-0.274631	0.231723
H38	H	1.464611	-0.288050	0.302570
H39	H	1.524037	-0.204315	0.211507
C40	C	1.733672	-0.286596	0.195739
C41	C	1.651385	-0.303083	0.282758
H42	H	1.807555	-0.304143	0.227218
H43	H	1.721939	-0.316452	0.122079
H44	H	1.727345	-0.227999	0.178900
H45	H	1.657704	-0.361680	0.299583
H46	H	1.663122	-0.273237	0.356422
H47	H	1.495128	-0.320605	-0.124247
O48	O	1.347352	-0.455012	0.221186
C49	C	1.235312	-0.414171	0.223683
H50	H	1.206813	-0.396563	0.125977
H51	H	1.233067	-0.354828	0.282118
C52	C	1.189460	-0.495133	0.399465
C53	C	1.154453	-0.473512	0.279459
H54	H	1.139582	-0.531735	0.433875
H55	H	1.264944	-0.522646	0.397786
H56	H	1.187588	-0.445675	0.448145
H57	H	1.156339	-0.522968	0.230777
H58	H	1.078967	-0.446008	0.281131
H59	H	1.361401	-0.308152	0.203934
O60	O	1.155525	-0.439820	0.098957
C61	C	1.044446	-0.397277	0.097324
H62	H	1.021104	-0.376859	-0.000764
H63	H	1.041084	-0.339524	0.159220
C64	C	0.987851	-0.481482	0.264903
C65	C	0.959179	-0.456410	0.144428
H66	H	0.935254	-0.517955	0.293964
H67	H	1.062688	-0.510141	0.266007
H68	H	0.985049	-0.433348	0.316468
H69	H	0.961995	-0.504543	0.092863
H70	H	0.884340	-0.427760	0.143317
O71	O	1.509549	-0.470882	0.123257
C72	C	1.571757	-0.447052	0.020609
H73	H	1.529881	-0.384820	-0.017367
H74	H	1.572712	-0.497553	-0.053511
C75	C	1.746419	-0.513300	0.106547
C76	C	1.694992	-0.436862	0.059911
H77	H	1.822438	-0.507018	0.130788
H78	H	1.704509	-0.529358	0.175701
H79	H	1.747204	-0.555377	0.044773
H80	H	1.694195	-0.394789	0.121690
H81	H	1.736906	-0.420797	-0.009232
H82	H	1.362815	-0.454051	-0.204227
H83	H	1.494881	-0.464675	-0.116432
O84	O	1.155597	-0.438739	-0.100370
C85	C	1.225657	-0.497176	-0.171478
H86	H	1.295814	-0.529966	-0.110921
H87	H	1.265721	-0.462943	-0.249617
C88	C	1.067130	-0.522687	-0.299777
C89	C	1.153292	-0.562965	-0.225398
H90	H	1.022492	-0.563267	-0.333043
H91	H	1.019929	-0.483314	-0.251874
H92	H	1.100530	-0.494160	-0.364884
H93	H	1.119891	-0.591482	-0.160285
H94	H	1.200486	-0.602344	-0.273291
O95	O	1.158927	-0.286506	0.100073
C96	C	1.066812	-0.229095	0.061178
H97	H	1.042662	-0.244490	-0.037182
H98	H	1.092674	-0.162480	0.064906
C99	C	0.993538	-0.216661	0.267328
C100	C	0.963871	-0.235575	0.146525
H101	H	0.930040	-0.220654	0.319976
H102	H	1.055600	-0.255338	0.293535
H103	H	1.015091	-0.161150	0.270417
H104	H	0.942333	-0.291088	0.143434
H105	H	0.901803	-0.196907	0.120320
O106	O	1.349947	-0.303945	-0.220219
C107	C	1.258111	-0.244606	-0.186451
H108	H	1.273627	-0.219713	-0.090306
H109	H	1.175650	-0.275856	-0.186882
C110	C	1.229166	-0.201772	-0.396944
C111	C	1.248229	-0.171194	-0.278861
H112	H	1.223065	-0.156490	-0.453949
H113	H	1.291035	-0.241752	-0.419696
H114	H	1.160450	-0.227814	-0.397286
H115	H	1.316950	-0.145162	-0.278517
H116	H	1.186370	-0.131207	-0.256111
