data_functionalizedCrystal
_audit_creation_method	'MofGen! by Chris Wilmer'
_symmetry_space_group_name_H-M	'P1'
_symmetry_Int_Tables_number	1
_symmetry_cell_setting	triclinic
loop_
_symmetry_equiv_pos_as_xyz
  x,y,z
_cell_length_a	10.654549
_cell_length_b	14.421503
_cell_length_c	10.654550
_cell_angle_alpha	90.004485
_cell_angle_beta	95.515146
_cell_angle_gamma	90.006690
loop_
_atom_site_label
_atom_site_type_symbol
_atom_site_fract_x
_atom_site_fract_y
_atom_site_fract_z
O1	O	1.667849	0.077090	-0.176380
O2	O	2.167849	0.577090	0.323620
O3	O	1.302370	0.077097	-0.193186
O4	O	1.802370	0.577097	0.306814
O5	O	1.493513	0.077087	-0.002044
O6	O	1.993513	0.577087	0.497956
O7	O	1.476707	0.077099	-0.367522
O8	O	1.976707	0.577099	0.132478
O9	O	1.493481	-0.077136	-0.002072
O10	O	1.993481	0.422864	0.497928
O11	O	1.302339	-0.077127	-0.193215
O12	O	1.802339	0.422873	0.306785
O13	O	1.667817	-0.077133	-0.176408
O14	O	2.167817	0.422867	0.323592
Cu15	Cu	1.485075	-0.091212	-0.184814
Cu16	Cu	1.985075	0.408788	0.315186
Cu17	Cu	1.485113	0.091175	-0.184780
Cu18	Cu	1.985113	0.591175	0.315220
O19	O	1.476675	-0.077124	-0.367550
O20	O	1.976675	0.422876	0.132450
C21	C	1.255557	-0.000014	-0.191966
C22	C	1.755557	0.499986	0.308034
C23	C	1.116113	-0.000012	-0.188275
C24	C	1.616113	0.499988	0.311725
N25	N	1.485058	-0.219493	-0.184837
N26	N	1.985058	0.280507	0.315163
C27	C	0.905599	-0.000012	-0.297338
C28	C	1.405599	0.499988	0.202662
C29	C	1.036619	-0.000007	-0.300816
C30	C	1.536619	0.499993	0.199184
C31	C	1.064581	-0.000014	-0.072247
C32	C	1.564581	0.499986	0.427753
C33	C	0.933563	-0.000013	-0.068770
C34	C	1.433563	0.499987	0.431230
C35	C	1.396658	-0.469143	-0.273181
C36	C	1.896658	0.030857	0.226819
C37	C	1.510355	-0.530946	-0.298546
C38	C	2.010355	-0.030946	0.201454
C39	C	1.485088	-0.408655	-0.184807
C40	C	1.985088	0.091345	0.315193
C41	C	1.371421	-0.530945	-0.159472
C42	C	1.871421	-0.030945	0.340528
C43	C	1.485107	-0.591376	-0.184781
C44	C	1.985107	-0.091376	0.315219
C45	C	1.598843	-0.469098	-0.210229
C46	C	2.098843	0.030902	0.289771
C47	C	1.459834	-0.469090	-0.071105
C48	C	1.959834	0.030910	0.428895
C49	C	1.573613	-0.530866	-0.096422
C50	C	2.073613	-0.030866	0.403578
C51	C	1.485075	-0.303393	-0.184825
C52	C	1.985075	0.196607	0.315175
C53	C	1.485133	-0.696635	-0.184762
C54	C	1.985133	-0.196635	0.315238
C55	C	1.714631	-0.000020	-0.177628
C56	C	2.214631	0.499980	0.322372
C57	C	1.854074	-0.000017	-0.181319
C58	C	2.354074	0.499983	0.318681
C59	C	1.492263	-0.000024	0.044740
C60	C	1.992263	0.499976	0.544740
C61	C	1.488571	-0.000022	0.184183
C62	C	1.988571	0.499978	0.684183
N63	N	1.485140	0.219456	-0.184747
N64	N	1.985140	0.719456	0.315253
C65	C	1.477925	-0.000011	-0.414334
C66	C	1.977925	0.499989	0.085666
C67	C	1.481617	-0.000006	-0.553777
C68	C	1.981617	0.499994	-0.053777
C69	C	1.601113	-0.000024	0.263669
C70	C	2.101113	0.499976	0.763669
C71	C	1.597636	-0.000013	0.394690
C72	C	2.097636	0.499987	0.894690
C73	C	1.369067	-0.000002	0.366727
C74	C	1.869067	0.499998	0.866727
C75	C	1.372544	-0.000007	0.235708
C76	C	1.872544	0.499993	0.735708
H77	H	0.840882	-0.000015	-0.388983
H78	H	1.340882	0.499985	0.111017
F79	F	1.724598	-0.000040	0.208837
F80	F	2.224598	0.499960	0.708837
H81	H	1.648486	-0.557798	-0.021673
H82	H	2.148486	-0.057798	0.478327
H83	H	1.689279	-0.000012	0.459403
H84	H	2.189279	0.499988	0.959403
H85	H	1.438421	-0.441899	0.025008
H86	H	1.938421	0.058101	0.525008
H87	H	1.280894	-0.000002	0.170987
H88	H	1.780894	0.499998	0.670987
F89	F	1.724529	-0.433742	-0.238369
F90	F	2.224529	0.066258	0.261631
F91	F	1.245767	-0.566456	-0.131476
F92	F	1.745767	-0.066456	0.368524
F93	F	1.299013	-0.433714	-0.370941
F94	F	1.799013	0.066286	0.129059
F95	F	1.245589	0.000015	0.421575
F96	F	1.745589	0.500015	0.921575
H97	H	1.078563	-0.000002	-0.395290
H98	H	1.578563	0.499998	0.104710
H99	H	0.891612	-0.000013	0.025712
H100	H	1.391612	0.499987	0.525712
F101	F	1.149188	-0.000016	0.047529
F102	F	1.649188	0.499984	0.547529
F103	F	1.538300	-0.566460	-0.424211
F104	F	2.038300	-0.066460	0.075789
