data_functionalizedCrystal
_audit_creation_method	'MofGen! by Chris Wilmer'
_symmetry_space_group_name_H-M	'P1'
_symmetry_Int_Tables_number	1
_symmetry_cell_setting	triclinic
loop_
_symmetry_equiv_pos_as_xyz
  x,y,z
_cell_length_a	16.109301
_cell_length_b	14.519709
_cell_length_c	15.186229
_cell_angle_alpha	89.995307
_cell_angle_beta	89.999362
_cell_angle_gamma	83.570813
loop_
_atom_site_label
_atom_site_type_symbol
_atom_site_fract_x
_atom_site_fract_y
_atom_site_fract_z
O1	O	1.103336	0.118540	-0.073175
O2	O	1.353336	0.368540	0.176825
O3	O	1.603336	0.618540	0.426825
O4	O	1.853336	0.868540	0.676825
O5	O	0.861299	0.133292	-0.073189
O6	O	1.111299	0.383292	0.176811
O7	O	1.361299	0.633292	0.426811
O8	O	1.611299	0.883292	0.676811
O9	O	0.988735	-0.008336	-0.073174
O10	O	1.238735	0.241664	0.176826
O11	O	1.488735	0.491664	0.426826
O12	O	1.738735	0.741664	0.676826
O13	O	0.975900	0.260168	-0.073190
O14	O	1.225900	0.510168	0.176810
O15	O	1.475900	0.760168	0.426810
O16	O	1.725900	1.010168	0.676810
O17	O	0.988726	-0.008338	0.073284
O18	O	1.238726	0.241662	0.323284
O19	O	1.488726	0.491662	0.573284
O20	O	1.738726	0.741662	0.823284
O21	O	0.861291	0.133290	0.073268
O22	O	1.111291	0.383290	0.323268
O23	O	1.361291	0.633290	0.573268
O24	O	1.611291	0.883290	0.823268
O25	O	1.103327	0.118538	0.073282
O26	O	1.353327	0.368538	0.323282
O27	O	1.603327	0.618538	0.573282
O28	O	1.853327	0.868538	0.823282
Zn29	Zn	0.982308	0.125914	0.096529
Zn30	Zn	1.232308	0.375914	0.346529
Zn31	Zn	1.482308	0.625914	0.596529
Zn32	Zn	1.732308	0.875914	0.846529
Zn33	Zn	0.982319	0.125916	-0.096435
Zn34	Zn	1.232319	0.375916	0.153565
Zn35	Zn	1.482319	0.625916	0.403565
Zn36	Zn	1.732319	0.875916	0.653565
O37	O	0.975892	0.260166	0.073267
O38	O	1.225892	0.510166	0.323267
O39	O	1.475892	0.760166	0.573267
O40	O	1.725892	1.010166	0.823267
C41	C	0.830319	0.132693	0.000038
C42	C	1.080319	0.382693	0.250038
C43	C	1.330319	0.632693	0.500038
C44	C	1.580319	0.882693	0.750038
C45	C	0.738021	0.130902	0.000033
C46	C	0.988021	0.380902	0.250033
C47	C	1.238021	0.630902	0.500033
C48	C	1.488021	0.880902	0.750033
C49	C	0.515887	0.210775	0.000038
C50	C	0.765887	0.460775	0.250038
C51	C	1.015887	0.710775	0.500038
C52	C	1.265887	0.960775	0.750038
C53	C	0.429163	0.209085	0.000044
C54	C	0.679163	0.459085	0.250044
C55	C	0.929163	0.709085	0.500044
C56	C	1.179163	0.959085	0.750044
C57	C	0.448747	0.041048	0.000050
C58	C	0.698747	0.291048	0.250050
C59	C	0.948747	0.541048	0.500050
C60	C	1.198747	0.791048	0.750050
C61	C	0.535468	0.042739	0.000051
C62	C	0.785468	0.292739	0.250051
C63	C	1.035468	0.542739	0.500051
C64	C	1.285468	0.792739	0.750051
C65	C	0.569036	0.127606	0.000040
C66	C	0.819036	0.377606	0.250040
C67	C	1.069036	0.627606	0.500040
C68	C	1.319036	0.877606	0.750040
C69	C	0.395591	0.124224	0.000045
C70	C	0.645591	0.374224	0.250045
C71	C	0.895591	0.624224	0.500045
C72	C	1.145591	0.874224	0.750045
C73	C	0.301562	0.122390	0.000052
C74	C	0.551562	0.372390	0.250052
C75	C	0.801562	0.622390	0.500052
C76	C	1.051562	0.872390	0.750052
C77	C	0.663071	0.129440	0.000036
C78	C	0.913071	0.379440	0.250036
C79	C	1.163071	0.629440	0.500036
C80	C	1.413071	0.879440	0.750036
C81	C	0.988132	-0.042696	0.000055
C82	C	1.238132	0.207304	0.250055
C83	C	1.488132	0.457304	0.500055
C84	C	1.738132	0.707304	0.750055
C85	C	0.986340	-0.145073	0.000056
C86	C	1.236340	0.104927	0.250056
C87	C	1.486340	0.354927	0.500056
C88	C	1.736340	0.604927	0.750056
C89	C	0.979741	-0.519955	0.000032
C90	C	1.229741	-0.269955	0.250032
C91	C	1.479741	-0.019955	0.500032
C92	C	1.729741	0.230045	0.750032
C93	C	0.981574	-0.415651	0.000039
C94	C	1.231574	-0.165651	0.250039
C95	C	1.481574	0.084349	0.500039
C96	C	1.731574	0.334349	0.750039
C97	C	0.983041	-0.332517	0.000045
C98	C	1.233041	-0.082517	0.250045
C99	C	1.483041	0.167483	0.500045
C100	C	1.733041	0.417483	0.750045
C101	C	0.984873	-0.228207	0.000050
C102	C	1.234873	0.021793	0.250050
C103	C	1.484873	0.271793	0.500050
C104	C	1.734873	0.521793	0.750050
C105	C	1.134307	0.119136	0.000054
C106	C	1.384307	0.369136	0.250054
C107	C	1.634307	0.619136	0.500054
C108	C	1.884307	0.869136	0.750054
C109	C	1.226606	0.120928	0.000053
C110	C	1.476606	0.370928	0.250053
C111	C	1.726606	0.620928	0.500053
C112	C	1.976606	0.870928	0.750053
C113	C	0.976494	0.294526	0.000036
C114	C	1.226494	0.544526	0.250036
C115	C	1.476494	0.794526	0.500036
C116	C	1.726494	1.044526	0.750036
C117	C	0.978287	0.396903	0.000030
C118	C	1.228287	0.646903	0.250030
C119	C	1.478287	0.896903	0.500030
C120	C	1.728287	1.146903	0.750030
N121	N	0.982306	0.125911	0.228221
N122	N	1.232306	0.375911	0.478221
N123	N	1.482306	0.625911	0.728221
N124	N	1.732306	0.875911	0.978221
N125	N	0.982327	0.125911	-0.228128
N126	N	1.232327	0.375911	0.021872
N127	N	1.482327	0.625911	0.271872
N128	N	1.732327	0.875911	0.521872
C129	C	1.038754	0.063219	0.453951
C130	C	1.288754	0.313219	0.703951
C131	C	1.538754	0.563219	0.953951
C132	C	1.788754	0.813219	1.203951
C133	C	1.038756	0.063217	0.546141
C134	C	1.288756	0.313217	0.796141
C135	C	1.538756	0.563217	1.046141
C136	C	1.788756	0.813217	1.296141
C137	C	0.925873	0.188606	0.546136
C138	C	1.175873	0.438606	0.796136
C139	C	1.425873	0.688606	1.046136
C140	C	1.675873	0.938606	1.296136
C141	C	0.925867	0.188603	0.453948
C142	C	1.175867	0.438603	0.703948
C143	C	1.425867	0.688603	0.953948
C144	C	1.675867	0.938603	1.203948
C145	C	0.982312	0.125911	0.407858
C146	C	1.232312	0.375911	0.657858
C147	C	1.482312	0.625911	0.907858
C148	C	1.732312	0.875911	1.157858
C149	C	0.982321	0.125912	0.592236
C150	C	1.232321	0.375912	0.842236
C151	C	1.482321	0.625912	1.092236
C152	C	1.732321	0.875912	1.342236
C153	C	0.982323	0.125910	0.692192
C154	C	1.232323	0.375910	0.942192
C155	C	1.482323	0.625910	1.192192
C156	C	1.732323	0.875910	1.442192
C157	C	0.982309	0.125911	0.307895
C158	C	1.232309	0.375911	0.557895
C159	C	1.482309	0.625911	0.807895
C160	C	1.732309	0.875911	1.057895
H161	H	0.421405	-0.028048	0.000064
H162	H	0.671405	0.221952	0.250064
H163	H	0.921405	0.471952	0.500064
H164	H	1.171405	0.721952	0.750064
F165	F	0.551609	0.301098	0.000030
F166	F	0.801609	0.551098	0.250030
F167	F	1.051609	0.801098	0.500030
F168	F	1.301609	1.051098	0.750030
H169	H	0.385892	0.276810	0.000044
H170	H	0.635892	0.526810	0.250044
H171	H	0.885892	0.776810	0.500044
H172	H	1.135892	1.026810	0.750044
H173	H	0.578745	-0.024991	0.000055
H174	H	0.828745	0.225009	0.250055
H175	H	1.078745	0.475009	0.500055
H176	H	1.328745	0.725009	0.750055
F177	F	1.098826	-0.003506	0.404902
F178	F	1.348826	0.246494	0.654902
F179	F	1.598826	0.496494	0.904902
F180	F	1.848826	0.746494	1.154902
F181	F	1.098827	-0.003509	0.595193
F182	F	1.348827	0.246491	0.845193
F183	F	1.598827	0.496491	1.095193
F184	F	1.848827	0.746491	1.345193
H185	H	0.879918	0.239650	0.583672
H186	H	1.129918	0.489650	0.833672
H187	H	1.379918	0.739650	1.083672
H188	H	1.629918	0.989650	1.333672
F189	F	0.865789	0.255328	0.404889
F190	F	1.115789	0.505328	0.654889
F191	F	1.365789	0.755328	0.904889
F192	F	1.615789	1.005328	1.154889
