data_functionalizedCrystal
_audit_creation_method	'MofGen! by Chris Wilmer'
_symmetry_space_group_name_H-M	'P1'
_symmetry_Int_Tables_number	1
_symmetry_cell_setting	triclinic
loop_
_symmetry_equiv_pos_as_xyz
  x,y,z
_cell_length_a	21.395364
_cell_length_b	17.640280
_cell_length_c	21.395356
_cell_angle_alpha	101.220420
_cell_angle_beta	90.016560
_cell_angle_gamma	78.798629
loop_
_atom_site_label
_atom_site_type_symbol
_atom_site_fract_x
_atom_site_fract_y
_atom_site_fract_z
Zn1	Zn	1.008329	-0.314732	0.303897
Zn2	Zn	1.029462	-0.446900	0.177969
Zn3	Zn	0.903561	-0.314745	0.199132
Zn4	Zn	0.924722	-0.446860	0.282715
O5	O	0.966519	-0.380809	0.240928
O6	O	1.098812	-0.332276	0.287201
O7	O	1.012749	-0.429392	0.093094
O8	O	0.899758	-0.204139	0.230751
O9	O	1.114338	-0.429379	0.194681
O10	O	0.976731	-0.204130	0.307721
O11	O	0.920250	-0.332298	0.108643
O12	O	0.818688	-0.332258	0.210211
O13	O	0.935825	-0.429310	0.373206
O14	O	0.834235	-0.429323	0.271619
O15	O	0.997250	-0.332237	0.388769
O16	O	1.033268	-0.557498	0.174142
O17	O	0.956317	-0.557468	0.251098
C18	C	0.803728	-0.380788	0.240913
C19	C	0.734088	-0.380798	0.240919
C20	C	0.240420	-0.431443	0.272850
C21	C	0.305856	-0.431443	0.272843
C22	C	0.330454	-0.380826	0.240945
C23	C	0.289614	-0.330220	0.209038
C24	C	0.224181	-0.330227	0.209040
C25	C	0.422710	-0.309598	0.247493
C26	C	0.488142	-0.309589	0.247495
C27	C	0.532272	-0.380806	0.240935
C28	C	0.510962	-0.452032	0.234385
C29	C	0.445529	-0.452039	0.234387
C30	C	0.401405	-0.380814	0.240939
C31	C	0.644057	-0.431413	0.272829
C32	C	0.709494	-0.431414	0.272818
C33	C	0.693249	-0.330184	0.209017
C34	C	0.627815	-0.330190	0.209024
C35	C	0.603223	-0.380803	0.240933
C36	C	0.999399	-0.586162	0.208039
C37	C	1.013523	-0.674012	0.193990
C38	C	0.859480	-0.963002	0.347886
C39	C	0.872752	-1.045551	0.334665
C40	C	0.952932	-1.045517	0.254611
C41	C	0.939668	-0.962966	0.267828
C42	C	0.892941	-0.921715	0.314466
C43	C	0.973130	-0.921679	0.234407
C44	C	0.959864	-0.839136	0.247621
C45	C	0.913138	-0.797879	0.294255
C46	C	0.879676	-0.839172	0.327679
C47	C	1.019853	-0.962931	0.187766
C48	C	1.053315	-0.921645	0.154346
C49	C	1.040053	-0.839099	0.167562
C50	C	0.993327	-0.797843	0.214197
C51	C	1.073515	-0.797807	0.134138
C52	C	1.060250	-0.715263	0.147352
C53	C	0.980061	-0.715299	0.227410
C54	C	1.129945	-0.380831	0.240943
C55	C	1.199588	-0.380840	0.240949
C56	C	0.966541	-0.380768	0.404358
C57	C	0.966550	-0.380750	0.474002
C58	C	0.933527	-0.174655	0.273960
C59	C	0.919468	-0.086804	0.288036
C60	C	0.966524	-0.380793	0.078143
C61	C	0.966600	-0.380588	0.008535
C62	C	1.014758	-0.431141	0.967730
C63	C	1.014751	-0.431166	0.902290
C64	C	0.966590	-0.380624	0.877661
C65	C	0.918423	-0.330068	0.918475
C66	C	0.918428	-0.330050	0.983912
C67	C	0.950238	-0.309443	0.785397
C68	C	0.950237	-0.309460	0.719961
C69	C	0.966571	-0.380681	0.675831
C70	C	0.982918	-0.451887	0.697144
C71	C	0.982923	-0.451869	0.762581
C72	C	0.966579	-0.380639	0.806706
C73	C	1.014724	-0.431265	0.564068
C74	C	1.014712	-0.431291	0.498627
C75	C	0.918387	-0.330186	0.514814
C76	C	0.918396	-0.330167	0.580252
C77	C	0.966568	-0.380705	0.604876
H78	H	0.546892	-0.510023	0.229047
F79	F	0.422852	-0.527841	0.227414
F80	F	0.933095	-0.233608	0.832363
F81	F	1.000304	-0.527691	0.650182
F82	F	0.899133	-0.710028	0.308431
H83	H	0.624033	-0.472626	0.298811
F84	F	0.932844	-0.233676	0.697284
F85	F	0.584356	-0.276325	0.175076
H86	H	1.053975	-0.472323	0.869062
F87	F	1.002662	-1.089427	0.204978
F88	F	0.752952	-0.485281	0.306768
F89	F	0.930334	-0.671392	0.277053
F90	F	0.719426	-0.276319	0.175062
F91	F	0.867167	-0.276247	1.027341
H92	H	0.505486	-0.251592	0.252836
F93	F	1.065991	-0.485052	0.590276
F94	F	1.033988	-1.050783	0.173722
H95	H	0.386783	-0.251602	0.252825
F96	F	0.315794	-0.276352	0.175087
H97	H	1.091358	-0.955242	0.116371
H98	H	1.053926	-0.472464	0.465402
F99	F	0.867119	-0.276412	0.488603
F100	F	1.123240	-0.841719	0.084501
H101	H	0.879182	-0.288998	0.613478
H102	H	0.190934	-0.289017	0.183063
H103	H	0.845508	-1.079164	0.361891
H104	H	1.087497	-0.681647	0.120136
F105	F	0.214252	-0.485314	0.306808
F106	F	0.829948	-0.795265	0.377322
H107	H	0.821434	-0.929414	0.385868
H108	H	1.053982	-0.472295	0.987773
F109	F	1.000318	-0.527650	0.785262
F110	F	0.349320	-0.485304	0.306798
F111	F	0.867168	-0.276277	0.892262
