data_functionalizedCrystal
_audit_creation_method	'MofGen! by Chris Wilmer'
_symmetry_space_group_name_H-M	'P1'
_symmetry_Int_Tables_number	1
_symmetry_cell_setting	triclinic
loop_
_symmetry_equiv_pos_as_xyz
  x,y,z
_cell_length_a	16.959455
_cell_length_b	21.295417
_cell_length_c	16.959447
_cell_angle_alpha	90.034146
_cell_angle_beta	90.014322
_cell_angle_gamma	90.026649
loop_
_atom_site_label
_atom_site_type_symbol
_atom_site_fract_x
_atom_site_fract_y
_atom_site_fract_z
Zn1	Zn	1.208331	-0.250648	0.446888
Zn2	Zn	1.208231	-0.355925	0.314700
Zn3	Zn	1.076159	-0.250668	0.314725
Zn4	Zn	1.076102	-0.355878	0.446839
O5	O	1.142206	-0.303280	0.380788
O6	O	1.318929	-0.264625	0.429363
O7	O	1.190694	-0.341990	0.204093
O8	O	1.093758	-0.162576	0.332288
O9	O	1.318855	-0.341971	0.332245
O10	O	1.190864	-0.162561	0.429387
O11	O	1.093661	-0.264658	0.204111
O12	O	0.965541	-0.264613	0.332240
O13	O	1.093660	-0.341891	0.557456
O14	O	0.965499	-0.341910	0.429304
O15	O	1.190808	-0.264579	0.557492
O16	O	1.190638	-0.444008	0.332198
O17	O	1.093563	-0.443973	0.429280
C18	C	0.936840	-0.303259	0.380770
C19	C	0.848983	-0.303265	0.380781
C20	C	0.477505	-0.262998	0.330353
C21	C	0.477510	-0.343613	0.431269
C22	C	0.560056	-0.343604	0.431264
C23	C	0.601330	-0.303292	0.380802
C24	C	0.560058	-0.262989	0.330345
C25	C	0.601333	-0.383911	0.481714
C26	C	0.683884	-0.383904	0.481711
C27	C	0.725160	-0.343588	0.431252
C28	C	0.683884	-0.303283	0.380794
C29	C	0.725158	-0.262971	0.330332
C30	C	0.683883	-0.222662	0.279877
C31	C	0.601334	-0.222673	0.279886
C32	C	0.807709	-0.343577	0.431243
C33	C	0.807711	-0.262962	0.330324
C34	C	1.142105	-0.466831	0.380748
C35	C	1.142134	-0.536799	0.380757
C36	C	1.192668	-0.569601	0.431353
C37	C	1.192696	-0.635344	0.431372
C38	C	1.142198	-0.668282	0.380782
C39	C	1.091654	-0.635472	0.330183
C40	C	1.091622	-0.569731	0.330170
N41	N	1.136233	-0.771547	0.311606
N42	N	1.136268	-0.833998	0.311620
C43	C	1.142291	-0.866356	0.380818
N44	N	1.148292	-0.833904	0.450002
N45	N	1.148261	-0.771447	0.449987
C46	C	1.142227	-0.739567	0.380790
C47	C	1.192858	-0.970444	0.431439
C48	C	1.192880	-1.036188	0.431460
C49	C	1.091842	-1.036315	0.330263
C50	C	1.091816	-0.970572	0.330249
C51	C	1.142328	-0.937641	0.380836
C52	C	1.348374	-0.303301	0.380807
C53	C	1.436231	-0.303310	0.380815
C54	C	1.142239	-0.303228	0.586956
C55	C	1.142253	-0.303205	0.674813
C56	C	1.142328	-0.139089	0.380845
C57	C	1.142381	-0.069121	0.380870
C58	C	1.142219	-0.303286	0.175422
C59	C	1.142358	-0.303131	0.087566
C60	C	1.091767	-0.343392	1.046273
C61	C	1.192928	-0.262886	1.046305
C62	C	1.192907	-0.262900	0.963759
C63	C	1.142316	-0.303160	0.922466
C64	C	1.091746	-0.343407	0.963719
C65	C	1.243482	-0.222658	0.922500
C66	C	1.243463	-0.222670	0.839949
C67	C	1.192867	-0.262928	0.798654
C68	C	1.142295	-0.303176	0.839912
C69	C	1.091704	-0.343437	0.798619
C70	C	1.041126	-0.383682	0.839876
C71	C	1.041150	-0.383665	0.922425
C72	C	1.192844	-0.262945	0.716106
C73	C	1.091683	-0.343453	0.716066
H74	H	0.717483	-0.416725	0.522795
H75	H	0.999939	-0.416465	0.806244
H76	H	1.284675	-0.189883	0.956127
H77	H	1.050721	-1.063132	0.289077
H78	H	1.234031	-1.062894	0.472665
H79	H	0.841311	-0.376398	0.472320
H80	H	1.233796	-0.542790	0.472546
C81	C	1.292919	-0.183312	1.038048
C82	C	1.248537	-0.218634	1.091691
H83	H	1.327254	-0.155994	1.066071
H84	H	1.258489	-0.159236	1.005866
H85	H	1.323125	-0.210752	1.005834
H86	H	1.218328	-0.191194	1.123901
H87	H	1.282972	-0.242712	1.123887
C88	C	1.292843	-0.183371	0.724434
C89	C	1.248431	-0.218710	0.670757
H90	H	1.327158	-0.156059	0.696436
H91	H	1.323064	-0.210797	0.756614
H92	H	1.258425	-0.159284	0.756646
H93	H	1.282849	-0.242802	0.638548
H94	H	1.218208	-0.191281	0.638563
C95	C	1.053183	-0.449976	1.071634
C96	C	1.036174	-0.387630	1.091615
H97	H	1.018858	-0.477285	1.099624
H98	H	1.106280	-0.459187	1.085166
H99	H	1.045933	-0.455739	1.016559
H100	H	1.043430	-0.381866	1.146689
H101	H	0.983064	-0.378416	1.078088
C102	C	1.080875	-0.896708	0.223906
C103	C	1.036275	-0.934509	0.274627
H104	H	1.046581	-0.874442	0.189571
H105	H	1.115336	-0.922350	0.193708
H106	H	1.110944	-0.867688	0.254043
H107	H	1.006210	-0.963532	0.244489
H108	H	1.001799	-0.908865	0.304827
H109	H	1.050478	-0.376232	0.682451
H110	H	0.841311	-0.230131	0.289236
H111	H	0.567722	-0.416735	0.522792
H112	H	1.233841	-0.662056	0.472583
H113	H	0.999975	-0.416433	0.956023
C114	C	0.957792	-0.549603	0.291541
C115	C	1.036075	-0.533672	0.274547
H116	H	0.923501	-0.527343	0.257196
H117	H	0.946191	-0.538800	0.344630
H118	H	0.950591	-0.593471	0.284308
H119	H	1.043277	-0.489805	0.281786
H120	H	1.047679	-0.544471	0.221445
C121	C	1.046850	-0.736306	0.285263
C122	C	1.036148	-0.671675	0.274571
H123	H	1.012582	-0.758654	0.250927
H124	H	1.035252	-0.747054	0.338356
H125	H	1.099974	-0.747043	0.273742
H126	H	0.983025	-0.660938	0.286098
H127	H	1.047740	-0.660923	0.221465
H128	H	1.233985	-0.943630	0.472632
H129	H	1.284646	-0.189899	0.806365
C130	C	0.384643	-0.254149	0.224056
C131	C	0.432141	-0.218692	0.274892
H132	H	0.356641	-0.226796	0.189814
H133	H	0.348249	-0.278150	0.254110
H134	H	0.416830	-0.281542	0.193756
H135	H	0.399953	-0.191303	0.305196
H136	H	0.468539	-0.194681	0.244835
H137	H	0.567721	-0.189857	0.238807
C138	C	0.776689	-0.213812	0.173570
C139	C	0.729261	-0.178354	0.224409
H140	H	0.804709	-0.186458	0.139332
H141	H	0.744458	-0.241200	0.143275
H142	H	0.813074	-0.237816	0.203628
H143	H	0.692871	-0.154353	0.194352
H144	H	0.761494	-0.150955	0.254708
C145	C	0.350971	-0.379420	0.476085
C146	C	0.432143	-0.387922	0.486734
H147	H	0.322963	-0.406773	0.510334
H148	H	0.337428	-0.388585	0.422963
H149	H	0.337471	-0.337135	0.487750
H150	H	0.445644	-0.430206	0.475064
H151	H	0.445691	-0.378761	0.539869
