data_functionalizedCrystal
_audit_creation_method	'MofGen! by Chris Wilmer'
_symmetry_space_group_name_H-M	'P1'
_symmetry_Int_Tables_number	1
_symmetry_cell_setting	triclinic
loop_
_symmetry_equiv_pos_as_xyz
  x,y,z
_cell_length_a	10.489716
_cell_length_b	10.489741
_cell_length_c	9.565339
_cell_angle_alpha	89.999100
_cell_angle_beta	90.001725
_cell_angle_gamma	95.465845
loop_
_atom_site_label
_atom_site_type_symbol
_atom_site_fract_x
_atom_site_fract_y
_atom_site_fract_z
O1	O	-0.179961	1.694037	-0.116180
O2	O	-0.196854	1.322840	-0.116203
O3	O	-0.002807	1.516901	-0.116175
O4	O	-0.374007	1.499976	-0.116208
O5	O	-0.002819	1.516886	0.116345
O6	O	-0.196866	1.322825	0.116317
O7	O	-0.179973	1.694022	0.116340
Zn8	Zn	-0.188421	1.508421	0.153246
Zn9	Zn	-0.188405	1.508441	-0.153109
O10	O	-0.374019	1.499960	0.116312
C11	C	-0.195584	1.275301	0.000055
C12	C	-0.191767	1.133672	0.000047
C13	C	-0.068301	1.065542	0.000071
C14	C	-0.126619	0.973418	-0.114576
C15	C	-0.126660	0.973437	0.114671
C16	C	-0.250136	1.043413	-0.114695
C17	C	-0.250160	1.043441	0.114655
C18	C	-0.308568	0.951344	-0.000020
C19	C	-0.421545	1.501240	0.000047
C20	C	-0.563176	1.505044	0.000035
C21	C	-0.660850	1.386040	0.000047
C22	C	-0.738219	1.448933	-0.114582
C23	C	-0.738166	1.448944	0.114665
C24	C	-0.638680	1.567887	-0.114689
C25	C	-0.638622	1.567881	0.114660
C26	C	-0.715942	1.630862	0.000003
C27	C	0.044719	1.515622	0.000086
C28	C	0.186350	1.511817	0.000090
C29	C	-0.181243	1.741561	0.000079
C30	C	-0.185060	1.883190	0.000078
N31	N	-0.188431	1.508416	0.362325
N32	N	-0.188385	1.508455	-0.362189
C33	C	-0.278141	1.418642	0.453516
C34	C	-0.303952	1.534136	0.546699
C35	C	-0.162631	1.392971	0.546698
C36	C	-0.214300	1.623969	0.453457
C37	C	-0.072928	1.482728	0.453447
C38	C	-0.098691	1.598306	0.546589
H39	H	-0.410172	0.901911	-0.000092
C40	C	-0.379581	1.317667	0.399082
C41	C	-0.500287	1.345199	0.446307
C42	C	-0.593766	1.252227	0.396173
H43	H	-0.362250	1.235756	0.432343
H44	H	-0.378456	1.317855	0.299767
H45	H	-0.501409	1.344998	0.545601
H46	H	-0.517658	1.427094	0.413049
H47	H	-0.592641	1.252415	0.296857
H48	H	-0.576423	1.170322	0.429437
H49	H	-0.675677	1.270901	0.428196
C50	C	-0.056787	0.932325	0.243865
C51	C	0.068935	0.990698	0.243330
C52	C	0.133344	0.952873	0.362321
H53	H	-0.055400	0.841914	0.243505
H54	H	-0.099759	0.957504	0.325312
H55	H	0.111896	0.965511	0.161904
H56	H	0.067586	1.081108	0.243711
H57	H	0.090372	0.978053	0.443768
H58	H	0.134722	0.862462	0.361950
H59	H	0.218649	0.992483	0.361980
C60	C	-0.319963	1.084406	-0.243972
C61	C	-0.445331	1.025122	-0.244104
C62	C	-0.509694	1.062871	-0.363161
H63	H	-0.276548	1.059886	-0.325382
H64	H	-0.322016	1.174755	-0.243218
H65	H	-0.443273	0.934793	-0.244871
H66	H	-0.488781	1.049635	-0.162722
H67	H	-0.511746	1.153220	-0.362408
H68	H	-0.466268	1.038349	-0.444562
H69	H	-0.594766	1.022662	-0.363261
C70	C	-0.243676	1.754063	0.398816
C71	C	-0.243488	1.752483	0.252451
C72	C	-0.270610	1.872277	0.202065
H73	H	-0.180406	1.818044	0.431249
H74	H	-0.325491	1.772407	0.431471
H75	H	-0.161685	1.734154	0.219809
H76	H	-0.306758	1.688528	0.219980
H77	H	-0.352425	1.890621	0.234721
H78	H	-0.207336	1.936248	0.234508
H79	H	-0.270498	1.871217	0.102753
H80	H	-0.401610	1.555890	0.587659
C81	C	0.002338	1.699858	0.600676
C82	C	-0.025255	1.820467	0.553203
C83	C	0.067767	1.914051	0.603019
H84	H	0.084214	1.682467	0.567366
H85	H	0.002264	1.698930	0.699994
H86	H	-0.025168	1.821392	0.453906
H87	H	-0.107114	1.837899	0.586510
H88	H	0.067693	1.913123	0.702337
H89	H	0.149637	1.896648	0.569706
H90	H	0.049051	1.995896	0.570827
H91	H	-0.074373	0.942415	-0.211494
H92	H	-0.595098	1.618066	0.211588
C93	C	-0.628118	1.247962	0.000097
C94	C	-0.680681	1.185348	0.119016
C95	C	-0.650567	1.058149	0.119091
H96	H	-0.537741	1.246298	0.000986
H97	H	-0.662436	1.205805	-0.081407
H98	H	-0.646358	1.227493	0.200500
H99	H	-0.771058	1.186975	0.118153
H100	H	-0.684885	1.015992	0.037587
H101	H	-0.560189	1.056499	0.119976
H102	H	-0.686236	1.015647	0.199769
H103	H	0.024699	1.460938	0.412455
H104	H	-0.302363	1.074476	0.211577
H105	H	-0.140829	1.295326	0.587658
H106	H	-0.781720	1.398703	-0.211505
H107	H	-0.595384	1.618098	-0.211720
H108	H	-0.740372	1.734453	-0.000048
C109	C	-0.796356	1.381923	0.243784
C110	C	-0.929195	1.387395	0.242737
C111	C	-0.982837	1.325642	0.361642
H112	H	-0.761064	1.423245	0.325297
H113	H	-0.777940	1.294981	0.243624
H114	H	-0.947601	1.474320	0.242911
H115	H	-0.964522	1.346066	0.161251
H116	H	-0.964421	1.238701	0.361481
H117	H	-0.947536	1.366970	0.443146
H118	H	-1.072974	1.329336	0.360941
H119	H	0.033196	1.115241	-0.000063
