data_functionalizedCrystal
_audit_creation_method	'MofGen! by Chris Wilmer'
_symmetry_space_group_name_H-M	'P1'
_symmetry_Int_Tables_number	1
_symmetry_cell_setting	triclinic
loop_
_symmetry_equiv_pos_as_xyz
  x,y,z
_cell_length_a	23.532407
_cell_length_b	23.532407
_cell_length_c	22.010155
_cell_angle_alpha	89.999577
_cell_angle_beta	89.996931
_cell_angle_gamma	82.848678
loop_
_atom_site_label
_atom_site_type_symbol
_atom_site_fract_x
_atom_site_fract_y
_atom_site_fract_z
O1	O	0.755264	0.069127	-0.050455
O2	O	1.255264	0.569127	0.449545
O3	O	0.589400	0.079130	-0.050474
O4	O	1.089400	0.579130	0.449526
O5	O	0.677334	-0.008803	-0.050453
O6	O	1.177334	0.491197	0.449547
O7	O	0.667330	0.157060	-0.050476
O8	O	1.167330	0.657060	0.449524
O9	O	0.677318	-0.008790	0.050597
O10	O	1.177318	0.491210	0.550597
O11	O	0.589384	0.079143	0.050576
O12	O	1.089384	0.579143	0.550576
O13	O	0.755248	0.069140	0.050595
O14	O	1.255248	0.569140	0.550595
Cu15	Cu	0.672315	0.074143	0.059812
Cu16	Cu	1.172315	0.574143	0.559812
Cu17	Cu	0.672333	0.074127	-0.059691
Cu18	Cu	1.172333	0.574127	0.440309
O19	O	0.667314	0.157073	0.050574
O20	O	1.167314	0.657073	0.550574
C21	C	0.568176	0.078882	0.000049
C22	C	1.068176	0.578882	0.500049
C23	C	0.504959	0.078116	0.000042
C24	C	1.004959	0.578116	0.500042
C25	C	0.105856	0.125350	0.000063
C26	C	0.605856	0.625350	0.500063
C27	C	0.046456	0.124638	0.000067
C28	C	0.546456	0.624638	0.500067
O29	O	0.009711	0.168424	0.000083
O30	O	0.509711	0.668424	0.500083
N31	N	0.023830	0.072362	0.000073
N32	N	0.523830	0.572362	0.500073
C33	C	0.060607	0.020794	0.000082
C34	C	0.560607	0.520794	0.500082
O35	O	0.035908	-0.023737	0.000088
O36	O	0.535908	0.476263	0.500088
C37	C	0.120006	0.021506	0.000082
C38	C	0.620006	0.521506	0.500082
C39	C	0.142629	0.073785	0.000070
C40	C	0.642629	0.573785	0.500070
C41	C	0.128479	0.177625	0.000051
C42	C	0.628479	0.677625	0.500051
C43	C	0.187876	0.178336	0.000046
C44	C	0.687876	0.678336	0.500046
C45	C	0.224649	0.126772	0.000053
C46	C	0.724649	0.626772	0.500053
C47	C	0.202025	0.074497	0.000065
C48	C	0.702025	0.574497	0.500065
C49	C	0.156783	-0.030062	0.000096
C50	C	0.656783	0.469938	0.500096
C51	C	0.216185	-0.029345	0.000097
C52	C	0.716185	0.470655	0.500097
C53	C	0.238808	0.022934	0.000084
C54	C	0.738808	0.522934	0.500084
C55	C	0.298194	0.023643	0.000067
C56	C	0.798194	0.523643	0.500067
N57	N	0.320820	0.075920	0.000061
N58	N	0.820820	0.575920	0.500061
C59	C	0.284048	0.127484	0.000054
C60	C	0.784048	0.627484	0.500054
C61	C	-0.064135	0.019302	0.000082
C62	C	0.435865	0.519302	0.500082
C63	C	-0.123533	0.018589	0.000077
C64	C	0.376467	0.518589	0.500077
C65	C	-0.137680	0.122434	0.000063
C66	C	0.362320	0.622434	0.500063
C67	C	-0.078281	0.123146	0.000064
C68	C	0.421719	0.623146	0.500064
C69	C	-0.041509	0.071578	0.000076
C70	C	0.458491	0.571578	0.500076
C71	C	0.408784	0.128974	0.000043
C72	C	0.908784	0.628974	0.500043
C73	C	0.468186	0.129680	0.000035
C74	C	0.968186	0.629680	0.500035
C75	C	0.482329	0.025836	0.000052
C76	C	0.982329	0.525836	0.500052
C77	C	0.422932	0.025129	0.000057
C78	C	0.922932	0.525129	0.500057
C79	C	0.386160	0.076702	0.000054
C80	C	0.886160	0.576702	0.500054
O81	O	0.334974	-0.020119	0.000054
O82	O	0.834974	0.479881	0.500054
O83	O	0.308755	0.172007	0.000055
O84	O	0.808755	0.672007	0.500055
C85	C	0.677071	-0.030013	0.000074
C86	C	1.177071	0.469987	0.500074
C87	C	0.676305	-0.093230	0.000078
C88	C	1.176305	0.406770	0.500078
C89	C	0.723539	-0.492333	0.000050
C90	C	1.223539	0.007667	0.500050
C91	C	0.722827	-0.551733	0.000046
C92	C	1.222827	-0.051733	0.500046
O93	O	0.766613	-0.588478	0.000028
O94	O	1.266613	-0.088478	0.500028
N95	N	0.670551	-0.574359	0.000040
N96	N	1.170551	-0.074359	0.500040
C97	C	0.618983	-0.537582	0.000033
C98	C	1.118983	-0.037582	0.500033
O99	O	0.574452	-0.562281	0.000027
O100	O	1.074452	-0.062281	0.500027
C101	C	0.619695	-0.478182	0.000033
C102	C	1.119695	0.021818	0.500033
C103	C	0.671974	-0.455560	0.000045
C104	C	1.171974	0.044440	0.500045
C105	C	0.775814	-0.469710	0.000061
C106	C	1.275814	0.030290	0.500061
C107	C	0.776525	-0.410313	0.000067
C108	C	1.276525	0.089687	0.500067
C109	C	0.724961	-0.373540	0.000062
C110	C	1.224961	0.126460	0.500062
C111	C	0.672685	-0.396164	0.000051
C112	C	1.172685	0.103836	0.500051
C113	C	0.568127	-0.441406	0.000022
C114	C	1.068127	0.058594	0.500022
C115	C	0.568844	-0.382004	0.000022
C116	C	1.068844	0.117996	0.500022
C117	C	0.621123	-0.359381	0.000034
C118	C	1.121123	0.140619	0.500034
C119	C	0.621832	-0.299995	0.000052
C120	C	1.121832	0.200005	0.500052
N121	N	0.674109	-0.277368	0.000057
N122	N	1.174109	0.222632	0.500057
C123	C	0.725673	-0.314141	0.000062
C124	C	1.225673	0.185859	0.500062
C125	C	0.617491	-0.662324	0.000031
C126	C	1.117491	-0.162324	0.500031
C127	C	0.616778	-0.721722	0.000035
C128	C	1.116778	-0.221722	0.500035
C129	C	0.720623	-0.735869	0.000047
C130	C	1.220623	-0.235869	0.500047
C131	C	0.721335	-0.676470	0.000047
C132	C	1.221335	-0.176470	0.500047
C133	C	0.669767	-0.639698	0.000037
C134	C	1.169767	-0.139698	0.500037
C135	C	0.727163	-0.189405	0.000075
C136	C	1.227163	0.310595	0.500075
C137	C	0.727869	-0.130003	0.000083
C138	C	1.227869	0.369997	0.500083
C139	C	0.624025	-0.115860	0.000069
C140	C	1.124025	0.384140	0.500069
C141	C	0.623318	-0.175257	0.000064
C142	C	1.123318	0.324743	0.500064
C143	C	0.674891	-0.212029	0.000065
C144	C	1.174891	0.287971	0.500065
O145	O	0.578070	-0.263215	0.000067
O146	O	1.078070	0.236785	0.500067
O147	O	0.770196	-0.289433	0.000060
O148	O	1.270196	0.210567	0.500060
C149	C	0.776472	0.069388	0.000071
C150	C	1.276472	0.569388	0.500071
C151	C	0.839689	0.070154	0.000073
C152	C	1.339689	0.570154	0.500073
C153	C	0.667577	0.178283	0.000046
C154	C	1.167577	0.678283	0.500046
C155	C	0.668343	0.241500	0.000037
C156	C	1.168343	0.741500	0.500037
N157	N	0.672305	0.074153	0.143865
N158	N	1.172305	0.574153	0.643865
N159	N	0.672347	0.074112	-0.143744
N160	N	1.172347	0.574112	0.356256
C161	C	0.711273	0.035196	0.563653
C162	C	1.211273	0.535196	1.063653
C163	C	0.711275	0.035192	0.627261
C164	C	1.211275	0.535192	1.127261
O165	O	0.744384	0.002076	0.660160
O166	O	1.244384	0.502076	1.160160
N167	N	0.672333	0.074115	0.659072
N168	N	1.172333	0.574115	1.159072
C169	C	0.633382	0.113041	0.627272
C170	C	1.133382	0.613041	1.127272
O171	O	0.600259	0.146148	0.660170
O172	O	1.100259	0.646148	1.160170
C173	C	0.633377	0.113042	0.563665
C174	C	1.133377	0.613042	1.063665
C175	C	0.672326	0.074120	0.531858
C176	C	1.172326	0.574120	1.031858
C177	C	0.750217	-0.003723	0.531846
C178	C	1.250217	0.496277	1.031846
C179	C	0.750215	-0.003719	0.468243
C180	C	1.250215	0.496281	0.968243
C181	C	0.711268	0.035205	0.436447
C182	C	1.211268	0.535205	0.936447
C183	C	0.672324	0.074125	0.468255
C184	C	1.172324	0.574125	0.968255
C185	C	0.594424	0.151965	0.531866
C186	C	1.094424	0.651965	1.031866
C187	C	0.594422	0.151962	0.468256
C188	C	1.094422	0.651962	0.968256
C189	C	0.633370	0.113040	0.436448
C190	C	1.133370	0.613040	0.936448
C191	C	0.633374	0.113054	0.372856
C192	C	1.133374	0.613054	0.872856
N193	N	0.672317	0.074130	0.341045
N194	N	1.172317	0.574130	0.841045
C195	C	0.711263	0.035206	0.372841
C196	C	1.211263	0.535206	0.872841
C197	C	0.633395	0.113036	0.760850
C198	C	1.133395	0.613036	1.260850
C199	C	0.633402	0.113039	0.824455
C200	C	1.133402	0.613039	1.324455
C201	C	0.711294	0.035188	0.824440
C202	C	1.211294	0.535188	1.324440
C203	C	0.711290	0.035189	0.760833
C204	C	1.211290	0.535189	1.260833
C205	C	0.672337	0.074113	0.729039
C206	C	1.172337	0.574113	1.229039
C207	C	0.711256	0.035220	0.239269
C208	C	1.211256	0.535220	0.739269
C209	C	0.711252	0.035229	0.175660
C210	C	1.211252	0.535229	0.675660
C211	C	0.633358	0.113077	0.175681
C212	C	1.133358	0.613077	0.675681
C213	C	0.633364	0.113070	0.239284
C214	C	1.133364	0.613070	0.739284
C215	C	0.672315	0.074136	0.271077
C216	C	1.172315	0.574136	0.771077
O217	O	0.600282	0.146151	0.339916
O218	O	1.100282	0.646151	0.839916
O219	O	0.744376	0.002100	0.339935
O220	O	1.244376	0.502100	0.839935
H221	H	0.098544	0.219617	0.000048
H222	H	0.598544	0.719617	0.500048
H223	H	0.512280	-0.016146	0.000056
H224	H	1.012280	0.483854	0.500056
N225	N	-0.053883	0.179533	0.000048
N226	N	0.446117	0.679533	0.500048
H227	H	-0.086197	0.212087	0.000041
H228	H	0.413803	0.712087	0.500041
H229	H	-0.029550	0.182100	0.037509
H230	H	0.470450	0.682100	0.537509
H231	H	0.770443	-0.111587	0.000094
H232	H	1.270443	0.388413	0.500094
N233	N	0.591381	0.155022	0.726559
N234	N	1.091381	0.655022	1.226559
H235	H	0.566715	0.179677	0.756367
H236	H	1.066715	0.679677	1.256367
H237	H	0.613034	0.180093	0.700165
H238	H	1.113034	0.680093	1.200165
N239	N	0.591350	0.155057	0.141384
N240	N	1.091350	0.655057	0.641384
H241	H	0.612964	0.180165	0.114989
H242	H	1.112964	0.680165	0.614989
H243	H	0.566272	0.133374	0.115032
H244	H	1.066272	0.633374	0.615032
N245	N	0.782785	-0.229062	0.000086
N246	N	1.282785	0.270938	0.500086
H247	H	0.784819	-0.254022	-0.037374
H248	H	1.284819	0.245978	0.462626
H249	H	0.815974	-0.205671	0.000119
H250	H	1.315974	0.294329	0.500119
H251	H	0.781929	-0.035414	0.442349
H252	H	1.281929	0.464586	0.942349
H253	H	0.562700	0.183658	0.442372
H254	H	1.062700	0.683658	0.942372
N255	N	0.832913	-0.385917	0.000077
N256	N	1.332913	0.114083	0.500077
H257	H	0.865466	-0.418233	0.000078
H258	H	1.365466	0.081767	0.500078
H259	H	0.835478	-0.361581	-0.037383
H260	H	1.335478	0.138419	0.462617
N261	N	0.753304	-0.006792	0.858744
N262	N	1.253304	0.493208	1.358744
H263	H	0.793684	-0.000433	0.847673
H264	H	1.293684	0.499567	1.347673
H265	H	0.747341	-0.000858	0.903852
H266	H	1.247341	0.499142	1.403852
H267	H	0.781933	-0.035423	0.557728
H268	H	1.281933	0.464577	1.057728
N269	N	0.568417	-0.076184	0.000075
N270	N	1.068417	0.423816	0.500075
H271	H	0.566407	-0.051220	-0.037381
H272	H	1.066407	0.448780	0.462619
H273	H	0.535215	-0.099559	0.000094
H274	H	1.035215	0.400441	0.500094
N275	N	0.511738	-0.465794	-0.000002
N276	N	1.011738	0.034206	0.499998
H277	H	0.519101	-0.509004	-0.000004
H278	H	1.019101	-0.009004	0.499996
H279	H	0.489178	-0.452320	0.037452
H280	H	0.989178	0.047680	0.537452
H281	H	0.817806	-0.499645	0.000063
H282	H	1.317806	0.000355	0.500063
H283	H	0.246123	-0.071339	0.000107
H284	H	0.746123	0.428661	0.500107
N285	N	0.753264	-0.006751	0.141354
N286	N	1.253264	0.493249	0.641354
H287	H	0.777935	-0.031410	0.171152
H288	H	1.277935	0.468590	0.671152
H289	H	0.731606	-0.031818	0.114963
H290	H	1.231606	0.468182	0.614963
N291	N	0.591394	0.155022	0.858755
N292	N	1.091394	0.655022	1.358755
H293	H	0.566304	0.133384	0.885145
H294	H	1.066304	0.633384	1.385145
H295	H	0.613050	0.180120	0.885110
H296	H	1.113050	0.680120	1.385110
H297	H	0.404512	-0.017441	0.000058
H298	H	0.904512	0.482559	0.500058
H299	H	0.743004	0.003495	0.734939
H300	H	1.243004	0.503495	1.234939
N301	N	0.552406	0.193937	0.566163
N302	N	1.052406	0.693937	1.066163
H303	H	0.527731	0.218586	0.536360
H304	H	1.027731	0.718586	1.036360
H305	H	0.527359	0.172249	0.592548
H306	H	1.027359	0.672249	1.092548
H307	H	0.378851	0.170970	0.000042
H308	H	0.878851	0.670970	0.500042
H309	H	0.601654	0.144769	0.265183
H310	H	1.101654	0.644769	0.765183
H311	H	0.206289	0.220908	0.000036
H312	H	0.706289	0.720908	0.500036
N313	N	0.492586	0.186070	0.000016
N314	N	0.992586	0.686070	0.500016
H315	H	0.460274	0.218626	0.000013
H316	H	0.960274	0.718626	0.500013
H317	H	0.516924	0.188636	0.037472
H318	H	1.016924	0.688636	0.537472
N319	N	0.561870	-0.622660	0.000038
N320	N	1.061870	-0.122660	0.500038
H321	H	0.559849	-0.597697	-0.037419
H322	H	1.059849	-0.097697	0.462581
H323	H	0.528679	-0.646049	0.000061
H324	H	1.028679	-0.146049	0.500061
H325	H	0.762610	-0.765821	0.000048
H326	H	1.262610	-0.265821	0.500048
N327	N	-0.177349	0.178052	0.000056
N328	N	0.322651	0.678052	0.500056
H329	H	-0.218409	0.169664	0.000060
H330	H	0.281591	0.669664	0.500060
H331	H	-0.170060	0.200855	0.037514
H332	H	0.329940	0.700855	0.537514
N333	N	0.560388	-0.746113	0.000037
N334	N	1.060388	-0.246113	0.500037
H335	H	0.537818	-0.732678	-0.037423
H336	H	1.037818	-0.232678	0.462577
H337	H	0.567800	-0.789319	0.000059
H338	H	1.067800	-0.289319	0.500059
N339	N	-0.147934	-0.037796	0.000083
N340	N	0.352066	0.462204	0.500083
H341	H	-0.134501	-0.060376	-0.037373
H342	H	0.365499	0.439624	0.462627
H343	H	-0.134495	-0.060319	0.037571
H344	H	0.365505	0.439681	0.537571
N345	N	-0.024475	-0.036321	0.000092
N346	N	0.475525	0.463679	0.500092
H347	H	-0.047826	-0.069542	0.000095
H348	H	0.452174	0.430458	0.500095
H349	H	0.000482	-0.038296	-0.037368
H350	H	0.500482	0.461704	0.462632
N351	N	0.753270	-0.006768	0.273554
N352	N	1.253270	0.493232	0.773554
H353	H	0.777940	-0.031418	0.243745
H354	H	1.277940	0.468582	0.743745
H355	H	0.778323	0.014910	0.299940
H356	H	1.278323	0.514910	0.799940
H357	H	0.763906	-0.658056	0.000056
H358	H	1.263906	-0.158056	0.500056
H359	H	0.138375	-0.072634	0.000106
H360	H	0.638375	0.427366	0.500106
N361	N	0.513223	-0.342342	0.000008
N362	N	1.013223	0.157658	0.500008
H363	H	0.480000	-0.365691	0.000000
H364	H	0.980000	0.134309	0.500000
H365	H	0.511246	-0.317390	0.037470
H366	H	1.011246	0.182610	0.537470
H367	H	0.580748	-0.193677	0.000071
H368	H	1.080748	0.306323	0.500071
