data_functionalizedCrystal
_audit_creation_method	'MofGen! by Chris Wilmer'
_symmetry_space_group_name_H-M	'P1'
_symmetry_Int_Tables_number	1
_symmetry_cell_setting	triclinic
loop_
_symmetry_equiv_pos_as_xyz
  x,y,z
_cell_length_a	6.817900
_cell_length_b	9.582860
_cell_length_c	16.305550
_cell_angle_alpha	93.101780
_cell_angle_beta	103.455250
_cell_angle_gamma	111.206767
loop_
_atom_site_label
_atom_site_type_symbol
_atom_site_fract_x
_atom_site_fract_y
_atom_site_fract_z
V1	V	-4.066500	-0.208318	-0.262876
O2	O	-4.012158	0.008711	-0.258031
O3	O	-4.057274	-0.411809	-0.260925
O4	O	-4.017397	-0.205684	-0.377595
O5	O	-4.052310	-0.198842	-0.140553
V6	V	-4.545144	-0.182291	-0.248264
O7	O	-4.338463	-0.265409	-0.294929
O8	O	-4.723378	-0.125200	-0.216211
O9	O	-4.331164	0.021200	-0.250215
O10	O	-4.716883	-0.399320	-0.253109
O11	O	-4.676731	-0.191767	-0.370586
O12	O	-4.371040	-0.184925	-0.133545
C13	C	-3.911827	-0.461398	-0.256738
C14	C	-3.985565	-0.627759	-0.255908
C15	C	-3.860960	-0.198463	-0.405561
C16	C	-3.902355	-0.197656	-0.499344
C17	C	-4.052838	-0.194528	-0.840092
C18	C	-3.814995	-0.185242	-0.799170
C19	C	-3.772084	-0.186701	-0.701674
C20	C	-3.978180	-0.196079	-0.671043
C21	C	-4.173773	-0.343876	-0.721559
C22	C	-4.215475	-0.343040	-0.819109
C23	C	-4.081056	-0.057197	-0.794351
C24	C	-4.032900	-0.056027	-0.696509
C25	C	-3.936001	-0.196961	-0.575504
C26	C	-4.095028	-0.193656	-0.935631
C27	C	-4.139954	0.070781	-0.254399
C28	C	-4.045455	0.237140	-0.255235
C29	C	-4.190821	-0.192151	-0.105574
C30	C	-4.128662	-0.192951	-0.011790
H31	H	-3.688225	-0.078474	-0.811613
H32	H	-4.329288	-0.356084	-0.702637
C33	C	-4.314919	-0.064598	-0.830573
H34	H	-4.395029	-0.150907	-0.873362
H35	H	-4.384782	-0.071813	-0.786008
H36	H	-4.309220	0.024352	-0.854715
C37	C	-3.779821	-0.318532	-0.841627
H38	H	-3.635723	-0.312060	-0.816531
H39	H	-3.882378	-0.411347	-0.833601
H40	H	-3.799630	-0.314404	-0.900944
H41	H	-3.625052	-0.080435	-0.666730
C42	C	-4.231381	-0.053522	-0.667671
H43	H	-4.260673	0.032223	-0.683882
H44	H	-4.355260	-0.143247	-0.693917
H45	H	-4.200645	-0.047976	-0.607416
H46	H	-4.138434	-0.447867	-0.704669
H47	H	-3.724943	-0.286506	-0.685306
C48	C	-4.193774	-0.483475	-0.860050
H49	H	-4.159594	-0.540494	-0.817025
H50	H	-4.327802	-0.544324	-0.900494
H51	H	-4.080491	-0.452239	-0.887876
C52	C	-4.453696	-0.360571	-0.856917
H53	H	-4.524585	-0.368181	-0.812645
H54	H	-4.455492	-0.274860	-0.883265
H55	H	-4.527994	-0.449528	-0.898156
H56	H	-3.890729	0.053292	-0.662212
C57	C	-3.928339	0.094087	-0.812514
H58	H	-3.845930	0.074906	-0.848166
H59	H	-4.012980	0.146436	-0.840305
H60	H	-3.831838	0.154238	-0.760268
