data_functionalizedCrystal
_audit_creation_method	'MofGen! by Chris Wilmer'
_symmetry_space_group_name_H-M	'P1'
_symmetry_Int_Tables_number	1
_symmetry_cell_setting	triclinic
loop_
_symmetry_equiv_pos_as_xyz
  x,y,z
_cell_length_a	18.215407
_cell_length_b	10.685194
_cell_length_c	18.215399
_cell_angle_alpha	94.396576
_cell_angle_beta	90.017368
_cell_angle_gamma	94.374625
loop_
_atom_site_label
_atom_site_type_symbol
_atom_site_fract_x
_atom_site_fract_y
_atom_site_fract_z
Zn1	Zn	1.102695	-0.502506	0.393607
Zn2	Zn	1.093205	-0.713548	0.261107
Zn3	Zn	0.979626	-0.502537	0.270558
Zn4	Zn	0.970199	-0.713467	0.384141
O5	O	1.036431	-0.608014	0.327353
O6	O	1.204419	-0.530523	0.376036
O7	O	1.078113	-0.685604	0.159375
O8	O	1.003868	-0.325936	0.294797
O9	O	1.197448	-0.685574	0.278690
O10	O	1.094286	-0.325914	0.385200
O11	O	0.994667	-0.530574	0.166318
O12	O	0.875392	-0.530495	0.285619
O13	O	0.987801	-0.685436	0.488383
O14	O	0.868466	-0.685465	0.369068
O15	O	1.085145	-0.530444	0.495337
O16	O	1.068972	-0.890134	0.269511
O17	O	0.978600	-0.890074	0.359904
C18	C	0.845227	-0.607976	0.327342
C19	C	0.763427	-0.607989	0.327353
C20	C	0.578855	-0.527420	0.378109
C21	C	0.501996	-0.527431	0.378111
C22	C	0.494758	-0.688644	0.276609
C23	C	0.571616	-0.688626	0.276604
C24	C	0.613663	-0.608016	0.327358
C25	C	0.459945	-0.608045	0.327365
C26	C	0.376611	-0.608057	0.327367
C27	C	0.697002	-0.608001	0.327356
C28	C	1.021753	-0.935894	0.312671
C29	C	1.015541	-1.076162	0.306415
C30	C	1.228383	-0.608054	0.327365
C31	C	1.310181	-0.608071	0.327370
C32	C	1.036480	-0.607927	0.519310
C33	C	1.036501	-0.607890	0.601111
C34	C	1.051187	-0.278855	0.342109
C35	C	1.057475	-0.138587	0.348397
C36	C	1.036429	-0.608010	0.136147
C37	C	1.036567	-0.607692	0.054363
C38	C	1.087208	-0.527111	0.792930
C39	C	1.087219	-0.527074	0.869791
C40	C	0.985854	-0.688475	0.862538
C41	C	0.985841	-0.688504	0.785679
C42	C	1.036522	-0.607824	0.750877
C43	C	1.036546	-0.607758	0.904596
C44	C	1.036557	-0.607719	0.987932
C45	C	1.036510	-0.607861	0.667537
H46	H	0.460514	-0.754275	0.235288
O47	O	1.136401	-0.448847	0.759005
C48	C	1.125511	-0.466152	0.682150
H49	H	1.097049	-0.563547	0.667278
H50	H	1.089665	-0.391307	0.663693
C51	C	1.235439	-0.334972	0.661485
C52	C	1.200488	-0.454598	0.643219
H53	H	1.281688	-0.327840	0.637469
H54	H	1.242775	-0.323308	0.713263
H55	H	1.205560	-0.272614	0.646104
H56	H	1.230363	-0.516952	0.658608
H57	H	1.193159	-0.466272	0.591442
H58	H	0.944593	-0.754164	0.890883
O59	O	0.966987	-1.140555	0.257917
C60	C	0.916078	-1.216785	0.296414
H61	H	0.941146	-1.236313	0.351347
H62	H	0.863756	-1.166119	0.306686
C63	C	0.866492	-1.318134	0.182915
C64	C	0.897284	-1.342127	0.250382
H65	H	0.854896	-1.395449	0.154520
H66	H	0.900789	-1.266773	0.156978
H67	H	0.822895	-1.275909	0.191486
H68	H	0.940885	-1.384337	0.241812
H69	H	0.862994	-1.393498	0.276317
O70	O	1.136528	-0.448632	0.910529
C71	C	1.181241	-0.377409	0.863328
H72	H	1.181463	-0.429125	0.806224
H73	H	1.158587	-0.281563	0.859446
C74	C	1.260113	-0.295703	0.964288
C75	C	1.260391	-0.359227	0.894153
H76	H	1.308936	-0.284482	0.983303
H77	H	1.229988	-0.343683	0.996089
H78	H	1.241231	-0.215838	0.961044
H79	H	1.279264	-0.439096	0.897400
H80	H	1.290521	-0.311260	0.862353
H81	H	0.944561	-0.754230	0.751438
H82	H	0.473660	-0.461800	0.419436
O83	O	0.619617	-0.449176	0.427504
C84	C	0.599636	-0.476935	0.499586
H85	H	0.541665	-0.525463	0.498897
H86	H	0.640000	-0.541859	0.521404
C87	C	0.672795	-0.294401	0.550629
C88	C	0.601591	-0.353994	0.549783
H89	H	0.674004	-0.218567	0.581594
H90	H	0.686260	-0.275701	0.502067
H91	H	0.706424	-0.348517	0.568808
H92	H	0.567965	-0.299885	0.531595
H93	H	0.588122	-0.372683	0.598344
O94	O	0.605314	-0.767042	0.227274
C95	C	0.551724	-0.838179	0.182470
H96	H	0.496749	-0.842633	0.212412
H97	H	0.545599	-0.791847	0.128696
C98	C	0.643243	-0.966987	0.128947
C99	C	0.575723	-0.972466	0.165725
H100	H	0.658047	-1.049820	0.118614
H101	H	0.679348	-0.919058	0.159130
H102	H	0.638130	-0.928372	0.084139
H103	H	0.580839	-1.011066	0.210536
H104	H	0.539618	-1.020405	0.135549
H105	H	1.098131	-1.084724	0.389130
