data_functionalizedCrystal
_audit_creation_method	'MofGen! by Chris Wilmer'
_symmetry_space_group_name_H-M	'P1'
_symmetry_Int_Tables_number	1
_symmetry_cell_setting	triclinic
loop_
_symmetry_equiv_pos_as_xyz
  x,y,z
_cell_length_a	14.560438
_cell_length_b	14.560438
_cell_length_c	23.196401
_cell_angle_alpha	119.994114
_cell_angle_beta	89.983142
_cell_angle_gamma	60.000872
loop_
_atom_site_label
_atom_site_type_symbol
_atom_site_fract_x
_atom_site_fract_y
_atom_site_fract_z
Zr1	Zr	0.884734	1.005295	0.075665
O2	O	0.738043	1.196908	0.167726
O3	O	0.929702	0.813686	0.047440
O4	O	0.929648	1.005298	0.167716
O5	O	0.738141	1.005292	-0.047423
O6	O	1.080789	1.005295	0.167713
O7	O	0.738098	1.005296	0.047449
O8	O	1.080886	0.662536	-0.047439
O9	O	0.738043	1.348051	0.167730
O10	O	1.061676	0.892493	0.035404
O11	O	0.948913	0.892493	-0.035395
O12	O	0.948849	1.118091	0.106215
O13	O	0.836086	1.118090	0.035415
Zr14	Zr	1.125854	1.005284	-0.075649
Zr15	Zr	1.125786	1.005290	0.075660
Zr16	Zr	0.884802	1.005289	-0.075645
Zr17	Zr	0.884734	1.246350	0.075672
Zr18	Zr	1.125855	0.764228	-0.075656
O19	O	1.080886	1.196893	-0.047424
O20	O	1.080789	1.196902	0.167719
O21	O	0.738140	1.196900	-0.047417
O22	O	1.272545	0.813670	-0.167710
O23	O	1.272448	0.813679	0.047433
O24	O	0.929799	0.813677	-0.167703
O25	O	1.272448	1.005286	0.047438
O26	O	1.080940	1.005281	-0.167701
O27	O	0.929799	1.005284	-0.167698
O28	O	1.272490	1.005282	-0.047434
O29	O	0.929648	1.348048	0.167726
O30	O	1.080940	0.662531	-0.167710
O31	O	1.272545	0.662527	-0.167714
O32	O	1.272491	0.662532	-0.047443
O33	O	0.738097	1.348046	0.047459
O34	O	0.929702	1.348043	0.047455
O35	O	1.061740	0.892488	-0.106199
O36	O	1.174502	0.892488	-0.035400
O37	O	1.061675	1.118086	0.035411
O38	O	0.948913	1.118085	-0.035389
C39	C	1.005294	0.703765	-0.000001
C40	C	1.005294	0.601431	-0.000004
C41	C	0.922006	0.540496	0.052286
C42	C	0.922003	0.636639	0.052273
C43	C	1.088587	0.470069	-0.052275
C44	C	1.088584	0.373929	-0.052265
C45	C	0.838716	0.575715	0.104570
C46	C	0.755421	0.707071	0.156841
C47	C	0.755419	0.803214	0.156828
C48	C	0.838711	0.768001	0.104545
C49	C	0.703774	1.005295	0.000014
C50	C	0.601441	1.005297	0.000016
C51	C	0.553334	1.005301	0.052281
C52	C	0.457189	1.005289	0.052271
C53	C	0.457263	1.005274	-0.052270
C54	C	0.553411	1.005277	-0.052263
C55	C	0.601364	1.005321	0.104560
C56	C	0.553257	1.005327	0.156829
C57	C	0.457111	1.005315	0.156820
C58	C	0.409073	1.005297	0.104541
C59	C	1.306814	1.005284	0.000002
C60	C	1.409147	1.005282	-0.000000
C61	C	1.005209	1.005297	0.189273
C62	C	1.005180	1.005300	0.253508
C63	C	1.005294	1.306813	0.000016
C64	C	1.005294	1.409148	0.000019
C65	C	0.946289	1.123056	0.320644
C66	C	0.946313	1.123059	0.380999
C67	C	1.005213	1.005298	0.374215
C68	C	1.064117	0.887526	0.307067
C69	C	1.064100	0.887527	0.246714
C70	C	0.996845	0.915080	0.441530
C71	C	0.996853	0.915084	0.501884
C72	C	1.005271	1.005291	0.560364
C73	C	1.013657	1.095516	0.558489
C74	C	1.013641	1.095517	0.498135
C75	C	1.005238	1.005284	0.439654
C76	C	0.946403	1.123059	0.692946
C77	C	0.946436	1.123057	0.753301
C78	C	1.064232	0.887521	0.679367
C79	C	1.064208	0.887526	0.619014
C80	C	1.005287	1.005299	0.625808
C81	C	1.005362	1.005286	0.810744
C82	C	1.005338	1.005295	0.746513
C83	C	1.306814	0.703760	-0.000007
C84	C	1.409147	0.601423	-0.000012
C85	C	1.005380	0.703758	-0.189266
C86	C	1.005409	0.601421	-0.253504
C87	C	1.306899	0.703752	-0.189272
C88	C	1.409262	0.601413	-0.253512
C89	C	0.703689	1.306826	0.189288
C90	C	0.601327	1.409165	0.253528
C91	C	0.703774	1.306819	0.000023
C92	C	0.601441	1.409155	0.000028
C93	C	1.005208	1.306821	0.189282
C94	C	1.005179	1.409158	0.253520
C95	C	1.064317	0.553360	-0.320636
C96	C	1.064340	0.457217	-0.381000
C97	C	1.005461	0.409130	-0.374230
C98	C	0.946545	0.457201	-0.307091
C99	C	0.946517	0.553348	-0.246729
C100	C	1.516203	0.553354	-0.246723
C101	C	1.612392	0.457209	-0.307078
C102	C	1.601638	0.409119	-0.374220
C103	C	1.494685	0.457187	-0.381008
C104	C	1.398498	0.553337	-0.320654
C105	C	0.494385	1.457236	0.246739
C106	C	0.398196	1.553411	0.307093
C107	C	0.408950	1.601507	0.374236
C108	C	0.515903	1.553432	0.381024
C109	C	0.612090	1.457265	0.320670
C110	C	1.064070	1.457214	0.246727
C111	C	1.064065	1.553358	0.307080
C112	C	1.005161	1.601450	0.374224
C113	C	0.946269	1.553384	0.381015
C114	C	0.946282	1.457236	0.320663
C115	C	1.398332	0.553345	0.036942
C116	C	1.494489	0.457196	0.036940
C117	C	1.612272	0.457210	-0.036977
C118	C	1.516117	0.553363	-0.036970
C119	C	1.291363	0.601405	0.073901
C120	C	1.280543	0.553325	0.110857
C121	C	1.376700	0.457176	0.110855
C122	C	1.483676	0.409108	0.073896
H123	H	0.838712	0.497440	0.104588
Cl124	Cl	0.288211	1.005265	0.104528
H125	H	0.592379	1.005331	0.199389
H126	H	0.699164	1.418127	0.326206
Cl127	Cl	0.650709	0.751334	0.222559
Cl128	Cl	0.872212	1.613870	0.465430
H129	H	1.679968	0.330827	-0.423359
H130	H	1.156403	0.266976	-0.094826
Cl131	Cl	0.650700	0.968342	0.222534
Cl132	Cl	0.396641	1.005307	0.222523
Cl133	Cl	0.872227	1.396846	0.329214
Cl134	Cl	1.264061	0.613734	-0.329201
Cl135	Cl	0.872534	0.396732	-0.298593
H136	H	1.112264	0.592501	-0.326162
Cl137	Cl	1.138099	1.613771	0.298526
H138	H	1.561969	0.330823	0.073900
Cl139	Cl	1.529753	0.613800	-0.162323
Cl140	Cl	1.138131	1.396774	0.162325
Cl141	Cl	1.170476	0.722268	0.073901
H142	H	0.592581	1.005271	-0.094822
Cl143	Cl	1.746752	0.396776	-0.083440
H144	H	0.485607	1.418082	0.192074
Cl145	Cl	0.396869	1.005258	-0.117985
Cl146	Cl	0.872193	1.271113	0.329188
H147	H	1.193439	0.592476	0.140953
H148	H	0.990018	0.841622	0.503406
H149	H	0.989982	0.841622	0.393918
Cl150	Cl	1.138415	0.396800	-0.465395
H151	H	0.898550	0.592467	-0.192069
Cl152	Cl	1.529710	0.613815	-0.083424
H153	H	1.485945	0.418018	-0.435683
H154	H	1.699469	0.418082	-0.301539
Cl155	Cl	1.005153	1.722329	0.450089
H156	H	0.679649	1.005335	0.104573
Cl157	Cl	1.363097	0.396745	0.157320
H158	H	1.005493	0.330840	-0.423387
Cl159	Cl	0.288017	1.722401	0.450104
Cl160	Cl	0.838698	0.888872	0.104527
Cl161	Cl	0.263755	1.613823	0.298544
H162	H	0.524646	1.592604	0.435698
H163	H	0.898354	1.218953	0.435671
Cl164	Cl	1.193291	0.425811	-0.117997
H165	H	1.112057	0.791632	0.192047
H166	H	1.020472	1.168979	0.496612
H167	H	0.898428	1.218956	0.698479
Cl168	Cl	1.024241	1.208928	0.632002
H169	H	0.898484	1.218952	0.807968
Cl170	Cl	1.138294	0.739477	0.670832
H171	H	1.112075	0.791645	0.301547
Cl172	Cl	1.138222	0.739480	0.534610
