data_functionalizedCrystal
_audit_creation_method	'MofGen! by Chris Wilmer'
_symmetry_space_group_name_H-M	'P1'
_symmetry_Int_Tables_number	1
_symmetry_cell_setting	triclinic
loop_
_symmetry_equiv_pos_as_xyz
  x,y,z
_cell_length_a	16.109318
_cell_length_b	15.995292
_cell_length_c	15.186229
_cell_angle_alpha	89.999448
_cell_angle_beta	90.000224
_cell_angle_gamma	83.468590
loop_
_atom_site_label
_atom_site_type_symbol
_atom_site_fract_x
_atom_site_fract_y
_atom_site_fract_z
O1	O	1.103128	0.107696	-0.073149
O2	O	0.861069	0.121075	-0.073166
O3	O	0.988741	-0.007507	-0.073158
O4	O	0.975457	0.236278	-0.073157
O5	O	0.988732	-0.007509	0.073299
O6	O	0.861061	0.121073	0.073291
O7	O	1.103120	0.107694	0.073308
Zn8	Zn	0.982089	0.114383	0.096553
Zn9	Zn	0.982100	0.114386	-0.096411
O10	O	0.975448	0.236276	0.073301
C11	C	0.830090	0.120530	0.000060
C12	C	0.737796	0.118897	0.000054
C13	C	0.438726	0.113626	-0.079765
C14	C	0.525448	0.115154	-0.079770
C15	C	0.525457	0.115141	0.079906
C16	C	0.438738	0.113606	0.079910
C17	C	0.395374	0.112853	0.000072
C18	C	0.568815	0.115916	0.000062
C19	C	0.662842	0.117573	0.000057
C20	C	0.301341	0.111195	0.000077
C21	C	0.988196	-0.038703	0.000068
C22	C	0.986575	-0.131656	0.000061
C23	C	0.980616	-0.469393	0.000069
C24	C	1.072766	-0.446100	0.000403
C25	C	1.074517	-0.349425	0.000069
C26	C	0.983573	-0.301838	0.000066
C27	C	0.937507	-0.330928	-0.083569
C28	C	0.936398	-0.427718	-0.083636
C29	C	0.934506	-0.427577	0.082913
C30	C	0.937921	-0.331085	0.084015
C31	C	0.985239	-0.207142	0.000061
C32	C	0.978947	-0.564088	0.000068
C33	C	1.134099	0.108240	0.000080
C34	C	1.226393	0.109872	0.000081
C35	C	0.975993	0.267472	0.000072
C36	C	0.977614	0.360425	0.000073
N37	N	0.982087	0.114381	0.228246
N38	N	0.982108	0.114381	-0.228103
C39	C	1.038639	0.057464	0.453972
C40	C	1.038642	0.057462	0.546162
C41	C	0.925550	0.171301	0.546164
C42	C	0.925544	0.171298	0.453976
C43	C	0.982093	0.114381	0.407882
C44	C	0.982102	0.114382	0.592260
C45	C	0.982104	0.114380	0.692216
C46	C	0.982090	0.114381	0.307920
H47	H	0.403422	0.113012	-0.144774
O48	O	0.572209	0.115981	-0.165880
H49	H	0.604307	0.173709	-0.169696
H50	H	0.969503	-0.310873	-0.145807
O51	O	0.391969	0.112779	0.166023
H52	H	0.436688	0.113574	0.221539
H53	H	0.560774	0.115756	0.144907
O54	O	0.864552	0.232685	0.404250
H55	H	0.875132	0.297968	0.421925
O56	O	0.864571	0.232695	0.595885
H57	H	0.875150	0.297971	0.578177
H58	H	1.110595	-0.330408	0.060021
O59	O	1.119813	-0.483169	0.079863
H60	H	1.078027	-0.518601	0.119965
O61	O	1.119566	-0.484534	-0.078594
H62	H	1.077479	-0.520152	-0.118095
O63	O	0.848859	-0.288702	-0.087708
H64	H	0.849490	-0.219442	-0.090646
O65	O	1.099605	-0.003942	0.404249
H66	H	1.140011	0.031302	0.362239
O67	O	1.122583	-0.325041	-0.079483
H68	H	1.144659	-0.382332	-0.117871
H69	H	0.968308	-0.454541	-0.146152
H70	H	0.868833	-0.442254	-0.087428
H71	H	0.963523	-0.455673	0.146308
O72	O	0.982338	-0.306498	0.165980
H73	H	1.036700	-0.273580	0.147017
O74	O	0.849999	-0.287380	0.090728
H75	H	0.837406	-0.243944	0.034075
O76	O	0.844662	-0.446097	0.083673
H77	H	0.832865	-0.484890	0.025368
H78	H	1.084686	0.011115	0.583685
