data_functionalizedCrystal
_audit_creation_method	'MofGen! by Chris Wilmer'
_symmetry_space_group_name_H-M	'P1'
_symmetry_Int_Tables_number	1
_symmetry_cell_setting	triclinic
loop_
_symmetry_equiv_pos_as_xyz
  x,y,z
_cell_length_a	12.759395
_cell_length_b	12.759394
_cell_length_c	12.759387
_cell_angle_alpha	90.029697
_cell_angle_beta	90.020509
_cell_angle_gamma	90.016178
loop_
_atom_site_label
_atom_site_type_symbol
_atom_site_fract_x
_atom_site_fract_y
_atom_site_fract_z
Zn1	Zn	1.606269	-0.418168	0.594013
Zn2	Zn	1.606160	-0.593885	0.418337
Zn3	Zn	1.430567	-0.418225	0.418350
Zn4	Zn	1.430560	-0.593810	0.593976
O5	O	1.518389	-0.506022	0.506169
O6	O	1.753276	-0.441485	0.570719
O7	O	1.582825	-0.570639	0.271318
O8	O	1.453923	-0.271197	0.441673
O9	O	1.753195	-0.570583	0.441651
O10	O	1.583011	-0.271154	0.570732
O11	O	1.453817	-0.441582	0.271327
O12	O	1.283545	-0.441510	0.441637
O13	O	1.453911	-0.570456	0.741002
O14	O	1.283540	-0.570511	0.570669
O15	O	1.583003	-0.441412	0.741029
O16	O	1.582817	-0.740896	0.441615
O17	O	1.453805	-0.740841	0.570656
C18	C	1.245422	-0.506009	0.506151
C19	C	1.128645	-0.506029	0.506168
C20	C	1.518327	-0.778990	0.506153
C21	C	1.518396	-0.895766	0.506181
C22	C	1.128678	-0.640576	0.640312
C23	C	1.073833	-0.707857	0.707386
C24	C	0.964112	-0.707870	0.707399
C25	C	0.909232	-0.640592	0.640332
C26	C	0.964076	-0.573310	0.573258
C27	C	1.073800	-0.573307	0.573250
C28	C	0.964043	-0.438760	0.439121
C29	C	1.073765	-0.438751	0.439101
C30	C	0.909164	-0.371482	0.372054
C31	C	0.964008	-0.304204	0.304973
C32	C	1.073736	-0.304195	0.304962
C33	C	1.128609	-0.371469	0.372027
C34	C	1.652960	-1.115194	0.371955
C35	C	1.720156	-1.060324	0.304813
C36	C	1.720101	-0.950602	0.304792
C37	C	1.652842	-0.895748	0.371918
C38	C	1.585646	-0.950618	0.439060
C39	C	1.585710	-1.060342	0.439076
C40	C	1.451201	-0.950636	0.573323
C41	C	1.451259	-1.060358	0.573351
C42	C	1.383942	-0.895782	0.640450
C43	C	1.316750	-0.950652	0.707599
C44	C	1.316808	-1.060380	0.707617
C45	C	1.384064	-1.115228	0.640493
C46	C	1.792422	-0.506036	0.506188
C47	C	1.909199	-0.506042	0.506196
C48	C	1.518468	-0.505919	0.780203
C49	C	1.518502	-0.505875	0.896979
C50	C	1.518480	-0.231989	0.506208
C51	C	1.518519	-0.115212	0.506225
C52	C	1.518370	-0.506049	0.233202
C53	C	1.518540	-0.505797	0.116425
C54	C	1.652936	-0.371511	0.897028
C55	C	1.720167	-0.304313	0.951912
C56	C	1.720193	-0.304275	1.061634
C57	C	1.652977	-0.371439	1.116473
C58	C	1.585746	-0.438637	1.061589
C59	C	1.585730	-0.438671	0.951864
C60	C	1.451309	-0.572995	1.061540
C61	C	1.451287	-0.573040	0.951819
C62	C	1.384093	-0.640159	1.116380
C63	C	1.316866	-0.707364	1.061495
C64	C	1.316844	-0.707400	0.951766
C65	C	1.384056	-0.640238	0.896934
H66	H	1.118529	-0.762632	0.761992
C67	C	1.310851	-0.713462	0.739727
C68	C	1.384048	-0.640293	0.776326
H69	H	1.310857	-0.713499	0.665268
H70	H	1.243071	-0.695265	0.764522
H71	H	1.328996	-0.781248	0.764558
H72	H	1.365898	-0.572505	0.751502
H73	H	1.451842	-0.658484	0.751520
C74	C	1.175537	-1.183872	0.722121
C75	C	1.242942	-1.120688	0.781424
H76	H	1.129931	-1.221095	0.767689
H77	H	1.215598	-1.232243	0.682164
H78	H	1.135355	-1.141124	0.676304
H79	H	1.283129	-1.163438	0.827236
H80	H	1.202876	-1.072312	0.821398
C81	C	1.197067	-0.289404	0.163652
C82	C	1.134023	-0.230238	0.231231
H83	H	1.234286	-0.243744	0.118138
H84	H	1.154232	-0.335119	0.123389
H85	H	1.245450	-0.329464	0.203599
H86	H	1.085634	-0.190184	0.191283
H87	H	1.176861	-0.184505	0.271497
C88	C	1.285751	-0.471371	0.345050
C89	C	1.249217	-0.371463	0.372014
H90	H	1.360209	-0.471366	0.345052
H91	H	1.260898	-0.489439	0.277227
H92	H	1.260933	-0.521060	0.394600
H93	H	1.274029	-0.321774	0.322459
H94	H	1.274080	-0.353382	0.439847
H95	H	1.218019	-0.640580	0.640300
H96	H	1.653021	-1.204535	0.371975
C97	C	1.302234	-0.848634	1.184862
C98	C	1.242990	-0.781187	1.121772
H99	H	1.256624	-0.894214	1.222071
H100	H	1.342262	-0.808602	1.233244
H101	H	1.347982	-0.888841	1.142051
H102	H	1.197247	-0.740974	1.164584
H103	H	1.202944	-0.821224	1.073384
C104	C	1.853060	-0.171496	0.962979
C105	C	1.794048	-0.230487	0.891633
H106	H	1.898664	-0.125914	0.925766
H107	H	1.893234	-0.217263	1.005770
H108	H	1.807299	-0.131290	1.005778
H109	H	1.839809	-0.270699	0.848840
H110	H	1.753871	-0.184714	0.848825
C111	C	1.726106	-0.298419	0.739876
C112	C	1.652915	-0.371557	0.776420
H113	H	1.726088	-0.298444	0.665418
H114	H	1.793890	-0.316596	0.764706
H115	H	1.707966	-0.230612	0.764710
H116	H	1.671059	-0.439366	0.751592
H117	H	1.585116	-0.353386	0.751580
H118	H	0.919458	-0.762651	0.762022
H119	H	1.384122	-1.204569	0.640506
C120	C	1.779923	-1.228515	0.245196
C121	C	1.794066	-1.120621	0.231010
H122	H	1.825549	-1.265735	0.199629
H123	H	1.709351	-1.246548	0.229779
H124	H	1.795295	-1.246436	0.315798
H125	H	1.778686	-1.102699	0.160408
H126	H	1.864654	-1.102581	0.246418
H127	H	1.262084	-0.762110	0.907086
H128	H	0.819823	-0.371492	0.372074
C129	C	0.752075	-0.713863	0.713385
C130	C	0.788624	-0.640604	0.640347
H131	H	0.677617	-0.713873	0.713386
H132	H	0.776928	-0.695772	0.781203
H133	H	0.776882	-0.781633	0.695087
H134	H	0.763824	-0.572833	0.658650
H135	H	0.763761	-0.658690	0.572515
C136	C	1.853006	-0.961593	0.172072
C137	C	1.793961	-0.890283	0.230988
H138	H	1.898606	-0.924352	0.126514
H139	H	1.807275	-1.004450	0.131853
H140	H	1.893196	-1.004327	0.217895
H141	H	1.753765	-0.847553	0.185165
H142	H	1.839698	-0.847407	0.271210
C143	C	1.725954	-0.738563	0.298779
C144	C	1.652776	-0.775140	0.371891
H145	H	1.725915	-0.664105	0.298770
H146	H	1.707826	-0.763447	0.230982
H147	H	1.793754	-0.763320	0.317016
H148	H	1.584974	-0.750390	0.353649
H149	H	1.670898	-0.750246	0.439703
C150	C	1.265477	-0.916779	0.885451
C151	C	1.242829	-0.890356	0.781381
H152	H	1.219837	-0.879555	0.931001
H153	H	1.336043	-0.898724	0.900867
H154	H	1.255891	-0.989978	0.895066
H155	H	1.252422	-0.817157	0.771763
H156	H	1.172246	-0.908404	0.765959
H157	H	0.919316	-0.249426	0.250377
H158	H	1.383898	-0.806441	0.640424
H159	H	1.774932	-0.249550	1.106321
H160	H	1.652995	-0.371393	1.205815
H161	H	1.384115	-0.640119	1.205721
