data_functionalizedCrystal
_audit_creation_method	'MofGen! by Chris Wilmer'
_symmetry_space_group_name_H-M	'P1'
_symmetry_Int_Tables_number	1
_symmetry_cell_setting	triclinic
loop_
_symmetry_equiv_pos_as_xyz
  x,y,z
_cell_length_a	6.817900
_cell_length_b	12.908942
_cell_length_c	14.125465
_cell_angle_alpha	96.061960
_cell_angle_beta	100.398878
_cell_angle_gamma	100.860556
loop_
_atom_site_label
_atom_site_type_symbol
_atom_site_fract_x
_atom_site_fract_y
_atom_site_fract_z
V1	V	-3.977989	-0.144948	-0.299444
O2	O	-3.980234	0.007897	-0.294295
O3	O	-3.916565	-0.288305	-0.296867
O4	O	-3.914374	-0.142310	-0.430284
O5	O	-3.982440	-0.139108	-0.159954
V6	V	-4.465277	-0.126715	-0.282825
O7	O	-4.230991	-0.184946	-0.335901
O8	O	-4.662473	-0.086717	-0.246368
O9	O	-4.303495	0.016642	-0.285402
O10	O	-4.580429	-0.279560	-0.287974
O11	O	-4.578223	-0.132555	-0.422315
O12	O	-4.305685	-0.129353	-0.151985
C13	C	-3.758889	-0.323265	-0.292006
C14	C	-3.789853	-0.440458	-0.290771
C15	C	-4.210188	-0.671389	-0.298031
C16	C	-4.239290	-0.781502	-0.296871
C17	C	-3.877165	-0.770801	-0.287296
C18	C	-3.848062	-0.660688	-0.288457
C19	C	-4.014581	-0.610985	-0.293823
C20	C	-3.985474	-0.500869	-0.294977
C21	C	-3.623353	-0.490171	-0.285409
C22	C	-3.652456	-0.600284	-0.284248
C23	C	-3.756094	-0.137033	-0.462192
C24	C	-3.785279	-0.135824	-0.569151
C25	C	-3.838773	-0.133607	-0.764982
C26	C	-4.023862	-0.138054	-0.817287
C27	C	-4.053629	-0.136820	-0.926254
C28	C	-3.808999	-0.134841	-0.656005
C29	C	-4.124512	0.051596	-0.290260
C30	C	-4.072786	0.168788	-0.291502
C31	C	-4.127308	-0.134634	-0.120072
C32	C	-4.077362	-0.135837	-0.013112
H33	H	-3.741605	-0.811290	-0.282936
C34	C	-3.631941	-0.035262	-0.859885
C35	C	-3.655052	-0.127229	-0.815006
H36	H	-3.518533	-0.031333	-0.890781
H37	H	-3.609606	0.025804	-0.812310
H38	H	-3.752003	-0.037898	-0.907014
H39	H	-3.534994	-0.124590	-0.767872
H40	H	-3.677373	-0.188311	-0.862586
H41	H	-4.159969	-0.142797	-0.780231
C42	C	-4.135992	-0.369304	-0.218793
C43	C	-4.168503	-0.446231	-0.300875
H44	H	-4.248999	-0.335581	-0.222436
H45	H	-4.015348	-0.317574	-0.216459
H46	H	-4.121616	-0.402592	-0.161818
H47	H	-4.182865	-0.412941	-0.357849
H48	H	-4.289182	-0.497969	-0.303218
C49	C	-4.530045	-0.810573	-0.221626
C50	C	-4.454304	-0.847897	-0.301488
H51	H	-4.662786	-0.851568	-0.224476
H52	H	-4.536538	-0.737890	-0.223094
H53	H	-4.442190	-0.816967	-0.163145
H54	H	-4.542152	-0.841496	-0.359970
H55	H	-4.447824	-0.920598	-0.300029
H56	H	-4.345770	-0.630918	-0.302386
H57	H	-3.516889	-0.640768	-0.279883
H58	H	-3.464072	-0.440978	-0.281981
