data_functionalizedCrystal
_audit_creation_method	'MofGen! by Chris Wilmer'
_symmetry_space_group_name_H-M	'P1'
_symmetry_Int_Tables_number	1
_symmetry_cell_setting	triclinic
loop_
_symmetry_equiv_pos_as_xyz
  x,y,z
_cell_length_a	23.532356
_cell_length_b	15.944551
_cell_length_c	15.021413
_cell_angle_alpha	89.997174
_cell_angle_beta	89.987851
_cell_angle_gamma	96.836752
loop_
_atom_site_label
_atom_site_type_symbol
_atom_site_fract_x
_atom_site_fract_y
_atom_site_fract_z
O1	O	-0.073444	1.113890	-0.073923
O2	O	-0.082500	0.869262	-0.073943
O3	O	0.004933	0.998975	-0.073945
O4	O	-0.160877	0.984177	-0.073921
O5	O	0.004921	0.998954	0.074119
O6	O	-0.082512	0.869241	0.074121
O7	O	-0.073456	1.113869	0.074141
Zn8	Zn	-0.077986	0.991552	0.097640
Zn9	Zn	-0.077970	0.991579	-0.097441
O10	O	-0.160890	0.984156	0.074143
C11	C	-0.082130	0.837961	0.000086
C12	C	-0.081003	0.744724	0.000078
C13	C	-0.024114	0.530362	0.000087
C14	C	-0.050525	0.469123	-0.072913
C15	C	-0.078964	0.574016	0.000088
C16	C	-0.050550	0.469125	0.073067
C17	C	-0.076990	0.409121	0.000102
C18	C	-0.105390	0.514005	-0.072972
C19	C	-0.105408	0.514013	0.073073
C20	C	-0.131859	0.452790	0.000056
C21	C	-0.080099	0.669009	0.000079
C22	C	-0.075859	0.314129	0.000104
C23	C	-0.182101	0.984536	0.000114
C24	C	-0.245324	0.985649	0.000124
C25	C	-0.637358	0.992647	-0.080628
C26	C	-0.696762	0.993705	-0.080633
O27	O	-0.727477	0.994291	-0.149273
N28	N	-0.726479	0.994219	0.000076
C29	C	-0.696789	0.993683	0.080795
O30	O	-0.727521	0.994217	0.149444
C31	C	-0.637386	0.992631	0.080798
C32	C	-0.607673	0.992109	0.000084
C33	C	-0.607645	0.992126	-0.161336
C34	C	-0.548245	0.991067	-0.161332
C35	C	-0.518560	0.990528	-0.080619
C36	C	-0.548273	0.991049	0.000089
C37	C	-0.607697	0.992101	0.161516
C38	C	-0.548290	0.991049	0.161512
C39	C	-0.518576	0.990527	0.080798
C40	C	-0.459188	0.989451	0.080806
N41	N	-0.429471	0.988938	0.000096
C42	C	-0.459157	0.989476	-0.080616
C43	C	-0.821539	0.995893	0.080782
C44	C	-0.880942	0.996939	0.080780
C45	C	-0.880910	0.996964	-0.080648
C46	C	-0.821507	0.995912	-0.080645
C47	C	-0.791822	0.995380	0.000073
C48	C	-0.334414	0.987250	-0.080600
C49	C	-0.275010	0.986187	-0.080588
C50	C	-0.275046	0.986167	0.080839
C51	C	-0.334446	0.987226	0.080828
C52	C	-0.364128	0.987770	0.000101
O53	O	-0.428435	0.988869	0.149411
O54	O	-0.428417	0.988953	-0.149253
C55	C	0.026145	0.998595	0.000082
C56	C	0.089368	0.997482	0.000067
C57	C	-0.073826	1.145170	0.000110
C58	C	-0.074953	1.238407	0.000113
N59	N	-0.077997	0.991540	0.230777
N60	N	-0.077955	0.991598	-0.230579
C61	C	-0.118407	0.931551	0.470461
C62	C	-0.129464	1.007355	0.529804
C63	C	-0.077983	0.991561	0.412384
C64	C	-0.066939	0.915777	0.529783
C65	C	-0.077971	0.991575	0.587808
C66	C	-0.089065	1.067403	0.470421
C67	C	-0.026518	0.975776	0.470394
C68	C	-0.037553	1.051635	0.529710
C69	C	-0.077992	0.991552	0.311327
C70	C	-0.077962	0.991593	0.688863
H71	H	-0.250820	0.985759	-0.146319
H72	H	-0.358643	0.987618	0.146552
N73	N	-0.516273	0.990481	0.248576
H74	H	-0.531236	0.938587	0.283863
H75	H	-0.474140	0.989766	0.236263
H76	H	-0.905131	0.997348	0.146505
N77	N	0.036189	0.575018	-0.000019
H78	H	0.042474	0.611156	0.055135
H79	H	0.064272	0.531804	-0.000664
H80	H	-0.027346	0.449232	0.134780
N81	N	-0.192215	0.408333	0.000008
H82	H	-0.191127	0.345202	0.000532
H83	H	-0.213074	0.425443	0.054618
H84	H	0.016985	0.962388	0.444278
H85	H	-0.027321	0.449223	-0.134636
N86	N	-0.054562	0.830883	0.564322
H87	H	-0.054279	0.831684	0.631553
H88	H	-0.085136	0.785639	0.542709
N89	N	-0.516215	0.990587	-0.248407
H90	H	-0.531160	0.938726	-0.283744
H91	H	-0.521974	1.042914	-0.283547
H92	H	-0.172981	1.020719	0.555899
H93	H	-0.003360	1.102445	0.555562
H94	H	-0.797374	0.995453	0.146516
N95	N	-0.136082	0.540211	-0.154823
H96	H	-0.176657	0.511240	-0.155072
H97	H	-0.136594	0.603457	-0.154293
H98	H	-0.358574	0.987694	-0.146336
H99	H	-0.128593	0.533934	0.134799
H100	H	-0.797318	0.995485	-0.146370
N101	N	-0.639657	0.992710	-0.248398
H102	H	-0.611811	0.992221	-0.299517
H103	H	-0.668918	0.941067	-0.251923
N104	N	-0.912935	0.997534	-0.167706
H105	H	-0.955074	0.998279	-0.155454
H106	H	-0.897932	1.049430	-0.202956
N107	N	-0.101497	1.152326	0.436037
H108	H	-0.101442	1.151789	0.368802
H109	H	-0.140226	1.164345	0.458237
N110	N	-0.639735	0.992670	0.248573
H111	H	-0.611906	0.992176	0.299696
H112	H	-0.659759	1.045189	0.252088
H113	H	-0.250866	0.985726	0.146553
N114	N	-0.163720	0.864388	0.436003
H115	H	-0.202577	0.876431	0.457619
H116	H	-0.163115	0.864524	0.368775
