data_functionalizedCrystal
_audit_creation_method	'MofGen! by Chris Wilmer'
_symmetry_space_group_name_H-M	'P1'
_symmetry_Int_Tables_number	1
_symmetry_cell_setting	triclinic
loop_
_symmetry_equiv_pos_as_xyz
  x,y,z
_cell_length_a	18.215407
_cell_length_b	18.101395
_cell_length_c	18.215399
_cell_angle_alpha	89.973573
_cell_angle_beta	89.980167
_cell_angle_gamma	90.031552
loop_
_atom_site_label
_atom_site_type_symbol
_atom_site_fract_x
_atom_site_fract_y
_atom_site_fract_z
Zn1	Zn	1.125040	-0.294828	-0.416124
Zn2	Zn	1.375040	-0.044828	-0.166124
Zn3	Zn	1.625040	0.205172	0.083876
Zn4	Zn	1.875040	0.455172	0.333876
Zn5	Zn	1.124935	-0.418675	-0.293061
Zn6	Zn	1.374935	-0.168675	-0.043061
Zn7	Zn	1.624935	0.081325	0.206939
Zn8	Zn	1.874935	0.331325	0.456939
Zn9	Zn	1.001973	-0.294853	-0.293071
Zn10	Zn	1.251973	-0.044853	-0.043071
Zn11	Zn	1.501973	0.205147	0.206929
Zn12	Zn	1.751973	0.455147	0.456929
Zn13	Zn	1.001925	-0.418634	-0.416086
Zn14	Zn	1.251925	-0.168634	-0.166086
Zn15	Zn	1.501925	0.081366	0.083914
Zn16	Zn	1.751925	0.331366	0.333914
O17	O	1.063468	-0.356747	-0.354585
O18	O	1.313468	-0.106747	-0.104585
O19	O	1.563468	0.143253	0.145415
O20	O	1.813468	0.393253	0.395415
O21	O	1.228010	-0.311264	-0.399811
O22	O	1.478010	-0.061264	-0.149811
O23	O	1.728010	0.188736	0.100189
O24	O	1.978010	0.438736	0.350189
O25	O	1.108600	-0.402277	-0.190078
O26	O	1.358600	-0.152277	0.059922
O27	O	1.608600	0.097723	0.309922
O28	O	1.858600	0.347723	0.559922
O29	O	1.018362	-0.191216	-0.309415
O30	O	1.268362	0.058784	-0.059415
O31	O	1.518362	0.308784	0.190585
O32	O	1.768362	0.558784	0.440585
O33	O	1.227933	-0.402253	-0.309397
O34	O	1.477933	-0.152253	-0.059397
O35	O	1.727933	0.097747	0.190603
O36	O	1.977933	0.347747	0.440603
O37	O	1.108779	-0.191199	-0.399821
O38	O	1.358779	0.058801	-0.149821
O39	O	1.608779	0.308801	0.100179
O40	O	1.858779	0.558801	0.350179
O41	O	1.018260	-0.311305	-0.190085
O42	O	1.268260	-0.061305	0.059915
O43	O	1.518260	0.188695	0.309915
O44	O	1.768260	0.438695	0.559915
O45	O	0.898982	-0.311265	-0.309378
O46	O	1.148982	-0.061265	-0.059378
O47	O	1.398982	0.188735	0.190622
O48	O	1.648982	0.438735	0.440622
O49	O	1.018281	-0.402183	-0.519075
O50	O	1.268281	-0.152183	-0.269075
O51	O	1.518281	0.097817	-0.019075
O52	O	1.768281	0.347817	0.230925
O53	O	0.898947	-0.402207	-0.399756
O54	O	1.148947	-0.152207	-0.149756
O55	O	1.398947	0.097793	0.100244
O56	O	1.648947	0.347793	0.350244
O57	O	1.108733	-0.311224	-0.519103
O58	O	1.358733	-0.061224	-0.269103
O59	O	1.608733	0.188776	-0.019103
O60	O	1.858733	0.438776	0.230897
O61	O	1.108554	-0.522302	-0.309360
O62	O	1.358554	-0.272302	-0.059360
O63	O	1.608554	-0.022302	0.190640
O64	O	1.858554	0.227698	0.440640
O65	O	1.018179	-0.522272	-0.399746
O66	O	1.268179	-0.272272	-0.149746
O67	O	1.518179	-0.022272	0.100254
O68	O	1.768179	0.227728	0.350254
C69	C	0.872262	-0.356735	-0.354564
C70	C	1.122262	-0.106735	-0.104564
C71	C	1.372262	0.143265	0.145436
C72	C	1.622262	0.393265	0.395436
C73	C	0.790463	-0.356747	-0.354572
C74	C	1.040463	-0.106747	-0.104572
C75	C	1.290463	0.143253	0.145428
C76	C	1.540463	0.393253	0.395428
C77	C	0.602270	-0.404175	-0.401573
C78	C	0.852270	-0.154175	-0.151573
C79	C	1.102270	0.095825	0.098427
C80	C	1.352270	0.345825	0.348427
C81	C	0.525412	-0.404177	-0.401583
C82	C	0.775412	-0.154177	-0.151583
C83	C	1.025412	0.095823	0.098417
C84	C	1.275412	0.345823	0.348417
C85	C	0.525418	-0.309333	-0.307613
C86	C	0.775418	-0.059333	-0.057613
C87	C	1.025418	0.190667	0.192387
C88	C	1.275418	0.440667	0.442387
C89	C	0.602276	-0.309328	-0.307608
C90	C	0.852276	-0.059328	-0.057608
C91	C	1.102276	0.190672	0.192392
C92	C	1.352276	0.440672	0.442392
C93	C	0.640700	-0.356753	-0.354587
C94	C	0.890700	-0.106753	-0.104587
C95	C	1.140700	0.143247	0.145413
C96	C	1.390700	0.393247	0.395413
C97	C	0.486984	-0.356761	-0.354601
C98	C	0.736984	-0.106761	-0.104601
C99	C	0.986984	0.143239	0.145399
C100	C	1.236984	0.393239	0.395399
C101	C	0.403650	-0.356763	-0.354611
C102	C	0.653650	-0.106763	-0.104611
C103	C	0.903650	0.143237	0.145389
C104	C	1.153650	0.393237	0.395389
C105	C	0.724039	-0.356750	-0.354579
C106	C	0.974039	-0.106750	-0.104579
C107	C	1.224039	0.143250	0.145421
C108	C	1.474039	0.393250	0.395421
C109	C	1.063370	-0.549158	-0.354564
C110	C	1.313370	-0.299158	-0.104564
C111	C	1.563370	-0.049158	0.145436
C112	C	1.813370	0.200842	0.395436
C113	C	1.063395	-0.631472	-0.354579
C114	C	1.313395	-0.381472	-0.104579
C115	C	1.563395	-0.131472	0.145421
C116	C	1.813395	0.118528	0.395421
C117	C	1.063557	-0.930563	-0.354619
C118	C	1.313557	-0.680563	-0.104619
C119	C	1.563557	-0.430563	0.145381
C120	C	1.813557	-0.180563	0.395381
C121	C	1.006827	-0.899249	-0.411628
C122	C	1.256827	-0.649249	-0.161628
C123	C	1.506827	-0.399249	0.088372
C124	C	1.756827	-0.149249	0.338372
C125	C	1.006557	-0.813632	-0.411450
C126	C	1.256557	-0.563632	-0.161450
C127	C	1.506557	-0.313632	0.088550
C128	C	1.756557	-0.063632	0.338550
C129	C	1.063476	-0.782180	-0.354600
C130	C	1.313476	-0.532180	-0.104600
C131	C	1.563476	-0.282180	0.145400
C132	C	1.813476	-0.032180	0.395400
C133	C	1.042479	-0.813331	-0.277038
C134	C	1.292479	-0.563331	-0.027038
C135	C	1.542479	-0.313331	0.222962
C136	C	1.792479	-0.063331	0.472962
C137	C	1.042113	-0.898976	-0.277380
C138	C	1.292113	-0.648976	-0.027380
C139	C	1.542113	-0.398976	0.222620
C140	C	1.792113	-0.148976	0.472620
C141	C	1.141408	-0.898906	-0.374487
C142	C	1.391408	-0.648906	-0.124487
C143	C	1.641408	-0.398906	0.125513
C144	C	1.891408	-0.148906	0.375513
C145	C	1.140950	-0.813255	-0.376188
C146	C	1.390950	-0.563255	-0.126188
C147	C	1.640950	-0.313255	0.123812
C148	C	1.890950	-0.063255	0.373812
C149	C	1.063432	-0.698321	-0.354584
C150	C	1.313432	-0.448321	-0.104584
C151	C	1.563432	-0.198321	0.145416
C152	C	1.813432	0.051679	0.395416
C153	C	1.063599	-1.014422	-0.354629
C154	C	1.313599	-0.764422	-0.104629
C155	C	1.563599	-0.514422	0.145371
C156	C	1.813599	-0.264422	0.395371
C157	C	1.255421	-0.356761	-0.354607
C158	C	1.505421	-0.106761	-0.104607
C159	C	1.755421	0.143239	0.145393
C160	C	2.005421	0.393239	0.395393
C161	C	1.337220	-0.356766	-0.354616
C162	C	1.587220	-0.106766	-0.104616
C163	C	1.837220	0.143234	0.145384
C164	C	2.087220	0.393234	0.395384
C165	C	1.063513	-0.356696	-0.546538
C166	C	1.313513	-0.106696	-0.296538
C167	C	1.563513	0.143304	-0.046538
C168	C	1.813513	0.393304	0.203462
C169	C	1.063532	-0.356675	-0.628337
C170	C	1.313532	-0.106675	-0.378337
C171	C	1.563532	0.143325	-0.128337
C172	C	1.813532	0.393325	0.121663
C173	C	1.063587	-0.163585	-0.354623
C174	C	1.313587	0.086415	-0.104623
C175	C	1.563587	0.336415	0.145377
C176	C	1.813587	0.586415	0.395377
C177	C	1.063638	-0.081271	-0.354639
C178	C	1.313638	0.168729	-0.104639
C179	C	1.563638	0.418729	0.145361
C180	C	1.813638	0.668729	0.395361
C181	C	1.110648	-0.309268	-0.816547
C182	C	1.360648	-0.059268	-0.566547
C183	C	1.610648	0.190732	-0.316547
C184	C	1.860648	0.440732	-0.066547
C185	C	1.110656	-0.309246	-0.893406
C186	C	1.360656	-0.059246	-0.643406
C187	C	1.610656	0.190754	-0.393406
C188	C	1.860656	0.440754	-0.143406
C189	C	1.016469	-0.403967	-0.893365
C190	C	1.266469	-0.153967	-0.643365
C191	C	1.516469	0.096033	-0.393365
C192	C	1.766469	0.346033	-0.143365
C193	C	1.016457	-0.403984	-0.816508
C194	C	1.266457	-0.153984	-0.566508
C195	C	1.516457	0.096016	-0.316508
C196	C	1.766457	0.346016	-0.066508
C197	C	1.063551	-0.356636	-0.778101
C198	C	1.313551	-0.106636	-0.528101
C199	C	1.563551	0.143364	-0.278101
C200	C	1.813551	0.393364	-0.028101
C201	C	1.063571	-0.356597	-0.931817
C202	C	1.313571	-0.106597	-0.681817
C203	C	1.563571	0.143403	-0.431817
C204	C	1.813571	0.393403	-0.181817
C205	C	1.063580	-0.356574	-1.015151
C206	C	1.313580	-0.106574	-0.765151
C207	C	1.563580	0.143426	-0.515151
C208	C	1.813580	0.393426	-0.265151
C209	C	1.063541	-0.356657	-0.694762
C210	C	1.313541	-0.106657	-0.444762
C211	C	1.563541	0.143343	-0.194762
C212	C	1.813541	0.393343	0.055238
C213	C	1.063466	-0.356745	-0.163379
C214	C	1.313466	-0.106745	0.086621
C215	C	1.563466	0.143255	0.336621
C216	C	1.813466	0.393255	0.586621
C217	C	1.063590	-0.356558	-0.081580
C218	C	1.313590	-0.106558	0.168420
C219	C	1.563590	0.143442	0.418420
C220	C	1.813590	0.393442	0.668420
H221	H	0.494124	-0.270723	-0.269363
H222	H	0.744124	-0.020723	-0.019363
H223	H	0.994124	0.229277	0.230637
H224	H	1.244124	0.479277	0.480637
C225	C	0.644554	-0.257161	-0.255923
C226	C	0.894554	-0.007161	-0.005923
C227	C	1.144554	0.242839	0.244077
C228	C	1.394554	0.492839	0.494077
H229	H	0.695830	-0.263945	-0.262656
H230	H	0.945830	-0.013945	-0.012656
H231	H	1.195830	0.236055	0.237344
H232	H	1.445830	0.486055	0.487344
H233	H	0.631937	-0.267934	-0.206458
H234	H	0.881937	-0.017934	0.043542
H235	H	1.131937	0.232066	0.293542
H236	H	1.381937	0.482066	0.543542
H237	H	0.631986	-0.207415	-0.266786
H238	H	0.881986	0.042585	-0.016786
H239	H	1.131986	0.292585	0.233214
H240	H	1.381986	0.542585	0.483214
C241	C	0.928606	-0.786033	-0.393670
C242	C	1.178606	-0.536033	-0.143670
C243	C	1.428606	-0.286033	0.106330
C244	C	1.678606	-0.036033	0.356330
H245	H	0.928173	-0.733551	-0.393507
H246	H	1.178173	-0.483551	-0.143507
H247	H	1.428173	-0.233551	0.106493
H248	H	1.678173	0.016449	0.356493
H249	H	0.914212	-0.803826	-0.346752
H250	H	1.164212	-0.553826	-0.096752
H251	H	1.414212	-0.303826	0.153248
H252	H	1.664212	-0.053826	0.403248
H253	H	0.895340	-0.803686	-0.429793
H254	H	1.145340	-0.553686	-0.179793
H255	H	1.395340	-0.303686	0.070207
H256	H	1.645340	-0.053686	0.320207
H257	H	1.019695	-0.792568	-0.468960
H258	H	1.269695	-0.542568	-0.218960
H259	H	1.519695	-0.292568	0.031040
H260	H	1.769695	-0.042568	0.281040
C261	C	1.162438	-0.257178	-0.774301
C262	C	1.412438	-0.007178	-0.524301
C263	C	1.662438	0.242822	-0.274301
C264	C	1.912438	0.492822	-0.024301
H265	H	1.190483	-0.228959	-0.808209
H266	H	1.440483	0.021041	-0.558209
H267	H	1.690483	0.271041	-0.308209
H268	H	1.940483	0.521041	-0.058209
H269	H	1.194486	-0.285508	-0.744316
H270	H	1.444486	-0.035508	-0.494316
H271	H	1.694486	0.214492	-0.244316
H272	H	1.944486	0.464492	0.005684
H273	H	1.134292	-0.224915	-0.744325
H274	H	1.384292	0.025085	-0.494325
H275	H	1.634292	0.275085	-0.244325
H276	H	1.884292	0.525085	0.005675
C277	C	0.483139	-0.456341	-0.453265
C278	C	0.733139	-0.206341	-0.203265
C279	C	0.983139	0.043659	0.046735
C280	C	1.233139	0.293659	0.296735
H281	H	0.431862	-0.449548	-0.446547
H282	H	0.681862	-0.199548	-0.196547
H283	H	0.931862	0.050452	0.053453
H284	H	1.181862	0.300452	0.303453
H285	H	0.495705	-0.506085	-0.442409
H286	H	0.745705	-0.256085	-0.192409
H287	H	0.995705	-0.006085	0.057591
H288	H	1.245705	0.243915	0.307591
H289	H	0.495763	-0.445559	-0.502731
H290	H	0.745763	-0.195559	-0.252731
H291	H	0.995763	0.054441	-0.002731
H292	H	1.245763	0.304441	0.247269
H293	H	0.978100	-0.442556	-0.785204
H294	H	1.228100	-0.192556	-0.535204
H295	H	1.478100	0.057444	-0.285204
H296	H	1.728100	0.307444	-0.035204
H297	H	0.985204	-0.919019	-0.260549
H298	H	1.235204	-0.669019	-0.010549
H299	H	1.485204	-0.419019	0.239451
H300	H	1.735204	-0.169019	0.489451
H301	H	0.633553	-0.442789	-0.439829
H302	H	0.883553	-0.192789	-0.189829
H303	H	1.133553	0.057211	0.060171
H304	H	1.383553	0.307211	0.310171
C305	C	1.024326	-0.927099	-0.489556
C306	C	1.274326	-0.677099	-0.239556
C307	C	1.524326	-0.427099	0.010444
C308	C	1.774326	-0.177099	0.260444
H309	H	1.066390	-0.958066	-0.488027
H310	H	1.316390	-0.708066	-0.238027
H311	H	1.566390	-0.458066	0.011973
H312	H	1.816390	-0.208066	0.261973
H313	H	1.033695	-0.886147	-0.520821
H314	H	1.283695	-0.636147	-0.270821
H315	H	1.533695	-0.386147	-0.020821
H316	H	1.783695	-0.136147	0.229179
H317	H	0.983668	-0.954309	-0.507889
H318	H	1.233668	-0.704309	-0.257889
H319	H	1.483668	-0.454309	-0.007889
H320	H	1.733668	-0.204309	0.242111
C321	C	0.929344	-0.928401	-0.394072
C322	C	1.179344	-0.678401	-0.144072
C323	C	1.429344	-0.428401	0.105928
C324	C	1.679344	-0.178401	0.355928
H325	H	0.931416	-0.959570	-0.352149
H326	H	1.181416	-0.709570	-0.102149
H327	H	1.431416	-0.459570	0.147851
H328	H	1.681416	-0.209570	0.397851
H329	H	0.911263	-0.955646	-0.434799
H330	H	1.161263	-0.705646	-0.184799
H331	H	1.411263	-0.455646	0.065201
H332	H	1.661263	-0.205646	0.315201
H333	H	0.897552	-0.887966	-0.384421
H334	H	1.147552	-0.637966	-0.134421
H335	H	1.397552	-0.387966	0.115579
H336	H	1.647552	-0.137966	0.365579
H337	H	0.978129	-0.442518	-0.924646
H338	H	1.228129	-0.192518	-0.674646
H339	H	1.478129	0.057482	-0.424646
H340	H	1.728129	0.307482	-0.174646
C341	C	1.201075	-0.784333	-0.324187
C342	C	1.451075	-0.534333	-0.074187
C343	C	1.701075	-0.284333	0.175813
C344	C	1.951075	-0.034333	0.425813
H345	H	1.247256	-0.803982	-0.338522
H346	H	1.497256	-0.553982	-0.088522
H347	H	1.747256	-0.303982	0.161478
H348	H	1.997256	-0.053982	0.411478
H349	H	1.190322	-0.799237	-0.275342
H350	H	1.440322	-0.549237	-0.025342
H351	H	1.690322	-0.299237	0.224658
H352	H	1.940322	-0.049237	0.474658
H353	H	1.202746	-0.731933	-0.326625
H354	H	1.452746	-0.481933	-0.076625
H355	H	1.702746	-0.231933	0.173375
H356	H	1.952746	0.018067	0.423375
H357	H	1.149006	-0.270673	-0.924705
H358	H	1.399006	-0.020673	-0.674705
H359	H	1.649006	0.229327	-0.424705
H360	H	1.899006	0.479327	-0.174705
H361	H	0.986172	-0.791946	-0.259906
H362	H	1.236172	-0.541946	-0.009906
H363	H	1.486172	-0.291946	0.240094
H364	H	1.736172	-0.041946	0.490094
C365	C	1.095495	-0.926966	-0.218033
C366	C	1.345495	-0.676966	0.031967
C367	C	1.595495	-0.426966	0.281967
C368	C	1.845495	-0.176966	0.531967
H369	H	1.117304	-0.885992	-0.193818
H370	H	1.367304	-0.635992	0.056182
H371	H	1.617304	-0.385992	0.306182
H372	H	1.867304	-0.135992	0.556182
H373	H	1.132712	-0.956078	-0.240312
H374	H	1.382712	-0.706078	0.009688
H375	H	1.632712	-0.456078	0.259688
H376	H	1.882712	-0.206078	0.509688
H377	H	1.069389	-0.956086	-0.183341
H378	H	1.319389	-0.706086	0.066659
H379	H	1.569389	-0.456086	0.316659
H380	H	1.819389	-0.206086	0.566659
C381	C	1.096532	-0.785812	-0.218085
C382	C	1.346532	-0.535812	0.031915
C383	C	1.596532	-0.285812	0.281915
C384	C	1.846532	-0.035812	0.531915
H385	H	1.082822	-0.805303	-0.171624
H386	H	1.332822	-0.555303	0.078376
H387	H	1.582822	-0.305303	0.328376
H388	H	1.832822	-0.055303	0.578376
H389	H	1.095370	-0.733380	-0.216255
H390	H	1.345370	-0.483380	0.033745
H391	H	1.595370	-0.233380	0.283745
H392	H	1.845370	0.016620	0.533745
H393	H	1.144753	-0.801788	-0.230002
H394	H	1.394753	-0.551788	0.019998
H395	H	1.644753	-0.301788	0.269998
H396	H	1.894753	-0.051788	0.519998
C397	C	1.167274	-0.928009	-0.449589
C398	C	1.417274	-0.678009	-0.199589
C399	C	1.667274	-0.428009	0.050411
C400	C	1.917274	-0.178009	0.300411
H401	H	1.214351	-0.908245	-0.460532
H402	H	1.464351	-0.658245	-0.210532
H403	H	1.714351	-0.408245	0.039468
H404	H	1.964351	-0.158245	0.289468
H405	H	1.133387	-0.913347	-0.486441
H406	H	1.383387	-0.663347	-0.236441
H407	H	1.633387	-0.413347	0.013559
H408	H	1.883387	-0.163347	0.263559
H409	H	1.170048	-0.980395	-0.448123
H410	H	1.420048	-0.730395	-0.198123
H411	H	1.670048	-0.480395	0.051877
H412	H	1.920048	-0.230395	0.301877
C413	C	1.162346	-0.785758	-0.453301
C414	C	1.412346	-0.535758	-0.203301
C415	C	1.662346	-0.285758	0.046699
C416	C	1.912346	-0.035758	0.296699
H417	H	1.209258	-0.804749	-0.466050
H418	H	1.459258	-0.554749	-0.216050
H419	H	1.709258	-0.304749	0.033950
H420	H	1.959258	-0.054749	0.283950
H421	H	1.163973	-0.733304	-0.453475
H422	H	1.413973	-0.483304	-0.203475
H423	H	1.663973	-0.233304	0.046525
H424	H	1.913973	0.016696	0.296525
H425	H	1.127006	-0.802272	-0.487956
H426	H	1.377006	-0.552272	-0.237956
H427	H	1.627006	-0.302272	0.012044
H428	H	1.877006	-0.052272	0.262044
C429	C	1.198490	-0.926186	-0.318347
C430	C	1.448490	-0.676186	-0.068347
C431	C	1.698490	-0.426186	0.181653
C432	C	1.948490	-0.176186	0.431653
H433	H	1.175035	-0.956729	-0.282975
H434	H	1.425035	-0.706729	-0.032975
H435	H	1.675035	-0.456729	0.217025
H436	H	1.925035	-0.206729	0.467025
H437	H	1.220183	-0.884954	-0.294476
H438	H	1.470183	-0.634954	-0.044476
H439	H	1.720183	-0.384954	0.205524
H440	H	1.970183	-0.134954	0.455524
H441	H	1.235456	-0.953701	-0.342941
H442	H	1.485456	-0.703701	-0.092941
H443	H	1.735456	-0.453701	0.157059
H444	H	1.985456	-0.203701	0.407059
