data_functionalizedCrystal
_audit_creation_method	'MofGen! by Chris Wilmer'
_symmetry_space_group_name_H-M	'P1'
_symmetry_Int_Tables_number	1
_symmetry_cell_setting	triclinic
loop_
_symmetry_equiv_pos_as_xyz
  x,y,z
_cell_length_a	15.944551
_cell_length_b	15.944551
_cell_length_c	14.421503
_cell_angle_alpha	89.996660
_cell_angle_beta	89.996859
_cell_angle_gamma	96.501262
loop_
_atom_site_label
_atom_site_type_symbol
_atom_site_fract_x
_atom_site_fract_y
_atom_site_fract_z
O1	O	1.114529	-0.108320	-0.077017
O2	O	0.869980	-0.121677	-0.077040
O3	O	0.998933	0.007276	-0.077020
O4	O	0.985576	-0.237273	-0.077038
O5	O	0.998911	0.007257	0.077204
O6	O	0.869958	-0.121696	0.077183
O7	O	1.114508	-0.108340	0.077206
Cu8	Cu	0.992231	-0.115020	0.091277
Cu9	Cu	0.992256	-0.114997	-0.091110
O10	O	0.985555	-0.237293	0.077186
C11	C	0.838675	-0.121132	0.000069
C12	C	0.745429	-0.119470	0.000060
C13	C	0.530572	-0.035565	0.000084
C14	C	0.469563	-0.074518	-0.075959
C15	C	0.574703	-0.116462	0.000071
C16	C	0.469564	-0.074556	0.076093
C17	C	0.409790	-0.113551	0.000086
C18	C	0.514922	-0.155437	-0.076035
C19	C	0.514929	-0.155464	0.076086
C20	C	0.453937	-0.194476	0.000024
C21	C	0.669705	-0.118137	0.000062
C22	C	0.314789	-0.111883	0.000089
C23	C	0.998367	0.038561	0.000092
C24	C	0.996705	0.131807	0.000093
C25	C	1.145813	-0.108885	0.000096
C26	C	1.239059	-0.110547	0.000098
C27	C	0.986120	-0.268577	0.000072
C28	C	0.987782	-0.361823	0.000066
N29	N	0.992219	-0.115035	0.219558
C30	C	0.912801	0.346663	0.000072
C31	C	0.951753	0.407671	0.076117
C32	C	0.993698	0.302533	0.000085
C33	C	0.951793	0.407674	-0.075935
C34	C	0.990787	0.467445	0.000074
C35	C	1.032672	0.362312	0.076193
C36	C	1.032701	0.362308	-0.075927
C37	C	1.071711	0.423298	0.000136
C38	C	0.995372	0.207530	0.000092
C39	C	0.989119	0.562446	0.000073
N40	N	0.992275	-0.114975	-0.219392
C41	C	0.932581	-0.174636	0.469202
C42	C	1.008481	-0.190943	0.531011
C43	C	0.992240	-0.115015	0.408719
C44	C	0.916359	-0.098727	0.531005
C45	C	0.992253	-0.114997	0.591441
C46	C	1.068178	-0.131360	0.469167
C47	C	0.976007	-0.039111	0.469156
C48	C	1.051961	-0.055386	0.530936
C49	C	0.992231	-0.115027	0.303458
C50	C	0.992270	-0.114985	0.696700
H51	H	0.449469	-0.040333	0.140379
O52	O	0.832682	0.306959	0.000313
C53	C	0.790324	0.329947	0.080624
H54	H	0.838535	0.351931	0.136387
H55	H	0.747114	0.273159	0.107156
H56	H	0.751072	0.383339	0.063270
O57	O	1.112327	0.004687	0.563037
C58	C	1.192179	-0.012785	0.531337
H59	H	1.189780	-0.082789	0.514090
H60	H	1.241287	0.004126	0.587735
H61	H	1.210040	0.026178	0.466556
H62	H	0.917575	0.427758	-0.140230
O63	O	0.959438	0.037399	0.436752
C64	C	0.879339	0.054325	0.468223
H65	H	0.839473	-0.007599	0.485603
H66	H	0.846755	0.088641	0.411636
H67	H	0.887016	0.095620	0.532876
O68	O	1.151933	0.462745	0.000069
C69	C	1.194760	0.438574	-0.079403
H70	H	1.163233	0.375283	-0.105652
H71	H	1.263357	0.432521	-0.061049
H72	H	1.192322	0.488373	-0.135770
O73	O	0.839730	-0.082394	0.563296
C74	C	0.777025	-0.145431	0.531859
H75	H	0.800215	-0.176207	0.466777
H76	H	0.716987	-0.115807	0.515200
H77	H	0.763167	-0.195252	0.588179
H78	H	0.563905	0.031573	-0.000005
O79	O	1.024735	-0.267569	0.563388
C80	C	0.961697	-0.330259	0.531923
H81	H	0.902100	-0.300138	0.514578
H82	H	0.947071	-0.379692	0.588499
H83	H	0.984944	-0.361642	0.467249
H84	H	1.066850	0.342314	0.140554
H85	H	0.917527	0.427771	0.140401
H86	H	0.449461	-0.040294	-0.140243
O87	O	0.872558	-0.234875	0.436741
C88	C	0.910992	-0.292799	0.381650
H89	H	0.974035	-0.261450	0.354511
H90	H	0.868055	-0.313551	0.320700
H91	H	0.921966	-0.350232	0.425190
O92	O	1.073374	0.338317	-0.152713
C93	C	1.030526	0.361182	-0.232735
H94	H	0.962043	0.367945	-0.214523
H95	H	1.032586	0.310263	-0.287915
H96	H	1.062300	0.423825	-0.260476
O97	O	1.144691	-0.148067	0.436888
C98	C	1.134505	-0.222007	0.382515
H99	H	1.073518	-0.261996	0.403071
H100	H	1.190254	-0.259610	0.394388
H101	H	1.131509	-0.204206	0.306120
O102	O	0.538918	-0.196157	-0.152790
C103	C	0.627216	-0.197218	-0.151879
H104	H	0.657408	-0.143303	-0.106810
H105	H	0.652673	-0.189268	-0.225605
H106	H	0.642966	-0.259939	-0.122485
O107	O	0.414410	-0.274665	-0.000192
C108	C	0.437549	-0.316986	-0.080461
H109	H	0.459459	-0.268756	-0.136241
H110	H	0.380862	-0.360325	-0.107002
H111	H	0.491036	-0.356097	-0.063049
O112	O	0.538923	-0.196136	0.152871
C113	C	0.516060	-0.153286	0.232893
H114	H	0.509296	-0.084803	0.214680
H115	H	0.566982	-0.155344	0.288071
H116	H	0.453418	-0.185060	0.260637
