data_functionalizedCrystal
_audit_creation_method	'MofGen! by Chris Wilmer'
_symmetry_space_group_name_H-M	'P1'
_symmetry_Int_Tables_number	1
_symmetry_cell_setting	triclinic
loop_
_symmetry_equiv_pos_as_xyz
  x,y,z
_cell_length_a	6.817900
_cell_length_b	19.453114
_cell_length_c	14.125369
_cell_angle_alpha	96.282118
_cell_angle_beta	100.397648
_cell_angle_gamma	101.709288
loop_
_atom_site_label
_atom_site_type_symbol
_atom_site_fract_x
_atom_site_fract_y
_atom_site_fract_z
V1	V	-3.991096	-0.218721	-0.134114
O2	O	-3.995376	-0.214841	0.005414
O3	O	-3.927384	-0.216952	-0.264934
O4	O	-3.934200	-0.314237	-0.132503
O5	O	-3.988514	-0.116882	-0.127933
V6	V	-4.477809	-0.206573	-0.117371
O7	O	-4.245357	-0.245367	-0.170840
O8	O	-4.673745	-0.179927	-0.080645
O9	O	-4.318315	-0.208342	0.013449
O10	O	-4.590926	-0.210453	-0.256899
O11	O	-4.597788	-0.308412	-0.123552
O12	O	-4.311499	-0.111057	-0.118982
C13	C	-3.768935	-0.213431	-0.296811
C14	C	-3.798073	-0.212621	-0.403761
C15	C	-4.036758	-0.214132	-0.651908
C16	C	-3.851526	-0.211165	-0.599577
C17	C	-3.821785	-0.211975	-0.490615
C18	C	-4.066507	-0.213322	-0.760880
C19	C	-3.777628	-0.337527	-0.127881
C20	C	-3.812291	-0.415610	-0.127430
C21	C	-4.009793	-0.455858	-0.132047
C22	C	-4.042363	-0.529226	-0.131623
C23	C	-3.877426	-0.562345	-0.126601
C24	C	-3.679895	-0.522087	-0.121978
C25	C	-3.647328	-0.448720	-0.122392
N26	N	-3.811736	-0.681029	-0.177410
N27	N	-3.842687	-0.750725	-0.177018
C28	C	-3.975539	-0.783396	-0.125351
N29	N	-4.076305	-0.743739	-0.074102
N30	N	-4.045359	-0.674037	-0.074497
C31	C	-3.912720	-0.641899	-0.126151
C32	C	-4.208369	-0.903197	-0.129507
C33	C	-4.240930	-0.976565	-0.129077
C34	C	-3.878460	-0.969427	-0.119442
C35	C	-3.845901	-0.896059	-0.119862
C36	C	-4.010865	-0.862949	-0.124900
C37	C	-4.140105	-0.211861	0.045321
C38	C	-4.090205	-0.212676	0.152270
C39	C	-4.131413	-0.087763	-0.123607
C40	C	-4.075989	-0.009679	-0.124054
H41	H	-4.144121	-0.428904	-0.136145
H42	H	-4.172994	-0.217280	-0.614880
H43	H	-3.715278	-0.208016	-0.636607
H44	H	-4.401761	-1.009333	-0.132830
O45	O	-4.234381	-0.568235	-0.136181
C46	C	-4.372989	-0.523277	-0.140698
H47	H	-4.306669	-0.473342	-0.170173
H48	H	-4.524526	-0.552212	-0.190927
H49	H	-4.399856	-0.507922	-0.064651
O50	O	-3.519795	-0.554322	-0.116975
C51	C	-3.500275	-0.587183	-0.032682
H52	H	-3.653340	-0.598154	-0.008883
H53	H	-3.452660	-0.639368	-0.049190
H54	H	-3.379042	-0.550600	0.028186
H55	H	-3.486493	-0.415950	-0.118625
O56	O	-4.368800	-0.871121	-0.134523
C57	C	-4.514482	-0.900562	-0.221115
H58	H	-4.495769	-0.955936	-0.247363
H59	H	-4.675203	-0.904230	-0.206670
H60	H	-4.490281	-0.865327	-0.279332
O61	O	-3.718349	-1.001654	-0.114434
C62	C	-3.698819	-1.034508	-0.030136
H63	H	-3.851884	-1.045481	-0.006336
H64	H	-3.651195	-1.086693	-0.046638
H65	H	-3.577590	-0.997921	0.030729
O66	O	-3.654187	-0.856858	-0.115422
C67	C	-3.660830	-0.785008	-0.116929
H68	H	-3.801994	-0.774614	-0.090441
H69	H	-3.517223	-0.749590	-0.067135
H70	H	-3.668642	-0.772720	-0.194426
