data_functionalizedCrystal
_audit_creation_method	'MofGen! by Chris Wilmer'
_symmetry_space_group_name_H-M	'P1'
_symmetry_Int_Tables_number	1
_symmetry_cell_setting	triclinic
loop_
_symmetry_equiv_pos_as_xyz
  x,y,z
_cell_length_a	21.395362
_cell_length_b	18.101395
_cell_length_c	18.101389
_cell_angle_alpha	89.983159
_cell_angle_beta	89.961604
_cell_angle_gamma	90.046983
loop_
_atom_site_label
_atom_site_type_symbol
_atom_site_fract_x
_atom_site_fract_y
_atom_site_fract_z
Zn1	Zn	0.957823	-0.294593	-0.419125
Zn2	Zn	1.457823	0.205407	0.080875
Zn3	Zn	0.957735	-0.418419	-0.295287
Zn4	Zn	1.457735	0.081581	0.204713
Zn5	Zn	0.853049	-0.294630	-0.295256
Zn6	Zn	1.353049	0.205370	0.204744
Zn7	Zn	0.853007	-0.418432	-0.419045
Zn8	Zn	1.353007	0.081568	0.080955
O9	O	0.905404	-0.356519	-0.357178
O10	O	1.405404	0.143481	0.142822
O11	O	1.045490	-0.310998	-0.402744
O12	O	1.545490	0.189002	0.097256
O13	O	0.943829	-0.402008	-0.191650
O14	O	1.443829	0.097992	0.308350
O15	O	0.867001	-0.190992	-0.311708
O16	O	1.367001	0.309008	0.188292
O17	O	1.045425	-0.401973	-0.311761
O18	O	1.545425	0.098027	0.188239
O19	O	0.943979	-0.190965	-0.402714
O20	O	1.443979	0.309035	0.097286
O21	O	0.866916	-0.311061	-0.191627
O22	O	1.366916	0.188939	0.308373
O23	O	0.765365	-0.311074	-0.311630
O24	O	1.265365	0.188926	0.188370
O25	O	0.866930	-0.401994	-0.522689
O26	O	1.366930	0.098006	-0.022689
O27	O	0.765334	-0.402030	-0.402578
O28	O	1.265334	0.097970	0.097422
O29	O	0.943939	-0.311011	-0.522747
O30	O	1.443939	0.188989	-0.022747
O31	O	0.943789	-0.522054	-0.311683
O32	O	1.443789	-0.022054	0.188317
O33	O	0.866845	-0.522063	-0.402608
O34	O	1.366845	-0.022063	0.097392
C35	C	0.742616	-0.356558	-0.357092
C36	C	1.242616	0.143442	0.142908
C37	C	0.672975	-0.356592	-0.357073
C38	C	1.172975	0.143408	0.142927
C39	C	0.905320	-0.548929	-0.357156
C40	C	1.405320	-0.048929	0.142844
C41	C	0.905341	-0.631243	-0.357172
C42	C	1.405341	-0.131243	0.142828
C43	C	0.640262	-0.404016	-0.404358
C44	C	1.140262	0.095984	0.095642
C45	C	0.574827	-0.403998	-0.404391
C46	C	1.074827	0.096002	0.095609
C47	C	0.542106	-0.356564	-0.357126
C48	C	1.042106	0.143436	0.142874
C49	C	0.574827	-0.309131	-0.309837
C50	C	1.074827	0.190869	0.190163
C51	C	0.640261	-0.309145	-0.309811
C52	C	1.140261	0.190855	0.190189
C53	C	0.438387	-0.350599	-0.290456
C54	C	0.938387	0.149401	0.209544
C55	C	0.372954	-0.350590	-0.290481
C56	C	0.872954	0.149410	0.209519
C57	C	0.340286	-0.356516	-0.357208
C58	C	0.840286	0.143484	0.142792
C59	C	0.373058	-0.362466	-0.423911
C60	C	0.873058	0.137534	0.076089
C61	C	0.438492	-0.362480	-0.423884
C62	C	0.938492	0.137520	0.076116
C63	C	0.471154	-0.356543	-0.357149
C64	C	0.971154	0.143457	0.142851
C65	C	0.236620	-0.403922	-0.404533
C66	C	0.736620	0.096078	0.095467
C67	C	0.171184	-0.403899	-0.404567
C68	C	0.671184	0.096101	0.095433
C69	C	0.171185	-0.309036	-0.310006
C70	C	0.671185	0.190964	0.189994
C71	C	0.236621	-0.309055	-0.309978
C72	C	0.736621	0.190945	0.190022
C73	C	0.269334	-0.356502	-0.357241
C74	C	0.769334	0.143498	0.142759
C75	C	0.905479	-0.930334	-0.357212
C76	C	1.405479	-0.430334	0.142788
C77	C	0.857180	-0.899046	-0.414561
C78	C	1.357180	-0.399046	0.085439
C79	C	0.856951	-0.813428	-0.414382
C80	C	1.356951	-0.313428	0.085618
C81	C	0.905410	-0.781952	-0.357193
C82	C	1.405410	-0.281952	0.142807
C83	C	0.887534	-0.813095	-0.279136
C84	C	1.387534	-0.313095	0.220864
C85	C	0.887223	-0.898740	-0.279479
C86	C	1.387223	-0.398740	0.220521
C87	C	0.971759	-0.898660	-0.377232
C88	C	1.471759	-0.398660	0.122768
C89	C	0.971369	-0.813009	-0.378943
C90	C	1.471369	-0.313009	0.121057
C91	C	0.905373	-0.698092	-0.357177
C92	C	1.405373	-0.198092	0.142823
C93	C	0.905515	-1.014194	-0.357222
C94	C	1.405515	-0.514194	0.142778
C95	C	1.068827	-0.356480	-0.357265
C96	C	1.568827	0.143520	0.142735
C97	C	1.138468	-0.356463	-0.357302
C98	C	1.638468	0.143537	0.142698
C99	C	0.905440	-0.356500	-0.550340
C100	C	1.405440	0.143500	-0.050340
C101	C	0.905455	-0.356492	-0.632654
C102	C	1.405455	0.143508	-0.132654
C103	C	0.905505	-0.163357	-0.357216
C104	C	1.405505	0.336643	0.142784
C105	C	0.905548	-0.081043	-0.357232
C106	C	1.405548	0.418957	0.142768
C107	C	0.905492	-0.356353	-0.931745
C108	C	1.405492	0.143647	-0.431745
C109	C	0.856873	-0.413416	-0.900383
C110	C	1.356873	0.086584	-0.400383
C111	C	0.857005	-0.413680	-0.814765
C112	C	1.357005	0.086320	-0.314765
C113	C	0.905473	-0.356422	-0.783363
C114	C	1.405473	0.143578	-0.283363
C115	C	0.971486	-0.377584	-0.814488
C116	C	1.471486	0.122416	-0.314488
C117	C	0.971215	-0.377959	-0.900133
C118	C	1.471215	0.122041	-0.400133
C119	C	0.888671	-0.278001	-0.900163
C120	C	1.388671	0.221999	-0.400163
C121	C	0.887202	-0.278454	-0.814511
C122	C	1.387202	0.221546	-0.314511
C123	C	0.905467	-0.356460	-0.699503
C124	C	1.405467	0.143540	-0.199503
C125	C	0.905503	-0.356317	-1.015605
C126	C	1.405503	0.143683	-0.515605
C127	C	0.905404	-0.356484	-0.164768
C128	C	1.405404	0.143516	0.335232
C129	C	0.905510	-0.356283	-0.082454
C130	C	1.405510	0.143717	0.417546
H131	H	0.666893	-0.442651	-0.442844
H132	H	1.166893	0.057349	0.057156
Cl133	Cl	0.781065	-0.393182	-0.932136
Cl134	Cl	1.281065	0.106818	-0.432136
Cl135	Cl	0.781099	-0.781912	-0.393907
Cl136	Cl	1.281099	-0.281912	0.106093
H137	H	0.984850	-0.792652	-0.436389
H138	H	1.484850	-0.292652	0.063611
Cl139	Cl	0.331997	-0.369911	-0.507802
Cl140	Cl	0.831997	0.130089	-0.007802
Cl141	Cl	1.029870	-0.779916	-0.319162
Cl142	Cl	1.529870	-0.279916	0.180838
Cl143	Cl	0.815642	-0.248228	-0.933463
Cl144	Cl	1.315642	0.251772	-0.433463
H145	H	0.838772	-0.918796	-0.262523
H146	H	1.338772	-0.418796	0.237477
H147	H	1.008683	-0.337328	-0.794152
H148	H	1.508683	0.162672	-0.294152
Cl149	Cl	0.277748	-0.249435	-0.250528
Cl150	Cl	0.777748	0.250565	0.249472
Cl151	Cl	1.029004	-0.316534	-0.932173
Cl152	Cl	1.529004	0.183466	-0.432173
Cl153	Cl	0.781428	-0.393235	-0.782266
Cl154	Cl	1.281428	0.106765	-0.282266
Cl155	Cl	0.993885	-0.465074	-0.781395
Cl156	Cl	1.493885	0.034926	-0.281395
Cl157	Cl	0.874215	-0.780914	-0.503741
Cl158	Cl	1.374215	-0.280914	-0.003741
Cl159	Cl	0.813521	-0.780104	-0.252487
Cl160	Cl	1.313521	-0.280104	0.247513
H161	H	1.007743	-0.918890	-0.335463
H162	H	1.507743	-0.418890	0.164537
H163	H	0.867868	-0.471139	-0.921913
H164	H	1.367868	0.028861	-0.421913
H165	H	0.666895	-0.270525	-0.271305
H166	H	1.166895	0.229475	0.228695
Cl167	Cl	0.939171	-0.930700	-0.211251
Cl168	Cl	1.439171	-0.430700	0.288749
Cl169	Cl	0.996922	-0.931934	-0.463616
Cl170	Cl	1.496922	-0.431934	0.036384
Cl171	Cl	0.874271	-0.930783	-0.504212
Cl172	Cl	1.374271	-0.430783	-0.004212
H173	H	0.808350	-0.920646	-0.401464
H174	H	1.308350	-0.420646	0.098536
H175	H	0.985475	-0.435235	-0.920122
H176	H	1.485475	0.064765	-0.420122
H177	H	0.921606	-0.792705	-0.235240
H178	H	1.421606	-0.292705	0.264760
H179	H	0.924083	-0.235487	-0.920448
H180	H	1.424083	0.264513	-0.420448
H181	H	0.868110	-0.471758	-0.794287
H182	H	1.368110	0.028242	-0.294287
H183	H	0.263257	-0.442553	-0.443020
H184	H	0.763257	0.057447	0.056980
Cl185	Cl	0.812195	-0.253816	-0.783108
Cl186	Cl	1.312195	0.246184	-0.283108
H187	H	0.548187	-0.442616	-0.442900
H188	H	1.048187	0.057384	0.057100
Cl189	Cl	0.479690	-0.369955	-0.507736
Cl190	Cl	0.979690	0.130045	-0.007736
H191	H	0.144550	-0.442516	-0.443077
H192	H	0.644550	0.057484	0.056923
Cl193	Cl	0.130058	-0.249399	-0.250590
Cl194	Cl	0.630058	0.250601	0.249410
H195	H	0.346276	-0.345750	-0.236167
H196	H	0.846276	0.154250	0.263833
Cl197	Cl	0.937892	-0.209332	-0.781521
Cl198	Cl	1.437892	0.290668	-0.281521
Cl199	Cl	0.479449	-0.343152	-0.206563
Cl200	Cl	0.979449	0.156848	0.293437
Cl201	Cl	0.533694	-0.249496	-0.250421
Cl202	Cl	1.033694	0.250504	0.249579
