data_functionalizedCrystal
_audit_creation_method	'MofGen! by Chris Wilmer'
_symmetry_space_group_name_H-M	'P1'
_symmetry_Int_Tables_number	1
_symmetry_cell_setting	triclinic
loop_
_symmetry_equiv_pos_as_xyz
  x,y,z
_cell_length_a	19.120904
_cell_length_b	12.759401
_cell_length_c	19.121459
_cell_angle_alpha	87.582637
_cell_angle_beta	89.921699
_cell_angle_gamma	87.574971
loop_
_atom_site_label
_atom_site_type_symbol
_atom_site_fract_x
_atom_site_fract_y
_atom_site_fract_z
Zn1	Zn	-0.384459	-1.600483	0.296058
Zn2	Zn	0.115541	-1.100483	0.796058
Zn3	Zn	-0.262229	-1.615322	0.408295
Zn4	Zn	0.237771	-1.115322	0.908295
Zn5	Zn	-0.267242	-1.431963	0.291074
Zn6	Zn	0.232758	-0.931963	0.791074
Zn7	Zn	-0.379431	-1.432540	0.413253
Zn8	Zn	0.120569	-0.932540	0.913253
O9	O	-0.323340	-1.520077	0.352170
O10	O	0.176660	-1.020077	0.852170
O11	O	-0.368252	-1.749473	0.310958
O12	O	0.131748	-1.249473	0.810958
O13	O	-0.164789	-1.596967	0.388584
O14	O	0.335211	-1.096967	0.888584
O15	O	-0.286993	-1.447865	0.193632
O16	O	0.213007	-0.947865	0.693632
O17	O	-0.278450	-1.760375	0.393417
O18	O	0.221550	-1.260375	0.893417
O19	O	-0.373112	-1.571677	0.197294
O20	O	0.126888	-1.071677	0.697294
O21	O	-0.168472	-1.462254	0.302463
O22	O	0.331528	-0.962254	0.802463
O23	O	-0.282117	-1.285018	0.307271
O24	O	0.217883	-0.785018	0.807271
O25	O	-0.478203	-1.448850	0.401868
O26	O	0.021797	-0.948850	0.901868
O27	O	-0.364542	-1.285442	0.397035
O28	O	0.135458	-0.785442	0.897035
O29	O	-0.481897	-1.572237	0.315766
O30	O	0.018103	-1.072237	0.815766
O31	O	-0.273574	-1.597527	0.507056
O32	O	0.226426	-1.097527	1.007056
O33	O	-0.359681	-1.463238	0.510699
O34	O	0.140319	-0.963238	1.010699
C35	C	-0.323328	-1.247109	0.352150
C36	C	0.176672	-0.747109	0.852150
C37	C	-0.323339	-1.130332	0.352160
C38	C	0.176661	-0.630332	0.852160
C39	C	-0.370164	-1.069796	0.309305
C40	C	0.129836	-0.569796	0.809305
C41	C	-0.370168	-0.960072	0.309310
C42	C	0.129832	-0.460072	0.809310
C43	C	-0.276518	-0.971431	0.395029
C44	C	0.223482	-0.471431	0.895029
C45	C	-0.276512	-1.081153	0.395020
C46	C	0.223488	-0.581153	0.895020
C47	C	-0.398894	-0.803134	0.227750
C48	C	0.101106	-0.303134	0.727750
C49	C	-0.445730	-0.742593	0.184902
C50	C	0.054270	-0.242593	0.684902
C51	C	-0.514608	-0.773353	0.177146
C52	C	-0.014608	-0.273353	0.677146
C53	C	-0.536663	-0.864653	0.212247
C54	C	-0.036663	-0.364653	0.712247
C55	C	-0.489831	-0.925188	0.255100
C56	C	0.010169	-0.425188	0.755100
C57	C	-0.420944	-0.894429	0.262843
C58	C	0.079056	-0.394429	0.762843
C59	C	-0.247793	-1.238093	0.476581
C60	C	0.252207	-0.738093	0.976581
C61	C	-0.200963	-1.298630	0.519438
C62	C	0.299037	-0.798630	1.019438
C63	C	-0.132084	-1.267872	0.527202
C64	C	0.367916	-0.767872	1.027202
C65	C	-0.110031	-1.176570	0.492113
C66	C	0.389969	-0.676570	0.992113
C67	C	-0.156860	-1.116033	0.449256
C68	C	0.343140	-0.616033	0.949256
C69	C	-0.225739	-1.146798	0.441491
C70	C	0.274261	-0.646798	0.941491
C71	C	-0.506199	-1.508953	0.359926
C72	C	-0.006199	-1.008953	0.859926
C73	C	-0.584123	-1.504212	0.363231
C74	C	-0.084123	-1.004212	0.863231
C75	C	-0.622656	-1.566223	0.319957
C76	C	-0.122656	-1.066223	0.819957
C77	C	-0.695874	-1.561756	0.323060
C78	C	-0.195874	-1.061756	0.823060
C79	C	-0.730556	-1.495283	0.369441
C80	C	-0.230556	-0.995283	0.869441
C81	C	-0.692018	-1.433265	0.412716
C82	C	-0.192018	-0.933265	0.912716
C83	C	-0.618802	-1.437727	0.409610
C84	C	-0.118802	-0.937727	0.909610
C85	C	-0.951526	-1.478591	0.381060
C86	C	-0.451526	-0.978591	0.881060
C87	C	-1.024747	-1.474135	0.384165
C88	C	-0.524747	-0.974135	0.884165
C89	C	-1.028597	-1.602625	0.294507
C90	C	-0.528597	-1.102625	0.794507
C91	C	-0.955380	-1.607086	0.291408
C92	C	-0.455380	-1.107086	0.791408
C93	C	-0.916848	-1.545064	0.334681
C94	C	-0.416848	-1.045064	0.834681
C95	C	-0.805396	-1.490717	0.372615
C96	C	-0.305396	-0.990717	0.872615
C97	C	-0.842009	-1.549625	0.331503
C98	C	-0.342009	-1.049625	0.831503
C99	C	-0.141195	-1.531215	0.344394
C100	C	0.358805	-1.031215	0.844394
C101	C	-0.063280	-1.536146	0.340891
C102	C	0.436720	-1.036146	0.840891
C103	C	-0.315553	-1.532083	0.534315
C104	C	0.184447	-1.032083	1.034315
C105	C	-0.312245	-1.537314	0.612239
C106	C	0.187755	-1.037314	1.112239
C107	C	-0.323350	-0.794110	0.352184
C108	C	0.176650	-0.294110	0.852184
C109	C	-0.323349	-0.910886	0.352173
C110	C	0.176651	-0.410886	0.852173
C111	C	-0.331173	-1.508052	0.169314
C112	C	0.168827	-1.008052	0.669314
C113	C	-0.334511	-1.502927	0.091392
C114	C	0.165489	-1.002927	0.591392
C115	C	-0.291272	-1.570431	1.052862
C116	C	0.208728	-1.070431	1.552862
C117	C	-0.294382	-1.565507	0.979644
C118	C	0.205618	-1.065507	1.479644
C119	C	-0.340734	-1.493083	0.944959
C120	C	0.159266	-0.993083	1.444959
C121	C	-0.383974	-1.425571	0.983494
C122	C	0.116026	-0.925571	1.483494
C123	C	-0.380861	-1.430491	1.056710
C124	C	0.119139	-0.930491	1.556710
C125	C	-0.352372	-1.474722	0.723990
C126	C	0.147628	-0.974722	1.223990
C127	C	-0.355484	-1.469810	0.650769
C128	C	0.144516	-0.969810	1.150769
C129	C	-0.265890	-1.609745	0.646924
C130	C	0.234110	-1.109745	1.146924
C131	C	-0.262784	-1.614663	0.720142
C132	C	0.237216	-1.114663	1.220142
C133	C	-0.306022	-1.547148	0.758671
C134	C	0.193978	-1.047148	1.258671
C135	C	-0.343915	-1.488050	0.870119
C136	C	0.156085	-0.988050	1.370119
C137	C	-0.302836	-1.552176	0.833509
C138	C	0.197164	-1.052176	1.333509
H139	H	-0.303878	-1.263150	0.470258
H140	H	0.196122	-0.763150	0.970258
H141	H	-0.265094	-1.611141	0.861753
H142	H	0.234906	-1.111141	1.361753
Br143	Br	-1.080894	-1.686790	0.235781
Br144	Br	-0.580894	-1.186790	0.735781
Br145	Br	-0.207213	-1.701366	0.594632
Br146	Br	0.292787	-1.201366	1.094632
H147	H	-0.427766	-0.668257	0.156322
H148	H	0.072234	-0.168257	0.656322
H149	H	-0.727244	-1.612254	0.287823
H150	H	-0.227244	-1.112254	0.787823
H151	H	-0.920161	-1.428104	0.416307
H152	H	-0.420161	-0.928104	0.916307
H153	H	-0.342806	-0.778087	0.234053
H154	H	0.157194	-0.278087	0.734053
Br155	Br	-0.212972	-0.904682	0.453194
Br156	Br	0.287028	-0.404682	0.953194
Br157	Br	-0.126923	-0.992142	0.401612
Br158	Br	0.373077	-0.492142	0.901612
Br159	Br	-0.519756	-1.049085	0.302737
Br160	Br	-0.019756	-0.549085	0.802737
Br161	Br	-0.908315	-1.697306	0.228462
Br162	Br	-0.408315	-1.197306	0.728462
Br163	Br	-0.016552	-1.134811	0.502658
Br164	Br	0.483448	-0.634811	1.002658
Br165	Br	-0.439537	-1.338865	1.109002
Br166	Br	0.060463	-0.838865	1.609002
Br167	Br	-0.418397	-1.371515	0.603696
Br168	Br	0.081603	-0.871515	1.103696
Br169	Br	-0.406826	-1.389771	0.823040
Br170	Br	0.093174	-0.889771	1.323040
Br171	Br	-0.199880	-1.712964	0.767210
Br172	Br	0.300120	-1.212964	1.267210
H173	H	-1.052983	-1.420002	0.421936
H174	H	-0.552983	-0.920002	0.921936
H175	H	-0.253531	-1.629413	1.081097
H176	H	0.246469	-1.129413	1.581097
H177	H	-0.421713	-1.366596	0.955249
H178	H	0.078287	-0.866596	1.455249
H179	H	-0.592753	-0.889684	0.205934
H180	H	-0.092753	-0.389684	0.705934
Br181	Br	-0.433713	-1.136536	0.251136
Br182	Br	0.066287	-0.636536	0.751136
H183	H	-0.552742	-0.724053	0.142258
H184	H	-0.052742	-0.224053	0.642258
Br185	Br	-0.575593	-1.656449	0.257013
Br186	Br	-0.075593	-1.156449	0.757013
H187	H	-0.218922	-1.372983	0.548000
H188	H	0.281078	-0.872983	1.048000
H189	H	-0.720263	-1.379137	0.450478
H190	H	-0.220263	-0.879137	0.950478
Br191	Br	-0.852472	-1.400509	0.435560
Br192	Br	-0.352472	-0.900509	0.935560
Br193	Br	-0.068533	-1.350021	0.585377
Br194	Br	0.431467	-0.850021	1.085377
Br195	Br	-0.566506	-1.353560	0.468337
Br196	Br	-0.066506	-0.853560	0.968337
H197	H	-0.813767	-1.603742	0.293737
H198	H	-0.313767	-1.103742	0.793737
H199	H	-0.259173	-1.620474	0.948273
H200	H	0.240827	-1.120474	1.448273
H201	H	-0.387574	-1.419739	0.755352
H202	H	0.112426	-0.919739	1.255352
