data_functionalizedCrystal
_audit_creation_method	'MofGen! by Chris Wilmer'
_symmetry_space_group_name_H-M	'P1'
_symmetry_Int_Tables_number	1
_symmetry_cell_setting	triclinic
loop_
_symmetry_equiv_pos_as_xyz
  x,y,z
_cell_length_a	10.540535
_cell_length_b	10.540539
_cell_length_c	15.455313
_cell_angle_alpha	92.694186
_cell_angle_beta	87.294241
_cell_angle_gamma	84.524567
loop_
_atom_site_label
_atom_site_type_symbol
_atom_site_fract_x
_atom_site_fract_y
_atom_site_fract_z
O1	O	1.691401	0.173375	-0.072079
O2	O	1.321988	0.190236	-0.072091
O3	O	1.515122	-0.002901	-0.072083
O4	O	1.498266	0.366512	-0.072086
O5	O	1.504077	0.008097	0.072178
O6	O	1.310943	0.201234	0.072171
O7	O	1.680356	0.184373	0.072183
Cu8	Cu	1.494641	0.193808	0.085349
Cu9	Cu	1.507703	0.180801	-0.085257
O10	O	1.487222	0.377510	0.072176
C11	C	1.269162	0.194472	0.000039
C12	C	1.128214	0.190692	0.000034
C13	C	1.091544	0.049678	0.000039
C14	C	0.944917	0.045726	0.000375
C15	C	0.912583	0.261331	0.082264
C16	C	1.059344	0.264336	0.082325
C17	C	1.071788	0.253880	-0.081734
C18	C	0.925524	0.247277	-0.082806
C19	C	1.508336	-0.044705	0.000046
C20	C	1.504554	-0.185654	0.000041
C21	C	1.359662	-0.369103	-0.000287
C22	C	1.363471	-0.222460	0.000038
C23	C	1.566143	-0.241031	0.082424
C24	C	1.561322	-0.387571	0.082493
C25	C	1.576752	-0.400596	-0.081559
C26	C	1.578134	-0.253697	-0.082649
C27	C	1.733181	0.180137	0.000052
C28	C	1.874130	0.183917	0.000050
C29	C	1.494008	0.419314	0.000044
C30	C	1.497790	0.560262	0.000044
N31	N	1.485463	0.202956	0.205344
N32	N	1.516890	0.171643	-0.205252
C33	C	1.567543	0.120935	0.250742
C34	C	1.560614	0.127865	0.341549
C35	C	1.471611	0.216823	0.386958
C36	C	1.389523	0.298847	0.341554
C37	C	1.396446	0.291910	0.250748
C38	C	1.441726	0.246731	0.658538
C39	C	1.434811	0.253664	0.749351
C40	C	1.605901	0.082680	0.749339
C41	C	1.612822	0.075756	0.658531
C42	C	1.530729	0.157775	0.613136
N43	N	1.464529	0.223911	0.479778
N44	N	1.537806	0.150680	0.520317
H45	H	0.920091	-0.014407	-0.058547
N46	N	1.658405	0.030044	0.204333
N47	N	1.621215	-0.052980	0.153678
H48	H	1.685371	-0.117180	0.120892
N49	N	1.131127	0.192784	-0.159928
N50	N	1.215733	0.101914	-0.156339
H51	H	1.257675	0.058781	-0.211560
N52	N	1.521747	-0.208128	-0.159092
N53	N	1.517450	-0.092253	-0.173847
H54	H	1.477620	-0.060051	-0.227831
N55	N	1.689760	-0.001106	0.795696
N56	N	1.807882	0.000983	0.785536
H57	H	1.867110	-0.058198	0.818275
H58	H	1.299660	-0.394831	0.058456
N59	N	1.087928	0.394343	0.086717
N60	N	1.155051	0.435277	0.027362
H61	H	1.175234	0.527094	0.030469
N62	N	1.290303	-0.164390	0.074234
N63	N	1.196295	-0.085597	0.064582
H64	H	1.144617	-0.044584	0.116986
N65	N	1.703936	-0.015018	0.612246
N66	N	1.700610	-0.131627	0.622400
H67	H	1.765041	-0.195693	0.589742
H68	H	0.865010	0.363312	0.085089
H69	H	1.362330	0.326109	0.786318
N70	N	0.867910	0.205967	0.159311
N71	N	0.807750	0.109529	0.153885
H72	H	0.776200	0.070420	0.208297
N73	N	1.492459	-0.417045	0.159746
N74	N	1.448284	-0.329455	0.213233
H75	H	1.399645	-0.350264	0.267795
N76	N	0.895490	0.176509	-0.159110
N77	N	0.937093	0.061651	-0.171153
H78	H	0.915872	0.011669	-0.225041
N79	N	0.864619	0.373390	-0.089283
N80	N	0.781973	0.418827	-0.032686
H81	H	0.739000	0.507922	-0.037232
N82	N	1.357859	0.330513	0.612189
N83	N	1.278400	0.409931	0.652746
H84	H	1.219163	0.469107	0.620010
H85	H	1.627448	0.061076	0.378511
H86	H	1.317048	0.371274	0.378531
N87	N	1.501081	-0.181723	0.159324
N88	N	1.409352	-0.098672	0.153670
H89	H	1.363394	-0.056785	0.207978
H90	H	1.678698	-0.447866	-0.082110
N91	N	1.149877	-0.023881	-0.073910
N92	N	1.268710	-0.037829	-0.085095
H93	H	1.309920	-0.089778	-0.137325
N94	N	0.903539	-0.018069	0.074745
N95	N	0.982990	-0.059800	0.126567
H96	H	0.953770	-0.104858	0.179096
N97	N	1.103802	0.209966	0.159721
N98	N	1.026433	0.170067	0.213315
H99	H	1.057825	0.131665	0.267979
H100	H	1.308454	-0.402206	-0.059365
N101	N	1.099670	0.383965	-0.082734
N102	N	1.059716	0.460887	-0.021247
H103	H	1.079408	0.552758	-0.021948
N104	N	1.302116	-0.174672	-0.074047
N105	N	1.256175	-0.249644	-0.126353
H106	H	1.212834	-0.215900	-0.178676
H107	H	1.329607	0.358698	0.213787
N108	N	1.525497	-0.446141	-0.159903
N109	N	1.593251	-0.521153	-0.212038
H110	H	1.557045	-0.553319	-0.267366
H111	H	1.662501	-0.435256	0.086234
N112	N	1.695824	-0.212698	0.086262
N113	N	1.744415	-0.151227	0.028185
H114	H	1.836003	-0.131215	0.030893
N115	N	1.707658	-0.223814	-0.088875
N116	N	1.796815	-0.311006	-0.089084
H117	H	1.888297	-0.289901	-0.093473
H118	H	1.130494	0.000922	0.058910
