data_functionalizedCrystal
_audit_creation_method	'MofGen! by Chris Wilmer'
_symmetry_space_group_name_H-M	'P1'
_symmetry_Int_Tables_number	1
_symmetry_cell_setting	triclinic
loop_
_symmetry_equiv_pos_as_xyz
  x,y,z
_cell_length_a	9.065218
_cell_length_b	16.992695
_cell_length_c	7.540329
_cell_angle_alpha	89.996072
_cell_angle_beta	89.996962
_cell_angle_gamma	87.842054
loop_
_atom_site_label
_atom_site_type_symbol
_atom_site_fract_x
_atom_site_fract_y
_atom_site_fract_z
O1	O	1.971074	0.115065	-0.147490
O2	O	1.542664	0.124504	-0.147492
O3	O	1.755152	0.005630	-0.147477
O4	O	1.758586	0.233939	-0.147505
O5	O	1.755138	0.005628	0.147488
O6	O	1.542651	0.124502	0.147473
O7	O	1.971060	0.115064	0.147476
Cu8	Cu	1.756854	0.119783	0.174407
Cu9	Cu	1.756870	0.119785	-0.174424
O10	O	1.758573	0.233938	0.147460
C11	C	1.487587	0.123596	-0.000010
C12	C	1.323492	0.120884	-0.000011
C13	C	1.750726	-0.023615	0.000005
C14	C	1.737542	-0.110753	0.000005
C15	C	1.864748	-0.160090	0.000008
C16	C	1.852352	-0.241964	-0.000009
C17	C	1.712748	-0.274500	-0.000016
C18	C	1.585533	-0.225157	-0.000024
C19	C	1.597931	-0.143284	-0.000020
C20	C	1.661364	-0.518463	-0.000041
C21	C	1.648976	-0.600343	-0.000040
C22	C	1.915797	-0.617144	-0.000028
C23	C	1.928182	-0.535269	-0.000013
C24	C	1.800967	-0.485933	-0.000031
N25	N	1.700074	-0.358189	-0.000028
N26	N	1.813642	-0.402245	-0.000032
C27	C	2.026138	0.115972	-0.000011
C28	C	2.190232	0.118684	-0.000022
C29	C	1.762998	0.263183	-0.000026
C30	C	1.776182	0.350320	-0.000037
N31	N	1.756853	0.119781	0.419755
N32	N	1.756882	0.119780	-0.419772
H33	H	1.978428	-0.133606	0.000024
C34	C	1.992277	-0.296239	0.000010
C35	C	2.020467	-0.354829	-0.153158
C36	C	2.160397	-0.409105	-0.153138
C37	C	2.272137	-0.404791	0.000050
C38	C	2.243950	-0.346198	0.153229
C39	C	2.104020	-0.291922	0.153209
H40	H	1.937748	-0.358025	-0.266567
H41	H	2.181262	-0.452479	-0.266533
H42	H	2.375721	-0.444969	0.000065
H43	H	2.326669	-0.343002	0.266638
H44	H	2.083155	-0.248547	0.266603
H45	H	2.019368	-0.657322	-0.000018
H46	H	1.494345	-0.103114	-0.000023
H47	H	2.041862	-0.508785	-0.000008
C48	C	1.495408	-0.636141	-0.000064
C49	C	1.387022	-0.617964	0.153084
C50	C	1.233467	-0.653767	0.153062
C51	C	1.188298	-0.707745	-0.000108
C52	C	1.296686	-0.725924	-0.153267
C53	C	1.450242	-0.690122	-0.153245
H54	H	1.420457	-0.578004	0.266480
H55	H	1.153231	-0.640309	0.266441
H56	H	1.074627	-0.734248	-0.000125
H57	H	1.263251	-0.765885	-0.266663
H58	H	1.530478	-0.703580	-0.266624
H59	H	1.557776	-0.478303	-0.000055
H60	H	1.471864	-0.251654	-0.000041
