data_functionalizedCrystal
_audit_creation_method	'MofGen! by Chris Wilmer'
_symmetry_space_group_name_H-M	'P1'
_symmetry_Int_Tables_number	1
_symmetry_cell_setting	triclinic
loop_
_symmetry_equiv_pos_as_xyz
  x,y,z
_cell_length_a	19.188940
_cell_length_b	16.109301
_cell_length_c	14.586319
_cell_angle_alpha	89.994467
_cell_angle_beta	90.012807
_cell_angle_gamma	96.694902
loop_
_atom_site_label
_atom_site_type_symbol
_atom_site_fract_x
_atom_site_fract_y
_atom_site_fract_z
O1	O	0.089752	-1.102842	0.076183
O2	O	0.589752	-0.602842	0.576183
O3	O	0.100920	-0.860743	0.076198
O4	O	0.600920	-0.360743	0.576198
O5	O	-0.006303	-0.988775	0.076183
O6	O	0.493697	-0.488775	0.576183
O7	O	0.196975	-0.974810	0.076198
O8	O	0.696975	-0.474810	0.576198
O9	O	-0.006321	-0.988757	-0.076298
O10	O	0.493679	-0.488757	0.423702
O11	O	0.100902	-0.860725	-0.076283
O12	O	0.600902	-0.360725	0.423717
O13	O	0.089734	-1.102824	-0.076298
O14	O	0.589734	-0.602824	0.423702
Cu15	Cu	0.095316	-0.981773	-0.090213
Cu16	Cu	0.595316	-0.481773	0.409787
Cu17	Cu	0.095338	-0.981794	0.090113
Cu18	Cu	0.595338	-0.481794	0.590113
O19	O	0.196957	-0.974792	-0.076283
O20	O	0.696957	-0.474792	0.423717
C21	C	0.100459	-0.829761	-0.000041
C22	C	0.600459	-0.329761	0.499959
C23	C	0.099102	-0.737470	-0.000035
C24	C	0.599102	-0.237470	0.499965
C25	C	-0.032324	-0.988312	-0.000057
C26	C	0.467676	-0.488312	0.499943
C27	C	-0.109831	-0.986951	-0.000057
C28	C	0.390169	-0.486951	0.499943
C29	C	0.090195	-1.133806	-0.000057
C30	C	0.590195	-0.633806	0.499943
C31	C	0.091551	-1.226097	-0.000056
C32	C	0.591551	-0.726097	0.499944
C33	C	-0.663123	-0.977254	-0.083152
C34	C	-0.163123	-0.477254	0.416848
C35	C	-0.590296	-0.978524	-0.083157
C36	C	-0.090296	-0.478524	0.416843
C37	C	-0.553865	-0.979173	-0.000041
C38	C	-0.053865	-0.479173	0.499959
C39	C	-0.590265	-0.978530	0.083087
C40	C	-0.090265	-0.478530	0.583087
C41	C	-0.663090	-0.977252	0.083090
C42	C	-0.163090	-0.477252	0.583090
N43	N	-0.444718	-1.028498	0.061822
N44	N	0.055282	-0.528498	0.561822
N45	N	-0.375537	-1.029715	0.061813
N46	N	0.124463	-0.529715	0.561813
C47	C	-0.334446	-0.983024	-0.000044
C48	C	0.165554	-0.483024	0.499956
N49	N	-0.365151	-0.935081	-0.061907
N50	N	0.134849	-0.435081	0.438093
N51	N	-0.434338	-0.933869	-0.061901
N52	N	0.065662	-0.433869	0.438099
C53	C	-0.474898	-0.980559	-0.000034
C54	C	0.025102	-0.480559	0.499966
C55	C	-0.219087	-0.985038	-0.083172
C56	C	0.280913	-0.485038	0.416828
C57	C	-0.146257	-0.986303	-0.083174
C58	C	0.353743	-0.486303	0.416826
C59	C	-0.146229	-0.986318	0.083073
C60	C	0.353771	-0.486318	0.583073
C61	C	-0.219056	-0.985044	0.083072
C62	C	0.280944	-0.485044	0.583072
C63	C	-0.255481	-0.984408	-0.000053
C64	C	0.244519	-0.484408	0.499947
C65	C	0.222978	-0.975255	-0.000041
C66	C	0.722978	-0.475255	0.499959
C67	C	0.300485	-0.976616	-0.000035
C68	C	0.800485	-0.476616	0.499965
N69	N	0.095301	-0.981764	-0.217045
N70	N	0.595301	-0.481764	0.282955
C71	C	0.159573	-0.515000	-0.000041
C72	C	0.659573	-0.015000	0.499959
C73	C	0.158293	-0.428283	-0.000047
C74	C	0.658293	0.071717	0.499953
C75	C	0.031076	-0.448574	-0.000053
C76	C	0.531076	0.051426	0.499947
C77	C	0.032357	-0.535289	-0.000053
C78	C	0.532357	-0.035289	0.499947
C79	C	0.096607	-0.568499	-0.000043
C80	C	0.596607	-0.068499	0.499957
C81	C	0.094047	-0.395068	-0.000048
C82	C	0.594047	0.104932	0.499952
C83	C	0.092659	-0.301047	-0.000055
C84	C	0.592659	0.198953	0.499945
C85	C	0.097996	-0.662526	-0.000038
C86	C	0.597996	-0.162526	0.499962
C87	C	0.052972	-0.931520	-0.548074
C88	C	0.552972	-0.431520	-0.048074
C89	C	0.052963	-0.931513	-0.452092
C90	C	0.552963	-0.431513	0.047908
C91	C	0.137678	-1.032059	-0.452033
C92	C	0.637678	-0.532059	0.047967
C93	C	0.137683	-1.032070	-0.548012
C94	C	0.637683	-0.532070	-0.048012
C95	C	0.095332	-0.981795	-0.596030
C96	C	0.595332	-0.481795	-0.096030
C97	C	0.095317	-0.981778	-0.404069
C98	C	0.595317	-0.481778	0.095931
C99	C	0.095306	-0.981771	-0.300002
C100	C	0.595306	-0.481771	0.199998
C101	C	0.095341	-0.981803	-0.700104
C102	C	0.595341	-0.481803	-0.200104
N103	N	0.095348	-0.981810	0.216945
N104	N	0.595348	-0.481810	0.716945
H105	H	-0.692776	-0.976736	-0.150838
H106	H	-0.192776	-0.476736	0.349162
H107	H	0.172160	-1.072990	-0.412925
H108	H	0.672160	-0.572990	0.087075
Br109	Br	-0.268524	-0.984173	-0.195981
Br110	Br	0.231476	-0.484173	0.304019
H111	H	-0.116628	-0.986821	-0.150860
H112	H	0.383372	-0.486821	0.349140
Br113	Br	-0.053103	-0.607901	-0.000067
Br114	Br	0.446897	-0.107901	0.499933
H115	H	-0.560598	-0.979056	0.150761
H116	H	-0.060598	-0.479056	0.650761
H117	H	0.018486	-0.890584	-0.587167
H118	H	0.518486	-0.390584	-0.087167
Br119	Br	-0.004526	-0.863276	-0.387012
Br120	Br	0.495474	-0.363276	0.112988
H121	H	-0.692720	-0.976731	0.150775
H122	H	-0.192720	-0.476731	0.650775
H123	H	-0.116566	-0.986836	0.150747
H124	H	0.383434	-0.486836	0.650747
Br125	Br	-0.268449	-0.984183	0.195880
Br126	Br	0.231551	-0.484183	0.695880
H127	H	-0.560658	-0.979029	-0.150842
H128	H	-0.060658	-0.479029	0.349158
H129	H	0.211889	-0.542036	-0.000040
H130	H	0.711889	-0.042036	0.499960
H131	H	0.209566	-0.384727	-0.000048
H132	H	0.709566	0.115273	0.499952
Br133	Br	0.195170	-1.100312	-0.613102
Br134	Br	0.695170	-0.600312	-0.113102
H135	H	-0.021234	-0.421523	-0.000067
H136	H	0.478766	0.078477	0.499933
