data_functionalizedCrystal
_audit_creation_method	'MofGen! by Chris Wilmer'
_symmetry_space_group_name_H-M	'P1'
_symmetry_Int_Tables_number	1
_symmetry_cell_setting	triclinic
loop_
_symmetry_equiv_pos_as_xyz
  x,y,z
_cell_length_a	14.971486
_cell_length_b	10.654550
_cell_length_c	13.448316
_cell_angle_alpha	89.994587
_cell_angle_beta	89.998199
_cell_angle_gamma	84.049516
loop_
_atom_site_label
_atom_site_type_symbol
_atom_site_fract_x
_atom_site_fract_y
_atom_site_fract_z
O1	O	1.187838	0.163659	-0.082575
O2	O	0.927544	0.183258	-0.082602
O3	O	1.063676	-0.009345	-0.082584
O4	O	1.051707	0.356262	-0.082593
O5	O	1.063659	-0.009357	0.082800
O6	O	0.927527	0.183246	0.082782
O7	O	1.187821	0.163647	0.082809
Cu8	Cu	1.057672	0.173445	0.097896
Cu9	Cu	1.057693	0.173460	-0.097689
O10	O	1.051689	0.356250	0.082791
C11	C	0.894206	0.182375	0.000087
C12	C	0.794895	0.179749	0.000077
C13	C	0.738285	0.292898	0.000075
C14	C	0.644972	0.290422	0.000090
C15	C	0.608271	0.174797	0.000099
C16	C	0.664888	0.061639	0.000104
C17	C	0.758199	0.064116	0.000096
C18	C	0.470397	0.056485	0.000117
C19	C	0.377080	0.054007	0.000123
C20	C	0.357171	0.282791	0.000112
C21	C	0.450482	0.285268	0.000104
C22	C	0.507092	0.172110	0.000106
C23	C	1.062788	-0.056139	0.000107
C24	C	1.060159	-0.195555	0.000103
C25	C	1.140311	-0.275900	0.000114
C26	C	1.137835	-0.406894	0.000107
C27	C	0.975048	-0.377185	0.000081
C28	C	0.977525	-0.246193	0.000082
C29	C	1.222945	-0.225262	0.000136
C30	C	1.303104	-0.305609	0.000148
C31	C	1.300628	-0.436603	0.000141
C32	C	1.217993	-0.487250	0.000121
C33	C	1.221159	0.164530	0.000118
C34	C	1.320470	0.167156	0.000122
C35	C	1.052577	0.403044	0.000098
C36	C	1.055206	0.542460	0.000096
N37	N	1.057664	0.173435	0.235461
N38	N	1.057708	0.173460	-0.235253
C39	C	1.117962	0.088185	0.287509
C40	C	1.117968	0.088184	0.391612
C41	C	1.057679	0.173440	0.443665
C42	C	0.997375	0.258693	0.391610
C43	C	0.997365	0.258687	0.287509
C44	C	0.997400	0.258702	0.608590
C45	C	0.997410	0.258710	0.712698
C46	C	1.118002	0.088199	0.712694
C47	C	1.117993	0.088193	0.608592
C48	C	1.057689	0.173448	0.556544
H49	H	0.347201	-0.040145	0.000132
F50	F	1.182182	-0.002534	0.768091
H51	H	1.167067	0.018767	0.433989
F52	F	0.933185	0.349418	0.232116
H53	H	1.370382	-0.264362	0.000139
F54	F	1.385938	-0.522110	0.000144
F55	F	0.584728	0.410851	0.000085
H56	H	1.167089	0.018778	0.566211
H57	H	0.480361	0.379420	0.000087
H58	H	1.215983	-0.593916	0.000105
H59	H	0.907771	-0.418433	0.000067
F60	F	0.933240	0.349449	0.768090
F61	F	0.892218	-0.160679	0.000069
F62	F	0.933214	0.349438	0.553201
H63	H	0.634998	-0.032505	0.000125
F64	F	0.296921	0.403223	0.000111
F65	F	0.530645	-0.063952	0.000123
F66	F	0.818447	-0.056313	0.000101
H67	H	1.224970	-0.118601	0.000145
F68	F	0.933205	0.349424	0.447009
H69	H	0.768160	0.387053	0.000067
F70	F	1.182136	-0.002551	0.232120
