data_functionalizedCrystal
_audit_creation_method	'MofGen! by Chris Wilmer'
_symmetry_space_group_name_H-M	'P1'
_symmetry_Int_Tables_number	1
_symmetry_cell_setting	triclinic
loop_
_symmetry_equiv_pos_as_xyz
  x,y,z
_cell_length_a	17.639664
_cell_length_b	19.805405
_cell_length_c	17.640968
_cell_angle_alpha	101.231546
_cell_angle_beta	87.861045
_cell_angle_gamma	101.262500
loop_
_atom_site_label
_atom_site_type_symbol
_atom_site_fract_x
_atom_site_fract_y
_atom_site_fract_z
Zn1	Zn	-1.247824	0.019362	-0.195101
Zn2	Zn	-0.914491	0.352695	0.138232
Zn3	Zn	-0.581157	0.686028	0.471566
Zn4	Zn	-1.222023	0.159013	-0.068118
Zn5	Zn	-0.888690	0.492346	0.265216
Zn6	Zn	-0.555357	0.825679	0.598549
Zn7	Zn	-1.095141	0.063402	-0.093744
Zn8	Zn	-0.761807	0.396736	0.239589
Zn9	Zn	-0.428474	0.730069	0.572922
Zn10	Zn	-1.120762	0.150110	-0.220698
Zn11	Zn	-0.787429	0.483443	0.112635
Zn12	Zn	-0.454095	0.816776	0.445969
O13	O	-1.171437	0.097972	-0.144415
O14	O	-0.838104	0.431305	0.188918
O15	O	-0.504771	0.764638	0.522251
O16	O	-1.350678	0.023181	-0.156819
O17	O	-1.017345	0.356515	0.176514
O18	O	-0.684012	0.689848	0.509848
O19	O	-1.183672	0.168487	0.034756
O20	O	-0.850338	0.501820	0.368090
O21	O	-0.517005	0.835154	0.701423
O22	O	-1.115469	-0.037171	-0.107202
O23	O	-0.782136	0.296162	0.226132
O24	O	-0.448803	0.629495	0.559465
O25	O	-1.331723	0.125782	-0.063525
O26	O	-0.998389	0.459116	0.269808
O27	O	-0.665056	0.792449	0.603142
O28	O	-1.227645	-0.069528	-0.181668
O29	O	-0.894312	0.263805	0.151665
O30	O	-0.560979	0.597139	0.484999
O31	O	-1.090451	0.098242	0.015929
O32	O	-0.757118	0.431576	0.349262
O33	O	-0.423785	0.764909	0.682595
O34	O	-0.992263	0.089610	-0.132022
O35	O	-0.658929	0.422943	0.201311
O36	O	-0.325596	0.756276	0.534644
O37	O	-1.159137	0.110609	-0.323576
O38	O	-0.825804	0.443942	0.009757
O39	O	-0.492471	0.777275	0.343091
O40	O	-1.011087	0.153313	-0.225295
O41	O	-0.677753	0.486647	0.108039
O42	O	-0.344420	0.819980	0.441372
O43	O	-1.252489	0.014549	-0.304770
O44	O	-0.919156	0.347882	0.028563
O45	O	-0.585823	0.681215	0.361897
O46	O	-1.208516	0.252563	-0.088345
O47	O	-0.875182	0.585897	0.244988
O48	O	-0.541849	0.919230	0.578321
O49	O	-1.134120	0.246022	-0.200446
O50	O	-0.800786	0.579356	0.132888
O51	O	-0.467453	0.912689	0.466221
C52	C	-0.974118	0.125275	-0.184217
C53	C	-0.640785	0.458608	0.149116
C54	C	-0.307452	0.791942	0.482449
C55	C	-0.889708	0.136968	-0.201263
C56	C	-0.556375	0.470301	0.132070
C57	C	-0.223041	0.803634	0.465404
C58	C	-0.780540	0.186692	-0.273766
C59	C	-0.447206	0.520025	0.059567
C60	C	-0.113873	0.853358	0.392900
C61	C	-0.859855	0.175701	-0.257743
C62	C	-0.526522	0.509034	0.075590
C63	C	-0.193188	0.842367	0.408923
C64	C	-0.840251	0.109207	-0.160785
C65	C	-0.506918	0.442541	0.172548
C66	C	-0.173585	0.775874	0.505881
C67	C	-0.760933	0.120190	-0.176802
C68	C	-0.427600	0.453523	0.156531
C69	C	-0.094267	0.786856	0.489864
C70	C	-0.731084	0.158933	-0.233293
C71	C	-0.397751	0.492267	0.100040
C72	C	-0.064417	0.825600	0.433374
C73	C	-0.711477	0.092431	-0.136329
C74	C	-0.378144	0.425765	0.197004
C75	C	-0.044811	0.759098	0.530337
C76	C	-0.632166	0.103416	-0.152343
C77	C	-0.298833	0.436750	0.180991
C78	C	0.034501	0.770083	0.514324
C79	C	-0.602310	0.142160	-0.208829
C80	C	-0.268977	0.475493	0.124504
C81	C	0.064357	0.808826	0.457838
C82	C	-0.651772	0.169918	-0.249306
C83	C	-0.318439	0.503251	0.084027
C84	C	0.014894	0.836585	0.417360
C85	C	-0.741327	0.053692	-0.079835
C86	C	-0.407994	0.387026	0.253498
C87	C	-0.074661	0.720359	0.586832
C88	C	-0.691872	0.025934	-0.039362
C89	C	-0.358538	0.359267	0.293971
C90	C	-0.025205	0.692601	0.627305
C91	C	-0.612559	0.036914	-0.055379
C92	C	-0.279226	0.370248	0.277954
C93	C	0.054107	0.703581	0.611288
C94	C	-0.582703	0.075658	-0.111865
C95	C	-0.249370	0.408991	0.221468
C96	C	0.083963	0.742324	0.554801
C97	C	-0.563097	0.009156	-0.014902
C98	C	-0.229764	0.342489	0.318432
C99	C	0.103570	0.675823	0.651765
C100	C	-0.483785	0.020141	-0.030915
C101	C	-0.150452	0.353474	0.302418
C102	C	0.182881	0.686807	0.635752
C103	C	-0.503392	0.086643	-0.127879
C104	C	-0.170059	0.419976	0.205455
C105	C	0.163275	0.753309	0.538788
C106	C	-1.171322	0.273850	-0.144405
C107	C	-0.837989	0.607183	0.188929
C108	C	-0.504655	0.940516	0.522262
C109	C	-1.171347	0.349076	-0.144412
C110	C	-0.838014	0.682409	0.188922
C111	C	-0.504681	1.015743	0.522255
C112	C	-1.211549	0.056673	-0.342499
C113	C	-0.878216	0.390006	-0.009166
C114	C	-0.544883	0.723340	0.324168
C115	C	-1.228643	0.039074	-0.426910
C116	C	-0.895309	0.372407	-0.093577
C117	C	-0.561976	0.705740	0.239756
C118	C	-0.369526	0.070563	-0.104452
C119	C	-0.036193	0.403896	0.228882
C120	C	0.297141	0.737229	0.562215
C121	C	-0.453936	0.058884	-0.087406
C122	C	-0.120603	0.392217	0.245928
C123	C	0.212731	0.725551	0.579261
C124	C	-1.229732	0.367511	-0.183230
C125	C	-0.896398	0.700844	0.150103
C126	C	-0.563065	1.034177	0.483437
C127	C	-1.229753	0.438194	-0.183238
C128	C	-0.896419	0.771527	0.150095
C129	C	-0.563086	1.104861	0.483428
C130	C	-1.171392	0.490442	-0.144423
C131	C	-0.838058	0.823775	0.188910
C132	C	-0.504725	1.157108	0.522243
C133	C	-1.113002	0.472003	-0.105604
C134	C	-0.779668	0.805337	0.227729
C135	C	-0.446335	1.138670	0.561063
C136	C	-1.112978	0.401321	-0.105601
C137	C	-0.779645	0.734654	0.227733
C138	C	-0.446312	1.067987	0.561066
C139	C	-1.113094	0.757058	-0.105617
C140	C	-0.779761	1.090392	0.227716
C141	C	-0.446427	1.423725	0.561049
C142	C	-1.113123	0.827744	-0.105622
C143	C	-0.779790	1.161078	0.227711
C144	C	-0.446456	1.494411	0.561045
C145	C	-1.229868	0.793931	-0.183255
C146	C	-0.896535	1.127265	0.150078
C147	C	-0.563202	1.460598	0.483411
C148	C	-1.229845	0.723249	-0.183252
C149	C	-0.896512	1.056582	0.150081
C150	C	-0.563178	1.389916	0.483415
C151	C	-1.171453	0.704816	-0.144436
C152	C	-0.838120	1.038150	0.188897
C153	C	-0.504786	1.371483	0.522231
C154	C	-1.171430	0.628173	-0.144429
C155	C	-0.838097	0.961506	0.188905
C156	C	-0.504764	1.294840	0.522238
C157	C	-1.171417	0.567084	-0.144426
C158	C	-0.838084	0.900417	0.188908
C159	C	-0.504750	1.233751	0.522241
C160	C	-1.171544	0.921407	-0.144438
C161	C	-0.838211	1.254740	0.188896
C162	C	-0.504877	1.588073	0.522229
C163	C	-1.171505	0.846180	-0.144445
C164	C	-0.838172	1.179513	0.188888
C165	C	-0.504838	1.512847	0.522221
C166	C	-1.041873	0.231261	-0.753480
C167	C	-0.708540	0.564595	-0.420146
C168	C	-0.375206	0.897928	-0.086813
C169	C	-1.057951	0.214713	-0.832794
C170	C	-0.724617	0.548047	-0.499461
C171	C	-0.391284	0.881380	-0.166127
C172	C	-1.155150	0.114695	-0.813202
C173	C	-0.821816	0.448028	-0.479869
C174	C	-0.488483	0.781361	-0.146536
C175	C	-1.139077	0.131232	-0.733886
C176	C	-0.805744	0.464565	-0.400552
C177	C	-0.472411	0.797899	-0.067219
C178	C	-1.082439	0.189517	-0.704031
C179	C	-0.749106	0.522850	-0.370697
C180	C	-0.415772	0.856183	-0.037364
C181	C	-1.179643	0.089487	-0.684436
C182	C	-0.846310	0.422821	-0.351103
C183	C	-0.512977	0.756154	-0.017770
C184	C	-1.163575	0.106026	-0.605126
C185	C	-0.830242	0.439359	-0.271793
C186	C	-0.496908	0.772693	0.061541
C187	C	-1.106941	0.164309	-0.575264
C188	C	-0.773607	0.497642	-0.241931
C189	C	-0.440274	0.830976	0.091402
C190	C	-1.066370	0.206055	-0.624720
C191	C	-0.733037	0.539389	-0.291387
C192	C	-0.399704	0.872722	0.041947
C193	C	-1.236286	0.031206	-0.714292
C194	C	-0.902952	0.364539	-0.380959
C195	C	-0.569619	0.697873	-0.047625
C196	C	-1.276852	-0.010539	-0.664843
C197	C	-0.943518	0.322795	-0.331510
C198	C	-0.610185	0.656128	0.001824
C199	C	-1.260780	0.005997	-0.585532
C200	C	-0.927446	0.339330	-0.252198
C201	C	-0.594113	0.672663	0.081135
C202	C	-1.204145	0.064280	-0.555670
C203	C	-0.870812	0.397613	-0.222337
C204	C	-0.537479	0.730947	0.110997
C205	C	-1.301350	-0.035749	-0.536076
C206	C	-0.968016	0.297584	-0.202742
C207	C	-0.634683	0.630917	0.130591
C208	C	-1.285281	-0.019211	-0.456765
C209	C	-0.951948	0.314122	-0.123432
C210	C	-0.618615	0.647456	0.209901
C211	C	-1.188077	0.080818	-0.476360
C212	C	-0.854743	0.414152	-0.143026
C213	C	-0.521410	0.747485	0.190307
C214	C	-1.131525	0.139055	0.052907
C215	C	-0.798192	0.472388	0.386240
C216	C	-0.464859	0.805722	0.719573
C217	C	-1.114579	0.156443	0.137347
C218	C	-0.781246	0.489776	0.470681
C219	C	-0.447913	0.823109	0.804014
H220	H	-0.479089	0.118183	-0.173886
H221	H	-0.145756	0.451517	0.159447
H222	H	0.187578	0.784850	0.492780
H223	H	-0.716186	-0.005609	0.006635
H224	H	-0.382852	0.327725	0.339968
H225	H	-0.049519	0.661058	0.673301
Cl226	Cl	-1.372558	-0.109012	-0.573616
Cl227	Cl	-1.039224	0.224321	-0.240283
Cl228	Cl	-0.705891	0.557655	0.093050
H229	H	-0.756237	0.218232	-0.319774
H230	H	-0.422903	0.551566	0.013559
H231	H	-0.089570	0.884899	0.346893
H232	H	-1.141938	0.128266	-0.452054
H233	H	-0.808604	0.461599	-0.118721
H234	H	-0.475271	0.794932	0.214613
H235	H	-1.318313	-0.053204	-0.416502
H236	H	-0.984980	0.280129	-0.083169
H237	H	-0.651646	0.613462	0.250164
H238	H	-1.020231	0.253503	-0.600415
H239	H	-0.686898	0.586836	-0.267081
H240	H	-0.353565	0.920169	0.066252
Cl241	Cl	-0.877784	0.060504	-0.089771
Cl242	Cl	-0.544450	0.393837	0.243563
Cl243	Cl	-0.211117	0.727170	0.576896
Cl244	Cl	-1.303274	0.817108	-0.232057
Cl245	Cl	-0.969941	1.150441	0.101276
Cl246	Cl	-0.636607	1.483774	0.434610
H247	H	-1.065550	0.742057	-0.074011
H248	H	-0.732217	1.075390	0.259323
H249	H	-0.398884	1.408723	0.592656
Cl250	Cl	-0.970662	0.304530	-0.715943
Cl251	Cl	-0.637329	0.637863	-0.382610
Cl252	Cl	-0.303995	0.971196	-0.049277
Cl253	Cl	-1.039748	0.893428	-0.056823
Cl254	Cl	-0.706415	1.226762	0.276510
Cl255	Cl	-0.373081	1.560095	0.609843
H256	H	-1.065481	0.514549	-0.074004
H257	H	-0.732147	0.847882	0.259330
H258	H	-0.398814	1.181216	0.592663
H259	H	-1.201267	0.067241	-0.837521
H260	H	-0.867934	0.400574	-0.504188
H261	H	-0.534600	0.733908	-0.170854
Cl262	Cl	-1.086743	0.185105	-0.475558
Cl263	Cl	-0.753409	0.518438	-0.142224
Cl264	Cl	-0.420076	0.851772	0.191109
Cl265	Cl	-1.039577	0.378146	-0.056799
Cl266	Cl	-0.706244	0.711480	0.276534
Cl267	Cl	-0.372910	1.044813	0.609867
H268	H	-1.024913	0.248711	-0.873054
H269	H	-0.691579	0.582045	-0.539721
H270	H	-0.358246	0.915378	-0.206388
H271	H	-0.537729	0.151104	-0.221865
H272	H	-0.204396	0.484437	0.111468
H273	H	0.128938	0.817770	0.444802
Cl274	Cl	-1.256488	0.010417	-0.813998
Cl275	Cl	-0.923155	0.343750	-0.480664
Cl276	Cl	-0.589822	0.677084	-0.147331
H277	H	-1.322969	-0.057992	-0.689161
H278	H	-0.989635	0.275341	-0.355828
H279	H	-0.656302	0.608674	-0.022495
H280	H	-1.277300	0.453199	-0.214841
H281	H	-0.943966	0.786532	0.118492
H282	H	-0.610633	1.119866	0.451826
H283	H	-0.627470	0.201459	-0.295314
H284	H	-0.294136	0.534792	0.038019
H285	H	0.039197	0.868125	0.371352
Cl286	Cl	-0.600630	-0.039540	0.056119
Cl287	Cl	-0.267297	0.293793	0.389452
Cl288	Cl	0.066036	0.627127	0.722786
H289	H	-0.900121	0.198307	-0.290707
H290	H	-0.566788	0.531640	0.042626
H291	H	-0.233454	0.864973	0.375960
H292	H	-0.805908	0.044751	-0.066798
H293	H	-0.472575	0.378084	0.266535
H294	H	-0.139242	0.711418	0.599869
H295	H	-1.277259	0.324973	-0.214834
H296	H	-0.943925	0.658307	0.118500
H297	H	-0.610592	0.991640	0.451833
Cl298	Cl	-0.421607	-0.014751	0.019971
Cl299	Cl	-0.088274	0.318583	0.353304
Cl300	Cl	0.245059	0.651916	0.686638
H301	H	-1.277370	0.680710	-0.214855
H302	H	-0.944036	1.014043	0.118478
H303	H	-0.610703	1.347376	0.451811
