data_functionalizedCrystal
_audit_creation_method	'MofGen! by Chris Wilmer'
_symmetry_space_group_name_H-M	'P1'
_symmetry_Int_Tables_number	1
_symmetry_cell_setting	triclinic
loop_
_symmetry_equiv_pos_as_xyz
  x,y,z
_cell_length_a	17.077404
_cell_length_b	18.215405
_cell_length_c	17.077396
_cell_angle_alpha	89.968409
_cell_angle_beta	89.978556
_cell_angle_gamma	90.023132
loop_
_atom_site_label
_atom_site_type_symbol
_atom_site_fract_x
_atom_site_fract_y
_atom_site_fract_z
Zn1	Zn	1.200044	-0.293019	-0.443866
Zn2	Zn	1.199946	-0.416092	-0.312593
Zn3	Zn	1.068776	-0.293040	-0.312610
Zn4	Zn	1.068739	-0.416044	-0.443812
O5	O	1.134376	-0.354549	-0.378221
O6	O	1.309878	-0.309356	-0.426468
O7	O	1.182521	-0.399798	-0.202749
O8	O	1.086245	-0.190053	-0.330051
O9	O	1.309806	-0.399777	-0.330023
O10	O	1.182687	-0.190037	-0.426485
O11	O	1.086150	-0.309392	-0.202761
O12	O	0.958924	-0.309346	-0.329999
O13	O	1.086182	-0.399696	-0.553667
O14	O	0.958897	-0.399716	-0.426392
O15	O	1.182651	-0.309309	-0.553706
O16	O	1.182485	-0.519070	-0.329970
O17	O	1.086088	-0.519035	-0.426376
C18	C	0.930428	-0.354529	-0.378192
C19	C	0.843178	-0.354538	-0.378198
C20	C	0.467398	-0.307571	-0.428549
C21	C	0.549379	-0.307566	-0.428540
C22	C	0.590330	-0.354564	-0.378240
C23	C	0.549296	-0.401576	-0.327951
C24	C	0.467317	-0.401585	-0.327965
C25	C	0.720166	-0.401554	-0.327926
C26	C	0.802150	-0.401545	-0.327912
C27	C	0.802228	-0.307535	-0.428502
C28	C	0.720249	-0.307544	-0.428515
C29	C	0.679221	-0.354555	-0.378225
C30	C	1.134293	-0.545755	-0.378183
C31	C	1.134330	-0.627554	-0.378193
C32	C	1.184642	-0.815742	-0.328087
C33	C	1.184677	-0.892601	-0.328106
C34	C	1.084211	-0.892604	-0.428411
C35	C	1.084181	-0.815747	-0.428395
C36	C	1.134395	-0.777317	-0.378229
C37	C	1.134460	-0.931034	-0.378263
C38	C	1.134498	-1.014367	-0.378284
C39	C	1.134358	-0.693979	-0.378209
C40	C	1.339120	-0.354569	-0.378250
C41	C	1.426370	-0.354578	-0.378262
C42	C	1.134424	-0.354495	-0.582965
C43	C	1.134444	-0.354472	-0.670215
C44	C	1.134481	-0.162596	-0.378276
C45	C	1.134525	-0.080797	-0.378299
C46	C	1.184677	-0.307403	-0.711227
C47	C	1.184687	-0.307379	-0.793207
C48	C	1.134466	-0.354427	-0.834174
C49	C	1.084227	-0.401497	-0.793156
C50	C	1.084214	-0.401517	-0.711177
C51	C	1.084259	-0.401453	-0.964027
C52	C	1.084273	-0.401434	-1.046011
C53	C	1.184731	-0.307314	-1.046056
C54	C	1.184718	-0.307335	-0.964077
C55	C	1.134480	-0.354406	-0.923065
C56	C	1.134374	-0.354550	-0.174273
C57	C	1.134506	-0.354366	-0.087023
H58	H	0.835490	-0.439817	-0.286956
H59	H	0.582644	-0.439846	-0.287000
H60	H	1.225594	-0.923882	-0.287276
C61	C	1.239883	-0.773473	-0.272906
N62	N	1.281494	-0.741637	-0.231345
C63	C	1.028970	-0.934883	-0.483582
N64	N	0.987357	-0.966727	-0.525135
C65	C	1.028918	-0.773477	-0.483574
N66	N	0.987303	-0.741640	-0.525141
H67	H	1.225575	-0.269094	-0.677877
H68	H	1.225593	-0.269053	-0.826596
H69	H	0.835637	-0.269256	-0.469448
H70	H	0.434062	-0.269295	-0.469504
H71	H	1.043301	-0.439837	-0.677786
H72	H	1.043334	-0.439801	-0.826518
H73	H	0.686763	-0.439839	-0.286978
C74	C	0.594506	-0.255849	-0.483853
N75	N	0.628496	-0.216891	-0.525515
H76	H	1.225616	-0.269028	-0.930724
C77	C	0.422186	-0.453294	-0.272643
N78	N	0.388194	-0.492244	-0.230975
H79	H	1.225635	-0.268986	-1.079453
C80	C	1.029023	-0.453184	-1.091073
N81	N	0.987407	-0.492162	-1.125014
C82	C	1.028997	-0.453237	-0.918915
N83	N	0.987378	-0.492243	-0.884937
H84	H	0.686909	-0.269270	-0.469470
