data_functionalizedCrystal
_audit_creation_method	'MofGen! by Chris Wilmer'
_symmetry_space_group_name_H-M	'P1'
_symmetry_Int_Tables_number	1
_symmetry_cell_setting	triclinic
loop_
_symmetry_equiv_pos_as_xyz
  x,y,z
_cell_length_a	15.711784
_cell_length_b	11.792241
_cell_length_c	14.750778
_cell_angle_alpha	77.299438
_cell_angle_beta	106.520448
_cell_angle_gamma	101.891108
loop_
_atom_site_label
_atom_site_type_symbol
_atom_site_fract_x
_atom_site_fract_y
_atom_site_fract_z
O1	O	1.168572	0.606870	0.079871
O2	O	0.916501	0.520280	0.079863
O3	O	1.048652	0.400896	0.079860
O4	O	1.036421	0.726254	0.079873
O5	O	1.011236	0.434539	-0.079789
O6	O	0.879085	0.553923	-0.079787
O7	O	1.131156	0.640513	-0.079779
Zn8	Zn	0.999180	0.602559	-0.105131
Zn9	Zn	1.048477	0.558233	0.105215
O10	O	0.999005	0.759897	-0.079776
C11	C	0.865522	0.522957	0.000037
C12	C	0.769366	0.480795	0.000034
C13	C	0.643672	0.322071	0.000026
C14	C	0.734025	0.361700	0.000029
C15	C	0.714362	0.560308	0.000041
C16	C	0.624007	0.520695	0.000043
C17	C	0.588669	0.401576	0.000035
C18	C	0.569004	0.600200	0.000051
C19	C	0.478655	0.560590	0.000048
C20	C	0.443310	0.441476	0.000037
C21	C	0.498321	0.361966	0.000032
C22	C	0.604341	0.719320	0.000053
C23	C	0.549338	0.798825	0.000061
C24	C	0.458990	0.759214	0.000065
C25	C	0.423645	0.640100	0.000054
C26	C	0.403979	0.838724	0.000070
C27	C	0.313631	0.799115	0.000067
C28	C	0.333297	0.600491	0.000051
C29	C	1.029176	0.375114	0.000036
C30	C	1.026876	0.248163	0.000037
C31	C	1.022650	0.015726	0.000053
C32	C	1.024998	0.145070	0.000044
C33	C	1.182136	0.637836	0.000049
C34	C	1.278294	0.679996	0.000059
C35	C	1.018482	0.785678	0.000050
C36	C	1.020784	0.912628	0.000056
N37	N	1.082121	0.527974	0.248770
N38	N	0.965543	0.632813	-0.248686
C39	C	0.871539	0.717204	0.600592
C40	C	0.895138	0.696039	0.701090
C41	C	1.012380	0.590733	0.701051
C42	C	0.988794	0.611894	0.600550
C43	C	0.918373	0.675129	0.550329
C44	C	1.035628	0.569819	0.550287
C45	C	1.012041	0.590974	0.449795
C46	C	0.941620	0.654204	0.399566
C47	C	0.894785	0.696284	0.449837
C48	C	1.106045	0.506577	0.600511
C49	C	1.152879	0.464502	0.550247
C50	C	1.129296	0.485664	0.449754
C51	C	1.058875	0.548894	0.399525
C52	C	1.176131	0.443584	0.399483
C53	C	1.152543	0.464739	0.298991
C54	C	1.035288	0.570049	0.299033
H55	H	0.677908	0.751567	0.000051
H56	H	0.614901	0.225070	0.000030
Br57	Br	0.450355	0.200301	0.000021
H58	H	0.856993	0.730305	0.742010
H59	H	0.268845	0.863857	0.000070
Br60	Br	0.285330	0.438826	0.000040
Br61	Br	0.762328	0.721965	0.000051
Br62	Br	0.775976	0.803046	0.532428
Br63	Br	0.597304	0.960482	0.000071
Br64	Br	1.271967	0.358231	0.467652
Br65	Br	0.451945	1.000384	0.000067
H66	H	1.190680	0.430475	0.258067
H67	H	0.977949	0.621552	0.258141
H68	H	1.069717	0.539242	0.741953
Br69	Br	1.138048	0.477858	0.736895
H70	H	0.369741	0.409230	0.000026
H71	H	0.922413	0.671422	0.317739
Br72	Br	1.248739	0.379189	0.618413
Br73	Br	0.808670	0.253788	0.000014
Br74	Br	0.799222	0.782126	0.381673
