data_functionalizedCrystal
_audit_creation_method	'MofGen! by Chris Wilmer'
_symmetry_space_group_name_H-M	'P1'
_symmetry_Int_Tables_number	1
_symmetry_cell_setting	triclinic
loop_
_symmetry_equiv_pos_as_xyz
  x,y,z
_cell_length_a	19.077105
_cell_length_b	19.077119
_cell_length_c	12.759393
_cell_angle_alpha	87.742520
_cell_angle_beta	87.679907
_cell_angle_gamma	89.877594
loop_
_atom_site_label
_atom_site_type_symbol
_atom_site_fract_x
_atom_site_fract_y
_atom_site_fract_z
Zn1	Zn	1.062978	0.322936	-0.677013
Zn2	Zn	1.058142	0.440455	-0.508055
Zn3	Zn	0.945463	0.318242	-0.494023
Zn4	Zn	0.940698	0.435677	-0.676367
O5	O	1.001820	0.379328	-0.588865
O6	O	1.160667	0.342489	-0.660744
O7	O	1.043165	0.424278	-0.359173
O8	O	0.965069	0.220536	-0.512695
O9	O	1.157115	0.428830	-0.536611
O10	O	1.051407	0.223985	-0.647137
O11	O	0.960380	0.334489	-0.348864
O12	O	0.846500	0.329856	-0.512069
O13	O	0.956949	0.420687	-0.823473
O14	O	0.842999	0.416135	-0.646036
O15	O	1.046787	0.337856	-0.823948
O16	O	1.038546	0.538150	-0.535984
O17	O	0.952260	0.534640	-0.659642
C18	C	0.819253	0.371968	-0.577460
C19	C	0.741149	0.368837	-0.572607
C20	C	0.994380	0.561891	-0.599290
C21	C	0.991262	0.639995	-0.603789
C22	C	0.702649	0.412354	-0.639975
C23	C	0.629263	0.409403	-0.635419
C24	C	0.594378	0.362937	-0.563490
C25	C	0.632883	0.319415	-0.496120
C26	C	0.706269	0.322363	-0.500681
C27	C	0.375094	0.349291	-0.542385
C28	C	0.301703	0.346347	-0.537826
C29	C	0.298088	0.436335	-0.677128
C30	C	0.371475	0.439282	-0.681678
C31	C	0.409974	0.395757	-0.614312
N32	N	0.519365	0.359920	-0.558830
N33	N	0.484985	0.398771	-0.618978
C34	C	0.968903	1.079446	-0.636104
C35	C	0.971834	1.006059	-0.631865
C36	C	1.018257	0.971173	-0.565414
C37	C	1.061757	1.009679	-0.503206
C38	C	1.058830	1.083065	-0.507451
C39	C	1.031835	0.751887	-0.545825
C40	C	1.034758	0.678496	-0.541583
C41	C	0.944834	0.674881	-0.670244
C42	C	0.941908	0.748268	-0.674479
C43	C	0.985412	0.786768	-0.612274
N44	N	1.021251	0.896160	-0.561078
N45	N	0.982420	0.861780	-0.616618
C46	C	1.185100	0.386716	-0.600315
C47	C	1.263203	0.389865	-0.605194
C48	C	1.001876	0.379262	-0.862898
C49	C	1.001899	0.379234	-0.979674
C50	C	1.009283	1.196051	-0.578404
C51	C	1.012399	1.117946	-0.573898
C52	C	1.048682	0.336098	-1.034785
C53	C	1.048695	0.336068	-1.144508
C54	C	0.955141	0.422318	-1.144000
C55	C	0.955125	0.422343	-1.034279
C56	C	1.001808	0.379344	-0.315898
C57	C	1.001928	0.379179	-0.199119
H58	H	0.731047	0.450194	-0.698544
Cl59	Cl	0.896346	0.476512	-1.212654
Cl60	Cl	0.910535	1.123295	-0.719640
Cl61	Cl	0.896304	0.476573	-0.964991
Cl62	Cl	0.257849	0.287934	-0.447387
H63	H	0.406431	0.313855	-0.487522
Cl64	Cl	0.883555	0.792119	-0.758036
Cl65	Cl	1.107481	0.281901	-0.966142
H66	H	0.597919	0.444840	-0.690276
H67	H	0.604474	0.281578	-0.437558
Cl68	Cl	0.415325	0.497701	-0.772105
Cl69	Cl	0.890153	0.626478	-0.748446
H70	H	0.737615	0.286923	-0.445828
Cl71	Cl	0.917152	0.957662	-0.710075
Cl72	Cl	1.093113	0.634640	-0.458024
H73	H	1.067256	0.783224	-0.495170
Cl74	Cl	1.120122	0.965823	-0.419673
H75	H	1.094251	1.114411	-0.456799
Cl76	Cl	1.107515	0.281843	-1.213786
H77	H	0.266734	0.471769	-0.731975
