data_functionalizedCrystal
_audit_creation_method	'MofGen! by Chris Wilmer'
_symmetry_space_group_name_H-M	'P1'
_symmetry_Int_Tables_number	1
_symmetry_cell_setting	triclinic
loop_
_symmetry_equiv_pos_as_xyz
  x,y,z
_cell_length_a	11.026660
_cell_length_b	14.044209
_cell_length_c	10.065875
_cell_angle_alpha	99.590950
_cell_angle_beta	100.697712
_cell_angle_gamma	79.113606
loop_
_atom_site_label
_atom_site_type_symbol
_atom_site_fract_x
_atom_site_fract_y
_atom_site_fract_z
O1	O	1.670482	-0.393268	0.113536
O2	O	1.312193	-0.347223	0.113533
O3	O	1.485958	-0.231345	0.113515
O4	O	1.496717	-0.509146	0.113554
O5	O	1.452836	-0.253555	-0.113470
O6	O	1.279071	-0.369433	-0.113453
O7	O	1.637359	-0.415478	-0.113449
Zn8	Zn	1.452956	-0.395982	-0.149490
Zn9	Zn	1.496596	-0.366719	0.149573
O10	O	1.463594	-0.531356	-0.113431
C11	C	1.249502	-0.349833	0.000039
C12	C	1.112048	-0.324510	0.000037
C13	C	0.903745	-0.368268	0.000047
C14	C	1.045811	-0.394442	0.000048
C15	C	1.464689	-0.206333	0.000020
C16	C	1.450645	-0.098711	0.000014
C17	C	1.424974	0.098332	0.000025
C18	C	1.524579	0.138970	0.000028
C19	C	1.510295	0.248612	0.000034
C20	C	1.439256	-0.011320	0.000019
C21	C	1.700051	-0.412867	0.000047
C22	C	1.837507	-0.438189	0.000058
C23	C	1.484865	0.443631	0.000056
C24	C	1.498913	0.336007	0.000039
N25	N	1.423182	-0.415953	-0.353592
C26	C	1.486228	-0.373661	-0.421378
C27	C	1.463324	-0.389040	-0.578542
N28	N	1.526380	-0.346742	0.353676
H29	H	1.063601	-0.245256	0.000117
C30	C	1.685492	0.027568	0.116686
C31	C	1.654179	0.074783	0.000012
H32	H	1.765494	-0.012065	0.116665
H33	H	1.687356	0.075070	0.195831
H34	H	1.624867	-0.012336	0.116674
H35	H	1.714799	0.114692	0.000029
H36	H	1.652324	0.027274	-0.079154
C37	C	1.022808	-0.561071	0.000066
C38	C	1.111218	-0.501423	0.000059
H39	H	1.063190	-0.627116	0.000064
H40	H	0.984199	-0.540541	0.079217
H41	H	0.961086	-0.556021	-0.079093
H42	H	1.172935	-0.506468	0.079224
H43	H	1.149848	-0.521960	-0.079100
H44	H	1.557158	-0.326062	-0.363060
C45	C	1.298132	0.232544	0.116694
C46	C	1.295381	0.162518	0.000014
H47	H	1.218129	0.272181	0.116676
H48	H	1.319360	0.200514	0.195835
H49	H	1.358763	0.272438	0.116688
H50	H	1.234756	0.122619	0.000025
H51	H	1.274138	0.194551	-0.079147
C52	C	1.249186	-0.413918	-0.622850
C53	C	1.367554	-0.453293	-0.657256
H54	H	1.190064	-0.453581	-0.671453
H55	H	1.252023	-0.412021	-0.527571
H56	H	1.225189	-0.349452	-0.646215
H57	H	1.391556	-0.517757	-0.633881
H58	H	1.364720	-0.455200	-0.752556
H59	H	1.597313	-0.299140	-0.588011
C60	C	1.209049	-0.440828	-0.397905
C61	C	1.327417	-0.480202	-0.432311
H62	H	1.149927	-0.480491	-0.446508
H63	H	1.211886	-0.438931	-0.302626
H64	H	1.185052	-0.376362	-0.421270
H65	H	1.351419	-0.544666	-0.408936
H66	H	1.324583	-0.482110	-0.527611
H67	H	0.855276	-0.289030	0.000016
H68	H	0.885972	-0.517430	0.000061
