data_functionalizedCrystal
_audit_creation_method	'MofGen! by Chris Wilmer'
_symmetry_space_group_name_H-M	'P1'
_symmetry_Int_Tables_number	1
_symmetry_cell_setting	triclinic
loop_
_symmetry_equiv_pos_as_xyz
  x,y,z
_cell_length_a	14.519731
_cell_length_b	12.996460
_cell_length_c	17.699083
_cell_angle_alpha	90.007036
_cell_angle_beta	83.485934
_cell_angle_gamma	90.005673
loop_
_atom_site_label
_atom_site_type_symbol
_atom_site_fract_x
_atom_site_fract_y
_atom_site_fract_z
O1	O	1.223435	0.085571	0.099292
O2	O	0.954911	0.085573	0.110959
O3	O	1.096759	0.085563	-0.005042
O4	O	1.081586	0.085581	0.215292
O5	O	1.096744	-0.085571	-0.005048
O6	O	0.954896	-0.085561	0.110952
O7	O	1.223420	-0.085563	0.099285
Cu8	Cu	1.089157	-0.101188	0.105118
Cu9	Cu	1.089174	0.101198	0.105126
O10	O	1.081572	-0.085553	0.215286
C11	C	0.920546	0.000006	0.110409
C12	C	0.818173	0.000007	0.108771
C13	C	0.735035	0.000011	0.107440
C14	C	0.630733	0.000011	0.105776
C15	C	0.547599	0.000011	0.104456
C16	C	0.443291	0.000013	0.102793
N17	N	1.089151	-0.243535	0.105112
C18	C	1.089173	-0.663349	0.105127
C19	C	1.089164	-0.546544	0.105125
C20	C	1.089162	-0.453446	0.105120
C21	C	1.089153	-0.336633	0.105117
C22	C	1.257784	0.000006	0.099835
C23	C	1.360158	0.000013	0.101473
C24	C	1.096208	-0.000004	-0.033244
C25	C	1.094577	-0.000005	-0.117266
N26	N	1.089187	0.243545	0.105126
C27	C	1.177839	-0.000007	-0.165644
C28	C	1.176301	0.000003	-0.244592
C29	C	1.091500	0.000006	-0.275161
C30	C	1.008232	0.000011	-0.226777
C31	C	1.009771	0.000010	-0.147831
C32	C	1.002023	0.000020	-0.545158
C33	C	1.000491	0.000019	-0.624111
C34	C	1.168554	0.000013	-0.641919
C35	C	1.170093	0.000011	-0.562973
C36	C	1.086825	0.000022	-0.514596
C37	C	1.088493	0.000014	-0.428992
C38	C	1.089830	0.000007	-0.360763
C39	C	1.082123	0.000017	0.243488
C40	C	1.083754	0.000024	0.327510
H41	H	1.246894	-0.000016	-0.140761
H42	H	0.939185	0.000021	-0.251672
O43	O	1.257267	-0.000052	-0.291477
C44	C	1.332444	-0.000039	-0.247567
H45	H	1.308897	-0.032438	-0.188684
H46	H	1.358461	0.082059	-0.241902
C47	C	1.440144	-0.027369	-0.359120
C48	C	1.411226	-0.067169	-0.286800
H49	H	1.488744	-0.068773	-0.383322
H50	H	1.389497	-0.027374	-0.388704
H51	H	1.461819	0.041045	-0.354389
H52	H	1.389542	-0.135577	-0.291533
H53	H	1.461872	-0.067177	-0.257218
H54	H	0.931431	0.000020	-0.648996
H55	H	0.941970	0.000012	-0.108442
H56	H	1.239146	0.000003	-0.538088
O57	O	1.249358	0.000060	-0.689022
C58	C	1.229823	0.000041	-0.765258
H59	H	1.157398	0.032446	-0.768385
H60	H	1.233361	-0.082059	-0.788093
C61	C	1.390493	0.027353	-0.809622
C62	C	1.301542	0.067161	-0.813464
H63	H	1.434734	0.068751	-0.839359
H64	H	1.403655	0.027362	-0.758261
H65	H	1.393428	-0.041063	-0.828650
H66	H	1.298605	0.135570	-0.794427
H67	H	1.288381	0.067165	-0.864823
H68	H	0.934221	0.000028	-0.505779
