data_functionalizedCrystal
_audit_creation_method	'MofGen! by Chris Wilmer'
_symmetry_space_group_name_H-M	'P1'
_symmetry_Int_Tables_number	1
_symmetry_cell_setting	triclinic
loop_
_symmetry_equiv_pos_as_xyz
  x,y,z
_cell_length_a	10.654550
_cell_length_b	19.288865
_cell_length_c	18.366186
_cell_angle_alpha	90.011479
_cell_angle_beta	89.987444
_cell_angle_gamma	96.189425
loop_
_atom_site_label
_atom_site_type_symbol
_atom_site_fract_x
_atom_site_fract_y
_atom_site_fract_z
O1	O	1.665761	-0.097556	-0.060619
O2	O	1.300084	-0.106850	-0.060608
O3	O	1.493489	-0.001142	-0.060599
O4	O	1.472356	-0.203264	-0.060628
O5	O	1.493456	-0.001136	0.060500
O6	O	1.300051	-0.106845	0.060491
O7	O	1.665728	-0.097550	0.060481
Zn8	Zn	1.482884	-0.102196	0.079713
Zn9	Zn	1.482928	-0.102204	-0.079841
O10	O	1.472323	-0.203258	0.060472
C11	C	1.253284	-0.106165	-0.000057
C12	C	1.113884	-0.104123	-0.000052
N13	N	1.482864	-0.102191	0.188604
C14	C	1.492792	0.024742	-0.000047
C15	C	1.490751	0.101859	-0.000041
C16	C	1.033066	-0.166362	-0.000071
C17	C	0.902087	-0.164440	-0.000084
C18	C	0.932756	-0.038033	-0.000060
C19	C	1.063733	-0.039956	-0.000043
C20	C	1.015359	-0.239343	-0.000088
C21	C	0.884379	-0.237420	-0.000100
C22	C	1.712528	-0.098235	-0.000072
C23	C	1.851928	-0.100277	-0.000082
C24	C	1.473020	-0.229142	-0.000082
C25	C	1.475061	-0.306259	-0.000093
C26	C	1.604232	0.145812	-0.000041
C27	C	1.602315	0.218272	-0.000052
C28	C	1.486909	0.246775	-0.000049
C29	C	1.373413	0.202812	-0.000054
C30	C	1.375334	0.130354	-0.000049
C31	C	1.396176	0.355658	0.042372
C32	C	1.394260	0.428115	0.042372
C33	C	1.480980	0.470259	-0.000065
C34	C	1.569638	0.439939	-0.042494
C35	C	1.571559	0.367481	-0.042490
C36	C	1.484814	0.325343	-0.000054
C37	C	1.592390	0.592782	-0.000079
C38	C	1.590467	0.665243	-0.000095
C39	C	1.361562	0.649781	-0.000089
C40	C	1.363488	0.577322	-0.000080
C41	C	1.478905	0.548827	-0.000072
N42	N	1.482958	-0.102203	-0.188732
C43	C	1.568532	-0.055407	0.226708
C44	C	1.568540	-0.055404	0.302936
C45	C	1.482892	-0.102197	0.341057
C46	C	1.397208	-0.148985	0.302944
C47	C	1.397194	-0.148982	0.226717
C48	C	1.466081	-0.165375	0.461809
C49	C	1.466104	-0.165379	0.538034
C50	C	1.482928	-0.102206	0.576164
C51	C	1.499755	-0.039027	0.538061
C52	C	1.499741	-0.039024	0.461835
C53	C	1.482897	-0.102205	0.423712
C54	C	1.568609	-0.055415	0.696924
C55	C	1.568608	-0.055411	0.773153
C56	C	1.397282	-0.148998	0.773159
C57	C	1.397277	-0.148996	0.696931
C58	C	1.482947	-0.102205	0.658818
H59	H	1.129532	0.010725	-0.000017
H60	H	1.267597	0.672988	-0.000090
H61	H	1.282921	0.094566	-0.000049
Cl62	Cl	1.289601	-0.207818	0.821076
Cl63	Cl	1.733144	0.720500	-0.000099
Cl64	Cl	1.228332	0.238643	-0.000056
Cl65	Cl	1.069673	-0.275223	-0.080813
Cl66	Cl	1.059689	-0.283408	0.078152
H67	H	1.686369	0.569580	-0.000075
Cl68	Cl	1.744988	0.273538	-0.000053
Cl69	Cl	0.819050	-0.279875	-0.078355
H70	H	1.327523	-0.187095	0.665904
H71	H	1.638303	-0.017305	0.333966
Cl72	Cl	1.520881	0.040398	0.413935
H73	H	0.891906	0.014210	-0.000064
Cl74	Cl	1.676300	0.003411	0.649009
H75	H	0.838221	-0.259473	0.052179
H76	H	1.327432	-0.187080	0.195692
Cl77	Cl	1.445047	-0.244803	0.413881
Cl78	Cl	1.520916	0.040396	0.585988
H79	H	1.698214	0.122617	-0.000036
H80	H	1.643745	0.342797	-0.077038
Cl81	Cl	1.289531	-0.207808	0.350865
Cl82	Cl	1.678664	0.492912	-0.095849
Cl83	Cl	1.220817	0.522064	-0.000077
H84	H	1.638365	-0.017309	0.804178
H85	H	1.452410	-0.216823	0.569052
H86	H	1.322064	0.452796	0.076916
H87	H	1.638286	-0.017306	0.195679
Cl88	Cl	1.287148	0.302684	0.095730
