data_functionalizedCrystal
_audit_creation_method	'MofGen! by Chris Wilmer'
_symmetry_space_group_name_H-M	'P1'
_symmetry_Int_Tables_number	1
_symmetry_cell_setting	triclinic
loop_
_symmetry_equiv_pos_as_xyz
  x,y,z
_cell_length_a	13.262508
_cell_length_b	19.188933
_cell_length_c	12.376457
_cell_angle_alpha	78.746972
_cell_angle_beta	116.815184
_cell_angle_gamma	83.815106
loop_
_atom_site_label
_atom_site_type_symbol
_atom_site_fract_x
_atom_site_fract_y
_atom_site_fract_z
O1	O	0.118707	0.934939	-0.057467
O2	O	0.137588	0.730893	-0.051672
O3	O	-0.035461	0.845164	-0.104868
O4	O	0.291755	0.820668	-0.004271
O5	O	0.007743	0.816608	0.096425
O6	O	0.180791	0.702337	0.149621
O7	O	0.161910	0.906383	0.143826
Zn8	Zn	0.178210	0.799826	0.178683
Zn9	Zn	0.121288	0.837450	-0.086529
O10	O	0.334958	0.792113	0.197022
C11	C	0.158577	0.690628	0.048785
C12	C	0.156740	0.613196	0.048216
C13	C	0.120083	0.076016	-0.065526
C14	C	0.121801	0.148774	-0.065002
C15	C	0.146216	0.169591	0.044988
C16	C	0.168885	0.117647	0.154454
C17	C	0.167155	0.044893	0.153924
N18	N	0.230406	0.264425	0.147155
N19	N	0.232050	0.333540	0.147652
C20	C	0.151427	0.388796	0.046592
N21	N	0.069109	0.372328	-0.054997
N22	N	0.067469	0.303207	-0.055496
C23	C	0.148094	0.248480	0.045576
C24	C	0.130614	0.519624	-0.062301
C25	C	0.132326	0.592383	-0.061775
C26	C	0.179423	0.561254	0.157688
C27	C	0.177699	0.488498	0.157155
C28	C	0.153299	0.467687	0.047159
C29	C	-0.055723	0.832139	-0.017094
C30	C	-0.180463	0.835864	-0.055451
C31	C	-0.437894	0.784095	0.275342
C32	C	-0.320693	0.780590	0.311381
C33	C	-0.285630	0.794408	0.219676
C34	C	-0.367779	0.811732	0.091926
C35	C	-0.484990	0.815233	0.055883
C36	C	-0.332726	0.825545	0.000218
C37	C	-0.414875	0.842870	-0.127533
C38	C	-0.532074	0.846370	-0.163569
C39	C	-0.567138	0.832551	-0.071864
C40	C	-0.215514	0.822045	0.036261
C41	C	-0.262610	0.853182	-0.183198
C42	C	-0.379811	0.856688	-0.219238
C43	C	0.355220	0.805138	0.109246
C44	C	0.479958	0.801414	0.147594
C45	C	0.140920	0.946648	0.043367
C46	C	0.142756	1.024082	0.043927
N47	N	0.217057	0.774155	0.359683
N48	N	0.082432	0.863128	-0.267532
C49	C	-0.007767	0.922721	0.645556
C50	C	-0.034957	0.940685	0.518858
C51	C	0.028044	0.899054	0.479058
C52	C	0.118240	0.839456	0.565969
C53	C	0.145438	0.821494	0.692681
C54	C	0.181249	0.797826	0.526183
C55	C	0.271445	0.738229	0.613094
C56	C	0.298637	0.720269	0.739793
C57	C	0.235637	0.761900	0.779593
C58	C	0.154051	0.815789	0.399470
C59	C	0.307256	0.714561	0.446595
C60	C	0.334445	0.696597	0.573293
H61	H	0.100210	0.059078	-0.155095
H62	H	0.358559	0.680662	0.414193
H63	H	-0.662571	0.835408	-0.101202
H64	H	0.005902	0.913683	0.375894
H65	H	0.103344	0.191065	-0.154133
O66	O	0.106970	0.499275	-0.169027
C67	C	0.110284	0.423925	-0.146032
H68	H	0.165857	0.396268	-0.040868
H69	H	0.149130	0.399551	-0.199544
H70	H	0.018549	0.415026	-0.179090
H71	H	-0.253816	0.766492	0.415395
O72	O	0.066303	0.873575	0.314927
C73	C	-0.018602	0.849356	0.220460
H74	H	0.022348	0.795598	0.215290
H75	H	-0.055730	0.891863	0.125837
H76	H	-0.091081	0.841025	0.243862
O77	O	-0.472081	0.770598	0.364299
C78	C	-0.525424	0.710719	0.354030
H79	H	-0.559071	0.704432	0.254699
H80	H	-0.600816	0.720306	0.374211
H81	H	-0.459524	0.658999	0.424876
H82	H	-0.598958	0.860470	-0.267592
H83	H	0.372088	0.671746	0.810560
O84	O	-0.459467	0.873532	-0.343386
C85	C	-0.403393	0.884949	-0.416606
H86	H	-0.317716	0.900196	-0.360234
H87	H	-0.461040	0.931004	-0.506026
H88	H	-0.386082	0.832881	-0.442768
O89	O	-0.228428	0.866468	-0.272193
C90	C	-0.149067	0.804385	-0.253905
H91	H	-0.106705	0.770049	-0.151884
H92	H	-0.079555	0.822194	-0.275952
H93	H	-0.196766	0.770709	-0.319089
O94	O	-0.122637	0.998575	0.434592
C95	C	-0.172395	1.031479	0.496891
H96	H	-0.154166	0.990098	0.586862
H97	H	-0.270036	1.050997	0.432679
H98	H	-0.133220	1.079948	0.521508
H99	H	0.185623	0.002606	0.243058
H100	H	-0.059049	0.956615	0.677974
O101	O	0.192409	0.137855	0.261268
C102	C	0.109025	0.122484	0.297988
H103	H	0.026766	0.119901	0.212728
H104	H	0.088184	0.167263	0.338066
H105	H	0.144697	0.067862	0.372863
H106	H	0.257770	0.747273	0.882759
H107	H	0.407885	0.648072	0.644071
H108	H	0.199298	0.578203	0.247243
O109	O	0.110321	0.642737	-0.168199
C110	C	0.088388	0.608766	-0.265399
H111	H	0.129630	0.547996	-0.222669
H112	H	0.126966	0.634009	-0.325213
H113	H	-0.009165	0.616823	-0.326912
H114	H	0.196165	0.446210	0.246285
O115	O	-0.171743	0.791009	0.254895
C116	C	-0.106751	0.772738	0.387314
H117	H	-0.165721	0.788219	0.427221
H118	H	-0.034211	0.803626	0.415854
H119	H	-0.067768	0.711598	0.425944
O120	O	-0.135807	0.805116	0.160392
C121	C	-0.137088	0.735530	0.222320
H122	H	-0.224542	0.722177	0.166282
H123	H	-0.122485	0.735114	0.320571
H124	H	-0.065273	0.693030	0.230186
