data_functionalizedCrystal
_audit_creation_method	'MofGen! by Chris Wilmer'
_symmetry_space_group_name_H-M	'P1'
_symmetry_Int_Tables_number	1
_symmetry_cell_setting	triclinic
loop_
_symmetry_equiv_pos_as_xyz
  x,y,z
_cell_length_a	12.759401
_cell_length_b	19.805405
_cell_length_c	12.759386
_cell_angle_alpha	90.068455
_cell_angle_beta	90.041090
_cell_angle_gamma	90.026572
loop_
_atom_site_label
_atom_site_type_symbol
_atom_site_fract_x
_atom_site_fract_y
_atom_site_fract_z
Zn1	Zn	1.606404	-0.269214	0.593938
Zn2	Zn	1.606193	-0.382480	0.418239
Zn3	Zn	1.430637	-0.269311	0.418277
Zn4	Zn	1.430659	-0.382367	0.593881
O5	O	1.518473	-0.325843	0.506084
O6	O	1.753397	-0.284246	0.570639
O7	O	1.582808	-0.367556	0.271223
O8	O	1.454032	-0.174581	0.441618
O9	O	1.753242	-0.367462	0.441554
O10	O	1.583167	-0.174511	0.570676
O11	O	1.453827	-0.284411	0.271251
O12	O	1.283619	-0.284301	0.441563
O13	O	1.454069	-0.367270	0.740910
O14	O	1.283635	-0.367363	0.570579
O15	O	1.583189	-0.284137	0.740952
O16	O	1.582829	-0.477182	0.441499
O17	O	1.453865	-0.477099	0.570542
C18	C	1.245506	-0.325831	0.506069
C19	C	1.128729	-0.325842	0.506088
C20	C	1.073903	-0.369161	0.573155
C21	C	0.964179	-0.369170	0.573167
C22	C	0.964117	-0.282537	0.439035
C23	C	1.073839	-0.282526	0.439030
C24	C	1.073938	-0.419180	0.650592
C25	C	0.964214	-0.419189	0.650604
C26	C	1.518355	-0.501699	0.506033
C27	C	1.518401	-0.576931	0.506046
C28	C	1.585618	-0.612296	0.438924
C29	C	1.585662	-0.682984	0.438947
C30	C	1.518484	-0.718307	0.506088
C31	C	1.451264	-0.682937	0.573218
C32	C	1.451225	-0.612250	0.573199
C33	C	1.451419	-0.968010	0.573296
C34	C	1.451460	-1.038702	0.573307
C35	C	1.585856	-1.038745	0.439044
C36	C	1.585817	-0.968058	0.439025
C37	C	1.518602	-0.932694	0.506158
C38	C	1.518556	-0.856046	0.506134
C39	C	1.518524	-0.794954	0.506108
C40	C	1.792507	-0.325856	0.506099
C41	C	1.909283	-0.325862	0.506105
C42	C	1.518621	-0.149300	0.506158
C43	C	1.518683	-0.074068	0.506189
C44	C	1.518353	-0.325957	0.233116
C45	C	1.518479	-0.325836	0.116340
C46	C	1.450900	-0.282808	0.061542
C47	C	1.451029	-0.282694	-0.048182
C48	C	1.586319	-0.368640	-0.048300
C49	C	1.586194	-0.368750	0.061422
C50	C	1.372789	-0.233190	0.061609
C51	C	1.372918	-0.233075	-0.048115
C52	C	1.518655	-0.325680	0.780117
C53	C	1.518733	-0.325610	0.896894
H54	H	1.103783	-0.405173	0.732001
C55	C	1.659517	-0.573444	0.365067
C56	C	1.650971	-0.583275	0.245626
C57	C	1.724875	-0.544425	0.171769
C58	C	1.807324	-0.495745	0.217354
C59	C	1.815873	-0.485912	0.336801
C60	C	1.741969	-0.524762	0.410658
H61	H	1.589935	-0.619313	0.211875
H62	H	1.718546	-0.551704	0.083346
H63	H	1.862032	-0.466986	0.162681
H64	H	1.876910	-0.449874	0.370551
H65	H	1.748298	-0.517483	0.499081
H66	H	1.396571	-0.711702	0.627890
C67	C	1.377566	-1.077558	0.647174
C68	C	1.303634	-1.038662	0.721022
C69	C	1.229744	-1.077519	0.794883
C70	C	1.229785	-1.155272	0.794896
C71	C	1.303719	-1.194173	0.721044
C72	C	1.377610	-1.155316	0.647183
H73	H	1.303601	-0.981101	0.721016
H74	H	1.175012	-1.048721	0.849553
H75	H	1.175087	-1.184036	0.849572
H76	H	1.303752	-1.251734	0.721051
H77	H	1.432341	-1.184113	0.592514
C78	C	0.903735	-0.234895	0.365268
C79	C	0.783045	-0.234903	0.365272
C80	C	0.722666	-0.187260	0.291503
C81	C	0.782977	-0.139608	0.217729
C82	C	0.903673	-0.139599	0.217722
C83	C	0.964053	-0.187242	0.291492
H84	H	0.738393	-0.270179	0.419886
H85	H	0.633318	-0.187267	0.291508
H86	H	0.738280	-0.104340	0.163120
H87	H	0.948325	-0.104323	0.163108
H88	H	1.053401	-0.187234	0.291486
H89	H	1.640516	-0.939300	0.384349
H90	H	1.396492	-0.583456	0.627859
H91	H	1.640590	-1.067546	0.384384
H92	H	1.396688	-0.939223	0.627956
C93	C	1.660792	-0.415851	-0.108712
C94	C	1.660932	-0.415733	-0.229402
C95	C	1.735403	-0.462947	-0.289812
C96	C	1.809735	-0.510280	-0.229532
C97	C	1.809598	-0.510400	-0.108836
C98	C	1.735127	-0.463185	-0.048426
H99	H	1.605904	-0.380692	-0.274031
H100	H	1.735504	-0.462858	-0.379159
H101	H	1.864863	-0.545231	-0.274251
H102	H	1.864625	-0.545440	-0.064207
H103	H	1.735026	-0.463274	0.040922
C104	C	1.401444	-0.162282	0.102203
C105	C	1.424677	-0.105005	0.024070
C106	C	1.453333	-0.034099	0.064665
C107	C	1.458755	-0.020470	0.183392
C108	C	1.435520	-0.077748	0.261532
C109	C	1.406865	-0.148654	0.220938
H110	H	1.420664	-0.115093	-0.063825
H111	H	1.470532	0.008302	0.006820
H112	H	1.479967	0.032019	0.213443
H113	H	1.439533	-0.067660	0.349428
H114	H	1.389665	-0.191055	0.278783
H115	H	1.401578	-0.183108	-0.081877
H116	H	0.934393	-0.471605	0.628663
H117	H	1.640396	-0.711775	0.384288
C118	C	1.268583	-0.259081	0.107282
C119	C	1.267503	-0.321881	0.178319
C120	C	1.163295	-0.347772	0.223988
C121	C	1.060168	-0.310865	0.198619
C122	C	1.061244	-0.248061	0.127578
C123	C	1.165452	-0.222170	0.081909
H124	H	1.343848	-0.349205	0.197101
H125	H	1.162499	-0.394263	0.276577
H126	H	0.983027	-0.330031	0.232426
H127	H	0.984900	-0.220737	0.108796
H128	H	1.166248	-0.175679	0.029320
C129	C	1.119861	-0.486428	0.611030
C130	C	1.094438	-0.511448	0.499554
C131	C	1.140361	-0.578696	0.459989
C132	C	1.211706	-0.620924	0.531901
C133	C	1.237132	-0.595905	0.643383
C134	C	1.191210	-0.528657	0.682948
H135	H	1.041621	-0.480188	0.446315
H136	H	1.121538	-0.597217	0.377462
H137	H	1.245701	-0.670705	0.502613
H138	H	1.289950	-0.627166	0.696623
H139	H	1.210032	-0.510137	0.765475
C140	C	0.918323	-0.393876	0.755100
C141	C	0.992044	-0.372177	0.844631
C142	C	0.946150	-0.346862	0.949122
C143	C	0.826535	-0.343246	0.964082
C144	C	0.752806	-0.364947	0.874548
C145	C	0.798700	-0.390262	0.770057
H146	H	1.080597	-0.374853	0.833559
H147	H	1.000729	-0.330798	1.015400
H148	H	0.792561	-0.324507	1.041432
H149	H	0.664254	-0.362271	0.885620
H150	H	0.744121	-0.406325	0.703779
H151	H	1.118474	-0.247246	0.384424
H152	H	1.641232	-0.403782	0.106034
H153	H	1.291728	-0.247458	-0.078106
