data_functionalizedCrystal
_audit_creation_method	'MofGen! by Chris Wilmer'
_symmetry_space_group_name_H-M	'P1'
_symmetry_Int_Tables_number	1
_symmetry_cell_setting	triclinic
loop_
_symmetry_equiv_pos_as_xyz
  x,y,z
_cell_length_a	13.339070
_cell_length_b	10.868271
_cell_length_c	11.792241
_cell_angle_alpha	90.005281
_cell_angle_beta	80.088642
_cell_angle_gamma	89.994460
loop_
_atom_site_label
_atom_site_type_symbol
_atom_site_fract_x
_atom_site_fract_y
_atom_site_fract_z
O1	O	-1.345408	0.102401	0.569978
O2	O	-1.050471	0.102387	0.495165
O3	O	-1.205097	0.102386	0.369605
O4	O	-1.190782	0.102402	0.695537
O5	O	-1.205084	-0.102259	0.369595
O6	O	-1.050458	-0.102258	0.495154
O7	O	-1.345396	-0.102243	0.569967
Zn8	Zn	-1.197925	-0.134742	0.532559
Zn9	Zn	-1.197942	0.134886	0.532573
O10	O	-1.190770	-0.102242	0.695527
C11	C	-1.012706	0.000062	0.482522
C12	C	-0.900198	0.000057	0.444853
N13	N	-1.197921	-0.318757	0.532551
C14	C	-0.537011	0.000082	0.737747
C15	C	-0.642718	0.000092	0.773143
C16	C	-0.707093	0.000083	0.691073
C17	C	-0.665751	0.000065	0.573602
C18	C	-0.560034	0.000065	0.538203
C19	C	-0.730116	0.000065	0.491529
C20	C	-0.688774	0.000047	0.374059
C21	C	-0.583067	0.000047	0.338666
C22	C	-0.518692	0.000056	0.420735
C23	C	-0.835833	0.000065	0.526928
C24	C	-0.858855	0.000048	0.327385
C25	C	-0.753149	0.000038	0.291989
C26	C	-1.197937	-0.569763	0.532569
C27	C	-1.197925	-0.430085	0.532561
C28	C	-0.383161	0.000078	0.582610
C29	C	-0.495669	0.000073	0.620279
C30	C	-1.204192	0.000064	0.327032
C31	C	-1.201500	0.000065	0.200189
N32	N	-1.197954	0.318900	0.532575
C33	C	-1.196551	0.000085	-0.032047
C34	C	-1.199301	0.000074	0.097185
C35	C	-1.191675	0.000082	0.738100
C36	C	-1.194367	0.000089	0.864942
H37	H	-0.869483	0.000074	0.622574
H38	H	-0.676371	0.000116	0.868787
H39	H	-0.793164	0.000093	0.719899
O40	O	-0.928277	0.000022	0.238856
H41	H	-0.977009	0.083423	0.250217
O42	O	-0.467584	0.000082	0.826258
H43	H	-0.387133	0.000070	0.781905
O44	O	-0.538478	0.000023	0.211965
H45	H	-0.564304	0.083420	0.170913
H46	H	-0.432615	0.000048	0.391922
O47	O	-0.708556	0.000026	0.165290
H48	H	-0.624235	0.000034	0.154471
