data_functionalizedCrystal
_audit_creation_method	'MofGen! by Chris Wilmer'
_symmetry_space_group_name_H-M	'P1'
_symmetry_Int_Tables_number	1
_symmetry_cell_setting	triclinic
loop_
_symmetry_equiv_pos_as_xyz
  x,y,z
_cell_length_a	13.032831
_cell_length_b	14.908520
_cell_length_c	13.032328
_cell_angle_alpha	99.984706
_cell_angle_beta	90.887223
_cell_angle_gamma	86.522975
loop_
_atom_site_label
_atom_site_type_symbol
_atom_site_fract_x
_atom_site_fract_y
_atom_site_fract_z
Zn1	Zn	1.453336	-0.608111	-0.815704
Zn2	Zn	1.465121	-0.742277	-0.651420
Zn3	Zn	1.305988	-0.570498	-0.619789
Zn4	Zn	1.271730	-0.737406	-0.801264
O5	O	1.374044	-0.664573	-0.722044
O6	O	1.597500	-0.643689	-0.813192
O7	O	1.463281	-0.705787	-0.502522
O8	O	1.334939	-0.449487	-0.638584
O9	O	1.606158	-0.742260	-0.692493
O10	O	1.443195	-0.477121	-0.782521
O11	O	1.346366	-0.579582	-0.479284
O12	O	1.158843	-0.574859	-0.624582
O13	O	1.276551	-0.733957	-0.947881
O14	O	1.133673	-0.697485	-0.757911
O15	O	1.409976	-0.638965	-0.958490
O16	O	1.430062	-0.867631	-0.678491
O17	O	1.287978	-0.864052	-0.788581
C18	C	1.109283	-0.631562	-0.686248
C19	C	0.996012	-0.617464	-0.670960
C20	C	0.933093	-0.671931	-0.730023
C21	C	0.816022	-0.657361	-0.714224
C22	C	1.356606	-0.898518	-0.735428
C23	C	1.349235	-0.998615	-0.741201
C24	C	1.483455	-1.190402	-0.637536
C25	C	1.476533	-1.284452	-0.642957
C26	C	1.328474	-1.280770	-0.757469
C27	C	1.335396	-1.186720	-0.752048
C28	C	1.412888	-1.141539	-0.692078
C29	C	1.419805	-1.047485	-0.686652
C30	C	1.271751	-1.043806	-0.801169
C31	C	1.264829	-1.137856	-0.806591
C32	C	1.639838	-0.697713	-0.757981
C33	C	1.753104	-0.711836	-0.773295
C34	C	1.338128	-0.690114	-0.991754
C35	C	1.322823	-0.700997	-1.106689
C36	C	1.391574	-0.429720	-0.708635
C37	C	1.399044	-0.329640	-0.702920
C38	C	1.366211	-0.670105	-1.281972
C39	C	1.382025	-0.658848	-1.163180
C40	C	1.409883	-0.639074	-0.453388
C41	C	1.425405	-0.627961	-0.338466
H42	H	0.963208	-0.560044	-0.608700
H43	H	1.546546	-1.153613	-0.588698
H44	H	1.482901	-1.010699	-0.637818
H45	H	1.533998	-1.324234	-0.598545
O46	O	1.508048	-0.569133	-1.286047
H47	H	1.493113	-0.498229	-1.300318
O48	O	1.244888	-1.329505	-0.822134
H49	H	1.251928	-1.403111	-0.816729
O50	O	1.181239	-1.186585	-0.871255
H51	H	1.188272	-1.260192	-0.865853
O52	O	1.195634	-0.991107	-0.860008
H53	H	1.213466	-0.918117	-0.846170
H54	H	0.965897	-0.729345	-0.792290
O55	O	1.283563	-0.728934	-1.334381
H56	H	1.284113	-0.728545	-1.419461
H57	H	1.444410	-0.614426	-1.123605
H58	H	1.260423	-0.745405	-1.146260
O59	O	0.772592	-0.581311	-0.631722
H60	H	0.687456	-0.581812	-0.632245
H61	H	0.785901	-0.769253	-0.835569
