data_functionalizedCrystal
_audit_creation_method	'MofGen! by Chris Wilmer'
_symmetry_space_group_name_H-M	'P1'
_symmetry_Int_Tables_number	1
_symmetry_cell_setting	triclinic
loop_
_symmetry_equiv_pos_as_xyz
  x,y,z
_cell_length_a	16.992694
_cell_length_b	10.723023
_cell_length_c	15.455313
_cell_angle_alpha	87.308446
_cell_angle_beta	92.857794
_cell_angle_gamma	87.567885
loop_
_atom_site_label
_atom_site_type_symbol
_atom_site_fract_x
_atom_site_fract_y
_atom_site_fract_z
O1	O	1.045219	0.259622	0.072019
O2	O	0.816919	0.256716	0.072044
O3	O	0.936335	0.077046	0.072027
O4	O	0.925803	0.439291	0.072036
O5	O	0.929506	0.087275	-0.072234
O6	O	0.810090	0.266945	-0.072217
O7	O	1.038390	0.269851	-0.072242
Cu8	Cu	0.923616	0.269332	-0.085402
Cu9	Cu	0.931693	0.257235	0.085204
O10	O	0.918974	0.449520	-0.072225
C11	C	0.784272	0.258094	-0.000083
C12	C	0.697168	0.246945	-0.000073
C13	C	0.647506	0.354505	-0.000071
C14	C	0.565663	0.344024	-0.000084
C15	C	0.533483	0.225982	-0.000091
C16	C	0.583152	0.118414	-0.000096
C17	C	0.664993	0.128896	-0.000090
C18	C	0.289651	0.182535	-0.000116
C19	C	0.207803	0.172061	-0.000119
C20	C	0.190320	0.397673	-0.000108
C21	C	0.272164	0.408144	-0.000097
C22	C	0.321825	0.300577	-0.000106
N23	N	0.449826	0.215266	-0.000101
N24	N	0.405480	0.311295	-0.000103
C25	C	0.932154	0.035595	-0.000102
C26	C	0.929862	-0.103157	-0.000099
C27	C	0.932377	-0.170310	0.074634
C28	C	0.930007	-0.313717	0.074639
C29	C	1.071037	0.268473	-0.000113
C30	C	1.158141	0.279621	-0.000117
C31	C	0.923155	0.490971	-0.000094
C32	C	0.925448	0.629723	-0.000091
N33	N	0.917942	0.277840	-0.205396
C34	C	0.968692	0.201542	-0.250798
C35	C	0.964408	0.207989	-0.341605
C36	C	0.909377	0.290741	-0.387009
C37	C	0.858621	0.367042	-0.341602
C38	C	0.862902	0.360588	-0.250796
C39	C	0.890899	0.318565	-0.658588
C40	C	0.886623	0.325015	-0.749400
C41	C	0.992409	0.165960	-0.749397
C42	C	0.996688	0.159518	-0.658590
C43	C	0.945930	0.235815	-0.613190
N44	N	0.904998	0.297335	-0.479829
N45	N	0.950306	0.229213	-0.520372
N46	N	0.937373	0.248717	0.205198
H47	H	0.705428	0.041309	-0.000091
H48	H	0.932161	-0.371447	0.138620
C49	C	0.879602	0.479519	-0.556473
C50	C	0.835116	0.402451	-0.608696
H51	H	0.845162	0.531308	-0.525667
H52	H	0.910826	0.530215	-0.591890
H53	H	0.912978	0.429297	-0.516433
H54	H	0.801744	0.452673	-0.648740
H55	H	0.803878	0.351750	-0.573275
C56	C	0.233301	-0.049905	-0.000138
C57	C	0.172430	0.042298	-0.000129
H58	H	0.211460	-0.130008	-0.000147
H59	H	0.267234	-0.044699	0.050165
H60	H	0.262481	-0.037549	-0.050449
H61	H	0.143252	0.029947	0.050185
H62	H	0.138482	0.037088	-0.050438
H63	H	0.525231	0.431612	-0.000081
C64	C	1.035994	-0.043553	-0.777363
C65	C	1.048190	0.082083	-0.799303
H66	H	1.070433	-0.095339	-0.808170
H67	H	0.982868	-0.061305	-0.792255
H68	H	1.046422	-0.059221	-0.716784
H69	H	1.037756	0.097753	-0.859882
H70	H	1.101329	0.099842	-0.784417
H71	H	0.925949	-0.151833	-0.064077
C72	C	0.747193	0.390644	-0.443742
C73	C	0.798131	0.458003	-0.391512
H74	H	0.709853	0.446805	-0.474557
H75	H	0.720367	0.333330	-0.408328
H76	H	0.776817	0.346131	-0.483773
H77	H	0.768508	0.502509	-0.351477
H78	H	0.824959	0.515339	-0.426930
C79	C	0.856233	-0.209748	-0.091199
C80	C	0.922541	-0.292361	-0.086473
H81	H	0.854438	-0.161645	-0.144530
H82	H	0.859409	-0.155682	-0.044321
H83	H	0.809882	-0.255895	-0.087967
H84	H	0.968893	-0.246213	-0.089699
H85	H	0.919372	-0.346433	-0.133364
H86	H	0.330075	0.094946	-0.000124
C87	C	1.072819	0.044962	-0.259925
C88	C	1.029183	0.110574	-0.200894
H89	H	1.110160	-0.011205	-0.229117
H90	H	1.099646	0.102288	-0.295330
H91	H	1.038244	-0.000711	-0.295354
H92	H	1.063758	0.156255	-0.165469
H93	H	1.002355	0.053240	-0.165474
H94	H	0.556944	0.022302	-0.000115
C95	C	0.975727	0.047030	-0.443724
C96	C	1.020200	0.124120	-0.391504
H97	H	1.010175	-0.004755	-0.474522
H98	H	0.942349	0.097228	-0.483762
H99	H	0.944506	-0.003680	-0.408299
H100	H	1.051417	0.174837	-0.426930
H101	H	1.053592	0.073916	-0.351462
C102	C	1.107798	0.135078	-0.555953
C103	C	1.056812	0.068193	-0.608452
H104	H	1.144810	0.078591	-0.524936
H105	H	1.078157	0.179906	-0.516109
H106	H	1.135014	0.192083	-0.591216
H107	H	1.029590	0.011194	-0.573189
H108	H	1.086456	0.023344	-0.648301
H109	H	0.936282	-0.121633	0.138612
C110	C	0.782462	0.481560	-0.740287
C111	C	0.826117	0.415964	-0.799311
H112	H	0.745107	0.537696	-0.771102
H113	H	0.817017	0.527256	-0.704864
H114	H	0.755645	0.424212	-0.704875
H115	H	0.852939	0.473312	-0.834719
H116	H	0.791557	0.370267	-0.834749
C117	C	0.757916	0.518467	-0.259914
C118	C	0.807120	0.444464	-0.200887
H119	H	0.723480	0.570251	-0.229101
H120	H	0.727751	0.466175	-0.295339
H121	H	0.789150	0.569178	-0.295324
H122	H	0.775886	0.393745	-0.165482
H123	H	0.837287	0.496761	-0.165448
C124	C	0.350594	0.556081	-0.074202
C125	C	0.307552	0.537886	-0.000063
H126	H	0.372450	0.636172	-0.074165
H127	H	0.316661	0.550922	-0.124512
H128	H	0.391871	0.493496	-0.074201
H129	H	0.266271	0.600466	-0.000067
H130	H	0.341487	0.543056	0.050260
H131	H	0.673700	0.450628	-0.000064
H132	H	0.149877	0.485248	-0.000103
