data_functionalizedCrystal
_audit_creation_method	'MofGen! by Chris Wilmer'
_symmetry_space_group_name_H-M	'P1'
_symmetry_Int_Tables_number	1
_symmetry_cell_setting	triclinic
loop_
_symmetry_equiv_pos_as_xyz
  x,y,z
_cell_length_a	15.995350
_cell_length_b	17.699083
_cell_length_c	16.776229
_cell_angle_alpha	89.991718
_cell_angle_beta	90.002446
_cell_angle_gamma	83.387695
loop_
_atom_site_label
_atom_site_type_symbol
_atom_site_fract_x
_atom_site_fract_y
_atom_site_fract_z
O1	O	-1.110783	-0.097561	0.066222
O2	O	-0.866983	-0.109608	0.066239
O3	O	-0.995771	0.006593	0.066223
O4	O	-0.981995	-0.213763	0.066238
O5	O	-0.995768	0.006603	-0.066353
O6	O	-0.866981	-0.109598	-0.066338
O7	O	-1.110780	-0.097551	-0.066354
Zn8	Zn	-0.988880	-0.103573	-0.087395
Zn9	Zn	-0.988883	-0.103587	0.087280
O10	O	-0.981993	-0.213752	-0.066338
C11	C	-0.835788	-0.109105	-0.000047
C12	C	-0.742841	-0.107612	-0.000041
C13	C	-0.995276	0.034796	-0.000065
C14	C	-0.993795	0.118816	-0.000065
C15	C	-1.141975	-0.098054	-0.000066
C16	C	-1.234923	-0.099547	-0.000067
C17	C	-0.405104	-0.102250	-0.000058
C18	C	-0.452706	-0.019493	-0.000360
C19	C	-0.549394	-0.020987	-0.000055
C20	C	-0.572659	-0.104910	-0.000050
C21	C	-0.531490	-0.145734	0.075657
C22	C	-0.434859	-0.143655	0.075715
C23	C	-0.434514	-0.145353	-0.075049
C24	C	-0.531459	-0.145333	-0.076044
C25	C	-0.667354	-0.106417	-0.000043
C26	C	-0.310409	-0.100745	-0.000060
C27	C	-0.982487	-0.241955	-0.000048
C28	C	-0.983968	-0.325976	-0.000043
N29	N	-0.988884	-0.103563	-0.206607
C30	C	-1.069391	0.167312	-0.000072
C31	C	-1.067994	0.246257	-0.000065
C32	C	-0.991001	0.276706	-0.000057
C33	C	-0.915400	0.228205	-0.000048
C34	C	-0.916797	0.149261	-0.000050
C35	C	-0.909763	0.546577	-0.000041
C36	C	-0.908372	0.625527	-0.000042
C37	C	-1.060960	0.643574	-0.000056
C38	C	-1.062358	0.564630	-0.000058
C39	C	-0.986757	0.516135	-0.000045
C40	C	-0.988272	0.430533	-0.000051
C41	C	-0.989485	0.362306	-0.000056
N42	N	-0.988886	-0.103590	0.206491
C43	C	-1.046019	-0.052238	0.248201
C44	C	-1.046022	-0.052236	0.331653
C45	C	-0.988887	-0.103583	0.373394
C46	C	-0.931752	-0.154941	0.331678
C47	C	-0.931753	-0.154946	0.248227
C48	C	-0.931745	-0.154923	0.668225
C49	C	-0.931747	-0.154913	0.751682
C50	C	-1.046014	-0.052213	0.751651
C51	C	-1.046015	-0.052218	0.668201
C52	C	-0.988883	-0.103578	0.626492
C53	C	-0.988881	-0.103580	0.536004
C54	C	-0.988884	-0.103578	0.463881
H55	H	-0.577887	0.011103	-0.054326
H56	H	-0.852711	0.253002	-0.000037
H57	H	-1.125053	0.539843	-0.000068
H58	H	-0.577318	0.011311	0.054305
C59	C	-0.868905	-0.211426	0.377587
H60	H	-0.834884	-0.242015	0.340791
H61	H	-0.834172	-0.184115	0.410136
H62	H	-0.898891	-0.243006	0.410146
C63	C	-0.427768	0.025208	-0.073697
H64	H	-0.457181	0.074994	-0.072764
H65	H	-0.368895	0.028373	-0.072691
H66	H	-0.441856	-0.000163	-0.120886
H67	H	-1.092537	-0.010394	0.785619
C68	C	-0.868919	-0.211432	0.622356
H69	H	-0.834894	-0.242011	0.659170
H70	H	-0.898919	-0.243009	0.589821
H71	H	-0.834176	-0.184141	0.589785
C72	C	-0.568434	-0.105074	-0.151708
H73	H	-0.608815	-0.063805	-0.137056
H74	H	-0.524578	-0.086481	-0.181442
H75	H	-0.594742	-0.140103	-0.183301
H76	H	-0.402628	-0.206369	-0.075558
H77	H	-1.122518	0.683068	-0.000063
H78	H	-0.885219	-0.196729	0.785666
H79	H	-1.092537	-0.010403	0.634218
C80	C	-0.868887	-0.211416	0.202346
H81	H	-0.834849	-0.241987	0.239156
H82	H	-0.898850	-0.243005	0.169789
H83	H	-0.834161	-0.184087	0.169797
H84	H	-0.559923	-0.117388	0.131997
H85	H	-1.132087	0.142527	-0.000083
C86	C	-0.550408	-0.229022	0.079481
H87	H	-0.524933	-0.252632	0.125701
H88	H	-0.609544	-0.230461	0.081755
H89	H	-0.528405	-0.255361	0.033348
C90	C	-0.823675	0.659020	-0.000023
H91	H	-0.778850	0.618832	-0.000007
H92	H	-0.819952	0.689448	-0.046254
H93	H	-0.819972	0.689434	0.046217
H94	H	-0.546700	-0.206532	-0.080614
C95	C	-0.833642	0.095916	-0.000045
H96	H	-0.787587	0.125355	-0.000047
H97	H	-0.831017	0.064738	0.046188
H98	H	-0.831014	0.064752	-0.046283
C99	C	-1.151150	0.299599	-0.000080
H100	H	-1.197203	0.270158	-0.000096
H101	H	-1.153786	0.330765	0.046152
H102	H	-1.153769	0.330775	-0.046318
H103	H	-0.848204	0.507102	-0.000031
H104	H	-1.092540	-0.010421	0.214222
H105	H	-0.433181	0.013430	0.053630
C106	C	-0.406848	-0.108801	-0.152571
H107	H	-0.377101	-0.066905	-0.139924
H108	H	-0.371302	-0.145320	-0.182126
H109	H	-0.455079	-0.091609	-0.183480
C110	C	-0.410205	-0.103444	0.152156
H111	H	-0.459224	-0.088527	0.182880
H112	H	-0.372162	-0.137260	0.182425
H113	H	-0.384032	-0.059723	0.138319
H114	H	-1.092544	-0.010421	0.365613
C115	C	-0.391123	-0.225729	0.080382
H116	H	-0.432436	-0.260193	0.082240
H117	H	-0.356585	-0.236173	0.034734
H118	H	-0.357377	-0.231456	0.127072
