data_functionalizedCrystal
_audit_creation_method	'MofGen! by Chris Wilmer'
_symmetry_space_group_name_H-M	'P1'
_symmetry_Int_Tables_number	1
_symmetry_cell_setting	triclinic
loop_
_symmetry_equiv_pos_as_xyz
  x,y,z
_cell_length_a	15.944551
_cell_length_b	10.654550
_cell_length_c	9.730223
_cell_angle_alpha	90.003749
_cell_angle_beta	89.997716
_cell_angle_gamma	96.008180
loop_
_atom_site_label
_atom_site_type_symbol
_atom_site_fract_x
_atom_site_fract_y
_atom_site_fract_z
O1	O	0.117973	-1.666308	-0.114406
O2	O	0.129213	-1.300684	-0.114384
O3	O	0.001376	-1.493480	-0.114384
O4	O	0.245810	-1.473511	-0.114407
O5	O	0.001379	-1.493478	0.114196
O6	O	0.129216	-1.300681	0.114196
O7	O	0.117976	-1.666305	0.114174
Zn8	Zn	0.123597	-1.483493	0.150477
Zn9	Zn	0.123592	-1.483496	-0.150687
O10	O	0.245813	-1.473509	0.114173
C11	C	0.128389	-1.253895	-0.000092
C12	C	0.125920	-1.114484	-0.000083
C13	C	-0.029921	-1.492650	-0.000093
C14	C	-0.123182	-1.490165	-0.000092
N15	N	0.123599	-1.483500	0.356013
C16	C	-0.338765	-1.364720	-0.000104
C17	C	-0.399443	-1.422971	0.112596
C18	C	-0.293934	-1.485668	-0.000103
C19	C	-0.399430	-1.423002	-0.112765
C20	C	-0.458872	-1.481317	-0.000119
C21	C	-0.353384	-1.543953	0.112691
C22	C	-0.353364	-1.543967	-0.112772
C23	C	-0.414024	-1.602306	-0.000045
C24	C	-0.198917	-1.488172	-0.000092
C25	C	-0.553887	-1.478822	-0.000119
C26	C	0.277110	-1.474339	-0.000120
C27	C	0.370371	-1.476824	-0.000130
C28	C	0.118800	-1.713094	-0.000122
C29	C	0.121269	-1.852505	-0.000140
C30	C	0.201188	-1.034024	-0.000110
C31	C	0.198863	-0.903034	-0.000134
C32	C	0.045995	-0.932975	-0.000108
C33	C	0.048321	-1.063963	-0.000075
C34	C	0.289446	-1.016737	-0.000131
C35	C	0.287121	-0.885746	-0.000154
N36	N	0.123583	-1.483499	-0.356224
C37	C	0.067012	-1.568892	0.427939
C38	C	0.067002	-1.568889	0.571822
C39	C	0.180173	-1.398098	0.571840
C40	C	0.180178	-1.398096	0.427959
C41	C	0.001676	-1.667501	0.427931
C42	C	0.001666	-1.667498	0.571814
H43	H	-0.419846	-1.371814	0.207881
H44	H	-0.306038	-1.264327	0.000015
H45	H	-0.446602	-1.702787	0.000013
H46	H	-0.062885	-1.646893	0.388884
H47	H	-0.059344	-1.637774	0.616437
H48	H	0.320374	-0.843584	-0.095825
H49	H	0.313795	-0.839729	0.098527
C50	C	0.326981	-1.063555	-0.131786
C51	C	0.349468	-0.961050	-0.219044
C52	C	0.384054	-1.004129	-0.340330
H53	H	0.286553	-1.121666	-0.176228
H54	H	0.375630	-1.104184	-0.110423
H55	H	0.300825	-0.920440	-0.240409
H56	H	0.389903	-0.902929	-0.174645
H57	H	0.432704	-1.044759	-0.318968
H58	H	0.343623	-1.062241	-0.384760
H59	H	0.399324	-0.934586	-0.399545
C60	C	-0.325986	-1.611923	-0.239871
C61	C	-0.269735	-1.529826	-0.316437
C62	C	-0.244485	-1.592377	-0.433531
H63	H	-0.373996	-1.638582	-0.294364
H64	H	-0.298989	-1.683379	-0.212865
H65	H	-0.296733	-1.458393	-0.343445
H66	H	-0.221713	-1.503162	-0.261985
H67	H	-0.217488	-1.663832	-0.406524
H68	H	-0.292500	-1.619034	-0.488011
H69	H	-0.206311	-1.536687	-0.485488
C70	C	-0.426478	-1.354574	-0.239763
C71	C	-0.388005	-1.230268	-0.239224
C72	C	-0.412888	-1.167192	-0.356193
H73	H	-0.486012	-1.354019	-0.239412
H74	H	-0.409905	-1.396658	-0.319833
H75	H	-0.404583	-1.188196	-0.159175
H76	H	-0.328471	-1.230787	-0.239594
H77	H	-0.396315	-1.209276	-0.436263
H78	H	-0.472422	-1.166646	-0.355833
H79	H	-0.386782	-1.082848	-0.355850
C80	C	-0.038228	-0.878049	-0.000393
C81	C	-0.044041	-0.803777	-0.118025
C82	C	-0.121621	-0.753176	-0.118346
H83	H	-0.042395	-0.827467	0.079214
H84	H	-0.082748	-0.944697	-0.000449
H85	H	0.000466	-0.737139	-0.117957
H86	H	-0.039890	-0.854331	-0.197651
H87	H	-0.166141	-0.819824	-0.118401
H88	H	-0.125781	-0.702600	-0.038734
H89	H	-0.125579	-0.702787	-0.198163
H90	H	-0.333096	-1.595065	0.208074
H91	H	-0.012970	-1.129470	-0.000033
C92	C	0.335457	-1.055020	0.127538
C93	C	0.361277	-0.947483	0.205600
C94	C	0.403652	-0.982702	0.323223
H95	H	0.383431	-1.095151	0.101153
H96	H	0.298701	-1.111716	0.180777
H97	H	0.398031	-0.890808	0.152371
H98	H	0.313319	-0.907338	0.232020
H99	H	0.366896	-1.039398	0.376462
H100	H	0.451623	-1.022834	0.296825
H101	H	0.421169	-0.909747	0.376208
C102	C	0.241749	-1.305518	0.349945
C103	C	0.324418	-1.325892	0.384923
C104	C	0.381161	-1.240640	0.313072
H105	H	0.232210	-1.221659	0.373476
H106	H	0.233709	-1.317747	0.253936
H107	H	0.332454	-1.313653	0.480910
H108	H	0.333983	-1.409734	0.361388
H109	H	0.373122	-1.252868	0.217063
H110	H	0.371615	-1.156785	0.336609
H111	H	0.437258	-1.254459	0.336785
H112	H	0.226238	-1.328563	0.630434
C113	C	0.028929	-1.788846	0.368666
C114	C	0.046986	-1.869232	0.476069
C115	C	0.072085	-1.981031	0.421527
H116	H	0.077865	-1.769867	0.313739
H117	H	-0.015243	-1.829149	0.313753
H118	H	0.091154	-1.828937	0.530959
H119	H	-0.001938	-1.888246	0.531005
H120	H	0.027914	-2.021334	0.366613
H121	H	0.121020	-1.962040	0.366600
H122	H	0.084333	-2.035591	0.494390
H123	H	0.016057	-1.763823	0.610857
