data_functionalizedCrystal
_audit_creation_method	'MofGen! by Chris Wilmer'
_symmetry_space_group_name_H-M	'P1'
_symmetry_Int_Tables_number	1
_symmetry_cell_setting	triclinic
loop_
_symmetry_equiv_pos_as_xyz
  x,y,z
_cell_length_a	11.026623
_cell_length_b	10.967931
_cell_length_c	9.482900
_cell_angle_alpha	68.660030
_cell_angle_beta	101.363987
_cell_angle_gamma	96.380029
loop_
_atom_site_label
_atom_site_type_symbol
_atom_site_fract_x
_atom_site_fract_y
_atom_site_fract_z
O1	O	-1.612858	-0.524844	0.010588
O2	O	-1.112858	-0.024844	0.510588
O3	O	-1.261455	-0.463278	-0.004837
O4	O	-0.761455	0.036722	0.495163
O5	O	-1.452552	-0.308357	-0.043642
O6	O	-0.952552	0.191643	0.456358
O7	O	-1.421761	-0.679765	0.049393
O8	O	-0.921761	-0.179765	0.549393
O9	O	-1.413731	-0.339986	0.206073
O10	O	-0.913731	0.160014	0.706073
O11	O	-1.222634	-0.494907	0.244878
O12	O	-0.722634	0.005093	0.744878
O13	O	-1.574037	-0.556474	0.260303
O14	O	-1.074037	-0.056474	0.760303
Cu15	Cu	-1.394791	-0.528578	0.275392
Cu16	Cu	-0.894791	-0.028578	0.775392
Cu17	Cu	-1.440701	-0.491173	-0.019925
Cu18	Cu	-0.940701	0.008827	0.480075
O19	O	-1.382940	-0.711394	0.299108
O20	O	-0.882940	-0.211394	0.799108
C21	C	-1.197184	-0.467735	0.117175
C22	C	-0.697184	0.032265	0.617175
C23	C	-1.063517	-0.433876	0.108692
C24	C	-0.563517	0.066124	0.608692
C25	C	-1.433835	-0.275884	0.069117
C26	C	-0.933835	0.224116	0.569117
C27	C	-1.435888	-0.131998	0.033066
C28	C	-0.935888	0.368002	0.533066
C29	C	-0.986823	-0.527361	0.132108
C30	C	-0.486823	-0.027361	0.632108
C31	C	-0.848670	-0.492369	0.123342
C32	C	-0.348670	0.007631	0.623342
C33	C	-0.638308	-0.552015	0.138288
C34	C	-0.138308	-0.052015	0.638288
C35	C	-0.771977	-0.585867	0.146761
C36	C	-0.271977	-0.085867	0.646761
C37	C	-1.418806	0.064478	0.109112
C38	C	-0.918806	0.564478	0.609112
C39	C	-1.416689	-0.084235	0.146368
C40	C	-0.916689	0.415765	0.646368
N41	N	-1.362508	-0.554889	0.483102
N42	N	-0.862508	-0.054889	0.983102
C43	C	-1.401658	0.256133	0.186348
C44	C	-0.901658	0.756133	0.686348
C45	C	-1.399609	0.112247	0.222398
C46	C	-0.899609	0.612247	0.722398
N47	N	-1.472993	-0.464855	-0.227638
N48	N	-0.972993	0.035145	0.272362
C49	C	-1.431171	-0.498924	0.541283
C50	C	-0.931171	0.001076	1.041283
C51	C	-1.404320	-0.520827	0.714187
C52	C	-0.904320	-0.020827	1.214187
H53	H	-0.812064	-0.386417	0.096764
H54	H	-0.312064	0.113583	0.596764
O55	O	-1.300116	-0.605786	0.817740
O56	O	-0.800116	-0.105786	1.317740
H57	H	-1.295386	-0.609667	0.937297
H58	H	-0.795386	-0.109667	1.437297
O59	O	-0.820447	-0.726215	0.181925
O60	O	-0.320447	-0.226215	0.681925
H61	H	-0.892641	-0.733218	0.085125
H62	H	-0.392641	-0.233218	0.585125
H63	H	-1.453897	-0.062805	-0.091514
H64	H	-0.953897	0.437195	0.408486
O65	O	-1.392851	-0.175887	0.311389
O66	O	-0.892851	0.324113	0.811389
H67	H	-1.379122	-0.118275	0.388708
H68	H	-0.879122	0.381725	0.888708
H69	H	-1.551657	-0.400716	0.694172
H70	H	-1.051657	0.099284	1.194172
O71	O	-1.375768	0.020603	0.387416
O72	O	-0.875768	0.520603	0.887416
H73	H	-1.291468	-0.034105	0.407349
H74	H	-0.791468	0.465895	0.907349
O75	O	-1.035317	-0.667696	0.167273
O76	O	-0.535317	-0.167696	0.667273
H77	H	-0.958120	-0.730855	0.183106
H78	H	-0.458120	-0.230855	0.683106
H79	H	-1.509830	-0.434790	0.463091
H80	H	-1.009830	0.065210	0.963091
H81	H	-1.026904	-0.327931	0.082117
H82	H	-0.526904	0.172069	0.582117
H83	H	-1.436815	0.133677	-0.015458
H84	H	-0.936815	0.633677	0.484542
O85	O	-1.258310	-0.639844	0.586660
O86	O	-0.758310	-0.139844	1.086660
H87	H	-1.253579	-0.643725	0.706217
H88	H	-0.753579	-0.143725	1.206217
