data_functionalizedCrystal
_audit_creation_method	'MofGen! by Chris Wilmer'
_symmetry_space_group_name_H-M	'P1'
_symmetry_Int_Tables_number	1
_symmetry_cell_setting	triclinic
loop_
_symmetry_equiv_pos_as_xyz
  x,y,z
_cell_length_a	11.169417
_cell_length_b	29.839131
_cell_length_c	11.169409
_cell_angle_alpha	90.047774
_cell_angle_beta	90.019824
_cell_angle_gamma	90.036108
loop_
_atom_site_label
_atom_site_type_symbol
_atom_site_fract_x
_atom_site_fract_y
_atom_site_fract_z
Zn1	Zn	1.834755	-0.178806	0.678414
Zn2	Zn	1.834557	-0.253948	0.477677
Zn3	Zn	1.634041	-0.178834	0.477748
Zn4	Zn	1.633961	-0.253911	0.678322
O5	O	1.734328	-0.216375	0.578040
O6	O	2.002678	-0.188778	0.651794
O7	O	1.807909	-0.244011	0.309736
O8	O	1.660782	-0.115963	0.504436
O9	O	2.002533	-0.243984	0.504314
O10	O	1.808246	-0.115943	0.651864
O11	O	1.660590	-0.188825	0.309789
O12	O	1.466080	-0.188789	0.504346
O13	O	1.660646	-0.243922	0.846284
O14	O	1.466022	-0.243948	0.651707
O15	O	1.808168	-0.188742	0.846352
O16	O	1.807831	-0.316810	0.504224
O17	O	1.660454	-0.316783	0.651637
C18	C	1.422504	-0.216368	0.578025
C19	C	1.289104	-0.216376	0.578047
C20	C	1.734145	-0.333097	0.577939
C21	C	1.734177	-0.383032	0.577936
C22	C	1.811096	-0.692630	0.654915
C23	C	1.811226	-0.880303	0.654988
O24	O	1.876446	-0.904529	0.720363
N25	N	1.734532	-0.903817	0.578173
C26	C	1.657794	-0.880410	0.501341
O27	O	1.592556	-0.904716	0.436016
C28	C	1.657659	-0.692738	0.501276
C29	C	1.734367	-0.669226	0.578087
C30	C	1.887797	-0.669118	0.731721
C31	C	1.887768	-0.622203	0.731697
C32	C	1.811039	-0.598799	0.654869
C33	C	1.734338	-0.622311	0.578063
C34	C	1.580916	-0.669331	0.424451
C35	C	1.580887	-0.622410	0.424444
C36	C	1.657595	-0.598899	0.501254
C37	C	1.657580	-0.551991	0.501211
N38	N	1.734274	-0.528477	0.578025
C39	C	1.811003	-0.551881	0.654854
C40	C	1.657873	-0.978940	0.501379
C41	C	1.657908	-1.025858	0.501394
C42	C	1.811338	-1.025748	0.655042
C43	C	1.811308	-0.978829	0.655020
C44	C	1.734567	-0.955426	0.578193
C45	C	1.810938	-0.453355	0.654798
C46	C	1.810906	-0.406436	0.654765
C47	C	1.657472	-0.406550	0.501121
C48	C	1.657507	-0.453465	0.501150
C49	C	1.734245	-0.476867	0.577998
O50	O	1.592385	-0.527736	0.435879
O51	O	1.876214	-0.527567	0.720188
C52	C	1.811125	-0.739545	0.654939
C53	C	1.734424	-0.763057	0.578134
C54	C	1.657695	-0.739653	0.501305
C55	C	1.734459	-0.809975	0.578148
C56	C	1.811189	-0.833379	0.654977
C57	C	1.887883	-0.809865	0.731791
C58	C	1.887854	-0.762949	0.731768
C59	C	1.581001	-0.763167	0.424491
C60	C	1.581037	-0.810083	0.424519
C61	C	1.657766	-0.833486	0.501348
C62	C	2.047371	-0.216382	0.578056
C63	C	2.180771	-0.216385	0.578063
C64	C	1.734421	-0.216325	0.891083
C65	C	1.734460	-0.216304	1.024483
C66	C	1.734545	-0.099196	0.578168
C67	C	1.734637	-0.049262	0.578222
C68	C	1.734306	-0.216392	0.266215
C69	C	1.734499	-0.216287	0.132816
H70	H	1.873375	-0.387294	0.717313
O71	O	1.506343	-0.832898	0.350026
C72	C	1.302219	-0.847306	0.291573
C73	C	1.386679	-0.821451	0.376014
H74	H	1.205454	-0.838053	0.312537
H75	H	1.315298	-0.884866	0.304780
H76	H	1.323394	-0.838115	0.194817
H77	H	1.365557	-0.830604	0.472802
H78	H	1.373584	-0.783897	0.362703
H79	H	1.595379	-0.959889	0.438814
O80	O	1.885588	-0.476014	0.729490
C81	C	2.037706	-0.470940	0.881942
C82	C	1.953247	-0.445224	0.797399
H83	H	2.092413	-0.446058	0.936886
H84	H	2.100594	-0.492895	0.826977
H85	H	1.982567	-0.492910	0.944614
H86	H	2.008290	-0.423230	0.734709
H87	H	1.890356	-0.423297	0.852439
O88	O	1.583229	-1.048674	0.426899
C89	C	1.379114	-1.063087	0.368424
C90	C	1.463560	-1.037232	0.452879
H91	H	1.282345	-1.053838	0.389381
H92	H	1.392201	-1.100647	0.381624
H93	H	1.400295	-1.053892	0.271672
H94	H	1.442431	-1.046388	0.549662
H95	H	1.450457	-0.999678	0.439574
H96	H	1.518517	-0.744115	0.361929
H97	H	1.595003	-0.387487	0.438565
H98	H	1.873770	-0.959689	0.717567
O99	O	1.962314	-0.599436	0.806431
C100	C	2.114546	-0.604297	0.958781
C101	C	2.030161	-0.630131	0.874219
H102	H	2.169440	-0.629102	1.013591
H103	H	2.059459	-0.582339	1.021567
H104	H	2.177272	-0.582318	0.903716
H105	H	1.967419	-0.652134	0.929188
H106	H	2.085323	-0.652060	0.811429
H107	H	1.950279	-0.688169	0.794291
H108	H	1.518453	-0.688466	0.361903
H109	H	1.518391	-0.603358	0.361883
O110	O	1.885757	-1.048556	0.729641
C111	C	1.953825	-1.120794	0.797704
C112	C	1.869481	-1.095017	0.713178
H113	H	1.940713	-1.158362	0.784405
H114	H	1.932677	-1.111577	0.894484
H115	H	2.050598	-1.111521	0.776740
H116	H	1.772679	-1.104276	0.734034
H117	H	1.890731	-1.104236	0.616423
H118	H	1.950316	-0.743809	0.794314
H119	H	1.595055	-0.472610	0.438595
O120	O	1.962305	-0.832673	0.806386
C121	C	2.030372	-0.904911	0.874446
C122	C	1.946023	-0.879134	0.789926
H123	H	2.017256	-0.942479	0.861149
H124	H	2.009236	-0.895693	0.971227
H125	H	2.127144	-0.895639	0.853471
H126	H	1.849222	-0.888391	0.810793
H127	H	1.967262	-0.888354	0.693170
