data_functionalizedCrystal
_audit_creation_method	'MofGen! by Chris Wilmer'
_symmetry_space_group_name_H-M	'P1'
_symmetry_Int_Tables_number	1
_symmetry_cell_setting	triclinic
loop_
_symmetry_equiv_pos_as_xyz
  x,y,z
_cell_length_a	12.645331
_cell_length_b	21.295418
_cell_length_c	12.645323
_cell_angle_alpha	90.032304
_cell_angle_beta	90.015738
_cell_angle_gamma	90.026635
loop_
_atom_site_label
_atom_site_type_symbol
_atom_site_fract_x
_atom_site_fract_y
_atom_site_fract_z
Zn1	Zn	1.620660	-0.250617	0.599195
Zn2	Zn	1.620511	-0.355892	0.421912
Zn3	Zn	1.443374	-0.250639	0.421961
Zn4	Zn	1.443326	-0.355851	0.599149
O5	O	1.531968	-0.303250	0.510554
O6	O	1.768987	-0.264590	0.575677
O7	O	1.596972	-0.341956	0.273571
O8	O	1.466974	-0.162547	0.445511
O9	O	1.768878	-0.341935	0.445428
O10	O	1.597225	-0.162531	0.575724
O11	O	1.466830	-0.264627	0.273607
O12	O	1.295021	-0.264588	0.445467
O13	O	1.466892	-0.341865	0.747503
O14	O	1.294985	-0.341886	0.575646
O15	O	1.597178	-0.264551	0.747537
O16	O	1.596925	-0.443976	0.445383
O17	O	1.466748	-0.443946	0.575599
C18	C	1.256538	-0.303235	0.510557
C19	C	1.138708	-0.303244	0.510583
C20	C	0.971157	-0.352140	0.592052
C21	C	1.093717	-0.351982	0.592393
C22	C	1.094249	-0.236943	0.541119
C23	C	0.971651	-0.237242	0.541693
C24	C	0.971458	-0.320116	0.398320
C25	C	1.094063	-0.321566	0.398926
C26	C	1.531844	-0.466801	0.510504
C27	C	1.531888	-0.536769	0.510518
C28	C	1.600006	-1.036222	0.442922
C29	C	1.599965	-0.970479	0.442897
C30	C	1.532117	-0.937609	0.510629
C31	C	1.464285	-0.970486	0.578371
C32	C	1.464320	-1.036227	0.578387
N33	N	1.523880	-0.834354	0.603392
N34	N	1.523854	-0.771902	0.603375
C35	C	1.532007	-0.739534	0.510584
N36	N	1.540208	-0.771976	0.417810
N37	N	1.540241	-0.834434	0.417829
C38	C	1.532071	-0.866323	0.510619
C39	C	1.599786	-0.635379	0.442814
C40	C	1.599738	-0.569635	0.442787
C41	C	1.464063	-0.569643	0.578270
C42	C	1.464105	-0.635386	0.578287
C43	C	1.531972	-0.668250	0.510561
C44	C	1.808473	-0.303264	0.510552
C45	C	1.926303	-0.303271	0.510551
C46	C	1.532046	-0.303201	0.787060
C47	C	1.532079	-0.303180	0.904890
C48	C	1.532121	-0.139059	0.510628
C49	C	1.532187	-0.069091	0.510660
C50	C	1.531951	-0.303253	0.235125
C51	C	1.532123	-0.303096	0.117295
C52	C	1.449863	-0.351590	1.072433
C53	C	1.450078	-0.351829	0.949873
C54	C	1.643774	-0.321184	0.949392
C55	C	1.643323	-0.321488	1.071991
C56	C	1.503657	-0.236496	1.072106
C57	C	1.501165	-0.236895	0.949500
H58	H	1.124978	-0.222394	0.622277
H59	H	1.655045	-0.662138	0.387665
H60	H	1.408815	-0.542881	0.633414
Br61	Br	1.684690	-0.401480	0.898223
H62	H	1.654961	-0.542873	0.387621
H63	H	0.942451	-0.284520	0.337595
H64	H	0.943080	-0.222953	0.623739
H65	H	1.468869	-0.401203	0.920546
H66	H	1.408883	-0.662148	0.633450
H67	H	0.940522	-0.367639	0.370568
Br68	Br	1.748872	-0.265134	1.121463
Br69	Br	1.312032	-0.333047	0.899715
H70	H	1.655265	-1.062976	0.387770
H71	H	1.706706	-0.286981	0.920257
H72	H	0.941651	-0.401469	0.573124
H73	H	1.655193	-0.943712	0.387735
H74	H	1.409040	-0.943720	0.633517
H75	H	1.409094	-1.062989	0.633551
Br76	Br	1.311396	-0.332990	1.121564
Br77	Br	1.364155	-0.214266	0.901040
H78	H	1.123775	-0.401148	0.573254
H79	H	1.556703	-0.198855	0.918880
H80	H	1.468471	-0.400655	1.103239
Br81	Br	1.370269	-0.209142	1.123632
Br82	Br	1.683542	-0.402634	1.119661
H83	H	0.940369	-0.341136	0.674727
Br84	Br	1.142649	-0.333402	0.730997
H85	H	1.123132	-0.370354	0.375895
H86	H	0.941981	-0.199525	0.485055
Br87	Br	1.142822	-0.174602	0.445278
H88	H	1.563571	-0.200366	1.101120
H89	H	1.124689	-0.288554	0.334943
