data_functionalizedCrystal
_audit_creation_method	'MofGen! by Chris Wilmer'
_symmetry_space_group_name_H-M	'P1'
_symmetry_Int_Tables_number	1
_symmetry_cell_setting	triclinic
loop_
_symmetry_equiv_pos_as_xyz
  x,y,z
_cell_length_a	16.120490
_cell_length_b	16.120444
_cell_length_c	12.759393
_cell_angle_alpha	92.863624
_cell_angle_beta	87.082392
_cell_angle_gamma	90.165174
loop_
_atom_site_label
_atom_site_type_symbol
_atom_site_fract_x
_atom_site_fract_y
_atom_site_fract_z
Zn1	Zn	1.254489	-0.395618	-0.699338
Zn2	Zn	1.247325	-0.534692	-0.532072
Zn3	Zn	1.115423	-0.388593	-0.514348
Zn4	Zn	1.108339	-0.527563	-0.698383
O5	O	1.181394	-0.461616	-0.611035
O6	O	1.369905	-0.419989	-0.684967
O7	O	1.229794	-0.515355	-0.382701
O8	O	1.139834	-0.273162	-0.531869
O9	O	1.364641	-0.522166	-0.562078
O10	O	1.242005	-0.278323	-0.667780
O11	O	1.132887	-0.408017	-0.369678
O12	O	0.998118	-0.401104	-0.530942
O13	O	1.127760	-0.510017	-0.845530
O14	O	0.992913	-0.503205	-0.666152
O15	O	1.235136	-0.413077	-0.846232
O16	O	1.222925	-0.650109	-0.561152
O17	O	1.120813	-0.644871	-0.683339
C18	C	0.965343	-0.450619	-0.596521
C19	C	0.872914	-0.445935	-0.590338
C20	C	0.659945	-0.485909	-0.643109
C21	C	0.703691	-0.437390	-0.579048
C22	C	0.797855	-0.442146	-0.585332
C23	C	0.565772	-0.481154	-0.636827
C24	C	1.170345	-0.677663	-0.624090
C25	C	1.165694	-0.770092	-0.629715
C26	C	1.205723	-0.983072	-0.582095
C27	C	1.157219	-0.939317	-0.639997
C28	C	1.161936	-0.845152	-0.634274
C29	C	1.201007	-1.077246	-0.587816
C30	C	1.398289	-0.472657	-0.625606
C31	C	1.490717	-0.477361	-0.631816
C32	C	1.181457	-0.461535	-0.885067
C33	C	1.181483	-0.461501	-1.001844
C34	C	1.192509	-0.244727	-0.597954
C35	C	1.197245	-0.152302	-0.592380
C36	C	1.237402	-0.411020	-1.057073
C37	C	1.237423	-0.410991	-1.166797
C38	C	1.125605	-0.511931	-1.166052
C39	C	1.125580	-0.511955	-1.056330
C40	C	1.293305	-0.360565	-1.002587
C41	C	1.349228	-0.310081	-1.057816
C42	C	1.349249	-0.310052	-1.167540
C43	C	1.293347	-0.360507	-1.222034
C44	C	1.181383	-0.461639	-0.338068
C45	C	1.181529	-0.461448	-0.221289
H46	H	0.670422	-0.392280	-0.519485
H47	H	1.112150	-0.972579	-0.693866
C48	C	1.265944	-0.938780	-0.510399
C49	C	1.347189	-0.963899	-0.540135
C50	C	1.402682	-0.923098	-0.474117
H51	H	1.253209	-0.952376	-0.439798
H52	H	1.261220	-0.880462	-0.516062
H53	H	1.351909	-1.022205	-0.534461
H54	H	1.359949	-0.950303	-0.610724
H55	H	1.397958	-0.864779	-0.479781
H56	H	1.389939	-0.936696	-0.403521
H57	H	1.457813	-0.940129	-0.494290
C58	C	0.704184	-0.546190	-0.722462
C59	C	0.678913	-0.627398	-0.703017
C60	C	0.719649	-0.682951	-0.776100
H61	H	0.762502	-0.541546	-0.716253
H62	H	0.690626	-0.533440	-0.791443
H63	H	0.692476	-0.640145	-0.634053
H64	H	0.620601	-0.632069	-0.709234
H65	H	0.706091	-0.670200	-0.845081
H66	H	0.777965	-0.678299	-0.769885
H67	H	0.702503	-0.738055	-0.762922
C68	C	1.293382	-0.360447	-0.883456
C69	C	1.354292	-0.305444	-0.847554
C70	C	1.354379	-0.305308	-0.737818
H71	H	1.305033	-0.414800	-0.862702
H72	H	1.240469	-0.343297	-0.854120
H73	H	1.407192	-0.322598	-0.876878
H74	H	1.342654	-0.251084	-0.868279
H75	H	1.301467	-0.288158	-0.708483
H76	H	1.366029	-0.359663	-0.717075
H77	H	1.395700	-0.267984	-0.713444
H78	H	1.394737	-0.268996	-1.013439
C79	C	1.410053	-0.255213	-1.227320
C80	C	1.459015	-0.211051	-1.156116
C81	C	1.515048	-0.160535	-1.211145
H82	H	1.380209	-0.217280	-1.265808
H83	H	1.444707	-0.288842	-1.274453
H84	H	1.424365	-0.177424	-1.109001
H85	H	1.488877	-0.248962	-1.117625
H86	H	1.549702	-0.194164	-1.258278
H87	H	1.485197	-0.122608	-1.249631
H88	H	1.548281	-0.130571	-1.162842
C89	C	1.293528	-0.360393	-1.341169
C90	C	1.354477	-0.305398	-1.377879
C91	C	1.354679	-0.305284	-1.487618
H92	H	1.240660	-0.343250	-1.361655
H93	H	1.305206	-0.414769	-1.370224
H94	H	1.342793	-0.251034	-1.348835
H95	H	1.407353	-0.322528	-1.357421
H96	H	1.366357	-0.359659	-1.516673
H97	H	1.301809	-0.288142	-1.508094
H98	H	1.396037	-0.267976	-1.512541
H99	H	1.080092	-0.553009	-1.210430
H100	H	1.080034	-0.553048	-1.011359
