data_functionalizedCrystal
_audit_creation_method	'MofGen! by Chris Wilmer'
_symmetry_space_group_name_H-M	'P1'
_symmetry_Int_Tables_number	1
_symmetry_cell_setting	triclinic
loop_
_symmetry_equiv_pos_as_xyz
  x,y,z
_cell_length_a	12.759401
_cell_length_b	19.076808
_cell_length_c	19.076919
_cell_angle_alpha	90.121640
_cell_angle_beta	87.715987
_cell_angle_gamma	92.323972
loop_
_atom_site_label
_atom_site_type_symbol
_atom_site_fract_x
_atom_site_fract_y
_atom_site_fract_z
Zn1	Zn	1.565244	-0.295733	0.386000
Zn2	Zn	1.565686	-0.408527	0.263770
Zn3	Zn	1.396888	-0.291033	0.268514
Zn4	Zn	1.382742	-0.413210	0.381243
O5	O	1.477640	-0.352126	0.324882
O6	O	1.712323	-0.310702	0.369791
O7	O	1.549400	-0.389015	0.166068
O8	O	1.424956	-0.193320	0.288076
O9	O	1.712648	-0.393572	0.279989
O10	O	1.548646	-0.196772	0.374392
O11	O	1.425385	-0.302692	0.169554
O12	O	1.247991	-0.307233	0.283463
O13	O	1.400845	-0.401553	0.480205
O14	O	1.237598	-0.396996	0.366284
O15	O	1.534929	-0.315243	0.483701
O16	O	1.535683	-0.507485	0.275376
O17	O	1.401275	-0.510926	0.361684
C18	C	1.204674	-0.352113	0.324872
C19	C	1.087896	-0.352125	0.324884
C20	C	1.032856	-0.309059	0.371710
C21	C	0.923131	-0.309067	0.371715
C22	C	0.923495	-0.395212	0.278065
C23	C	1.033218	-0.395201	0.278058
C24	C	1.467019	-0.534704	0.317514
C25	C	1.462571	-0.612812	0.314386
C26	C	1.524827	-0.651246	0.357893
C27	C	1.520642	-0.724638	0.354954
C28	C	1.454206	-0.759593	0.308505
C29	C	1.391943	-0.721154	0.264996
C30	C	1.396123	-0.647764	0.267939
C31	C	1.434801	-0.978899	0.294886
C32	C	1.430628	-1.052294	0.291945
C33	C	1.559327	-1.055773	0.381905
C34	C	1.563505	-0.982381	0.384840
C35	C	1.501238	-0.943948	0.341334
N36	N	1.449930	-0.834611	0.305499
N37	N	1.505509	-0.868932	0.344344
C38	C	1.751672	-0.352139	0.324892
C39	C	1.868448	-0.352144	0.324896
C40	C	1.466260	-0.359445	0.508162
C41	C	1.461410	-0.362564	0.586265
C42	C	1.488329	-0.168835	0.332294
C43	C	1.492885	-0.090728	0.335452
C44	C	1.489039	-0.344784	0.142317
C45	C	1.494103	-0.341468	0.064222
C46	C	1.528938	-0.319094	0.624779
C47	C	1.524369	-0.322022	0.698165
C48	C	1.452276	-0.368423	0.733036
C49	C	1.384741	-0.411895	0.694517
C50	C	1.389306	-0.408963	0.621133
C51	C	1.431133	-0.382007	0.952318
C52	C	1.426575	-0.384937	1.025708
C53	C	1.566203	-0.295063	1.029351
C54	C	1.570766	-0.292138	0.955965
C55	C	1.503227	-0.335607	0.917452
N56	N	1.447606	-0.371419	0.808049
N57	N	1.507892	-0.332607	0.842441
H58	H	1.078033	-0.430271	0.239922
C59	C	1.608243	-0.268050	0.586424
C60	C	1.603697	-0.188567	0.599744
C61	C	1.683000	-0.137520	0.561392
C62	C	1.766850	-0.165957	0.509718
C63	C	1.771400	-0.245444	0.496395
C64	C	1.692096	-0.296491	0.534748
H65	H	1.541623	-0.167513	0.637998
H66	H	1.679632	-0.078678	0.571255
H67	H	1.825556	-0.128169	0.481327
H68	H	1.833473	-0.266498	0.458141
H69	H	1.695464	-0.355333	0.524885
C70	C	1.347264	-0.435980	1.064068
C71	C	1.342252	-0.439207	1.144788
C72	C	1.262948	-0.490247	1.183149
C73	C	1.188655	-0.538061	1.140789
C74	C	1.193663	-0.534836	1.060064
C75	C	1.272968	-0.483795	1.021704
H76	H	1.397251	-0.403811	1.176150
H77	H	1.259240	-0.492634	1.242907
H78	H	1.129949	-0.575844	1.169186
H79	H	1.138665	-0.570231	1.028703
H80	H	1.276675	-0.481408	0.961946
H81	H	1.077371	-0.273982	0.409838
C82	C	1.366316	-0.936633	0.247021
C83	C	1.379380	-0.943565	0.166740
C84	C	1.310893	-0.901297	0.118871
C85	C	1.229341	-0.852099	0.151282
C86	C	1.216273	-0.845166	0.231568
C87	C	1.284761	-0.887433	0.279437
H88	H	1.439753	-0.979986	0.142743
H89	H	1.320567	-0.906430	0.059438
H90	H	1.178642	-0.820810	0.115847
H91	H	1.155901	-0.808744	0.255565
H92	H	1.275087	-0.882300	0.338870
H93	H	0.878964	-0.430284	0.239941
C94	C	1.589140	-0.766911	0.402807
C95	C	1.670676	-0.816111	0.370379
C96	C	1.739182	-0.858381	0.418233
C97	C	1.726152	-0.851452	0.498516
C98	C	1.644612	-0.802250	0.530949
C99	C	1.576107	-0.759980	0.483094
H100	H	1.680325	-0.821242	0.310945
H101	H	1.799543	-0.894804	0.394223
H102	H	1.776864	-0.882743	0.533940
H103	H	1.634963	-0.797119	0.590383
H104	H	1.515746	-0.723557	0.507104
H105	H	1.326037	-0.449674	0.722915
C106	C	1.597910	-0.612799	0.408988
C107	C	1.666386	-0.655079	0.456847
C108	C	1.739468	-0.616634	0.507945
C109	C	1.744075	-0.535908	0.511183
C110	C	1.675596	-0.493623	0.463323
C111	C	1.602514	-0.532068	0.412225
H112	H	1.662978	-0.714841	0.454451
H113	H	1.790161	-0.647937	0.543375
H114	H	1.798175	-0.507448	0.549009
H115	H	1.679004	-0.433861	0.465719
H116	H	1.551821	-0.500765	0.376795
C117	C	1.357550	-1.090751	0.240847
C118	C	1.371752	-1.077494	0.161374
C119	C	1.298684	-1.115953	0.110276
C120	C	1.211415	-1.167669	0.138652
C121	C	1.197209	-1.180929	0.218129
C122	C	1.270277	-1.142469	0.269227
H123	H	1.436357	-1.039208	0.140365
H124	H	1.309201	-1.106138	0.051441
H125	H	1.157326	-1.196139	0.100826
H126	H	1.132604	-1.219214	0.239138
H127	H	1.259760	-1.152285	0.328061
C128	C	1.598654	-0.274202	0.740527
C129	C	1.718381	-0.279543	0.730216
C130	C	1.792668	-0.231719	0.772576
C131	C	1.747227	-0.178553	0.825248
C132	C	1.627493	-0.173210	0.835561
C133	C	1.553206	-0.221035	0.793201
H134	H	1.752025	-0.318901	0.691223
H135	H	1.881303	-0.235674	0.764941
H136	H	1.802218	-0.143151	0.856605
H137	H	1.593849	-0.133852	0.874554
H138	H	1.464571	-0.217079	0.800836
H139	H	1.617602	-0.953922	0.422662
H140	H	0.878323	-0.273997	0.409844
C141	C	1.640484	-0.247243	1.071716
C142	C	1.635467	-0.250461	1.152436
C143	C	1.709748	-0.202637	1.194801
C144	C	1.789046	-0.151595	1.156444
C145	C	1.794066	-0.148375	1.075719
C146	C	1.719785	-0.196199	1.033355
H147	H	1.576763	-0.288247	1.180834
H148	H	1.706032	-0.205021	1.254559
H149	H	1.844033	-0.116192	1.187805
H150	H	1.852770	-0.110588	1.047322
H151	H	1.723501	-0.193815	0.973597
H152	H	1.629474	-0.254355	0.927578
C153	C	1.315029	-0.456782	0.578762
C154	C	1.195301	-0.451446	0.589071
C155	C	1.121020	-0.499264	0.546700
C156	C	1.166468	-0.552418	0.494019
C157	C	1.286203	-0.557755	0.483706
C158	C	1.360484	-0.509938	0.526078
H159	H	1.161652	-0.412097	0.628071
H160	H	1.032384	-0.495312	0.554334
H161	H	1.111481	-0.587815	0.462653
H162	H	1.319852	-0.597105	0.444706
H163	H	1.449120	-0.513889	0.518444
H164	H	1.610020	-1.087073	0.417326
H165	H	1.345426	-0.616471	0.232512
H166	H	1.337845	-0.749621	0.227179
H167	H	1.376153	-0.417413	0.920970
