data_functionalizedCrystal
_audit_creation_method	'MofGen! by Chris Wilmer'
_symmetry_space_group_name_H-M	'P1'
_symmetry_Int_Tables_number	1
_symmetry_cell_setting	triclinic
loop_
_symmetry_equiv_pos_as_xyz
  x,y,z
_cell_length_a	6.817900
_cell_length_b	15.866870
_cell_length_c	16.015572
_cell_angle_alpha	95.305972
_cell_angle_beta	104.485554
_cell_angle_gamma	102.655915
loop_
_atom_site_label
_atom_site_type_symbol
_atom_site_fract_x
_atom_site_fract_y
_atom_site_fract_z
V1	V	-3.996844	-0.034800	-0.280476
O2	O	-3.966447	0.088700	-0.236015
O3	O	-3.966340	-0.152703	-0.316185
O4	O	-3.927287	0.003921	-0.385636
O5	O	-4.005770	-0.069009	-0.166083
V6	V	-4.480895	-0.024540	-0.262223
O7	O	-4.256945	-0.057306	-0.320516
O8	O	-4.670991	-0.002034	-0.222183
O9	O	-4.288193	0.093362	-0.226515
O10	O	-4.628689	-0.148040	-0.306685
O11	O	-4.589366	0.009668	-0.376616
O12	O	-4.327246	-0.063262	-0.157064
C13	C	-3.816378	-0.182638	-0.321469
C14	C	-3.872583	-0.278779	-0.351366
C15	C	-3.766562	0.017152	-0.410059
C16	C	-3.791093	0.048031	-0.496274
C17	C	-3.917279	-0.657597	-0.074048
C18	C	-3.970096	-0.747931	-0.102166
C19	C	-4.026156	-0.722870	-0.252428
C20	C	-3.973333	-0.632531	-0.224321
C21	C	-3.918899	-0.599902	-0.135131
C22	C	-3.974953	-0.574837	-0.285404
C23	C	-3.922145	-0.484506	-0.257300
C24	C	-3.867716	-0.451870	-0.168113
C25	C	-3.866091	-0.509571	-0.107027
C26	C	-4.029402	-0.607468	-0.374595
C27	C	-4.031022	-0.549773	-0.435678
C28	C	-3.978199	-0.459441	-0.407574
C29	C	-3.923770	-0.426804	-0.318387
C30	C	-3.979824	-0.401739	-0.468660
C31	C	-3.927016	-0.311408	-0.440556
C32	C	-3.870962	-0.336474	-0.290283
C33	C	-4.121327	-0.226050	-0.961199
C34	C	-4.144378	-0.197007	-1.042199
C35	C	-4.044584	-0.046745	-0.969635
C36	C	-4.021514	-0.075776	-0.888628
C37	C	-4.059892	-0.165429	-0.884418
C38	C	-3.960078	-0.015155	-0.811846
C39	C	-3.937021	-0.044184	-0.730846
C40	C	-3.975400	-0.133834	-0.726628
C41	C	-4.036835	-0.194459	-0.803418
C42	C	-3.921715	0.074498	-0.816058
C43	C	-3.860280	0.135118	-0.739276
C44	C	-3.837207	0.106090	-0.658274
C45	C	-3.875586	0.016440	-0.654056
C46	C	-3.775772	0.166714	-0.581484
C47	C	-3.752715	0.137685	-0.500484
C48	C	-3.852529	-0.012589	-0.573056
C49	C	-4.101498	0.123292	-0.221230
C50	C	-4.024530	0.219434	-0.191339
C51	C	-4.151314	-0.076497	-0.132637
C52	C	-4.106021	-0.107372	-0.046420
H53	H	-3.826605	-0.309905	-0.217654
C54	C	-3.857433	-0.621699	0.024060
H55	H	-3.864047	-0.668996	0.056418
H56	H	-3.719238	-0.585028	0.041536
H57	H	-3.952148	-0.588936	0.034751
C58	C	-3.928830	-0.247938	-0.507742
H59	H	-3.889615	-0.189468	-0.478229
H60	H	-3.832575	-0.255635	-0.539851
H61	H	-4.065466	-0.259547	-0.546589
C62	C	-3.894719	-0.111206	-0.568414
H63	H	-3.872171	-0.119808	-0.509174
H64	H	-4.035414	-0.139201	-0.600004
H65	H	-3.802555	-0.135443	-0.593185
H66	H	-3.956629	-0.157468	-0.660671
C67	C	-3.968302	-0.811393	-0.034969
H68	H	-3.928307	-0.779020	0.022173
H69	H	-4.104174	-0.849100	-0.046188
H70	H	-3.871280	-0.845204	-0.039428
C71	C	-4.079025	-0.293075	-0.798775
H72	H	-4.056477	-0.301677	-0.739536
H73	H	-4.219720	-0.321070	-0.830366
H74	H	-3.986861	-0.317312	-0.823547
H75	H	-4.152551	-0.299054	-0.957772
H76	H	-4.194399	-0.246378	-1.104718
H77	H	-3.824726	-0.378316	-0.145233
H78	H	-3.829045	0.208115	-0.742717
C79	C	-4.002363	0.051867	-0.974274
H80	H	-4.024879	0.060476	-1.033510
H81	H	-4.094482	0.076117	-0.949493
H82	H	-3.861642	0.079847	-0.942687
H83	H	-3.940461	0.098131	-0.882015
H84	H	-3.744551	0.239710	-0.584927
H85	H	-3.702689	0.187049	-0.437965
H86	H	-4.070490	-0.749450	-0.325048
C87	C	-3.806246	-0.473674	-0.008918
H88	H	-3.812860	-0.520971	0.023439
H89	H	-3.668050	-0.437003	0.008557
H90	H	-3.900961	-0.440911	0.001773
H91	H	-4.075357	-0.576353	-0.508298
C92	C	-4.039711	-0.437639	-0.566764
H93	H	-4.070924	-0.499700	-0.574752
H94	H	-4.159005	-0.419628	-0.596409
H95	H	-3.926117	-0.415745	-0.589650
C96	C	-4.087489	-0.706829	-0.405514
H97	H	-4.120165	-0.717999	-0.467380
H98	H	-3.972643	-0.729947	-0.380748
H99	H	-4.205532	-0.733838	-0.387500
