data_functionalizedCrystal
_audit_creation_method	'MofGen! by Chris Wilmer'
_symmetry_space_group_name_H-M	'P1'
_symmetry_Int_Tables_number	1
_symmetry_cell_setting	triclinic
loop_
_symmetry_equiv_pos_as_xyz
  x,y,z
_cell_length_a	18.426585
_cell_length_b	19.851628
_cell_length_c	19.851628
_cell_angle_alpha	90.005228
_cell_angle_beta	60.004095
_cell_angle_gamma	60.000264
loop_
_atom_site_label
_atom_site_type_symbol
_atom_site_fract_x
_atom_site_fract_y
_atom_site_fract_z
Zr1	Zr	0.794253	0.649010	-0.088317
O2	O	0.945652	0.541453	-0.195885
O3	O	0.642855	0.681978	-0.055342
O4	O	0.794236	0.681989	-0.195867
O5	O	0.794285	0.541439	0.055490
O6	O	0.794222	0.792850	-0.195854
O7	O	0.794271	0.541443	-0.055359
O8	O	0.523429	0.792832	0.055520
O9	O	1.065078	0.541457	-0.195885
O10	O	0.705117	0.778779	-0.041269
O11	O	0.705138	0.696041	0.041447
O12	O	0.883369	0.696053	-0.124004
O13	O	0.883390	0.613316	-0.041289
Zr14	Zr	0.794253	0.825817	0.088495
Zr15	Zr	0.794231	0.825822	-0.088296
Zr16	Zr	0.794276	0.649005	0.088474
Zr17	Zr	0.984724	0.649018	-0.088317
Zr18	Zr	0.603783	0.825809	0.088495
O19	O	0.945652	0.792849	0.055520
O20	O	0.945620	0.792856	-0.195854
O21	O	0.945684	0.541445	0.055489
O22	O	0.642855	0.933374	0.196063
O23	O	0.642823	0.933382	-0.055311
O24	O	0.642886	0.681971	0.196032
O25	O	0.794222	0.933388	-0.055312
O26	O	0.794271	0.792838	0.196045
O27	O	0.794285	0.681977	0.196032
O28	O	0.794236	0.933385	0.055537
O29	O	1.065060	0.681999	-0.195868
O30	O	0.523446	0.792828	0.196046
O31	O	0.523429	0.933370	0.196063
O32	O	0.523411	0.933374	0.055537
O33	O	1.065096	0.541453	-0.055359
O34	O	1.065078	0.681995	-0.055342
O35	O	0.705138	0.778774	0.124182
O36	O	0.705117	0.861511	0.041467
O37	O	0.883369	0.778786	-0.041269
O38	O	0.883390	0.696048	0.041446
C39	C	0.556004	0.737404	0.000089
C40	C	0.475144	0.737401	0.000089
C41	C	0.409475	0.737400	0.000091
C42	C	0.327087	0.737405	0.000093
C43	C	0.261421	0.737413	0.000091
C44	C	0.179029	0.737418	0.000091
C45	C	0.794281	0.516249	0.000062
C46	C	0.794291	0.441188	0.000053
C47	C	0.891459	0.214737	-0.045030
C48	C	0.842869	0.192375	-0.077717
C49	C	0.794264	0.303781	0.000077
C50	C	0.842860	0.192403	0.032748
C51	C	0.794246	0.171049	0.000099
C52	C	0.745674	0.282408	-0.032655
C53	C	0.745679	0.282433	0.077852
C54	C	0.697018	0.260124	0.045185
C55	C	0.794278	0.380243	0.000062
C56	C	0.794225	0.094592	0.000113
C57	C	1.032503	0.737423	0.000089
C58	C	1.113363	0.737426	0.000089
C59	C	0.794225	0.737420	-0.221050
C60	C	0.794216	0.737423	-0.296102
C61	C	0.794225	0.958578	0.000116
C62	C	0.794216	1.033639	0.000125
C63	C	0.697048	0.782525	-0.432357
C64	C	0.745638	0.704734	-0.499820
C65	C	0.794242	0.737415	-0.433533
C66	C	0.745646	0.815190	-0.499806
C67	C	0.794261	0.737413	-0.566283
C68	C	0.842833	0.659577	-0.500007
C69	C	0.842828	0.770090	-0.499983
C70	C	0.891488	0.692252	-0.567458
C71	C	0.794229	0.737416	-0.357059
C72	C	0.794282	0.737403	-0.642759
C73	C	0.794281	0.737407	0.221228
C74	C	0.794291	0.737405	0.296280
C75	C	0.555976	0.958569	0.000116
C76	C	0.475106	1.033627	0.000125
C77	C	0.556032	0.737398	0.221228
C78	C	0.475181	0.737392	0.296280
C79	C	0.556004	0.958562	0.221255
C80	C	0.475144	1.033618	0.296316
C81	C	1.032503	0.516265	-0.221077
C82	C	1.113363	0.441209	-0.296138
C83	C	1.032531	0.516258	0.000062
C84	C	1.113400	0.441200	0.000053
C85	C	1.032475	0.737429	-0.221050
C86	C	1.113325	0.737435	-0.296102
C87	C	0.437129	1.025690	-0.043065
C88	C	0.361154	1.096208	-0.043073
C89	C	0.323153	1.174663	0.000115
C90	C	0.361138	1.182599	0.043306
C91	C	0.437116	1.112081	0.043309
C92	C	0.437213	0.780575	0.374720
C93	C	0.361256	0.780567	0.445247
C94	C	0.323264	0.737380	0.437331
C95	C	0.361240	0.694192	0.358883
C96	C	0.437200	0.694196	0.288359
C97	C	0.437160	1.112061	0.288389
C98	C	0.361195	1.182590	0.358911
C99	C	0.323208	1.174676	0.437359
C100	C	0.361199	1.096225	0.445284
C101	C	0.437169	1.025697	0.374763
C102	C	1.151356	0.362766	-0.288212
C103	C	1.227345	0.292237	-0.358733
C104	C	1.265335	0.300151	-0.437181
C105	C	1.227339	0.378602	-0.445106
C106	C	1.151356	0.449130	-0.374585
C107	C	1.151385	0.449137	0.043235
C108	C	1.227381	0.378619	0.043224
C109	C	1.265385	0.300164	0.000034
C110	C	1.227397	0.292228	-0.043154
C111	C	1.151408	0.362746	-0.043147
C112	C	1.151294	0.780630	-0.288161
C113	C	1.227251	0.780651	-0.358674
C114	C	1.265244	0.737472	-0.437128
C115	C	1.227268	0.694275	-0.445067
C116	C	1.151307	0.694259	-0.374555
H117	H	0.973641	0.196290	-0.083230
H118	H	0.468077	1.118521	0.224520
F119	F	0.320761	1.087814	0.528780
F120	F	1.110984	0.354286	-0.089106
F121	F	1.267852	0.208724	-0.089115
F122	F	0.242353	1.249746	0.512407
F123	F	1.346260	0.225120	0.000034
F124	F	0.477562	0.942199	-0.089037
H125	H	1.120372	0.815792	-0.224286
H126	H	0.330186	1.246486	0.078468
H127	H	1.327097	0.737491	-0.494536
F128	F	0.477596	0.648236	0.204879
H129	H	0.330270	1.246462	0.352444
H130	H	1.258214	0.659120	-0.508954
H131	H	0.614868	0.820608	-0.374516
H132	H	1.258163	0.815826	-0.352193
H133	H	1.120402	0.659081	-0.381033
H134	H	0.883942	0.153569	-0.143482
H135	H	0.614769	0.278726	0.083331
F136	F	0.242418	0.737384	0.512399
F137	F	0.692041	0.333155	0.163794
F138	F	0.692033	0.332971	-0.068876
H139	H	0.468027	1.118555	0.078484
H140	H	1.120423	0.513000	-0.381049
F141	F	0.691956	0.668602	-0.500708
H142	H	0.468085	0.961828	0.381229
H143	H	1.258268	0.228366	-0.352264
F144	F	0.896494	0.573564	-0.499242
H145	H	0.883964	0.153602	0.060370
H146	H	1.258298	0.385097	0.078396
F147	F	0.320794	0.648233	0.350472
F148	F	1.110936	0.354324	-0.204728
H149	H	1.327205	0.242716	-0.494597
H150	H	0.468138	0.815743	0.381180
H151	H	0.973738	0.654049	-0.625204
H152	H	1.258281	0.385037	-0.508986
H153	H	0.883864	0.797750	-0.499273
H154	H	0.704547	0.880967	-0.500450
H155	H	0.261286	1.232076	0.000107
H156	H	0.330237	1.089730	-0.078244
F157	F	0.320851	0.826538	0.528729
H158	H	1.120448	0.513013	0.078411
