data_functionalizedCrystal
_audit_creation_method	'MofGen! by Chris Wilmer'
_symmetry_space_group_name_H-M	'P1'
_symmetry_Int_Tables_number	1
_symmetry_cell_setting	triclinic
loop_
_symmetry_equiv_pos_as_xyz
  x,y,z
_cell_length_a	10.723022
_cell_length_b	10.723023
_cell_length_c	9.798715
_cell_angle_alpha	89.997861
_cell_angle_beta	89.996609
_cell_angle_gamma	84.467387
loop_
_atom_site_label
_atom_site_type_symbol
_atom_site_fract_x
_atom_site_fract_y
_atom_site_fract_z
O1	O	1.657188	0.175015	-0.113479
O2	O	1.294035	0.191771	-0.113483
O3	O	1.483989	0.001817	-0.113475
O4	O	1.467234	0.364969	-0.113487
O5	O	1.483975	0.001816	0.113507
O6	O	1.294021	0.191770	0.113499
O7	O	1.657174	0.175015	0.113503
Zn8	Zn	1.475595	0.183392	0.149539
Zn9	Zn	1.475614	0.183393	-0.149519
O10	O	1.467220	0.364969	0.113495
C11	C	1.247529	0.190551	0.000007
C12	C	1.108974	0.186904	0.000006
C13	C	0.890796	0.289421	-0.000000
C14	C	1.033998	0.293192	0.000001
C15	C	1.482763	-0.044683	0.000014
C16	C	1.479115	-0.183238	0.000010
C17	C	1.703681	0.176234	0.000010
C18	C	1.842235	0.179881	0.000002
C19	C	1.477497	-0.245003	-0.117576
C20	C	1.473727	-0.388206	-0.117583
C21	C	1.468446	0.411469	0.000003
C22	C	1.472094	0.550023	-0.000002
N23	N	1.475591	0.183391	0.353639
N24	N	1.475627	0.183384	-0.353619
C25	C	1.555348	0.103283	0.421419
C26	C	1.555368	0.103279	0.578582
H27	H	0.826353	0.380409	-0.000012
F28	F	1.386352	0.273028	0.429864
F29	F	1.471917	-0.457630	-0.249170
F30	F	1.473922	-0.380563	0.131591
F31	F	1.477270	-0.252685	0.131590
F32	F	1.644358	0.013419	0.345194
F33	F	1.644627	0.013638	0.654765
F34	F	1.386377	0.273041	0.570206
H35	H	1.075810	0.386980	0.000007
F36	F	1.054337	0.064308	0.000018
H37	H	1.478896	-0.191865	-0.218239
H38	H	0.906677	0.088892	-0.000003
