data_functionalizedCrystal
_audit_creation_method	'MofGen! by Chris Wilmer'
_symmetry_space_group_name_H-M	'P1'
_symmetry_Int_Tables_number	1
_symmetry_cell_setting	triclinic
loop_
_symmetry_equiv_pos_as_xyz
  x,y,z
_cell_length_a	19.288864
_cell_length_b	15.944551
_cell_length_c	18.366186
_cell_angle_alpha	89.992809
_cell_angle_beta	89.977106
_cell_angle_gamma	83.317492
loop_
_atom_site_label
_atom_site_type_symbol
_atom_site_fract_x
_atom_site_fract_y
_atom_site_fract_z
O1	O	0.921629	0.104784	-0.060785
O2	O	1.421629	0.604784	0.439215
O3	O	0.719405	0.118919	-0.060735
O4	O	1.219405	0.618919	0.439265
O5	O	0.826039	-0.010445	-0.060755
O6	O	1.326039	0.489555	0.439245
O7	O	0.814995	0.234147	-0.060765
O8	O	1.314995	0.734147	0.439235
O9	O	0.826021	-0.010451	0.060345
O10	O	1.326021	0.489549	0.560345
O11	O	0.719387	0.118912	0.060364
O12	O	1.219387	0.618912	0.560364
O13	O	0.921611	0.104777	0.060315
O14	O	1.421611	0.604777	0.560315
Zn15	Zn	0.820496	0.111844	0.079567
Zn16	Zn	1.320496	0.611844	0.579567
Zn17	Zn	0.820520	0.111852	-0.079987
Zn18	Zn	1.320520	0.611852	0.420013
O19	O	0.814977	0.234141	0.060334
O20	O	1.314977	0.734141	0.560334
C21	C	0.693519	0.118461	-0.000179
C22	C	1.193519	0.618461	0.499821
C23	C	0.616411	0.117095	-0.000160
C24	C	1.116411	0.617095	0.499840
C25	C	0.571915	0.193000	-0.000175
C26	C	1.071915	0.693000	0.499825
C27	C	0.499465	0.191717	-0.000183
C28	C	0.999465	0.691717	0.499817
C29	C	0.471514	0.114526	-0.000191
C30	C	0.971514	0.614526	0.499809
C31	C	0.516020	0.038611	-0.000172
C32	C	1.016020	0.538611	0.499828
C33	C	0.588469	0.039896	-0.000156
C34	C	1.088469	0.539896	0.499844
C35	C	0.363098	0.053847	-0.042639
C36	C	0.863098	0.553847	0.457361
C37	C	0.290650	0.052565	-0.042659
C38	C	0.790650	0.552565	0.457341
C39	C	0.248058	0.110560	-0.000234
C40	C	0.748058	0.610560	0.499766
C41	C	0.277920	0.169850	0.042200
C42	C	0.777920	0.669850	0.542200
C43	C	0.350369	0.171135	0.042216
C44	C	0.850369	0.671135	0.542216
C45	C	0.392956	0.113124	-0.000207
C46	C	0.892956	0.613124	0.499793
C47	C	0.125002	0.185079	-0.000257
C48	C	0.625002	0.685079	0.499743
C49	C	0.052550	0.183793	-0.000260
C50	C	0.552550	0.683793	0.499740
C51	C	0.069107	0.030684	-0.000257
C52	C	0.569107	0.530684	0.499743
C53	C	0.141557	0.031972	-0.000246
C54	C	0.641557	0.531972	0.499754
C55	C	0.169500	0.109172	-0.000249
C56	C	0.669500	0.609172	0.499751
C57	C	0.825572	-0.041740	-0.000205
C58	C	1.325572	0.458260	0.499795
C59	C	0.824197	-0.134981	-0.000204
C60	C	1.324197	0.365019	0.499796
C61	C	0.754815	-0.349571	-0.000197
C62	C	1.254815	0.150429	0.499803
C63	C	0.787025	-0.410715	0.059504
C64	C	1.287025	0.089285	0.559504
C65	C	0.821710	-0.305697	-0.000209
C66	C	1.321710	0.194303	0.499791
C67	C	0.787058	-0.410692	-0.059890
C68	C	1.287058	0.089308	0.440110
C69	C	0.819303	-0.470601	-0.000217
C70	C	1.319303	0.029399	0.499783
C71	C	0.853939	-0.365614	0.059542
C72	C	1.353939	0.134386	0.559542
C73	C	0.853963	-0.365585	-0.059906
C74	C	1.353963	0.134415	0.440094
C75	C	0.886222	-0.426712	-0.000190
C76	C	1.386222	0.073288	0.499810
C77	C	0.823095	-0.210700	-0.000204
C78	C	1.323095	0.289300	0.499796
C79	C	0.817924	-0.565597	-0.000217
C80	C	1.317924	-0.065597	0.499783
C81	C	0.947497	0.105235	-0.000243
C82	C	1.447497	0.605235	0.499757
C83	C	1.024605	0.106600	-0.000267
C84	C	1.524605	0.606600	0.499733
C85	C	0.815444	0.265436	-0.000217
C86	C	1.315444	0.765436	0.499783
C87	C	0.816819	0.358677	-0.000223
C88	C	1.316819	0.858677	0.499777
N89	N	0.820485	0.111838	0.188458
N90	N	1.320485	0.611838	0.688458
N91	N	0.820537	0.111852	-0.188878
N92	N	1.320537	0.611852	0.311122
C93	C	0.867718	0.054583	0.226549
C94	C	1.367718	0.554583	0.726549
C95	C	0.867722	0.054580	0.302777
C96	C	1.367722	0.554580	0.802777
C97	C	0.820500	0.111844	0.340910
C98	C	1.320500	0.611844	0.840910
C99	C	0.773258	0.169103	0.302810
C100	C	1.273258	0.669103	0.802810
C101	C	0.773251	0.169100	0.226583
C102	C	1.273251	0.669100	0.726583
C103	C	0.811404	0.188378	0.461669
C104	C	1.311404	0.688378	0.961669
C105	C	0.811416	0.188383	0.537894
C106	C	1.311416	0.688383	1.037894
C107	C	0.820520	0.111855	0.576018
C108	C	1.320520	0.611855	1.076018
C109	C	0.829626	0.035320	0.537908
C110	C	1.329626	0.535320	1.037908
C111	C	0.829618	0.035316	0.461681
C112	C	1.329618	0.535316	0.961681
C113	C	0.820503	0.111854	0.423565
C114	C	1.320503	0.611854	0.923565
C115	C	0.867760	0.054592	0.696765
C116	C	1.367760	0.554592	1.196765
C117	C	0.867760	0.054587	0.772994
C118	C	1.367760	0.554587	1.272994
C119	C	0.773299	0.169118	0.773025
C120	C	1.273299	0.669118	1.273025
C121	C	0.773296	0.169115	0.696797
C122	C	1.273296	0.669115	1.196797
C123	C	0.820531	0.111853	0.658671
C124	C	1.320531	0.611853	1.158671
H125	H	0.397772	0.006619	-0.077190
H126	H	0.897772	0.506619	0.422810
H127	H	0.493258	-0.024239	-0.000188
H128	H	0.993258	0.475761	0.499812
H129	H	0.941797	-0.460084	-0.000170
H130	H	1.441797	0.039916	0.499830
H131	H	0.266342	0.004290	-0.077214
H132	H	0.766342	0.504290	0.422786
C133	C	0.679804	-0.304277	-0.000097
C134	C	1.179804	0.195723	0.499903
N135	N	0.623308	-0.270160	-0.000017
N136	N	1.123308	0.229840	0.499983
C137	C	0.721386	0.232161	0.654894
C138	C	1.221386	0.732161	1.154894
N139	N	0.682300	0.279669	0.623334
N140	N	1.182300	0.779669	1.123334
H141	H	0.882201	-0.345735	0.110070
H142	H	1.382201	0.154265	0.610070
C143	C	0.383216	0.236346	0.088900
C144	C	0.883216	0.736346	0.588900
N145	N	0.407957	0.285460	0.124068
N146	N	0.907957	0.785460	0.624068
C147	C	0.801388	0.272570	0.419740
C148	C	1.301388	0.772570	0.919740
N149	N	0.793845	0.335981	0.388160
N150	N	1.293845	0.835981	0.888160
H151	H	0.906186	0.007955	0.333797
H152	H	1.406186	0.507955	0.833797
C153	C	0.748790	-0.437741	0.127707
C154	C	1.248790	0.062259	0.627707
N155	N	0.719987	-0.458095	0.179075
N156	N	1.219987	0.041905	0.679075
C157	C	0.892164	-0.338529	-0.128116
C158	C	1.392164	0.161471	0.371884
N159	N	0.920932	-0.318148	-0.179497
N160	N	1.420932	0.181852	0.320503
C161	C	0.919712	-0.008404	0.654824
C162	C	1.419712	0.491596	1.154824
N163	N	0.958841	-0.055855	0.623236
N164	N	1.458841	0.444145	1.123236
C165	C	0.637417	-0.043609	-0.000145
C166	C	1.137417	0.456391	0.499855
N167	N	0.674286	-0.106506	-0.000139
N168	N	1.174286	0.393494	0.499861
C169	C	0.721311	0.232091	0.344758
C170	C	1.221311	0.732091	0.844758
N171	N	0.682180	0.279532	0.376353
N172	N	1.182180	0.779532	0.876353
C173	C	0.748830	-0.437677	-0.128075
C174	C	1.248830	0.062323	0.371925
N175	N	0.720032	-0.457997	-0.179429
N176	N	1.220032	0.042003	0.320571
H177	H	0.906177	0.007955	0.195510
H178	H	1.406177	0.507955	0.695510
H179	H	0.837031	-0.027002	0.430655
H180	H	1.337031	0.472998	0.930655
H181	H	0.837039	-0.026997	0.568947
H182	H	1.337039	0.473003	1.068947
C183	C	0.721318	0.232123	0.184681
C184	C	1.221318	0.732123	0.684681
N185	N	0.682214	0.279607	0.153119
N186	N	1.182214	0.779607	0.653119
H187	H	0.594661	0.255862	-0.000179
H188	H	1.094661	0.755862	0.499821
C189	C	0.721355	0.232111	0.814967
C190	C	1.221355	0.732111	1.314967
N191	N	0.682228	0.279559	0.846561
N192	N	1.182228	0.779559	1.346561
H193	H	0.906221	0.007959	0.804009
H194	H	1.406221	0.507959	1.304009
H195	H	0.046351	-0.032167	-0.000308
H196	H	0.546351	0.467833	0.499692
H197	H	0.463229	0.253530	-0.000193
H198	H	0.963229	0.753530	0.499807
C199	C	0.231074	0.233647	0.088874
C200	C	0.731074	0.733647	0.588874
N201	N	0.195786	0.281698	0.124026
N202	N	0.695786	0.781698	0.624026
C203	C	0.155741	0.269999	-0.000251
C204	C	0.655741	0.769999	0.499749
N205	N	0.178892	0.333962	-0.000246
N206	N	0.678892	0.833962	0.499754
C207	C	0.801393	0.272572	0.579808
C208	C	1.301393	0.772572	1.079808
N209	N	0.793839	0.335986	0.611376
N210	N	1.293839	0.835986	1.111376
H211	H	0.177787	-0.029838	-0.000238
H212	H	0.677787	0.470162	0.499762
C213	C	0.003603	0.267299	-0.000266
C214	C	0.503603	0.767299	0.499734
N215	N	-0.033264	0.330197	-0.000268
N216	N	0.466736	0.830197	0.499732
