data_functionalizedCrystal
_audit_creation_method	'MofGen! by Chris Wilmer'
_symmetry_space_group_name_H-M	'P1'
_symmetry_Int_Tables_number	1
_symmetry_cell_setting	triclinic
loop_
_symmetry_equiv_pos_as_xyz
  x,y,z
_cell_length_a	23.532407
_cell_length_b	15.995350
_cell_length_c	22.610064
_cell_angle_alpha	89.995416
_cell_angle_beta	90.000603
_cell_angle_gamma	96.829474
loop_
_atom_site_label
_atom_site_type_symbol
_atom_site_fract_x
_atom_site_fract_y
_atom_site_fract_z
O1	O	0.073400	-1.110381	0.049141
O2	O	0.573400	-0.610381	0.549141
O3	O	0.082465	-0.866530	0.049154
O4	O	0.582465	-0.366530	0.549154
O5	O	-0.004971	-0.995809	0.049136
O6	O	0.495029	-0.495809	0.549136
O7	O	0.160836	-0.981102	0.049158
O8	O	0.660836	-0.481102	0.549158
O9	O	-0.004958	-0.995786	-0.049233
O10	O	0.495042	-0.495786	0.450767
O11	O	0.082478	-0.866507	-0.049216
O12	O	0.582478	-0.366507	0.450784
O13	O	0.073413	-1.110358	-0.049229
O14	O	0.573413	-0.610358	0.450771
Zn15	Zn	0.077947	-0.988429	-0.064840
Zn16	Zn	0.577947	-0.488429	0.435160
Zn17	Zn	0.077930	-0.988459	0.064765
Zn18	Zn	0.577930	-0.488459	0.564765
O19	O	0.160848	-0.981079	-0.049211
O20	O	0.660848	-0.481079	0.450789
C21	C	-0.026182	-0.995423	-0.000050
C22	C	0.473818	-0.495423	0.499950
C23	C	-0.089404	-0.994297	-0.000055
C24	C	0.410596	-0.494297	0.499945
C25	C	0.082096	-0.835327	-0.000029
C26	C	0.582096	-0.335327	0.499971
C27	C	0.080973	-0.742386	-0.000025
C28	C	0.580973	-0.242386	0.499975
C29	C	0.073781	-1.141561	-0.000044
C30	C	0.573781	-0.641561	0.499956
C31	C	0.074905	-1.234502	-0.000045
C32	C	0.574905	-0.734502	0.499955
C33	C	-0.488239	-1.063739	-0.000026
C34	C	0.011761	-0.563739	0.499974
C35	C	-0.547644	-1.062693	-0.000021
C36	C	-0.047644	-0.562693	0.499979
O37	O	-0.584141	-1.127067	-0.000003
O38	O	-0.084141	-0.627067	0.499997
N39	N	-0.570566	-0.985837	-0.000018
N40	N	-0.070566	-0.485837	0.499982
C41	C	-0.534080	-0.910022	-0.000013
C42	C	-0.034080	-0.410022	0.499987
O43	O	-0.559031	-0.844554	-0.000009
O44	O	-0.059031	-0.344554	0.499991
C45	C	-0.474677	-0.911069	-0.000013
C46	C	0.025323	-0.411069	0.499987
C47	C	-0.451758	-0.987930	-0.000023
C48	C	0.048242	-0.487930	0.499977
C49	C	-0.465320	-1.140594	-0.000035
C50	C	0.034680	-0.640594	0.499965
C51	C	-0.405920	-1.141640	-0.000041
C52	C	0.094080	-0.641640	0.499959
C53	C	-0.369439	-1.065830	-0.000037
C54	C	0.130561	-0.565830	0.499963
C55	C	-0.392358	-0.988975	-0.000028
C56	C	0.107642	-0.488975	0.499972
C57	C	-0.438192	-0.835255	-0.000004
C58	C	0.061808	-0.335255	0.499996
C59	C	-0.378785	-0.836308	-0.000003
C60	C	0.121215	-0.336308	0.499997
C61	C	-0.355867	-0.913169	-0.000013
C62	C	0.144133	-0.413169	0.499987
C63	C	-0.296477	-0.914212	-0.000031
C64	C	0.203523	-0.414212	0.499969
N65	N	-0.273555	-0.991068	-0.000034
N66	N	0.226445	-0.491068	0.499966
C67	C	-0.310036	-1.066877	-0.000038
C68	C	0.189964	-0.566877	0.499962
C69	C	-0.658831	-0.907829	-0.000011
C70	C	-0.158831	-0.407829	0.499989
C71	C	-0.718233	-0.906781	-0.000015
C72	C	-0.218233	-0.406781	0.499985
C73	C	-0.731793	-1.059453	-0.000023
C74	C	-0.231793	-0.559453	0.499977
C75	C	-0.672389	-1.060500	-0.000023
C76	C	-0.172389	-0.560500	0.499977
C77	C	-0.635909	-0.984685	-0.000015
C78	C	-0.135909	-0.484685	0.499985
C79	C	-0.185291	-1.069067	-0.000050
C80	C	0.314709	-0.569067	0.499950
C81	C	-0.125885	-1.070106	-0.000058
C82	C	0.374115	-0.570106	0.499942
C83	C	-0.112330	-0.917435	-0.000047
C84	C	0.387670	-0.417435	0.499953
C85	C	-0.171731	-0.916396	-0.000042
C86	C	0.328269	-0.416396	0.499958
C87	C	-0.208210	-0.992219	-0.000042
C88	C	0.291790	-0.492219	0.499958
O89	O	-0.259945	-0.849872	-0.000047
O90	O	0.240055	-0.349872	0.499953
O91	O	-0.285076	-1.132335	-0.000034
O92	O	0.214924	-0.632335	0.499966
C93	C	0.182060	-0.981465	-0.000023
C94	C	0.682060	-0.481465	0.499977
C95	C	0.245281	-0.982591	-0.000015
C96	C	0.745281	-0.482591	0.499985
N97	N	0.077958	-0.988415	-0.153293
N98	N	0.577958	-0.488415	0.346707
C99	C	0.076938	-0.404672	-0.000038
C100	C	0.576938	0.095328	0.499962
C101	C	0.014668	-0.452624	-0.000266
C102	C	0.514668	0.047376	0.499734
C103	C	0.015792	-0.549305	-0.000040
C104	C	0.515792	-0.049305	0.499960
C105	C	0.078939	-0.572216	-0.000032
C106	C	0.578939	-0.072216	0.499968
C107	C	0.109646	-0.530886	0.056144
C108	C	0.609646	-0.030886	0.556144
C109	C	0.108082	-0.434264	0.056186
C110	C	0.608082	0.065736	0.556186
C111	C	0.109383	-0.433888	-0.055678
C112	C	0.609383	0.066112	0.444322
C113	C	0.109368	-0.530834	-0.056416
C114	C	0.609368	-0.030834	0.443584
C115	C	0.080074	-0.666904	-0.000026
C116	C	0.580074	-0.166904	0.499974
C117	C	0.075805	-0.309984	-0.000039
C118	C	0.575805	0.190016	0.499961
C119	C	0.039220	-1.045706	-0.561942
C120	C	0.539220	-0.545706	-0.061942
C121	C	0.039216	-1.045711	-0.623862
C122	C	0.539216	-0.545711	-0.123862
O123	O	0.006287	-1.094386	-0.655887
O124	O	0.506287	-0.594386	-0.155887
N125	N	0.077918	-0.988459	-0.654830
N126	N	0.577918	-0.488459	-0.154830
C127	C	0.116624	-0.931193	-0.623875
C128	C	0.616624	-0.431193	-0.123875
O129	O	0.149543	-0.882495	-0.655901
O130	O	0.649543	-0.382495	-0.155901
C131	C	0.116625	-0.931185	-0.561956
C132	C	0.616625	-0.431185	-0.061956
C133	C	0.077924	-0.988447	-0.530991
C134	C	0.577924	-0.488447	-0.030991
C135	C	0.000521	-1.102962	-0.530977
C136	C	0.500521	-0.602962	-0.030977
C137	C	0.000526	-1.102959	-0.469061
C138	C	0.500526	-0.602959	0.030939
C139	C	0.039230	-1.045699	-0.438111
C140	C	0.539230	-0.545699	0.061889
C141	C	0.077929	-0.988443	-0.469076
C142	C	0.577929	-0.488443	0.030924
C143	C	0.155328	-0.873916	-0.531002
C144	C	0.655328	-0.373916	-0.031002
C145	C	0.155325	-0.873913	-0.469079
C146	C	0.655325	-0.373913	0.030921
C147	C	0.116623	-0.931175	-0.438114
C148	C	0.616623	-0.431175	0.061886
C149	C	0.116637	-0.931180	-0.376209
C150	C	0.616637	-0.431180	0.123791
N151	N	0.077934	-0.988432	-0.345241
N152	N	0.577934	-0.488432	0.154759
C153	C	0.039231	-1.045692	-0.376192
C154	C	0.539231	-0.545692	0.123808
C155	C	0.116619	-0.931212	-0.753908
C156	C	0.616619	-0.431212	-0.253908
C157	C	0.116621	-0.931223	-0.815826
C158	C	0.616621	-0.431223	-0.315826
C159	C	0.039211	-1.045740	-0.815809
C160	C	0.539211	-0.545740	-0.315809
C161	C	0.039212	-1.045732	-0.753890
C162	C	0.539212	-0.545732	-0.253890
C163	C	0.077916	-0.988464	-0.722940
C164	C	0.577916	-0.488464	-0.222940
C165	C	0.039244	-1.045680	-0.246165
C166	C	0.539244	-0.545680	0.253835
C167	C	0.039254	-1.045674	-0.184243
C168	C	0.539254	-0.545674	0.315757
C169	C	0.116662	-0.931155	-0.184266
C170	C	0.616662	-0.431155	0.315734
C171	C	0.116654	-0.931164	-0.246182
C172	C	0.616654	-0.431164	0.253818
C173	C	0.077940	-0.988430	-0.277130
C174	C	0.577940	-0.488430	0.222870
O175	O	0.149548	-0.882527	-0.344144
O176	O	0.649548	-0.382527	0.155856
O177	O	0.006312	-1.094374	-0.344158
O178	O	0.506312	-0.594374	0.155842
N179	N	0.077915	-0.988480	0.153218
N180	N	0.577915	-0.488480	0.653218
H181	H	-0.107228	-1.132698	-0.000067
H182	H	0.392772	-0.632698	0.499933
Br183	Br	-0.749328	-0.802466	-0.000016
Br184	Br	-0.249328	-0.302466	0.499984
H185	H	0.007720	-1.092311	-0.271355
H186	H	0.507720	-0.592311	0.228645
Br187	Br	0.207853	-0.796201	-0.573013
Br188	Br	0.707853	-0.296201	-0.073013
Br189	Br	0.169156	-0.853522	-0.857843
Br190	Br	0.669156	-0.353522	-0.357843
H191	H	-0.629131	-0.846088	-0.000009
H192	H	-0.129131	-0.346088	0.499991
H193	H	-0.214986	-1.130810	-0.000047
H194	H	0.285014	-0.630810	0.499953
Br195	Br	0.070742	-0.404070	0.126167
Br196	Br	0.570742	0.095930	0.626167
Br197	Br	-0.024547	-0.596060	0.067302
Br198	Br	0.475453	-0.096060	0.567302
H199	H	-0.387266	-1.204228	-0.000046
H200	H	0.112734	-0.704228	0.499954
H201	H	0.186842	-0.827276	-0.443883
H202	H	0.686842	-0.327276	0.056117
Br203	Br	0.185905	-0.380317	-0.056302
Br204	Br	0.685905	0.119683	0.443698
Br205	Br	0.074084	-0.578487	0.125818
Br206	Br	0.574084	-0.078487	0.625818
Br207	Br	-0.013270	-1.123394	-0.142223
Br208	Br	0.486730	-0.623394	0.357777
H209	H	-0.030990	-1.149584	-0.443854
H210	H	0.469010	-0.649584	0.056146
H211	H	-0.030999	-1.149590	-0.556172
H212	H	0.469001	-0.649590	-0.056172
H213	H	0.153799	-0.401636	0.058741
H214	H	0.653799	0.098364	0.558741
Br215	Br	-0.013313	-1.123447	-0.711873
Br216	Br	0.486687	-0.623447	-0.211873
Br217	Br	0.186965	-0.553810	0.059651
Br218	Br	0.686965	-0.053810	0.559651
Br219	Br	-0.514821	-1.243493	-0.000039
Br220	Br	-0.014821	-0.743493	0.499961
Br221	Br	-0.013316	-1.123450	-0.857827
Br222	Br	0.486684	-0.623450	-0.357827
Br223	Br	0.075460	-0.399932	-0.126647
Br224	Br	0.575460	0.100068	0.373353
H225	H	-0.653734	-1.123087	-0.000030
H226	H	-0.153734	-0.623087	0.499970
H227	H	0.148140	-0.884580	-0.728712
H228	H	0.648140	-0.384580	-0.228712
H229	H	0.148174	-0.884544	-0.271394
H230	H	0.648174	-0.384544	0.228606
H231	H	-0.010218	-0.434300	-0.040552
H232	H	0.489782	0.065700	0.459448
Br233	Br	0.169188	-0.853450	-0.142252
Br234	Br	0.669188	-0.353450	0.357748
H235	H	-0.761507	-1.121181	-0.000023
H236	H	-0.261507	-0.621181	0.499977
H237	H	-0.456841	-0.772666	0.000008
H238	H	0.043159	-0.272666	0.500008
Br239	Br	0.071943	-0.576541	-0.125683
Br240	Br	0.571943	-0.076541	0.374317
Br241	Br	-0.329279	-0.733411	0.000010
Br242	Br	0.170721	-0.233411	0.500010
H243	H	-0.190392	-0.853809	-0.000051
H244	H	0.309608	-0.353809	0.499949
H245	H	-0.082617	-0.855713	-0.000047
H246	H	0.417383	-0.355713	0.499953
H247	H	-0.008346	-0.577925	-0.040309
H248	H	0.491654	-0.077925	0.459691
H249	H	-0.010114	-0.433246	0.039791
H250	H	0.489886	0.066754	0.539791
H251	H	0.155418	-0.545815	-0.059803
H252	H	0.655418	-0.045815	0.440197
