data_functionalizedCrystal
_audit_creation_method	'MofGen! by Chris Wilmer'
_symmetry_space_group_name_H-M	'P1'
_symmetry_Int_Tables_number	1
_symmetry_cell_setting	triclinic
loop_
_symmetry_equiv_pos_as_xyz
  x,y,z
_cell_length_a	18.215407
_cell_length_b	18.050589
_cell_length_c	18.215399
_cell_angle_alpha	89.973988
_cell_angle_beta	89.983176
_cell_angle_gamma	90.028669
loop_
_atom_site_label
_atom_site_type_symbol
_atom_site_fract_x
_atom_site_fract_y
_atom_site_fract_z
Zn1	Zn	1.125033	-0.295641	-0.416138
Zn2	Zn	1.625033	0.204359	0.083862
Zn3	Zn	1.124941	-0.419841	-0.293081
Zn4	Zn	1.624941	0.080159	0.206919
Zn5	Zn	1.001972	-0.295670	-0.293085
Zn6	Zn	1.501972	0.204330	0.206915
Zn7	Zn	1.001924	-0.419794	-0.416106
Zn8	Zn	1.501924	0.080206	0.083894
O9	O	1.063468	-0.357736	-0.354603
O10	O	1.563468	0.142264	0.145397
O11	O	1.228005	-0.312123	-0.399826
O12	O	1.728005	0.187877	0.100174
O13	O	1.108610	-0.403401	-0.190097
O14	O	1.608610	0.096599	0.309903
O15	O	1.018355	-0.191742	-0.309424
O16	O	1.518355	0.308258	0.190576
O17	O	1.227937	-0.403372	-0.309417
O18	O	1.727937	0.096628	0.190583
O19	O	1.108767	-0.191720	-0.399830
O20	O	1.608767	0.308280	0.100170
O21	O	1.018265	-0.312173	-0.190101
O22	O	1.518265	0.187827	0.309899
O23	O	0.898981	-0.312128	-0.309393
O24	O	1.398981	0.187872	0.190607
O25	O	1.018274	-0.403293	-0.519095
O26	O	1.518274	0.096707	-0.019095
O27	O	0.898946	-0.403322	-0.399775
O28	O	1.398946	0.096678	0.100225
O29	O	1.108721	-0.312078	-0.519118
O30	O	1.608721	0.187922	-0.019118
O31	O	1.108564	-0.523759	-0.309385
O32	O	1.608564	-0.023759	0.190615
O33	O	1.018184	-0.523725	-0.399771
O34	O	1.518184	-0.023725	0.100229
C35	C	0.872261	-0.357724	-0.354582
C36	C	1.372261	0.142276	0.145418
C37	C	0.790462	-0.357736	-0.354590
C38	C	1.290462	0.142264	0.145410
C39	C	1.063379	-0.550689	-0.354590
C40	C	1.563379	-0.050689	0.145410
C41	C	1.063408	-0.633234	-0.354610
C42	C	1.563408	-0.133234	0.145390
C43	C	0.602269	-0.405295	-0.401593
C44	C	1.102269	0.094705	0.098407
C45	C	0.525411	-0.405298	-0.401602
C46	C	1.025411	0.094702	0.098398
C47	C	0.525418	-0.310191	-0.307628
C48	C	1.025418	0.189809	0.192372
C49	C	0.602275	-0.310185	-0.307623
C50	C	1.102275	0.189815	0.192377
C51	C	0.640699	-0.357742	-0.354605
C52	C	1.140699	0.142258	0.145395
C53	C	0.486983	-0.357750	-0.354619
C54	C	0.986983	0.142250	0.145381
C55	C	0.403649	-0.357752	-0.354628
C56	C	0.903649	0.142248	0.145372
C57	C	0.724038	-0.357739	-0.354596
C58	C	1.224038	0.142261	0.145404
C59	C	1.014308	-0.832693	-0.403744
C60	C	1.514308	-0.332693	0.096256
C61	C	0.996372	-0.882137	-0.336590
C62	C	1.496372	-0.382137	0.163410
C63	C	1.063480	-0.784365	-0.354619
C64	C	1.563480	-0.284365	0.145381
C65	C	1.081453	-0.882003	-0.421781
C66	C	1.581453	-0.382003	0.078219
C67	C	1.063549	-0.930350	-0.354635
C68	C	1.563549	-0.430350	0.145365
C69	C	1.045509	-0.832721	-0.287430
C70	C	1.545509	-0.332721	0.212570
C71	C	1.130621	-0.832583	-0.372666
C72	C	1.630621	-0.332583	0.127334
C73	C	1.112710	-0.882004	-0.305466
C74	C	1.612710	-0.382004	0.194534
C75	C	1.063439	-0.700266	-0.354612
C76	C	1.563439	-0.200266	0.145388
C77	C	1.063590	-1.014446	-0.354635
C78	C	1.563590	-0.514446	0.145365
C79	C	1.255420	-0.357750	-0.354624
C80	C	1.755420	0.142250	0.145376
C81	C	1.337219	-0.357755	-0.354634
C82	C	1.837219	0.142245	0.145366
C83	C	1.063502	-0.357677	-0.546556
C84	C	1.563502	0.142323	-0.046556
C85	C	1.063517	-0.357652	-0.628355
C86	C	1.563517	0.142348	-0.128355
C87	C	1.063577	-0.164031	-0.354631
C88	C	1.563577	0.335969	0.145369
C89	C	1.063623	-0.081485	-0.354643
C90	C	1.563623	0.418515	0.145357
C91	C	1.016515	-0.310117	-0.816551
C92	C	1.516515	0.189883	-0.316551
C93	C	1.016527	-0.310103	-0.893410
C94	C	1.516527	0.189897	-0.393410
C95	C	1.110608	-0.405098	-0.893396
C96	C	1.610608	0.094902	-0.393396
C97	C	1.110591	-0.405116	-0.816539
C98	C	1.610591	0.094884	-0.316539
C99	C	1.063545	-0.357621	-0.778118
C100	C	1.563545	0.142379	-0.278118
C101	C	1.063575	-0.357588	-0.931834
C102	C	1.563575	0.142412	-0.431834
C103	C	1.063589	-0.357572	-1.015168
C104	C	1.563589	0.142428	-0.515168
C105	C	1.063530	-0.357638	-0.694779
C106	C	1.563530	0.142362	-0.194779
C107	C	1.063475	-0.357742	-0.163396
C108	C	1.563475	0.142258	0.336604
C109	C	1.063603	-0.357558	-0.081598
C110	C	1.563603	0.142442	0.418402
H111	H	0.633552	-0.444017	-0.439850
H112	H	1.133552	0.055983	0.060150
H113	H	0.494124	-0.271473	-0.269377
H114	H	0.994124	0.228527	0.230623
H115	H	0.633565	-0.271457	-0.269360
H116	H	1.133565	0.228543	0.230640
H117	H	0.494125	-0.444019	-0.439866
H118	H	0.994125	0.055981	0.060134
H119	H	1.148911	-0.443765	-0.924687
H120	H	1.648911	0.056235	-0.424687
H121	H	0.978207	-0.271445	-0.785272
H122	H	1.478207	0.228555	-0.285272
H123	H	0.939625	-0.903919	-0.321340
H124	H	1.439625	-0.403919	0.178660
H125	H	0.972663	-0.811041	-0.445229
H126	H	1.472663	-0.311041	0.054771
H127	H	1.187355	-0.810802	-0.387948
H128	H	1.687355	-0.310802	0.112052
H129	H	1.148891	-0.443802	-0.785246
H130	H	1.648891	0.056198	-0.285246
H131	H	1.030269	-0.811162	-0.230622
H132	H	1.530269	-0.311162	0.269378
H133	H	0.978230	-0.271421	-0.924699
H134	H	1.478230	0.228579	-0.424699
H135	H	1.096626	-0.903651	-0.478573
H136	H	1.596626	-0.403651	0.021427
H137	H	1.154323	-0.903519	-0.263881
H138	H	1.654323	-0.403519	0.236119
