data_functionalizedCrystal
_audit_creation_method	'MofGen! by Chris Wilmer'
_symmetry_space_group_name_H-M	'P1'
_symmetry_Int_Tables_number	1
_symmetry_cell_setting	triclinic
loop_
_symmetry_equiv_pos_as_xyz
  x,y,z
_cell_length_a	19.188933
_cell_length_b	19.188924
_cell_length_c	15.072220
_cell_angle_alpha	89.996779
_cell_angle_beta	89.988933
_cell_angle_gamma	83.143767
loop_
_atom_site_label
_atom_site_type_symbol
_atom_site_fract_x
_atom_site_fract_y
_atom_site_fract_z
O1	O	0.926150	0.087170	-0.073757
O2	O	0.722839	0.098903	-0.073766
O3	O	0.830364	-0.008620	-0.073751
O4	O	0.818625	0.194692	-0.073772
O5	O	0.830338	-0.008614	0.073814
O6	O	0.722812	0.098909	0.073799
O7	O	0.926124	0.087176	0.073808
Zn8	Zn	0.824464	0.093043	0.097233
Zn9	Zn	0.824499	0.093035	-0.097190
O10	O	0.818599	0.194698	0.073793
C11	C	0.696815	0.098525	0.000016
C12	C	0.619310	0.097384	0.000013
C13	C	0.066070	0.089236	-0.080415
C14	C	0.138894	0.090304	-0.080418
C15	C	0.175296	0.090844	0.000019
C16	C	0.138871	0.090299	0.080466
C17	C	0.066049	0.089224	0.080468
N18	N	0.284305	0.132265	0.059888
N19	N	0.353482	0.133288	0.059882
C20	C	0.394705	0.094082	0.000020
N21	N	0.364136	0.053823	-0.059847
N22	N	0.294951	0.052804	-0.059843
C23	C	0.254260	0.092010	0.000027
C24	C	0.510087	0.095781	-0.080425
C25	C	0.582913	0.096845	-0.080425
C26	C	0.582888	0.096847	0.080461
C27	C	0.510064	0.095776	0.080459
C28	C	0.473667	0.095246	0.000013
C29	C	0.829972	-0.034628	0.000033
C30	C	0.828833	-0.112133	0.000035
C31	C	0.828316	-0.148535	-0.080403
C32	C	0.827236	-0.221358	-0.080410
C33	C	0.826687	-0.257777	0.000026
C34	C	0.827200	-0.221366	0.080475
C35	C	0.828273	-0.148543	0.080479
N36	N	0.864724	-0.377438	0.059894
N37	N	0.863706	-0.446616	0.059884
C38	C	0.823453	-0.477186	0.000017
N39	N	0.784265	-0.435966	-0.059853
N40	N	0.785286	-0.366782	-0.059846
C41	C	0.825523	-0.336741	0.000030
C42	C	0.821764	-0.592551	-0.080434
C43	C	0.820680	-0.665375	-0.080437
C44	C	0.820651	-0.665382	0.080450
C45	C	0.821728	-0.592559	0.080451
C46	C	0.822288	-0.556149	0.000007
C47	C	0.952148	0.087553	0.000025
C48	C	1.029653	0.088694	0.000022
C49	C	0.818991	0.220706	0.000008
C50	C	0.820130	0.298211	-0.000000
N51	N	0.824445	0.093048	0.229922
N52	N	0.824523	0.093025	-0.229879
C53	C	0.824497	0.093032	0.589123
C54	C	0.766771	0.150374	0.551508
C55	C	0.766902	0.150582	0.448682
C56	C	0.824471	0.093040	0.410919
C57	C	0.897273	0.108730	0.448212
C58	C	0.896949	0.109137	0.551069
C59	C	0.810072	0.019830	0.551231
C60	C	0.808399	0.020324	0.448367
C61	C	0.824461	0.093043	0.310206
C62	C	0.824513	0.093031	0.689837
H63	H	0.168515	0.090738	0.145959
H64	H	0.036398	0.088785	0.145971
Br65	Br	0.918194	0.198105	0.591037
H66	H	0.828691	-0.118905	0.145983
H67	H	0.480451	0.095347	-0.145929
Br68	Br	0.970605	0.042079	0.592545
H69	H	0.612563	0.097280	-0.145929
H70	H	0.847730	-0.024329	0.422665
H71	H	0.480412	0.095338	0.145959
Br72	Br	0.822520	-0.543132	-0.189604
H73	H	0.941246	0.068067	0.423748
Br74	Br	0.819970	-0.714778	-0.189613
Br75	Br	0.819899	-0.714800	0.189615
H76	H	0.612526	0.097284	0.145955
Br77	Br	0.822427	-0.543152	0.189623
H78	H	0.828770	-0.118893	-0.145907
H79	H	0.910329	0.161499	0.422437
H80	H	0.826811	-0.251001	-0.145914
H81	H	0.712780	0.141267	0.423470
H82	H	0.712473	0.141215	0.576269
Br83	Br	0.723517	-0.005395	0.594517
Br84	Br	0.781877	0.240418	0.594544
H85	H	0.826751	-0.251023	0.145966
H86	H	0.852172	-0.022839	0.575555
Br87	Br	0.719140	0.000466	0.407748
H88	H	0.776090	0.204909	0.424063
H89	H	0.036440	0.088802	-0.145920
H90	H	0.168550	0.090749	-0.145921
