data_functionalizedCrystal
_audit_creation_method	'MofGen! by Chris Wilmer'
_symmetry_space_group_name_H-M	'P1'
_symmetry_Int_Tables_number	1
_symmetry_cell_setting	triclinic
loop_
_symmetry_equiv_pos_as_xyz
  x,y,z
_cell_length_a	15.455379
_cell_length_b	16.992694
_cell_length_c	16.992695
_cell_angle_alpha	89.331777
_cell_angle_beta	87.182553
_cell_angle_gamma	92.824304
loop_
_atom_site_label
_atom_site_type_symbol
_atom_site_fract_x
_atom_site_fract_y
_atom_site_fract_z
O1	O	0.072022	-1.047586	0.163653
O2	O	0.405356	-0.714253	0.496986
O3	O	0.738689	-0.380919	0.830320
O4	O	0.072048	-0.819185	0.161821
O5	O	0.405381	-0.485852	0.495154
O6	O	0.738715	-0.152518	0.828487
O7	O	0.072028	-0.932470	0.048537
O8	O	0.405362	-0.599137	0.381870
O9	O	0.738695	-0.265804	0.715204
O10	O	0.072042	-0.934301	0.276936
O11	O	0.405375	-0.600968	0.610270
O12	O	0.738709	-0.267634	0.943603
O13	O	-0.072232	-0.938998	0.055070
O14	O	0.261101	-0.605665	0.388403
O15	O	0.594434	-0.272332	0.721736
O16	O	-0.072213	-0.825713	0.168353
O17	O	0.261121	-0.492380	0.501687
O18	O	0.594454	-0.159046	0.835020
O19	O	-0.072238	-1.054114	0.170186
O20	O	0.261095	-0.720781	0.503519
O21	O	0.594428	-0.387447	0.836852
Cu22	Cu	-0.085398	-0.940510	0.169866
Cu23	Cu	0.247936	-0.607176	0.503199
Cu24	Cu	0.581269	-0.273843	0.836533
Cu25	Cu	0.085207	-0.932789	0.162140
Cu26	Cu	0.418541	-0.599456	0.495474
Cu27	Cu	0.751874	-0.266123	0.828807
O28	O	-0.072219	-0.940829	0.283469
O29	O	0.261115	-0.607496	0.616803
O30	O	0.594448	-0.274162	0.950136
C31	C	-0.000079	-0.793089	0.162731
C32	C	0.333254	-0.459755	0.496064
C33	C	0.666587	-0.126422	0.829398
C34	C	-0.000070	-0.705604	0.155702
C35	C	0.333264	-0.372270	0.489035
C36	C	0.666597	-0.038937	0.822368
N37	N	-0.205392	-0.945945	0.175300
N38	N	0.127941	-0.612612	0.508633
N39	N	0.461275	-0.279279	0.841966
N40	N	0.205202	-0.927360	0.156701
N41	N	0.538535	-0.594026	0.490034
N42	N	0.871868	-0.260693	0.823367
C43	C	-0.000102	-0.933378	0.022443
C44	C	0.333232	-0.600045	0.355777
C45	C	0.666565	-0.266712	0.689110
C46	C	-0.000101	-0.926350	-0.065041
C47	C	0.333233	-0.593016	0.268292
C48	C	0.666566	-0.259683	0.601625
C49	C	0.749203	-0.897358	0.126509
C50	C	1.082537	-0.564025	0.459842
C51	C	1.415870	-0.230691	0.793176
C52	C	0.658396	-0.901457	0.130642
C53	C	0.991730	-0.568123	0.463975
C54	C	1.325063	-0.234790	0.797308
C55	C	0.612996	-0.954147	0.183561
C56	C	0.946329	-0.620814	0.516895
C57	C	1.279662	-0.287481	0.850228
C58	C	0.658406	-1.002736	0.232357
C59	C	0.991740	-0.669403	0.565691
C60	C	1.325073	-0.336070	0.899024
C61	C	0.749212	-0.998633	0.228228
C62	C	1.082545	-0.665300	0.561562
C63	C	1.415878	-0.331967	0.894895
C64	C	0.341418	-0.971846	0.201367
C65	C	0.674751	-0.638512	0.534701
C66	C	1.008085	-0.305179	0.868034
C67	C	0.250606	-0.975947	0.205491
C68	C	0.583940	-0.642614	0.538825
C69	C	0.917273	-0.309280	0.872158
C70	C	0.250602	-0.874666	0.103776
C71	C	0.583936	-0.541332	0.437109
C72	C	0.917269	-0.207999	0.770443
C73	C	0.341410	-0.870570	0.099648
C74	C	0.674743	-0.537237	0.432982
C75	C	1.008076	-0.203904	0.766315
C76	C	0.386812	-0.919157	0.148447
C77	C	0.720146	-0.585823	0.481781
C78	C	1.053479	-0.252490	0.815114
N79	N	0.520176	-0.958340	0.187785
N80	N	0.853510	-0.625007	0.521118
N81	N	1.186843	-0.291673	0.854452
N82	N	0.479630	-0.914960	0.144227
N83	N	0.812964	-0.581626	0.477560
N84	N	1.146297	-0.248293	0.810894
C85	C	-0.000109	-1.080210	0.169275
C86	C	0.333224	-0.746877	0.502608
C87	C	0.666557	-0.413544	0.835942
C88	C	-0.000113	-1.167695	0.176304
C89	C	0.333220	-0.834362	0.509637
C90	C	0.666554	-0.501028	0.842971
C91	C	-0.000066	-0.659613	0.223520
C92	C	0.333267	-0.326279	0.556853
C93	C	0.666600	0.007054	0.890186
C94	C	-0.000079	-0.577412	0.216911
C95	C	0.333255	-0.244079	0.550245
C96	C	0.666588	0.089254	0.883578
C97	C	-0.000088	-0.541205	0.142484
C98	C	0.333245	-0.207871	0.475817
C99	C	0.666579	0.125462	0.809151
C100	C	-0.000094	-0.587202	0.074661
C101	C	0.333239	-0.253868	0.407995
C102	C	0.666573	0.079465	0.741328
C103	C	-0.000088	-0.669401	0.081271
C104	C	0.333245	-0.336067	0.414604
C105	C	0.666579	-0.002734	0.747937
C106	C	-0.000113	-0.295891	0.115091
C107	C	0.333220	0.037442	0.448424
C108	C	0.666554	0.370775	0.781757
C109	C	-0.000116	-0.213686	0.108486
C110	C	0.333217	0.119647	0.441820
C111	C	0.666550	0.452980	0.775153
C112	C	-0.000103	-0.203903	0.250737
C113	C	0.333231	0.129431	0.584070
C114	C	0.666564	0.462764	0.917404
C115	C	-0.000091	-0.286103	0.257340
C116	C	0.333242	0.047230	0.590673
C117	C	0.666575	0.380563	0.924006
C118	C	-0.000102	-0.332093	0.189517
C119	C	0.333232	0.001240	0.522850
C120	C	0.666565	0.334573	0.856184
N121	N	-0.000098	-0.457183	0.135727
N122	N	0.333235	-0.123849	0.469061
N123	N	0.666569	0.209484	0.802394
N124	N	-0.000098	-0.416114	0.196275
N125	N	0.333235	-0.082781	0.529608
N126	N	0.666569	0.250553	0.862941
C127	C	-0.000109	-0.994168	-0.111032
C128	C	0.333224	-0.660835	0.222301
C129	C	0.666558	-0.327501	0.555635
C130	C	-0.000100	-0.987559	-0.193233
C131	C	0.333233	-0.654225	0.140100
C132	C	0.666567	-0.320892	0.473434
C133	C	-0.000089	-0.913131	-0.229442
C134	C	0.333244	-0.579797	0.103891
C135	C	0.666578	-0.246464	0.437225
C136	C	-0.000078	-0.845307	-0.183445
C137	C	0.333256	-0.511974	0.149888
C138	C	0.666589	-0.178640	0.483221
C139	C	-0.000081	-0.851917	-0.101246
C140	C	0.333253	-0.518583	0.232087
C141	C	0.666586	-0.185250	0.565421
C142	C	-0.000074	-0.885735	-0.474757
C143	C	0.333259	-0.552402	-0.141424
C144	C	0.666593	-0.219069	0.191910
C145	C	-0.000074	-0.879131	-0.556962
C146	C	0.333260	-0.545797	-0.223629
C147	C	0.666593	-0.212464	0.109704
C148	C	-0.000094	-1.021383	-0.566744
C149	C	0.333239	-0.688050	-0.233411
C150	C	0.666572	-0.354716	0.099922
C151	C	-0.000102	-1.027987	-0.484543
C152	C	0.333231	-0.694653	-0.151209
C153	C	0.666564	-0.361320	0.182124
C154	C	-0.000087	-0.960163	-0.438554
C155	C	0.333247	-0.626829	-0.105220
C156	C	0.666580	-0.293496	0.228113
N157	N	-0.000082	-0.906373	-0.313464
N158	N	0.333251	-0.573040	0.019869
N159	N	0.666584	-0.239706	0.353202
N160	N	-0.000087	-0.966921	-0.354533
N161	N	0.333246	-0.633587	-0.021200
N162	N	0.666580	-0.300254	0.312134
C163	C	-0.000087	-0.939921	0.309563
C164	C	0.333246	-0.606587	0.642896
C165	C	0.666580	-0.273254	0.976230
C166	C	-0.000082	-0.946949	0.397047
C167	C	0.333251	-0.613616	0.730381
C168	C	0.666584	-0.280282	1.063714
H169	H	0.786162	-0.854454	0.083414
H170	H	1.119496	-0.521121	0.416747
H171	H	1.452829	-0.187788	0.750080
H172	H	-0.000074	-0.315577	0.317946
H173	H	0.333260	0.017756	0.651279
H174	H	0.666593	0.351090	0.984612
Br175	Br	-0.000148	-0.164548	0.007472
Br176	Br	0.333185	0.168785	0.340805
Br177	Br	0.666519	0.502119	0.674139
Br178	Br	0.810834	-1.064576	0.294447
Br179	Br	1.144167	-0.731242	0.627780
Br180	Br	1.477500	-0.397909	0.961113
Br181	Br	-0.000044	-0.708743	0.324533
Br182	Br	0.333289	-0.375410	0.657866
Br183	Br	0.666622	-0.042076	0.991199
H184	H	-0.000106	-1.076601	-0.604197
H185	H	0.333228	-0.743268	-0.270864
H186	H	0.666561	-0.409934	0.062469
Br187	Br	-0.000129	-0.358297	0.023045
Br188	Br	0.333204	-0.024963	0.356378
Br189	Br	0.666537	0.308370	0.689712
H190	H	-0.000075	-0.539970	0.272136
H191	H	0.333258	-0.206636	0.605469
H192	H	0.666592	0.126697	0.938803
H193	H	-0.000090	-0.706846	0.026046
H194	H	0.333243	-0.373513	0.359379
H195	H	0.666577	-0.040179	0.692713
Br196	Br	-0.000089	-0.141484	0.342777
Br197	Br	0.333244	0.191850	0.676110
Br198	Br	0.666577	0.525183	1.009443
Br199	Br	-0.000048	-0.744295	-0.232586
Br200	Br	0.333285	-0.410962	0.100748
Br201	Br	0.666619	-0.077629	0.434081
Br202	Br	-0.000137	-1.095183	-0.061899
Br203	Br	0.333196	-0.761850	0.271434
Br204	Br	0.666530	-0.428517	0.604768
H205	H	-0.000114	-0.557715	0.014061
H206	H	0.333219	-0.224382	0.347395
H207	H	0.666552	0.108951	0.680728
H208	H	-0.000061	-0.830508	-0.437322
H209	H	0.333272	-0.497175	-0.103989
H210	H	0.666605	-0.163841	0.229345
H211	H	0.621434	-1.045635	0.275449
H212	H	0.954767	-0.712302	0.608782
H213	H	1.288101	-0.378968	0.942116
Br214	Br	-0.000111	-1.079602	-0.255646
Br215	Br	0.333222	-0.746269	0.077687
Br216	Br	0.666555	-0.412936	0.411020
H217	H	-0.000112	-1.088594	-0.455068
H218	H	0.333222	-0.755260	-0.121734
H219	H	0.666555	-0.421927	0.211599
H220	H	-0.000073	-0.796692	-0.063801
H221	H	0.333260	-0.463358	0.269532
H222	H	0.666593	-0.130025	0.602865
Br223	Br	-0.000067	-0.778115	-0.606102
Br224	Br	0.333266	-0.444781	-0.272769
Br225	Br	0.666599	-0.111448	0.060565
Br226	Br	0.403019	-0.799029	0.027856
Br227	Br	0.736352	-0.465695	0.361190
Br228	Br	1.069686	-0.132362	0.694523
Br229	Br	0.596779	-0.835508	0.064428
Br230	Br	0.930112	-0.502175	0.397761
Br231	Br	1.263446	-0.168842	0.731095
H232	H	0.213643	-1.018855	0.248588
H233	H	0.546977	-0.685522	0.581922
H234	H	0.880310	-0.352188	0.915255
Br235	Br	0.403025	-1.037757	0.267622
Br236	Br	0.736358	-0.704424	0.600956
Br237	Br	1.069692	-0.371090	0.934289
Br238	Br	0.188980	-0.808728	0.037556
Br239	Br	0.522313	-0.475395	0.370889
Br240	Br	0.855647	-0.142061	0.704223
