data_functionalizedCrystal
_audit_creation_method	'MofGen! by Chris Wilmer'
_symmetry_space_group_name_H-M	'P1'
_symmetry_Int_Tables_number	1
_symmetry_cell_setting	triclinic
loop_
_symmetry_equiv_pos_as_xyz
  x,y,z
_cell_length_a	17.077404
_cell_length_b	18.215405
_cell_length_c	17.077396
_cell_angle_alpha	89.968409
_cell_angle_beta	89.981638
_cell_angle_gamma	90.022855
loop_
_atom_site_label
_atom_site_type_symbol
_atom_site_fract_x
_atom_site_fract_y
_atom_site_fract_z
Zn1	Zn	1.200044	-0.293024	-0.443802
Zn2	Zn	1.199946	-0.416098	-0.312529
Zn3	Zn	1.068776	-0.293045	-0.312552
Zn4	Zn	1.068739	-0.416049	-0.443755
O5	O	1.134376	-0.354554	-0.378159
O6	O	1.309878	-0.309362	-0.426398
O7	O	1.182521	-0.399804	-0.202685
O8	O	1.086245	-0.190058	-0.329993
O9	O	1.309806	-0.399783	-0.329952
O10	O	1.182687	-0.190043	-0.426421
O11	O	1.086150	-0.309397	-0.202702
O12	O	0.958924	-0.309350	-0.329947
O13	O	1.086182	-0.399701	-0.553608
O14	O	0.958897	-0.399721	-0.426341
O15	O	1.182651	-0.309315	-0.553643
O16	O	1.182485	-0.519075	-0.329907
O17	O	1.086088	-0.519040	-0.426318
C18	C	0.930428	-0.354533	-0.378142
C19	C	0.843178	-0.354542	-0.378153
C20	C	0.802226	-0.307543	-0.428449
C21	C	0.720246	-0.307548	-0.428453
C22	C	0.679219	-0.354556	-0.378164
C23	C	0.720177	-0.401557	-0.327862
C24	C	0.802156	-0.401548	-0.327855
C25	C	0.549307	-0.401573	-0.327882
C26	C	0.467322	-0.401583	-0.327889
C27	C	0.467397	-0.307574	-0.428479
C28	C	0.549376	-0.307565	-0.428472
C29	C	0.590328	-0.354567	-0.378171
C30	C	1.134293	-0.545760	-0.378122
C31	C	1.134330	-0.627559	-0.378132
C32	C	1.184642	-0.815747	-0.328023
C33	C	1.184677	-0.892606	-0.328042
C34	C	1.084211	-0.892609	-0.428353
C35	C	1.084180	-0.815751	-0.428337
C36	C	1.134395	-0.777323	-0.378168
C37	C	1.134460	-0.931039	-0.378202
C38	C	1.134498	-1.014372	-0.378223
C39	C	1.134358	-0.693984	-0.378147
C40	C	1.339120	-0.354575	-0.378178
C41	C	1.426370	-0.354585	-0.378185
C42	C	1.134424	-0.354500	-0.582904
C43	C	1.134444	-0.354477	-0.670154
C44	C	1.134481	-0.162601	-0.378215
C45	C	1.134525	-0.080802	-0.378238
C46	C	1.184677	-0.307409	-0.711163
C47	C	1.184687	-0.307384	-0.793144
C48	C	1.134466	-0.354432	-0.834113
C49	C	1.084227	-0.401502	-0.793098
C50	C	1.084214	-0.401522	-0.711119
C51	C	1.084259	-0.401458	-0.963968
C52	C	1.084273	-0.401439	-1.045953
C53	C	1.184731	-0.307320	-1.045993
C54	C	1.184718	-0.307340	-0.964014
C55	C	1.134480	-0.354411	-0.923004
C56	C	1.134374	-0.354555	-0.174212
C57	C	1.134506	-0.354371	-0.086962
H58	H	0.582778	-0.269291	-0.469426
O59	O	1.238869	-0.256620	-0.837377
H60	H	1.300466	-0.269263	-0.821654
O61	O	1.030041	-0.934063	-0.482445
H62	H	1.065157	-0.969036	-0.522419
H63	H	1.043301	-0.439842	-0.677730
O64	O	0.846474	-0.256842	-0.482692
H65	H	0.883825	-0.219359	-0.447626
O66	O	1.030101	-0.452174	-1.090147
H67	H	0.995155	-0.484900	-1.047860
O68	O	1.238886	-0.256597	-0.919825
H69	H	1.278800	-0.289555	-0.882478
H70	H	0.582648	-0.439845	-0.286919
O71	O	1.238909	-0.256542	-1.090222
H72	H	1.278827	-0.289474	-1.127577
O73	O	0.676073	-0.256856	-0.482699
H74	H	0.718374	-0.224174	-0.517673
O75	O	1.030055	-0.452241	-0.837287
H76	H	1.043474	-0.510006	-0.821533
H77	H	0.686766	-0.439828	-0.286912
H78	H	1.043263	-0.784464	-0.469175
O79	O	1.238851	-0.256666	-0.666982
H80	H	1.230412	-0.264592	-0.603086
H81	H	1.225530	-0.784460	-0.287173
O82	O	0.423235	-0.256870	-0.482728
H83	H	0.359337	-0.264764	-0.474279
O84	O	1.238867	-0.934053	-0.273953
H85	H	1.273771	-0.894416	-0.239063
O86	O	1.030070	-0.452221	-0.919732
H87	H	0.995154	-0.484937	-0.961991
H88	H	0.433920	-0.439862	-0.286940
O89	O	0.846332	-0.452239	-0.273609
H90	H	0.804033	-0.484933	-0.238645
