data_functionalizedCrystal
_audit_creation_method	'MofGen! by Chris Wilmer'
_symmetry_space_group_name_H-M	'P1'
_symmetry_Int_Tables_number	1
_symmetry_cell_setting	triclinic
loop_
_symmetry_equiv_pos_as_xyz
  x,y,z
_cell_length_a	15.625110
_cell_length_b	16.109301
_cell_length_c	14.586319
_cell_angle_alpha	90.005214
_cell_angle_beta	71.919928
_cell_angle_gamma	83.870633
loop_
_atom_site_label
_atom_site_type_symbol
_atom_site_fract_x
_atom_site_fract_y
_atom_site_fract_z
O1	O	-1.196179	-0.108566	0.321498
O2	O	-0.933699	-0.121493	0.234219
O3	O	-1.072150	0.005991	0.280266
O4	O	-1.057729	-0.236050	0.275452
O5	O	-1.072140	0.005993	0.432743
O6	O	-0.933690	-0.121491	0.386696
O7	O	-1.196170	-0.108565	0.473976
Cu8	Cu	-1.064929	-0.115027	0.444259
Cu9	Cu	-1.064940	-0.115030	0.263936
O10	O	-1.057719	-0.236048	0.427929
C11	C	-0.900107	-0.120905	0.299289
C12	C	-0.800027	-0.119148	0.266011
C13	C	-1.071561	0.036968	0.356311
C14	C	-1.069810	0.129266	0.355730
C15	C	-1.229762	-0.109152	0.408903
C16	C	-1.329842	-0.110909	0.442176
C17	C	-0.658972	-0.116673	0.135997
C18	C	-0.753013	-0.118324	0.167277
C19	C	-0.753010	-0.118326	0.333505
C20	C	-0.658967	-0.116679	0.302239
C21	C	-0.611955	-0.115851	0.203484
C22	C	-0.611950	-0.115857	0.369725
C23	C	-0.517916	-0.114206	0.338462
C24	C	-0.470898	-0.113376	0.239711
C25	C	-0.517921	-0.114200	0.172220
C26	C	-0.658965	-0.116678	0.468480
C27	C	-0.611948	-0.115857	0.535966
C28	C	-0.517911	-0.114212	0.504703
C29	C	-0.470893	-0.113382	0.405953
C30	C	-0.470888	-0.113388	0.572194
C31	C	-0.376854	-0.111736	0.540930
C32	C	-0.376859	-0.111731	0.374689
N33	N	-1.064927	-0.115025	0.571090
C34	C	-1.058308	-0.267025	0.351882
C35	C	-1.060059	-0.359323	0.352457
C36	C	-1.147891	0.351427	0.381678
C37	C	-1.146238	0.438150	0.381121
C38	C	-0.981972	0.418509	0.326503
C39	C	-0.983625	0.331788	0.327054
C40	C	-1.066588	0.298249	0.354647
C41	C	-1.063281	0.471693	0.353539
C42	C	-1.061489	0.565722	0.352935
C43	C	-1.068381	0.204215	0.355250
N44	N	-1.064949	-0.115025	0.137107
C45	C	-1.126254	-0.058595	0.826492
C46	C	-1.126256	-0.058593	0.922475
C47	C	-1.003616	-0.171459	0.881696
C48	C	-1.003610	-0.171456	0.785714
C49	C	-1.064934	-0.115025	0.758117
C50	C	-1.064943	-0.115026	0.950080
C51	C	-1.064945	-0.115024	1.054148
C52	C	-1.064930	-0.115025	0.654042
H53	H	-0.338578	-0.111067	0.294273
F54	F	-1.236187	0.315736	0.411044
F55	F	-0.759047	-0.118428	0.501752
H56	H	-1.176186	-0.012644	0.804026
H57	H	-0.394329	-0.112033	0.214258
H58	H	-1.176187	-0.012641	0.978145
F59	F	-1.232773	0.494742	0.409890
F60	F	-0.467881	-0.113332	0.067113
F61	F	-0.938356	-0.231516	0.911075
H62	H	-0.914427	0.445827	0.304040
F63	F	-0.938338	-0.231517	0.712936
H64	H	-0.917414	0.288488	0.305038
H65	H	-0.620691	-0.116009	0.055581
H66	H	-0.791289	-0.118998	0.112313
H67	H	-0.650238	-0.116527	0.616373
F68	F	-0.803053	-0.119206	0.438603
F69	F	-0.326814	-0.110852	0.612757
F70	F	-0.520935	-0.114260	0.677293
