data_functionalizedCrystal
_audit_creation_method	'MofGen! by Chris Wilmer'
_symmetry_space_group_name_H-M	'P1'
_symmetry_Int_Tables_number	1
_symmetry_cell_setting	triclinic
loop_
_symmetry_equiv_pos_as_xyz
  x,y,z
_cell_length_a	15.995280
_cell_length_b	9.130313
_cell_length_c	10.654550
_cell_angle_alpha	89.998291
_cell_angle_beta	83.974250
_cell_angle_gamma	89.993221
loop_
_atom_site_label
_atom_site_type_symbol
_atom_site_fract_x
_atom_site_fract_y
_atom_site_fract_z
O1	O	-1.111962	0.121820	-0.161448
O2	O	-0.868295	0.121817	-0.181529
O3	O	-0.995731	0.121813	0.011326
O4	O	-0.984526	0.121824	-0.354303
O5	O	-0.995716	-0.121786	0.011324
O6	O	-0.868280	-0.121782	-0.181531
O7	O	-1.111947	-0.121779	-0.161449
Cu8	Cu	-0.990112	-0.144023	-0.171490
Cu9	Cu	-0.990130	0.144061	-0.171488
O10	O	-0.984511	-0.121775	-0.354305
C11	C	-0.837087	0.000017	-0.180716
C12	C	-0.744119	0.000016	-0.178273
N13	N	-0.990105	-0.346646	-0.171491
C14	C	-0.406327	0.000037	-0.169295
C15	C	-0.430448	0.000585	-0.308485
C16	C	-0.527139	0.000028	-0.311124
C17	C	-0.573910	0.000028	-0.173750
C18	C	-0.544395	-0.139076	-0.104164
C19	C	-0.447594	-0.139185	-0.102494
C20	C	-0.447740	0.137832	-0.099650
C21	C	-0.544263	0.139663	-0.104802
C22	C	-0.668621	0.000017	-0.176260
C23	C	-0.311616	0.000038	-0.166780
C24	C	-1.041356	-0.576624	-0.247671
C25	C	-1.041335	-0.423287	-0.247681
C26	C	-0.938886	-0.423349	-0.095295
C27	C	-0.938904	-0.576683	-0.095292
C28	C	-1.092596	-0.653257	-0.323856
C29	C	-1.143814	-0.576565	-0.400054
C30	C	-1.143793	-0.423228	-0.400064
C31	C	-1.092554	-0.346584	-0.323876
C32	C	-0.143153	0.000028	-0.162280
C33	C	-0.236117	0.000049	-0.164771
C34	C	-0.994901	0.000015	0.058112
C35	C	-0.992439	0.000021	0.197522
N36	N	-0.990143	0.346684	-0.171478
C37	C	-0.985341	0.000026	-0.401091
C38	C	-0.987803	0.000030	-0.540501
C39	C	-1.067471	0.000017	0.278017
C40	C	-1.065153	0.000027	0.409006
C41	C	-0.912765	0.000038	0.378994
C42	C	-0.915084	0.000039	0.248007
C43	C	-1.144827	-0.000001	0.227532
C44	C	-1.219865	-0.000006	0.308027
C45	C	-1.217547	0.000004	0.439017
C46	C	-1.140191	0.000019	0.489511
H47	H	-0.546488	0.099747	-0.365614
Br48	Br	-0.382585	-0.164738	-0.397425
Br49	Br	-1.324843	-0.000001	0.239503
H50	H	-1.138310	0.000043	0.596173
H51	H	-0.545855	-0.099854	-0.365952
H52	H	-0.849785	0.000049	0.420118
H53	H	-1.278647	0.000015	0.504554
H54	H	-0.897171	-0.360933	-0.033266
Br55	Br	-1.213283	-0.319147	-0.503499
Br56	Br	-1.092514	-0.138482	-0.323911
Br57	Br	-0.869396	-0.680776	0.008108
H58	H	-1.185525	-0.638978	-0.462092
H59	H	-0.402769	0.100344	-0.362137
Br60	Br	-0.403347	-0.312493	-0.182829
Br61	Br	-0.422348	-0.149808	0.067594
H62	H	-0.575676	-0.144249	-0.003075
Br63	Br	-0.578282	-0.311624	-0.184703
H64	H	-0.853986	0.000040	0.182466
Br65	Br	-0.400967	0.313564	-0.172176
Br66	Br	-0.575754	0.311192	-0.189203
Br67	Br	-1.147977	-0.000025	0.049761
Br68	Br	-0.423434	0.139396	0.071115
Br69	Br	-1.092632	-0.861356	-0.323839
Br70	Br	-0.598238	0.153667	0.062328
