data_functionalizedCrystal
_audit_creation_method	'MofGen! by Chris Wilmer'
_symmetry_space_group_name_H-M	'P1'
_symmetry_Int_Tables_number	1
_symmetry_cell_setting	triclinic
loop_
_symmetry_equiv_pos_as_xyz
  x,y,z
_cell_length_a	10.268362
_cell_length_b	19.288864
_cell_length_c	19.288865
_cell_angle_alpha	83.136245
_cell_angle_beta	89.989489
_cell_angle_gamma	89.981569
loop_
_atom_site_label
_atom_site_type_symbol
_atom_site_fract_x
_atom_site_fract_y
_atom_site_fract_z
O1	O	0.108733	-0.921348	-0.086648
O2	O	0.442066	-0.588015	0.246685
O3	O	0.775399	-0.254682	0.580018
O4	O	0.108646	-0.719088	-0.098337
O5	O	0.441979	-0.385754	0.234996
O6	O	0.775312	-0.052421	0.568330
O7	O	0.108666	-0.826062	0.008638
O8	O	0.441999	-0.492729	0.341971
O9	O	0.775333	-0.159396	0.675304
O10	O	0.108712	-0.814374	-0.193623
O11	O	0.442046	-0.481040	0.139710
O12	O	0.775379	-0.147707	0.473044
O13	O	-0.107935	-0.826053	0.008642
O14	O	0.225399	-0.492720	0.341975
O15	O	0.558732	-0.159386	0.675309
O16	O	-0.107955	-0.719078	-0.098333
O17	O	0.225378	-0.385745	0.235001
O18	O	0.558712	-0.052412	0.568334
O19	O	-0.107868	-0.921339	-0.086644
O20	O	0.225465	-0.588006	0.246689
O21	O	0.558799	-0.254672	0.580023
Cu22	Cu	-0.127689	-0.820208	-0.092488
Cu23	Cu	0.205644	-0.486875	0.240845
Cu24	Cu	0.538978	-0.153541	0.574179
Cu25	Cu	0.128467	-0.820219	-0.092493
Cu26	Cu	0.461800	-0.486886	0.240840
Cu27	Cu	0.795133	-0.153552	0.574174
O28	O	-0.107888	-0.814364	-0.193619
O29	O	0.225445	-0.481031	0.139715
O30	O	0.558778	-0.147698	0.473048
C31	C	0.000334	-0.693207	-0.097959
C32	C	0.333667	-0.359873	0.235375
C33	C	0.667000	-0.026540	0.568708
C34	C	0.000299	-0.616103	-0.096830
C35	C	0.333633	-0.282770	0.236504
C36	C	0.666966	0.050564	0.569837
N37	N	-0.307855	-0.820205	-0.092484
N38	N	0.025479	-0.486872	0.240850
N39	N	0.358812	-0.153539	0.574183
C40	C	0.000362	-0.825682	0.034516
C41	C	0.333695	-0.492348	0.367850
C42	C	0.667028	-0.159015	0.701183
C43	C	0.000350	-0.824553	0.111620
C44	C	0.333683	-0.491219	0.444953
C45	C	0.667016	-0.157886	0.778287
C46	C	-0.573525	-0.820215	-0.092492
C47	C	-0.240192	-0.486882	0.240842
C48	C	0.093141	-0.153549	0.574175
C49	C	-0.425687	-0.820207	-0.092489
C50	C	-0.092354	-0.486874	0.240844
C51	C	0.240979	-0.153541	0.574177
N52	N	0.308632	-0.820227	-0.092492
N53	N	0.641966	-0.486894	0.240842
N54	N	0.975299	-0.153560	0.574175
C55	C	0.000447	-0.947220	-0.087022
C56	C	0.333780	-0.613887	0.246311
C57	C	0.667113	-0.280553	0.579645
C58	C	0.000490	-1.024324	-0.088151
C59	C	0.333823	-0.690990	0.245182
C60	C	0.667156	-0.357657	0.578516
C61	C	0.000334	-0.571407	-0.159598
C62	C	0.333668	-0.238073	0.173736
C63	C	0.667001	0.095260	0.507069
C64	C	0.000349	-0.498960	-0.158537
C65	C	0.333682	-0.165626	0.174796
C66	C	0.667015	0.167707	0.508130
C67	C	0.000354	-0.471212	-0.094705
C68	C	0.333687	-0.137879	0.238629
C69	C	0.667021	0.195455	0.571962
C70	C	0.000312	-0.515918	-0.031929
C71	C	0.333645	-0.182585	0.301405
C72	C	0.666978	0.150748	0.634738
C73	C	0.000284	-0.588364	-0.032991
C74	C	0.333618	-0.255030	0.300342
C75	C	0.666951	0.078303	0.633676
C76	C	0.076271	-0.362953	-0.044527
C77	C	0.409604	-0.029620	0.288806
C78	C	0.742938	0.303713	0.622140
C79	C	0.076306	-0.290509	-0.043467
C80	C	0.409639	0.042824	0.289866
C81	C	0.742973	0.376158	0.623199
C82	C	0.000432	-0.247767	-0.091425
C83	C	0.333765	0.085567	0.241908
C84	C	0.667099	0.418900	0.575242
C85	C	-0.075461	-0.277476	-0.140455
C86	C	0.257873	0.055857	0.192879
C87	C	0.591206	0.389191	0.526212
C88	C	-0.075488	-0.349921	-0.141517
C89	C	0.257845	-0.016588	0.191816
C90	C	0.591179	0.316745	0.525150
C91	C	0.000383	-0.392658	-0.093546
C92	C	0.333716	-0.059325	0.239788
C93	C	0.667049	0.274009	0.573121
C94	C	0.000480	-0.124514	-0.153047
C95	C	0.333814	0.208819	0.180286
C96	C	0.667147	0.542152	0.513619
C97	C	0.000486	-0.052066	-0.151984
C98	C	0.333820	0.281267	0.181349
C99	C	0.667153	0.614600	0.514683
C100	C	0.000463	-0.069026	-0.025374
C101	C	0.333796	0.264307	0.307960
C102	C	0.667129	0.597640	0.641293
C103	C	0.000443	-0.141473	-0.026439
C104	C	0.333777	0.191860	0.306894
C105	C	0.667110	0.525194	0.640228
C106	C	0.000459	-0.169212	-0.090278
C107	C	0.333792	0.164121	0.243056
C108	C	0.667125	0.497454	0.576389
C109	C	0.000419	-0.814745	-0.219497
C110	C	0.333752	-0.481412	0.113836
C111	C	0.667086	-0.148078	0.447169
C112	C	0.000440	-0.815874	-0.296601
C113	C	0.333773	-0.482541	0.036733
C114	C	0.667106	-0.149207	0.370066
C115	C	0.000370	-0.887321	0.156316
C116	C	0.333704	-0.553987	0.489650
C117	C	0.667037	-0.220654	0.822983
C118	C	0.000390	-0.886260	0.228763
C119	C	0.333724	-0.552927	0.562097
C120	C	0.667057	-0.219593	0.895430
C121	C	0.000364	-0.822428	0.256511
C122	C	0.333697	-0.489094	0.589844
C123	C	0.667030	-0.155761	0.923178
C124	C	0.000350	-0.759652	0.211805
C125	C	0.333684	-0.426318	0.545138
C126	C	0.667017	-0.092985	0.878471
C127	C	0.000343	-0.760714	0.139359
C128	C	0.333677	-0.427381	0.472693
C129	C	0.667010	-0.094047	0.806026
C130	C	-0.075528	-0.772245	0.364800
C131	C	0.257805	-0.438912	0.698133
C132	C	0.591138	-0.105578	1.031466
C133	C	-0.075529	-0.771185	0.437244
C134	C	0.257804	-0.437852	0.770578
C135	C	0.591137	-0.104518	1.103911
C136	C	0.000391	-0.819148	0.479956
C137	C	0.333725	-0.485815	0.813290
C138	C	0.667058	-0.152481	1.146623
C139	C	0.076296	-0.868183	0.450217
C140	C	0.409630	-0.534849	0.783550
C141	C	0.742963	-0.201516	1.116883
C142	C	0.076289	-0.869245	0.377771
C143	C	0.409623	-0.535912	0.711105
C144	C	0.742956	-0.202579	1.044438
C145	C	0.000372	-0.821269	0.335065
C146	C	0.333706	-0.487935	0.668398
C147	C	0.667039	-0.154602	1.001732
C148	C	0.000436	-0.880770	0.603209
C149	C	0.333769	-0.547437	0.936542
C150	C	0.667102	-0.214104	1.269875
C151	C	0.000464	-0.879707	0.675657
C152	C	0.333797	-0.546374	1.008990
C153	C	0.667131	-0.213040	1.342323
C154	C	0.000411	-0.753097	0.658697
C155	C	0.333744	-0.419763	0.992030
C156	C	0.667078	-0.086430	1.325363
C157	C	0.000396	-0.754162	0.586250
C158	C	0.333729	-0.420829	0.919583
C159	C	0.667063	-0.087495	1.252917
C160	C	0.000402	-0.818000	0.558511
C161	C	0.333735	-0.484667	0.891844
C162	C	0.667069	-0.151334	1.225177
H163	H	0.000373	-0.462561	-0.209652
H164	H	0.333707	-0.129228	0.123682
H165	H	0.667040	0.204106	0.457015
O166	O	0.000328	-0.601317	-0.228454
O167	O	0.333662	-0.267984	0.104879
O168	O	0.666995	0.065349	0.438213
H169	H	0.088602	-0.633938	-0.231977
H170	H	0.421935	-0.300605	0.101356
H171	H	0.755268	0.032728	0.434689
H172	H	-0.137359	-0.733186	0.330028
H173	H	0.195974	-0.399853	0.663362
H174	H	0.529307	-0.066519	0.996695
H175	H	-0.137328	-0.731255	0.461452
H176	H	0.196005	-0.397922	0.794785
H177	H	0.529339	-0.064589	1.128119
H178	H	0.138119	-0.907239	0.484992
H179	H	0.471452	-0.573905	0.818325
H180	H	0.804786	-0.240572	1.151659
H181	H	0.000396	-0.701123	0.681288
H182	H	0.333729	-0.367790	1.014621
H183	H	0.667062	-0.034457	1.347954
O184	O	0.000246	-0.636579	0.034711
O185	O	0.333580	-0.303246	0.368044
O186	O	0.666913	0.030088	0.701378
H187	H	0.088530	-0.626769	0.065269
H188	H	0.421863	-0.293436	0.398602
H189	H	0.755196	0.039898	0.731935
H190	H	0.000412	-0.937375	0.265162
H191	H	0.333746	-0.604041	0.598495
H192	H	0.667079	-0.270708	0.931829
H193	H	0.000332	-0.707679	0.234401
H194	H	0.333665	-0.374346	0.567735
H195	H	0.666998	-0.041012	0.901068
O196	O	0.000303	-0.693008	0.091150
O197	O	0.333637	-0.359675	0.424484
O198	O	0.666970	-0.026341	0.757817
H199	H	0.088582	-0.690462	0.057728
H200	H	0.421915	-0.357129	0.391061
H201	H	0.755249	-0.023796	0.724394
O202	O	0.000341	-0.686462	0.538034
O203	O	0.333674	-0.353129	0.871368
O204	O	0.667008	-0.019796	1.204701
H205	H	0.000310	-0.641896	0.569498
H206	H	0.333644	-0.308563	0.902831
H207	H	0.666977	0.024771	1.236164
O208	O	0.158104	-0.409049	0.007210
O209	O	0.491437	-0.075715	0.340543
O210	O	0.824771	0.257618	0.673876
H211	H	0.145323	-0.464416	-0.001759
H212	H	0.478656	-0.131083	0.331575
H213	H	0.811989	0.202251	0.664908
O214	O	-0.157310	-0.231383	-0.192181
O215	O	0.176023	0.101950	0.141152
O216	O	0.509356	0.435284	0.474486
H217	H	-0.126060	-0.238098	-0.246063
H218	H	0.207273	0.095235	0.087270
H219	H	0.540606	0.428569	0.420603
H220	H	0.000488	-0.930822	0.712049
H221	H	0.333821	-0.597489	1.045382
H222	H	0.667155	-0.264156	1.378715
O223	O	-0.157391	-0.381973	-0.194368
O224	O	0.175943	-0.048639	0.138965
O225	O	0.509276	0.284694	0.472299
H226	H	-0.210173	-0.340087	-0.227530
H227	H	0.123160	-0.006754	0.105803
H228	H	0.456493	0.326579	0.439136
O229	O	0.000470	-0.154442	-0.221897
O230	O	0.333804	0.178891	0.111437
O231	O	0.667137	0.512224	0.444770
H232	H	0.000472	-0.111187	-0.265367
H233	H	0.333805	0.222146	0.067967
H234	H	0.667139	0.555479	0.401300
H235	H	0.138096	-0.909169	0.353560
H236	H	0.471430	-0.575836	0.686894
H237	H	0.804763	-0.242503	1.020227
H238	H	0.000507	-0.015674	-0.203099
H239	H	0.333841	0.317659	0.130234
H240	H	0.667174	0.650992	0.463567
H241	H	0.000334	-0.493322	0.020044
H242	H	0.333667	-0.159988	0.353377
H243	H	0.667001	0.173345	0.686711
H244	H	0.000422	-0.177866	0.024674
H245	H	0.333755	0.155467	0.358007
H246	H	0.667089	0.488801	0.691340
O247	O	0.000469	-0.039111	0.043477
O248	O	0.333802	0.294222	0.376810
O249	O	0.667135	0.627555	0.710144
H250	H	0.000500	0.018774	0.033672
H251	H	0.333833	0.352108	0.367006
H252	H	0.667167	0.685441	0.700339
O253	O	0.158140	-0.258466	0.009418
O254	O	0.491473	0.074867	0.342751
O255	O	0.824806	0.408200	0.676085
H256	H	0.210868	-0.300358	0.042600
H257	H	0.544202	0.032975	0.375933
H258	H	0.877535	0.366308	0.709266
O259	O	0.000413	-0.956171	0.126395
O260	O	0.333747	-0.622838	0.459728
O261	O	0.667080	-0.289505	0.793062
H262	H	0.000450	-0.999640	0.169652
H263	H	0.333783	-0.666307	0.502985
H264	H	0.667117	-0.332974	0.836318
O265	O	0.000469	-0.949620	0.573281
O266	O	0.333802	-0.616286	0.906614
O267	O	0.667135	-0.282953	1.239947
H268	H	0.000511	-0.993090	0.616536
H269	H	0.333845	-0.659756	0.949869
H270	H	0.667178	-0.326423	1.283202
