data_functionalizedCrystal
_audit_creation_method	'MofGen! by Chris Wilmer'
_symmetry_space_group_name_H-M	'P1'
_symmetry_Int_Tables_number	1
_symmetry_cell_setting	triclinic
loop_
_symmetry_equiv_pos_as_xyz
  x,y,z
_cell_length_a	16.625546
_cell_length_b	12.759401
_cell_length_c	12.759393
_cell_angle_alpha	90.021396
_cell_angle_beta	89.963756
_cell_angle_gamma	89.976710
loop_
_atom_site_label
_atom_site_type_symbol
_atom_site_fract_x
_atom_site_fract_y
_atom_site_fract_z
Zn1	Zn	-0.320936	-1.606198	-0.594030
Zn2	Zn	0.179064	-1.106198	-0.094030
Zn3	Zn	-0.455793	-1.606069	-0.418336
Zn4	Zn	0.044207	-1.106069	0.081664
Zn5	Zn	-0.320980	-1.430500	-0.418360
Zn6	Zn	0.179020	-0.930500	0.081640
Zn7	Zn	-0.455732	-1.430465	-0.593968
Zn8	Zn	0.044268	-0.930465	-0.093968
O9	O	-0.388360	-1.518308	-0.506174
O10	O	0.111640	-1.018308	-0.006174
O11	O	-0.338832	-1.753202	-0.570739
O12	O	0.161168	-1.253202	-0.070739
O13	O	-0.437953	-1.582740	-0.271318
O14	O	0.062047	-1.082740	0.228682
O15	O	-0.208142	-1.453876	-0.441699
O16	O	0.291858	-0.953876	0.058301
O17	O	-0.437911	-1.753107	-0.441658
O18	O	0.062089	-1.253107	0.058342
O19	O	-0.208109	-1.582960	-0.570763
O20	O	0.291891	-1.082960	-0.070763
O21	O	-0.338907	-1.453751	-0.271336
O22	O	0.161093	-0.953751	0.228664
O23	O	-0.338848	-1.283475	-0.441640
O24	O	0.161152	-0.783475	0.058360
O25	O	-0.437807	-1.453816	-0.740998
O26	O	0.062193	-0.953816	-0.240998
O27	O	-0.437850	-1.283449	-0.570658
O28	O	0.062150	-0.783449	-0.070658
O29	O	-0.338773	-1.582926	-0.741043
O30	O	0.161227	-1.082926	-0.241043
O31	O	-0.568617	-1.582706	-0.441598
O32	O	-0.068617	-1.082706	0.058402
O33	O	-0.568573	-1.453690	-0.570634
O34	O	-0.068573	-0.953690	-0.070634
C35	C	-0.388348	-1.245341	-0.506145
C36	C	0.111652	-0.745341	-0.006145
C37	C	-0.388362	-1.128564	-0.506158
C38	C	0.111638	-0.628564	-0.006158
C39	C	-0.439990	-1.073716	-0.573231
C40	C	0.060010	-0.573716	-0.073231
C41	C	-0.439992	-0.963992	-0.573249
C42	C	0.060008	-0.463992	-0.073249
C43	C	-0.336735	-0.963974	-0.439112
C44	C	0.163265	-0.463974	0.060888
C45	C	-0.336730	-1.073696	-0.439101
C46	C	0.163270	-0.573696	0.060899
C47	C	-0.597851	-1.518209	-0.506130
C48	C	-0.097851	-1.018209	-0.006130
C49	C	-0.687472	-1.518262	-0.506146
C50	C	-0.187472	-1.018262	-0.006146
C51	C	-1.015648	-1.518446	-0.506255
C52	C	-0.515648	-1.018446	-0.006255
C53	C	-0.924339	-1.518391	-0.506228
C54	C	-0.424339	-1.018391	-0.006228
C55	C	-0.851563	-1.518353	-0.506200
C56	C	-0.351563	-1.018353	-0.006200
C57	C	-0.760249	-1.518300	-0.506174
C58	C	-0.260249	-1.018300	-0.006174
C59	C	-0.178051	-1.518437	-0.506241
C60	C	0.321949	-1.018437	-0.006241
C61	C	-0.088430	-1.518491	-0.506269
C62	C	0.411570	-1.018491	-0.006269
C63	C	-0.388279	-1.518382	-0.780207
C64	C	0.111721	-1.018382	-0.280207
C65	C	-0.388244	-1.518413	-0.896984
C66	C	0.111756	-1.018413	-0.396984
C67	C	-0.388371	-0.792341	-0.506196
C68	C	0.111629	-0.292341	-0.006196
C69	C	-0.388369	-0.909118	-0.506188
C70	C	0.111631	-0.409118	-0.006188
C71	C	-0.336661	-1.451272	-0.951855
C72	C	0.163339	-0.951272	-0.451855
C73	C	-0.336636	-1.451297	-1.061579
C74	C	0.163364	-0.951297	-0.561579
C75	C	-0.439780	-1.585611	-1.061552
C76	C	0.060220	-1.085611	-0.561552
C77	C	-0.439808	-1.585581	-0.951830
C78	C	0.060192	-1.085581	-0.451830
C79	C	-0.388383	-1.518296	-0.233206
C80	C	0.111617	-1.018296	0.266794
C81	C	-0.388191	-1.518468	-0.116430
C82	C	0.111809	-1.018468	0.383570
H83	H	-0.294683	-1.118354	-0.384482
H84	H	0.205317	-0.618354	0.115518
C85	C	-0.279946	-1.377377	-0.891529
C86	C	0.220054	-0.877377	-0.391529
N87	N	-0.237229	-1.321713	-0.846094
N88	N	0.262771	-0.821713	-0.346094
H89	H	-0.481816	-1.640257	-0.907152
H90	H	0.018184	-1.140257	-0.407152
H91	H	-0.294700	-0.919286	-0.384515
H92	H	0.205300	-0.419286	0.115485
H93	H	-0.482032	-0.919340	-0.627868
H94	H	0.017968	-0.419340	-0.127868
C95	C	-0.279886	-1.377442	-1.121932
C96	C	0.220114	-0.877442	-0.621932
N97	N	-0.237138	-1.321813	-1.167389
N98	N	0.262862	-0.821813	-0.667389
H99	H	-0.481760	-1.640298	-1.106220
H100	H	0.018240	-1.140298	-0.606220
H101	H	-0.482030	-1.118387	-0.627836
H102	H	0.017970	-0.618387	-0.127836
