data_functionalizedCrystal
_audit_creation_method	'MofGen! by Chris Wilmer'
_symmetry_space_group_name_H-M	'P1'
_symmetry_Int_Tables_number	1
_symmetry_cell_setting	triclinic
loop_
_symmetry_equiv_pos_as_xyz
  x,y,z
_cell_length_a	14.809374
_cell_length_b	23.196402
_cell_length_c	23.196402
_cell_angle_alpha	90.003744
_cell_angle_beta	67.425492
_cell_angle_gamma	52.850307
loop_
_atom_site_label
_atom_site_type_symbol
_atom_site_fract_x
_atom_site_fract_y
_atom_site_fract_z
Zr1	Zr	1.000587	-0.145965	0.625639
O2	O	1.191288	-0.251409	0.546977
O3	O	0.809884	-0.104350	0.640464
O4	O	1.000586	-0.238016	0.653850
O5	O	1.000588	-0.022873	0.533600
O6	O	1.000588	-0.238019	0.748720
O7	O	1.000586	-0.117743	0.533591
O8	O	0.659457	0.001084	0.724776
O9	O	1.341719	-0.261977	0.557543
O10	O	0.888326	-0.097829	0.728811
O11	O	0.888326	-0.027026	0.658016
O12	O	1.112853	-0.184400	0.673776
O13	O	1.112853	-0.113597	0.602981
Zr14	Zr	1.000595	0.005336	0.776959
Zr15	Zr	1.000591	-0.145970	0.776946
Zr16	Zr	1.000591	0.005341	0.625652
Zr17	Zr	1.240508	-0.162820	0.642492
Zr18	Zr	0.760674	0.022191	0.760107
O19	O	1.191298	-0.036279	0.762134
O20	O	1.191293	-0.251417	0.762115
O21	O	1.191293	-0.036271	0.546995
O22	O	0.809894	0.110780	0.855622
O23	O	0.809889	-0.104358	0.855603
O24	O	0.809889	0.110788	0.640483
O25	O	1.000594	-0.117755	0.868999
O26	O	1.000596	0.097387	0.748749
O27	O	1.000594	0.097390	0.653879
O28	O	1.000596	-0.022886	0.869007
O29	O	1.341722	-0.261981	0.677812
O30	O	0.659460	0.121352	0.724786
O31	O	0.659463	0.121348	0.845055
O32	O	0.659460	0.001079	0.845045
O33	O	1.341722	-0.141708	0.557554
O34	O	1.341725	-0.141713	0.677822
O35	O	0.888329	0.043771	0.728823
O36	O	0.888329	-0.027031	0.799617
O37	O	1.112856	-0.113603	0.744582
O38	O	1.112856	-0.042800	0.673788
C39	C	0.700487	-0.049232	0.680219
C40	C	0.598634	-0.042077	0.673065
C41	C	1.000586	-0.070308	0.512037
C42	C	1.000585	-0.070305	0.447804
C43	C	1.000596	0.118947	0.701316
C44	C	1.000597	0.183180	0.701321
C45	C	0.553225	-0.074010	0.704994
C46	C	0.447955	-0.066615	0.697600
C47	C	1.300695	-0.091397	0.722379
C48	C	1.402548	-0.098552	0.729534
C49	C	1.000586	-0.259576	0.701283
C50	C	1.000585	-0.323809	0.701277
C51	C	1.117795	0.168166	0.672596
C52	C	1.117796	0.228521	0.672586
C53	C	1.000594	0.303889	0.701314
C54	C	0.883381	0.318901	0.730039
C55	C	0.883383	0.258547	0.730043
C56	C	0.910802	0.434132	0.756908
C57	C	0.910805	0.494483	0.756907
C58	C	1.000584	0.490043	0.701301
C59	C	1.090382	0.425236	0.645699
C60	C	1.090384	0.364882	0.645703
C61	C	1.000579	0.369338	0.701313
C62	C	1.117791	0.540469	0.672563
C63	C	1.117788	0.600826	0.672550
C64	C	0.883370	0.691207	0.730010
C65	C	0.883376	0.630850	0.730016
C66	C	1.000591	0.555483	0.701294
C67	C	0.883388	-0.025123	0.446356
C68	C	0.883386	-0.025120	0.386002
C69	C	1.000588	-0.070313	0.327096
C70	C	1.117801	-0.115498	0.328546
C71	C	1.117799	-0.115494	0.388900
C72	C	1.090380	-0.138531	0.209469
C73	C	1.090377	-0.138537	0.149117
C74	C	1.000598	-0.070325	0.140942
C75	C	0.910800	-0.002106	0.193132
C76	C	0.910799	-0.002102	0.253487
C77	C	1.000603	-0.070322	0.261649
C78	C	0.883391	-0.025136	0.074054
C79	C	0.883394	-0.025131	0.013697
C80	C	1.117812	-0.115516	-0.043758
C81	C	1.117806	-0.115514	0.016598
C82	C	1.000591	-0.070325	0.075502
C83	C	1.000596	-0.070321	0.890561
C84	C	1.000597	-0.070324	0.954795
C85	C	0.700491	-0.049239	0.869481
C86	C	0.598640	-0.042086	0.926560
C87	C	0.700491	0.140029	0.680235
C88	C	0.598640	0.211418	0.673087
C89	C	0.700496	0.140022	0.869497
C90	C	0.598646	0.211409	0.926582
C91	C	1.300686	-0.280651	0.533101
C92	C	1.402536	-0.352038	0.476016
C93	C	1.300691	-0.091390	0.533118
C94	C	1.402542	-0.098543	0.476038
C95	C	1.300691	-0.280658	0.722363
C96	C	1.402542	-0.352047	0.729512
C97	C	0.550808	-0.075689	0.916405
C98	C	0.455121	-0.068983	0.970032
C99	C	0.407262	-0.028669	1.033814
C100	C	0.455104	0.004934	1.043968
C101	C	0.550795	-0.001777	0.990342
C102	C	0.550812	0.281905	0.706690
C103	C	0.455125	0.348987	0.699971
C104	C	0.407262	0.345581	0.659652
C105	C	0.455100	0.275086	0.626045
C106	C	0.550792	0.208006	0.632761
C107	C	0.550817	0.207974	0.990350
C108	C	0.455132	0.275043	1.043994
C109	C	0.407271	0.345545	1.033868
C110	C	0.455111	0.348978	0.970094
C111	C	0.550800	0.281910	0.916452
C112	C	1.450377	-0.348604	0.412249
C113	C	1.546092	-0.415674	0.358607
C114	C	1.593957	-0.486177	0.368733
C115	C	1.546112	-0.489609	0.432507
C116	C	1.450405	-0.422540	0.486148
C117	C	1.450384	-0.064947	0.486194
C118	C	1.546097	-0.071672	0.432569
C119	C	1.593960	-0.111988	0.368788
C120	C	1.546114	-0.145588	0.358633
C121	C	1.450409	-0.138868	0.412258
C122	C	1.450374	-0.348616	0.769835
C123	C	1.546062	-0.415687	0.776565
C124	C	1.593921	-0.486188	0.742968
C125	C	1.546079	-0.489617	0.702642
C126	C	1.450387	-0.422546	0.695916
H127	H	0.592276	-0.106820	0.737806
H128	H	1.411422	-0.291217	0.797196
H129	H	1.671840	-0.540795	0.748450
H130	H	0.589728	0.025592	0.998620
H131	H	0.416116	0.272325	0.593218
H132	H	0.787954	0.011667	0.012524
Cl133	Cl	1.606272	-0.578254	0.660402
H134	H	1.411410	-0.291203	0.403991
H135	H	0.441597	-0.131365	0.762348
Cl136	Cl	0.538332	0.008592	0.622412
H137	H	0.416187	0.406380	0.727341
Cl138	Cl	1.265150	0.073423	0.636483
H139	H	1.585096	-0.547021	0.440745
Cl140	Cl	1.265141	-0.172309	0.254493
Cl141	Cl	1.265146	-0.172300	0.390719
Cl142	Cl	0.394992	-0.111228	0.957251
Cl143	Cl	0.394927	0.437616	0.957375
H144	H	0.589721	0.150615	0.605398
H145	H	1.213234	0.479102	0.649172
H146	H	1.411454	-0.425345	0.538069
H147	H	0.787941	0.752572	0.753396
H148	H	0.589771	0.284692	0.739521
H149	H	0.416191	0.272234	1.095917
Cl150	Cl	1.390240	-0.014264	0.566371
Cl151	Cl	1.606221	-0.029422	0.445349
H152	H	1.585004	-0.412881	0.809401
H153	H	0.787944	0.270778	0.753435
H154	H	0.408898	-0.033797	0.664790
Cl155	Cl	1.265141	0.209650	0.636484
H156	H	0.329343	-0.023210	1.077474
H157	H	0.329344	0.400209	0.654190
H158	H	1.411458	-0.166224	0.403979
Cl159	Cl	0.610973	0.119350	1.003097
Cl160	Cl	0.394918	0.055616	1.124155
H161	H	0.329354	0.400151	1.077553
H162	H	1.411453	-0.425350	0.663078
H163	H	0.589731	0.284717	0.864530
H164	H	1.163497	0.312119	0.600429
Cl165	Cl	1.606215	-0.411342	0.278442
Cl166	Cl	1.265154	-0.172326	-0.117807
Cl167	Cl	1.714273	-0.570487	0.301291
H168	H	0.787942	0.643079	0.753410
H169	H	1.163489	0.421617	0.600420
Cl170	Cl	1.714273	-0.120427	0.301379
H171	H	1.585098	-0.178413	0.306695
Cl172	Cl	1.203273	-0.224295	0.083511
Cl173	Cl	1.265136	0.581947	0.636418
H174	H	0.837680	0.437761	0.802190
Cl175	Cl	0.797912	0.575950	0.826804
H176	H	0.787954	0.380270	0.753428
H177	H	0.787947	0.011674	0.384823
Cl178	Cl	0.736033	0.031691	0.520403
H179	H	0.787948	0.011675	0.122016
H180	H	0.589774	-0.108525	0.864476
H181	H	0.837673	0.053436	0.186485
Cl182	Cl	1.265148	-0.172322	0.018418
Cl183	Cl	0.797923	0.083655	0.319092
H184	H	1.163509	-0.194080	0.216112
