data_functionalizedCrystal
_audit_creation_method	'MofGen! by Chris Wilmer'
_symmetry_space_group_name_H-M	'P1'
_symmetry_Int_Tables_number	1
_symmetry_cell_setting	triclinic
loop_
_symmetry_equiv_pos_as_xyz
  x,y,z
_cell_length_a	19.288867
_cell_length_b	19.188930
_cell_length_c	17.766277
_cell_angle_alpha	89.988508
_cell_angle_beta	89.992126
_cell_angle_gamma	83.140925
loop_
_atom_site_label
_atom_site_type_symbol
_atom_site_fract_x
_atom_site_fract_y
_atom_site_fract_z
O1	O	0.921359	0.087106	-0.062576
O2	O	1.254692	0.420439	0.270757
O3	O	1.588025	0.753773	0.604090
O4	O	0.719099	0.098854	-0.062585
O5	O	1.052432	0.432187	0.270749
O6	O	1.385766	0.765521	0.604082
O7	O	0.826066	-0.008676	-0.062566
O8	O	1.159399	0.324657	0.270768
O9	O	1.492732	0.657991	0.604101
O10	O	0.814392	0.194636	-0.062595
O11	O	1.147725	0.527969	0.270738
O12	O	1.481059	0.861303	0.604071
O13	O	0.826047	-0.008682	0.062623
O14	O	1.159380	0.324652	0.395956
O15	O	1.492714	0.657985	0.729290
O16	O	0.719080	0.098849	0.062604
O17	O	1.052414	0.432182	0.395937
O18	O	1.385747	0.765515	0.729270
O19	O	0.921340	0.087100	0.062612
O20	O	1.254673	0.420434	0.395946
O21	O	1.588007	0.753767	0.729279
Cu22	Cu	0.820208	0.092974	0.074039
Cu23	Cu	1.153542	0.426307	0.407372
Cu24	Cu	1.486875	0.759641	0.740705
Cu25	Cu	0.820231	0.092980	-0.074011
Cu26	Cu	1.153564	0.426314	0.259322
Cu27	Cu	1.486897	0.759647	0.592655
O28	O	0.814373	0.194631	0.062593
O29	O	1.147707	0.527964	0.395926
O30	O	1.481040	0.861297	0.729260
C31	C	0.693213	0.098473	0.000009
C32	C	1.026547	0.431806	0.333342
C33	C	1.359880	0.765140	0.666675
C34	C	0.616110	0.097338	0.000006
C35	C	0.949443	0.430671	0.333339
C36	C	1.282776	0.764004	0.666673
C37	C	0.825678	-0.034690	0.000031
C38	C	1.159012	0.298644	0.333364
C39	C	1.492345	0.631977	0.666698
C40	C	0.824543	-0.112194	0.000037
C41	C	1.157877	0.221139	0.333371
C42	C	1.491210	0.554472	0.666704
C43	C	0.060554	0.089162	-0.068224
C44	C	0.393887	0.422495	0.265109
C45	C	0.727221	0.755829	0.598442
C46	C	0.133001	0.090225	-0.068227
C47	C	0.466335	0.423558	0.265106
C48	C	0.799668	0.756891	0.598440
C49	C	0.169220	0.090756	0.000013
C50	C	0.502553	0.424090	0.333346
C51	C	0.835887	0.757423	0.666679
C52	C	0.132987	0.090207	0.068261
C53	C	0.466320	0.423540	0.401594
C54	C	0.799654	0.756874	0.734928
C55	C	0.060542	0.089137	0.068262
C56	C	0.393875	0.422471	0.401595
C57	C	0.727208	0.755804	0.734929
C58	C	0.278543	0.133342	0.052287
C59	C	0.611876	0.466675	0.385621
C60	C	0.945209	0.800009	0.718954
C61	C	0.350986	0.134416	0.052283
C62	C	0.684319	0.467749	0.385617
C63	C	1.017653	0.801083	0.718950
C64	C	0.392666	0.094052	0.000013
C65	C	0.725999	0.427386	0.333346
C66	C	1.059332	0.760719	0.666679
C67	C	0.361892	0.052624	-0.052267
C68	C	0.695225	0.385957	0.281066
C69	C	1.028559	0.719291	0.614399
C70	C	0.289447	0.051554	-0.052266
C71	C	0.622780	0.384888	0.281067
C72	C	0.956113	0.718221	0.614400
C73	C	0.247775	0.091916	0.000019
C74	C	0.581108	0.425249	0.333353
C75	C	0.914441	0.758582	0.666686
C76	C	0.507447	0.095749	-0.068234
C77	C	0.840780	0.429082	0.265099
C78	C	1.174113	0.762415	0.598432
C79	C	0.579896	0.096807	-0.068235
C80	C	0.913229	0.430140	0.265099
C81	C	1.246563	0.763474	0.598432
C82	C	0.579879	0.096797	0.068255
C83	C	0.913213	0.430130	0.401589
C84	C	1.246546	0.763463	0.734922
C85	C	0.507432	0.095731	0.068254
C86	C	0.840765	0.429065	0.401587
C87	C	1.174099	0.762398	0.734920
C88	C	0.471220	0.095211	0.000007
C89	C	0.804553	0.428544	0.333340
C90	C	1.137886	0.761877	0.666673
C91	C	0.887308	-0.157122	0.000044
C92	C	1.220641	0.176211	0.333377
C93	C	1.553975	0.509544	0.666710
C94	C	0.886242	-0.229946	0.000031
C95	C	1.219575	0.103387	0.333365
C96	C	1.552908	0.436720	0.666698
C97	C	0.822408	-0.257838	0.000028
C98	C	1.155741	0.075495	0.333362
C99	C	1.489074	0.408828	0.666695
C100	C	0.759635	-0.212900	0.000018
C101	C	1.092968	0.120433	0.333351
C102	C	1.426302	0.453766	0.666684
C103	C	0.760703	-0.140078	0.000022
C104	C	1.094036	0.193255	0.333356
C105	C	1.427369	0.526588	0.666689
N106	N	0.773608	-0.365842	0.042630
N107	N	1.106941	-0.032509	0.375964
N108	N	1.440274	0.300825	0.709297
N109	N	0.772597	-0.435020	0.042627
N110	N	1.105931	-0.101687	0.375961
N111	N	1.439264	0.231646	0.709294
C112	C	0.819186	-0.477247	0.000013
C113	C	1.152520	-0.143914	0.333346
C114	C	1.485853	0.189420	0.666680
N115	N	0.866834	-0.447683	-0.042590
N116	N	1.200167	-0.114349	0.290744
N117	N	1.533501	0.218984	0.624077
N118	N	0.867846	-0.378498	-0.042583
N119	N	1.201180	-0.045165	0.290750
N120	N	1.534513	0.288169	0.624083
C121	C	0.821243	-0.336801	0.000023
C122	C	1.154576	-0.003468	0.333356
C123	C	1.487909	0.329866	0.666689
C124	C	0.880799	-0.601139	0.000005
C125	C	1.214132	-0.267806	0.333338
C126	C	1.547466	0.065527	0.666672
C127	C	0.879730	-0.673964	-0.000012
C128	C	1.213064	-0.340631	0.333321
C129	C	1.546397	-0.007298	0.666655
C130	C	0.753122	-0.656917	-0.000018
C131	C	1.086455	-0.323583	0.333315
C132	C	1.419788	0.009750	0.666649
C133	C	0.754192	-0.584094	-0.000009
C134	C	1.087525	-0.250760	0.333325
C135	C	1.420859	0.082573	0.666658
C136	C	0.818033	-0.556210	0.000006
C137	C	1.151366	-0.222876	0.333340
C138	C	1.484699	0.110457	0.666673
C139	C	0.947226	0.087481	0.000017
C140	C	1.280559	0.420815	0.333351
C141	C	1.613892	0.754148	0.666684
C142	C	1.024329	0.088617	0.000015
C143	C	1.357663	0.421950	0.333348
C144	C	1.690996	0.755284	0.666681
C145	C	0.814761	0.220644	-0.000005
C146	C	1.148094	0.553978	0.333328
C147	C	1.481427	0.887311	0.666662
C148	C	0.815896	0.298149	-0.000016
C149	C	1.149229	0.631482	0.333317
C150	C	1.482562	0.964815	0.666650
N151	N	0.820198	0.092969	0.178169
N152	N	1.153531	0.426302	0.511502
N153	N	1.486865	0.759636	0.844836
N154	N	0.820247	0.092980	-0.178142
N155	N	1.153580	0.426313	0.155192
N156	N	1.486913	0.759646	0.488525
C157	C	0.867578	0.045378	0.217564
C158	C	1.200911	0.378711	0.550898
C159	C	1.534245	0.712045	0.884231
C160	C	0.867582	0.045375	0.296366
C161	C	1.200915	0.378708	0.629700
C162	C	1.534249	0.712041	0.963033
C163	C	0.820213	0.092975	0.335770
C164	C	1.153546	0.426308	0.669103
C165	C	1.486879	0.759641	1.002436
C166	C	0.772824	0.140569	0.296365
C167	C	1.106157	0.473903	0.629698
C168	C	1.439490	0.807236	0.963031
C169	C	0.772816	0.140566	0.217564
C170	C	1.106150	0.473900	0.550898
C171	C	1.439483	0.807233	0.884231
C172	C	0.810918	0.156591	0.460598
C173	C	1.144252	0.489925	0.793931
C174	C	1.477585	0.823258	1.127265
C175	C	0.810931	0.156595	0.539397
C176	C	1.144264	0.489928	0.872730
C177	C	1.477597	0.823262	1.206064
C178	C	0.820231	0.092983	0.578816
C179	C	1.153564	0.426316	0.912149
C180	C	1.486898	0.759650	1.245483
C181	C	0.829534	0.029365	0.539427
C182	C	1.162867	0.362698	0.872760
C183	C	1.496201	0.696031	1.206093
C184	C	0.829527	0.029362	0.460626
C185	C	1.162860	0.362695	0.793960
C186	C	1.496193	0.696028	1.127293
C187	C	0.820215	0.092983	0.421215
C188	C	1.153548	0.426316	0.754549
C189	C	1.486882	0.759649	1.087882
C190	C	0.867618	0.045384	0.703657
C191	C	1.200951	0.378718	1.036991
C192	C	1.534285	0.712051	1.370324
C193	C	0.867617	0.045380	0.782461
C194	C	1.200951	0.378714	1.115794
C195	C	1.534284	0.712047	1.449127
C196	C	0.772862	0.140581	0.782458
C197	C	1.106196	0.473914	1.115791
C198	C	1.439529	0.807248	1.449124
C199	C	0.772860	0.140579	0.703656
C200	C	1.106193	0.473912	1.036989
C201	C	1.439526	0.807246	1.370322
C202	C	0.820241	0.092982	0.664260
C203	C	1.153575	0.426315	0.997594
C204	C	1.486908	0.759648	1.330927
H205	H	0.031074	0.088735	-0.123796
H206	H	0.364408	0.422069	0.209537
H207	H	0.697741	0.755402	0.542870
H208	H	0.930843	-0.710545	-0.000011
H209	H	1.264176	-0.377211	0.333322
H210	H	1.597510	-0.043878	0.666656
Cl211	Cl	0.178518	0.090873	0.154048
Cl212	Cl	0.511851	0.424206	0.487382
Cl213	Cl	0.845185	0.757539	0.820715
H214	H	0.939292	-0.134424	0.000053
H215	H	1.272625	0.198909	0.333386
H216	H	1.605959	0.532242	0.666720
Cl217	Cl	0.675283	-0.527609	-0.000013
Cl218	Cl	1.008617	-0.194276	0.333320
Cl219	Cl	1.341950	0.139057	0.666654
Cl220	Cl	0.841232	-0.050610	0.588973
Cl221	Cl	1.174566	0.282723	0.922306
Cl222	Cl	1.507899	0.616056	1.255639
H223	H	0.937354	-0.266534	0.000033
H224	H	1.270687	0.066800	0.333367
H225	H	1.604020	0.400133	0.666700
H226	H	0.803333	0.208395	0.428510
H227	H	1.136666	0.541728	0.761843
H228	H	1.470000	0.875062	1.095176
Cl229	Cl	0.178550	0.090912	-0.154020
Cl230	Cl	0.511884	0.424245	0.179313
Cl231	Cl	0.845217	0.757579	0.512647
H232	H	0.031048	0.088696	0.123832
H233	H	0.364381	0.422030	0.457165
H234	H	0.697714	0.755363	0.790499
Cl235	Cl	0.679386	-0.247964	0.000008
Cl236	Cl	1.012719	0.085370	0.333341
Cl237	Cl	1.346053	0.418703	0.666674
H238	H	0.906157	0.006620	0.185491
H239	H	1.239490	0.339953	0.518824
H240	H	1.572824	0.673286	0.852158
H241	H	0.906166	0.006619	0.328448
H242	H	1.239499	0.339952	0.661781
H243	H	1.572832	0.673286	0.995115
Cl244	Cl	0.625437	0.097485	-0.154029
Cl245	Cl	0.958771	0.430818	0.179304
Cl246	Cl	1.292104	0.764152	0.512638
H247	H	0.709591	-0.103497	0.000018
H248	H	1.042924	0.229836	0.333351
H249	H	1.376257	0.563170	0.666684
H250	H	0.932782	-0.578435	0.000014
H251	H	1.266115	-0.245102	0.333347
H252	H	1.599449	0.088231	0.666680
Cl253	Cl	0.841213	-0.050611	0.411111
Cl254	Cl	1.174547	0.282722	0.744444
Cl255	Cl	1.507880	0.616055	1.077777
Cl256	Cl	0.250762	-0.000528	-0.117983
Cl257	Cl	0.584096	0.332805	0.215351
Cl258	Cl	0.917429	0.666139	0.548684
H259	H	0.906198	0.006622	0.814537
H260	H	1.239531	0.339956	1.147870
H261	H	1.572864	0.673289	1.481204
H262	H	0.701147	-0.679626	-0.000024
H263	H	1.034480	-0.346292	0.333309
H264	H	1.367813	-0.012959	0.666642
H265	H	0.906197	0.006626	0.671580
H266	H	1.239530	0.339959	1.004914
H267	H	1.572864	0.673292	1.338247
Cl268	Cl	0.461920	0.095089	-0.154029
Cl269	Cl	0.795253	0.428422	0.179305
Cl270	Cl	1.128586	0.761756	0.512638
H271	H	0.734233	0.179322	0.185488
H272	H	1.067566	0.512655	0.518821
H273	H	1.400900	0.845988	0.852155
Cl274	Cl	0.713307	0.200416	0.831988
Cl275	Cl	1.046640	0.533749	1.165321
Cl276	Cl	1.379974	0.867082	1.498654
Cl277	Cl	0.713297	0.200414	0.654125
Cl278	Cl	1.046630	0.533748	0.987459
Cl279	Cl	1.379964	0.867081	1.320792
Cl280	Cl	0.713270	0.200407	0.345899
Cl281	Cl	1.046604	0.533740	0.679232
Cl282	Cl	1.379937	0.867073	1.012565
Cl283	Cl	0.414281	0.001880	-0.117987
Cl284	Cl	0.747615	0.335214	0.215346
Cl285	Cl	1.080948	0.668547	0.548680
Cl286	Cl	0.625406	0.097454	0.154044
Cl287	Cl	0.958739	0.430787	0.487377
Cl288	Cl	1.292072	0.764120	0.820711
Cl289	Cl	0.799241	0.236571	0.588907
Cl290	Cl	1.132574	0.569904	0.922240
Cl291	Cl	1.465907	0.903238	1.255574
Cl292	Cl	0.461889	0.095057	0.154045
Cl293	Cl	0.795222	0.428391	0.487378
Cl294	Cl	1.128555	0.761724	0.820712
H295	H	0.244613	0.166207	0.094861
H296	H	0.577946	0.499541	0.428194
H297	H	0.911279	0.832874	0.761528
Cl298	Cl	0.389665	0.186503	0.118000
Cl299	Cl	0.722998	0.519836	0.451333
Cl300	Cl	1.056331	0.853169	0.784666
