data_functionalizedCrystal
_audit_creation_method	'MofGen! by Chris Wilmer'
_symmetry_space_group_name_H-M	'P1'
_symmetry_Int_Tables_number	1
_symmetry_cell_setting	triclinic
loop_
_symmetry_equiv_pos_as_xyz
  x,y,z
_cell_length_a	8.497374
_cell_length_b	18.215407
_cell_length_c	18.215399
_cell_angle_alpha	89.980167
_cell_angle_beta	89.988708
_cell_angle_gamma	90.001541
loop_
_atom_site_label
_atom_site_type_symbol
_atom_site_fract_x
_atom_site_fract_y
_atom_site_fract_z
Zn1	Zn	0.628053	-1.125194	0.416201
Zn2	Zn	0.891875	-1.125153	0.293171
Zn3	Zn	0.628105	-1.002126	0.293148
Zn4	Zn	0.891787	-1.002143	0.416195
O5	O	0.759955	-1.063654	0.354679
O6	O	0.663065	-1.228173	0.399892
O7	O	0.856944	-1.108809	0.190183
O8	O	0.407336	-1.018461	0.309465
O9	O	0.856894	-1.228143	0.309502
O10	O	0.407298	-1.108878	0.399871
O11	O	0.663153	-1.018422	0.190167
O12	O	0.663068	-0.899144	0.309459
O13	O	0.856744	-1.018490	0.519181
O14	O	0.856794	-0.899157	0.399861
O15	O	0.662980	-1.108895	0.519185
O16	O	1.112626	-1.108826	0.309497
O17	O	1.112561	-1.018451	0.399883
C18	C	0.759928	-0.872448	0.354658
C19	C	0.759955	-0.790649	0.354666
C20	C	0.759846	-1.063699	0.546632
C21	C	0.759800	-1.063718	0.628431
C22	C	0.759983	-1.255607	0.354701
C23	C	0.759995	-1.337406	0.354710
C24	C	1.169835	-1.063645	0.354690
C25	C	1.348479	-1.063664	0.354677
C26	C	0.759950	-1.063652	0.163473
C27	C	0.759552	-1.063775	0.081674
C28	C	0.860986	-0.602481	0.401680
C29	C	0.860991	-0.525622	0.401689
C30	C	0.658952	-0.525579	0.307694
C31	C	0.658941	-0.602437	0.307689
C32	C	0.759967	-0.640885	0.354681
C33	C	0.759983	-0.487169	0.354695
C34	C	0.759988	-0.403836	0.354705
C35	C	0.759960	-0.724224	0.354673
C36	C	0.658813	-1.110809	0.816628
C37	C	0.658767	-1.110817	0.893487
C38	C	0.860543	-1.016679	0.893471
C39	C	0.860580	-1.016667	0.816614
C40	C	0.759717	-1.063736	0.778194
C41	C	0.759634	-1.063757	0.931911
C42	C	0.759585	-1.063766	1.015244
C43	C	0.759764	-1.063726	0.694855
H44	H	0.943244	-0.633783	0.439945
O45	O	0.958978	-0.488202	0.447318
C46	C	0.937356	-0.412121	0.437238
H47	H	0.815544	-0.401610	0.413221
H48	H	0.948212	-0.382936	0.492358
H49	H	1.030825	-0.390293	0.397985
H50	H	0.576703	-0.494265	0.269434
H51	H	0.942748	-0.978330	0.785320
H52	H	0.576679	-1.149133	0.785349
O53	O	0.560755	-0.639634	0.261962
C54	C	0.471572	-0.589219	0.220495
H55	H	0.536186	-0.534432	0.217903
H56	H	0.454584	-0.611405	0.162523
H57	H	0.351831	-0.581054	0.247527
O58	O	0.560701	-1.156615	0.930707
C59	C	0.471662	-1.198139	0.880313
H60	H	0.536311	-1.200676	0.825529
H61	H	0.454828	-1.256126	0.902531
H62	H	0.351848	-1.171193	0.872129
H63	H	0.942666	-0.978359	0.924762
