data_functionalizedCrystal
_audit_creation_method	'MofGen! by Chris Wilmer'
_symmetry_space_group_name_H-M	'P1'
_symmetry_Int_Tables_number	1
_symmetry_cell_setting	triclinic
loop_
_symmetry_equiv_pos_as_xyz
  x,y,z
_cell_length_a	29.839134
_cell_length_b	29.839131
_cell_length_c	29.839126
_cell_angle_alpha	90.021998
_cell_angle_beta	90.035740
_cell_angle_gamma	90.036281
loop_
_atom_site_label
_atom_site_type_symbol
_atom_site_fract_x
_atom_site_fract_y
_atom_site_fract_z
Zn1	Zn	0.686781	-0.178959	0.254125
Zn2	Zn	0.686695	-0.254076	0.178995
Zn3	Zn	0.611645	-0.178955	0.178995
Zn4	Zn	0.611611	-0.254056	0.254083
O5	O	0.649183	-0.216511	0.216550
O6	O	0.749636	-0.188934	0.244176
O7	O	0.676718	-0.244118	0.116128
O8	O	0.621662	-0.116088	0.188978
O9	O	0.749573	-0.244122	0.188979
O10	O	0.676864	-0.116091	0.244176
O11	O	0.621579	-0.188927	0.116128
O12	O	0.548774	-0.188906	0.188938
O13	O	0.621604	-0.244087	0.316956
O14	O	0.548749	-0.244083	0.244105
O15	O	0.676831	-0.188914	0.316987
O16	O	0.676684	-0.316941	0.188938
O17	O	0.621521	-0.316926	0.244105
C18	C	0.532460	-0.216492	0.216517
C19	C	0.482526	-0.216495	0.216514
C20	C	0.172879	-0.245284	0.245240
C21	C	-0.014794	-0.245297	0.245260
O22	O	-0.039062	-0.269754	0.269665
N23	N	-0.038259	-0.216528	0.216583
C24	C	-0.014803	-0.187752	0.187902
O25	O	-0.039068	-0.163279	0.163514
C26	C	0.172869	-0.187737	0.187884
C27	C	0.196332	-0.216511	0.216560
C28	C	0.196342	-0.274056	0.273913
C29	C	0.243257	-0.274054	0.273906
C30	C	0.266710	-0.245281	0.245226
C31	C	0.243247	-0.216509	0.216553
C32	C	0.196325	-0.158959	0.159205
C33	C	0.243246	-0.158957	0.159204
C34	C	0.266708	-0.187731	0.187880
C35	C	0.313616	-0.187734	0.187865
N36	N	0.337081	-0.216504	0.216542
C37	C	0.313628	-0.245277	0.245222
C38	C	-0.113334	-0.187762	0.187912
C39	C	-0.160251	-0.187766	0.187916
C40	C	-0.160239	-0.245311	0.245275
C41	C	-0.113321	-0.245309	0.245269
C42	C	-0.089869	-0.216531	0.216589
C43	C	0.412154	-0.245271	0.245205
C44	C	0.459073	-0.245268	0.245194
C45	C	0.459057	-0.187722	0.187837
C46	C	0.412141	-0.187726	0.187846
C47	C	0.388691	-0.216502	0.216534
O48	O	0.337912	-0.163287	0.163477
O49	O	0.337900	-0.269739	0.269613
C50	C	0.125964	-0.245286	0.245247
C51	C	0.102501	-0.216515	0.216574
C52	C	0.125954	-0.187741	0.187893
C53	C	0.055583	-0.216519	0.216577
C54	C	0.032130	-0.245292	0.245258
C55	C	0.055595	-0.274061	0.273934
C56	C	0.102511	-0.274059	0.273927
C57	C	0.102489	-0.158972	0.159217
C58	C	0.055573	-0.158977	0.159226
C59	C	0.032120	-0.187750	0.187906
C60	C	0.649102	-0.333234	0.216527
C61	C	0.649108	-0.383168	0.216533
C62	C	0.677959	-0.692807	0.187866
C63	C	0.678014	-0.880480	0.187883
O64	O	0.702480	-0.904741	0.163493
N65	N	0.649276	-0.903953	0.216583
C66	C	0.620524	-0.880506	0.245283
O67	O	0.596085	-0.904777	0.269698
C68	C	0.620471	-0.692833	0.245268
C69	C	0.649208	-0.669363	0.216563
C70	C	0.706694	-0.669336	0.159164
C71	C	0.706678	-0.622421	0.159158
C72	C	0.677927	-0.598976	0.187854
C73	C	0.649192	-0.622447	0.216557
C74	C	0.591722	-0.669387	0.273969
C75	C	0.591712	-0.622466	0.273964
C76	C	0.620449	-0.598995	0.245259
C77	C	0.620426	-0.552087	0.245248
N78	N	0.649164	-0.528614	0.216548
C79	C	0.677915	-0.552058	0.187851
C80	C	0.620553	-0.979036	0.245289
C81	C	0.620566	-1.025954	0.245292
C82	C	0.678057	-1.025925	0.187893
C83	C	0.678042	-0.979007	0.187887
C84	C	0.649291	-0.955563	0.216589
C85	C	0.677879	-0.453533	0.187841
C86	C	0.677859	-0.406613	0.187836
C87	C	0.620370	-0.406646	0.245237
C88	C	0.620388	-0.453561	0.245240
C89	C	0.649146	-0.477004	0.216540
O90	O	0.595976	-0.527797	0.269629
O91	O	0.702357	-0.527778	0.163447
C92	C	0.677975	-0.739723	0.187872
C93	C	0.649240	-0.763193	0.216574
C94	C	0.620489	-0.739749	0.245271
C95	C	0.649252	-0.810111	0.216578
C96	C	0.678003	-0.833556	0.187881
C97	C	0.706741	-0.810082	0.159181
C98	C	0.706726	-0.763167	0.159175
C99	C	0.591751	-0.763222	0.273971
C100	C	0.591769	-0.810138	0.273974
C101	C	0.620520	-0.833582	0.245277
C102	C	0.766361	-0.216531	0.216582
C103	C	0.816296	-0.216539	0.216596
C104	C	0.649223	-0.216499	0.333728
C105	C	0.649240	-0.216493	0.383662
C106	C	0.649277	-0.099333	0.216582
C107	C	0.649317	-0.049399	0.216595
C108	C	0.649169	-0.216492	0.099827
C109	C	0.649239	-0.216371	0.049893
C110	C	0.677945	-0.245172	0.740253
C111	C	0.677946	-0.245203	0.552580
O112	O	0.702347	-0.269657	0.528318
N113	N	0.649238	-0.216471	0.529108
C114	C	0.620527	-0.187732	0.552557
O115	O	0.596106	-0.163298	0.528286
C116	C	0.620524	-0.187704	0.740229
C117	C	0.649237	-0.216434	0.763699
C118	C	0.706655	-0.273900	0.763723
C119	C	0.706656	-0.273890	0.810638
C120	C	0.677947	-0.245152	0.834084
C121	C	0.649238	-0.216424	0.810614
C122	C	0.591811	-0.158967	0.763677
C123	C	0.591812	-0.158963	0.810598
C124	C	0.620524	-0.187693	0.834068
C125	C	0.620531	-0.187676	0.880975
N126	N	0.649238	-0.216407	0.904447
C127	C	0.677946	-0.245145	0.881002
C128	C	0.620531	-0.187749	0.454026
C129	C	0.620532	-0.187755	0.407108
C130	C	0.677950	-0.245227	0.407134
C131	C	0.677951	-0.245217	0.454053
C132	C	0.649238	-0.216480	0.477498
C133	C	0.677947	-0.245122	0.979527
C134	C	0.677947	-0.245109	1.026447
C135	C	0.620527	-0.187639	1.026417
C136	C	0.620529	-0.187651	0.979501
C137	C	0.649240	-0.216396	0.956058
O138	O	0.596139	-0.163238	0.905266
O139	O	0.702356	-0.269583	0.905280
C140	C	0.677944	-0.245181	0.693337
C141	C	0.649234	-0.216453	0.669868
C142	C	0.620526	-0.187715	0.693313
C143	C	0.649235	-0.216460	0.622950
C144	C	0.677944	-0.245198	0.599504
C145	C	0.706651	-0.273929	0.622976
C146	C	0.706652	-0.273919	0.669892
C147	C	0.591818	-0.158984	0.669841
C148	C	0.591820	-0.158996	0.622926
C149	C	0.620528	-0.187734	0.599480
H150	H	0.478174	-0.268701	0.268545
H151	H	0.701330	-0.268504	1.045554
H152	H	0.597155	-0.164240	1.045515
H153	H	0.597148	-0.164346	0.473111
H154	H	0.701260	-0.387504	0.164459
H155	H	0.393037	-0.164297	0.164496
H156	H	0.478161	-0.164297	0.164485
H157	H	0.701331	-0.268612	0.473159
O158	O	0.032878	-0.302052	0.301812
C159	C	0.037826	-0.359102	0.358730
C160	C	0.063612	-0.327439	0.327174
H161	H	0.062663	-0.379630	0.379250
H162	H	0.015841	-0.382594	0.338088
H163	H	0.015879	-0.338497	0.382237
H164	H	0.085582	-0.348009	0.303660
H165	H	0.085568	-0.303947	0.347844
O166	O	0.734621	-0.740420	0.131230
C167	C	0.756446	-0.726073	0.054832
C168	C	0.724831	-0.751865	0.086430
H169	H	0.748537	-0.735309	0.018604
H170	H	0.792676	-0.735273	0.062727
H171	H	0.751511	-0.688513	0.059776
H172	H	0.729727	-0.789431	0.081504
H173	H	0.688613	-0.742627	0.078527
H174	H	0.121610	-0.297490	0.297278
O175	O	0.705879	-0.273059	0.956828
C176	C	0.762813	-0.330078	0.961819
C177	C	0.731209	-0.298458	0.987581
H178	H	0.783293	-0.350628	0.986671
H179	H	0.786351	-0.309484	0.939883
H180	H	0.742164	-0.353554	0.939824
H181	H	0.751821	-0.274975	1.009599
H182	H	0.707669	-0.319080	1.009488
O183	O	0.734579	-0.301862	0.600266
C184	C	0.791506	-0.358890	0.605228
C185	C	0.759913	-0.327271	0.631006
H186	H	0.811990	-0.379448	0.630070
H187	H	0.815041	-0.338294	0.583291
H188	H	0.770848	-0.382359	0.583234
H189	H	0.780535	-0.303796	0.653024
H190	H	0.736377	-0.347895	0.652914
H191	H	0.036474	-0.135546	0.135871
H192	H	-0.094220	-0.268739	0.268619
H193	H	0.701327	-0.268625	0.388037
O194	O	0.125198	-0.131007	0.131312
C195	C	0.120223	-0.073914	0.074438
C196	C	0.094452	-0.105570	0.106014
H197	H	0.095376	-0.053333	0.053983
H198	H	0.142145	-0.094483	0.050875
H199	H	0.142231	-0.050469	0.095107
H200	H	0.072419	-0.129022	0.085382
H201	H	0.072558	-0.084973	0.129579
O202	O	0.563857	-0.131068	0.833322
C203	C	0.487452	-0.109269	0.847650
C204	C	0.519058	-0.140881	0.821881
H205	H	0.451225	-0.117198	0.838417
H206	H	0.495330	-0.073039	0.838427
H207	H	0.492405	-0.114187	0.885214
H208	H	0.514123	-0.136003	0.784312
H209	H	0.511172	-0.177099	0.831142
O210	O	-0.183006	-0.273324	0.273090
C211	C	-0.197380	-0.349768	0.294789
C212	C	-0.171575	-0.318101	0.263253
H213	H	-0.188140	-0.385976	0.286855
H214	H	-0.234948	-0.344864	0.289862
H215	H	-0.188131	-0.341902	0.331025
H216	H	-0.180785	-0.325947	0.227006
H217	H	-0.134013	-0.323011	0.268220
O218	O	0.705827	-0.476231	0.159918
C219	C	0.762861	-0.471238	0.103000
C220	C	0.731229	-0.445477	0.134594
H221	H	0.783414	-0.446385	0.082524
H222	H	0.742276	-0.493221	0.079458
H223	H	0.786334	-0.493183	0.123657
H224	H	0.707750	-0.423507	0.113974
H225	H	0.751843	-0.423522	0.158138
H226	H	0.597157	-0.164355	0.388003
H227	H	0.730079	-0.603313	0.135785
H228	H	0.730109	-0.688420	0.135795
H229	H	-0.179351	-0.164340	0.164561
O230	O	0.563893	-0.131123	0.740838
C231	C	0.503212	-0.125086	0.687865
C232	C	0.534811	-0.156670	0.713693
H233	H	0.479684	-0.145728	0.665920
H234	H	0.523821	-0.101602	0.665886
H235	H	0.482715	-0.104542	0.712699
H236	H	0.555314	-0.177243	0.688891
H237	H	0.514176	-0.180125	0.735679
H238	H	-0.094243	-0.164327	0.164556
H239	H	0.393066	-0.268703	0.268566
O240	O	0.705894	-0.956189	0.159958
C241	C	0.711958	-0.903222	0.099322
C242	C	0.680362	-0.929040	0.130917
H243	H	0.691329	-0.881259	0.075841
H244	H	0.732499	-0.928022	0.078780
H245	H	0.735445	-0.881247	0.119980
H246	H	0.656849	-0.951016	0.110294
H247	H	0.659853	-0.904216	0.151461
O248	O	0.705999	-1.048773	0.160086
C249	C	0.731536	-1.121046	0.134706
C250	C	0.699859	-1.095225	0.166205
H251	H	0.726577	-1.158607	0.139636
H252	H	0.767752	-1.111801	0.142674
H253	H	0.723708	-1.111842	0.098461
H254	H	0.707647	-1.104416	0.202460
H255	H	0.663653	-1.104473	0.158198
O256	O	0.592633	-1.048682	0.273215
C257	C	0.535592	-1.043745	0.330129
C258	C	0.567209	-1.017953	0.298534
H259	H	0.515022	-1.018913	0.350601
H260	H	0.556190	-1.065668	0.353676
H261	H	0.512134	-1.065754	0.309475
H262	H	0.590673	-0.995920	0.319152
H263	H	0.546583	-0.996059	0.274986
O264	O	0.592685	-0.956247	0.273217
C265	C	0.586583	-0.903242	0.333849
C266	C	0.618197	-0.929027	0.302258
H267	H	0.607197	-0.881221	0.357331
H268	H	0.566055	-0.928063	0.354391
H269	H	0.563085	-0.881328	0.313187
H270	H	0.641722	-0.950942	0.322885
H271	H	0.638693	-0.904181	0.281715
H272	H	0.262356	-0.297484	0.297258
H273	H	0.568301	-0.603380	0.297337
H274	H	0.568319	-0.688489	0.297342
H275	H	0.177229	-0.135529	0.135854
H276	H	0.596989	-0.472672	0.268615
O277	O	0.563862	-0.131133	0.600150
C278	C	0.487456	-0.109308	0.585786
C279	C	0.519069	-0.140893	0.611596
H280	H	0.451235	-0.117181	0.595038
H281	H	0.492342	-0.114250	0.548219
H282	H	0.495394	-0.073085	0.595018
H283	H	0.511151	-0.177128	0.602402
H284	H	0.514177	-0.135912	0.649157
H285	H	0.597155	-0.164251	0.960391
H286	H	0.596960	-0.387550	0.268600
H287	H	0.568339	-0.744137	0.297340
H288	H	0.730150	-0.829179	0.135814
H289	H	0.568364	-0.829244	0.297349
H290	H	0.262338	-0.135519	0.135852
O291	O	0.734558	-0.301845	0.833364
C292	C	0.791523	-0.358834	0.828420
C293	C	0.759940	-0.327202	0.802632
H294	H	0.812059	-0.379337	0.803585
H295	H	0.770900	-0.382350	0.850354
H296	H	0.815014	-0.338206	0.850419
H297	H	0.736442	-0.347793	0.780609
H298	H	0.780590	-0.303684	0.780727
H299	H	0.730033	-0.297314	0.688996
H300	H	0.730033	-0.297304	0.744638
O301	O	0.563991	-0.131047	0.692664
C302	C	0.557990	-0.070361	0.745620
C303	C	0.589555	-0.101981	0.719811
H304	H	0.578646	-0.046848	0.767567
H305	H	0.534490	-0.090955	0.767597
H306	H	0.537462	-0.049851	0.720775
H307	H	0.610113	-0.122498	0.744624
H308	H	0.613025	-0.081362	0.697827
H309	H	0.177251	-0.297487	0.297271
