data_functionalizedCrystal
_audit_creation_method	'MofGen! by Chris Wilmer'
_symmetry_space_group_name_H-M	'P1'
_symmetry_Int_Tables_number	1
_symmetry_cell_setting	triclinic
loop_
_symmetry_equiv_pos_as_xyz
  x,y,z
_cell_length_a	16.992694
_cell_length_b	13.339070
_cell_length_c	15.455313
_cell_angle_alpha	93.394339
_cell_angle_beta	87.142206
_cell_angle_gamma	103.148759
loop_
_atom_site_label
_atom_site_type_symbol
_atom_site_fract_x
_atom_site_fract_y
_atom_site_fract_z
O1	O	1.090408	0.214131	-0.072012
O2	O	0.861603	0.211734	-0.072038
O3	O	0.949746	0.063546	-0.072026
O4	O	1.002265	0.362319	-0.072025
O5	O	0.944697	0.071983	0.072236
O6	O	0.856554	0.220171	0.072223
O7	O	1.085360	0.222568	0.072249
Cu8	Cu	0.970496	0.222140	0.085408
Cu9	Cu	0.976466	0.212163	-0.085197
O10	O	0.997216	0.370756	0.072237
C11	C	0.829195	0.212871	0.000089
C12	C	0.740151	0.203676	0.000079
C13	C	0.938350	0.029358	0.000103
C14	C	0.911906	-0.085082	0.000097
C15	C	0.709211	0.292390	0.000080
C16	C	0.625543	0.283745	0.000092
C17	C	0.572817	0.186386	0.000097
C18	C	0.603762	0.097666	0.000099
C19	C	0.687429	0.106311	0.000093
C20	C	0.321423	0.150552	0.000120
C21	C	0.237751	0.141912	0.000123
C22	C	0.259538	0.327993	0.000118
C23	C	0.343205	0.336630	0.000107
C24	C	0.374143	0.247910	0.000114
N25	N	0.487295	0.177547	0.000107
N26	N	0.459663	0.256750	0.000110
C27	C	1.117519	-0.433251	0.000120
C28	C	1.142367	-0.325728	0.000131
C29	C	1.084754	-0.265562	0.000122
C30	C	1.002289	-0.312927	0.000103
C31	C	0.977439	-0.420460	0.000099
C32	C	0.944673	-0.252771	0.000101
C33	C	0.862209	-0.300136	0.000081
C34	C	0.837363	-0.407658	0.000077
C35	C	0.894976	-0.467825	0.000086
C36	C	0.969524	-0.145238	0.000105
C37	C	0.829443	-0.132447	0.000083
C38	C	0.804596	-0.239969	0.000072
C39	C	1.117767	0.221431	0.000120
C40	C	1.206811	0.230626	0.000124
C41	C	1.008612	0.404944	0.000106
C42	C	1.035056	0.519384	0.000107
N43	N	0.966302	0.229157	0.205403
N44	N	0.980664	0.205137	-0.205192
C45	C	1.003772	0.166228	0.250803
C46	C	1.000610	0.171545	0.341610
C47	C	0.959983	0.239798	0.387017
C48	C	0.922508	0.302729	0.341611
C49	C	0.925665	0.297406	0.250805
C50	C	0.946347	0.262746	0.658596
C51	C	0.943195	0.268067	0.749408
C52	C	1.021296	0.136880	0.749401
C53	C	1.024454	0.131568	0.658594
C54	C	0.986976	0.194496	0.613196
N55	N	0.956752	0.245237	0.479836
N56	N	0.990202	0.189051	0.520378
H57	H	0.752136	0.371670	0.000076
O58	O	0.883105	0.369166	0.385618
C59	C	0.919034	0.470862	0.363431
H60	H	0.952070	0.469381	0.297497
H61	H	0.870169	0.516491	0.360324
H62	H	0.963914	0.508949	0.414530
O63	O	0.717354	0.020028	0.000049
C64	C	0.652877	-0.067758	0.000074
H65	H	0.597381	-0.048244	-0.027234
H66	H	0.670894	-0.132780	-0.041810
H67	H	0.638219	-0.093236	0.069284
O68	O	0.724464	-0.285860	0.000173
C69	C	0.685309	-0.251353	0.074893
H70	H	0.722388	-0.173644	0.099811
H71	H	0.622675	-0.242809	0.058078
H72	H	0.679202	-0.309702	0.127208
H73	H	1.036667	-0.106684	0.000121
H74	H	0.234339	0.400223	0.000115
H75	H	0.194822	0.062627	0.000126
H76	H	1.164418	-0.482247	0.000134
O77	O	1.109027	-0.161130	0.000088
C78	C	1.194165	-0.132224	0.000127
H79	H	1.220464	-0.199410	-0.027175
H80	H	1.216513	-0.063128	-0.041755
H81	H	1.214362	-0.110760	0.069341
H82	H	1.209509	-0.287171	0.000148
O83	O	0.351506	0.064414	0.000269
C84	C	0.396663	0.068222	0.074968
H85	H	0.375810	0.121464	0.127194
H86	H	0.387106	-0.012503	0.100042
H87	H	0.463587	0.098783	0.058073
H88	H	1.036859	0.110654	0.213839
H89	H	0.560826	0.018394	0.000115
H90	H	0.895152	0.348649	0.213842
O91	O	0.773578	-0.073862	0.000033
C92	C	0.813193	0.031200	0.000058
H93	H	0.877735	0.038788	-0.027244
H94	H	0.779375	0.073704	-0.041831
H95	H	0.814501	0.066064	0.069268
H96	H	0.600356	0.355985	0.000092
H97	H	0.874749	-0.555379	0.000073
O98	O	1.057761	0.075703	0.793367
C99	C	1.094273	0.014297	0.733818
H100	H	1.106616	0.052801	0.669087
H101	H	1.153686	0.005310	0.760048
H102	H	1.052043	-0.064873	0.724165
H103	H	0.915833	0.313987	0.621640
O104	O	1.037093	0.110388	0.385576
C105	C	1.073621	0.048998	0.326028
H106	H	1.085945	0.087494	0.261293
H107	H	1.133046	0.040047	0.352254
H108	H	1.031411	-0.030188	0.316385
O109	O	0.757253	-0.453629	-0.000089
C110	C	0.723330	-0.427808	-0.074797
H111	H	0.772971	-0.405046	-0.127012
H112	H	0.676097	-0.497084	-0.099883
H113	H	0.693492	-0.360416	-0.057910
O114	O	1.063503	0.064917	0.614356
C115	C	1.058016	0.073459	0.524474
H116	H	1.046917	0.152384	0.511941
H117	H	1.116900	0.064145	0.489761
H118	H	1.005795	0.010757	0.499037
O119	O	0.394306	0.431287	0.000146
C120	C	0.349056	0.507736	0.000128
H121	H	0.285271	0.475898	0.027444
H122	H	0.379388	0.577754	0.042009
H123	H	0.345919	0.531376	-0.069081
O124	O	0.903652	0.334384	0.793383
C125	C	0.871262	0.388799	0.733843
H126	H	0.863433	0.342718	0.669115
H127	H	0.810015	0.400825	0.760091
H128	H	0.914143	0.466852	0.724179
