data_functionalizedCrystal
_audit_creation_method	'MofGen! by Chris Wilmer'
_symmetry_space_group_name_H-M	'P1'
_symmetry_Int_Tables_number	1
_symmetry_cell_setting	triclinic
loop_
_symmetry_equiv_pos_as_xyz
  x,y,z
_cell_length_a	12.503572
_cell_length_b	14.971486
_cell_length_c	14.971486
_cell_angle_alpha	83.614129
_cell_angle_beta	93.527305
_cell_angle_gamma	86.482411
loop_
_atom_site_label
_atom_site_type_symbol
_atom_site_fract_x
_atom_site_fract_y
_atom_site_fract_z
O1	O	0.089197	-1.192090	-0.111401
O2	O	0.089226	-0.931692	-0.125358
O3	O	0.089203	-1.068870	0.011820
O4	O	0.089220	-1.054912	-0.248579
O5	O	-0.089437	-1.058553	0.001487
O6	O	-0.089414	-0.921375	-0.135692
O7	O	-0.089443	-1.181773	-0.121735
Cu8	Cu	-0.105740	-1.050632	-0.129657
Cu9	Cu	0.105523	-1.062833	-0.117436
O10	O	-0.089420	-1.044595	-0.258913
C11	C	-0.000090	-0.893209	-0.129900
C12	C	-0.000079	-0.793912	-0.128029
C13	C	-0.000116	-1.063087	0.039978
C14	C	-0.000115	-1.061216	0.139275
N15	N	-0.254331	-1.042057	-0.138252
C16	C	-0.473444	-1.029444	-0.150903
C17	C	-0.526780	-1.084025	-0.096186
C18	C	-0.648702	-1.077007	-0.103225
C19	C	-0.351511	-1.036461	-0.143864
N20	N	0.254114	-1.071415	-0.108834
C21	C	-0.000124	-1.220256	-0.117192
C22	C	-0.000128	-1.319553	-0.119063
C23	C	-0.000075	-0.736687	-0.208618
C24	C	-0.000091	-0.643387	-0.206856
C25	C	-0.000104	-0.607314	-0.124503
C26	C	-0.000111	-0.664546	-0.043908
C27	C	-0.000102	-0.757844	-0.045672
C28	C	-0.000126	-0.470083	-0.040238
C29	C	-0.000132	-0.376778	-0.038474
C30	C	-0.000115	-0.355625	-0.201422
C31	C	-0.000107	-0.448923	-0.203186
C32	C	-0.000111	-0.506149	-0.122590
C33	C	-0.000098	-1.050378	-0.287070
C34	C	-0.000092	-1.052249	-0.386367
C35	C	-0.000125	-1.141805	0.196500
C36	C	-0.000114	-1.140043	0.289800
C37	C	-0.000101	-1.057690	0.325873
C38	C	-0.000088	-0.977096	0.268641
C39	C	-0.000091	-0.978859	0.175343
C40	C	-0.000084	-0.973425	0.463104
C41	C	-0.000082	-0.971660	0.556408
C42	C	-0.000106	-1.134608	0.577561
C43	C	-0.000110	-1.136372	0.484263
C44	C	-0.000099	-1.055777	0.427037
H45	H	-0.480876	-1.136026	-0.044055
H46	H	-0.000112	-1.200232	0.624159
C47	C	-0.000072	-0.886504	0.308315
C48	C	0.092702	-0.824893	0.292120
C49	C	0.092715	-0.734298	0.331789
C50	C	-0.000045	-0.705313	0.387653
C51	C	-0.092826	-0.766926	0.403851
C52	C	-0.092839	-0.857521	0.364182
H53	H	0.161375	-0.846348	0.250763
H54	H	0.161398	-0.688688	0.319798
H55	H	-0.000036	-0.638249	0.417019
H56	H	-0.161499	-0.745471	0.445208
H57	H	-0.161522	-0.903130	0.376173
H58	H	-0.000142	-1.208866	0.167137
H59	H	-0.519342	-0.977448	-0.203031
H60	H	-0.000065	-0.766050	-0.275679
H61	H	-0.000087	-0.596797	-0.272480
H62	H	-0.000086	-0.478291	-0.270244
H63	H	-0.000124	-1.205666	0.336389
C64	C	-0.000129	-0.533035	0.048416
C65	C	-0.092894	-0.523593	0.110511
C66	C	-0.092891	-0.586546	0.199162
C67	C	-0.000124	-0.658942	0.225718
C68	C	0.092648	-0.668386	0.163622
C69	C	0.092646	-0.605433	0.074971
H70	H	-0.161573	-0.469999	0.090854
H71	H	-0.161568	-0.579554	0.245130
H72	H	-0.000122	-0.705543	0.291343
H73	H	0.161327	-0.721980	0.183279
H74	H	0.161322	-0.612425	0.029003
H75	H	-0.000116	-0.309027	-0.267046
C76	C	-0.000122	-1.226960	0.444583
C77	C	-0.092888	-1.288579	0.460775
C78	C	-0.092895	-1.379169	0.421096
C79	C	-0.000135	-1.408141	0.365225
C80	C	0.092638	-1.346521	0.349030
C81	C	0.092645	-1.255930	0.388709
H82	H	-0.161561	-1.267134	0.502137
H83	H	-0.161573	-1.424785	0.433085
H84	H	-0.000140	-1.475201	0.335852
H85	H	0.161311	-1.367966	0.307668
H86	H	0.161323	-1.210315	0.376720
H87	H	-0.000143	-0.347411	0.028585
H88	H	-0.000136	-0.635167	0.023144
H89	H	-0.000083	-0.913236	0.128751
H90	H	-0.000105	-0.804437	0.019952
H91	H	-0.000089	-0.904601	0.585774
H92	H	-0.000072	-0.907795	0.416513
