data_functionalizedCrystal
_audit_creation_method	'MofGen! by Chris Wilmer'
_symmetry_space_group_name_H-M	'P1'
_symmetry_Int_Tables_number	1
_symmetry_cell_setting	triclinic
loop_
_symmetry_equiv_pos_as_xyz
  x,y,z
_cell_length_a	21.295419
_cell_length_b	17.640280
_cell_length_c	17.639306
_cell_angle_alpha	87.821350
_cell_angle_beta	78.772373
_cell_angle_gamma	78.814807
loop_
_atom_site_label
_atom_site_type_symbol
_atom_site_fract_x
_atom_site_fract_y
_atom_site_fract_z
Zn1	Zn	1.084290	-0.388790	-0.368405
Zn2	Zn	1.584290	0.111210	0.131595
Zn3	Zn	1.075987	-0.490117	-0.215775
Zn4	Zn	1.575987	0.009883	0.284225
Zn5	Zn	0.954464	-0.363187	-0.241417
Zn6	Zn	1.454464	0.136813	0.258583
Zn7	Zn	0.995327	-0.515760	-0.342725
Zn8	Zn	1.495327	-0.015760	0.157275
O9	O	1.027517	-0.439464	-0.292080
O10	O	1.527517	0.060536	0.207920
O11	O	1.171278	-0.402214	-0.348174
O12	O	1.671278	0.097786	0.151826
O13	O	1.039290	-0.451833	-0.112902
O14	O	1.539290	0.048167	0.387098
O15	O	0.958059	-0.260325	-0.279740
O16	O	1.458059	0.239675	0.220260
O17	O	1.165177	-0.476659	-0.236037
O18	O	1.665177	0.023341	0.263963
O19	O	1.053442	-0.279136	-0.373038
O20	O	1.553442	0.220864	0.126962
O21	O	0.950008	-0.358578	-0.131741
O22	O	1.450008	0.141422	0.368259
O23	O	0.871795	-0.383443	-0.254840
O24	O	1.371795	0.116557	0.245160
O25	O	1.027704	-0.520364	-0.452406
O26	O	1.527704	-0.020364	0.047594
O27	O	0.901817	-0.495538	-0.329271
O28	O	1.401817	0.004462	0.170729
O29	O	1.093065	-0.427080	-0.471272
O30	O	1.593065	0.072920	0.028728
O31	O	1.078913	-0.599777	-0.211137
O32	O	1.578913	-0.099777	0.288863
O33	O	1.019653	-0.618617	-0.304407
O34	O	1.519653	-0.118617	0.195593
C35	C	1.052836	-0.636752	-0.252219
C36	C	1.552836	-0.136752	0.247781
C37	C	1.063731	-0.721157	-0.235192
C38	C	1.563731	-0.221157	0.264808
C39	C	0.863966	-0.439496	-0.292052
C40	C	1.363966	0.060504	0.207948
C41	C	0.794004	-0.439531	-0.292054
C42	C	1.294004	0.060469	0.207946
C43	C	0.945066	-1.047883	-0.421712
C44	C	1.445066	-0.547883	0.078288
C45	C	0.955299	-1.127190	-0.405688
C46	C	1.455299	-0.627190	0.094312
C47	C	1.017076	-1.107526	-0.308664
C48	C	1.517076	-0.607526	0.191336
C49	C	1.006851	-1.028216	-0.324683
C50	C	1.506851	-0.528216	0.175317
C51	C	0.970844	-0.998401	-0.381207
C52	C	1.470844	-0.498401	0.118793
C53	C	1.032629	-0.978735	-0.284177
C54	C	1.532629	-0.478735	0.215823
C55	C	1.022401	-0.899431	-0.300192
C56	C	1.522401	-0.399431	0.199808
C57	C	0.986395	-0.869609	-0.356712
C58	C	1.486395	-0.369609	0.143288
C59	C	0.960617	-0.919098	-0.397221
C60	C	1.460617	-0.419098	0.102779
C61	C	1.068631	-1.008551	-0.227650
C62	C	1.568631	-0.508551	0.272350
C63	C	1.094410	-0.959069	-0.187144
C64	C	1.594410	-0.459069	0.312856
C65	C	1.084186	-0.879765	-0.203163
C66	C	1.584186	-0.379765	0.296837
C67	C	1.048180	-0.849943	-0.259682
C68	C	1.548180	-0.349943	0.240318
C69	C	1.109965	-0.830276	-0.162653
C70	C	1.609965	-0.330276	0.337347
C71	C	1.099737	-0.750973	-0.178668
C72	C	1.599737	-0.250973	0.321332
C73	C	1.037952	-0.770639	-0.275697
C74	C	1.537952	-0.270639	0.224303
C75	C	0.764361	-0.400863	-0.350502
C76	C	1.264361	0.099137	0.149498
C77	C	0.698616	-0.400843	-0.350510
C78	C	1.198616	0.099157	0.149490
C79	C	0.662521	-0.439507	-0.292073
C80	C	1.162521	0.060493	0.207927
C81	C	0.692170	-0.478177	-0.233615
C82	C	1.192170	0.021823	0.266385
C83	C	0.757912	-0.478189	-0.233605
C84	C	1.257912	0.021811	0.266395
N85	N	0.566654	-0.504750	-0.272729
N86	N	1.066654	-0.004750	0.227271
N87	N	0.504203	-0.504737	-0.272743
N88	N	1.004203	-0.004737	0.227257
C89	C	0.464444	-0.439471	-0.292098
C90	C	0.964444	0.060529	0.207902
N91	N	0.489498	-0.374220	-0.311454
N92	N	0.989498	0.125780	0.188546
N93	N	0.551956	-0.374235	-0.311443
N94	N	1.051956	0.125765	0.188557
C95	C	0.591234	-0.439498	-0.292077
C96	C	1.091234	0.060502	0.207923
C97	C	0.363513	-0.400777	-0.350558
C98	C	0.863513	0.099223	0.149442
C99	C	0.297766	-0.400755	-0.350560
C100	C	0.797766	0.099245	0.149440
C101	C	0.291323	-0.478097	-0.233667
C102	C	0.791323	0.021903	0.266333
C103	C	0.357067	-0.478111	-0.233663
C104	C	0.857067	0.021889	0.266337
C105	C	0.393159	-0.439454	-0.292112
C106	C	0.893159	0.060546	0.207888
C107	C	1.191707	-0.439432	-0.292110
C108	C	1.691707	0.060568	0.207890
C109	C	1.261675	-0.439418	-0.292122
C110	C	1.761675	0.060582	0.207878
C111	C	1.065869	-0.479438	-0.490165
C112	C	1.565869	0.020562	0.009835
C113	C	1.082213	-0.496473	-0.574577
C114	C	1.582213	0.003527	-0.074577
C115	C	1.002119	-0.241408	-0.332114
C116	C	1.502119	0.258592	0.167886
C117	C	0.991296	-0.157009	-0.349174
C118	C	1.491296	0.342991	0.150826
C119	C	0.903566	-0.309768	-0.901257
C120	C	1.403566	0.190232	-0.401257
C121	C	0.918939	-0.325791	-0.980572
C122	C	1.418939	0.174209	-0.480572
C123	C	1.011899	-0.422887	-0.960937
C124	C	1.511899	0.077113	-0.460937
C125	C	0.996536	-0.406870	-0.881619
C126	C	1.496536	0.093130	-0.381619
C127	C	0.942368	-0.350310	-0.851786
C128	C	1.442368	0.149690	-0.351786
C129	C	1.035337	-0.447412	-0.832148
C130	C	1.535337	0.052588	-0.332148
C131	C	1.019972	-0.431399	-0.752837
C132	C	1.519972	0.068601	-0.252837
C133	C	0.965806	-0.374843	-0.722997
C134	C	1.465806	0.125157	-0.222997
C135	C	0.927003	-0.334297	-0.772475
C136	C	1.427003	0.165703	-0.272475
C137	C	1.089502	-0.503975	-0.861982
C138	C	1.589502	-0.003975	-0.361982
C139	C	1.128304	-0.544517	-0.812511
C140	C	1.628304	-0.044517	-0.312511
C141	C	1.112942	-0.528500	-0.733199
C142	C	1.612942	-0.028500	-0.233199
C143	C	1.058776	-0.471945	-0.703359
C144	C	1.558776	0.028055	-0.203359
C145	C	1.151745	-0.569046	-0.683722
C146	C	1.651745	-0.069046	-0.183722
C147	C	1.136380	-0.553033	-0.604411
C148	C	1.636380	-0.053033	-0.104411
C149	C	1.043411	-0.455931	-0.624048
C150	C	1.543411	0.044069	-0.124048
C151	C	0.989343	-0.399590	-0.094777
C152	C	1.489343	0.100410	0.405223
C153	C	0.973094	-0.382341	-0.010409
C154	C	1.473094	0.117659	0.489591
H155	H	1.008638	-0.746364	-0.321731
H156	H	1.508638	-0.246364	0.178269
Cl157	Cl	0.408887	-0.352173	-0.424030
Cl158	Cl	0.908887	0.147827	0.075970
Cl159	Cl	0.795178	-0.526803	-0.160119
Cl160	Cl	1.295178	-0.026803	0.339881
H161	H	0.273632	-0.369262	-0.398155
H162	H	0.773632	0.130738	0.101845
H163	H	1.120728	-0.710683	-0.145683
H164	H	1.620728	-0.210683	0.354317
H165	H	0.662776	-0.509657	-0.186035
H166	H	1.162776	-0.009657	0.313965
H167	H	1.056001	-0.468941	-0.985238
H168	H	1.556001	0.031059	-0.485238
Cl169	Cl	0.245950	-0.526697	-0.160199
Cl170	Cl	0.745950	-0.026697	0.339801
H171	H	0.381203	-0.509603	-0.186070
H172	H	0.881203	-0.009603	0.313930
Cl173	Cl	1.108819	-0.524104	-0.961690
Cl174	Cl	1.608819	-0.024104	-0.461690
H175	H	0.999307	-0.409867	-0.599759
H176	H	1.499307	0.090133	-0.099759
Cl177	Cl	0.946485	-0.354716	-0.623290
Cl178	Cl	1.446485	0.145284	-0.123290
H179	H	0.882900	-0.288233	-0.748185
H180	H	1.382900	0.211767	-0.248185
Cl181	Cl	1.185158	-0.604004	-0.542213
Cl182	Cl	1.685158	-0.104004	-0.042213
H183	H	0.978063	-0.805034	-0.369745
H184	H	1.478063	-0.305034	0.130255
H185	H	0.931302	-0.894823	-0.443255
H186	H	1.431302	-0.394823	0.056745
Cl187	Cl	0.809730	-0.352262	-0.423980
Cl188	Cl	1.309730	0.147738	0.076020
H189	H	0.915752	-1.023608	-0.467745
H190	H	1.415752	-0.523608	0.032255
H191	H	0.859463	-0.263704	-0.876967
H192	H	1.359463	0.236296	-0.376967
Cl193	Cl	1.196396	-0.615621	-0.850023
Cl194	Cl	1.696396	-0.115621	-0.350023
H195	H	0.887340	-0.292770	-1.020851
H196	H	1.387340	0.207230	-0.520851
H197	H	1.046390	-1.131813	-0.262640
H198	H	1.546390	-0.631813	0.237360
Cl199	Cl	0.922879	-1.189393	-0.456607
Cl200	Cl	1.422879	-0.689393	0.043393
H201	H	0.674476	-0.369350	-0.398105
H202	H	1.174476	0.130650	0.101895
H203	H	1.195844	-0.615103	-0.708023
H204	H	1.695844	-0.115103	-0.208023
Cl205	Cl	1.139675	-0.996559	-0.116090
Cl206	Cl	1.639675	-0.496559	0.383910
Cl207	Cl	1.081517	-1.108254	-0.207545
Cl208	Cl	1.581517	-0.608254	0.292455
H209	H	1.139275	-0.854563	-0.116626
H210	H	1.639275	-0.354563	0.383374
