data_functionalizedCrystal
_audit_creation_method	'MofGen! by Chris Wilmer'
_symmetry_space_group_name_H-M	'P1'
_symmetry_Int_Tables_number	1
_symmetry_cell_setting	triclinic
loop_
_symmetry_equiv_pos_as_xyz
  x,y,z
_cell_length_a	9.065215
_cell_length_b	10.723023
_cell_length_c	8.140239
_cell_angle_alpha	89.997483
_cell_angle_beta	89.997810
_cell_angle_gamma	84.741123
loop_
_atom_site_label
_atom_site_type_symbol
_atom_site_fract_x
_atom_site_fract_y
_atom_site_fract_z
O1	O	1.959361	0.182967	-0.136590
O2	O	1.529990	0.197980	-0.136598
O3	O	1.754580	0.008937	-0.136587
O4	O	1.734771	0.372009	-0.136601
O5	O	1.754568	0.008935	0.136640
O6	O	1.529978	0.197978	0.136630
O7	O	1.959348	0.182965	0.136637
Zn8	Zn	1.744661	0.190471	0.180014
Zn9	Zn	1.744677	0.190474	-0.179975
O10	O	1.734758	0.372007	0.136626
C11	C	1.475005	0.196537	0.000015
C12	C	1.311187	0.192225	0.000012
C13	C	1.753133	-0.037569	0.000025
C14	C	1.748820	-0.176141	0.000019
C15	C	1.746904	-0.237913	-0.141523
C16	C	1.742447	-0.381135	-0.141532
C17	C	2.014333	0.184408	0.000020
C18	C	2.178152	0.188719	0.000012
C19	C	1.736206	0.418514	0.000011
C20	C	1.740518	0.557086	0.000005
N21	N	1.744661	0.190468	0.425696
N22	N	1.744690	0.190467	-0.425657
H23	H	1.748557	-0.184768	-0.262695
F24	F	1.742682	-0.373493	0.158408
H25	H	1.740807	-0.434258	-0.262711
H26	H	1.747152	-0.229285	0.121192
