data_functionalizedCrystal
_audit_creation_method	'MofGen! by Chris Wilmer'
_symmetry_space_group_name_H-M	'P1'
_symmetry_Int_Tables_number	1
_symmetry_cell_setting	triclinic
loop_
_symmetry_equiv_pos_as_xyz
  x,y,z
_cell_length_a	17.699077
_cell_length_b	16.176319
_cell_length_c	19.288865
_cell_angle_alpha	89.987963
_cell_angle_beta	96.791588
_cell_angle_gamma	90.006860
loop_
_atom_site_label
_atom_site_type_symbol
_atom_site_fract_x
_atom_site_fract_y
_atom_site_fract_z
O1	O	1.003958	0.068745	-0.087818
O2	O	1.503958	0.568745	0.412182
O3	O	0.783563	0.068750	-0.099250
O4	O	1.283563	0.568750	0.400750
O5	O	0.900129	0.068731	0.007589
O6	O	1.400129	0.568731	0.507589
O7	O	0.887392	0.068764	-0.194657
O8	O	1.387392	0.568764	0.305343
O9	O	0.900113	-0.068762	0.007596
O10	O	1.400113	0.431238	0.507596
O11	O	0.783547	-0.068743	-0.099243
O12	O	1.283547	0.431257	0.400757
O13	O	1.003942	-0.068748	-0.087811
O14	O	1.503942	0.431252	0.412189
Cu15	Cu	0.893743	-0.081300	-0.093527
Cu16	Cu	1.393743	0.418700	0.406473
Cu17	Cu	0.893762	0.081302	-0.093535
Cu18	Cu	1.393762	0.581302	0.406465
O19	O	0.887376	-0.068729	-0.194650
O20	O	1.387376	0.431271	0.305350
C21	C	0.755359	0.000004	-0.098838
C22	C	1.255359	0.500004	0.401162
C23	C	0.671342	0.000006	-0.097611
C24	C	1.171342	0.500006	0.402389
N25	N	0.893735	-0.195665	-0.093521
N26	N	1.393735	0.304335	0.406479
C27	C	0.631867	-0.074943	-0.097029
C28	C	1.131867	0.425057	0.402971
C29	C	0.552926	-0.074944	-0.095866
C30	C	1.052926	0.425056	0.404134
C31	C	0.513461	0.000004	-0.095289
C32	C	1.013461	0.500004	0.404711
C33	C	0.552942	0.074959	-0.095868
C34	C	1.052942	0.574959	0.404132
C35	C	0.631882	0.074959	-0.097027
C36	C	1.131882	0.574959	0.402973
C37	C	0.234585	0.074959	-0.091194
C38	C	0.734585	0.574959	0.408806
C39	C	0.155639	0.074953	-0.090037
C40	C	0.655639	0.574953	0.409963
C41	C	0.155629	-0.074943	-0.090032
C42	C	0.655629	0.425057	0.409968
C43	C	0.234569	-0.074943	-0.091191
C44	C	0.734569	0.425057	0.408809
C45	C	0.274044	0.000011	-0.091767
C46	C	0.774044	0.500011	0.408233
C47	C	0.359641	0.000011	-0.093028
C48	C	0.859641	0.500011	0.406972
C49	C	0.427865	0.000005	-0.094033
C50	C	0.927865	0.500005	0.405967
C51	C	0.945366	-0.238938	-0.046232
C52	C	1.445366	0.261062	0.453768
C53	C	0.945370	-0.325485	-0.046231
C54	C	1.445370	0.174515	0.453769
C55	C	0.893746	-0.368757	-0.093523
C56	C	1.393746	0.131243	0.406477
C57	C	0.842110	-0.325479	-0.140814
C58	C	1.342110	0.174521	0.359186
C59	C	0.842103	-0.238933	-0.140811
C60	C	1.342103	0.261067	0.359189
C61	C	0.842136	-0.674507	-0.140827
C62	C	1.342136	-0.174507	0.359173
C63	C	0.842148	-0.761059	-0.140828
C64	C	1.342148	-0.261059	0.359172
C65	C	0.945403	-0.761058	-0.046247
C66	C	1.445403	-0.261058	0.453753
C67	C	0.945396	-0.674513	-0.046244
C68	C	1.445396	-0.174513	0.453756
C69	C	0.893757	-0.631242	-0.093532
C70	C	1.393757	-0.131242	0.406468
C71	C	0.893753	-0.537398	-0.093532
C72	C	1.393753	-0.037398	0.406468
C73	C	0.893754	-0.462600	-0.093528
C74	C	1.393754	0.037400	0.406472
C75	C	1.032147	-0.000000	-0.088224
C76	C	1.532147	0.500000	0.411776
C77	C	1.116163	0.000004	-0.089450
C78	C	1.616163	0.500004	0.410550
C79	C	0.899711	-0.000018	0.033469
C80	C	1.399711	0.499982	0.533469
C81	C	0.898481	-0.000025	0.110574
C82	C	1.398481	0.499975	0.610574
N83	N	0.893776	0.195667	-0.093535
N84	N	1.393776	0.695667	0.406465
C85	C	0.887794	0.000022	-0.220531
C86	C	1.387794	0.500022	0.279469
C87	C	0.889024	0.000035	-0.297636
C88	C	1.389024	0.500035	0.202364
C89	C	0.966877	-0.000031	0.155191
C90	C	1.466877	0.499969	0.655191
C91	C	0.965721	-0.000018	0.227639
C92	C	1.465721	0.499982	0.727639
C93	C	0.896166	-0.000015	0.255468
C94	C	1.396166	0.499985	0.755468
C95	C	0.827761	-0.000005	0.210841
C96	C	1.327761	0.499995	0.710841
C97	C	0.828919	-0.000010	0.138394
C98	C	1.328919	0.499990	0.638394
C99	C	0.841481	-0.048175	0.363821
C100	C	1.341481	0.451825	0.863821
C101	C	0.840327	-0.048175	0.436267
C102	C	1.340327	0.451825	0.936267
C103	C	0.892592	0.000003	0.478917
C104	C	1.392592	0.500003	0.978917
C105	C	0.946025	0.048171	0.449115
C106	C	1.446025	0.548171	0.949115
C107	C	0.947183	0.048166	0.376668
C108	C	1.447183	0.548166	0.876668
C109	C	0.894902	-0.000010	0.334023
C110	C	1.394902	0.499990	0.834023
C111	C	0.959739	0.000013	0.602092
C112	C	1.459739	0.500013	1.102092
C113	C	0.958580	0.000031	0.674541
C114	C	1.458580	0.500031	1.174541
C115	C	0.820618	0.000035	0.657741
C116	C	1.320618	0.500035	1.157741
C117	C	0.821779	0.000025	0.585294
C118	C	1.321779	0.500025	1.085294
C119	C	0.891341	0.000010	0.557473
C120	C	1.391341	0.500010	1.057473
H121	H	0.663993	-0.135975	-0.097505
H122	H	1.163993	0.364025	0.402495
Br123	Br	0.736089	0.000000	0.077839
Br124	Br	1.236089	0.500000	0.577839
H125	H	0.800091	-0.639282	-0.179332
H126	H	1.300091	-0.139282	0.320668
Br127	Br	0.288124	-0.176662	-0.091981
Br128	Br	0.788124	0.323338	0.408019
H129	H	0.763985	0.000041	0.680398
H130	H	1.263985	0.500041	1.180398
H131	H	1.014279	0.000031	0.710868
H132	H	1.514279	0.500031	1.210868
Br133	Br	0.767816	-0.113551	0.476707
Br134	Br	1.267816	0.386449	0.976707
Br135	Br	0.728951	0.000032	0.524738
Br136	Br	1.228951	0.500032	1.024738
H137	H	0.123480	-0.135974	-0.089560
H138	H	0.623480	0.364026	0.410440
H139	H	0.798919	-0.087412	0.329100
H140	H	1.298919	0.412588	0.829100
Br141	Br	1.015439	-0.384215	0.017950
Br142	Br	1.515439	0.115785	0.517950
H143	H	0.664022	0.135990	-0.097502
H144	H	1.164022	0.635990	0.402498
H145	H	0.123509	0.135989	-0.089567
H146	H	0.623509	0.635989	0.410433
H147	H	0.520790	-0.135975	-0.095380
H148	H	1.020790	0.364025	0.404620
Br149	Br	0.772041	-0.384203	-0.204993
Br150	Br	1.272041	0.115797	0.295007
Br151	Br	1.015437	-0.180219	0.017949
Br152	Br	1.515437	0.319781	0.517949
H153	H	0.266716	0.135991	-0.091661
H154	H	0.766716	0.635991	0.408339
Br155	Br	0.499388	0.176676	-0.095055
Br156	Br	0.999388	0.676676	0.404945
Br157	Br	1.015463	-0.615788	0.017936
Br158	Br	1.515463	-0.115788	0.517936
Br159	Br	1.015485	-0.819787	0.017933
Br160	Br	1.515485	-0.319787	0.517933
Br161	Br	0.772083	-0.819786	-0.205015
Br162	Br	1.272083	-0.319786	0.294985
H163	H	0.800059	-0.203701	-0.179318
H164	H	1.300059	0.296299	0.320682
H165	H	1.023520	-0.000040	0.132545
H166	H	1.523520	0.499960	0.632545
Br167	Br	1.058550	-0.000022	0.288202
Br168	Br	1.558550	0.499978	0.788202
H169	H	0.990688	0.087388	0.352406
H170	H	1.490688	0.587388	0.852406
Br171	Br	1.016963	0.113560	0.506989
Br172	Br	1.516963	0.613560	1.006989
H173	H	0.771129	-0.000001	0.233504
H174	H	1.271129	0.499999	0.733504
Br175	Br	1.054142	-0.000016	0.564331
Br176	Br	1.554142	0.499984	1.064331
