data_functionalizedCrystal
_audit_creation_method	'MofGen! by Chris Wilmer'
_symmetry_space_group_name_H-M	'P1'
_symmetry_Int_Tables_number	1
_symmetry_cell_setting	triclinic
loop_
_symmetry_equiv_pos_as_xyz
  x,y,z
_cell_length_a	16.974829
_cell_length_b	16.974813
_cell_length_c	15.455313
_cell_angle_alpha	89.012317
_cell_angle_beta	83.671566
_cell_angle_gamma	83.162295
loop_
_atom_site_label
_atom_site_type_symbol
_atom_site_fract_x
_atom_site_fract_y
_atom_site_fract_z
O1	O	1.056388	0.093471	-0.152843
O2	O	0.825434	0.107033	-0.137585
O3	O	0.946962	-0.014492	-0.137580
O4	O	0.934860	0.214996	-0.152848
O5	O	0.940012	-0.007571	0.006684
O6	O	0.818484	0.113954	0.006679
O7	O	1.049438	0.100392	-0.008579
Cu8	Cu	0.933327	0.107805	0.012222
Cu9	Cu	0.941545	0.099620	-0.158386
O10	O	0.927911	0.221917	-0.008584
C11	C	0.792400	0.110105	-0.063351
C12	C	0.704324	0.108939	-0.057087
C13	C	0.942897	-0.040389	-0.063347
C14	C	0.941132	-0.127863	-0.057085
C15	C	0.208137	0.102806	-0.013389
C16	C	0.290894	0.103902	-0.019276
C17	C	0.336062	0.100671	-0.100859
C18	C	0.298468	0.096352	-0.176560
C19	C	0.215711	0.095262	-0.170673
C20	C	0.583973	0.103531	-0.126901
C21	C	0.666735	0.104619	-0.132782
C22	C	0.659156	0.112169	0.024502
C23	C	0.576399	0.111074	0.030383
C24	C	0.538811	0.106760	-0.045318
N25	N	0.420654	0.101788	-0.106879
N26	N	0.454220	0.105648	-0.039299
C27	C	0.944092	-0.172727	-0.132781
C28	C	0.942428	-0.254918	-0.126895
C29	C	0.937809	-0.292245	-0.045312
C30	C	0.934846	-0.247374	0.030390
C31	C	0.936504	-0.165184	0.024503
C32	C	0.932436	-0.537652	-0.019272
C33	C	0.930780	-0.619848	-0.013390
C34	C	0.938361	-0.627386	-0.170676
C35	C	0.940024	-0.545195	-0.176556
C36	C	0.937057	-0.500331	-0.100854
N37	N	0.936110	-0.376257	-0.039293
N38	N	0.938750	-0.416319	-0.106873
C39	C	1.082472	0.097319	-0.082815
C40	C	1.170549	0.098485	-0.089084
C41	C	0.931975	0.247813	-0.082819
C42	C	0.933741	0.335288	-0.089086
N43	N	0.927552	0.113561	0.132219
N44	N	0.947326	0.093858	-0.278383
C45	C	0.979199	0.061952	0.177612
C46	C	0.974839	0.066312	0.268420
C47	C	0.918835	0.122286	0.313832
C48	C	0.867183	0.173898	0.268432
C49	C	0.871539	0.169533	0.177627
C50	C	0.900030	0.141104	0.585412
C51	C	0.895679	0.145467	0.676223
C52	C	1.003335	0.037880	0.676205
C53	C	1.007690	0.033523	0.585397
C54	C	0.956035	0.085132	0.540006
N55	N	0.914379	0.126746	0.406652
N56	N	0.960488	0.080668	0.447188
H57	H	0.171367	0.105440	0.053044
H58	H	1.045390	-0.004138	0.713171
H59	H	1.024807	0.016375	0.140644
H60	H	0.821579	0.219470	0.305413
C61	C	0.370806	0.177242	0.061209
C62	C	0.332215	0.108644	0.063929
H63	H	0.396312	0.180170	0.112581
H64	H	0.409544	0.175473	0.011784
H65	H	0.332730	0.222606	0.057431
H66	H	0.370293	0.063280	0.067700
H67	H	0.293474	0.110407	0.113368
H68	H	0.944842	-0.291444	-0.188535
H69	H	0.943787	-0.514810	-0.242990
C70	C	0.789677	0.251359	0.667129
C71	C	0.834104	0.206987	0.726144
H72	H	0.751661	0.289331	0.697950
H73	H	0.824453	0.277887	0.627399
H74	H	0.762776	0.216949	0.636023
H75	H	0.861010	0.241396	0.757245
H76	H	0.799322	0.180457	0.765889
C77	C	0.951409	-0.188441	-0.287657
C78	C	0.949167	-0.131702	-0.222461
H79	H	0.954535	-0.163113	-0.343022
H80	H	0.996824	-0.226551	-0.284899
H81	H	0.904380	-0.214130	-0.279272
H82	H	0.996200	-0.106017	-0.230843
H83	H	0.903748	-0.093578	-0.225221
H84	H	0.829482	0.211558	0.140668
H85	H	0.185108	0.091746	-0.232312
H86	H	0.940775	-0.663923	-0.232308
H87	H	0.539631	0.113688	0.096817
C88	C	0.772947	0.033724	-0.226517
C89	C	0.716380	0.101071	-0.222469
H90	H	0.803590	0.031532	-0.281886
H91	H	0.807176	0.036454	-0.182285
H92	H	0.746435	-0.012489	-0.218141
H93	H	0.742893	0.147284	-0.230838
H94	H	0.682146	0.098347	-0.266714
H95	H	1.016894	0.024287	0.305379
C96	C	0.923437	-0.604144	0.141497
C97	C	0.925696	-0.660878	0.076293
H98	H	0.920294	-0.629475	0.196860
H99	H	0.970459	-0.578455	0.133131
H100	H	0.878016	-0.566031	0.138729
H101	H	0.971120	-0.698988	0.079057
H102	H	0.878669	-0.686580	0.084662
H103	H	0.857972	0.183128	0.548461
H104	H	0.689769	0.115684	0.086133
H105	H	0.553380	0.100015	-0.188542
H106	H	0.335249	0.093726	-0.242987
C107	C	1.002103	-0.077532	0.104999
C108	C	0.933248	-0.115868	0.107712
H109	H	1.000084	-0.047085	0.156370
H110	H	1.047828	-0.115961	0.101225
H111	H	1.005083	-0.043540	0.055567
H112	H	0.930271	-0.149865	0.157140
H113	H	0.887511	-0.077434	0.111495
H114	H	0.930036	-0.501136	0.042369
H115	H	0.931080	-0.277771	0.096817
H116	H	1.053293	-0.012055	0.548425
