data_functionalizedCrystal
_audit_creation_method	'MofGen! by Chris Wilmer'
_symmetry_space_group_name_H-M	'P1'
_symmetry_Int_Tables_number	1
_symmetry_cell_setting	triclinic
loop_
_symmetry_equiv_pos_as_xyz
  x,y,z
_cell_length_a	13.033808
_cell_length_b	13.032423
_cell_length_c	17.077396
_cell_angle_alpha	82.790349
_cell_angle_beta	82.844999
_cell_angle_gamma	74.794809
loop_
_atom_site_label
_atom_site_type_symbol
_atom_site_fract_x
_atom_site_fract_y
_atom_site_fract_z
Zn1	Zn	1.570061	0.216374	0.273613
Zn2	Zn	1.547369	0.394053	0.127553
Zn3	Zn	1.392439	0.239005	0.157124
Zn4	Zn	1.369842	0.416574	0.273540
O5	O	1.469928	0.316502	0.207957
O6	O	1.715683	0.221046	0.241893
O7	O	1.526778	0.373532	0.021628
O8	O	1.434955	0.087330	0.184982
O9	O	1.699011	0.351587	0.134583
O10	O	1.565453	0.070703	0.270567
O11	O	1.412951	0.259619	0.043353
O12	O	1.240810	0.281457	0.184911
O13	O	1.396441	0.389971	0.383397
O14	O	1.224208	0.411916	0.270442
O15	O	1.543542	0.242884	0.383451
O16	O	1.504866	0.545713	0.134512
O17	O	1.374438	0.562260	0.241768
C18	C	1.193971	0.351587	0.230878
C19	C	1.075912	0.366622	0.240700
C20	C	0.909457	0.324212	0.212996
C21	C	1.031477	0.308673	0.202841
C22	C	1.434767	0.592532	0.184938
C23	C	1.419822	0.710607	0.175108
C24	C	1.462232	0.876985	0.202965
C25	C	1.477687	0.754947	0.213126
C26	C	1.746963	0.281280	0.184948
C27	C	1.865018	0.266271	0.175142
C28	C	1.470002	0.316415	0.412703
C29	C	1.470034	0.316378	0.499953
C30	C	1.505200	1.039397	0.231092
C31	C	1.520090	0.921329	0.240977
C32	C	1.469925	0.316503	0.004010
C33	C	1.470137	0.316215	-0.083232
C34	C	1.546632	0.239784	0.540973
C35	C	1.546649	0.239747	0.622955
C36	C	1.470072	0.316310	0.663916
C37	C	1.393466	0.392908	0.622891
C38	C	1.393445	0.392939	0.540911
C39	C	1.393517	0.392839	0.793762
C40	C	1.393539	0.392809	0.875748
C41	C	1.546721	0.239647	0.875807
C42	C	1.546700	0.239678	0.793827
C43	C	1.470095	0.316278	0.752808
H44	H	1.401253	0.929368	0.162902
C45	C	0.949213	0.397353	0.355345
C46	C	1.005343	0.449126	0.294605
H47	H	0.905653	0.448287	0.388625
H48	H	0.905520	0.363029	0.332911
H49	H	0.998401	0.345641	0.385700
H50	H	0.956154	0.500832	0.264246
H51	H	1.049039	0.483467	0.317040
C52	C	1.691405	0.206779	0.704543
C53	C	1.630836	0.155551	0.668055
H54	H	1.743371	0.154793	0.732391
H55	H	1.726136	0.247900	0.665332
H56	H	1.645786	0.252374	0.740661
H57	H	1.676455	0.109962	0.631932
H58	H	1.596104	0.114412	0.707270
C59	C	1.042814	0.184344	0.121618
C60	C	0.935597	0.183770	0.121244
H61	H	1.086382	0.133405	0.088346
H62	H	1.051844	0.253407	0.102593
H63	H	1.062931	0.166591	0.174171
H64	H	0.915477	0.201531	0.068692
H65	H	0.926562	0.114692	0.140266
C66	C	1.242106	0.544192	0.867462
C67	C	1.309358	0.476960	0.920775
H68	H	1.190133	0.596138	0.895263
H69	H	1.283183	0.578967	0.828255
H70	H	1.207378	0.503064	0.842722
H71	H	1.344092	0.518086	0.945510
H72	H	1.268275	0.442182	0.959996
H73	H	1.358834	0.762985	0.135045
C74	C	1.652945	0.914964	0.328277
C75	C	1.602405	0.850627	0.295071
H76	H	1.703758	0.871315	0.361678
H77	H	1.688162	0.953055	0.287148
H78	H	1.601189	0.964142	0.358539
H79	H	1.654160	0.801453	0.264804
H80	H	1.567187	0.812517	0.336206
C81	C	0.782748	0.354923	0.327633
C82	C	0.838876	0.406706	0.266898
H83	H	0.739180	0.405852	0.360914
H84	H	0.739064	0.320594	0.305195
H85	H	0.831938	0.303214	0.357990
H86	H	0.789685	0.458409	0.236538
H87	H	0.882563	0.441052	0.289338
H88	H	1.538664	0.702569	0.253198
C89	C	1.698039	0.088381	0.549276
C90	C	1.630808	0.155621	0.495954
H91	H	1.750000	0.036415	0.521484
H92	H	1.732773	0.129492	0.574013
H93	H	1.656937	0.053620	0.588487
H94	H	1.671908	0.190388	0.456746
H95	H	1.596071	0.114504	0.471204
C96	C	1.614752	0.171555	1.001504
C97	C	1.630912	0.155430	0.920896
H98	H	1.666722	0.119559	1.029342
H99	H	1.621212	0.240943	1.007695
H100	H	1.545367	0.165080	1.022146
H101	H	1.700296	0.161912	0.900253
H102	H	1.624462	0.086025	0.914700
C103	C	1.360542	0.537645	0.690858
C104	C	1.309324	0.477037	0.748660
H105	H	1.308570	0.589621	0.663009
H106	H	1.401633	0.572386	0.715612
H107	H	1.406146	0.492030	0.654745
H108	H	1.263725	0.522651	0.784777
H109	H	1.268215	0.442295	0.723906
H110	H	1.609061	0.177339	0.760479
H111	H	1.331112	0.455243	0.656248
C112	C	1.242060	0.544355	0.549076
C113	C	1.309262	0.477150	0.495815
H114	H	1.190094	0.596349	0.521234
H115	H	1.207330	0.503225	0.588280
H116	H	1.283182	0.579081	0.573825
H117	H	1.268141	0.442417	0.471071
H118	H	1.343994	0.518285	0.456597
H119	H	1.083762	0.247563	0.162910
