data_functionalizedCrystal
_audit_creation_method	'MofGen! by Chris Wilmer'
_symmetry_space_group_name_H-M	'P1'
_symmetry_Int_Tables_number	1
_symmetry_cell_setting	triclinic
loop_
_symmetry_equiv_pos_as_xyz
  x,y,z
_cell_length_a	17.077404
_cell_length_b	15.297510
_cell_length_c	17.077396
_cell_angle_alpha	99.649353
_cell_angle_beta	90.018362
_cell_angle_gamma	80.293481
loop_
_atom_site_label
_atom_site_type_symbol
_atom_site_fract_x
_atom_site_fract_y
_atom_site_fract_z
Zn1	Zn	1.145934	0.359212	0.497892
Zn2	Zn	1.645934	0.859212	0.997892
Zn3	Zn	1.123110	0.510086	0.389337
Zn4	Zn	1.623110	1.010086	0.889337
Zn5	Zn	1.014662	0.359238	0.366646
Zn6	Zn	1.514662	0.859238	0.866646
Zn7	Zn	0.991912	0.510026	0.520554
Zn8	Zn	1.491912	1.010026	1.020554
O9	O	1.068905	0.434641	0.443607
O10	O	1.568905	0.934641	0.943607
O11	O	1.252751	0.379240	0.483504
O12	O	1.752751	0.879240	0.983504
O13	O	1.108693	0.490111	0.276486
O14	O	1.608693	0.990111	0.776486
O15	O	1.051149	0.232988	0.365076
O16	O	1.551149	0.732988	0.865076
O17	O	1.235983	0.490086	0.403749
O18	O	1.735983	0.990086	0.903749
O19	O	1.147594	0.232970	0.461501
O20	O	1.647594	0.732970	0.961501
O21	O	1.029017	0.379284	0.259815
O22	O	1.529017	0.879284	0.759815
O23	O	0.901799	0.379226	0.387051
O24	O	1.401799	0.879226	0.887051
O25	O	1.012374	0.489985	0.627390
O26	O	1.512374	0.989985	1.127390
O27	O	0.885085	0.490010	0.500126
O28	O	1.385085	0.990010	1.000126
O29	O	1.125534	0.379183	0.610740
O30	O	1.625534	0.879183	1.110740
O31	O	1.086633	0.636324	0.425724
O32	O	1.586633	1.136324	0.925724
O33	O	0.990242	0.636281	0.522129
O34	O	1.490242	1.136281	1.022129
C35	C	0.864961	0.434615	0.443586
C36	C	1.364961	0.934615	0.943586
C37	C	0.777709	0.434626	0.443599
C38	C	1.277709	0.934626	0.943599
C39	C	0.745436	0.377011	0.485219
C40	C	1.245436	0.877011	0.985219
C41	C	0.663454	0.377017	0.485224
C42	C	1.163454	0.877017	0.985224
C43	C	0.613747	0.434643	0.443612
C44	C	1.113747	0.934643	0.943612
C45	C	0.646026	0.492260	0.401986
C46	C	1.146026	0.992260	0.901986
C47	C	0.728007	0.492249	0.401978
C48	C	1.228007	0.992249	0.901978
C49	C	0.475153	0.492281	0.402009
C50	C	0.975153	0.992281	0.902009
C51	C	0.393166	0.492293	0.402019
C52	C	0.893166	0.992293	0.902019
C53	C	0.410601	0.377048	0.485255
C54	C	0.910601	0.877048	0.985255
C55	C	0.492581	0.377037	0.485246
C56	C	0.992581	0.877037	0.985246
C57	C	0.524854	0.434656	0.443622
C58	C	1.024854	0.934656	0.943622
C59	C	1.033514	0.669037	0.478865
C60	C	1.533514	1.169037	0.978865
C61	C	1.018445	0.769312	0.493975
C62	C	1.518445	1.269312	0.993975
C63	C	1.176886	1.051938	0.335930
C64	C	1.676886	1.551938	0.835930
C65	C	1.191043	0.957724	0.321730
C66	C	1.691043	1.457724	0.821730
C67	C	1.147895	0.910617	0.364790
C68	C	1.647895	1.410617	0.864790
C69	C	1.090587	0.957732	0.422052
C70	C	1.590587	1.457732	0.922052
C71	C	1.076424	1.051955	0.436250
C72	C	1.576424	1.551955	0.936250
C73	C	1.047433	0.910634	0.465109
C74	C	1.547433	1.410634	0.965109
C75	C	0.990125	0.957749	0.522372
C76	C	1.490125	1.457749	1.022372
C77	C	0.975965	1.051963	0.536567
C78	C	1.475965	1.551963	1.036567
C79	C	1.019113	1.099071	0.493507
C80	C	1.519113	1.599071	0.993507
C81	C	1.061596	0.816411	0.450912
C82	C	1.561596	1.316411	0.950912
C83	C	0.961134	0.816428	0.551232
C84	C	1.461134	1.316428	1.051232
C85	C	0.946977	0.910642	0.565432
C86	C	1.446977	1.410642	1.065432
C87	C	1.273645	0.434667	0.443630
C88	C	1.773645	0.934667	0.943630
C89	C	1.360893	0.434678	0.443639
C90	C	1.860893	0.934678	0.943639
C91	C	1.068962	0.434574	0.648342
C92	C	1.568962	0.934574	1.148342
C93	C	1.068987	0.434546	0.735587
C94	C	1.568987	0.934546	1.235587
C95	C	1.104448	1.199329	0.408238
C96	C	1.604448	1.699329	0.908238
C97	C	1.119575	1.099054	0.393187
C98	C	1.619575	1.599054	0.893187
C99	C	1.068902	0.434642	0.239660
C100	C	1.568902	0.934642	0.739660
C101	C	1.069068	0.434416	0.152376
C102	C	1.569068	0.934416	0.652376
C103	C	1.127911	0.376846	0.767908
C104	C	1.627911	0.876846	1.267908
C105	C	1.127925	0.376816	0.849884
C106	C	1.627925	0.876816	1.349884
C107	C	1.069017	0.434491	0.899539
C108	C	1.569017	0.934491	1.399539
C109	C	1.010086	0.492193	0.867212
C110	C	1.510086	0.992193	1.367212
C111	C	1.010070	0.492218	0.785237
C112	C	1.510070	0.992218	1.285237
C113	C	1.010126	0.492139	1.038074
C114	C	1.510126	0.992139	1.538074
C115	C	1.010143	0.492116	1.120055
C116	C	1.510143	0.992116	1.620055
C117	C	1.127982	0.376737	1.102722
C118	C	1.627982	0.876737	1.602722
C119	C	1.127965	0.376762	1.020746
C120	C	1.627965	0.876762	1.520746
C121	C	1.069035	0.434466	0.988426
C122	C	1.569035	0.934466	1.488426
H123	H	0.352696	0.539218	0.368135
H124	H	0.852696	1.039218	0.868135
H125	H	0.900316	0.949017	0.612055
H126	H	1.400316	1.449017	1.112055
H127	H	0.605548	0.539176	0.368101
H128	H	1.105548	1.039176	0.868101
F129	F	0.947441	0.553492	1.172899
F130	F	1.447441	1.053492	1.672899
H131	H	1.175883	0.329884	0.727485
H132	H	1.675883	0.829884	1.227485
H133	H	0.501426	0.539198	0.368112
H134	H	1.001426	1.039198	0.868112
H135	H	0.754282	0.539165	0.368086
H136	H	1.254282	1.039165	0.868086
F137	F	0.914969	1.102105	0.597507
F138	F	1.414969	1.602105	1.097507
H139	H	0.785902	0.330088	0.519107
H140	H	1.285902	0.830088	1.019107
F141	F	0.947404	0.553552	1.003678
F142	F	1.447404	1.053552	1.503678
H143	H	0.533051	0.330118	0.519135
H144	H	1.033051	0.830118	1.019135
F145	F	0.915206	0.766297	0.597058
F146	F	1.415206	1.266297	1.097058
H147	H	1.108257	0.778058	0.404289
H148	H	1.608257	1.278058	0.904289
H149	H	1.175964	0.329751	1.129040
H150	H	1.675964	0.829751	1.629040
F151	F	0.629111	0.315697	0.529524
F152	F	1.129111	0.815697	1.029524
H153	H	1.175909	0.329834	0.876196
H154	H	1.675909	0.829834	1.376196
H155	H	0.384321	0.330131	0.519145
H156	H	0.884321	0.830131	1.019145
F157	F	1.163132	0.810346	0.349844
F158	F	1.663132	1.310346	0.849844
F159	F	1.252038	0.907587	0.260795
F160	F	1.752038	1.407587	0.760795
H161	H	1.175937	0.329803	0.980320
H162	H	1.675937	0.829803	1.480320
F163	F	1.222798	1.102079	0.290108
F164	F	1.722798	1.602079	0.790108
F165	F	0.947389	0.553572	0.920060
F166	F	1.447389	1.053572	1.420060
H167	H	0.962081	0.539194	0.758922
H168	H	1.462081	1.039194	1.258922
H169	H	1.007591	1.175788	0.505067
H170	H	1.507591	1.675788	1.005067
