data_functionalizedCrystal
_audit_creation_method	'MofGen! by Chris Wilmer'
_symmetry_space_group_name_H-M	'P1'
_symmetry_Int_Tables_number	1
_symmetry_cell_setting	triclinic
loop_
_symmetry_equiv_pos_as_xyz
  x,y,z
_cell_length_a	11.026607
_cell_length_b	14.044220
_cell_length_c	9.482900
_cell_angle_alpha	100.188801
_cell_angle_beta	78.636152
_cell_angle_gamma	100.887447
loop_
_atom_site_label
_atom_site_type_symbol
_atom_site_fract_x
_atom_site_fract_y
_atom_site_fract_z
O1	O	1.671574	0.392560	-0.120918
O2	O	1.313283	0.346512	-0.120917
O3	O	1.487049	0.230635	-0.120903
O4	O	1.497809	0.508437	-0.120932
O5	O	1.451766	0.254293	0.120886
O6	O	1.278001	0.370170	0.120872
O7	O	1.636292	0.416218	0.120871
Cu8	Cu	1.453925	0.395354	0.142949
Cu9	Cu	1.495650	0.367376	-0.142995
O10	O	1.462526	0.532095	0.120857
C11	C	1.249512	0.349846	-0.000022
C12	C	1.112056	0.324521	-0.000022
C13	C	1.045821	0.394445	-0.000030
C14	C	0.903753	0.368273	-0.000029
C15	C	1.464699	0.206346	-0.000008
C16	C	1.450655	0.098724	-0.000006
C17	C	1.424983	-0.098320	-0.000027
C18	C	1.524588	-0.138958	-0.000032
C19	C	1.510304	-0.248600	-0.000043
C20	C	1.439266	0.011332	-0.000015
C21	C	1.700064	0.412884	-0.000027
C22	C	1.837521	0.438207	-0.000037
C23	C	1.484876	0.556383	-0.000041
C24	C	1.498922	0.664004	-0.000053
N25	N	1.424586	0.415033	0.344067
N26	N	1.524998	0.347690	-0.344113
C27	C	1.486988	0.373174	0.416271
C28	C	1.462587	0.389556	0.583687
H29	H	0.855294	0.289024	-0.000058
H30	H	1.328988	-0.145870	-0.000030
H31	H	1.391089	0.437521	0.645805
C32	C	1.547794	0.213623	0.369030
C33	C	1.583504	0.308436	0.332379
H34	H	1.607381	0.173662	0.317222
H35	H	1.544086	0.216123	0.470516
H36	H	1.467701	0.186778	0.344185
H37	H	1.663593	0.335284	0.357235
H38	H	1.587226	0.305939	0.230871
H39	H	1.353092	0.462995	0.406191
C40	C	1.239315	0.506641	-0.000036
C41	C	1.111240	0.501420	-0.000037
H42	H	1.279698	0.572685	-0.000048
H43	H	1.250250	0.483648	0.084280
H44	H	1.274859	0.467142	-0.084356
H45	H	1.075695	0.540914	0.084288
H46	H	1.100297	0.524426	-0.084362
C47	C	0.886755	0.579061	-0.124356
C48	C	0.902919	0.545191	-0.000054
H49	H	0.927121	0.645110	-0.124360
H50	H	0.922319	0.539569	-0.208650
H51	H	0.799859	0.575490	-0.124340
H52	H	0.989816	0.548755	-0.000075
H53	H	0.867360	0.584694	0.084262
H54	H	1.063591	0.245278	-0.000051
C55	C	1.743524	-0.133610	-0.000014
C56	C	1.654191	-0.074771	-0.000012
H57	H	1.823531	-0.093979	-0.000006
H58	H	1.721511	-0.165131	0.084291
H59	H	1.746129	-0.181615	-0.084344
H60	H	1.651580	-0.026770	0.084325
H61	H	1.676210	-0.043234	-0.084325
C62	C	1.585554	0.188107	0.609133
C63	C	1.621472	0.282843	0.572222
H64	H	1.645097	0.148048	0.557527
H65	H	1.581735	0.190725	0.710662
H66	H	1.505477	0.161293	0.584220
H67	H	1.701545	0.309659	0.597145
H68	H	1.625305	0.280228	0.470671
