data_functionalizedCrystal
_audit_creation_method	'MofGen! by Chris Wilmer'
_symmetry_space_group_name_H-M	'P1'
_symmetry_Int_Tables_number	1
_symmetry_cell_setting	triclinic
loop_
_symmetry_equiv_pos_as_xyz
  x,y,z
_cell_length_a	16.776229
_cell_length_b	17.699083
_cell_length_c	17.699104
_cell_angle_alpha	96.712734
_cell_angle_beta	89.993906
_cell_angle_gamma	89.991353
loop_
_atom_site_label
_atom_site_type_symbol
_atom_site_fract_x
_atom_site_fract_y
_atom_site_fract_z
O1	O	0.066259	1.004070	-0.095712
O2	O	0.066267	0.783693	-0.108165
O3	O	0.066256	0.900099	0.008250
O4	O	0.066270	0.887663	-0.212126
O5	O	-0.066321	0.900115	0.008257
O6	O	-0.066309	0.783708	-0.108157
O7	O	-0.066318	1.004086	-0.095705
Zn8	Zn	-0.087363	0.893899	-0.101930
Zn9	Zn	0.087312	0.893879	-0.101940
O10	O	-0.066306	0.887679	-0.212119
C11	C	-0.000020	0.755503	-0.107715
C12	C	-0.000017	0.671485	-0.106376
N13	N	0.206524	0.893865	-0.101941
C14	C	-0.000033	0.899659	0.036450
C15	C	-0.000033	0.898314	0.120467
N16	N	-0.206574	0.893919	-0.101923
C17	C	0.751683	0.945559	-0.050482
C18	C	0.668231	0.945549	-0.050481
C19	C	0.626523	0.893903	-0.101926
C20	C	0.668271	0.842258	-0.153369
C21	C	0.751722	0.842264	-0.153365
C22	C	0.331724	0.842230	-0.153385
C23	C	0.248268	0.842229	-0.153386
C24	C	0.248233	0.945515	-0.050500
C25	C	0.331684	0.945521	-0.050497
C26	C	0.373425	0.893874	-0.101937
C27	C	0.463913	0.893884	-0.101936
C28	C	0.536036	0.893896	-0.101931
C29	C	-0.000029	1.032275	-0.096155
C30	C	-0.000027	1.116293	-0.097493
C31	C	-0.000029	1.164909	-0.029161
C32	C	-0.000031	1.243852	-0.030423
C33	C	-0.000026	1.274178	-0.100019
C34	C	-0.000027	1.225556	-0.168357
C35	C	-0.000030	1.146614	-0.167093
C36	C	-0.000015	1.543920	-0.173452
C37	C	-0.000009	1.622868	-0.174710
C38	C	-0.000016	1.641158	-0.036781
C39	C	-0.000019	1.562216	-0.035518
C40	C	-0.000024	1.513601	-0.103856
C41	C	-0.000023	1.428001	-0.102486
C42	C	-0.000022	1.359776	-0.101389
C43	C	-0.000016	0.888120	-0.240319
C44	C	-0.000011	0.889464	-0.324337
C45	C	-0.000013	0.959058	0.645338
C46	C	-0.000020	0.960317	0.566395
C47	C	-0.000019	0.891982	0.517777
C48	C	-0.000019	0.822383	0.548107
C49	C	-0.000018	0.821125	0.627049
C50	C	-0.000026	0.827456	0.229741
C51	C	-0.000025	0.828720	0.150794
C52	C	-0.000028	0.966648	0.169086
C53	C	-0.000027	0.965390	0.248029
C54	C	-0.000031	0.895792	0.278352
C55	C	-0.000025	0.894427	0.363951
C56	C	-0.000020	0.893345	0.432179
H57	H	0.785636	0.987618	-0.008593
H58	H	-0.000015	1.504346	-0.229097
H59	H	-0.000036	1.283433	0.025221
H60	H	-0.000028	1.250254	-0.225023
C61	C	-0.000012	1.136459	-0.303561
C62	C	-0.000022	1.093173	-0.242207
H63	H	-0.000004	1.103465	-0.349933
H64	H	-0.046240	1.167636	-0.301184
H65	H	0.046225	1.167624	-0.301181
H66	H	-0.046262	1.062012	-0.244584
H67	H	0.046211	1.061982	-0.244586
H68	H	-0.000014	1.023319	0.144388
C69	C	0.068137	0.705195	0.508209
C70	C	-0.000016	0.747266	0.494669
H71	H	0.068137	0.658818	0.475222
H72	H	0.114359	0.733733	0.499021
H73	H	0.068127	0.694491	0.559567
H74	H	-0.000003	0.757975	0.443312
H75	H	-0.046250	0.718722	0.503851
C76	C	0.068131	1.041741	0.488218
C77	C	-0.000017	1.036817	0.533063
H78	H	0.068128	1.088970	0.467639
H79	H	0.114356	1.038375	0.518627
H80	H	0.068118	1.001222	0.447967
H81	H	-0.000002	1.077333	0.573318
H82	H	-0.046254	1.040191	0.502652
H83	H	-0.000024	1.021036	0.287610
H84	H	-0.000009	1.647556	-0.231386
C85	C	0.574348	1.048570	-0.034137
C86	C	0.622340	1.002314	0.006058
H87	H	0.546013	1.083611	0.000771
H88	H	0.606901	1.075671	-0.065659
H89	H	0.537574	1.017797	-0.064772
H90	H	0.659119	1.033086	0.036689
H91	H	0.589784	0.975211	0.037593
H92	H	-0.000026	0.773070	0.111210
C93	C	-0.000004	1.018378	0.774472
C94	C	-0.000011	1.034175	0.698776
H95	H	0.000000	1.064754	0.807459
H96	H	-0.046233	0.989846	0.783656
H97	H	0.046233	0.989828	0.783638
H98	H	-0.046251	1.062719	0.689609
H99	H	0.046222	1.062718	0.689588
H100	H	-0.000028	1.140224	0.027512
C101	C	-0.068172	0.746022	0.307906
C102	C	-0.000020	0.750956	0.263068
H103	H	-0.068167	0.698790	0.328479
H104	H	-0.068170	0.786534	0.348154
H105	H	-0.114400	0.749383	0.277487
H106	H	0.046208	0.747601	0.293488
H107	H	-0.000015	0.710433	0.222815
H108	H	-0.000022	0.764455	0.651738
C109	C	0.323265	1.047612	0.051211
C110	C	0.377528	1.002290	0.006055
H111	H	0.351569	1.082653	0.086129
H112	H	0.290718	1.074712	0.019682
H113	H	0.290717	1.016205	0.078457
H114	H	0.410073	1.033696	-0.021195
H115	H	0.410089	0.975188	0.037588
C116	C	-0.000036	1.588227	0.100697
C117	C	-0.000029	1.528883	0.040984
H118	H	-0.000049	1.567647	0.147926
H119	H	0.046197	1.618625	0.097337
H120	H	-0.046269	1.618647	0.097331
H121	H	0.046207	1.498465	0.044347
H122	H	-0.046266	1.498472	0.044345
H123	H	0.785708	0.800213	-0.195253
H124	H	0.214310	0.800169	-0.195280
C125	C	0.323364	0.740140	-0.255090
C126	C	0.377599	0.785466	-0.209933
H127	H	0.351690	0.705099	-0.290005
H128	H	0.290819	0.713040	-0.223562
H129	H	0.290812	0.771544	-0.282339
H130	H	0.410148	0.754062	-0.182680
H131	H	0.410159	0.812568	-0.241466
C132	C	0.540365	0.796390	-0.199066
C133	C	0.622428	0.785488	-0.209920
H134	H	0.512066	0.761346	-0.233984
H135	H	0.526685	0.788356	-0.148544
H136	H	0.526688	0.846860	-0.207321
H137	H	0.636105	0.735019	-0.201659
H138	H	0.636113	0.793516	-0.260454
C139	C	0.154374	0.962313	0.052525
C140	C	0.202348	1.002280	0.006054
H141	H	0.126052	0.997359	0.087439
H142	H	0.117595	0.931561	0.021888
H143	H	0.186944	0.930924	0.079774
H144	H	0.169777	1.033665	-0.021200
H145	H	0.239131	1.033045	0.036695
H146	H	-0.000015	1.680750	0.018863
