data_functionalizedCrystal
_audit_creation_method	'MofGen! by Chris Wilmer'
_symmetry_space_group_name_H-M	'P1'
_symmetry_Int_Tables_number	1
_symmetry_cell_setting	triclinic
loop_
_symmetry_equiv_pos_as_xyz
  x,y,z
_cell_length_a	16.974800
_cell_length_b	16.974813
_cell_length_c	13.448316
_cell_angle_alpha	86.338833
_cell_angle_beta	93.650053
_cell_angle_gamma	83.627081
loop_
_atom_site_label
_atom_site_type_symbol
_atom_site_fract_x
_atom_site_fract_y
_atom_site_fract_z
O1	O	1.049039	0.100721	-0.006342
O2	O	1.549039	0.600721	0.493658
O3	O	0.818819	0.113571	-0.025912
O4	O	1.318819	0.613571	0.474088
O5	O	0.940347	-0.007965	-0.006343
O6	O	1.440347	0.492035	0.493657
O7	O	0.927512	0.222257	-0.025912
O8	O	1.427512	0.722257	0.474088
O9	O	0.940332	-0.007972	0.159040
O10	O	1.440332	0.492028	0.659040
O11	O	0.818804	0.113563	0.139471
O12	O	1.318804	0.613563	0.639471
O13	O	1.049024	0.100714	0.159041
O14	O	1.549024	0.600714	0.659041
Cu15	Cu	0.933913	0.107138	0.164357
Cu16	Cu	1.433913	0.607138	0.664357
Cu17	Cu	0.933931	0.107147	-0.031228
Cu18	Cu	1.433931	0.607147	0.468772
O19	O	0.927496	0.222250	0.139471
O20	O	1.427496	0.722250	0.639471
C21	C	0.789354	0.113080	0.054447
C22	C	1.289354	0.613080	0.554447
C23	C	0.701579	0.111621	0.047497
C24	C	1.201579	0.611621	0.547497
C25	C	0.939851	-0.037427	0.078679
C26	C	1.439851	0.462573	0.578679
C27	C	0.938386	-0.125202	0.085622
C28	C	1.438386	0.374798	0.585622
C29	C	0.660338	0.110929	0.134385
C30	C	1.160338	0.610929	0.634385
C31	C	0.577866	0.109545	0.127859
C32	C	1.077866	0.609545	0.627859
C33	C	0.536635	0.108859	0.034444
C34	C	1.036635	0.608859	0.534444
C35	C	0.577881	0.109548	-0.052450
C36	C	1.077881	0.609548	0.447550
C37	C	0.660353	0.110926	-0.045923
C38	C	1.160353	0.610926	0.454077
C39	C	0.289983	0.104731	0.005256
C40	C	0.789983	0.604731	0.505256
C41	C	0.207505	0.103356	-0.001265
C42	C	0.707505	0.603356	0.498735
C43	C	0.207495	0.103351	0.179045
C44	C	0.707495	0.603351	0.679045
C45	C	0.289968	0.104734	0.185564
C46	C	0.789968	0.604734	0.685564
C47	C	0.331208	0.105419	0.098670
C48	C	0.831208	0.605419	0.598670
N49	N	0.452334	0.107446	0.027771
N50	N	0.952334	0.607446	0.527771
N51	N	0.415507	0.106826	0.105344
N52	N	0.915507	0.606826	0.605344
C53	C	0.937708	-0.166431	-0.001266
C54	C	1.437708	0.333569	0.498734
C55	C	0.936327	-0.248904	0.005260
C56	C	1.436327	0.251096	0.505260
C57	C	0.935629	-0.290148	0.098676
C58	C	1.435629	0.209852	0.598676
C59	C	0.936305	-0.248914	0.185570
C60	C	1.436305	0.251086	0.685570
C61	C	0.937680	-0.166441	0.179042
C62	C	1.437680	0.333559	0.679042
C63	C	0.931508	-0.536806	0.127865
C64	C	1.431508	-0.036806	0.627865
C65	C	0.930135	-0.619285	0.134386
C66	C	1.430135	-0.119285	0.634386
C67	C	0.930156	-0.619269	-0.045925
C68	C	1.430156	-0.119269	0.454075
C69	C	0.931536	-0.536795	-0.052443
C70	C	1.431536	-0.036795	0.447557
C71	C	0.932207	-0.495567	0.034450
C72	C	1.432207	0.004433	0.534450
N73	N	0.934219	-0.374450	0.105349
N74	N	1.434219	0.125550	0.605349
N75	N	0.933611	-0.411267	0.027776
N76	N	1.433611	0.088733	0.527776
C77	C	1.078489	0.101204	0.078680
C78	C	1.578489	0.601204	0.578680
C79	C	1.166264	0.102664	0.085623
C80	C	1.666264	0.602664	0.585623
C81	C	0.927992	0.251711	0.054447
C82	C	1.427992	0.751711	0.554447
C83	C	0.929457	0.339487	0.047498
C84	C	1.429457	0.839487	0.547498
N85	N	0.933906	0.107131	0.301921
N86	N	1.433906	0.607131	0.801921
N87	N	0.933944	0.107147	-0.168791
N88	N	1.433944	0.607147	0.331209
C89	C	0.987735	0.053337	0.362626
C90	C	1.487735	0.553337	0.862626
C91	C	0.987740	0.053337	0.466730
C92	C	1.487740	0.553337	0.966730
C93	C	0.933919	0.107134	0.510126
C94	C	1.433919	0.607134	1.010126
C95	C	0.880084	0.160931	0.449413
C96	C	1.380084	0.660931	0.949413
C97	C	0.880076	0.160927	0.345312
C98	C	1.380076	0.660927	0.845312
C99	C	0.880106	0.160936	0.666395
C100	C	1.380106	0.660936	1.166395
C101	C	0.880115	0.160941	0.770503
C102	C	1.380115	0.660941	1.270503
C103	C	0.987770	0.053346	0.787813
C104	C	1.487770	0.553346	1.287813
C105	C	0.987762	0.053342	0.683711
C106	C	1.487762	0.553342	1.183711
C107	C	0.933928	0.107140	0.623005
C108	C	1.433928	0.607140	1.123005
H109	H	0.544293	0.108969	0.198614
H110	H	1.044293	0.608969	0.698614
C111	C	1.094172	-0.053016	0.711272
C112	C	1.594172	0.446984	1.211272
C113	C	1.046921	-0.005793	0.636007
C114	C	1.546921	0.494207	1.136007
H115	H	1.130690	-0.089527	0.681819
H116	H	1.630690	0.410473	1.181819
H117	H	1.122579	-0.020118	0.751497
H118	H	1.622579	0.479882	1.251497
H119	H	1.061289	-0.081438	0.751534
H120	H	1.561289	0.418562	1.251534
H121	H	1.079803	0.022634	0.595750
H122	H	1.579803	0.522634	1.095750
H123	H	1.018512	-0.038695	0.595765
H124	H	1.518512	0.461305	1.095765
C125	C	1.007185	-0.082628	-0.107033
C126	C	1.507185	0.417372	0.392967
C127	C	0.938461	-0.121090	-0.103949
C128	C	1.438461	0.378910	0.396051
H129	H	1.007644	-0.054640	-0.170429
H130	H	1.507644	0.445360	0.329571
H131	H	1.007786	-0.046277	-0.056221
H132	H	1.507786	0.453723	0.443779
H133	H	1.052734	-0.120887	-0.096555
H134	H	1.552734	0.379113	0.403445
H135	H	0.892912	-0.082830	-0.114420
H136	H	1.392912	0.417170	0.385580
H137	H	0.937853	-0.157445	-0.154776
H138	H	1.437853	0.342555	0.345224
C139	C	0.862815	0.268550	0.539251
C140	C	1.362815	0.768550	1.039251
C141	C	0.820933	0.220071	0.599660
C142	C	1.320933	0.720071	1.099660
H143	H	0.826286	0.305053	0.498048
H144	H	1.326286	0.805053	0.998048
H145	H	0.895689	0.296974	0.580208
H146	H	1.395689	0.796974	1.080208
H147	H	0.894865	0.236498	0.498516
H148	H	1.394865	0.736498	0.998516
H149	H	0.788888	0.252122	0.640401
H150	H	1.288888	0.752122	1.140401
H151	H	0.788045	0.191644	0.558699
H152	H	1.288045	0.691644	1.058699
C153	C	0.773674	0.267269	0.742943
C154	C	1.273674	0.767269	1.242943
C155	C	0.820939	0.220061	0.818207
C156	C	1.320939	0.720061	1.318207
H157	H	0.737137	0.303760	0.772396
H158	H	1.237137	0.803760	1.272396
H159	H	0.806539	0.295707	0.702690
H160	H	1.306539	0.795707	1.202690
H161	H	0.745282	0.234354	0.702709
H162	H	1.245282	0.734354	1.202709
H163	H	0.849336	0.252976	0.858437
H164	H	1.349336	0.752976	1.358437
H165	H	0.788070	0.191621	0.858478
H166	H	1.288070	0.691621	1.358478
C167	C	0.123724	0.033873	-0.107017
C168	C	0.623724	0.533873	0.392983
C169	C	0.162184	0.102599	-0.103956
C170	C	0.662184	0.602599	0.396044
H171	H	0.095743	0.033411	-0.170410
H172	H	0.595743	0.533411	0.329590
H173	H	0.161977	-0.011671	-0.096526
H174	H	0.661977	0.488329	0.403474
H175	H	0.087361	0.033276	-0.056199
H176	H	0.587361	0.533276	0.443801
H177	H	0.198552	0.103192	-0.154770
H178	H	0.698552	0.603192	0.345230
H179	H	0.123927	0.148154	-0.114458
H180	H	0.623927	0.648154	0.385542
H181	H	0.323533	0.105290	0.261633
H182	H	0.823533	0.605290	0.761633
C183	C	1.000815	-0.452818	-0.158270
C184	C	1.500815	0.047182	0.341730
C185	C	0.932151	-0.491368	-0.155095
C186	C	1.432151	0.008632	0.344905
H187	H	1.001153	-0.424750	-0.221635
H188	H	1.501153	0.075250	0.278365
H189	H	1.001456	-0.416529	-0.107390
H190	H	1.501456	0.083471	0.392610
H191	H	1.046405	-0.491037	-0.147954
H192	H	1.546405	0.008963	0.352046
H193	H	0.886560	-0.453149	-0.165403
H194	H	1.386560	0.046851	0.334597
H195	H	0.931503	-0.527661	-0.205990
H196	H	1.431503	-0.027661	0.294010
C197	C	0.930277	-0.610963	-0.224809
C198	C	1.430277	-0.110963	0.275191
C199	C	0.929385	-0.664584	-0.141438
C200	C	1.429385	-0.164584	0.358562
H201	H	0.929796	-0.638939	-0.283777
H202	H	1.429796	-0.138939	0.216223
H203	H	0.884737	-0.572709	-0.227782
H204	H	1.384737	-0.072709	0.272218
H205	H	0.976911	-0.584888	-0.219416
H206	H	1.476911	-0.084888	0.280584
H207	H	0.882748	-0.690655	-0.146827
H208	H	1.382748	-0.190655	0.353173
H209	H	0.974929	-0.702853	-0.138466
H210	H	1.474929	-0.202853	0.361534
H211	H	0.836258	0.204731	0.484752
H212	H	1.336258	0.704731	0.984752
H213	H	0.929563	-0.652863	0.210459
H214	H	1.429563	-0.152863	0.710459
C215	C	0.833491	0.297838	0.298470
C216	C	1.333491	0.797838	0.798470
C217	C	0.820909	0.220061	0.278578
C218	C	1.320909	0.720061	0.778578
H219	H	0.796964	0.334343	0.257266
H220	H	1.296964	0.834343	0.757266
H221	H	0.825790	0.305536	0.366670
H222	H	1.325790	0.805536	0.866670
H223	H	0.886250	0.306386	0.284946
H224	H	1.386250	0.806386	0.784946
H225	H	0.768151	0.211512	0.292108
H226	H	1.268151	0.711512	0.792108
H227	H	0.828604	0.212361	0.210361
H228	H	1.328604	0.712361	0.710361
C229	C	0.652038	0.110774	0.311957
C230	C	1.152038	0.610774	0.811957
C231	C	0.705656	0.111680	0.237072
C232	C	1.205656	0.611680	0.737072
H233	H	0.680016	0.111230	0.375353
H234	H	1.180016	0.611230	0.875353
H235	H	0.613792	0.156323	0.301465
H236	H	1.113792	0.656323	0.801465
H237	H	0.625952	0.064147	0.309849
H238	H	1.125952	0.564147	0.809849
H239	H	0.731738	0.158310	0.239176
H240	H	1.231738	0.658310	0.739176
H241	H	0.743916	0.066127	0.247568
H242	H	1.243916	0.566127	0.747568
H243	H	0.173909	0.102792	0.249789
H244	H	0.673909	0.602792	0.749789
H245	H	0.932071	-0.503250	0.198621
H246	H	1.432071	-0.003250	0.698621
H247	H	0.323550	0.105287	-0.065499
H248	H	0.823550	0.605287	0.434501
H249	H	0.935732	-0.282501	0.261630
H250	H	1.435732	0.217499	0.761630
H251	H	0.938221	-0.132872	0.249795
H252	H	1.438221	0.367128	0.749795
H253	H	0.544305	0.108983	-0.128510
H254	H	1.044305	0.608983	0.371490
C255	C	0.676797	0.179304	-0.203786
C256	C	1.176797	0.679304	0.296214
C257	C	0.705690	0.111694	-0.141431
C258	C	1.205690	0.611694	0.358569
H259	H	0.704791	0.179777	-0.262746
H260	H	1.204791	0.679777	0.237254
H261	H	0.621788	0.178379	-0.221043
H262	H	1.121788	0.678379	0.278957
H263	H	0.684230	0.225609	-0.169860
H264	H	1.184230	0.725609	0.330140
H265	H	0.698251	0.065388	-0.175354
H266	H	1.198251	0.565388	0.324646
H267	H	0.760712	0.112612	-0.124175
H268	H	1.260712	0.612612	0.375825
C269	C	0.936555	-0.240614	-0.173615
C270	C	1.436555	0.259386	0.326385
C271	C	0.935625	-0.294228	-0.090246
C272	C	1.435625	0.205772	0.409754
H273	H	0.936137	-0.268599	-0.232576
H274	H	1.436137	0.231401	0.267424
H275	H	0.890996	-0.202379	-0.176646
H276	H	1.390996	0.297621	0.323354
H277	H	0.983170	-0.214513	-0.168167
H278	H	1.483170	0.285487	0.331833
H279	H	0.889007	-0.320325	-0.095690
H280	H	1.389007	0.179675	0.404310
H281	H	0.981189	-0.332477	-0.087215
H282	H	1.481189	0.167523	0.412785
H283	H	1.031565	0.009532	0.327301
H284	H	1.531565	0.509532	0.827301
H285	H	1.031603	0.009542	0.837246
H286	H	1.531603	0.509542	1.337246
H287	H	1.031571	0.009533	0.516156
H288	H	1.531571	0.509533	1.016156
