data_functionalizedCrystal
_audit_creation_method	'MofGen! by Chris Wilmer'
_symmetry_space_group_name_H-M	'P1'
_symmetry_Int_Tables_number	1
_symmetry_cell_setting	triclinic
loop_
_symmetry_equiv_pos_as_xyz
  x,y,z
_cell_length_a	10.686285
_cell_length_b	19.805407
_cell_length_c	19.805399
_cell_angle_alpha	90.021064
_cell_angle_beta	85.610534
_cell_angle_gamma	94.369619
loop_
_atom_site_label
_atom_site_type_symbol
_atom_site_fract_x
_atom_site_fract_y
_atom_site_fract_z
Zn1	Zn	-0.502409	-1.055501	-0.362136
Zn2	Zn	-0.713420	-1.064138	-0.240292
Zn3	Zn	-0.502440	-0.942317	-0.248957
Zn4	Zn	-0.713349	-0.950998	-0.353439
O5	O	-0.607905	-1.003239	-0.301206
O6	O	-0.530417	-1.151364	-0.345987
O7	O	-0.685476	-1.047959	-0.146723
O8	O	-0.325861	-0.950084	-0.271237
O9	O	-0.685446	-1.157709	-0.256469
O10	O	-0.325838	-1.033240	-0.354389
O11	O	-0.530470	-0.958458	-0.153089
O12	O	-0.530401	-0.848752	-0.262803
O13	O	-0.685325	-0.964879	-0.449311
O14	O	-0.685355	-0.855129	-0.339565
O15	O	-0.530348	-1.041657	-0.455701
O16	O	-0.889986	-1.056377	-0.248035
O17	O	-0.889934	-0.973254	-0.331163
C18	C	-0.607875	-0.827381	-0.301181
C19	C	-0.607892	-0.752150	-0.301185
C20	C	-0.688697	-0.720150	-0.341079
C21	C	-0.688697	-0.649461	-0.341087
C22	C	-0.607898	-0.610775	-0.301196
C23	C	-0.527084	-0.642780	-0.261300
C24	C	-0.527078	-0.713467	-0.261297
C25	C	-0.527102	-0.357707	-0.261314
C26	C	-0.527116	-0.287016	-0.261320
C27	C	-0.688721	-0.293702	-0.341105
C28	C	-0.688716	-0.364389	-0.341101
C29	C	-0.607898	-0.396387	-0.301208
C30	C	-0.607897	-0.473036	-0.301201
C31	C	-0.607904	-0.534128	-0.301199
C32	C	-0.935744	-1.016713	-0.287730
C33	C	-1.075995	-1.022539	-0.281987
C34	C	-0.278786	-0.989730	-0.314750
C35	C	-0.138535	-0.983974	-0.320521
C36	C	-0.607825	-1.003273	-0.477752
C37	C	-0.607791	-1.003288	-0.552985
C38	C	-0.607927	-0.179782	-0.301226
C39	C	-0.607916	-0.255014	-0.301218
C40	C	-0.527091	-1.043267	-0.591658
C41	C	-0.527054	-1.043273	-0.662348
C42	C	-0.607725	-1.003302	-0.694364
C43	C	-0.688430	-0.963318	-0.655686
C44	C	-0.688459	-0.963310	-0.584998
C45	C	-0.688312	-0.963352	-0.940764
C46	C	-0.688279	-0.963365	-1.011458
C47	C	-0.526907	-1.043315	-1.018115
C48	C	-0.526937	-1.043306	-0.947427
C49	C	-0.607635	-1.003320	-0.908755
C50	C	-0.607672	-1.003313	-0.832105
C51	C	-0.607696	-1.003312	-0.771012
C52	C	-0.607893	-1.003239	-0.125351
C53	C	-0.607571	-1.003341	-0.050132
H54	H	-0.754522	-0.267640	-0.373590
H55	H	-0.461272	-0.739520	-0.228815
C56	C	-0.777612	-0.406944	-0.384968
H57	H	-0.766048	-0.453626	-0.379244
H58	H	-0.759277	-0.394631	-0.431219
H59	H	-0.862367	-0.398835	-0.371491
C60	C	-1.148608	-1.073160	-0.231474
H61	H	-1.236509	-1.070568	-0.234108
H62	H	-1.127128	-1.062400	-0.186858
H63	H	-1.126997	-1.117748	-0.242302
C64	C	-0.438345	-1.087232	-0.556448
H65	H	-0.390269	-1.111037	-0.589607
H66	H	-0.486621	-1.118703	-0.526890
H67	H	-0.383370	-1.059073	-0.531132
H68	H	-0.753974	-0.930813	-1.037522
C69	C	-0.438130	-1.087294	-1.060656
H70	H	-0.449653	-1.081572	-1.107341
H71	H	-0.456615	-1.133528	-1.048320
H72	H	-0.353348	-1.073906	-1.052556
C73	C	-0.438214	-0.392901	-0.217433
H74	H	-0.449767	-0.440540	-0.223147
H75	H	-0.456568	-0.382052	-0.171185
H76	H	-0.353457	-0.377831	-0.230904
H77	H	-0.461312	-0.255519	-0.228836
C78	C	-0.438290	-1.087253	-0.704885
H79	H	-0.390262	-1.111064	-0.675693
H80	H	-0.383289	-1.059112	-0.734718
H81	H	-0.486564	-1.118730	-0.730480
C82	C	-0.777584	-0.762702	-0.384954
H83	H	-0.766021	-0.809385	-0.379233
H84	H	-0.759238	-0.750384	-0.431203
H85	H	-0.862343	-0.754595	-0.371482
H86	H	-0.461250	-1.075857	-0.921363
C87	C	-1.065927	-0.933354	-0.371031
H88	H	-0.978026	-0.935953	-0.368401
H89	H	-1.087540	-0.888769	-0.360209
H90	H	-1.087401	-0.944120	-0.415650
C91	C	-0.777051	-0.919354	-0.898236
H92	H	-0.825088	-0.895552	-0.927429
H93	H	-0.728760	-0.887881	-0.872652
H94	H	-0.832064	-0.947485	-0.868393
H95	H	-0.754498	-0.623410	-0.373572
C96	C	-0.777167	-0.919352	-0.690901
H97	H	-0.765603	-0.925088	-0.738539
H98	H	-0.758700	-0.873115	-0.680068
H99	H	-0.861958	-0.932742	-0.675827
H100	H	-0.754161	-0.930747	-0.553511
C101	C	-0.438210	-0.600227	-0.217419
H102	H	-0.449795	-0.553545	-0.223128
H103	H	-0.353451	-0.608328	-0.230880
H104	H	-0.456577	-0.612550	-0.171169
