data_functionalizedCrystal
_audit_creation_method	'MofGen! by Chris Wilmer'
_symmetry_space_group_name_H-M	'P1'
_symmetry_Int_Tables_number	1
_symmetry_cell_setting	triclinic
loop_
_symmetry_equiv_pos_as_xyz
  x,y,z
_cell_length_a	12.759401
_cell_length_b	16.625545
_cell_length_c	12.759393
_cell_angle_alpha	90.033904
_cell_angle_beta	90.019437
_cell_angle_gamma	90.025570
loop_
_atom_site_label
_atom_site_type_symbol
_atom_site_fract_x
_atom_site_fract_y
_atom_site_fract_z
Zn1	Zn	1.606176	-0.320954	0.593991
Zn2	Zn	2.106176	0.179046	1.093991
Zn3	Zn	1.606037	-0.455811	0.418304
Zn4	Zn	2.106037	0.044189	0.918304
Zn5	Zn	1.430478	-0.320996	0.418327
Zn6	Zn	1.930478	0.179004	0.918327
Zn7	Zn	1.430433	-0.455748	0.593942
Zn8	Zn	1.930433	0.044252	1.093942
O9	O	1.518281	-0.388377	0.506141
O10	O	2.018281	0.111623	1.006141
O11	O	1.753179	-0.338851	0.570696
O12	O	2.253179	0.161149	1.070696
O13	O	1.582709	-0.437971	0.271286
O14	O	2.082709	0.062029	0.771286
O15	O	1.453862	-0.208158	0.441659
O16	O	1.953862	0.291842	0.941659
O17	O	1.753077	-0.437930	0.441619
O18	O	2.253077	0.062070	0.941619
O19	O	1.582946	-0.208127	0.570719
O20	O	2.082946	0.291873	1.070719
O21	O	1.453727	-0.338923	0.271303
O22	O	1.953727	0.161077	0.771303
O23	O	1.283451	-0.338862	0.441612
O24	O	1.783451	0.161138	0.941612
O25	O	1.453786	-0.437824	0.740970
O26	O	1.953786	0.062176	1.240970
O27	O	1.283418	-0.437864	0.570636
O28	O	1.783418	0.062136	1.070636
O29	O	1.582903	-0.338791	0.741005
O30	O	2.082903	0.161209	1.241005
O31	O	1.582666	-0.568635	0.441572
O32	O	2.082666	-0.068635	0.941572
O33	O	1.453651	-0.568589	0.570613
O34	O	1.953651	-0.068589	1.070613
C35	C	1.245314	-0.388362	0.506122
C36	C	1.745314	0.111638	1.006122
C37	C	1.128537	-0.388375	0.506139
C38	C	1.628537	0.111625	1.006139
C39	C	0.963961	-0.440016	0.573234
C40	C	1.463961	0.059984	1.073234
C41	C	1.073685	-0.440006	0.573217
C42	C	1.573685	0.059994	1.073217
C43	C	1.073660	-0.336756	0.439066
C44	C	1.573660	0.163244	0.939066
C45	C	0.963938	-0.336771	0.439079
C46	C	1.463938	0.163229	0.939079
C47	C	0.909114	-0.491645	0.640324
C48	C	1.409114	0.008355	1.140324
C49	C	0.963984	-0.543265	0.707396
C50	C	1.463984	-0.043265	1.207396
C51	C	1.073708	-0.543255	0.707379
C52	C	1.573708	-0.043255	1.207379
C53	C	1.128562	-0.491624	0.640290
C54	C	1.628562	0.008376	1.140290
C55	C	1.518167	-0.597868	0.506108
C56	C	2.018167	-0.097868	1.006108
C57	C	1.518214	-0.687489	0.506129
C58	C	2.018214	-0.187489	1.006129
C59	C	1.518255	-0.760271	0.506150
C60	C	2.018255	-0.260271	1.006150
C61	C	1.518316	-0.851580	0.506173
C62	C	2.018316	-0.351580	1.006173
C63	C	1.518371	-0.924356	0.506186
C64	C	2.018371	-0.424356	1.006186
C65	C	1.518431	-1.015671	0.506208
C66	C	2.018431	-0.515671	1.006208
C67	C	1.792314	-0.388393	0.506160
C68	C	2.292314	0.111607	1.006160
C69	C	1.909091	-0.388400	0.506169
C70	C	2.409091	0.111600	1.006169
C71	C	1.518355	-0.388296	0.780174
C72	C	2.018355	0.111704	1.280174
C73	C	1.518386	-0.388261	0.896951
C74	C	2.018386	0.111739	1.396951
C75	C	1.518424	-0.178068	0.506197
C76	C	2.018424	0.321932	1.006197
C77	C	1.518485	-0.088447	0.506221
C78	C	2.018485	0.411553	1.006221
C79	C	1.518268	-0.388400	0.233173
C80	C	2.018268	0.111600	0.733173
C81	C	1.518441	-0.388207	0.116397
C82	C	2.018441	0.111793	0.616397
C83	C	1.585627	-0.336690	0.951833
C84	C	2.085627	0.163310	1.451833
C85	C	1.585652	-0.336661	1.061557
C86	C	2.085652	0.163339	1.561557
C87	C	1.451192	-0.439781	1.061507
C88	C	1.951192	0.060219	1.561507
C89	C	1.451163	-0.439806	0.951785
C90	C	1.951163	0.060194	1.451785
C91	C	1.652850	-0.285145	0.896999
C92	C	2.152850	0.214855	1.396999
C93	C	1.720097	-0.233570	0.951882
C94	C	2.220097	0.266430	1.451882
C95	C	1.720122	-0.233541	1.061606
C96	C	2.220122	0.266459	1.561606
C97	C	1.652900	-0.285087	1.116447
C98	C	2.152900	0.214913	1.616447
H99	H	0.919314	-0.585305	0.762011
H100	H	1.419314	-0.085305	1.262011
H101	H	1.217907	-0.491625	0.640276
H102	H	1.717907	0.008375	1.140276
H103	H	1.118331	-0.294720	0.384447
H104	H	1.618331	0.205280	0.884447
O105	O	1.386005	-0.489829	1.114940
O106	O	1.886005	0.010171	1.614940
C107	C	1.400434	-0.478736	1.223552
C108	C	1.900434	0.021264	1.723552
H109	H	1.481535	-0.452328	1.238550
H110	H	1.981535	0.047672	1.738550
H111	H	1.393283	-0.539123	1.265228
H112	H	1.893283	-0.039123	1.765228
H113	H	1.338153	-0.435789	1.254705
H114	H	1.838153	0.064211	1.754705
O115	O	1.652925	-0.285045	0.790415
O116	O	2.152925	0.214955	1.290415
C117	C	1.726694	-0.228509	0.753782
C118	C	2.226694	0.271491	1.253782
H119	H	1.741460	-0.181385	0.817028
H120	H	2.241460	0.318615	1.317028
H121	H	1.694999	-0.197929	0.680383
H122	H	2.194999	0.302071	1.180383
H123	H	1.803272	-0.260497	0.734312
H124	H	2.303272	0.239503	1.234312
H125	H	1.652913	-0.285050	1.205792
H126	H	2.152913	0.214950	1.705792
O127	O	1.385835	-0.489994	0.898628
O128	O	1.885835	0.010006	1.398628
C129	C	1.326508	-0.535482	0.970552
C130	C	1.826508	-0.035482	1.470552
H131	H	1.369547	-0.538243	1.048776
H132	H	1.869547	-0.038243	1.548776
H133	H	1.315280	-0.599022	0.938829
H134	H	1.815280	-0.099022	1.438829
H135	H	1.246724	-0.505967	0.982209
H136	H	1.746724	-0.005967	1.482209
H137	H	1.774820	-0.191599	0.907222
H138	H	2.274820	0.308401	1.407222
O139	O	1.126847	-0.593423	0.772623
O140	O	1.626847	-0.093423	1.272623
C141	C	1.054905	-0.639007	0.831817
C142	C	1.554905	-0.139007	1.331817
H143	H	0.976707	-0.605992	0.835537
H144	H	1.476707	-0.105992	1.335537
H145	H	1.086642	-0.647676	0.914571
H146	H	1.586642	-0.147676	1.414571
H147	H	1.043193	-0.700213	0.793209
H148	H	1.543193	-0.200213	1.293209
O149	O	0.910793	-0.286554	0.373901
O150	O	1.410793	0.213446	0.873901
C151	C	0.982727	-0.240991	0.314671
C152	C	1.482727	0.259009	0.814671
H153	H	1.060963	-0.238222	0.357699
H154	H	1.560963	0.261778	0.857699
H155	H	0.951037	-0.177459	0.303611
H156	H	1.451037	0.322541	0.803611
H157	H	0.994350	-0.270447	0.234811
H158	H	1.494350	0.229553	0.734811
H159	H	0.819771	-0.491658	0.640348
H160	H	1.319771	0.008342	1.140348
H161	H	1.774870	-0.191541	1.106288
H162	H	2.274870	0.308459	1.606288
