data_functionalizedCrystal
_audit_creation_method	'MofGen! by Chris Wilmer'
_symmetry_space_group_name_H-M	'P1'
_symmetry_Int_Tables_number	1
_symmetry_cell_setting	triclinic
loop_
_symmetry_equiv_pos_as_xyz
  x,y,z
_cell_length_a	12.759401
_cell_length_b	12.645330
_cell_length_c	12.759393
_cell_angle_alpha	90.028974
_cell_angle_beta	90.019596
_cell_angle_gamma	90.017969
loop_
_atom_site_label
_atom_site_type_symbol
_atom_site_fract_x
_atom_site_fract_y
_atom_site_fract_z
Zn1	Zn	1.606245	-0.421980	0.593994
Zn2	Zn	1.606126	-0.599281	0.418318
Zn3	Zn	1.430543	-0.422033	0.418333
Zn4	Zn	1.430526	-0.599203	0.593960
O5	O	1.518360	-0.510624	0.506151
O6	O	1.753250	-0.445510	0.570698
O7	O	1.582793	-0.575823	0.271299
O8	O	1.453907	-0.273679	0.441655
O9	O	1.753163	-0.575772	0.441630
O10	O	1.582994	-0.273640	0.570712
O11	O	1.453793	-0.445600	0.271310
O12	O	1.283520	-0.445524	0.441622
O13	O	1.453878	-0.575639	0.740985
O14	O	1.283507	-0.575690	0.570654
O15	O	1.582977	-0.445435	0.741010
O16	O	1.582776	-0.747618	0.441597
O17	O	1.453763	-0.747561	0.570640
C18	C	1.245393	-0.510605	0.506137
C19	C	1.128616	-0.510623	0.506155
C20	C	0.964044	-0.578519	0.573244
C21	C	1.073768	-0.578508	0.573233
C22	C	1.073734	-0.442753	0.439077
C23	C	0.964012	-0.442771	0.439083
C24	C	1.518283	-0.786054	0.506136
C25	C	1.518347	-0.903884	0.506165
C26	C	1.437519	-1.071456	0.587596
C27	C	1.437106	-0.948897	0.587335
C28	C	1.488371	-0.948486	0.395444
C29	C	1.487878	-1.071085	0.395938
C30	C	1.629644	-1.070971	0.534558
C31	C	1.628962	-0.948364	0.536979
C32	C	1.792393	-0.510644	0.506166
C33	C	1.909170	-0.510652	0.506173
C34	C	1.518439	-0.510522	0.780185
C35	C	1.518472	-0.510479	0.896961
C36	C	1.518466	-0.234119	0.506189
C37	C	1.518511	-0.116289	0.506205
C38	C	1.518342	-0.510649	0.233184
C39	C	1.518512	-0.510394	0.116408
C40	C	1.585699	-0.442671	0.951838
C41	C	1.585717	-0.442625	1.061562
C42	C	1.451278	-0.578205	1.061523
C43	C	1.451255	-0.578245	0.951801
H44	H	1.118401	-0.387484	0.384456
N45	N	0.904821	-0.369565	0.366739
H46	H	0.826991	-0.379883	0.376920
H47	H	0.923969	-0.385976	0.291677
N48	N	1.658937	-0.909731	0.644901
H49	H	1.669862	-0.972304	0.692835
H50	H	1.601085	-0.863590	0.673640
H51	H	1.545491	-0.919332	0.333144
H52	H	1.544308	-1.100746	0.333227
H53	H	1.455861	-0.918737	0.669434
N54	N	1.378780	-0.651276	1.120689
H55	H	1.421459	-0.700391	1.166217
H56	H	1.336190	-0.694168	1.069218
N57	N	1.462118	-1.110409	0.696707
H58	H	1.526000	-1.157499	0.694441
H59	H	1.400437	-1.151767	0.724636
N60	N	1.329064	-1.112381	0.563043
H61	H	1.332166	-1.159836	0.499426
H62	H	1.280815	-1.050820	0.548450
N63	N	1.665888	-1.111816	0.639677
H64	H	1.614486	-1.089519	0.695659
H65	H	1.737345	-1.081739	0.656211
N66	N	1.327979	-0.910159	0.562443
H67	H	1.277457	-0.937003	0.617243
H68	H	1.306201	-0.937240	0.491210
H69	H	1.406639	-1.099778	0.371919
N70	N	1.381885	-0.907946	0.363041
H71	H	1.352909	-0.860700	0.419914
H72	H	1.332951	-0.969690	0.351670
N73	N	1.713111	-0.907768	0.464183
H74	H	1.680576	-0.859758	0.409952
H75	H	1.748125	-0.969440	0.428075
H76	H	1.689984	-1.099963	0.475277
H77	H	1.640429	-0.387488	0.907191
H78	H	1.640459	-0.387407	1.106238
H79	H	1.396503	-0.633462	0.907119
H80	H	0.919394	-0.633794	0.627872
H81	H	1.118441	-0.633773	0.627848
