data_functionalizedCrystal
_audit_creation_method	'MofGen! by Chris Wilmer'
_symmetry_space_group_name_H-M	'P1'
_symmetry_Int_Tables_number	1
_symmetry_cell_setting	triclinic
loop_
_symmetry_equiv_pos_as_xyz
  x,y,z
_cell_length_a	18.215407
_cell_length_b	18.050590
_cell_length_c	18.215399
_cell_angle_alpha	89.971265
_cell_angle_beta	89.982187
_cell_angle_gamma	90.013065
loop_
_atom_site_label
_atom_site_type_symbol
_atom_site_fract_x
_atom_site_fract_y
_atom_site_fract_z
Zn1	Zn	1.125104	-0.295776	-0.416072
Zn2	Zn	1.625104	0.204224	0.083928
Zn3	Zn	1.125026	-0.419971	-0.293004
Zn4	Zn	1.625026	0.080029	0.206996
Zn5	Zn	1.002037	-0.295787	-0.293024
Zn6	Zn	1.502037	0.204213	0.206976
Zn7	Zn	1.002016	-0.419917	-0.416033
Zn8	Zn	1.502016	0.080083	0.083967
O9	O	1.063546	-0.357863	-0.354533
O10	O	1.563546	0.142137	0.145467
O11	O	1.228078	-0.312268	-0.399755
O12	O	1.728078	0.187732	0.100245
O13	O	1.108687	-0.403525	-0.190022
O14	O	1.608687	0.096475	0.309978
O15	O	1.018403	-0.191861	-0.309371
O16	O	1.518403	0.308139	0.190629
O17	O	1.228021	-0.403514	-0.309337
O18	O	1.728021	0.096486	0.190663
O19	O	1.108820	-0.191853	-0.399774
O20	O	1.608820	0.308147	0.100226
O21	O	1.018328	-0.312288	-0.190037
O22	O	1.518328	0.187712	0.309963
O23	O	0.899050	-0.312235	-0.309333
O24	O	1.399050	0.187765	0.190667
O25	O	1.018368	-0.403422	-0.519023
O26	O	1.518368	0.096578	-0.019023
O27	O	0.899035	-0.403433	-0.399708
O28	O	1.399035	0.096567	0.100292
O29	O	1.108800	-0.312216	-0.519051
O30	O	1.608800	0.187784	-0.019051
O31	O	1.108668	-0.523888	-0.309300
O32	O	1.608668	-0.023888	0.190700
O33	O	1.018293	-0.523848	-0.399689
O34	O	1.518293	-0.023848	0.100311
C35	C	0.872340	-0.357830	-0.354519
C36	C	1.372340	0.142170	0.145481
C37	C	0.790541	-0.357834	-0.354530
C38	C	1.290541	0.142166	0.145470
C39	C	0.525507	-0.310443	-0.401689
C40	C	1.025507	0.189557	0.098311
C41	C	0.602366	-0.310431	-0.401686
C42	C	1.102366	0.189569	0.098314
C43	C	0.602326	-0.405307	-0.307394
C44	C	1.102326	0.094693	0.192606
C45	C	0.525468	-0.405322	-0.307401
C46	C	1.025468	0.094678	0.192599
C47	C	0.487061	-0.357886	-0.354547
C48	C	0.987061	0.142114	0.145453
C49	C	0.640777	-0.357858	-0.354538
C50	C	1.140777	0.142142	0.145462
C51	C	0.724111	-0.357846	-0.354535
C52	C	1.224111	0.142154	0.145465
C53	C	0.403722	-0.357899	-0.354551
C54	C	0.903722	0.142101	0.145449
C55	C	1.063489	-0.550815	-0.354504
C56	C	1.563489	-0.050815	0.145496
C57	C	1.063532	-0.633360	-0.354516
C58	C	1.563532	-0.133360	0.145484
C59	C	1.112781	-0.832806	-0.305431
C60	C	1.612781	-0.332806	0.194569
C61	C	1.130758	-0.882140	-0.372597
C62	C	1.630758	-0.382140	0.127403
C63	C	1.063574	-0.784491	-0.354545
C64	C	1.563574	-0.284491	0.145455
C65	C	1.045672	-0.882239	-0.287409
C66	C	1.545672	-0.382239	0.212591
C67	C	1.063616	-0.930476	-0.354568
C68	C	1.563616	-0.430476	0.145432
C69	C	1.081586	-0.832738	-0.421747
C70	C	1.581586	-0.332738	0.078253
C71	C	0.996469	-0.832832	-0.336514
C72	C	1.496469	-0.332832	0.163486
C73	C	1.014421	-0.882144	-0.403726
C74	C	1.514421	-0.382144	0.096274
C75	C	1.063552	-0.700393	-0.354532
C76	C	1.563552	-0.200393	0.145468
C77	C	1.063638	-1.014572	-0.354589
C78	C	1.563638	-0.514572	0.145411
C79	C	1.255499	-0.357896	-0.354548
C80	C	1.755499	0.142104	0.145452
C81	C	1.337298	-0.357910	-0.354555
C82	C	1.837298	0.142090	0.145445
C83	C	1.063591	-0.357811	-0.546486
C84	C	1.563591	0.142189	-0.046486
C85	C	1.063610	-0.357790	-0.628285
C86	C	1.563610	0.142210	-0.128285
C87	C	1.063623	-0.164157	-0.354579
C88	C	1.563623	0.335843	0.145421
C89	C	1.063656	-0.081611	-0.354598
C90	C	1.563656	0.418389	0.145402
C91	C	1.110715	-0.310254	-0.816495
C92	C	1.610715	0.189746	-0.316495
C93	C	1.110724	-0.310233	-0.893354
C94	C	1.610724	0.189767	-0.393354
C95	C	1.016557	-0.405210	-0.893313
C96	C	1.516557	0.094790	-0.393313
C97	C	1.016545	-0.405227	-0.816456
C98	C	1.516545	0.094773	-0.316456
C99	C	1.063628	-0.357751	-0.778049
C100	C	1.563628	0.142249	-0.278049
C101	C	1.063649	-0.357712	-0.931765
C102	C	1.563649	0.142288	-0.431765
C103	C	1.063658	-0.357689	-1.015099
C104	C	1.563658	0.142311	-0.515099
C105	C	1.063618	-0.357773	-0.694710
C106	C	1.563618	0.142227	-0.194710
C107	C	1.063544	-0.357860	-0.163327
C108	C	1.563544	0.142140	0.336673
C109	C	1.063667	-0.357673	-0.081529
C110	C	1.563667	0.142327	0.418471
H111	H	0.633666	-0.271798	-0.440075
H112	H	1.133666	0.228202	0.059925
N113	N	0.925282	-0.805632	-0.317324
N114	N	1.425282	-0.305632	0.182676
N115	N	0.917502	-0.765156	-0.262209
N116	N	1.417502	-0.265156	0.237791
H117	H	0.867226	-0.745945	-0.248647
H118	H	1.367226	-0.245945	0.251353
N119	N	1.158801	-0.261764	-0.777252
N120	N	1.658801	0.238236	-0.277252
N121	N	1.205682	-0.287907	-0.734364
N122	N	1.705682	0.212093	-0.234364
H123	H	1.239643	-0.253659	-0.706648
H124	H	1.739643	0.246341	-0.206648
N125	N	0.641548	-0.453750	-0.259220
N126	N	1.141548	0.046250	0.240780
N127	N	0.607209	-0.496104	-0.217129
N128	N	1.107209	0.003896	0.282871
H129	H	0.634908	-0.530317	-0.183102
H130	H	1.134908	-0.030317	0.316898
N131	N	1.158813	-0.261717	-0.932637
N132	N	1.658813	0.238283	-0.432637
N133	N	1.132943	-0.214379	-0.975531
N134	N	1.632943	0.285621	-0.475531
H135	H	1.166907	-0.180111	-1.003276
H136	H	1.666907	0.319889	-0.503276
H137	H	0.978225	-0.443865	-0.924594
H138	H	1.478225	0.056135	-0.424594
N139	N	0.968434	-0.453746	-0.777190
N140	N	1.468434	0.046254	-0.277190
N141	N	0.926403	-0.496134	-0.811488
N142	N	1.426403	0.003866	-0.311488
H143	H	0.892423	-0.530397	-0.783757
H144	H	1.392423	-0.030397	-0.283757
H145	H	1.096688	-0.811087	-0.478581
H146	H	1.596688	-0.311087	0.021419
H147	H	0.494239	-0.271817	-0.440078
H148	H	0.994239	0.228183	0.059922
H149	H	0.494165	-0.443960	-0.269011
H150	H	0.994165	0.056040	0.230989
H151	H	1.154407	-0.811142	-0.263940
H152	H	1.654407	-0.311142	0.236060
H153	H	1.187525	-0.903800	-0.387863
H154	H	1.687525	-0.403800	0.112137
H155	H	0.972826	-0.903671	-0.445318
H156	H	1.472826	-0.403671	0.054682
H157	H	1.030513	-0.903981	-0.230624
H158	H	1.530513	-0.403981	0.269376
