data_functionalizedCrystal
_audit_creation_method	'MofGen! by Chris Wilmer'
_symmetry_space_group_name_H-M	'P1'
_symmetry_Int_Tables_number	1
_symmetry_cell_setting	triclinic
loop_
_symmetry_equiv_pos_as_xyz
  x,y,z
_cell_length_a	19.188905
_cell_length_b	19.188924
_cell_length_c	13.596369
_cell_angle_alpha	89.991944
_cell_angle_beta	89.987547
_cell_angle_gamma	83.138260
loop_
_atom_site_label
_atom_site_type_symbol
_atom_site_fract_x
_atom_site_fract_y
_atom_site_fract_z
O1	O	0.926154	0.087086	-0.081958
O2	O	0.722840	0.098838	-0.081925
O3	O	0.830367	-0.008694	-0.081931
O4	O	0.818628	0.194619	-0.081952
O5	O	0.830357	-0.008700	0.081652
O6	O	0.722830	0.098833	0.081658
O7	O	0.926144	0.087080	0.081625
Zn8	Zn	0.824485	0.092956	0.107614
Zn9	Zn	0.824499	0.092963	-0.107914
O10	O	0.818617	0.194613	0.081631
C11	C	0.696824	0.098458	-0.000129
C12	C	0.619318	0.097324	-0.000116
C13	C	0.582932	0.096783	-0.089288
C14	C	0.510109	0.095710	-0.089300
C15	C	0.473676	0.095164	-0.000135
C16	C	0.510070	0.095710	0.089048
C17	C	0.582891	0.096790	0.089058
N18	N	0.364652	0.053733	0.066226
N19	N	0.295475	0.052706	0.066210
C20	C	0.254269	0.091911	-0.000159
N21	N	0.284855	0.132175	-0.066527
N22	N	0.354038	0.133199	-0.066515
C23	C	0.394713	0.093993	-0.000136
C24	C	0.138920	0.090207	-0.089349
C25	C	0.066094	0.089139	-0.089358
C26	C	0.066058	0.089132	0.088993
C27	C	0.138881	0.090207	0.088998
C28	C	0.175308	0.090742	-0.000175
C29	C	0.829982	-0.034708	-0.000138
C30	C	0.828844	-0.112213	-0.000136
C31	C	0.828318	-0.148609	-0.089305
C32	C	0.827238	-0.221431	-0.089312
C33	C	0.826698	-0.257857	-0.000145
C34	C	0.827220	-0.221452	0.089036
C35	C	0.828293	-0.148630	0.089041
N36	N	0.864742	-0.377526	0.066214
N37	N	0.863724	-0.446704	0.066203
C38	C	0.823464	-0.477266	-0.000154
N39	N	0.784268	-0.436037	-0.066515
N40	N	0.785289	-0.366853	-0.066507
C41	C	0.825534	-0.336821	-0.000140
C42	C	0.821766	-0.592624	-0.089337
C43	C	0.820682	-0.665448	-0.089341
C44	C	0.820671	-0.665468	0.089010
C45	C	0.821748	-0.592645	0.089011
C46	C	0.822299	-0.556228	-0.000165
C47	C	0.952160	0.087461	-0.000173
C48	C	1.029666	0.088594	-0.000192
C49	C	0.819002	0.220627	-0.000164
C50	C	0.820141	0.298132	-0.000173
N51	N	0.824481	0.092950	0.254706
N52	N	0.824509	0.092963	-0.255006
C53	C	0.824498	0.092964	0.655997
C54	C	0.824491	0.092962	0.544345
C55	C	0.824490	0.092957	0.455355
C56	C	0.824482	0.092955	0.343696
H57	H	0.612516	0.097231	0.161674
H58	H	0.826778	-0.251115	0.161636
H59	H	0.822211	-0.562971	-0.161950
C60	C	0.828171	-0.155966	0.265330
C61	C	0.828875	-0.108620	0.187063
H62	H	0.828535	-0.131264	0.325844
H63	H	0.787047	-0.178912	0.261625
H64	H	0.868461	-0.189826	0.261608
H65	H	0.788582	-0.074763	0.190780
H66	H	0.870003	-0.085663	0.190770
C67	C	0.228798	0.031405	0.192471
C68	C	0.178883	0.090791	0.187020
H69	H	0.253495	0.031770	0.252986
H70	H	0.205845	-0.009714	0.188766
H71	H	0.260912	0.031892	0.139364
H72	H	0.146766	0.090302	0.240123
H73	H	0.201838	0.131921	0.190734
H74	H	0.036394	0.088692	0.161592
C75	C	0.760377	-0.679802	-0.241370
C76	C	0.820111	-0.705453	-0.187368
H77	H	0.760031	-0.704497	-0.301891
H78	H	0.719494	-0.686294	-0.204740
H79	H	0.761103	-0.631218	-0.254114
H80	H	0.819382	-0.754036	-0.174617
H81	H	0.861004	-0.698967	-0.224005
H82	H	0.820225	-0.695125	0.161611
C83	C	0.768605	-0.118226	-0.241281
C84	C	0.828883	-0.108618	-0.187361
H85	H	0.768943	-0.093544	-0.301824
H86	H	0.767907	-0.166810	-0.253977
H87	H	0.728086	-0.100828	-0.204613
H88	H	0.869402	-0.126020	-0.224026
H89	H	0.829587	-0.060023	-0.174668
C90	C	0.575649	0.096677	-0.265579
C91	C	0.622971	0.097377	-0.187306
H92	H	0.600369	0.097049	-0.326090
H93	H	0.552705	0.055551	-0.261866
H94	H	0.541785	0.136965	-0.261870
H95	H	0.656832	0.057087	-0.191011
H96	H	0.645926	0.138508	-0.191021
C97	C	0.420186	0.154496	-0.192785
C98	C	0.470101	0.095111	-0.187323
H99	H	0.395492	0.154127	-0.253302
H100	H	0.388075	0.154016	-0.139685
H101	H	0.443143	0.195621	-0.189088
H102	H	0.447143	0.053987	-0.191012
H103	H	0.502216	0.095585	-0.240437
C104	C	0.436207	0.034475	0.192509
C105	C	0.470028	0.095106	0.187062
H106	H	0.411492	0.034103	0.253025
H107	H	0.404114	0.034004	0.139406
H108	H	0.470083	-0.005804	0.188808
H109	H	0.436152	0.135384	0.190755
H110	H	0.502124	0.095583	0.240180
C111	C	0.131641	0.090124	-0.265641
C112	C	0.178963	0.090813	-0.187366
H113	H	0.156362	0.090505	-0.326151
H114	H	0.108697	0.048998	-0.261941
H115	H	0.097778	0.130412	-0.261922
H116	H	0.212824	0.050523	-0.191080
H117	H	0.201919	0.131944	-0.191067
C118	C	-0.023812	0.147936	-0.192853
C119	C	0.026097	0.088547	-0.187385
H120	H	-0.048500	0.147572	-0.253375
H121	H	-0.055928	0.147458	-0.139759
H122	H	-0.000850	0.189057	-0.189148
H123	H	0.003135	0.047425	-0.191082
H124	H	0.058218	0.089018	-0.240494
H125	H	0.822182	-0.563012	0.161622
H126	H	0.826806	-0.251070	-0.161927
