data_functionalizedCrystal
_audit_creation_method	'MofGen! by Chris Wilmer'
_symmetry_space_group_name_H-M	'P1'
_symmetry_Int_Tables_number	1
_symmetry_cell_setting	triclinic
loop_
_symmetry_equiv_pos_as_xyz
  x,y,z
_cell_length_a	12.827893
_cell_length_b	12.827892
_cell_length_c	12.827885
_cell_angle_alpha	90.029976
_cell_angle_beta	90.019272
_cell_angle_gamma	90.015552
loop_
_atom_site_label
_atom_site_type_symbol
_atom_site_fract_x
_atom_site_fract_y
_atom_site_fract_z
Zn1	Zn	1.597670	-0.415978	0.590847
Zn2	Zn	1.597564	-0.590755	0.416107
Zn3	Zn	1.422911	-0.416029	0.416121
Zn4	Zn	1.422896	-0.590678	0.590807
O5	O	1.510260	-0.503360	0.503471
O6	O	1.743892	-0.439173	0.567679
O7	O	1.574357	-0.567631	0.269873
O8	O	1.446144	-0.269787	0.439321
O9	O	1.743814	-0.567582	0.439298
O10	O	1.574538	-0.269749	0.567692
O11	O	1.446041	-0.439261	0.269883
O12	O	1.276673	-0.439186	0.439282
O13	O	1.446118	-0.567450	0.737048
O14	O	1.276662	-0.567500	0.567623
O15	O	1.574524	-0.439098	0.737078
O16	O	1.574343	-0.736981	0.439259
O17	O	1.446016	-0.736924	0.567610
C18	C	1.238750	-0.503341	0.503451
C19	C	1.122597	-0.503358	0.503467
C20	C	1.070851	-0.439930	0.567093
C21	C	0.950800	-0.439946	0.567111
C22	C	1.510195	-0.774870	0.503451
C23	C	1.510262	-0.891023	0.503478
C24	C	1.573768	-0.942706	0.567057
C25	C	1.573839	-1.062756	0.567086
C26	C	1.782830	-0.503380	0.503491
C27	C	1.898983	-0.503389	0.503500
C28	C	1.510331	-0.503260	0.776041
C29	C	1.510362	-0.503217	0.892194
C30	C	1.510354	-0.230790	0.503513
C31	C	1.510394	-0.114637	0.503531
C32	C	1.510249	-0.503385	0.231961
C33	C	1.510422	-0.503133	0.115808
C34	C	1.573907	-0.439692	0.943993
C35	C	1.573940	-0.439647	1.064044
H36	H	1.115425	-0.385612	0.621548
Br37	Br	1.664290	-0.868332	0.657766
H38	H	1.628212	-1.107202	0.621514
H39	H	1.078022	-0.557670	0.449006
Br40	Br	1.419775	-1.040571	0.412789
H41	H	0.943477	-0.557700	0.449030
H42	H	1.455975	-0.557562	0.936724
H43	H	1.628283	-0.385336	0.899464
Br44	Br	0.876637	-0.349441	0.657917
Br45	Br	1.664632	-0.349003	1.138283
Br46	Br	1.419745	-0.593798	1.041576
H47	H	1.455941	-0.935652	0.449072
