data_functionalizedCrystal
_audit_creation_method	'MofGen! by Chris Wilmer'
_symmetry_space_group_name_H-M	'P1'
_symmetry_Int_Tables_number	1
_symmetry_cell_setting	triclinic
loop_
_symmetry_equiv_pos_as_xyz
  x,y,z
_cell_length_a	18.050591
_cell_length_b	18.050589
_cell_length_c	15.296720
_cell_angle_alpha	80.353020
_cell_angle_beta	80.342895
_cell_angle_gamma	90.024669
loop_
_atom_site_label
_atom_site_type_symbol
_atom_site_fract_x
_atom_site_fract_y
_atom_site_fract_z
Zn1	Zn	1.062586	-0.368396	0.510205
Zn2	Zn	1.083992	-0.471110	0.359365
Zn3	Zn	0.959902	-0.346930	0.359358
Zn4	Zn	0.938361	-0.492534	0.510154
O5	O	1.011210	-0.419743	0.434770
O6	O	1.169347	-0.382040	0.490221
O7	O	1.085505	-0.436687	0.233128
O8	O	0.973580	-0.245855	0.379387
O9	O	1.185074	-0.457503	0.379399
O10	O	1.049022	-0.261627	0.490214
O11	O	0.994336	-0.345453	0.233123
O12	O	0.853123	-0.366227	0.379337
O13	O	0.936866	-0.494017	0.636396
O14	O	0.837297	-0.473201	0.490126
O15	O	1.028134	-0.402814	0.636434
O16	O	1.064618	-0.577874	0.379349
O17	O	0.957623	-0.593614	0.490132
C18	C	0.818265	-0.419710	0.434725
C19	C	0.735719	-0.419717	0.434727
C20	C	0.495457	-0.361513	0.374623
C21	C	0.533158	-0.355150	0.456948
C22	C	0.438588	-0.419765	0.434801
C23	C	0.547974	-0.426071	0.352445
C24	C	0.584579	-0.419739	0.434761
C25	C	0.475195	-0.413373	0.517170
C26	C	0.490014	-0.484318	0.412611
C27	C	0.527684	-0.477988	0.494993
C28	C	0.354486	-0.419779	0.434823
C29	C	0.668677	-0.419728	0.434748
C30	C	1.011123	-0.612693	0.434755
C31	C	1.011149	-0.695242	0.434779
C32	C	0.953017	-0.903276	0.495002
C33	C	0.946650	-0.940992	0.412685
C34	C	1.011220	-0.846374	0.434791
C35	C	1.017623	-0.955741	0.517118
C36	C	1.011287	-0.992362	0.434810
C37	C	1.004824	-0.882997	0.352430
C38	C	1.075820	-0.897749	0.456919
C39	C	1.069487	-0.935434	0.374544
C40	C	1.011180	-0.762274	0.434781
C41	C	1.011329	-1.076458	0.434810
C42	C	1.204909	-0.419776	0.434816
C43	C	1.287452	-0.419790	0.434836
C44	C	0.977710	-0.453200	0.670062
C45	C	0.963434	-0.467457	0.770329
C46	C	1.011316	-0.226042	0.434805
C47	C	1.011361	-0.143498	0.434820
C48	C	1.044624	-0.386362	0.200394
C49	C	1.059043	-0.371896	0.100128
C50	C	1.113271	-0.317713	1.053045
C51	C	1.126689	-0.304319	0.958839
C52	C	1.085876	-0.345102	0.911707
C53	C	1.031644	-0.399282	0.958790
C54	C	1.018229	-0.412682	1.053005
C55	C	0.990833	-0.440071	0.911667
C56	C	0.936601	-0.494251	0.958750
C57	C	0.923188	-0.507648	1.052956
C58	C	0.964001	-0.466865	1.100088
C59	C	1.004248	-0.426671	0.817452
C60	C	0.909206	-0.521640	0.817412
C61	C	0.895788	-0.535034	0.911618
H62	H	0.470949	-0.538899	0.393830
O63	O	0.585531	-0.432491	0.269334
C64	C	0.533534	-0.436274	0.210854
H65	H	0.476426	-0.456906	0.251892
H66	H	0.553996	-0.476922	0.163021
H67	H	0.528134	-0.378056	0.170360
O68	O	1.141007	-0.875023	0.479166
C69	C	1.202376	-0.892300	0.416482
H70	H	1.185174	-0.939948	0.382982
H71	H	1.251385	-0.910420	0.452656
H72	H	1.220192	-0.840505	0.363121
H73	H	0.552196	-0.300548	0.475716
H74	H	0.903745	-0.888864	0.545849
H75	H	0.953079	-0.477767	1.176798
H76	H	0.892050	-0.960107	0.393986
O77	O	0.998446	-0.845477	0.269298
C78	C	1.059565	-0.862176	0.205894
H79	H	1.108544	-0.881360	0.241643
H80	H	1.077613	-0.809786	0.153570
H81	H	1.041962	-0.908882	0.171200
H82	H	1.118744	-0.949692	0.323575
O83	O	1.056831	-0.373987	0.771625
C84	C	1.022331	-0.318252	0.717153
H85	H	0.968051	-0.342427	0.703013
H86	H	1.062019	-0.298875	0.650917
H87	H	1.009026	-0.268386	0.753479
H88	H	0.541970	-0.527248	0.545925
O89	O	0.870563	-0.560373	1.098589
C90	C	0.890043	-0.631118	1.075565
H91	H	0.928332	-0.622928	1.007171
H92	H	0.836889	-0.663949	1.072315
H93	H	0.920658	-0.663682	1.128591
H94	H	1.023013	-0.987306	0.586734
H95	H	0.481018	-0.312239	0.323812
O96	O	1.179368	-0.251640	0.913245
C97	C	1.212526	-0.218529	0.975042
H98	H	1.172547	-0.225501	1.042191
H99	H	1.224358	-0.156148	0.947836
H100	H	1.267484	-0.247161	0.985071
O101	O	1.098975	-0.331972	0.820196
C102	C	1.155605	-0.275419	0.788745
H103	H	1.158304	-0.239757	0.843050
H104	H	1.142186	-0.238267	0.725721
H105	H	1.212117	-0.302501	0.772032
H106	H	1.146499	-0.284517	1.091428
O107	O	0.843163	-0.587756	0.957260
C108	C	0.862637	-0.658506	0.934249
H109	H	0.900921	-0.650326	0.865852
H110	H	0.809480	-0.691338	0.931012
H111	H	0.893256	-0.691064	0.987276
H112	H	0.443701	-0.407964	0.586821
H113	H	0.875974	-0.554850	0.779037
