data_functionalizedCrystal
_audit_creation_method	'MofGen! by Chris Wilmer'
_symmetry_space_group_name_H-M	'P1'
_symmetry_Int_Tables_number	1
_symmetry_cell_setting	triclinic
loop_
_symmetry_equiv_pos_as_xyz
  x,y,z
_cell_length_a	21.295417
_cell_length_b	21.295418
_cell_length_c	21.295411
_cell_angle_alpha	89.956262
_cell_angle_beta	90.021644
_cell_angle_gamma	89.953681
loop_
_atom_site_label
_atom_site_type_symbol
_atom_site_fract_x
_atom_site_fract_y
_atom_site_fract_z
Zn1	Zn	-0.250415	-0.962356	0.356234
Zn2	Zn	0.249585	-0.462356	0.856234
Zn3	Zn	-0.355667	-0.962258	0.250959
Zn4	Zn	0.144333	-0.462258	0.750959
Zn5	Zn	-0.250445	-0.857079	0.250943
Zn6	Zn	0.249555	-0.357079	0.750943
Zn7	Zn	-0.355680	-0.857048	0.356155
Zn8	Zn	0.144320	-0.357048	0.856155
O9	O	-0.303052	-0.909685	0.303573
O10	O	0.196948	-0.409685	0.803573
O11	O	-0.264360	-1.050432	0.342308
O12	O	0.235640	-0.550432	0.842308
O13	O	-0.341716	-0.948278	0.162867
O14	O	0.158284	-0.448278	0.662867
O15	O	-0.162351	-0.871098	0.264937
O16	O	0.337649	-0.371098	0.764937
O17	O	-0.341688	-1.050361	0.264963
O18	O	0.158312	-0.550361	0.764963
O19	O	-0.162330	-0.948444	0.342293
O20	O	0.337670	-0.448444	0.842293
O21	O	-0.264410	-0.871003	0.162856
O22	O	0.235590	-0.371003	0.662856
O23	O	-0.264422	-0.768985	0.264861
O24	O	0.235578	-0.268985	0.764861
O25	O	-0.341709	-0.871046	0.444255
O26	O	0.158291	-0.371046	0.944255
O27	O	-0.341738	-0.768963	0.342160
O28	O	0.158262	-0.268963	0.842160
O29	O	-0.264372	-0.948415	0.444313
O30	O	0.235628	-0.448415	0.944313
O31	O	-0.443758	-0.948248	0.264887
O32	O	0.056242	-0.448248	0.764887
O33	O	-0.443767	-0.870951	0.342175
O34	O	0.056233	-0.370951	0.842175
C35	C	-0.303085	-0.746134	0.303500
C36	C	0.196915	-0.246134	0.803500
C37	C	-0.303114	-0.676166	0.303484
C38	C	0.196886	-0.176166	0.803484
C39	C	-0.466603	-0.909603	0.303538
C40	C	0.033397	-0.409603	0.803538
C41	C	-0.536571	-0.909625	0.303544
C42	C	-0.036571	-0.409625	0.803544
C43	C	-0.303038	-0.909738	0.467763
C44	C	0.196962	-0.409738	0.967763
C45	C	-0.303033	-0.909760	0.537731
C46	C	0.196967	-0.409760	1.037731
C47	C	-0.569412	-0.949910	0.263342
C48	C	-0.069412	-0.449910	0.763342
C49	C	-0.635155	-0.949939	0.263356
C50	C	-0.135155	-0.449939	0.763356
C51	C	-0.668054	-0.909673	0.303566
C52	C	-0.168054	-0.409673	0.803566
C53	C	-0.635205	-0.869386	0.343776
C54	C	-0.135205	-0.369386	0.843776
C55	C	-0.569464	-0.869362	0.343765
C56	C	-0.069464	-0.369362	0.843765
N57	N	-0.771336	-0.854606	0.308340
N58	N	-0.271336	-0.354606	0.808340
N59	N	-0.833787	-0.854630	0.308347
N60	N	-0.333787	-0.354630	0.808347
C61	C	-0.866129	-0.909743	0.303602
C62	C	-0.366129	-0.409743	0.803602
N63	N	-0.833659	-0.964832	0.298838
N64	N	-0.333659	-0.464832	0.798838
N65	N	-0.771202	-0.964807	0.298828
N66	N	-0.271202	-0.464807	0.798828
C67	C	-0.739339	-0.909695	0.303582
C68	C	-0.239339	-0.409695	0.803582
C69	C	-0.970255	-0.950063	0.263413
C70	C	-0.470255	-0.450063	0.763413
C71	C	-1.035999	-0.950094	0.263431
C72	C	-0.535999	-0.450094	0.763431
C73	C	-1.036048	-0.869535	0.343848
C74	C	-0.536048	-0.369535	0.843848
C75	C	-0.970305	-0.869510	0.343833
C76	C	-0.470305	-0.369510	0.843833
C77	C	-0.937413	-0.909773	0.303612
C78	C	-0.437413	-0.409773	0.803612
C79	C	-0.138861	-0.909785	0.303622
C80	C	0.361139	-0.409785	0.803622
C81	C	-0.068893	-0.909828	0.303642
C82	C	0.431107	-0.409828	0.803642
C83	C	-0.303019	-1.073876	0.303646
C84	C	0.196981	-0.573876	0.803646
C85	C	-0.303005	-1.143844	0.303677
C86	C	0.196995	-0.643844	0.803677
C87	C	-0.343426	-0.643304	0.343674
C88	C	0.156574	-0.143304	0.843674
C89	C	-0.343410	-0.577561	0.343702
C90	C	0.156590	-0.077561	0.843702
C91	C	-0.303090	-0.544683	0.303530
C92	C	0.196910	-0.044683	0.803530
C93	C	-0.262770	-0.577553	0.263337
C94	C	0.237230	-0.077553	0.763337
C95	C	-0.262783	-0.643294	0.263315
C96	C	0.237217	-0.143294	0.763315
N97	N	-0.298163	-0.441407	0.248472
N98	N	0.201837	0.058593	0.748472
N99	N	-0.298155	-0.378956	0.248495
N100	N	0.201845	0.121044	0.748495
C101	C	-0.303050	-0.346608	0.303596
C102	C	0.196950	0.153392	0.803596
N103	N	-0.307965	-0.379072	0.358675
N104	N	0.192035	0.120928	0.858675
N105	N	-0.307976	-0.441529	0.358650
N106	N	0.192024	0.058471	0.858650
C107	C	-0.303072	-0.473398	0.303550
C108	C	0.196928	0.026602	0.803550
C109	C	-0.343346	-0.242461	0.343820
C110	C	0.156654	0.257539	0.843820
C111	C	-0.343326	-0.176717	0.343849
C112	C	0.156674	0.323283	0.843849
C113	C	-0.262690	-0.176710	0.263479
C114	C	0.237310	0.323290	0.763479
C115	C	-0.262707	-0.242453	0.263455
C116	C	0.237293	0.257547	0.763455
C117	C	-0.303038	-0.275324	0.303625
C118	C	0.196962	0.224676	0.803625
C119	C	-0.303019	-0.909670	0.140021
C120	C	0.196981	-0.409670	0.640021
C121	C	-0.302848	-0.909769	0.070054
C122	C	0.197152	-0.409769	0.570054
C123	C	-0.262761	-0.950044	0.570629
C124	C	0.237239	-0.450044	1.070629
C125	C	-0.262734	-0.950043	0.636371
C126	C	0.237266	-0.450043	1.136371
C127	C	-0.302989	-0.909765	0.669214
C128	C	0.197011	-0.409765	1.169214
C129	C	-0.343263	-0.869473	0.636308
C130	C	0.156737	-0.369473	1.136308
C131	C	-0.343285	-0.869470	0.570567
C132	C	0.156715	-0.369470	1.070567
N133	N	-0.358058	-0.904908	0.772428
N134	N	0.141942	-0.404908	1.272428
N135	N	-0.358036	-0.904914	0.834879
N136	N	0.141964	-0.404914	1.334879
C137	C	-0.302926	-0.909769	0.867289
C138	C	0.197074	-0.409769	1.367289
N139	N	-0.247837	-0.914629	0.834888
N140	N	0.252163	-0.414629	1.334888
N141	N	-0.247860	-0.914627	0.772430
N142	N	0.252140	-0.414627	1.272430
C143	C	-0.302970	-0.909763	0.740499
C144	C	0.197030	-0.409763	1.240499
C145	C	-0.262621	-0.950054	0.971472
C146	C	0.237379	-0.450054	1.471472
C147	C	-0.262593	-0.950049	1.037216
C148	C	0.237407	-0.450049	1.537216
C149	C	-0.343128	-0.869482	1.037151
C150	C	0.156872	-0.369482	1.537151
C151	C	-0.343151	-0.869484	0.971409
C152	C	0.156849	-0.369484	1.471409
C153	C	-0.302898	-0.909773	0.938573
C154	C	0.197102	-0.409773	1.438573
H155	H	-0.542633	-0.982696	0.230593
H156	H	-0.042633	-0.482696	0.730593
C157	C	-0.576117	-0.789736	0.423254
C158	C	-0.076117	-0.289736	0.923254
C159	C	-0.533361	-0.825074	0.387955
C160	C	-0.033361	-0.325074	0.887955
H161	H	-0.553826	-0.762392	0.450532
H162	H	-0.053826	-0.262392	0.950532
H163	H	-0.601709	-0.817161	0.447372
H164	H	-0.101709	-0.317161	0.947372
H165	H	-0.601805	-0.765682	0.395797
H166	H	-0.101805	-0.265682	0.895797
H167	H	-0.507676	-0.849132	0.415413
H168	H	-0.007676	-0.349132	0.915413
H169	H	-0.507758	-0.797646	0.363835
H170	H	-0.007758	-0.297646	0.863835
C171	C	-0.373807	-0.762873	1.057318
C172	C	0.126193	-0.262873	1.557318
C173	C	-0.387376	-0.825207	1.073249
C174	C	0.112624	-0.325207	1.573249
H175	H	-0.401121	-0.735540	1.079609
H176	H	0.098879	-0.235540	1.579609
H177	H	-0.379590	-0.757109	1.013462
H178	H	0.120410	-0.257109	1.513462
H179	H	-0.331508	-0.753695	1.068088
H180	H	0.168492	-0.253695	1.568088
H181	H	-0.429674	-0.834387	1.062474
H182	H	0.070326	-0.334387	1.562474
H183	H	-0.381598	-0.830975	1.117114
H184	H	0.118402	-0.330975	1.617114
H185	H	-0.229940	-0.550779	0.230630
H186	H	0.270060	-0.050779	0.730630
H187	H	-0.375948	-0.836683	0.944623
H188	H	0.124052	-0.336683	1.444623
C189	C	-0.896223	-1.034712	0.254757
C190	C	-0.396223	-0.534712	0.754757
C191	C	-0.934095	-0.994324	0.219209
C192	C	-0.434095	-0.494324	0.719209
H193	H	-0.873899	-1.062034	0.227466
H194	H	-0.373899	-0.562034	0.727466
H195	H	-0.921824	-1.058786	0.282214
H196	H	-0.421824	-0.558786	0.782214
H197	H	-0.867254	-1.010706	0.278693
H198	H	-0.367254	-0.510706	0.778693
H199	H	-0.963066	-1.018331	0.195277
H200	H	-0.463066	-0.518331	0.695277
H201	H	-0.908491	-0.970249	0.191741
H202	H	-0.408491	-0.470249	0.691741
H203	H	-0.229954	-0.670050	0.230588
H204	H	0.270046	-0.170050	0.730588
C205	C	-0.628510	-1.029552	0.183853
C206	C	-0.128510	-0.529552	0.683853
C207	C	-0.671264	-0.994218	0.219158
C208	C	-0.171264	-0.494218	0.719158
H209	H	-0.650802	-1.056884	0.156564
H210	H	-0.150802	-0.556884	0.656564
H211	H	-0.602829	-1.053614	0.211301
H212	H	-0.102829	-0.553614	0.711301
H213	H	-0.602910	-1.002120	0.159741
H214	H	-0.102910	-0.502120	0.659741
H215	H	-0.696861	-1.021650	0.243274
H216	H	-0.196861	-0.521650	0.743274
H217	H	-0.696955	-0.970155	0.191706
H218	H	-0.196955	-0.470155	0.691706
C219	C	-0.423042	-0.235867	0.423272
C220	C	0.076958	0.264133	0.923272
C221	C	-0.387668	-0.278598	0.387982
C222	C	0.112332	0.221402	0.887982
H223	H	-0.450400	-0.258177	0.450538
H224	H	0.049600	0.241823	0.950538
H225	H	-0.447077	-0.210172	0.395813
H226	H	0.052923	0.289828	0.895813
H227	H	-0.395636	-0.210279	0.447407
H228	H	0.104364	0.289721	0.947407
H229	H	-0.415074	-0.304184	0.363843
H230	H	0.084926	0.195816	0.863843
H231	H	-0.363632	-0.304304	0.415444
H232	H	0.136368	0.195696	0.915444
H233	H	-0.376236	-0.550800	0.376431
H234	H	0.123764	-0.050800	0.876431
C235	C	-0.736004	-0.833647	0.379491
C236	C	-0.236004	-0.333647	0.879491
C237	C	-0.671365	-0.825122	0.387974
C238	C	-0.171365	-0.325122	0.887974
H239	H	-0.758326	-0.806318	0.406777
H240	H	-0.258326	-0.306318	0.906777
H241	H	-0.746722	-0.875936	0.388759
H242	H	-0.246722	-0.375936	0.888759
H243	H	-0.746804	-0.824457	0.337184
H244	H	-0.246804	-0.324457	0.837184
H245	H	-0.660565	-0.834316	0.430280
H246	H	-0.160565	-0.334316	0.930280
H247	H	-0.660644	-0.782823	0.378710
H248	H	-0.160644	-0.282823	0.878710
H249	H	-1.062737	-0.982902	0.230695
H250	H	-0.562737	-0.482902	0.730695
H251	H	-0.229842	-0.982857	0.944736
H252	H	0.270158	-0.482857	1.444736
C253	C	-0.178090	-0.958817	0.496734
C254	C	0.321910	-0.458817	0.996734
C255	C	-0.218493	-0.994313	0.534545
C256	C	0.281507	-0.494313	1.034545
H257	H	-0.150758	-0.986145	0.474457
H258	H	0.349242	-0.486145	0.974457
H259	H	-0.154029	-0.931404	0.522370
H260	H	0.345971	-0.431404	1.022370
H261	H	-0.202086	-0.934838	0.467724
H262	H	0.297914	-0.434838	0.967724
H263	H	-0.194498	-1.018290	0.563559
H264	H	0.305502	-0.518290	1.063559
H265	H	-0.242557	-1.021738	0.508906
H266	H	0.257443	-0.521738	1.008906
C267	C	-1.136842	-0.833803	0.379572
C268	C	-0.636842	-0.333803	0.879572
C269	C	-1.072203	-0.825274	0.388050
C270	C	-0.572203	-0.325274	0.888050
H271	H	-1.159163	-0.806476	0.406861
H272	H	-0.659163	-0.306476	0.906861
H273	H	-1.147556	-0.876093	0.388840
H274	H	-0.647556	-0.376093	0.888840
H275	H	-1.147645	-0.824612	0.337266
H276	H	-0.647645	-0.324612	0.837266
H277	H	-1.061399	-0.834469	0.430355
H278	H	-0.561399	-0.334469	0.930355
H279	H	-1.061485	-0.782974	0.378787
H280	H	-0.561485	-0.282974	0.878787
H281	H	-0.943564	-0.836704	0.376567
H282	H	-0.443564	-0.336704	0.876567
C283	C	-0.423129	-0.636702	0.423117
C284	C	0.076871	-0.136702	0.923117
C285	C	-0.387752	-0.679435	0.387834
C286	C	0.112248	-0.179435	0.887834
H287	H	-0.450490	-0.659010	0.450383
H288	H	0.049510	-0.159010	0.950383
H289	H	-0.447162	-0.611009	0.395654
H290	H	0.052838	-0.111009	0.895654
H291	H	-0.395727	-0.611112	0.447253
H292	H	0.104273	-0.111112	0.947253
H293	H	-0.415154	-0.705022	0.363694
H294	H	0.084846	-0.205022	0.863694
H295	H	-0.363717	-0.705138	0.415301
H296	H	0.136283	-0.205138	0.915301
C297	C	-0.178035	-0.316458	0.254838
C298	C	0.321965	0.183542	0.754838
C299	C	-0.218400	-0.278579	0.219272
C300	C	0.281600	0.221421	0.719272
H301	H	-0.150678	-0.338757	0.227559
H302	H	0.349322	0.161243	0.727559
H303	H	-0.202052	-0.345442	0.278753
H304	H	0.297948	0.154558	0.778753
H305	H	-0.153993	-0.290859	0.282315
H306	H	0.346007	0.209141	0.782315
H307	H	-0.242446	-0.304178	0.191798
H308	H	0.257554	0.195822	0.691798
H309	H	-0.194381	-0.249591	0.195346
H310	H	0.305619	0.250409	0.695346
H311	H	-0.229937	-0.982846	0.663162
H312	H	0.270063	-0.482846	1.163162
C313	C	-0.352190	-0.102880	0.428540
C314	C	0.147810	0.397120	0.928540
C315	C	-0.387640	-0.140595	0.388031
C316	C	0.112360	0.359405	0.888031
H317	H	-0.379550	-0.080583	0.455819
H318	H	0.120450	0.419417	0.955819
H319	H	-0.328178	-0.073894	0.404623
H320	H	0.171822	0.426106	0.904623
H321	H	-0.324809	-0.128590	0.452659
H322	H	0.175191	0.371410	0.952659
H323	H	-0.415018	-0.114885	0.363908
H324	H	0.084982	0.385115	0.863908
H325	H	-0.411663	-0.169585	0.411951
H326	H	0.088337	0.330415	0.911951
C327	C	-0.226897	-0.075934	0.227798
C328	C	0.273103	0.424066	0.727798
C329	C	-0.218388	-0.140578	0.219300
C330	C	0.281612	0.359422	0.719300
H331	H	-0.199552	-0.053627	0.200515
H332	H	0.300448	0.446373	0.700515
H333	H	-0.217724	-0.065211	0.270102
H334	H	0.282276	0.434789	0.770102
H335	H	-0.269185	-0.065124	0.218528
H336	H	0.230815	0.434876	0.718528
H337	H	-0.176101	-0.151390	0.228575
H338	H	0.323899	0.348610	0.728575
H339	H	-0.227556	-0.151306	0.176986
H340	H	0.272444	0.348694	0.676986
H341	H	-0.376038	-0.836676	0.663053
H342	H	0.123962	-0.336676	1.163053
C343	C	-0.422891	-0.789838	0.577109
C344	C	0.077109	-0.289838	1.077109
C345	C	-0.387562	-0.825193	0.534402
C346	C	0.112438	-0.325193	1.034402
H347	H	-0.450230	-0.762508	0.554779
H348	H	0.049770	-0.262508	1.054779
H349	H	-0.395461	-0.765773	0.602728
H350	H	0.104539	-0.265773	1.102728
H351	H	-0.446952	-0.817257	0.602774
H352	H	0.053048	-0.317257	1.102774
H353	H	-0.363498	-0.797775	0.508739
H354	H	0.136502	-0.297775	1.008739
H355	H	-0.414995	-0.849260	0.508772
H356	H	0.085005	-0.349260	1.008772
H357	H	-0.229795	-0.982852	1.064000
H358	H	0.270205	-0.482852	1.564000
