data_functionalizedCrystal
_audit_creation_method	'MofGen! by Chris Wilmer'
_symmetry_space_group_name_H-M	'P1'
_symmetry_Int_Tables_number	1
_symmetry_cell_setting	triclinic
loop_
_symmetry_equiv_pos_as_xyz
  x,y,z
_cell_length_a	15.712078
_cell_length_b	18.266242
_cell_length_c	19.188929
_cell_angle_alpha	90.026921
_cell_angle_beta	101.362960
_cell_angle_gamma	90.017389
loop_
_atom_site_label
_atom_site_type_symbol
_atom_site_fract_x
_atom_site_fract_y
_atom_site_fract_z
O1	O	1.145459	0.061208	0.382504
O2	O	0.894004	0.061150	0.329405
O3	O	1.026988	0.061136	0.256170
O4	O	1.012475	0.061223	0.455740
O5	O	1.026965	-0.060626	0.256161
O6	O	0.893981	-0.060612	0.329397
O7	O	1.145436	-0.060554	0.382496
Zn8	Zn	1.019705	-0.079915	0.355945
Zn9	Zn	1.019735	0.080512	0.355956
O10	O	1.012452	-0.060539	0.455731
C11	C	0.861822	0.000261	0.320726
C12	C	0.765965	0.000237	0.294871
N13	N	1.019691	-0.189402	0.355938
C14	C	0.398039	0.000383	0.514393
C15	C	0.307969	0.000390	0.490082
C16	C	0.329045	0.000339	0.368262
C17	C	0.419119	0.000335	0.392564
C18	C	0.453608	0.000356	0.465630
C19	C	0.474688	0.000308	0.343801
C20	C	0.564754	0.000300	0.368100
C21	C	0.599250	0.000319	0.441163
C22	C	0.543673	0.000348	0.489930
C23	C	0.440197	0.000282	0.270735
C24	C	0.495767	0.000255	0.221971
C25	C	0.585834	0.000252	0.246271
C26	C	0.620330	0.000271	0.319334
C27	C	0.641410	0.000223	0.197505
C28	C	0.731476	0.000215	0.221804
C29	C	0.710396	0.000263	0.343634
C30	C	1.071895	-0.227673	0.411643
C31	C	1.071910	-0.304318	0.411645
C32	C	1.019704	-0.342689	0.355945
C33	C	0.967496	-0.304409	0.300231
C34	C	0.967490	-0.227765	0.300227
N35	N	0.944076	-0.463061	0.334726
N36	N	0.944085	-0.535869	0.334734
C37	C	1.019721	-0.573611	0.355952
N38	N	1.095349	-0.535795	0.377176
N39	N	1.095340	-0.462980	0.377171
C40	C	1.019705	-0.425796	0.355943
C41	C	1.071945	-0.694989	0.411663
C42	C	1.071961	-0.771635	0.411660
C43	C	0.967540	-0.771725	0.300248
C44	C	0.967532	-0.695080	0.300248
C45	C	1.019733	-0.656717	0.355960
C46	C	1.177618	0.000337	0.391175
C47	C	1.273475	0.000367	0.417031
C48	C	1.026507	0.000245	0.230034
C49	C	1.025096	0.000214	0.152165
N50	N	1.019756	0.189999	0.355959
C51	C	1.012934	0.000354	0.481867
C52	C	1.014344	0.000389	0.559736
C53	C	0.936314	0.000356	0.584541
C54	C	0.937639	0.000340	0.657706
C55	C	1.017000	0.000342	0.706065
C56	C	1.095041	0.000379	0.681252
C57	C	1.093713	0.000402	0.608088
N58	N	1.077653	-0.041129	0.829670
N59	N	1.078909	-0.041153	0.899173
C60	C	1.021005	0.000272	0.926506
N61	N	0.961784	0.041713	0.881709
N62	N	0.960525	0.041734	0.812200
C63	C	1.018448	0.000317	0.785401
C64	C	0.944406	0.000223	1.030645
C65	C	0.945735	0.000211	1.103812
C66	C	1.103138	0.000243	1.127357
C67	C	1.101807	0.000262	1.054191
C68	C	1.022439	0.000248	1.005838
H69	H	0.672588	0.000310	0.460947
N70	N	1.180637	0.000372	0.733406
H71	H	1.214824	0.045520	0.725860
H72	H	1.169565	0.000320	0.783496
N73	N	0.853482	0.000282	0.684482
H74	H	0.850522	0.045403	0.714353
H75	H	0.803043	0.000246	0.642718
N76	N	1.128214	-0.345602	0.471736
H77	H	1.090481	-0.377398	0.496253
H78	H	1.170593	-0.377358	0.452137
H79	H	0.571756	0.000364	0.549427
H80	H	0.871686	0.000352	0.545176
N81	N	1.128205	-0.186295	0.471723
H82	H	1.161283	-0.222174	0.507011
H83	H	1.170532	-0.154497	0.452104
H84	H	1.157257	0.000430	0.587894
H85	H	0.776722	0.000196	0.182096
N86	N	0.604196	0.000197	0.118703
H87	H	0.624500	0.045322	0.096306
H88	H	0.624459	-0.044983	0.096350
H89	H	0.924991	-0.335656	0.254879
H90	H	1.167755	0.000297	1.166730
H91	H	1.165348	0.000284	1.033995
N92	N	0.911184	-0.186482	0.240141
H93	H	0.878114	-0.222417	0.204853
H94	H	0.868850	-0.154687	0.259753
N95	N	1.128302	-0.812917	0.471728
H96	H	1.161375	-0.776981	0.507013
H97	H	1.090548	-0.844731	0.496204
N98	N	1.128246	-0.653604	0.471746
H99	H	1.161326	-0.689482	0.507034
H100	H	1.170570	-0.621798	0.452132
H101	H	0.925034	-0.802966	0.254895
H102	H	0.879779	0.000208	0.991274
N103	N	0.911223	-0.653797	0.240167
H104	H	0.878152	-0.689732	0.204880
H105	H	0.868891	-0.621999	0.259778
N106	N	0.248029	0.000431	0.542679
H107	H	0.259128	0.045582	0.573542
H108	H	0.185766	0.000408	0.516144
N109	N	0.861569	0.000182	1.130569
H110	H	0.811092	0.000176	1.088834
H111	H	0.858687	-0.044965	1.160382
H112	H	0.738478	0.000279	0.403131
H113	H	0.300952	0.000313	0.308771
N114	N	0.435243	0.000415	0.593201
H115	H	0.414934	-0.044708	0.615599
H116	H	0.500725	0.000433	0.601133
N117	N	0.343055	0.000292	0.244528
H118	H	0.325530	0.045419	0.214764
H119	H	0.325534	-0.044885	0.214785
N120	N	0.458565	0.000223	0.143167
H121	H	0.393077	0.000229	0.135171
H122	H	0.478937	0.045349	0.120822
