data_functionalizedCrystal
_audit_creation_method	'MofGen! by Chris Wilmer'
_symmetry_space_group_name_H-M	'P1'
_symmetry_Int_Tables_number	1
_symmetry_cell_setting	triclinic
loop_
_symmetry_equiv_pos_as_xyz
  x,y,z
_cell_length_a	14.908571
_cell_length_b	16.625546
_cell_length_c	14.908308
_cell_angle_alpha	86.735930
_cell_angle_beta	89.824947
_cell_angle_gamma	86.718495
loop_
_atom_site_label
_atom_site_type_symbol
_atom_site_fract_x
_atom_site_fract_y
_atom_site_fract_z
Zn1	Zn	1.345280	-0.420778	0.587557
Zn2	Zn	1.678613	-0.087444	0.920890
Zn3	Zn	2.011947	0.245889	1.254223
Zn4	Zn	1.353856	-0.548312	0.437189
Zn5	Zn	1.687189	-0.214979	0.770523
Zn6	Zn	2.020523	0.118354	1.103856
Zn7	Zn	1.203596	-0.405291	0.428555
Zn8	Zn	1.536929	-0.071957	0.761889
Zn9	Zn	1.870263	0.261376	1.095222
Zn10	Zn	1.194884	-0.547354	0.578841
Zn11	Zn	1.528217	-0.214021	0.912174
Zn12	Zn	1.861550	0.119312	1.245508
O13	O	1.274404	-0.480434	0.508036
O14	O	1.607737	-0.147100	0.841369
O15	O	1.941071	0.186233	1.174702
O16	O	1.472243	-0.444578	0.574871
O17	O	1.805577	-0.111244	0.908204
O18	O	2.138910	0.222089	1.241538
O19	O	1.341159	-0.523260	0.310220
O20	O	1.674492	-0.189926	0.643553
O21	O	2.007825	0.143407	0.976886
O22	O	1.222448	-0.294517	0.449681
O23	O	1.555781	0.038816	0.783015
O24	O	1.889115	0.372149	1.116348
O25	O	1.478544	-0.538277	0.464397
O26	O	1.811877	-0.204943	0.797730
O27	O	2.145211	0.128390	1.131063
O28	O	1.326543	-0.305896	0.566499
O29	O	1.659876	0.027438	0.899832
O30	O	1.993209	0.360771	1.233166
O31	O	1.230763	-0.418182	0.303876
O32	O	1.564097	-0.084849	0.637210
O33	O	1.897430	0.248484	0.970543
O34	O	1.076615	-0.417254	0.441230
O35	O	1.409948	-0.083920	0.774564
O36	O	1.743281	0.249413	1.107897
O37	O	1.207599	-0.536644	0.705821
O38	O	1.540932	-0.203311	1.039155
O39	O	1.874266	0.130023	1.372488
O40	O	1.070214	-0.521627	0.551644
O41	O	1.403547	-0.188294	0.884978
O42	O	1.736880	0.145040	1.218311
O43	O	1.318095	-0.443649	0.712225
O44	O	1.651428	-0.110316	1.045558
O45	O	1.984761	0.223018	1.378891
O46	O	1.332711	-0.661013	0.455945
O47	O	1.666044	-0.327680	0.789279
O48	O	1.999377	0.005654	1.122612
O49	O	1.215914	-0.660309	0.560016
O50	O	1.549248	-0.326976	0.893350
O51	O	1.882581	0.006358	1.226683
C52	C	1.040789	-0.467656	0.494555
C53	C	1.374122	-0.134323	0.827889
C54	C	1.707455	0.199010	1.161222
C55	C	0.940846	-0.462211	0.488810
C56	C	1.274179	-0.128877	0.822143
C57	C	1.607513	0.204456	1.155476
C58	C	1.274321	-0.689918	0.507993
C59	C	1.607654	-0.356585	0.841326
C60	C	1.940988	-0.023252	1.174660
C61	C	1.274366	-0.779542	0.508010
C62	C	1.607699	-0.446209	0.841343
C63	C	1.941033	-0.112876	1.174676
C64	C	0.746435	-0.560814	0.592833
C65	C	1.079768	-0.227481	0.926166
C66	C	1.413102	0.105853	1.259499
C67	C	0.652530	-0.555700	0.587437
C68	C	0.985863	-0.222367	0.920771
C69	C	1.319196	0.110967	1.254104
C70	C	0.659128	-0.446865	0.472629
C71	C	0.992461	-0.113532	0.805962
C72	C	1.325795	0.219802	1.139295
C73	C	0.753033	-0.451979	0.478024
C74	C	1.086367	-0.118646	0.811357
C75	C	1.419700	0.214688	1.144691
C76	C	0.796683	-0.508956	0.538127
C77	C	1.130017	-0.175623	0.871460
C78	C	1.463350	0.157710	1.204794
C79	C	0.890591	-0.514074	0.543517
C80	C	1.223924	-0.180740	0.876851
C81	C	1.557257	0.152593	1.210184
C82	C	0.897187	-0.405236	0.428714
C83	C	1.230521	-0.071902	0.762047
C84	C	1.563854	0.261431	1.095380
C85	C	0.803282	-0.400121	0.423318
C86	C	1.136615	-0.066788	0.756652
C87	C	1.469949	0.266545	1.089985
C88	C	1.274517	-1.107731	0.508112
C89	C	1.607851	-0.774398	0.841446
C90	C	1.941184	-0.441064	1.174779
C91	C	1.274472	-1.016419	0.508086
C92	C	1.607806	-0.683086	0.841419
C93	C	1.941139	-0.349752	1.174753
C94	C	1.274441	-0.943640	0.508060
C95	C	1.607774	-0.610306	0.841394
C96	C	1.941108	-0.276973	1.174727
C97	C	1.274397	-0.852322	0.508035
C98	C	1.607731	-0.518988	0.841369
C99	C	1.941064	-0.185655	1.174702
C100	C	1.508931	-0.493262	0.521569
C101	C	1.842265	-0.159928	0.854902
C102	C	2.175598	0.173405	1.188236
C103	C	1.608873	-0.498728	0.527336
C104	C	1.942206	-0.165395	0.860670
C105	C	2.275539	0.167939	1.194003
C106	C	1.260918	-0.491767	0.742560
C107	C	1.594252	-0.158434	1.075893
C108	C	1.927585	0.174899	1.409227
C109	C	1.255172	-0.496597	0.842501
C110	C	1.588505	-0.163263	1.175834
C111	C	1.921838	0.170070	1.509167
C112	C	1.274511	-0.270134	0.508099
C113	C	1.607844	0.063200	0.841433
C114	C	1.941177	0.396533	1.174766
C115	C	1.274556	-0.180516	0.508127
C116	C	1.607889	0.152817	0.841460
C117	C	1.941223	0.486150	1.174793
C118	C	1.287889	-0.469089	0.274426
C119	C	1.621222	-0.135756	0.607760
C120	C	1.954555	0.197578	0.941093
C121	C	1.293810	-0.464042	0.174497
C122	C	1.627143	-0.130709	0.507830
C123	C	1.960476	0.202625	0.841163
C124	C	1.359429	-0.408817	1.036969
C125	C	1.692763	-0.075484	1.370302
C126	C	2.026096	0.257849	1.703635
C127	C	1.354033	-0.413353	1.130872
C128	C	1.687366	-0.080019	1.464205
C129	C	2.020699	0.253314	1.797538
C130	C	1.238977	-0.510198	1.124211
C131	C	1.572311	-0.176864	1.457545
C132	C	1.905644	0.156469	1.790878
C133	C	1.244374	-0.505662	1.030308
C134	C	1.577708	-0.172329	1.363642
C135	C	1.911041	0.161004	1.696975
C136	C	1.304603	-0.454971	0.986690
C137	C	1.637936	-0.121638	1.320024
C138	C	1.971270	0.211695	1.653357
C139	C	1.310004	-0.450441	0.892786
C140	C	1.643337	-0.117108	1.226119
C141	C	1.976671	0.216226	1.559452
C142	C	1.194945	-0.547281	0.886127
C143	C	1.528278	-0.213948	1.219460
C144	C	1.861611	0.119385	1.552794
C145	C	1.189548	-0.551817	0.980030
C146	C	1.522881	-0.218483	1.313363
C147	C	1.856215	0.114850	1.646697
H148	H	0.781976	-0.607211	0.641766
H149	H	1.115309	-0.273878	0.975099
H150	H	1.448642	0.059455	1.308433
O151	O	1.424394	-0.354150	0.989923
O152	O	1.757728	-0.020817	1.323257
O153	O	2.091061	0.312516	1.656590
H154	H	1.472584	-0.390678	0.949778
H155	H	1.805918	-0.057345	1.283112
H156	H	2.139251	0.275989	1.616445
H157	H	1.189942	-0.551467	1.159741
H158	H	1.523275	-0.218134	1.493075
H159	H	1.856608	0.115199	1.826408
H160	H	0.611620	-0.597926	0.631986
H161	H	0.944954	-0.264593	0.965319
H162	H	1.278287	0.068740	1.298653
O163	O	0.756210	-0.338669	0.358489
O164	O	1.089543	-0.005336	0.691822
O165	O	1.422877	0.327998	1.025156
H166	H	0.778287	-0.349980	0.288934
H167	H	1.111620	-0.016646	0.622267
H168	H	1.444953	0.316687	0.955601
O169	O	0.951381	-0.349294	0.369706
O170	O	1.284715	-0.015961	0.703039
O171	O	1.618048	0.317372	1.036372
H172	H	1.024014	-0.362418	0.383556
H173	H	1.357347	-0.029084	0.716889
H174	H	1.690680	0.304249	1.050223
H175	H	1.140510	-0.593086	1.015557
H176	H	1.473843	-0.259753	1.348890
H177	H	1.807176	0.073581	1.682223
O178	O	0.612044	-0.385440	0.407777
O179	O	0.945377	-0.052107	0.741110
O180	O	1.278711	0.281227	1.074443
H181	H	0.538305	-0.390611	0.413205
H182	H	0.871639	-0.057277	0.746539
H183	H	1.204972	0.276056	1.079872
O184	O	1.135801	-0.597065	0.831900
O185	O	1.469134	-0.263731	1.165234
O186	O	1.802467	0.069602	1.498567
H187	H	1.149666	-0.585394	0.759275
H188	H	1.482999	-0.252060	1.092608
H189	H	1.816333	0.081273	1.425941
H190	H	0.926129	-0.560469	0.592455
H191	H	1.259463	-0.227135	0.925788
H192	H	1.592796	0.106198	1.259122
O193	O	1.374959	-0.395769	0.845734
O194	O	1.708292	-0.062435	1.179067
O195	O	2.041626	0.270898	1.512401
H196	H	1.412169	-0.364431	0.896475
H197	H	1.745502	-0.031098	1.229809
H198	H	2.078836	0.302236	1.563142
H199	H	1.398676	-0.375767	1.171805
H200	H	1.732009	-0.042433	1.505138
H201	H	2.065342	0.290900	1.838472
