data_functionalizedCrystal
_audit_creation_method	'MofGen! by Chris Wilmer'
_symmetry_space_group_name_H-M	'P1'
_symmetry_Int_Tables_number	1
_symmetry_cell_setting	triclinic
loop_
_symmetry_equiv_pos_as_xyz
  x,y,z
_cell_length_a	27.732048
_cell_length_b	14.971486
_cell_length_c	13.448316
_cell_angle_alpha	89.996717
_cell_angle_beta	89.991399
_cell_angle_gamma	83.128392
loop_
_atom_site_label
_atom_site_type_symbol
_atom_site_fract_x
_atom_site_fract_y
_atom_site_fract_z
O1	O	0.062989	1.185950	-0.082662
O2	O	0.070532	0.925431	-0.082674
O3	O	-0.003599	1.063782	-0.082648
O4	O	0.137120	1.047599	-0.082687
O5	O	-0.003599	1.063768	0.082735
O6	O	0.070532	0.925417	0.082710
O7	O	0.062988	1.185937	0.082722
Cu8	Cu	0.066760	1.055676	0.097817
Cu9	Cu	0.066761	1.055692	-0.097769
O10	O	0.137119	1.047586	0.082697
C11	C	-0.021608	1.063435	0.000046
C12	C	-0.075267	1.062412	0.000054
C13	C	0.070195	0.892105	0.000017
C14	C	0.069184	0.792824	0.000013
C15	C	0.063326	1.219263	0.000029
C16	C	0.064337	1.318544	0.000027
C17	C	-0.413735	1.137729	0.000007
C18	C	-0.615412	1.133934	-0.000007
O19	O	-0.646350	1.202806	-0.000047
N20	N	-0.634914	1.051898	-0.000010
C21	C	-0.603994	0.970804	-0.000016
O22	O	-0.625209	0.900940	-0.000029
C23	C	-0.402318	0.974601	-0.000009
C24	C	-0.382818	1.056642	0.000004
C25	C	-0.394235	1.219764	0.000019
C26	C	-0.343819	1.220712	0.000028
C27	C	-0.312902	1.139625	0.000025
C28	C	-0.332402	1.057590	0.000013
C29	C	-0.371398	0.893508	-0.000022
C30	C	-0.320976	0.894464	-0.000023
C31	C	-0.301477	0.976506	-0.000010
C32	C	-0.251069	0.977451	0.000019
N33	N	-0.231567	1.059487	0.000022
C34	C	-0.262483	1.140574	0.000025
C35	C	-0.709877	0.968817	-0.000018
C36	C	-0.760296	0.967868	-0.000018
C37	C	-0.771710	1.130998	-0.000011
C38	C	-0.721291	1.131946	-0.000004
C39	C	-0.690375	1.050854	-0.000015
C40	C	-0.156605	1.142559	0.000044
C41	C	-0.106184	1.143500	0.000057
C42	C	-0.094773	0.980370	0.000045
C43	C	-0.145190	0.979429	0.000037
C44	C	-0.176105	1.060530	0.000033
O45	O	-0.220103	0.908616	0.000048
O46	O	-0.241258	1.210428	0.000016
C47	C	-0.464151	1.136781	-0.000002
C48	C	-0.483651	1.054746	-0.000014
C49	C	-0.452734	0.973659	-0.000017
C50	C	-0.534070	1.053797	-0.000014
C51	C	-0.564986	1.134884	-0.000011
C52	C	-0.545484	1.216921	-0.000008
C53	C	-0.495067	1.217868	0.000001
C54	C	-0.472237	0.891623	-0.000020
C55	C	-0.522654	0.890682	-0.000028
C56	C	-0.553570	0.971769	-0.000025
C57	C	0.155128	1.047932	-0.000000
C58	C	0.208788	1.048955	-0.000015
N59	N	0.066759	1.055671	0.235381
C60	C	0.020787	1.376457	0.000035
C61	C	0.021740	1.469742	0.000039
C62	C	0.066243	1.505111	0.000026
C63	C	0.109796	1.447190	0.000021
C64	C	0.108843	1.353907	0.000024
C65	C	0.111780	1.641621	0.000010
C66	C	0.112734	1.734910	0.000004
C67	C	0.024677	1.757456	0.000024
C68	C	0.023724	1.664173	0.000028
C69	C	0.067277	1.606258	0.000021
N70	N	0.066758	1.055704	-0.235333
C71	C	0.096125	1.109509	0.287411
C72	C	0.096123	1.109520	0.391515
C73	C	0.066757	1.055688	0.443586
C74	C	0.037388	1.001847	0.391548
C75	C	0.037388	1.001842	0.287447
C76	C	0.037391	1.001861	0.608528
C77	C	0.037392	1.001866	0.712637
C78	C	0.096126	1.109540	0.712596
C79	C	0.096126	1.109534	0.608495
C80	C	0.066757	1.055692	0.556464
H81	H	-0.181771	1.208600	0.000037
O82	O	0.124696	1.161837	0.441902
C83	C	0.182936	1.268664	0.430876
C84	C	0.150607	1.209440	0.373689
H85	H	0.203885	1.307181	0.375751
H86	H	0.209622	1.224342	0.479584
H87	H	0.159203	1.318364	0.479641
H88	H	0.174301	1.159733	0.324871
H89	H	0.123917	1.253819	0.325044
O90	O	0.008807	0.949694	0.557942
C91	C	-0.056446	0.945423	0.440387
C92	C	-0.024118	1.004611	0.497631
H93	H	-0.083067	0.989797	0.391596
H94	H	-0.077469	0.906966	0.495440
H95	H	-0.032706	0.895673	0.391692
H96	H	-0.047822	1.054411	0.546327
H97	H	-0.003092	1.043004	0.442524
H98	H	0.013476	0.958020	0.433953
H99	H	0.148972	1.763704	0.000013
H100	H	-0.796891	1.197022	-0.000008
H101	H	-0.387265	0.826701	-0.000039
O102	O	-0.541615	0.811003	0.000134
C103	C	-0.591942	0.715252	0.085744
C104	C	-0.570494	0.805505	0.085709
H105	H	-0.615303	0.710785	0.154913
H106	H	-0.561200	0.657428	0.085803
H107	H	-0.615231	0.710753	0.016491
H108	H	-0.547210	0.810092	0.154951
H109	H	-0.601259	0.863286	0.085598
O110	O	0.153040	1.481500	0.000185
C111	C	0.228605	1.490720	0.085811
C112	C	0.179643	1.451825	0.085765
H113	H	0.250133	1.466727	0.154985
H114	H	0.221837	1.567343	0.085870
H115	H	0.250109	1.466832	0.016562
H116	H	0.158115	1.475645	0.155002
H117	H	0.186446	1.375206	0.085654
H118	H	0.120041	1.153376	0.754964
H119	H	0.120040	1.153365	0.566101
O120	O	-0.291014	0.815606	0.000010
C121	C	-0.285018	0.653705	-0.000074
C122	C	-0.319004	0.742943	-0.000091
H123	H	-0.307634	0.594933	-0.000177
H124	H	-0.261143	0.649994	0.069157
H125	H	-0.261112	0.650128	-0.069269
H126	H	-0.342941	0.746579	0.069057
H127	H	-0.342846	0.746616	-0.069368
H128	H	0.013481	0.958029	0.755030
H129	H	-0.447069	0.825590	-0.000025
O130	O	0.008919	0.949405	0.236946
C131	C	-0.010115	0.799143	0.205165
C132	C	0.022170	0.858417	0.262399
H133	H	0.000579	0.725570	0.225738
H134	H	-0.005069	0.808308	0.121806
H135	H	-0.049786	0.819686	0.225634
H136	H	0.061852	0.837912	0.242013
H137	H	0.017082	0.849246	0.345744
H138	H	-0.327947	1.287519	0.000034
O139	O	-0.087323	1.223278	0.000022
C140	C	-0.103975	1.384979	0.000086
C141	C	-0.125397	1.294699	0.000105
H142	H	-0.134748	1.442747	0.000174
H143	H	-0.080667	1.389570	-0.069140
H144	H	-0.080647	1.389451	0.069286
H145	H	-0.148747	1.290166	-0.069048
H146	H	-0.148678	1.290146	0.069376
H147	H	0.147246	1.594469	0.000011
O148	O	-0.020579	1.525959	-0.000132
C149	C	-0.095561	1.573731	-0.085768
C150	C	-0.047646	1.510031	-0.085713
H151	H	-0.117462	1.560863	-0.154942
H152	H	-0.087268	1.646498	-0.085830
H153	H	-0.117440	1.560947	-0.016520
H154	H	-0.025743	1.522734	-0.154949
H155	H	-0.055972	1.437286	-0.085598
H156	H	-0.570665	1.282944	-0.000001
O157	O	-0.424194	1.298621	0.000069
C158	C	-0.430177	1.460522	0.000036
C159	C	-0.396198	1.371276	-0.000009
H160	H	-0.407556	1.519286	-0.000048
H161	H	-0.454061	1.464216	0.069268
H162	H	-0.454075	1.464128	-0.069158
H163	H	-0.372270	1.367610	0.069138
H164	H	-0.372347	1.367619	-0.069287
H165	H	0.144306	1.306754	0.000021
O166	O	-0.017646	1.813670	-0.000138
C167	C	-0.092628	1.861446	-0.085773
C168	C	-0.044713	1.797744	-0.085719
H169	H	-0.114530	1.848579	-0.154947
H170	H	-0.084334	1.934212	-0.085836
H171	H	-0.114507	1.848663	-0.016525
H172	H	-0.022810	1.810446	-0.154955
H173	H	-0.053041	1.724999	-0.085605
O174	O	-0.702374	1.211663	-0.000177
C175	C	-0.696734	1.351410	-0.085825
C176	C	-0.718177	1.261151	-0.085760
H177	H	-0.709511	1.391455	-0.155001
H178	H	-0.655386	1.338223	-0.085894
H179	H	-0.709459	1.391402	-0.016578
H180	H	-0.705489	1.221114	-0.154995
H181	H	-0.759523	1.274402	-0.085640
H182	H	-0.776167	0.901062	-0.000011
H183	H	-0.684709	0.902778	-0.000027
H184	H	-0.012515	1.635379	0.000031
H185	H	-0.069592	0.914351	0.000046
O186	O	-0.164194	0.899794	-0.000099
C187	C	-0.214456	0.804036	-0.085837
C188	C	-0.192980	0.894262	-0.085783
H189	H	-0.237726	0.799526	-0.155115
H190	H	-0.237817	0.799493	-0.016680
H191	H	-0.183689	0.746257	-0.085784
H192	H	-0.223715	0.952093	-0.085870
H193	H	-0.169606	0.898726	-0.154934
H194	H	-0.479196	1.284675	0.000011
H195	H	0.120040	1.153340	0.245023
H196	H	-0.015453	1.347668	0.000039
