data_functionalizedCrystal
_audit_creation_method	'MofGen! by Chris Wilmer'
_symmetry_space_group_name_H-M	'P1'
_symmetry_Int_Tables_number	1
_symmetry_cell_setting	triclinic
loop_
_symmetry_equiv_pos_as_xyz
  x,y,z
_cell_length_a	19.805407
_cell_length_b	19.805405
_cell_length_c	19.805399
_cell_angle_alpha	89.969291
_cell_angle_beta	89.978486
_cell_angle_gamma	90.025657
loop_
_atom_site_label
_atom_site_type_symbol
_atom_site_fract_x
_atom_site_fract_y
_atom_site_fract_z
Zn1	Zn	1.034718	-0.269483	-0.382795
Zn2	Zn	1.368051	0.063850	-0.049462
Zn3	Zn	1.701384	0.397184	0.283872
Zn4	Zn	1.034638	-0.382674	-0.269603
Zn5	Zn	1.367971	-0.049341	0.063730
Zn6	Zn	1.701305	0.283992	0.397063
Zn7	Zn	0.921538	-0.269503	-0.269611
Zn8	Zn	1.254871	0.063830	0.063723
Zn9	Zn	1.588204	0.397164	0.397056
Zn10	Zn	0.921496	-0.382634	-0.382741
Zn11	Zn	1.254829	-0.049301	-0.049408
Zn12	Zn	1.588163	0.284033	0.283926
O13	O	0.978097	-0.326074	-0.326188
O14	O	1.311431	0.007260	0.007146
O15	O	1.644764	0.340593	0.340479
O16	O	1.129424	-0.284507	-0.367800
O17	O	1.462757	0.048827	-0.034466
O18	O	1.796090	0.382160	0.298867
O19	O	1.019619	-0.367687	-0.174888
O20	O	1.352952	-0.034354	0.158446
O21	O	1.686286	0.298980	0.491779
O22	O	0.936602	-0.174784	-0.284650
O23	O	1.269936	0.158550	0.048683
O24	O	1.603269	0.491883	0.382016
O25	O	1.129365	-0.367668	-0.284638
O26	O	1.462698	-0.034334	0.048695
O27	O	1.796032	0.298999	0.382028
O28	O	1.019755	-0.174769	-0.367807
O29	O	1.353088	0.158564	-0.034473
O30	O	1.686422	0.491898	0.298860
O31	O	0.936525	-0.284541	-0.174893
O32	O	1.269858	0.048793	0.158440
O33	O	1.603191	0.382126	0.491774
O34	O	0.826816	-0.284502	-0.284598
O35	O	1.160149	0.048832	0.048735
O36	O	1.493482	0.382165	0.382069
O37	O	0.936531	-0.367599	-0.477465
O38	O	1.269864	-0.034266	-0.144132
O39	O	1.603198	0.299068	0.189202
O40	O	0.826785	-0.367618	-0.367714
O41	O	1.160118	-0.034285	-0.034381
O42	O	1.493452	0.299048	0.298952
O43	O	1.019715	-0.284468	-0.477505
O44	O	1.353048	0.048866	-0.144171
O45	O	1.686381	0.382199	0.189162
O46	O	1.019578	-0.477385	-0.284586
O47	O	1.352912	-0.144052	0.048748
O48	O	1.686245	0.189281	0.382081
O49	O	0.936454	-0.477356	-0.367708
O50	O	1.269787	-0.144023	-0.034374
O51	O	1.603120	0.189311	0.298959
C52	C	0.802241	-0.326058	-0.326151
C53	C	1.135575	0.007275	0.007182
C54	C	1.468908	0.340608	0.340515
C55	C	0.727009	-0.326068	-0.326152
C56	C	1.060343	0.007265	0.007181
C57	C	1.393676	0.340599	0.340515
C58	C	0.978021	-0.501930	-0.326155
C59	C	1.311354	-0.168596	0.007179
C60	C	1.644688	0.164737	0.340512
C61	C	0.978051	-0.577162	-0.326163
C62	C	1.311384	-0.243828	0.007170
C63	C	1.644717	0.089505	0.340503
C64	C	0.265220	-0.369434	-0.369442
C65	C	0.598553	-0.036101	-0.036108
C66	C	0.931887	0.297233	0.297225
C67	C	0.335908	-0.369433	-0.369427
C68	C	0.669242	-0.036099	-0.036094
C69	C	1.002575	0.297234	0.297239
C70	C	0.371248	-0.326090	-0.326214
C71	C	0.704581	0.007243	0.007119
C72	C	1.037914	0.340577	0.340453
C73	C	0.335895	-0.282750	-0.283007
C74	C	0.669228	0.050583	0.050326
C75	C	1.002561	0.383916	0.383659
C76	C	0.265207	-0.282755	-0.283019
C77	C	0.598541	0.050578	0.050315
C78	C	0.931874	0.383911	0.383648
C79	C	0.620968	-0.282730	-0.282960
C80	C	0.954301	0.050604	0.050374
C81	C	1.287635	0.383937	0.383707
C82	C	0.691660	-0.282726	-0.282953
C83	C	1.024993	0.050607	0.050380
C84	C	1.358327	0.383940	0.383714
C85	C	0.691669	-0.369407	-0.369368
C86	C	1.025002	-0.036074	-0.036035
C87	C	1.358336	0.297260	0.297298
C88	C	0.620982	-0.369412	-0.369380
C89	C	0.954315	-0.036079	-0.036046
C90	C	1.287648	0.297255	0.297287
C91	C	0.585635	-0.326075	-0.326171
C92	C	0.918968	0.007258	0.007162
C93	C	1.252302	0.340591	0.340496
C94	C	0.508987	-0.326078	-0.326186
C95	C	0.842320	0.007255	0.007147
C96	C	1.175653	0.340589	0.340481
C97	C	0.447895	-0.326083	-0.326202
C98	C	0.781228	0.007250	0.007132
C99	C	1.114561	0.340583	0.340465
C100	C	1.021376	-0.612499	-0.282927
C101	C	1.354709	-0.279165	0.050406
C102	C	1.688042	0.054168	0.383739
C103	C	1.021404	-0.683187	-0.282942
C104	C	1.354738	-0.349854	0.050391
C105	C	1.688071	-0.016520	0.383724
C106	C	0.978104	-0.718537	-0.326190
C107	C	1.311437	-0.385204	0.007143
C108	C	1.644771	-0.051870	0.340476
C109	C	0.934777	-0.683195	-0.369431
C110	C	1.268110	-0.349862	-0.036098
C111	C	1.601444	-0.016528	0.297235
C112	C	0.934752	-0.612508	-0.369419
C113	C	1.268085	-0.279175	-0.036086
C114	C	1.601419	0.054159	0.297247
C115	C	0.934877	-0.968268	-0.369482
C116	C	1.268210	-0.634935	-0.036148
C117	C	1.601543	-0.301602	0.297185
C118	C	0.934904	-1.038960	-0.369489
C119	C	1.268237	-0.705627	-0.036155
C120	C	1.601570	-0.372294	0.297178
C121	C	1.021529	-1.038947	-0.283004
C122	C	1.354862	-0.705614	0.050329
C123	C	1.688196	-0.372281	0.383662
C124	C	1.021504	-0.968260	-0.282992
C125	C	1.354838	-0.634927	0.050341
C126	C	1.688171	-0.301594	0.383674
C127	C	0.978180	-0.932924	-0.326236
C128	C	1.311513	-0.599591	0.007098
C129	C	1.644847	-0.266258	0.340431
C130	C	0.978150	-0.856276	-0.326220
C131	C	1.311484	-0.522943	0.007114
C132	C	1.644817	-0.189609	0.340447
C133	C	0.978130	-0.795184	-0.326203
C134	C	1.311463	-0.461851	0.007130
C135	C	1.644797	-0.128518	0.340463
C136	C	1.154640	-0.326089	-0.326224
C137	C	1.487973	0.007244	0.007109
C138	C	1.821307	0.340577	0.340442
C139	C	1.229872	-0.326096	-0.326240
C140	C	1.563205	0.007237	0.007094
C141	C	1.896539	0.340571	0.340427
C142	C	0.978127	-0.326027	-0.502730
C143	C	1.311460	0.007307	-0.169397
C144	C	1.644794	0.340640	0.163936
C145	C	0.978140	-0.326007	-0.577962
C146	C	1.311473	0.007327	-0.244629
C147	C	1.644806	0.340660	0.088704
C148	C	0.978192	-0.149531	-0.326235
C149	C	1.311526	0.183803	0.007098
C150	C	1.644859	0.517136	0.340431
C151	C	0.978233	-0.074299	-0.326256
C152	C	1.311566	0.259035	0.007078
C153	C	1.644899	0.592368	0.340411
C154	C	0.934885	-0.282708	-0.613309
C155	C	1.268218	0.050625	-0.279975
C156	C	1.601551	0.383958	0.053358
C157	C	0.934894	-0.282695	-0.683997
C158	C	1.268227	0.050638	-0.350664
C159	C	1.601561	0.383972	-0.017331
C160	C	0.978162	-0.325977	-0.719338
C161	C	1.311496	0.007356	-0.386005
C162	C	1.644829	0.340689	-0.052671
C163	C	1.021419	-0.369280	-0.683987
C164	C	1.354752	-0.035947	-0.350653
C165	C	1.688086	0.297386	-0.017320
C166	C	1.021406	-0.369297	-0.613300
C167	C	1.354739	-0.035963	-0.279966
C168	C	1.688072	0.297370	0.053367
C169	C	1.021473	-0.369217	-0.969060
C170	C	1.354806	-0.035884	-0.635727
C171	C	1.688139	0.297449	-0.302394
C172	C	1.021484	-0.369196	-1.039752
C173	C	1.354817	-0.035863	-0.706419
C174	C	1.688151	0.297470	-0.373086
C175	C	0.934961	-0.282616	-1.039758
C176	C	1.268294	0.050718	-0.706425
C177	C	1.601628	0.384051	-0.373091
C178	C	0.934948	-0.282632	-0.969071
C179	C	1.268281	0.050702	-0.635737
C180	C	1.601614	0.384035	-0.302404
C181	C	0.978202	-0.325937	-0.933726
C182	C	1.311535	0.007396	-0.600392
C183	C	1.644868	0.340730	-0.267059
C184	C	0.978190	-0.325952	-0.857077
C185	C	1.311524	0.007382	-0.523744
C186	C	1.644857	0.340715	-0.190410
C187	C	0.978178	-0.325960	-0.795985
C188	C	1.311511	0.007374	-0.462652
C189	C	1.644844	0.340707	-0.129319
C190	C	0.978107	-0.326071	-0.150332
C191	C	1.311440	0.007262	0.183002
C192	C	1.644773	0.340595	0.516335
C193	C	0.978225	-0.325901	-0.075100
C194	C	1.311559	0.007433	0.258233
C195	C	1.644892	0.340766	0.591567
H196	H	0.364686	-0.404724	-0.404605
H197	H	0.698019	-0.071391	-0.071272
H198	H	1.031352	0.261942	0.262062
O199	O	0.892883	-0.933922	-0.411554
O200	O	1.226217	-0.600589	-0.078221
O201	O	1.559550	-0.267256	0.255112
C202	C	0.931368	-0.892961	-0.455299
C203	C	1.264701	-0.559627	-0.121966
C204	C	1.598035	-0.226294	0.211367
H205	H	0.984684	-0.914211	-0.459539
H206	H	1.318017	-0.580878	-0.126205
H207	H	1.651350	-0.247545	0.207128
H208	H	0.906851	-0.892151	-0.507362
H209	H	1.240184	-0.558817	-0.174028
H210	H	1.573517	-0.225484	0.159305
H211	H	0.933689	-0.839398	-0.434372
H212	H	1.267022	-0.506065	-0.101039
H213	H	1.600356	-0.172731	0.232295
O214	O	1.063397	-0.411351	-0.934705
O215	O	1.396730	-0.078017	-0.601371
O216	O	1.730064	0.255316	-0.268038
C217	C	1.024837	-0.455068	-0.893784
C218	C	1.358171	-0.121735	-0.560451
C219	C	1.691504	0.211598	-0.227118
H220	H	0.971528	-0.459239	-0.915070
H221	H	1.304862	-0.125906	-0.581737
H222	H	1.638195	0.207427	-0.248403
H223	H	1.049292	-0.507159	-0.892980
H224	H	1.382625	-0.173825	-0.559646
H225	H	1.715958	0.159508	-0.226313
H226	H	1.022512	-0.434160	-0.840215
H227	H	1.355845	-0.100826	-0.506882
H228	H	1.689178	0.232507	-0.173548
H229	H	0.236428	-0.247463	-0.247841
H230	H	0.569761	0.085870	0.085492
H231	H	0.903095	0.419203	0.418826
O232	O	0.892882	-0.240682	-0.934667
O233	O	1.226216	0.092651	-0.601334
O234	O	1.559549	0.425984	-0.268001
C235	C	0.849128	-0.279227	-0.893773
C236	C	1.182462	0.054106	-0.560440
C237	C	1.515795	0.387439	-0.227107
H238	H	0.872973	-0.330525	-0.883174
H239	H	1.206306	0.002808	-0.549840
H240	H	1.539640	0.336142	-0.216507
H241	H	0.840061	-0.251670	-0.844072
H242	H	1.173394	0.081663	-0.510739
H243	H	1.506728	0.414996	-0.177405
H244	H	0.798971	-0.286655	-0.921005
H245	H	1.132304	0.046678	-0.587671
H246	H	1.465637	0.380012	-0.254338
O247	O	0.892937	-1.073375	-0.411541
O248	O	1.226271	-0.740042	-0.078207
O249	O	1.559604	-0.406708	0.255126
C250	C	0.931467	-1.114190	-0.455306
C251	C	1.264800	-0.780857	-0.121973
C252	C	1.598134	-0.447524	0.211360
H253	H	0.982777	-1.124752	-0.431481
H254	H	1.316111	-0.791419	-0.098148
H255	H	1.649444	-0.458085	0.235185
H256	H	0.903912	-1.163915	-0.464357
H257	H	1.237245	-0.830582	-0.131024
H258	H	1.570579	-0.497249	0.202309
H259	H	0.938867	-1.086910	-0.505470
H260	H	1.272200	-0.753577	-0.172136
H261	H	1.605534	-0.420244	0.161197
O262	O	1.063626	-0.717388	-0.240977
O263	O	1.396960	-0.384054	0.092357
O264	O	1.730293	-0.050721	0.425690
C265	C	1.131040	-0.699988	-0.255897
C266	C	1.464374	-0.366654	0.077436
C267	C	1.797707	-0.033321	0.410770
H268	H	1.132328	-0.648660	-0.281944
H269	H	1.465662	-0.315327	0.051389
H270	H	1.798995	0.018006	0.384722
H271	H	1.161446	-0.697508	-0.207098
H272	H	1.494780	-0.364174	0.126235
H273	H	1.828113	-0.030841	0.459568
H274	H	1.153859	-0.739723	-0.290712
H275	H	1.487193	-0.406390	0.042621
H276	H	1.820526	-0.073056	0.375954
H277	H	1.056633	-0.583721	-0.247707
H278	H	1.389966	-0.250388	0.085627
H279	H	1.723299	0.082945	0.418960
H280	H	1.056645	-0.404525	-0.712767
H281	H	1.389978	-0.071192	-0.379434
H282	H	1.723312	0.262141	-0.046100
H283	H	0.720431	-0.247429	-0.247762
H284	H	1.053764	0.085905	0.085571
H285	H	1.387098	0.419238	0.418904
H286	H	0.899740	-0.247356	-1.068544
H287	H	1.233073	0.085977	-0.735211
H288	H	1.566406	0.419310	-0.401878
H289	H	0.899524	-0.711983	-0.404648
H290	H	1.232857	-0.378649	-0.071314
H291	H	1.566191	-0.045316	0.262019
H292	H	0.899655	-0.247459	-0.584539
H293	H	1.232988	0.085875	-0.251206
H294	H	1.566321	0.419208	0.082127
H295	H	0.364673	-0.247463	-0.247819
H296	H	0.698007	0.085871	0.085514
H297	H	1.031340	0.419204	0.418847
H298	H	0.899473	-0.583737	-0.404627
H299	H	1.232807	-0.250404	-0.071294
H300	H	1.566140	0.082930	0.262039
O301	O	0.586743	-0.240565	-0.240972
O302	O	0.920076	0.092768	0.092362
O303	O	1.253409	0.426101	0.425695
C304	C	0.633094	-0.202320	-0.202821
C305	C	0.966428	0.131013	0.130512
C306	C	1.299761	0.464346	0.463846
H307	H	0.683497	-0.200012	-0.230544
H308	H	1.016830	0.133322	0.102789
H309	H	1.350163	0.466655	0.436122
H310	H	0.612690	-0.148983	-0.195702
H311	H	0.946023	0.184350	0.137632
H312	H	1.279356	0.517684	0.470965
H313	H	0.640578	-0.227038	-0.151369
H314	H	0.973911	0.106295	0.181964
H315	H	1.307244	0.439628	0.515298
O316	O	1.063631	-0.934027	-0.240960
O317	O	1.396964	-0.600693	0.092373
O318	O	1.730297	-0.267360	0.425707
C319	C	1.101867	-0.980375	-0.202790
C320	C	1.435200	-0.647042	0.130544
C321	C	1.768533	-0.313708	0.463877
H322	H	1.104210	-1.030743	-0.230522
H323	H	1.437543	-0.697409	0.102811
H324	H	1.770876	-0.364076	0.436144
H325	H	1.155193	-0.959913	-0.195623
H326	H	1.488526	-0.626580	0.137711
H327	H	1.821859	-0.293246	0.471044
H328	H	1.077118	-0.987947	-0.151359
H329	H	1.410452	-0.654614	0.181974
H330	H	1.743785	-0.321280	0.515308
H331	H	0.899669	-0.247440	-0.712773
H332	H	1.233002	0.085894	-0.379440
H333	H	1.566336	0.419227	-0.046106
H334	H	1.056720	-0.404445	-1.068525
H335	H	1.390053	-0.071111	-0.735192
H336	H	1.723386	0.262222	-0.401858
H337	H	1.056808	-1.067726	-0.247796
H338	H	1.390142	-0.734393	0.085537
H339	H	1.723475	-0.401060	0.418870
H340	H	1.056633	-0.404550	-0.584521
H341	H	1.389967	-0.071216	-0.251188
H342	H	1.723300	0.262117	0.082145
H343	H	0.236452	-0.404725	-0.404635
H344	H	0.569785	-0.071392	-0.071301
H345	H	0.903119	0.261942	0.262032
H346	H	0.720457	-0.404696	-0.404549
H347	H	1.053790	-0.071362	-0.071216
H348	H	1.387123	0.261971	0.262117
O349	O	0.586759	-0.411580	-0.411378
O350	O	0.920092	-0.078246	-0.078045
O351	O	1.253425	0.255087	0.255289
C352	C	0.633117	-0.449821	-0.449519
C353	C	0.966450	-0.116487	-0.116185
C354	C	1.299783	0.216846	0.217148
H355	H	0.683490	-0.452124	-0.421784
H356	H	1.016824	-0.118791	-0.088451
H357	H	1.350157	0.214542	0.244882
H358	H	0.612676	-0.503160	-0.456643
H359	H	0.946009	-0.169826	-0.123309
H360	H	1.279343	0.163507	0.210024
H361	H	0.640670	-0.425102	-0.500969
H362	H	0.974003	-0.091768	-0.167636
H363	H	1.307336	0.241565	0.165698
