data_functionalizedCrystal
_audit_creation_method	'MofGen! by Chris Wilmer'
_symmetry_space_group_name_H-M	'P1'
_symmetry_Int_Tables_number	1
_symmetry_cell_setting	triclinic
loop_
_symmetry_equiv_pos_as_xyz
  x,y,z
_cell_length_a	12.759400
_cell_length_b	19.077142
_cell_length_c	19.077174
_cell_angle_alpha	94.518112
_cell_angle_beta	92.275311
_cell_angle_gamma	92.289673
loop_
_atom_site_label
_atom_site_type_symbol
_atom_site_fract_x
_atom_site_fract_y
_atom_site_fract_z
Zn1	Zn	-0.510509	-1.093767	-0.441899
Zn2	Zn	-0.010509	-0.593767	0.058101
Zn3	Zn	-0.678847	-1.088972	-0.324018
Zn4	Zn	-0.178847	-0.588972	0.175982
Zn5	Zn	-0.495819	-0.971150	-0.319292
Zn6	Zn	0.004181	-0.471150	0.180708
Zn7	Zn	-0.678775	-0.975866	-0.437132
Zn8	Zn	-0.178775	-0.475866	0.062868
O9	O	-0.590987	-1.032439	-0.380585
O10	O	-0.090987	-0.532439	0.119415
O11	O	-0.539017	-1.191782	-0.430235
O12	O	-0.039017	-0.691782	0.069765
O13	O	-0.648450	-1.069362	-0.224741
O14	O	-0.148450	-0.569362	0.275259
O15	O	-0.350750	-0.987449	-0.335574
O16	O	0.149250	-0.487449	0.164426
O17	O	-0.662694	-1.188259	-0.343628
O18	O	-0.162694	-0.688259	0.156372
O19	O	-0.361542	-1.077535	-0.425653
O20	O	0.138458	-0.577535	0.074347
O21	O	-0.513980	-0.982799	-0.221269
O22	O	-0.013980	-0.482799	0.278731
O23	O	-0.513911	-0.873125	-0.330951
O24	O	-0.013911	-0.373125	0.169049
O25	O	-0.662572	-0.995486	-0.536414
O26	O	-0.162572	-0.495486	-0.036414
O27	O	-0.648328	-0.876589	-0.417527
O28	O	-0.148328	-0.376589	0.082473
O29	O	-0.538947	-1.082108	-0.539917
O30	O	-0.038947	-0.582108	-0.039917
O31	O	-0.825855	-1.073935	-0.339005
O32	O	-0.325855	-0.573935	0.160995
O33	O	-0.825803	-0.990836	-0.422109
O34	O	-0.325803	-0.490836	0.077891
C35	C	-0.579519	-0.849278	-0.373209
C36	C	-0.079519	-0.349278	0.126791
C37	C	-0.574639	-0.770922	-0.370071
C38	C	-0.074639	-0.270922	0.129929
C39	C	-0.642427	-0.735929	-0.413601
C40	C	-0.142427	-0.235929	0.086399
C41	C	-0.637828	-0.662305	-0.410655
C42	C	-0.137828	-0.162305	0.089345
C43	C	-0.565445	-0.623675	-0.364175
C44	C	-0.065445	-0.123675	0.135825
C45	C	-0.497650	-0.658673	-0.320643
C46	C	0.002350	-0.158673	0.179357
C47	C	-0.502244	-0.732295	-0.323593
C48	C	-0.002244	-0.232295	0.176407
C49	C	-0.544184	-0.403291	-0.350530
C50	C	-0.044184	0.096709	0.149470
C51	C	-0.539596	-0.329663	-0.347582
C52	C	-0.039596	0.170337	0.152418
C53	C	-0.679774	-0.333301	-0.437596
C54	C	-0.179774	0.166699	0.062404
C55	C	-0.684366	-0.406925	-0.440538
C56	C	-0.184366	0.093075	0.059462
C57	C	-0.616567	-0.441916	-0.397009
C58	C	-0.116567	0.058084	0.102991
N59	N	-0.560745	-0.548419	-0.361161
N60	N	-0.060745	-0.048419	0.138839
N61	N	-0.621263	-0.517170	-0.400027
N62	N	-0.121263	-0.017170	0.099973
C63	C	-0.863951	-1.032396	-0.380569
C64	C	-0.363951	-0.532396	0.119431
C65	C	-0.980732	-1.032444	-0.380588
C66	C	-0.480732	-0.532444	0.119412
C67	C	-1.035593	-1.075765	-0.337367
C68	C	-0.535593	-0.575765	0.162633
C69	C	-1.145321	-1.075809	-0.337391
C70	C	-0.645321	-0.575809	0.162609
C71	C	-1.145317	-0.989204	-0.423857
C72	C	-0.645317	-0.489204	0.076143
C73	C	-1.035592	-0.989165	-0.423837
C74	C	-0.535592	-0.489165	0.076163
C75	C	-0.980733	-1.119044	-0.294118
C76	C	-0.480733	-0.619044	0.205882
C77	C	-1.035594	-1.162369	-0.250894
C78	C	-0.535594	-0.662369	0.249106
C79	C	-1.145322	-1.162413	-0.250917
C80	C	-0.645322	-0.662413	0.249083
C81	C	-1.200189	-1.119133	-0.294165
C82	C	-0.700189	-0.619133	0.205835
C83	C	-0.316960	-1.032501	-0.380618
C84	C	0.183040	-0.532501	0.119382
C85	C	-0.200186	-1.032528	-0.380632
C86	C	0.299814	-0.532528	0.119368
C87	C	-0.602390	-1.039857	-0.564460
C88	C	-0.102390	-0.539857	-0.064460
C89	C	-0.607249	-1.043019	-0.642816
C90	C	-0.107249	-0.543019	-0.142816
C91	C	-0.602496	-0.216314	-0.387982
C92	C	-0.102496	0.283686	0.112018
C93	C	-0.607384	-0.294670	-0.391112
C94	C	-0.107384	0.205330	0.108888
C95	C	-0.539523	-0.999437	-0.677820
C96	C	-0.039523	-0.499437	-0.177820
C97	C	-0.544097	-1.002405	-0.751444
C98	C	-0.044097	-0.502405	-0.251444
C99	C	-0.616394	-1.048959	-0.790063
C100	C	-0.116394	-0.548959	-0.290063
C101	C	-0.684128	-1.092542	-0.755054
C102	C	-0.184128	-0.592542	-0.255054
C103	C	-0.679558	-1.089570	-0.681431
C104	C	-0.179558	-0.589570	-0.181431
C105	C	-0.637573	-1.062676	-1.010445
C106	C	-0.137573	-0.562676	-0.510445
C107	C	-0.642136	-1.065646	-1.084073
C108	C	-0.142136	-0.565646	-0.584073
C109	C	-0.502106	-0.975508	-1.080458
C110	C	-0.002106	-0.475508	-0.580458
C111	C	-0.497538	-0.972543	-1.006834
C112	C	0.002462	-0.472543	-0.506834
C113	C	-0.565276	-1.016124	-0.971832
C114	C	-0.065276	-0.516124	-0.471832
N115	N	-0.621069	-1.051995	-0.865318
N116	N	-0.121069	-0.551995	-0.365318
N117	N	-0.560605	-1.013084	-0.896577
N118	N	-0.060605	-0.513084	-0.396577
C119	C	-0.579556	-1.025089	-0.197428
C120	C	-0.079556	-0.525089	0.302572
C121	C	-0.574409	-1.022065	-0.119077
C122	C	-0.074409	-0.522065	0.380923
H123	H	-0.480642	-0.298213	-0.309737
H124	H	0.019358	0.201787	0.190263
C125	C	-0.469609	-0.441772	-0.302642
C126	C	0.030391	0.058228	0.197358
N127	N	-0.413436	-0.470758	-0.266569
N128	N	0.086564	0.029242	0.233431
H129	H	-0.734970	-0.304803	-0.473036
H130	H	-0.234970	0.195197	0.026964
C131	C	-0.763883	-1.143591	-0.797531
C132	C	-0.263883	-0.643591	-0.297531
N133	N	-0.824036	-1.181987	-0.829521
N134	N	-0.324036	-0.681987	-0.329521
C135	C	-0.418025	-0.616177	-0.269516
C136	C	0.081975	-0.116177	0.230484
N137	N	-0.358053	-0.584170	-0.231005
N138	N	0.141947	-0.084170	0.268995
H139	H	-0.990915	-1.197610	-0.215686
H140	H	-0.490915	-0.697610	0.284314
C141	C	-0.427674	-0.770787	-0.275705
C142	C	0.072326	-0.270787	0.224295
N143	N	-0.371504	-0.799778	-0.239635
N144	N	0.128496	-0.299778	0.260365
C145	C	-0.427606	-0.927568	-1.118967
C146	C	0.072394	-0.427568	-0.618967
N147	N	-0.371492	-0.891456	-1.147972
N148	N	0.128508	-0.391456	-0.647972
H149	H	-1.189987	-1.197695	-0.215727
H150	H	-0.689987	-0.697695	0.284273
H151	H	-0.701010	-1.103558	-1.115515
H152	H	-0.201010	-0.603558	-0.615515
C153	C	-0.712031	-1.110656	-0.971954
C154	C	-0.212031	-0.610656	-0.471954
N155	N	-0.768097	-1.146810	-0.942960
N156	N	-0.268097	-0.646810	-0.442960
H157	H	-0.891386	-1.119011	-0.294092
H158	H	-0.391386	-0.619011	0.205908
H159	H	-0.480645	-0.961533	-0.646382
H160	H	0.019355	-0.461533	-0.146382
C161	C	-0.722055	-0.778415	-0.464733
C162	C	-0.222055	-0.278415	0.035267
N163	N	-0.782030	-0.810414	-0.503249
N164	N	-0.282030	-0.310414	-0.003249
H165	H	-0.743310	-0.438372	-0.478386
H166	H	-0.243310	0.061628	0.021614
C167	C	-1.205675	-0.941593	-0.471420
C168	C	-0.705675	-0.441593	0.028580
N169	N	-1.251136	-0.905727	-0.507242
N170	N	-0.751136	-0.405727	-0.007242
H171	H	-1.289538	-1.119178	-0.294187
H172	H	-0.789538	-0.619178	0.205813
C173	C	-0.975240	-0.941498	-0.471371
C174	C	-0.475240	-0.441498	0.028629
N175	N	-0.929783	-0.905592	-0.507173
N176	N	-0.429783	-0.405592	-0.007173
H177	H	-0.488950	-0.966914	-0.779941
H178	H	0.011050	-0.466914	-0.279941
C179	C	-0.712420	-0.623816	-0.458528
C180	C	-0.212420	-0.123816	0.041472
N181	N	-0.768612	-0.594826	-0.494585
N182	N	-0.268612	-0.094826	0.005415
H183	H	-0.438669	-0.934633	-0.975395
H184	H	0.061331	-0.434633	-0.475395
C185	C	-0.754058	-1.137516	-0.642927
C186	C	-0.254058	-0.637516	-0.142927
N187	N	-0.810176	-1.173631	-0.613927
N188	N	-0.310176	-0.673631	-0.113927
