data_functionalizedCrystal
_audit_creation_method	'MofGen! by Chris Wilmer'
_symmetry_space_group_name_H-M	'P1'
_symmetry_Int_Tables_number	1
_symmetry_cell_setting	triclinic
loop_
_symmetry_equiv_pos_as_xyz
  x,y,z
_cell_length_a	15.995350
_cell_length_b	14.472311
_cell_length_c	14.044220
_cell_angle_alpha	89.989363
_cell_angle_beta	91.659374
_cell_angle_gamma	90.000483
loop_
_atom_site_label
_atom_site_type_symbol
_atom_site_fract_x
_atom_site_fract_y
_atom_site_fract_z
O1	O	1.120110	0.076765	-0.122187
O2	O	0.877462	0.076784	-0.137274
O3	O	0.995144	0.076765	0.008254
O4	O	1.002428	0.076783	-0.267715
O5	O	0.995134	-0.076917	0.008272
O6	O	0.877452	-0.076898	-0.137256
O7	O	1.120100	-0.076917	-0.122168
Cu8	Cu	0.998775	-0.090940	-0.129711
Cu9	Cu	0.998787	0.090807	-0.129732
O10	O	1.002418	-0.076899	-0.267697
C11	C	0.846216	-0.000055	-0.136641
C12	C	0.753126	-0.000048	-0.134771
C13	C	0.414876	-0.000067	-0.128056
C14	C	0.454570	-0.000417	-0.024413
C15	C	0.551399	-0.000064	-0.026284
C16	C	0.582686	-0.000058	-0.131387
C17	C	0.545423	0.087702	-0.182517
C18	C	0.448592	0.087768	-0.179914
C19	C	0.448402	-0.086997	-0.182034
C20	C	0.545345	-0.088150	-0.182010
C21	C	0.677524	-0.000050	-0.133275
C22	C	0.320038	-0.000069	-0.126171
N23	N	0.998773	-0.218771	-0.129695
C24	C	0.998787	-0.592862	-0.129725
C25	C	1.061999	-0.553677	-0.052116
C26	C	1.061798	-0.446590	-0.051830
C27	C	0.998781	-0.407271	-0.129710
C28	C	0.909810	-0.446157	-0.108109
C29	C	0.910178	-0.553278	-0.107560
C30	C	1.023776	-0.553362	-0.229164
C31	C	1.025709	-0.446234	-0.228498
C32	C	0.998772	-0.302383	-0.129703
C33	C	0.998791	-0.697750	-0.129730
C34	C	1.151347	-0.000077	-0.122801
C35	C	1.244437	-0.000078	-0.124671
C36	C	0.991950	-0.000076	0.043578
C37	C	0.982439	-0.000076	0.148803
N38	N	0.998796	0.218638	-0.129740
C39	C	1.005612	-0.000056	-0.303020
C40	C	1.015123	-0.000049	-0.408246
C41	C	0.965051	-0.000061	0.341465
C42	C	1.032507	-0.000064	0.399098
C43	C	1.022832	-0.000056	0.506301
C44	C	0.974725	-0.000070	0.234251
H45	H	0.431900	0.062167	0.016817
F46	F	0.572905	-0.095073	-0.282192
F47	F	1.040384	-0.588875	0.043794
F48	F	0.882082	-0.411109	-0.014399
F49	F	0.421026	0.173509	-0.131197
H50	H	0.977767	-0.578707	-0.286919
F51	F	0.426306	-0.082679	0.029747
F52	F	0.880075	-0.000050	0.382205
H53	H	0.576823	-0.062974	0.013907
H54	H	1.097524	-0.000007	0.367927
H55	H	0.422027	0.091755	-0.256007
F56	F	0.846350	-0.587163	-0.178632
H57	H	0.576240	0.062951	0.014164
H58	H	0.569870	-0.153074	-0.144685
H59	H	1.087665	-0.580375	-0.249925
F60	F	0.571442	0.091990	-0.283439
H61	H	0.571149	0.153010	-0.147019
F62	F	1.148400	-0.587339	-0.068658
H63	H	0.422348	-0.087586	-0.258449
F64	F	0.418251	-0.173943	-0.137734
F65	F	1.111303	-0.413009	-0.249930
H66	H	1.127695	-0.420298	-0.064692
H67	H	1.045066	-0.420976	0.021965
F68	F	0.882868	-0.585955	-0.012772
H69	H	0.861331	-0.420689	-0.163131
H70	H	0.983220	-0.419467	-0.288956
