data_functionalizedCrystal
_audit_creation_method	'MofGen! by Chris Wilmer'
_symmetry_space_group_name_H-M	'P1'
_symmetry_Int_Tables_number	1
_symmetry_cell_setting	triclinic
loop_
_symmetry_equiv_pos_as_xyz
  x,y,z
_cell_length_a	10.654550
_cell_length_b	9.130313
_cell_length_c	14.971486
_cell_angle_alpha	90.001462
_cell_angle_beta	84.049516
_cell_angle_gamma	90.003780
loop_
_atom_site_label
_atom_site_type_symbol
_atom_site_fract_x
_atom_site_fract_y
_atom_site_fract_z
O1	O	1.666486	0.121921	0.125627
O2	O	1.300879	0.121897	0.137596
O3	O	1.493482	0.121899	0.001465
O4	O	1.473884	0.121919	0.261758
O5	O	1.493480	-0.121700	0.001469
O6	O	1.300877	-0.121702	0.137600
O7	O	1.666484	-0.121678	0.125631
Cu8	Cu	1.483680	-0.143932	0.131616
Cu9	Cu	1.483683	0.144151	0.131611
O10	O	1.473881	-0.121680	0.261762
C11	C	1.254090	0.000095	0.136719
C12	C	1.114675	0.000085	0.134090
N13	N	1.483688	-0.346555	0.131618
C14	C	1.034329	0.000113	0.214242
C15	C	0.903335	0.000138	0.211766
C16	C	0.933045	0.000114	0.048979
C17	C	1.064036	0.000079	0.051456
C18	C	1.084968	0.000120	0.296876
C19	C	1.004621	0.000149	0.377035
C20	C	0.873626	0.000174	0.374559
C21	C	0.822979	0.000170	0.291924
C22	C	1.568994	-0.423206	0.071360
C23	C	1.568990	-0.576543	0.071349
C24	C	1.398371	-0.576564	0.191863
C25	C	1.398369	-0.423230	0.191869
C26	C	1.654312	-0.346531	0.011109
C27	C	1.739626	-0.423183	-0.049153
C28	C	1.739623	-0.576519	-0.049164
C29	C	1.654306	-0.653205	0.011088
C30	C	1.713274	0.000127	0.126508
C31	C	1.852689	0.000146	0.129137
C32	C	1.492605	0.000100	-0.031863
C33	C	1.489978	0.000101	-0.131174
N34	N	1.483686	0.346774	0.131602
C35	C	1.603127	0.000107	-0.187784
C36	C	1.600651	0.000122	-0.281097
C37	C	1.485026	0.000120	-0.317798
C38	C	1.371868	0.000118	-0.261181
C39	C	1.374345	0.000114	-0.167870
C40	C	1.366714	0.000123	-0.455672
C41	C	1.364237	0.000124	-0.548989
C42	C	1.593020	0.000131	-0.568898
C43	C	1.595497	0.000127	-0.475587
C44	C	1.482339	0.000122	-0.418977
C45	C	1.474759	0.000122	0.295090
C46	C	1.477386	0.000131	0.394401
H47	H	1.191628	0.000106	0.298901
H48	H	1.809080	-0.638927	-0.098238
H49	H	0.716313	0.000167	0.289914
H50	H	0.891796	0.000136	-0.018298
Br51	Br	1.752419	0.000133	-0.425778
H52	H	1.129456	0.000060	-0.013811
Br53	Br	1.282585	-0.319199	0.273645
H54	H	1.697282	0.000100	-0.157909
Br55	Br	1.654292	-0.861307	0.011060
Br56	Br	1.214945	0.000140	-0.310989
Br57	Br	1.754218	0.000131	-0.357922
H58	H	1.328910	-0.639011	0.240918
H59	H	1.685158	0.000139	-0.614995
H60	H	1.270084	0.000099	-0.578868
Br61	Br	1.213141	0.000122	-0.378843
Br62	Br	1.073353	0.000131	0.489176
H63	H	1.654325	-0.221677	0.011114
H64	H	1.282207	0.000109	-0.121779
H65	H	0.808211	0.000183	0.439828
H66	H	1.809082	-0.360737	-0.098213
