data_functionalizedCrystal
_audit_creation_method	'MofGen! by Chris Wilmer'
_symmetry_space_group_name_H-M	'P1'
_symmetry_Int_Tables_number	1
_symmetry_cell_setting	triclinic
loop_
_symmetry_equiv_pos_as_xyz
  x,y,z
_cell_length_a	6.817900
_cell_length_b	9.514072
_cell_length_c	11.168136
_cell_angle_alpha	88.684742
_cell_angle_beta	108.508683
_cell_angle_gamma	118.843421
loop_
_atom_site_label
_atom_site_type_symbol
_atom_site_fract_x
_atom_site_fract_y
_atom_site_fract_z
V1	V	-4.169138	-0.222229	-0.394689
O2	O	-4.066626	0.010654	-0.386157
O3	O	-4.203658	-0.440618	-0.392968
O4	O	-4.144520	-0.218821	-0.566379
O5	O	-4.126173	-0.212678	-0.211546
V6	V	-4.638940	-0.194372	-0.372664
O7	O	-4.460495	-0.283335	-0.443001
O8	O	-4.797780	-0.133266	-0.324352
O9	O	-4.381213	0.024018	-0.374385
O10	O	-4.858849	-0.427254	-0.381196
O11	O	-4.799302	-0.203922	-0.555807
O12	O	-4.440351	-0.197779	-0.200974
C13	C	-4.068062	-0.493856	-0.386994
C14	C	-4.177731	-0.672392	-0.386732
C15	C	-3.992623	-0.210930	-0.608196
C16	C	-4.054327	-0.209589	-0.748560
C17	C	-4.258707	-0.216609	-0.817283
C18	C	-4.322486	-0.215223	-0.962357
C19	C	-4.180154	0.077247	-0.380355
C20	C	-4.049725	0.255782	-0.380625
C21	C	-4.255591	-0.205675	-0.159150
C22	C	-4.173123	-0.207008	-0.018785
H23	H	-3.856197	-0.669113	-0.375535
H24	H	-3.998041	-0.201009	-0.959717
H25	H	-4.371263	-0.747502	-0.391804
H26	H	-4.386460	-0.223633	-0.768716
H27	H	-4.497575	-0.221240	-1.021435
C28	C	-3.881674	-0.200019	-0.814156
N29	N	-3.751611	-0.192789	-0.863558
