data_functionalizedCrystal
_audit_creation_method	'MofGen! by Chris Wilmer'
_symmetry_space_group_name_H-M	'P1'
_symmetry_Int_Tables_number	1
_symmetry_cell_setting	triclinic
loop_
_symmetry_equiv_pos_as_xyz
  x,y,z
_cell_length_a	23.532355
_cell_length_b	23.532407
_cell_length_c	15.186229
_cell_angle_alpha	90.008386
_cell_angle_beta	89.997531
_cell_angle_gamma	82.838088
loop_
_atom_site_label
_atom_site_type_symbol
_atom_site_fract_x
_atom_site_fract_y
_atom_site_fract_z
O1	O	0.755278	0.068993	0.073118
O2	O	1.255278	0.568993	0.573118
O3	O	0.589410	0.079027	0.073147
O4	O	1.089410	0.579027	0.573147
O5	O	0.677346	-0.008922	0.073115
O6	O	1.177346	0.491078	0.573115
O7	O	0.667342	0.156943	0.073149
O8	O	1.167342	0.656943	0.573149
O9	O	0.677340	-0.008923	-0.073342
O10	O	1.177340	0.491077	0.426658
O11	O	0.589404	0.079026	-0.073310
O12	O	1.089404	0.579026	0.426690
O13	O	0.755272	0.068992	-0.073340
O14	O	1.255272	0.568992	0.426660
Zn15	Zn	0.672337	0.074009	-0.096578
Zn16	Zn	1.172337	0.574009	0.403422
Zn17	Zn	0.672345	0.074011	0.096386
Zn18	Zn	1.172345	0.574011	0.596386
O19	O	0.667336	0.156942	-0.073308
O20	O	1.167336	0.656942	0.426692
C21	C	0.568191	0.078776	-0.000078
C22	C	1.068191	0.578776	0.499922
C23	C	0.504972	0.078022	-0.000068
C24	C	1.004972	0.578022	0.499932
C25	C	0.112955	0.073283	-0.079939
C26	C	0.612955	0.573283	0.420061
C27	C	0.053556	0.072566	-0.079943
C28	C	0.553556	0.572566	0.420057
O29	O	0.022834	0.072175	-0.147838
O30	O	0.522834	0.572175	0.352162
N31	N	0.023850	0.072211	-0.000109
N32	N	0.523850	0.572211	0.499891
C33	C	0.053548	0.072567	0.079733
C34	C	0.553548	0.572567	0.579733
O35	O	0.022828	0.072199	0.147637
O36	O	0.522828	0.572199	0.647637
C37	C	0.112947	0.073281	0.079735
C38	C	0.612947	0.573281	0.579735
C39	C	0.142649	0.073641	-0.000103
C40	C	0.642649	0.573641	0.499897
C41	C	0.142657	0.073643	-0.159772
C42	C	0.642657	0.573643	0.340228
C43	C	0.202052	0.074362	-0.159768
C44	C	0.702052	0.574362	0.340232
C45	C	0.231745	0.074720	-0.079932
C46	C	0.731745	0.574720	0.420068
C47	C	0.202044	0.074360	-0.000099
C48	C	0.702044	0.574360	0.499901
C49	C	0.142645	0.073633	0.159577
C50	C	0.642645	0.573633	0.659577
C51	C	0.202048	0.074346	0.159573
C52	C	0.702048	0.574346	0.659573
C53	C	0.231749	0.074707	0.079734
C54	C	0.731749	0.574707	0.579734
C55	C	0.291133	0.075437	0.079741
C56	C	0.791133	0.575437	0.579741
N57	N	0.320838	0.075792	-0.000093
N58	N	0.820838	0.575792	0.499907
C59	C	0.291144	0.075434	-0.079929
C60	C	0.791144	0.575434	0.420071
C61	C	-0.071193	0.071068	0.079721
C62	C	0.428807	0.571068	0.579721
C63	C	-0.130591	0.070359	0.079720
C64	C	0.369409	0.570359	0.579720
C65	C	-0.130580	0.070356	-0.079957
C66	C	0.369420	0.570356	0.420043
C67	C	-0.071181	0.071070	-0.079954
C68	C	0.428819	0.571070	0.420046
C69	C	-0.041488	0.071423	-0.000112
C70	C	0.458512	0.571423	0.499888
C71	C	0.415878	0.076943	-0.079915
C72	C	0.915878	0.576943	0.420085
C73	C	0.475279	0.077664	-0.079904
C74	C	0.975279	0.577664	0.420096
C75	C	0.475262	0.077663	0.079772
C76	C	0.975262	0.577663	0.579772
C77	C	0.415867	0.076945	0.079761
C78	C	0.915867	0.576945	0.579761
C79	C	0.386177	0.076583	-0.000089
C80	C	0.886177	0.576583	0.499911
O81	O	0.321892	0.075826	0.147601
O82	O	0.821892	0.575826	0.647601
O83	O	0.321873	0.075795	-0.147822
O84	O	0.821873	0.575795	0.352178
C85	C	0.677088	-0.030139	-0.000116
C86	C	1.177088	0.469861	0.499884
C87	C	0.676322	-0.093356	-0.000122
C88	C	1.176322	0.406644	0.499878
C89	C	0.723557	-0.492468	-0.000082
C90	C	1.223557	0.007532	0.499918
C91	C	0.722845	-0.551868	-0.000075
C92	C	1.222845	-0.051868	0.499925
O93	O	0.766632	-0.588620	-0.000051
O94	O	1.266632	-0.088620	0.499949
N95	N	0.670568	-0.574484	-0.000067
N96	N	1.170568	-0.074484	0.499933
C97	C	0.618998	-0.537697	-0.000056
C98	C	1.118998	-0.037697	0.499944
O99	O	0.574467	-0.562388	-0.000047
O100	O	1.074467	-0.062388	0.499953
C101	C	0.619710	-0.478298	-0.000057
C102	C	1.119710	0.021702	0.499943
C103	C	0.671991	-0.455685	-0.000074
C104	C	1.171991	0.044315	0.499926
C105	C	0.775834	-0.469854	-0.000099
C106	C	1.275834	0.030146	0.499901
C107	C	0.776545	-0.410458	-0.000107
C108	C	1.276545	0.089542	0.499893
C109	C	0.724979	-0.373676	-0.000099
C110	C	1.224979	0.126324	0.499901
C111	C	0.672703	-0.396289	-0.000083
C112	C	1.172703	0.103711	0.499917
C113	C	0.568141	-0.441512	-0.000040
C114	C	1.068141	0.058488	0.499960
C115	C	0.568858	-0.382110	-0.000039
C116	C	1.068858	0.117890	0.499961
C117	C	0.621139	-0.359497	-0.000057
C118	C	1.121139	0.140503	0.499943
C119	C	0.621848	-0.300110	-0.000083
C120	C	1.121848	0.199890	0.499917
N121	N	0.674126	-0.277494	-0.000092
N122	N	1.174126	0.222506	0.499908
C123	C	0.725691	-0.314277	-0.000100
C124	C	1.225691	0.185723	0.499900
C125	C	0.617507	-0.662439	-0.000053
C126	C	1.117507	-0.162439	0.499947
C127	C	0.616794	-0.721837	-0.000059
C128	C	1.116794	-0.221837	0.499941
C129	C	0.720642	-0.736004	-0.000077
C130	C	1.220642	-0.236004	0.499923
C131	C	0.721354	-0.676605	-0.000077
C132	C	1.221354	-0.176605	0.499923
C133	C	0.669784	-0.639823	-0.000062
C134	C	1.169784	-0.139823	0.499938
C135	C	0.727181	-0.189540	-0.000118
C136	C	1.227181	0.310460	0.499882
C137	C	0.727888	-0.130138	-0.000130
C138	C	1.227888	0.369862	0.499870
C139	C	0.624041	-0.115977	-0.000108
C140	C	1.124041	0.384023	0.499892
C141	C	0.623334	-0.175373	-0.000100
C142	C	1.123334	0.324627	0.499900
C143	C	0.674909	-0.212154	-0.000103
C144	C	1.174909	0.287846	0.499897
O145	O	0.578084	-0.263323	-0.000104
O146	O	1.078084	0.236677	0.499896
O147	O	0.770216	-0.289577	-0.000097
O148	O	1.270216	0.210423	0.499903
C149	C	0.776492	0.069244	-0.000113
C150	C	1.276492	0.569244	0.499887
C151	C	0.839710	0.069998	-0.000117
C152	C	1.339710	0.569998	0.499883
C153	C	0.667594	0.178158	-0.000075
C154	C	1.167594	0.678158	0.499925
C155	C	0.668360	0.241375	-0.000063
C156	C	1.168360	0.741375	0.499937
N157	N	0.672336	0.074008	-0.228271
N158	N	1.172336	0.574008	0.271729
C159	C	0.711287	0.035076	-0.454008
C160	C	1.211287	0.535076	0.045992
C161	C	0.711289	0.035075	-0.546197
C162	C	1.211289	0.535075	-0.046197
C163	C	0.633395	0.112941	-0.546178
C164	C	1.133395	0.612941	-0.046178
C165	C	0.633391	0.112939	-0.453990
C166	C	1.133391	0.612939	0.046010
C167	C	0.672340	0.074007	-0.407907
C168	C	1.172340	0.574007	0.092093
C169	C	0.672346	0.074008	-0.592285
C170	C	1.172346	0.574008	-0.092285
C171	C	0.672348	0.074007	-0.692241
C172	C	1.172348	0.574007	-0.192241
C173	C	0.672338	0.074008	-0.307945
C174	C	1.172338	0.574008	0.192055
N175	N	0.672351	0.074008	0.228078
N176	N	1.172351	0.574008	0.728078
H177	H	0.391711	0.076653	-0.144937
H178	H	0.891711	0.576653	0.355063
F179	F	0.506875	0.078043	0.164735
F180	F	1.006875	0.578043	0.664735
H181	H	0.601685	0.144638	-0.583708
H182	H	1.101685	0.644638	-0.083708
H183	H	0.743001	0.003375	-0.416489
H184	H	1.243001	0.503375	0.083511
F185	F	0.233655	0.074743	-0.244744
F186	F	0.733655	0.574743	0.255256
H187	H	0.762629	-0.765963	-0.000080
H188	H	1.262629	-0.265963	0.499920
F189	F	0.591935	0.154374	-0.404923
F190	F	1.091935	0.654374	0.095077
F191	F	0.233646	0.074721	0.244554
F192	F	0.733646	0.574721	0.744554
H193	H	0.769178	-0.219481	-0.000116
H194	H	1.269178	0.280519	0.499884
H195	H	-0.154771	0.070074	0.144732
H196	H	0.345229	0.570074	0.644732
F197	F	0.513969	-0.342966	-0.000021
F198	F	1.013969	0.157034	0.499979
F199	F	0.752740	-0.006361	-0.595258
F200	F	1.252740	0.493639	-0.095258
H201	H	0.499459	0.077959	-0.144921
H202	H	0.999459	0.577959	0.355079
F203	F	0.567691	-0.199441	-0.000098
F204	F	1.067691	0.300559	0.499902
F205	F	-0.039597	0.071450	0.164705
F206	F	0.460403	0.571450	0.664705
H207	H	0.118487	0.073350	-0.224787
H208	H	0.618487	0.573350	0.275213
F209	F	0.783535	-0.106076	-0.000148
F210	F	1.283535	0.393924	0.499852
H211	H	-0.047002	0.071364	-0.144966
H212	H	0.452998	0.571364	0.355034
F213	F	0.562616	-0.623297	-0.000045
F214	F	1.062616	-0.123297	0.499955
H215	H	-0.154767	0.070064	-0.144964
H216	H	0.345233	0.570064	0.355036
F217	F	0.384254	0.076571	0.164734
F218	F	0.884254	0.576571	0.664734
F219	F	0.832190	-0.386400	-0.000107
F220	F	1.332190	0.113600	0.499893
F221	F	0.111047	0.073248	0.244554
F222	F	0.611047	0.573248	0.744554
F223	F	0.776998	-0.652544	-0.000096
F224	F	1.276998	-0.152544	0.499904
F225	F	0.830722	-0.508993	-0.000107
F226	F	1.330722	-0.008993	0.499893
H227	H	0.525569	-0.459912	-0.000020
H228	H	1.025569	0.040088	0.499980
F229	F	0.561150	-0.745896	-0.000056
F230	F	1.061150	-0.245896	0.499944
F231	F	0.569164	-0.076820	-0.000100
F232	F	1.069164	0.423180	0.499900
