data_functionalizedCrystal
_audit_creation_method	'MofGen! by Chris Wilmer'
_symmetry_space_group_name_H-M	'P1'
_symmetry_Int_Tables_number	1
_symmetry_cell_setting	triclinic
loop_
_symmetry_equiv_pos_as_xyz
  x,y,z
_cell_length_a	27.732048
_cell_length_b	23.532407
_cell_length_c	22.010155
_cell_angle_alpha	90.000423
_cell_angle_beta	89.989126
_cell_angle_gamma	97.254334
loop_
_atom_site_label
_atom_site_type_symbol
_atom_site_fract_x
_atom_site_fract_y
_atom_site_fract_z
O1	O	0.641035	-0.067758	-0.050565
O2	O	0.974368	0.265575	0.282768
O3	O	1.307702	0.598909	0.616101
O4	O	0.500257	-0.078062	-0.050560
O5	O	0.833591	0.255271	0.282773
O6	O	1.166924	0.588605	0.616107
O7	O	0.574891	0.010031	-0.050552
O8	O	0.908225	0.343364	0.282782
O9	O	1.241558	0.676697	0.616115
O10	O	0.566401	-0.155851	-0.050574
O11	O	0.899734	0.177483	0.282760
O12	O	1.233068	0.510816	0.616093
O13	O	0.574878	0.010018	0.050499
O14	O	0.908211	0.343351	0.383832
O15	O	1.241544	0.676684	0.717165
O16	O	0.500244	-0.078075	0.050490
O17	O	0.833577	0.255258	0.383824
O18	O	1.166910	0.588592	0.717157
O19	O	0.641021	-0.067771	0.050485
O20	O	0.974355	0.265562	0.383818
O21	O	1.307688	0.598895	0.717152
Cu22	Cu	0.570631	-0.072924	0.059714
Cu23	Cu	0.903965	0.260409	0.393048
Cu24	Cu	1.237298	0.593742	0.726381
Cu25	Cu	0.570647	-0.072909	-0.059789
Cu26	Cu	0.903981	0.260425	0.273544
Cu27	Cu	1.237314	0.593758	0.606877
O28	O	0.566387	-0.155864	0.050477
O29	O	0.899721	0.177469	0.383810
O30	O	1.233054	0.510803	0.717143
C31	C	0.574668	0.031240	-0.000025
C32	C	0.908002	0.364573	0.333308
C33	C	1.241335	0.697906	0.666642
C34	C	0.574018	0.094455	-0.000020
C35	C	0.907352	0.427789	0.333313
C36	C	1.240685	0.761122	0.666646
C37	C	0.482243	-0.077852	-0.000034
C38	C	0.815577	0.255481	0.333299
C39	C	1.148910	0.588814	0.666633
C40	C	0.428587	-0.077201	-0.000031
C41	C	0.761921	0.256132	0.333302
C42	C	1.095254	0.589466	0.666635
C43	C	0.659035	-0.067981	-0.000042
C44	C	0.992369	0.265352	0.333291
C45	C	1.325702	0.598686	0.666624
C46	C	0.712691	-0.068632	-0.000049
C47	C	1.046025	0.264701	0.333284
C48	C	1.379358	0.598034	0.666618
C49	C	1.051433	-0.020675	-0.000022
C50	C	1.384766	0.312658	0.333312
C51	C	1.718099	0.645991	0.666645
C52	C	1.253096	-0.023092	-0.000020
C53	C	1.586429	0.310241	0.333313
C54	C	1.919763	0.643575	0.666646
O55	O	1.284284	0.020761	0.000012
O56	O	1.617617	0.354095	0.333345
O57	O	1.950951	0.687428	0.666678
N58	N	1.272300	-0.075327	-0.000029
N59	N	1.605633	0.258006	0.333304
N60	N	1.938967	0.591339	0.666638
C61	C	1.241085	-0.126962	-0.000034
C62	C	1.574418	0.206371	0.333299
C63	C	1.907751	0.539705	0.666633
O64	O	1.262046	-0.171447	-0.000035
O65	O	1.595380	0.161886	0.333298
O66	O	1.928713	0.495220	0.666632
C67	C	1.039422	-0.124545	-0.000031
C68	C	1.372756	0.208788	0.333302
C69	C	1.706089	0.542122	0.666635
C70	C	1.020221	-0.072306	-0.000029
C71	C	1.353555	0.261027	0.333305
C72	C	1.686888	0.594360	0.666638
C73	C	1.032231	0.031559	-0.000019
C74	C	1.365564	0.364892	0.333315
C75	C	1.698898	0.698226	0.666648
C76	C	0.981818	0.032163	-0.000022
C77	C	1.315151	0.365496	0.333311
C78	C	1.648485	0.698829	0.666644
C79	C	0.950607	-0.019468	-0.000029
C80	C	1.283940	0.313865	0.333304
C81	C	1.617274	0.647198	0.666637
C82	C	0.969809	-0.071703	-0.000032
C83	C	1.303142	0.261631	0.333301
C84	C	1.636475	0.594964	0.666634
C85	C	1.008208	-0.176179	-0.000032
C86	C	1.341542	0.157154	0.333301
C87	C	1.674875	0.490487	0.666635
C88	C	0.957790	-0.175570	-0.000030
C89	C	1.291123	0.157763	0.333304
C90	C	1.624457	0.491096	0.666637
C91	C	0.938589	-0.123332	-0.000027
C92	C	1.271922	0.210002	0.333306
C93	C	1.605256	0.543335	0.666639
C94	C	0.888184	-0.122730	-0.000043
C95	C	1.221518	0.210603	0.333290
C96	C	1.554851	0.543937	0.666624
N97	N	0.868980	-0.070495	-0.000034
N98	N	1.202314	0.262839	0.333299
N99	N	1.535647	0.596172	0.666632
C100	C	0.900192	-0.018864	-0.000028
C101	C	1.233525	0.314469	0.333306
C102	C	1.566858	0.647803	0.666639
C103	C	1.346961	-0.128227	-0.000037
C104	C	1.680294	0.205106	0.333297
C105	C	2.013628	0.538439	0.666630
C106	C	1.397376	-0.128832	-0.000038
C107	C	1.730710	0.204502	0.333295
C108	C	2.064043	0.537835	0.666628
C109	C	1.409384	-0.024961	-0.000023
C110	C	1.742717	0.308372	0.333310
C111	C	2.076051	0.641705	0.666643
C112	C	1.358968	-0.024358	-0.000026
C113	C	1.692301	0.308976	0.333307
C114	C	2.025634	0.642309	0.666641
C115	C	1.327757	-0.075992	-0.000028
C116	C	1.661090	0.257341	0.333305
C117	C	1.994423	0.590675	0.666639
C118	C	0.794320	-0.017600	-0.000036
C119	C	1.127654	0.315733	0.333297
C120	C	1.460987	0.649066	0.666631
C121	C	0.743903	-0.017001	-0.000042
C122	C	1.077236	0.316332	0.333291
C123	C	1.410569	0.649665	0.666625
C124	C	0.731899	-0.120871	-0.000054
C125	C	1.065233	0.212462	0.333280
C126	C	1.398566	0.545795	0.666613
C127	C	0.782313	-0.121471	-0.000051
C128	C	1.115646	0.211863	0.333283
C129	C	1.448979	0.545196	0.666616
C130	C	0.813523	-0.069831	-0.000040
C131	C	1.146856	0.263503	0.333294
C132	C	1.480189	0.596836	0.666627
O133	O	0.856968	-0.166560	-0.000068
O134	O	1.190301	0.166774	0.333265
O135	O	1.523634	0.500107	0.666599
O136	O	0.879221	0.025614	-0.000013
O137	O	1.212554	0.358948	0.333320
O138	O	1.545887	0.692281	0.666654
C139	C	1.101845	-0.021279	-0.000018
C140	C	1.435179	0.312054	0.333315
C141	C	1.768512	0.645388	0.666649
C142	C	1.121047	-0.073513	-0.000021
C143	C	1.454380	0.259820	0.333312
C144	C	1.787714	0.593153	0.666645
C145	C	1.089836	-0.125144	-0.000028
C146	C	1.423169	0.208189	0.333305
C147	C	1.756503	0.541522	0.666638
C148	C	1.171462	-0.074118	-0.000023
C149	C	1.504796	0.259215	0.333310
C150	C	1.838129	0.592549	0.666644
C151	C	1.202674	-0.022487	-0.000016
C152	C	1.536007	0.310846	0.333317
C153	C	1.869340	0.644180	0.666651
C154	C	1.183470	0.029748	-0.000007
C155	C	1.516803	0.363082	0.333326
C156	C	1.850136	0.696415	0.666659
C157	C	1.133057	0.030352	-0.000011
C158	C	1.466390	0.363685	0.333322
C159	C	1.799723	0.697019	0.666655
C160	C	1.109040	-0.177380	-0.000037
C161	C	1.442373	0.155954	0.333296
C162	C	1.775707	0.489287	0.666630
C163	C	1.159453	-0.177979	-0.000034
C164	C	1.492787	0.155354	0.333299
C165	C	1.826120	0.488688	0.666633
C166	C	1.190665	-0.126348	-0.000027
C167	C	1.523998	0.206985	0.333306
C168	C	1.857331	0.540319	0.666640
C169	C	0.566610	-0.177073	-0.000051
C170	C	0.899944	0.156260	0.333282
C171	C	1.233277	0.489594	0.666615
C172	C	0.567260	-0.240289	-0.000060
C173	C	0.900594	0.093045	0.333273
C174	C	1.233927	0.426378	0.666607
N175	N	0.570624	-0.072935	0.143767
N176	N	0.903957	0.260398	0.477100
N177	N	1.237290	0.593732	0.810433
C178	C	0.614108	0.493644	-0.000055
C179	C	0.947441	0.826977	0.333278
C180	C	1.280775	1.160311	0.666611
C181	C	0.613504	0.553043	-0.000060
C182	C	0.946837	0.886376	0.333274
C183	C	1.280171	1.219710	0.666607
O184	O	0.650668	0.589867	-0.000084
O185	O	0.984001	0.923200	0.333250
O186	O	1.317334	1.256534	0.666583
N187	N	0.569134	0.575574	-0.000058
N188	N	0.902468	0.908908	0.333276
N189	N	1.235801	1.242241	0.666609
C190	C	0.525365	0.538703	-0.000057
C191	C	0.858699	0.872037	0.333276
C192	C	1.192032	1.205370	0.666610
O193	O	0.487570	0.563322	-0.000056
O194	O	0.820903	0.896656	0.333277
O195	O	1.154237	1.229989	0.666610
C196	C	0.525970	0.479306	-0.000057
C197	C	0.859303	0.812639	0.333277
C198	C	1.192636	1.145972	0.666610
C199	C	0.570343	0.456778	-0.000053
C200	C	0.903676	0.790111	0.333281
C201	C	1.237009	1.123444	0.666614
C202	C	0.658477	0.471116	-0.000052
C203	C	0.991810	0.804449	0.333281
C204	C	1.325144	1.137782	0.666615
C205	C	0.659081	0.411721	-0.000046
C206	C	0.992414	0.745054	0.333287
C207	C	1.325747	1.078387	0.666621
C208	C	0.615315	0.374854	-0.000044
C209	C	0.948649	0.708188	0.333290
C210	C	1.281982	1.041521	0.666623
C211	C	0.570946	0.397383	-0.000047
C212	C	0.904279	0.730716	0.333286
C213	C	1.237613	1.064050	0.666620
C214	C	0.482201	0.442436	-0.000061
C215	C	0.815535	0.775769	0.333273
C216	C	1.148868	1.109102	0.666606
C217	C	0.482810	0.383035	-0.000061
C218	C	0.816143	0.716368	0.333273
C219	C	1.149476	1.049701	0.666606
C220	C	0.527182	0.360507	-0.000057
C221	C	0.860516	0.693840	0.333277
C222	C	1.193849	1.027173	0.666610
C223	C	0.527784	0.301122	-0.000039
C224	C	0.861118	0.634455	0.333294
C225	C	1.194451	0.967788	0.666628
N226	N	0.572154	0.278590	-0.000041
N227	N	0.905487	0.611924	0.333292
N228	N	1.238821	0.945257	0.666626
C229	C	0.615920	0.315457	-0.000044
C230	C	0.949253	0.648790	0.333290
C231	C	1.282586	0.982123	0.666623
C232	C	0.524100	0.663443	-0.000059
C233	C	0.857433	0.996777	0.333275
C234	C	1.190766	1.330110	0.666608
C235	C	0.523495	0.722840	-0.000055
C236	C	0.856828	1.056173	0.333279
C237	C	1.190161	1.389507	0.666612
C238	C	0.611634	0.737175	-0.000058
C239	C	0.944967	1.070509	0.333275
C240	C	1.278300	1.403842	0.666608
C241	C	0.612238	0.677778	-0.000058
C242	C	0.945571	1.011111	0.333275
C243	C	1.278905	1.344444	0.666609
C244	C	0.568469	0.640912	-0.000061
C245	C	0.901803	0.974245	0.333273
C246	C	1.235136	1.307579	0.666606
C247	C	0.617184	0.190723	-0.000031
C248	C	0.950517	0.524056	0.333302
C249	C	1.283851	0.857389	0.666636
C250	C	0.617784	0.131322	-0.000023
C251	C	0.951117	0.464655	0.333311
C252	C	1.284450	0.797988	0.666644
C253	C	0.529645	0.116991	-0.000022
C254	C	0.862978	0.450325	0.333311
C255	C	1.196312	0.783658	0.666645
C256	C	0.529045	0.176387	-0.000027
C257	C	0.862378	0.509720	0.333306
C258	C	1.195712	0.843054	0.666640
C259	C	0.572818	0.213252	-0.000034
C260	C	0.906152	0.546585	0.333300
C261	C	1.239485	0.879918	0.666633
O262	O	0.490640	0.264263	-0.000018
O263	O	0.823974	0.597596	0.333316
O264	O	1.157307	0.930930	0.666649
O265	O	0.653709	0.290829	-0.000052
O266	O	0.987042	0.624163	0.333281
O267	O	1.320376	0.957496	0.666614
N268	N	0.570659	-0.072894	-0.143842
N269	N	0.903992	0.260440	0.189491
N270	N	1.237326	0.593773	0.522825
C271	C	0.603697	-0.033907	0.563550
C272	C	0.937031	0.299427	0.896883
C273	C	1.270364	0.632760	1.230216
C274	C	0.603699	-0.033903	0.627157
C275	C	0.937033	0.299430	0.960491
C276	C	1.270366	0.632764	1.293824
O277	O	0.631800	-0.000727	0.660052
O278	O	0.965134	0.332606	0.993385
O279	O	1.298467	0.665940	1.326719
N280	N	0.570647	-0.072897	0.658974
N281	N	0.903980	0.260437	0.992307
N282	N	1.237314	0.593770	1.325641
C283	C	0.537587	-0.111893	0.627179
C284	C	0.870920	0.221440	0.960513
C285	C	1.204254	0.554773	1.293846
O286	O	0.509474	-0.145060	0.660083
O287	O	0.842807	0.188273	0.993416
O288	O	1.176140	0.521607	1.326749
C289	C	0.537583	-0.111894	0.563573
C290	C	0.870916	0.221439	0.896906
C291	C	1.204250	0.554773	1.230240
C292	C	0.570641	-0.072901	0.531760
C293	C	0.903974	0.260432	0.865093
C294	C	1.237307	0.593765	1.198427
C295	C	0.636752	0.005083	0.531737
C296	C	0.970085	0.338416	0.865070
C297	C	1.303419	0.671750	1.198403
C298	C	0.636750	0.005078	0.468133
C299	C	0.970083	0.338412	0.801467
C300	C	1.303417	0.671745	1.134800
C301	C	0.603694	-0.033916	0.436343
C302	C	0.937027	0.299417	0.769677
C303	C	1.270360	0.632750	1.103010
C304	C	0.570639	-0.072906	0.468157
C305	C	0.903972	0.260427	0.801490
C306	C	1.237306	0.593760	1.134823
C307	C	0.504521	-0.150888	0.531780
C308	C	0.837854	0.182446	0.865113
C309	C	1.171188	0.515779	1.198446
C310	C	0.504520	-0.150885	0.468169
C311	C	0.837853	0.182449	0.801502
C312	C	1.171186	0.515782	1.134836
C313	C	0.537577	-0.111892	0.436356
C314	C	0.870911	0.221441	0.769689
C315	C	1.204244	0.554775	1.103022
C316	C	0.537581	-0.111906	0.372763
C317	C	0.870914	0.221428	0.706097
C318	C	1.204247	0.554761	1.039430
N319	N	0.570633	-0.072912	0.340947
N320	N	0.903966	0.260422	0.674280
N321	N	1.237300	0.593755	1.007614
C322	C	0.603689	-0.033917	0.372737
C323	C	0.937023	0.299416	0.706070
C324	C	1.270356	0.632750	1.039404
C325	C	0.537598	-0.111888	0.760757
C326	C	0.870931	0.221445	1.094091
C327	C	1.204265	0.554779	1.427424
C328	C	0.537604	-0.111891	0.824363
C329	C	0.870937	0.221443	1.157696
C330	C	1.204271	0.554776	1.491029
C331	C	0.603716	-0.033899	0.824336
C332	C	0.937049	0.299434	1.157669
C333	C	1.270382	0.632768	1.491003
C334	C	0.603712	-0.033900	0.760730
C335	C	0.937045	0.299433	1.094063
C336	C	1.270378	0.632767	1.427396
C337	C	0.570650	-0.072894	0.728941
C338	C	0.903984	0.260439	1.062274
C339	C	1.237317	0.593772	1.395607
C340	C	0.603683	-0.033930	0.239166
C341	C	0.937017	0.299403	0.572499
C342	C	1.270350	0.632736	0.905832
C343	C	0.603680	-0.033940	0.175557
C344	C	0.937013	0.299393	0.508890
C345	C	1.270347	0.632726	0.842223
C346	C	0.537567	-0.111929	0.175589
C347	C	0.870900	0.221404	0.508922
C348	C	1.204233	0.554737	0.842255
C349	C	0.537572	-0.111922	0.239192
C350	C	0.870905	0.221411	0.572525
C351	C	1.204238	0.554745	0.905859
C352	C	0.570632	-0.072918	0.270979
C353	C	0.903965	0.260416	0.604312
C354	C	1.237299	0.593749	0.937646
O355	O	0.509493	-0.145063	0.339829
O356	O	0.842826	0.188270	0.673162
O357	O	1.176160	0.521604	1.006495
O358	O	0.631794	-0.000751	0.339826
O359	O	0.965127	0.332582	0.673159
O360	O	1.298461	0.665916	1.006493
H361	H	0.728272	0.025540	-0.000042
H362	H	1.061606	0.358873	0.333292
H363	H	1.394939	0.692206	0.666625
H364	H	1.208891	0.071788	-0.000005
H365	H	1.542224	0.405121	0.333328
H366	H	1.875558	0.738455	0.666661
H367	H	0.477595	-0.182638	0.442290
H368	H	0.810929	0.150695	0.775623
H369	H	1.144262	0.484029	1.108956
H370	H	0.630630	-0.002148	0.734831
H371	H	0.963963	0.331185	1.068164
H372	H	1.297296	0.664518	1.401498
H373	H	0.487362	0.741176	-0.000047
H374	H	0.820695	1.074510	0.333286
H375	H	1.154029	1.407843	0.666619
H376	H	1.413005	-0.171370	-0.000049
H377	H	1.746338	0.161964	0.333284
H378	H	2.079672	0.495297	0.666618
C379	C	0.434663	0.342485	-0.000061
C380	C	0.767996	0.675819	0.333272
C381	C	1.101330	1.009152	0.666605
H382	H	0.408153	0.364413	-0.000059
H383	H	0.741486	0.697747	0.333274
H384	H	1.074820	1.031080	0.666607
H385	H	0.433071	0.319013	-0.035297
H386	H	0.766404	0.652347	0.298036
H387	H	1.099737	0.985680	0.631369
H388	H	0.433059	0.319019	0.035184
H389	H	0.766393	0.652353	0.368517
H390	H	1.099726	0.985686	0.701851
C391	C	0.640073	0.009000	0.859313
C392	C	0.973406	0.342334	1.192647
C393	C	1.306740	0.675667	1.525980
H394	H	0.635334	0.003418	0.901750
H395	H	0.968668	0.336751	1.235084
H396	H	1.302001	0.670084	1.568417
H397	H	0.672304	0.003083	0.848885
H398	H	1.005637	0.336416	1.182218
H399	H	1.338971	0.669749	1.515551
H400	H	0.635001	0.046969	0.848890
H401	H	0.968334	0.380302	1.182224
H402	H	1.301668	0.713636	1.515557
H403	H	0.663670	0.036840	0.557614
H404	H	0.997004	0.370173	0.890948
H405	H	1.330337	0.703507	1.224281
C406	C	0.433391	0.467203	-0.000070
C407	C	0.766724	0.800537	0.333263
C408	C	1.100057	1.133870	0.666597
H409	H	0.407417	0.436733	-0.000077
H410	H	0.740750	0.770066	0.333257
H411	H	1.074083	1.103399	0.666590
H412	H	0.431309	0.490078	0.035165
H413	H	0.764642	0.823411	0.368498
H414	H	1.097976	1.156745	0.701832
H415	H	0.431329	0.490072	-0.035316
H416	H	0.764662	0.823406	0.298017
H417	H	1.097995	1.156739	0.631350
H418	H	1.117428	0.072890	-0.000009
H419	H	1.450762	0.406223	0.333324
H420	H	1.784095	0.739557	0.666658
H421	H	0.797947	-0.164008	-0.000054
H422	H	1.131280	0.169326	0.333280
H423	H	1.464613	0.502659	0.666613
H424	H	0.706478	-0.162908	-0.000063
H425	H	1.039812	0.170425	0.333271
H426	H	1.373145	0.503759	0.666604
C427	C	0.468161	-0.193785	0.566761
C428	C	0.801494	0.139548	0.900094
C429	C	1.134828	0.472882	1.233427
H430	H	0.448474	-0.217003	0.538709
H431	H	0.781808	0.116331	0.872042
H432	H	1.115141	0.449664	1.205376
H433	H	0.485434	-0.217354	0.591566
H434	H	0.818767	0.115979	0.924899
H435	H	1.152101	0.449312	1.258233
H436	H	0.448135	-0.173463	0.591580
H437	H	0.781469	0.159870	0.924913
H438	H	1.114802	0.493204	1.258247
H439	H	0.647270	0.767203	-0.000063
H440	H	0.980603	1.100537	0.333271
H441	H	1.313937	1.433870	0.666604
C442	C	0.666596	0.106545	-0.000022
C443	C	0.999929	0.439878	0.333311
C444	C	1.333262	0.773211	0.666645
H445	H	0.692573	0.137011	-0.000031
H446	H	1.025906	0.470345	0.333303
H447	H	1.359240	0.803678	0.666636
H448	H	0.668661	0.083673	0.035218
H449	H	1.001995	0.417007	0.368551
H450	H	1.335328	0.750340	0.701884
H451	H	0.668668	0.083671	-0.035264
H452	H	1.002001	0.417004	0.298070
H453	H	1.335334	0.750338	0.631403
C454	C	0.481506	0.076434	-0.000023
C455	C	0.814839	0.409767	0.333310
C456	C	1.148172	0.743101	0.666643
H457	H	0.454991	0.098354	-0.000023
H458	H	0.788324	0.431688	0.333311
H459	H	1.121658	0.765021	0.666644
H460	H	0.479920	0.052965	-0.035261
H461	H	0.813254	0.386298	0.298072
H462	H	1.146587	0.719632	0.631405
H463	H	0.479904	0.052965	0.035220
H464	H	0.813237	0.386299	0.368553
H465	H	1.146570	0.719632	0.701887
C466	C	1.443722	0.031831	-0.000011
C467	C	1.777056	0.365165	0.333322
C468	C	2.110389	0.698498	0.666656
H469	H	1.476496	0.023985	-0.000007
H470	H	1.809830	0.357318	0.333326
H471	H	2.143163	0.690652	0.666659
H472	H	1.437938	0.053281	-0.035243
H473	H	1.771271	0.386615	0.298091
H474	H	2.104604	0.719948	0.631424
H475	H	1.437923	0.053259	0.035239
H476	H	1.771256	0.386593	0.368572
H477	H	2.104590	0.719926	0.701905
C478	C	0.960703	0.089626	-0.000008
C479	C	1.294037	0.422959	0.333325
C480	C	1.627370	0.756292	0.666658
H481	H	0.986518	0.120284	0.000003
H482	H	1.319851	0.453617	0.333337
H483	H	1.653184	0.786951	0.666670
H484	H	0.941291	0.092034	-0.035244
H485	H	1.274624	0.425368	0.298089
H486	H	1.607957	0.758701	0.631423
H487	H	0.941283	0.092014	0.035238
H488	H	1.274616	0.425348	0.368571
H489	H	1.607950	0.758681	0.701904
C490	C	0.923461	-0.232370	-0.000038
C491	C	1.256794	0.100963	0.333295
C492	C	1.590127	0.434297	0.666629
H493	H	0.942120	-0.263564	-0.000045
H494	H	1.275454	0.069769	0.333288
H495	H	1.608787	0.403103	0.666622
H496	H	0.903535	-0.234301	0.035198
H497	H	1.236868	0.099032	0.368531
H498	H	1.570202	0.432366	0.701864
H499	H	0.903553	-0.234289	-0.035284
H500	H	1.236887	0.099044	0.298049
H501	H	1.570220	0.432377	0.631383
H502	H	0.510658	-0.143679	0.265095
H503	H	0.843991	0.189655	0.598428
H504	H	1.177324	0.522988	0.931762
H505	H	0.492913	0.194730	-0.000013
H506	H	0.826247	0.528063	0.333320
H507	H	1.159580	0.861396	0.666653
C508	C	0.640043	0.008956	0.140566
C509	C	0.973376	0.342289	0.473899
C510	C	1.306710	0.675622	0.807232
H511	H	0.659726	0.032183	0.168612
H512	H	0.993059	0.365517	0.501946
H513	H	1.326392	0.698850	0.835279
H514	H	0.660065	-0.011367	0.115748
H515	H	0.993398	0.321966	0.449081
H516	H	1.326732	0.655300	0.782414
H517	H	0.622766	0.032524	0.115758
H518	H	0.956100	0.365857	0.449091
H519	H	1.289433	0.699191	0.782425
C520	C	0.501234	-0.154792	0.725795
C521	C	0.834568	0.178541	1.059128
C522	C	1.167901	0.511874	1.392461
H523	H	0.481556	-0.178016	0.753858
H524	H	0.814889	0.155317	1.087191
H525	H	1.148223	0.488650	1.420524
H526	H	0.481208	-0.134475	0.700986
H527	H	0.814541	0.198858	1.034320
H528	H	1.147875	0.532192	1.367653
H529	H	0.518509	-0.178363	0.700980
H530	H	0.851843	0.154970	1.034313
H531	H	1.185176	0.488303	1.367646
C532	C	0.828644	0.039202	-0.000032
C533	C	1.161977	0.372536	0.333301
C534	C	1.495311	0.705869	0.666634
H535	H	0.809981	0.070394	-0.000038
H536	H	1.143315	0.403727	0.333296
H537	H	1.476648	0.737060	0.666629
H538	H	0.848557	0.041131	0.035205
H539	H	1.181891	0.374465	0.368538
H540	H	1.515224	0.707798	0.701871
H541	H	0.848564	0.041129	-0.035277
H542	H	1.181898	0.374462	0.298057
H543	H	1.515231	0.707795	0.631390
C544	C	0.665333	0.231265	-0.000033
C545	C	0.998667	0.564599	0.333300
C546	C	1.332000	0.897932	0.666634
H547	H	0.691841	0.209334	-0.000024
H548	H	1.025175	0.542667	0.333309
H549	H	1.358508	0.876000	0.666642
H550	H	0.666942	0.254735	-0.035272
H551	H	1.000275	0.588068	0.298062
H552	H	1.333608	0.921402	0.631395
H553	H	0.666925	0.254734	0.035210
H554	H	1.000259	0.588067	0.368543
H555	H	1.333592	0.921400	0.701876
C556	C	1.180569	-0.235445	-0.000035
C557	C	1.513902	0.097888	0.333298
C558	C	1.847235	0.431221	0.666631
H559	H	1.154756	-0.266106	-0.000034
H560	H	1.488089	0.067228	0.333300
H561	H	1.821422	0.400561	0.666633
H562	H	1.199995	-0.237844	-0.035270
H563	H	1.533328	0.095490	0.298063
H564	H	1.866662	0.428823	0.631397
H565	H	1.199976	-0.237842	0.035212
H566	H	1.533309	0.095491	0.368545
H567	H	1.866642	0.428824	0.701878
H568	H	0.630604	-0.002169	0.265039
H569	H	0.963937	0.331164	0.598373
H570	H	1.297270	0.664498	0.931706
C571	C	0.673108	0.047977	0.433147
C572	C	1.006442	0.381311	0.766480
C573	C	1.339775	0.714644	1.099813
H574	H	0.692789	0.071203	0.461197
H575	H	1.026123	0.404536	0.794530
H576	H	1.359456	0.737869	1.127864
H577	H	0.693133	0.027660	0.408325
H578	H	1.026466	0.360993	0.741659
H579	H	1.359799	0.694327	1.074992
H580	H	0.655830	0.071547	0.408343
H581	H	0.989164	0.404880	0.741676
H582	H	1.322497	0.738214	1.075009
H583	H	0.510690	-0.143648	0.850260
H584	H	0.844024	0.189685	1.183594
H585	H	1.177357	0.523019	1.516927
C586	C	1.074714	-0.234177	-0.000050
C587	C	1.408047	0.099156	0.333284
C588	C	1.741381	0.432490	0.666617
H589	H	1.093376	-0.265369	-0.000059
H590	H	1.426709	0.067965	0.333274
H591	H	1.760043	0.401298	0.666607
H592	H	1.054787	-0.236113	0.035185
H593	H	1.388120	0.097220	0.368518
H594	H	1.721454	0.430554	0.701852
H595	H	1.054807	-0.236095	-0.035296
H596	H	1.388141	0.097238	0.298037
H597	H	1.721474	0.430571	0.631370
C598	C	0.707890	0.386945	-0.000045
C599	C	1.041223	0.720278	0.333288
C600	C	1.374556	1.053611	0.666621
H601	H	0.701988	0.346289	-0.000038
H602	H	1.035322	0.679622	0.333295
H603	H	1.368655	1.012956	0.666628
H604	H	0.725902	0.399627	-0.035284
H605	H	1.059235	0.732961	0.298049
H606	H	1.392568	1.066294	0.631382
H607	H	0.725890	0.399629	0.035197
H608	H	1.059224	0.732963	0.368531
H609	H	1.392557	1.066296	0.701864
H610	H	0.488456	0.633430	-0.000056
H611	H	0.821789	0.966763	0.333278
H612	H	1.155122	1.300096	0.666611
C613	C	0.501204	-0.154816	0.140612
C614	C	0.834538	0.178517	0.473945
C615	C	1.167871	0.511850	0.807278
H616	H	0.505936	-0.149226	0.098175
H617	H	0.839269	0.184108	0.431508
H618	H	1.172603	0.517441	0.764841
H619	H	0.506262	-0.192788	0.151030
H620	H	0.839595	0.140546	0.484363
H621	H	1.172929	0.473879	0.817697
H622	H	0.468975	-0.148882	0.151045
H623	H	0.802309	0.184451	0.484378
H624	H	1.135642	0.517785	0.817712
H625	H	1.057639	0.073606	-0.000011
H626	H	1.390972	0.406939	0.333322
H627	H	1.724306	0.740272	0.666656
H628	H	0.648370	0.659440	-0.000055
H629	H	0.981703	0.992773	0.333278
H630	H	1.315037	1.326107	0.666611
C631	C	0.706622	0.511663	-0.000056
C632	C	1.039956	0.844996	0.333277
C633	C	1.373289	1.178329	0.666611
H634	H	0.699916	0.550268	-0.000061
H635	H	1.033249	0.883601	0.333272
H636	H	1.366583	1.216934	0.666606
H637	H	0.724822	0.504869	0.035182
H638	H	1.058155	0.838202	0.368515
H639	H	1.391489	1.171536	0.701848
H640	H	0.724830	0.504869	-0.035300
H641	H	1.058164	0.838203	0.298034
H642	H	1.391497	1.171536	0.631367
C643	C	1.337851	0.033104	-0.000017
C644	C	1.671184	0.366437	0.333316
C645	C	2.004517	0.699771	0.666649
H646	H	1.363664	0.063764	-0.000010
H647	H	1.696997	0.397098	0.333323
H648	H	2.030330	0.730431	0.666656
H649	H	1.318437	0.035507	-0.035253
H650	H	1.651770	0.368841	0.298080
H651	H	1.985104	0.702174	0.631414
H652	H	1.318431	0.035496	0.035228
H653	H	1.651764	0.368829	0.368562
H654	H	1.985098	0.702163	0.701895
H655	H	1.321553	-0.170277	-0.000039
H656	H	1.654886	0.163056	0.333294
H657	H	1.988219	0.496390	0.666628
H658	H	1.023832	-0.218718	-0.000037
H659	H	1.357166	0.114616	0.333297
H660	H	1.690499	0.447949	0.666630
