data_functionalizedCrystal
_audit_creation_method	'MofGen! by Chris Wilmer'
_symmetry_space_group_name_H-M	'P1'
_symmetry_Int_Tables_number	1
_symmetry_cell_setting	triclinic
loop_
_symmetry_equiv_pos_as_xyz
  x,y,z
_cell_length_a	15.944564
_cell_length_b	11.026607
_cell_length_c	9.482900
_cell_angle_alpha	78.599815
_cell_angle_beta	99.286246
_cell_angle_gamma	96.044976
loop_
_atom_site_label
_atom_site_type_symbol
_atom_site_fract_x
_atom_site_fract_y
_atom_site_fract_z
O1	O	-1.148393	-0.137612	-0.120735
O2	O	-0.648393	0.362388	0.379265
O3	O	-0.906763	-0.156887	-0.120771
O4	O	-0.406763	0.343113	0.379229
O5	O	-1.007551	0.029406	-0.120751
O6	O	-0.507551	0.529406	0.379249
O7	O	-1.047605	-0.323905	-0.120755
O8	O	-0.547605	0.176095	0.379245
O9	O	-0.987102	-0.008586	0.121038
O10	O	-0.487102	0.491414	0.621038
O11	O	-0.886313	-0.194879	0.121018
O12	O	-0.386313	0.305121	0.621018
O13	O	-1.127944	-0.175604	0.121053
O14	O	-0.627944	0.324396	0.621053
Cu15	Cu	-1.005261	-0.188711	0.143113
Cu16	Cu	-0.505261	0.311289	0.643113
Cu17	Cu	-1.029445	-0.143780	-0.142830
Cu18	Cu	-0.529445	0.356220	0.357170
O19	O	-1.027155	-0.361897	0.121033
O20	O	-0.527155	0.138103	0.621033
C21	C	-0.865123	-0.175079	0.000119
C22	C	-0.365123	0.324921	0.500119
C23	C	-0.771515	-0.172669	0.000105
C24	C	-0.271515	0.327331	0.500105
C25	C	-0.989938	0.055622	0.000141
C26	C	-0.489938	0.555622	0.500141
C27	C	-0.967912	0.190341	0.000132
C28	C	-0.467912	0.690341	0.500132
N29	N	-0.988258	-0.220311	0.344229
N30	N	-0.488258	0.279689	0.844229
C31	C	-0.538330	-0.051439	0.000135
C32	C	-0.038330	0.448561	0.500135
C33	C	-0.495902	-0.088993	-0.119080
C34	C	0.004098	0.411007	0.380920
C35	C	-0.600130	-0.168316	0.000123
C36	C	-0.100130	0.331684	0.500123
C37	C	-0.475767	-0.126478	0.119304
C38	C	0.024233	0.373522	0.619304
C39	C	-0.434579	-0.164103	0.000146
C40	C	0.065421	0.335897	0.500146
C41	C	-0.558943	-0.205887	-0.119191
C42	C	-0.058943	0.294113	0.380809
C43	C	-0.538803	-0.243373	0.119300
C44	C	-0.038803	0.256627	0.619300
C45	C	-0.496407	-0.281008	0.000056
C46	C	0.003593	0.218992	0.500056
C47	C	-0.695500	-0.170739	0.000108
C48	C	-0.195500	0.329261	0.500108
C49	C	-0.339213	-0.161687	0.000150
C50	C	0.160787	0.338313	0.500150
C51	C	-0.169583	-0.157395	0.000160
C52	C	0.330417	0.342605	0.500160
C53	C	-0.263189	-0.159754	0.000164
C54	C	0.236811	0.340246	0.500164
C55	C	-1.044769	-0.388113	0.000139
C56	C	-0.544769	0.111887	0.500139
C57	C	-1.066796	-0.522830	0.000137
C58	C	-0.566796	-0.022830	0.500137
C59	C	-1.028731	0.264137	0.000139
C60	C	-0.528731	0.764137	0.500139
C61	C	-1.005968	0.403376	0.000131
C62	C	-0.505968	0.903376	0.500131
N63	N	-1.046454	-0.112170	-0.343947
N64	N	-0.546454	0.387830	0.156053
C65	C	-1.024423	-0.153095	0.416436
C66	C	-0.524423	0.346905	0.916436
C67	C	-1.010283	-0.179397	0.583850
C68	C	-0.510283	0.320603	1.083850
H69	H	-0.557013	0.045579	-0.000011
H70	H	-0.057013	0.545579	0.499989
H71	H	-0.439681	-0.092858	0.220088
H72	H	0.060319	0.407142	0.720088
H73	H	-0.557876	-0.308604	0.220092
H74	H	-0.057876	0.191396	0.720092
Cl75	Cl	-1.088160	-0.033909	0.320535
Cl76	Cl	-0.588160	0.466091	0.820535
H77	H	-1.097653	0.224232	0.000158
H78	H	-0.597653	0.724232	0.500158
H79	H	-0.937041	0.443275	0.000111
H80	H	-0.437041	0.943275	0.500111
H81	H	-0.968846	-0.256416	0.645967
H82	H	-0.468846	0.243584	1.145967
H83	H	-0.946823	-0.297326	0.406351
H84	H	-0.446823	0.202674	0.906351
H85	H	-0.594931	-0.239431	-0.220088
H86	H	-0.094931	0.260569	0.279912
H87	H	-0.898990	0.230246	0.000113
H88	H	-0.398990	0.730246	0.500113
Cl89	Cl	-1.110643	0.006491	0.560162
Cl90	Cl	-0.610643	0.506491	1.060162
Cl91	Cl	-1.173216	0.415584	0.000146
Cl92	Cl	-0.673216	0.915584	0.500146
Cl93	Cl	-0.467877	-0.430896	-0.000044
Cl94	Cl	0.032123	0.069104	0.499956
Cl95	Cl	-0.466478	0.011776	-0.274690
Cl96	Cl	0.033522	0.511776	0.225310
