data_functionalizedCrystal
_audit_creation_method	'MofGen! by Chris Wilmer'
_symmetry_space_group_name_H-M	'P1'
_symmetry_Int_Tables_number	1
_symmetry_cell_setting	triclinic
loop_
_symmetry_equiv_pos_as_xyz
  x,y,z
_cell_length_a	14.519731
_cell_length_b	14.519709
_cell_length_c	7.681481
_cell_angle_alpha	95.753692
_cell_angle_beta	84.265469
_cell_angle_gamma	83.684499
loop_
_atom_site_label
_atom_site_type_symbol
_atom_site_fract_x
_atom_site_fract_y
_atom_site_fract_z
O1	O	1.215150	0.129701	0.146437
O2	O	1.715150	0.629701	0.646437
O3	O	0.946675	0.143918	0.146441
O4	O	1.446675	0.643918	0.646441
O5	O	1.088031	0.002571	0.146423
O6	O	1.588031	0.502571	0.646423
O7	O	1.073793	0.271048	0.146455
O8	O	1.573793	0.771048	0.646455
O9	O	1.105430	-0.014866	-0.146437
O10	O	1.605430	0.485134	0.353563
O11	O	0.964074	0.126481	-0.146419
O12	O	1.464074	0.626481	0.353581
O13	O	1.232548	0.112265	-0.146422
O14	O	1.732548	0.612265	0.353578
Zn15	Zn	1.101073	0.116604	-0.192919
Zn16	Zn	1.601073	0.616604	0.307081
Zn17	Zn	1.078150	0.139578	0.192937
Zn18	Zn	1.578150	0.639578	0.692937
O19	O	1.091192	0.253612	-0.146405
O20	O	1.591192	0.753612	0.353595
C21	C	0.921015	0.134533	0.000011
C22	C	1.421015	0.634533	0.500011
C23	C	0.818635	0.132537	0.000012
C24	C	1.318635	0.632537	0.500012
C25	C	1.096067	-0.040508	-0.000007
C26	C	1.596067	0.459492	0.499993
C27	C	1.094079	-0.142889	-0.000008
C28	C	1.594079	0.357111	0.499992
C29	C	0.735490	0.130916	0.000019
C30	C	1.235490	0.630916	0.500019
C31	C	0.631181	0.128889	0.000019
C32	C	1.131181	0.628889	0.500019
C33	C	0.548042	0.127281	0.000019
C34	C	1.048042	0.627281	0.500019
C35	C	0.443727	0.125254	0.000022
C36	C	0.943727	0.625254	0.500022
C37	C	1.086757	-0.517783	0.000038
C38	C	1.586757	-0.017783	0.500038
C39	C	1.088790	-0.413475	0.000024
C40	C	1.588790	0.086525	0.500024
C41	C	1.090418	-0.330339	0.000013
C42	C	1.590418	0.169661	0.500013
C43	C	1.092452	-0.226025	0.000003
C44	C	1.592452	0.273975	0.500003
C45	C	1.258208	0.121649	0.000011
C46	C	1.758208	0.621649	0.500011
C47	C	1.360588	0.123646	0.000022
C48	C	1.860588	0.623646	0.500022
C49	C	1.083156	0.296690	0.000029
C50	C	1.583156	0.796690	0.500029
C51	C	1.085143	0.399072	0.000042
C52	C	1.585143	0.899072	0.500042
N53	N	1.116725	0.100925	-0.456255
N54	N	1.616725	0.600925	0.043745
N55	N	1.062506	0.155250	0.456273
N56	N	1.562506	0.655250	0.956273
H57	H	1.172081	0.045477	-0.531468
H58	H	1.672081	0.545477	-0.031468
H59	H	1.007160	0.210701	-0.468523
H60	H	1.507160	0.710701	0.031477
