data_functionalizedCrystal
_audit_creation_method	'MofGen! by Chris Wilmer'
_symmetry_space_group_name_H-M	'P1'
_symmetry_Int_Tables_number	1
_symmetry_cell_setting	triclinic
loop_
_symmetry_equiv_pos_as_xyz
  x,y,z
_cell_length_a	16.992694
_cell_length_b	14.044220
_cell_length_c	15.455313
_cell_angle_alpha	92.908275
_cell_angle_beta	87.142206
_cell_angle_gamma	91.928550
loop_
_atom_site_label
_atom_site_type_symbol
_atom_site_fract_x
_atom_site_fract_y
_atom_site_fract_z
O1	O	1.057683	0.198159	-0.072025
O2	O	0.829244	0.195941	-0.072050
O3	O	0.940034	0.058806	-0.072029
O4	O	0.946893	0.335294	-0.072046
O5	O	0.933696	0.066614	0.072232
O6	O	0.822906	0.203749	0.072211
O7	O	1.051345	0.205967	0.072236
Cu8	Cu	0.936547	0.205571	0.085396
Cu9	Cu	0.944042	0.196337	-0.085210
O10	O	0.940555	0.343102	0.072215
C11	C	0.796663	0.196993	0.000077
C12	C	0.709024	0.188484	0.000068
C13	C	0.664526	0.270581	0.000063
C14	C	0.582179	0.262581	0.000076
C15	C	0.544332	0.172483	0.000086
C16	C	0.588836	0.090381	0.000093
C17	C	0.671181	0.098382	0.000087
C18	C	0.298414	0.139322	0.000112
C19	C	0.216063	0.131327	0.000115
C20	C	0.209411	0.303528	0.000100
C21	C	0.291759	0.311521	0.000088
C22	C	0.336255	0.229419	0.000099
N23	N	0.460161	0.164304	0.000096
N24	N	0.420425	0.237599	0.000096
C25	C	0.933863	0.027168	0.000101
C26	C	0.924909	-0.078736	0.000101
C27	C	0.908540	-0.272638	0.000087
C28	C	0.972046	-0.325460	0.000092
C29	C	0.962938	-0.433354	0.000084
C30	C	0.917647	-0.164734	0.000095
C31	C	1.083926	0.204915	0.000107
C32	C	1.171565	0.213424	0.000111
C33	C	0.946726	0.374740	0.000083
C34	C	0.955680	0.480644	0.000077
N35	N	0.931281	0.212065	0.205390
N36	N	0.949314	0.189836	-0.205204
C37	C	0.978368	0.153829	0.250793
C38	C	0.974393	0.158750	0.341600
C39	C	0.923335	0.221911	0.387003
C40	C	0.876243	0.280149	0.341594
C41	C	0.880214	0.275223	0.250788
C42	C	0.906193	0.243148	0.658581
C43	C	0.902227	0.248072	0.749393
C44	C	1.000377	0.126671	0.749394
C45	C	1.004347	0.121754	0.658586
C46	C	0.957251	0.179989	0.613185
N47	N	0.919273	0.226945	0.479822
N48	N	0.961310	0.174950	0.520367
H49	H	0.707411	0.031530	0.000090
H50	H	0.545952	0.329433	0.000072
C51	C	0.825856	-0.321004	0.000085
H52	H	0.830505	-0.388227	0.000090
H53	H	0.800230	-0.305040	-0.050219
H54	H	0.795826	-0.299603	0.050401
C55	C	1.034531	0.084350	0.200858
H56	H	1.061999	0.050365	0.240908
H57	H	1.071291	0.119212	0.165423
H58	H	1.004944	0.040589	0.165448
H59	H	0.185251	0.057956	0.000123
H60	H	0.841869	0.322643	0.213822
H61	H	0.695334	0.343947	0.000054
H62	H	0.334634	0.072468	0.000121
H63	H	0.867847	0.290567	0.621622
H64	H	0.322568	0.384887	0.000070
C65	C	0.160464	0.393833	0.000098
H66	H	0.106001	0.376168	0.000111
H67	H	0.174793	0.427801	-0.050210
H68	H	0.170391	0.433238	0.050410
C69	C	1.026197	0.094700	0.391540
H70	H	1.057183	0.056389	0.351495
H71	H	0.993527	0.054780	0.426976
H72	H	1.059858	0.133424	0.426950
H73	H	1.045922	0.070323	0.621622
C74	C	0.547207	-0.008724	0.000103
H75	H	0.491793	-0.001734	0.000097
H76	H	0.559865	-0.040069	0.050411
H77	H	0.564275	-0.045510	-0.050210
H78	H	0.860647	0.299509	0.786355
C79	C	1.052169	0.062610	0.799337
H80	H	1.042488	0.074581	0.859920
H81	H	1.106153	0.076168	0.784446
H82	H	1.039803	-0.002452	0.784464
C83	C	1.054736	-0.277097	0.000111
H84	H	1.093384	-0.324430	0.000109
H85	H	1.058707	-0.235801	0.050422
H86	H	1.063135	-0.241232	-0.050198
H87	H	0.834666	0.331573	0.378565
