data_functionalizedCrystal
_audit_creation_method	'MofGen! by Chris Wilmer'
_symmetry_space_group_name_H-M	'P1'
_symmetry_Int_Tables_number	1
_symmetry_cell_setting	triclinic
loop_
_symmetry_equiv_pos_as_xyz
  x,y,z
_cell_length_a	23.532355
_cell_length_b	27.732048
_cell_length_c	22.010155
_cell_angle_alpha	89.999275
_cell_angle_beta	89.997414
_cell_angle_gamma	82.735077
loop_
_atom_site_label
_atom_site_type_symbol
_atom_site_fract_x
_atom_site_fract_y
_atom_site_fract_z
O1	O	0.755158	0.058552	-0.050449
O2	O	1.088491	0.391886	0.282884
O3	O	1.421825	0.725219	0.616218
O4	O	0.589272	0.067069	-0.050469
O5	O	0.922605	0.400402	0.282864
O6	O	1.255939	0.733736	0.616197
O7	O	0.677367	-0.007579	-0.050447
O8	O	1.010700	0.325754	0.282886
O9	O	1.344034	0.659088	0.616220
O10	O	0.667063	0.133200	-0.050471
O11	O	1.000396	0.466534	0.282862
O12	O	1.333730	0.799867	0.616195
O13	O	0.677351	-0.007568	0.050603
O14	O	1.010684	0.325766	0.383937
O15	O	1.344018	0.659099	0.717270
O16	O	0.589256	0.067080	0.050581
O17	O	0.922589	0.400414	0.383914
O18	O	1.255923	0.733747	0.717248
O19	O	0.755142	0.058564	0.050601
O20	O	1.088475	0.391897	0.383935
O21	O	1.421809	0.725230	0.717268
Cu22	Cu	0.672198	0.062823	0.059818
Cu23	Cu	1.005531	0.396156	0.393151
Cu24	Cu	1.338864	0.729490	0.726485
Cu25	Cu	0.672216	0.062810	-0.059686
Cu26	Cu	1.005550	0.396143	0.273648
Cu27	Cu	1.338883	0.729476	0.606981
O28	O	0.667047	0.133212	0.050579
O29	O	1.000380	0.466545	0.383912
O30	O	1.333714	0.799878	0.717246
C31	C	0.568048	0.066862	0.000053
C32	C	0.901381	0.400195	0.333387
C33	C	1.234715	0.733528	0.666720
C34	C	0.504831	0.066222	0.000046
C35	C	0.838164	0.399555	0.333380
C36	C	1.171497	0.732888	0.666713
C37	C	0.112817	0.062206	0.055155
C38	C	0.446150	0.395540	0.388488
C39	C	0.779483	0.728873	0.721822
C40	C	0.053419	0.061597	0.055157
C41	C	0.386752	0.394931	0.388491
C42	C	0.720085	0.728264	0.721824
O43	O	0.022693	0.061271	0.102002
O44	O	0.356027	0.394605	0.435336
O45	O	0.689360	0.727938	0.768669
N46	N	0.023720	0.061289	0.000075
N47	N	0.357053	0.394623	0.333408
N48	N	0.690386	0.727956	0.666742
C49	C	0.053422	0.061585	-0.055013
C50	C	0.386756	0.394919	0.278320
C51	C	0.720089	0.728252	0.611653
O52	O	0.022707	0.061267	-0.101865
O53	O	0.356040	0.394600	0.231469
O54	O	0.689374	0.727934	0.564802
C55	C	0.112820	0.062191	-0.055015
C56	C	0.446153	0.395524	0.278318
C57	C	0.779487	0.728857	0.611652
C58	C	0.142515	0.062504	0.000071
C59	C	0.475849	0.395837	0.333404
C60	C	0.809182	0.729170	0.666738
C61	C	0.142512	0.062519	0.110236
C62	C	0.475845	0.395852	0.443570
C63	C	0.809179	0.729185	0.776903
C64	C	0.201906	0.063129	0.110234
C65	C	0.535239	0.396462	0.443567
C66	C	0.868573	0.729795	0.776900
C67	C	0.231604	0.063426	0.055150
C68	C	0.564938	0.396759	0.388483
C69	C	0.898271	0.730093	0.721816
C70	C	0.201909	0.063114	0.000068
C71	C	0.535242	0.396447	0.333402
C72	C	0.868576	0.729780	0.666735
C73	C	0.142522	0.062483	-0.110103
C74	C	0.475856	0.395817	0.223231
C75	C	0.809189	0.729150	0.556564
C76	C	0.201924	0.063088	-0.110100
C77	C	0.535257	0.396422	0.223234
C78	C	0.868591	0.729755	0.556567
C79	C	0.231619	0.063401	-0.055014
C80	C	0.564953	0.396735	0.278319
C81	C	0.898286	0.730068	0.611653
C82	C	0.291001	0.064021	-0.055019
C83	C	0.624335	0.397354	0.278315
C84	C	0.957668	0.730687	0.611648
N85	N	0.320701	0.064329	0.000064
N86	N	0.654034	0.397662	0.333397
N87	N	0.987367	0.730995	0.666730
C88	C	0.291002	0.064031	0.055148
C89	C	0.624335	0.397365	0.388481
C90	C	0.957669	0.730698	0.721814
C91	C	-0.071316	0.060313	-0.055005
C92	C	0.262017	0.393646	0.278328
C93	C	0.595350	0.726980	0.611661
C94	C	-0.130713	0.059711	-0.055004
C95	C	0.202620	0.393044	0.278329
C96	C	0.535953	0.726378	0.611663
C97	C	-0.130713	0.059722	0.055167
C98	C	0.202620	0.393056	0.388500
C99	C	0.535954	0.726389	0.721834
C100	C	-0.071315	0.060328	0.055165
C101	C	0.262018	0.393661	0.388498
C102	C	0.595351	0.726994	0.721832
C103	C	-0.041617	0.060621	0.000077
C104	C	0.291716	0.393954	0.333410
C105	C	0.625049	0.727288	0.666744
C106	C	0.415733	0.065312	0.055138
C107	C	0.749067	0.398646	0.388471
C108	C	1.082400	0.731979	0.721805
C109	C	0.475132	0.065924	0.055130
C110	C	0.808466	0.399258	0.388464
C111	C	1.141799	0.732591	0.721797
C112	C	0.475127	0.065911	-0.055040
C113	C	0.808460	0.399244	0.278293
C114	C	1.141794	0.732577	0.611627
C115	C	0.415733	0.065301	-0.055033
C116	C	0.749066	0.398635	0.278300
C117	C	1.082400	0.731968	0.611634
C118	C	0.386038	0.065001	0.000061
C119	C	0.719371	0.398334	0.333394
C120	C	1.052705	0.731667	0.666728
O121	O	0.321765	0.064345	-0.101840
O122	O	0.655098	0.397679	0.231494
O123	O	0.988431	0.731012	0.564827
O124	O	0.321726	0.064343	0.101991
O125	O	0.655059	0.397677	0.435325
O126	O	0.988393	0.731010	0.768658
C127	C	0.677143	-0.025580	0.000080
C128	C	1.010476	0.307753	0.333413
C129	C	1.343809	0.641086	0.666747
C130	C	0.676491	-0.079236	0.000085
C131	C	1.009825	0.254097	0.333418
C132	C	1.343158	0.587430	0.666751
C133	C	0.724449	-0.417985	0.000059
C134	C	1.057783	-0.084652	0.333393
C135	C	1.391116	0.248682	0.666726
C136	C	0.722033	-0.619648	0.000051
C137	C	1.055366	-0.286315	0.333384
C138	C	1.388700	0.047019	0.666717
O139	O	0.765887	-0.650843	0.000029
O140	O	1.099220	-0.317510	0.333363
O141	O	1.432554	0.015823	0.666696
N142	N	0.669796	-0.638844	0.000045
N143	N	1.003130	-0.305511	0.333378
N144	N	1.336463	0.027823	0.666712
C145	C	0.618160	-0.607621	0.000037
C146	C	0.951493	-0.274287	0.333371
C147	C	1.284827	0.059046	0.666704
O148	O	0.573674	-0.628575	0.000026
O149	O	0.907007	-0.295242	0.333359
O150	O	1.240341	0.038092	0.666693
C151	C	0.620577	-0.405959	0.000042
C152	C	0.953911	-0.072625	0.333375
C153	C	1.287244	0.260708	0.666708
C154	C	0.672817	-0.386766	0.000054
C155	C	1.006151	-0.053432	0.333387
C156	C	1.339484	0.279901	0.666720
C157	C	0.776685	-0.398792	0.000071
C158	C	1.110019	-0.065458	0.333404
C159	C	1.443352	0.267875	0.666737
C160	C	0.777289	-0.348379	0.000076
C161	C	1.110622	-0.015046	0.333410
C162	C	1.443956	0.318288	0.666743
C163	C	0.725657	-0.317160	0.000070
C164	C	1.058990	0.016174	0.333404
C165	C	1.392323	0.349507	0.666737
C166	C	0.673421	-0.336353	0.000059
C167	C	1.006754	-0.003020	0.333393
C168	C	1.340087	0.330314	0.666726
C169	C	0.568942	-0.374736	0.000030
C170	C	0.902275	-0.041403	0.333363
C171	C	1.235608	0.291930	0.666696
C172	C	0.569551	-0.324318	0.000029
C173	C	0.902884	0.009015	0.333363
C174	C	1.236217	0.342349	0.666696
C175	C	0.621791	-0.305125	0.000041
C176	C	0.955124	0.028208	0.333375
C177	C	1.288457	0.361541	0.666708
C178	C	0.622392	-0.254721	0.000059
C179	C	0.955725	0.078613	0.333392
C180	C	1.289059	0.411946	0.666726
N181	N	0.674629	-0.235525	0.000065
N182	N	1.007962	0.097808	0.333398
N183	N	1.341295	0.431142	0.666731
C184	C	0.726261	-0.266744	0.000070
C185	C	1.059594	0.066589	0.333404
C186	C	1.392928	0.399922	0.666737
C187	C	0.616895	-0.713496	0.000036
C188	C	0.950228	-0.380163	0.333370
C189	C	1.283561	-0.046830	0.666703
C190	C	0.616290	-0.763912	0.000036
C191	C	0.949624	-0.430578	0.333369
C192	C	1.282957	-0.097245	0.666703
C193	C	0.720163	-0.775936	0.000048
C194	C	1.053497	-0.442602	0.333382
C195	C	1.386830	-0.109269	0.666715
C196	C	0.720767	-0.725520	0.000053
C197	C	1.054101	-0.392186	0.333386
C198	C	1.387434	-0.058853	0.666719
C199	C	0.669131	-0.694301	0.000042
C200	C	1.002465	-0.360967	0.333375
C201	C	1.335798	-0.027634	0.666709
C202	C	0.727525	-0.160873	0.000083
C203	C	1.060858	0.172460	0.333416
C204	C	1.394191	0.505793	0.666749
C205	C	0.728124	-0.110456	0.000091
C206	C	1.061457	0.222878	0.333424
C207	C	1.394790	0.556211	0.666757
C208	C	0.624251	-0.098436	0.000075
C209	C	0.957584	0.234897	0.333408
C210	C	1.290918	0.568231	0.666742
C211	C	0.623652	-0.148849	0.000070
C212	C	0.956985	0.184484	0.333404
C213	C	1.290318	0.517817	0.666737
C214	C	0.675293	-0.180067	0.000072
C215	C	1.008626	0.153266	0.333405
C216	C	1.341960	0.486599	0.666739
O217	O	0.578561	-0.223497	0.000073
O218	O	0.911895	0.109836	0.333407
O219	O	1.245228	0.443169	0.666740
O220	O	0.770740	-0.245780	0.000068
O221	O	1.104074	0.087553	0.333402
O222	O	1.437407	0.420886	0.666735
C223	C	0.723846	-0.468398	0.000054
C224	C	1.057179	-0.135065	0.333387
C225	C	1.390513	0.198269	0.666721
C226	C	0.671610	-0.487591	0.000043
C227	C	1.004943	-0.154258	0.333376
C228	C	1.338277	0.179075	0.666709
C229	C	0.619978	-0.456372	0.000037
C230	C	0.953311	-0.123039	0.333370
C231	C	1.286645	0.210295	0.666704
C232	C	0.671006	-0.538007	0.000043
C233	C	1.004339	-0.204673	0.333376
C234	C	1.337672	0.128660	0.666709
C235	C	0.722638	-0.569226	0.000048
C236	C	1.055971	-0.235893	0.333382
C237	C	1.389305	0.097441	0.666715
C238	C	0.774875	-0.550030	0.000054
C239	C	1.108208	-0.216697	0.333388
C240	C	1.441541	0.116637	0.666721
C241	C	0.775478	-0.499617	0.000060
C242	C	1.108811	-0.166284	0.333393
C243	C	1.442145	0.167049	0.666726
C244	C	0.567741	-0.475568	0.000031
C245	C	0.901075	-0.142234	0.333364
C246	C	1.234408	0.191099	0.666698
C247	C	0.567142	-0.525981	0.000026
C248	C	0.900475	-0.192648	0.333360
C249	C	1.233809	0.140686	0.666693
C250	C	0.618774	-0.557200	0.000032
C251	C	0.952107	-0.223867	0.333365
C252	C	1.285441	0.109466	0.666699
C253	C	0.776366	0.058771	0.000077
C254	C	1.109699	0.392104	0.333411
C255	C	1.443033	0.725438	0.666744
C256	C	0.839583	0.059411	0.000080
C257	C	1.172917	0.392744	0.333414
C258	C	1.506250	0.726078	0.666747
C259	C	0.667271	0.151213	0.000051
C260	C	1.000605	0.484547	0.333384
C261	C	1.333938	0.817880	0.666718
C262	C	0.667923	0.204869	0.000042
C263	C	1.001256	0.538202	0.333375
C264	C	1.334589	0.871536	0.666709
N265	N	0.672188	0.062832	0.143870
N266	N	1.005522	0.396165	0.477204
N267	N	1.338855	0.729499	0.810537
N268	N	0.672230	0.062797	-0.143738
N269	N	1.005563	0.396130	0.189595
N270	N	1.338897	0.729464	0.522928
C271	C	0.711227	0.029760	0.563660
C272	C	1.044560	0.363094	0.896993
C273	C	1.377894	0.696427	1.230326
C274	C	0.711230	0.029757	0.627267
C275	C	1.044563	0.363090	0.960601
C276	C	1.377896	0.696424	1.293934
O277	O	0.744399	0.001645	0.660167
O278	O	1.077732	0.334978	0.993500
O279	O	1.411066	0.668311	1.326834
N280	N	0.672216	0.062800	0.659078
N281	N	1.005550	0.396133	0.992411
N282	N	1.338883	0.729466	1.325744
C283	C	0.633194	0.095844	0.627277
C284	C	0.966527	0.429178	0.960610
C285	C	1.299860	0.762511	1.293944
O286	O	0.600009	0.123949	0.660175
O287	O	0.933343	0.457283	0.993508
O288	O	1.266676	0.790616	1.326841
C289	C	0.633189	0.095845	0.563670
C290	C	0.966522	0.429178	0.897004
C291	C	1.299855	0.762512	1.230337
C292	C	0.672209	0.062804	0.531863
C293	C	1.005542	0.396137	0.865197
C294	C	1.338875	0.729470	1.198530
C295	C	0.750243	-0.003279	0.531853
C296	C	1.083577	0.330054	0.865186
C297	C	1.416910	0.663388	1.198519
C298	C	0.750241	-0.003275	0.468249
C299	C	1.083575	0.330058	0.801583
C300	C	1.416908	0.663392	1.134916
C301	C	0.711223	0.029768	0.436453
C302	C	1.044556	0.363102	0.769787
C303	C	1.377890	0.696435	1.103120
C304	C	0.672206	0.062808	0.468260
C305	C	1.005540	0.396141	0.801594
C306	C	1.338873	0.729474	1.134927
C307	C	0.594164	0.128887	0.531871
C308	C	0.927497	0.462221	0.865204
C309	C	1.260830	0.795554	1.198538
C310	C	0.594162	0.128885	0.468260
C311	C	0.927495	0.462218	0.801593
C312	C	1.260829	0.795551	1.134927
C313	C	0.633182	0.095843	0.436453
C314	C	0.966515	0.429177	0.769787
C315	C	1.299849	0.762510	1.103120
C316	C	0.633186	0.095855	0.372861
C317	C	0.966519	0.429188	0.706194
C318	C	1.299853	0.762522	1.039527
N319	N	0.672199	0.062812	0.341051
N320	N	1.005533	0.396146	0.674384
N321	N	1.338866	0.729479	1.007717
C322	C	0.711218	0.029769	0.372847
C323	C	1.044551	0.363102	0.706180
C324	C	1.377885	0.696436	1.039513
C325	C	0.633206	0.095840	0.760855
C326	C	0.966540	0.429173	1.094188
C327	C	1.299873	0.762507	1.427521
C328	C	0.633213	0.095842	0.824460
C329	C	0.966547	0.429175	1.157793
C330	C	1.299880	0.762509	1.491127
C331	C	0.711249	0.029754	0.824446
C332	C	1.044582	0.363087	1.157779
C333	C	1.377916	0.696421	1.491113
C334	C	0.711244	0.029754	0.760840
C335	C	1.044577	0.363088	1.094173
C336	C	1.377911	0.696421	1.427506
C337	C	0.672220	0.062797	0.729044
C338	C	1.005553	0.396131	1.062378
C339	C	1.338886	0.729464	1.395711
C340	C	0.711211	0.029780	0.239275
C341	C	1.044544	0.363114	0.572609
C342	C	1.377878	0.696447	0.905942
C343	C	0.711207	0.029789	0.175667
C344	C	1.044540	0.363122	0.509000
C345	C	1.377874	0.696455	0.842333
C346	C	0.633170	0.095875	0.175686
C347	C	0.966503	0.429208	0.509019
C348	C	1.299836	0.762542	0.842353
C349	C	0.633175	0.095869	0.239289
C350	C	0.966509	0.429202	0.572623
C351	C	1.299842	0.762535	0.905956
C352	C	0.672198	0.062817	0.271083
C353	C	1.005531	0.396151	0.604416
C354	C	1.338865	0.729484	0.937749
O355	O	0.600032	0.123952	0.339921
O356	O	0.933365	0.457285	0.673254
O357	O	1.266699	0.790618	1.006587
O358	O	0.744392	0.001665	0.339941
O359	O	1.077725	0.334998	0.673275
O360	O	1.411058	0.668331	1.006608
H361	H	-0.154904	0.059479	0.100019
H362	H	0.178429	0.392812	0.433353
H363	H	0.511763	0.726146	0.766686
H364	H	0.818733	-0.424206	0.000073
H365	H	1.152066	-0.090873	0.333407
H366	H	1.485400	0.242460	0.666740
Br367	Br	0.764203	-0.015091	0.867612
Br368	Br	1.097536	0.318243	1.200945
Br369	Br	1.430869	0.651576	1.534278
H370	H	0.816915	-0.575458	0.000062
H371	H	1.150249	-0.242125	0.333395
H372	H	1.483582	0.091209	0.666728
Br373	Br	0.242198	0.063551	0.184997
Br374	Br	0.575531	0.396884	0.518331
Br375	Br	0.908865	0.730218	0.851664
Br376	Br	0.580265	0.140694	0.867619
Br377	Br	0.913598	0.474027	1.200953
Br378	Br	1.246932	0.807360	1.534286
H379	H	0.525695	-0.450153	0.000025
H380	H	0.859028	-0.116820	0.333358
H381	H	1.192362	0.216513	0.666692
Br382	Br	0.545390	-0.789952	0.000034
Br383	Br	0.878724	-0.456619	0.333368
Br384	Br	1.212057	-0.123286	0.666701
H385	H	0.782017	-0.030189	0.557736
H386	H	1.115350	0.303144	0.891069
H387	H	1.448684	0.636478	1.224402
Br388	Br	0.552754	-0.174898	0.000068
Br389	Br	0.886087	0.158435	0.333401
Br390	Br	1.219421	0.491769	0.666735
H391	H	0.762204	-0.801363	0.000053
H392	H	1.095538	-0.468030	0.333387
H393	H	1.428871	-0.134697	0.666720
H394	H	0.226101	0.063328	-0.154960
H395	H	0.559434	0.396661	0.178373
H396	H	0.892768	0.729994	0.511707
Br397	Br	0.580226	0.140718	0.282454
Br398	Br	0.913559	0.474052	0.615788
Br399	Br	1.246892	0.807385	0.949121
H400	H	0.742984	0.002882	0.149771
H401	H	1.076317	0.336216	0.483105
H402	H	1.409650	0.669549	0.816438
H403	H	0.499307	0.066181	0.099990
H404	H	0.832641	0.399514	0.433323
H405	H	1.165974	0.732847	0.766657
Br406	Br	0.375443	0.064903	0.129909
Br407	Br	0.708776	0.398236	0.463242
Br408	Br	1.042109	0.731570	0.796575
Br409	Br	0.764171	-0.015076	0.282413
Br410	Br	1.097504	0.318258	0.615746
Br411	Br	1.430838	0.651591	0.949079
Br412	Br	0.546810	-0.671134	0.000020
Br413	Br	0.880144	-0.337801	0.333354
Br414	Br	1.213477	-0.004468	0.666687
H415	H	0.743017	0.002849	0.734946
H416	H	1.076350	0.336182	1.068279
H417	H	1.409684	0.669516	1.401613
H418	H	0.782013	-0.030181	0.442356
H419	H	1.115346	0.303152	0.775689
H420	H	1.448680	0.636485	1.109023
H421	H	-0.047141	0.060556	-0.099867
H422	H	0.286193	0.393890	0.233466
H423	H	0.619526	0.727223	0.566799
Br424	Br	0.580243	0.140691	0.717710
Br425	Br	0.913576	0.474025	1.051043
Br426	Br	1.246910	0.807358	1.384377
Br427	Br	0.102218	0.062117	0.185004
Br428	Br	0.435551	0.395450	0.518337
Br429	Br	0.768885	0.728784	0.851670
Br430	Br	-0.031021	0.060752	0.129927
Br431	Br	0.302312	0.394085	0.463260
Br432	Br	0.635646	0.727419	0.796593
Br433	Br	-0.171009	0.059298	-0.129766
Br434	Br	0.162325	0.392632	0.203567
Br435	Br	0.495658	0.725965	0.536900
H436	H	0.562382	0.155792	0.442376
H437	H	0.895715	0.489125	0.775709
H438	H	1.229048	0.822459	1.109042
Br439	Br	0.580219	0.140719	0.132524
Br440	Br	0.913552	0.474053	0.465857
Br441	Br	1.246886	0.807386	0.799191
Br442	Br	0.554182	-0.056058	0.000067
Br443	Br	0.887515	0.277276	0.333401
Br444	Br	1.220849	0.610609	0.666734
Br445	Br	0.799026	-0.084412	0.000107
Br446	Br	1.132359	0.248922	0.333441
Br447	Br	1.465692	0.582255	0.666774
H448	H	0.118355	0.062228	-0.154960
H449	H	0.451688	0.395561	0.178374
H450	H	0.785021	0.728895	0.511707
Br451	Br	0.375429	0.064886	-0.129793
Br452	Br	0.708763	0.398220	0.203541
Br453	Br	1.042096	0.731553	0.536874
H454	H	0.499318	0.066155	-0.099888
H455	H	0.832651	0.399488	0.233445
H456	H	1.165985	0.732821	0.566779
Br457	Br	0.797610	-0.203233	0.000084
Br458	Br	1.130944	0.130100	0.333417
Br459	Br	1.464277	0.463434	0.666751
H460	H	0.562390	0.155792	0.557759
H461	H	0.895723	0.489126	0.891093
H462	H	1.229057	0.822459	1.224426
Br463	Br	0.848190	-0.322340	0.000075
Br464	Br	1.181523	0.010993	0.333409
Br465	Br	1.514856	0.344327	0.666742
H466	H	0.763306	-0.709897	0.000062
H467	H	1.096639	-0.376563	0.333395
H468	H	1.429972	-0.043230	0.666729
H469	H	0.526402	-0.390354	0.000016
H470	H	0.859736	-0.057020	0.333350
H471	H	1.193069	0.276313	0.666683
H472	H	0.527501	-0.298901	0.000020
H473	H	0.860835	0.034432	0.333353
H474	H	1.194168	0.367765	0.666686
Br475	Br	0.846379	-0.473578	0.000072
Br476	Br	1.179712	-0.140245	0.333406
Br477	Br	1.513046	0.193088	0.666739
H478	H	0.524599	-0.541602	0.000022
H479	H	0.857932	-0.208269	0.333355
H480	H	1.191265	0.125064	0.666688
