data_functionalizedCrystal
_audit_creation_method	'MofGen! by Chris Wilmer'
_symmetry_space_group_name_H-M	'P1'
_symmetry_Int_Tables_number	1
_symmetry_cell_setting	triclinic
loop_
_symmetry_equiv_pos_as_xyz
  x,y,z
_cell_length_a	16.120484
_cell_length_b	13.032831
_cell_length_c	13.032268
_cell_angle_alpha	90.886977
_cell_angle_beta	80.357249
_cell_angle_gamma	93.921479
loop_
_atom_site_label
_atom_site_type_symbol
_atom_site_fract_x
_atom_site_fract_y
_atom_site_fract_z
Zn1	Zn	-0.562103	-1.458766	0.811459
Zn2	Zn	-0.228769	-1.125432	1.144793
Zn3	Zn	0.104564	-0.792099	1.478126
Zn4	Zn	-0.686112	-1.471747	0.646236
Zn5	Zn	-0.352779	-1.138413	0.979569
Zn6	Zn	-0.019446	-0.805080	1.312902
Zn7	Zn	-0.527333	-1.311081	0.615806
Zn8	Zn	-0.193999	-0.977747	0.949139
Zn9	Zn	0.139334	-0.644414	1.282473
Zn10	Zn	-0.681612	-1.278313	0.796116
Zn11	Zn	-0.348279	-0.944979	1.129449
Zn12	Zn	-0.014945	-0.611646	1.462782
O13	O	-0.614290	-1.379976	0.717404
O14	O	-0.280957	-1.046643	1.050738
O15	O	0.052377	-0.713310	1.384071
O16	O	-0.594988	-1.603247	0.808698
O17	O	-0.261654	-1.269914	1.142032
O18	O	0.071679	-0.936581	1.475365
O19	O	-0.652382	-1.469580	0.497592
O20	O	-0.319048	-1.136247	0.830926
O21	O	0.014285	-0.802913	1.164259
O22	O	-0.415480	-1.338953	0.635446
O23	O	-0.082147	-1.005619	0.968780
O24	O	0.251186	-0.672286	1.302113
O25	O	-0.686097	-1.612784	0.687309
O26	O	-0.352764	-1.279451	1.020643
O27	O	-0.019430	-0.946117	1.353976
O28	O	-0.441026	-1.447456	0.779192
O29	O	-0.107692	-1.114123	1.112525
O30	O	0.225641	-0.780789	1.445859
O31	O	-0.535727	-1.351539	0.475236
O32	O	-0.202394	-1.018206	0.808569
O33	O	0.130939	-0.684873	1.141902
O34	O	-0.531364	-1.163974	0.620568
O35	O	-0.198030	-0.830641	0.953902
O36	O	0.135303	-0.497308	1.287235
O37	O	-0.678427	-1.283104	0.942758
O38	O	-0.345094	-0.949771	1.276091
O39	O	-0.011760	-0.616437	1.609425
O40	O	-0.644712	-1.139900	0.753041
O41	O	-0.311379	-0.806567	1.086374
O42	O	0.021955	-0.473233	1.419708
O43	O	-0.590624	-1.415682	0.954031
O44	O	-0.257291	-1.082349	1.287364
O45	O	0.076043	-0.749016	1.620698
O46	O	-0.801980	-1.437806	0.672431
O47	O	-0.468647	-1.104473	1.005764
O48	O	-0.135314	-0.771139	1.339098
O49	O	-0.798674	-1.295691	0.782547
O50	O	-0.465341	-0.962358	1.115881
O51	O	-0.132007	-0.629024	1.449214
C52	C	-0.583777	-1.114921	0.681838
C53	C	-0.250444	-0.781588	1.015172
C54	C	0.082890	-0.448254	1.348505
C55	C	-0.570746	-1.001525	0.666648
C56	C	-0.237412	-0.668191	0.999982
C57	C	0.095921	-0.334858	1.333315
C58	C	-0.830530	-1.364626	0.729153
C59	C	-0.497197	-1.031293	1.062486
C60	C	-0.163864	-0.697959	1.395819
C61	C	-0.923053	-1.358148	0.734226
C62	C	-0.589719	-1.024815	1.067559
C63	C	-0.256386	-0.691481	1.400892
C64	C	-0.637902	-1.344290	0.986938
C65	C	-0.304569	-1.010957	1.320271
C66	C	0.028765	-0.677623	1.653605
C67	C	-0.647964	-1.329082	1.101797
C68	C	-0.314631	-0.995749	1.435130
C69	C	0.018703	-0.662416	1.768464
C70	C	-1.092455	-1.346324	0.743510
C71	C	-0.759121	-1.012990	1.076843
C72	C	-0.425788	-0.679657	1.410176
C73	C	-1.135307	-1.413810	0.691340
C74	C	-0.801974	-1.080477	1.024674
C75	C	-0.468641	-0.747143	1.358007
C76	C	-1.229569	-1.407231	0.696506
C77	C	-0.896235	-1.073897	1.029839
C78	C	-0.562902	-0.740564	1.363173
C79	C	-0.998185	-1.352901	0.738345
C80	C	-0.664852	-1.019568	1.071678
C81	C	-0.331518	-0.686234	1.405012
C82	C	-0.397210	-1.395412	0.705636
C83	C	-0.063877	-1.062078	1.038970
C84	C	0.269456	-0.728745	1.372303
C85	C	-0.304704	-1.401989	0.700622
C86	C	0.028629	-1.068656	1.033955
C87	C	0.361963	-0.735322	1.367288
C88	C	-0.644923	-1.646067	0.753110
C89	C	-0.311589	-1.312733	1.086443
C90	C	0.021744	-0.979400	1.419776
C91	C	-0.657977	-1.759458	0.768325
C92	C	-0.324643	-1.426125	1.101659
C93	C	0.008690	-1.092792	1.434992
C94	C	-0.621091	-0.939092	0.725332
C95	C	-0.287758	-0.605758	1.058665
C96	C	0.045575	-0.272425	1.391998
C97	C	-0.607624	-0.821890	0.709634
C98	C	-0.274291	-0.488557	1.042967
C99	C	0.059043	-0.155223	1.376301
C100	C	-0.590717	-1.415587	0.448924
C101	C	-0.257383	-1.082254	0.782257
C102	C	0.075950	-0.748920	1.115590
C103	C	-0.580443	-1.431009	0.334079
C104	C	-0.247109	-1.097675	0.667412
C105	C	0.086224	-0.764342	1.000746
C106	C	-0.609007	-1.387900	1.158582
C107	C	-0.275673	-1.054566	1.491916
C108	C	0.057660	-0.721233	1.825249
C109	C	-0.619405	-1.372183	1.277296
C110	C	-0.286072	-1.038850	1.610629
C111	C	0.047261	-0.705517	1.943962
H112	H	-1.126557	-1.283610	0.792048
H113	H	-0.793224	-0.950277	1.125381
H114	H	-0.459890	-0.616943	1.458715
O115	O	-0.526064	-1.513136	1.282084
O116	O	-0.192730	-1.179803	1.615417
O117	O	0.140603	-0.846470	1.948751
H118	H	-0.526434	-1.512602	1.197003
H119	H	-0.193101	-1.179269	1.530337
H120	H	0.140232	-0.845935	1.863670
H121	H	-0.554544	-0.788578	0.647771
H122	H	-0.221211	-0.455245	0.981105
H123	H	0.112122	-0.121912	1.314438
H124	H	-1.101202	-1.476527	0.642796
H125	H	-0.767869	-1.143194	0.976130
H126	H	-0.434536	-0.809860	1.309463
O127	O	-0.728281	-0.803575	0.850281
O128	O	-0.394948	-0.470242	1.183614
O129	O	-0.061614	-0.136908	1.516948
H130	H	-0.763106	-0.740011	0.890885
H131	H	-0.429773	-0.406678	1.224218
H132	H	-0.096439	-0.073344	1.557551
O133	O	-0.691379	-0.983205	0.807305
O134	O	-0.358045	-0.649871	1.140638
O135	O	-0.024712	-0.316538	1.473971
H136	H	-0.690920	-1.068336	0.806779
H137	H	-0.357587	-0.735003	1.140112
H138	H	-0.024253	-0.401670	1.473446
H139	H	-0.517670	-0.968208	0.604790
H140	H	-0.184336	-0.634875	0.938123
H141	H	0.148997	-0.301541	1.271457
O142	O	-0.554633	-1.470025	1.106581
O143	O	-0.221300	-1.136691	1.439915
O144	O	0.112033	-0.803358	1.773248
H145	H	-0.555006	-1.469489	1.021501
H146	H	-0.221673	-1.136155	1.354834
H147	H	0.111661	-0.802822	1.688168
O148	O	-0.702338	-1.246962	1.153807
O149	O	-0.369004	-0.913628	1.487141
O150	O	-0.035671	-0.580295	1.820474
H151	H	-0.729287	-1.206261	1.094152
H152	H	-0.395954	-0.872928	1.427485
H153	H	-0.062621	-0.539594	1.760818
O154	O	-0.673786	-1.290058	1.329293
O155	O	-0.340452	-0.956725	1.662626
O156	O	-0.007119	-0.623391	1.995960
H157	H	-0.673423	-1.290604	1.414375
H158	H	-0.340090	-0.957270	1.747708
H159	H	-0.006756	-0.623937	2.081042
