data_functionalizedCrystal
_audit_creation_method	'MofGen! by Chris Wilmer'
_symmetry_space_group_name_H-M	'P1'
_symmetry_Int_Tables_number	1
_symmetry_cell_setting	triclinic
loop_
_symmetry_equiv_pos_as_xyz
  x,y,z
_cell_length_a	14.971482
_cell_length_b	14.044220
_cell_length_c	12.503552
_cell_angle_alpha	93.839943
_cell_angle_beta	86.473158
_cell_angle_gamma	88.400743
loop_
_atom_site_label
_atom_site_type_symbol
_atom_site_fract_x
_atom_site_fract_y
_atom_site_fract_z
O1	O	1.201404	0.118046	-0.089310
O2	O	0.942169	0.132843	-0.089315
O3	O	1.067895	-0.012544	-0.089302
O4	O	1.075678	0.263432	-0.089323
O5	O	1.058428	-0.001601	0.089339
O6	O	0.932703	0.143786	0.089326
O7	O	1.191937	0.128989	0.089332
Cu8	Cu	1.061456	0.137387	0.105640
Cu9	Cu	1.072651	0.124445	-0.105624
O10	O	1.066212	0.274376	0.089318
C11	C	0.904059	0.137653	0.000005
C12	C	0.804606	0.135672	0.000003
C13	C	0.752728	0.140704	0.097382
C14	C	0.659281	0.138828	0.097383
C15	C	0.617715	0.131925	0.000004
C16	C	0.669600	0.126890	-0.097382
C17	C	0.763045	0.128760	-0.097382
C18	C	0.474831	0.122995	-0.097375
C19	C	0.381380	0.121127	-0.097375
C20	C	0.371067	0.133063	0.097390
C21	C	0.464512	0.134933	0.097390
C22	C	0.516391	0.129899	0.000004
C23	C	1.059755	-0.042391	0.000019
C24	C	1.049594	-0.147628	0.000020
C25	C	1.031018	-0.340311	0.000004
C26	C	1.103085	-0.397864	0.000003
C27	C	1.092749	-0.505079	-0.000006
C28	C	1.041353	-0.233085	0.000013
C29	C	1.230048	0.124178	0.000009
C30	C	1.329501	0.126159	0.000004
C31	C	1.074352	0.304222	-0.000005
C32	C	1.084513	0.409459	-0.000013
N33	N	1.053588	0.146489	0.254232
N34	N	1.080525	0.115335	-0.254216
C35	C	1.092094	0.101943	0.526669
C36	C	1.042022	0.159878	0.473340
C37	C	1.048459	0.152427	0.351417
C38	C	1.085658	0.109393	0.648603
H39	H	0.805284	0.124664	-0.176678
O40	O	0.985044	0.225762	0.527936
C41	C	0.875305	0.352862	0.516380
C42	C	0.939771	0.278277	0.454413
H43	H	0.838698	0.395354	0.456964
H44	H	0.824530	0.315116	0.569016
H45	H	0.915015	0.403379	0.569050
H46	H	0.900135	0.227739	0.401685
H47	H	0.990547	0.316087	0.401845
H48	H	1.172550	-0.366619	-0.000068
H49	H	0.961562	-0.371558	0.000000
O50	O	1.148905	0.035981	0.471947
C51	C	1.189950	-0.130858	0.437278
C52	C	1.125534	-0.056269	0.499322
H53	H	1.171090	-0.205457	0.459405
H54	H	1.185056	-0.125279	0.347271
H55	H	1.261442	-0.117043	0.459284
H56	H	1.054015	-0.070034	0.477406
H57	H	1.130506	-0.061865	0.589314
O58	O	0.504750	0.141602	0.192078
C59	C	0.484663	0.153301	0.385259
C60	C	0.438980	0.145731	0.278103
H61	H	0.431508	0.156662	0.454838
H62	H	0.531028	0.088174	0.390205
H63	H	0.525282	0.220746	0.390057
H64	H	0.398315	0.078326	0.273233
H65	H	0.392667	0.210906	0.273202
O66	O	0.792960	0.147369	0.192073
C67	C	0.772856	0.159056	0.385253
C68	C	0.727182	0.151494	0.278090
H69	H	0.719695	0.162414	0.454825
H70	H	0.819219	0.093928	0.390199
H71	H	0.813474	0.226501	0.390062
H72	H	0.686518	0.084089	0.273209
H73	H	0.680871	0.216670	0.273189
H74	H	0.328823	0.137162	0.176686
O75	O	0.341091	0.114547	-0.192031
C76	C	0.317665	0.185868	-0.358469
C77	C	0.363363	0.193421	-0.251323
H78	H	0.335639	0.249639	-0.406427
H79	H	0.341490	0.117042	-0.406562
H80	H	0.241972	0.185360	-0.341701
H81	H	0.439061	0.193969	-0.267994
H82	H	0.339466	0.262238	-0.203263
O83	O	0.525319	0.118242	-0.191905
C84	C	0.633178	0.195527	-0.304961
C85	C	0.576064	0.201015	-0.197863
H86	H	0.674206	0.262449	-0.309823
H87	H	0.680147	0.129861	-0.309844
H88	H	0.587407	0.190232	-0.374546
H89	H	0.621767	0.206346	-0.128217
H90	H	0.529088	0.266669	-0.193074
O91	O	0.629276	0.120020	-0.192006
C92	C	0.613137	0.027228	-0.358499
C93	C	0.658846	0.034870	-0.251363
H94	H	0.637041	-0.041601	-0.406530
H95	H	0.537433	0.026695	-0.341842
H96	H	0.631145	0.090978	-0.406475
H97	H	0.640910	-0.028864	-0.203334
H98	H	0.734540	0.035447	-0.268096
H99	H	0.617046	0.142910	0.176679
