data_functionalizedCrystal
_audit_creation_method	'MofGen! by Chris Wilmer'
_symmetry_space_group_name_H-M	'P1'
_symmetry_Int_Tables_number	1
_symmetry_cell_setting	triclinic
loop_
_symmetry_equiv_pos_as_xyz
  x,y,z
_cell_length_a	16.109301
_cell_length_b	19.288865
_cell_length_c	18.366186
_cell_angle_alpha	90.011479
_cell_angle_beta	89.993673
_cell_angle_gamma	96.701136
loop_
_atom_site_label
_atom_site_type_symbol
_atom_site_fract_x
_atom_site_fract_y
_atom_site_fract_z
O1	O	1.102832	-0.089282	-0.060512
O2	O	0.860732	-0.100392	-0.060525
O3	O	0.988777	0.006277	-0.060504
O4	O	0.974786	-0.195951	-0.060533
O5	O	0.988756	0.006282	0.060596
O6	O	0.860710	-0.100387	0.060575
O7	O	1.102810	-0.089276	0.060587
Zn8	Zn	0.981757	-0.094831	0.079808
Zn9	Zn	0.981785	-0.094838	-0.079746
O10	O	0.974765	-0.195945	0.060566
C11	C	0.829748	-0.099940	0.000023
C12	C	0.737457	-0.098590	0.000019
C13	C	0.988316	0.032157	0.000048
C14	C	0.986965	0.109264	0.000054
N15	N	0.981743	-0.094826	0.188699
C16	C	0.514979	-0.158748	0.000019
C17	C	0.428263	-0.157475	0.000024
C18	C	0.448570	-0.030916	0.000039
C19	C	0.535284	-0.032190	0.000040
C20	C	0.568486	-0.096108	0.000026
C21	C	0.395056	-0.093561	0.000030
C22	C	0.301034	-0.092180	0.000036
C23	C	0.662513	-0.097489	0.000022
C24	C	1.133794	-0.089729	0.000037
C25	C	1.226085	-0.091078	0.000037
C26	C	0.975226	-0.221825	0.000013
C27	C	0.976577	-0.298932	0.000002
C28	C	1.062096	0.153781	0.000062
C29	C	1.060827	0.226231	0.000050
C30	C	0.984421	0.254161	0.000046
C31	C	0.909280	0.209634	0.000034
C32	C	0.910552	0.137185	0.000039
C33	C	0.924350	0.362593	0.042461
C34	C	0.923082	0.435041	0.042462
C35	C	0.980496	0.477616	0.000029
C36	C	1.039193	0.447735	-0.042393
C37	C	1.040464	0.375287	-0.042389
C38	C	0.983034	0.332718	0.000041
C39	C	1.054256	0.600692	0.000023
C40	C	1.052983	0.673143	0.000007
C41	C	0.901434	0.656544	-0.000001
C42	C	0.902709	0.584095	0.000007
C43	C	0.979122	0.556173	0.000023
N44	N	0.981805	-0.094837	-0.188637
C45	C	1.038460	-0.047616	0.226809
C46	C	1.038466	-0.047613	0.303037
C47	C	0.981762	-0.094831	0.341152
C48	C	0.925034	-0.142045	0.303033
C49	C	0.925025	-0.142042	0.226807
C50	C	0.970632	-0.158093	0.461903
C51	C	0.970647	-0.158097	0.538128
C52	C	0.981785	-0.094840	0.576259
C53	C	0.992926	-0.031577	0.538157
C54	C	0.992917	-0.031574	0.461931
C55	C	0.981765	-0.094840	0.423807
C56	C	1.038511	-0.047623	0.697024
C57	C	1.038511	-0.047619	0.773253
C58	C	0.925083	-0.142057	0.773248
C59	C	0.925080	-0.142055	0.697020
C60	C	0.981798	-0.094839	0.658913
H61	H	0.384700	-0.208483	0.000020
O62	O	1.093728	-0.001871	0.659993
C63	C	1.207365	0.012814	0.573961
C64	C	1.144861	-0.039063	0.615847
H65	H	1.248710	-0.017235	0.538248
H66	H	1.247956	0.046523	0.614292
H67	H	1.171656	0.047568	0.538296
H68	H	1.180502	-0.073862	0.651514
H69	H	1.104271	-0.072723	0.575477
O70	O	0.827192	0.683632	-0.000136
C71	C	0.697267	0.691561	-0.062863
C72	C	0.781328	0.660848	-0.062806
H73	H	0.660156	0.673140	-0.113519
H74	H	0.709211	0.750992	-0.062914
H75	H	0.660178	0.673248	-0.012161
H76	H	0.818461	0.679107	-0.113499
H77	H	0.769326	0.601420	-0.062717
H78	H	1.084694	-0.009172	0.804283
O79	O	0.869959	-0.187988	0.660109
C80	C	0.757425	-0.281629	0.668151
C81	C	0.819822	-0.229658	0.710042
H82	H	0.716860	-0.315322	0.708503
H83	H	0.793139	-0.316384	0.632468
H84	H	0.716041	-0.251614	0.632459
H85	H	0.861221	-0.259615	0.745774
H86	H	0.784055	-0.194903	0.745679
H87	H	0.849369	0.100939	0.000033
O88	O	1.133759	0.269554	0.000160
C89	C	1.220270	0.360965	0.062936
C90	C	1.137637	0.311957	0.062892
H91	H	1.223441	0.395250	0.113658
H92	H	1.223491	0.395339	0.012291
H93	H	1.275087	0.328548	0.062912
H94	H	1.082774	0.344319	0.062943
H95	H	1.134489	0.277581	0.113533
O96	O	1.094856	0.489100	-0.083706
C97	C	1.114523	0.573204	-0.181003
C98	C	1.051396	0.526378	-0.134285
H99	H	1.079410	0.603367	-0.221897
H100	H	1.156678	0.539432	-0.211375
H101	H	1.154224	0.611518	-0.144281
H102	H	1.011639	0.488058	-0.170955
H103	H	1.009299	0.560195	-0.103906
H104	H	0.578853	0.018823	0.000047
O105	O	0.959780	-0.219608	0.575024
C106	C	0.937720	-0.345098	0.566949
C107	C	0.949999	-0.275485	0.525076
H108	H	0.929827	-0.390294	0.526584
H109	H	0.879603	-0.346822	0.602629
H110	H	0.994708	-0.349713	0.602641
H111	H	0.893059	-0.270825	0.489344
H112	H	1.008150	-0.273792	0.489441
O113	O	1.003581	0.029900	0.424958
C114	C	0.951385	0.139885	0.401727
C115	C	0.939206	0.070283	0.443625
H116	H	0.899357	0.172560	0.416814
H117	H	0.949416	0.129072	0.340687
H118	H	1.014442	0.169571	0.416701
H119	H	0.876152	0.040562	0.428712
H120	H	0.941227	0.081144	0.504655
O121	O	1.003598	0.029864	0.575215
C122	C	0.945323	0.105120	0.661327
C123	C	0.933116	0.035526	0.619391
H124	H	0.888357	0.109714	0.697065
H125	H	0.953235	0.150357	0.621029
H126	H	1.003453	0.106790	0.696974
H127	H	0.874984	0.033787	0.583744
H128	H	0.925254	-0.009679	0.659729
O129	O	0.959933	-0.219501	0.424782
C130	C	1.018265	-0.294770	0.338717
C131	C	1.030480	-0.225200	0.380699
H132	H	1.075300	-0.299407	0.303078
H133	H	0.960197	-0.296459	0.302990
H134	H	1.010274	-0.339974	0.379051
H135	H	1.038507	-0.179957	0.340418
H136	H	1.088533	-0.223572	0.416437
O137	O	0.866176	0.464109	0.083751
C138	C	0.843615	0.543653	0.181019
C139	C	0.908152	0.510775	0.134326
H140	H	0.877528	0.581401	0.221910
H141	H	0.802795	0.500816	0.211394
H142	H	0.802736	0.573120	0.144279
H143	H	0.949087	0.481314	0.171014
H144	H	0.948913	0.553644	0.103944
H145	H	0.878911	-0.180501	0.804281
H146	H	0.878864	-0.180490	0.334070
O147	O	1.093580	-0.001680	0.189906
C148	C	1.206118	0.091959	0.197959
C149	C	1.143730	0.039983	0.239844
H150	H	1.246692	0.125647	0.238316
H151	H	1.170396	0.126719	0.162310
H152	H	1.247493	0.061948	0.162234
H153	H	1.102339	0.069937	0.275609
H154	H	1.179503	0.005223	0.275447
H155	H	1.088256	0.350962	-0.076933
O156	O	0.829747	0.540819	-0.000121
C157	C	0.743265	0.449349	-0.062837
C158	C	0.825921	0.498329	-0.062787
H159	H	0.740152	0.414973	-0.113490
H160	H	0.688405	0.481720	-0.062889
H161	H	0.740073	0.415059	-0.012132
H162	H	0.829195	0.532629	-0.113484
H163	H	0.880742	0.465916	-0.062697
H164	H	1.124318	0.131052	0.000072
H165	H	0.421526	0.021124	0.000055
H166	H	1.116476	0.577957	0.000033
O167	O	0.547094	-0.220896	0.000044
C168	C	0.517795	-0.346291	-0.000009
C169	C	0.481318	-0.275956	-0.000023
H170	H	0.464633	-0.390825	-0.000079
H171	H	0.557849	-0.350094	0.050682
H172	H	0.557919	-0.350019	-0.050678
H173	H	0.441156	-0.272179	0.050611
H174	H	0.441312	-0.272182	-0.050748
H175	H	1.114166	0.709389	0.000009
O176	O	0.869899	-0.187974	0.189896
C177	C	0.757363	-0.281613	0.197935
C178	C	0.819758	-0.229642	0.239828
H179	H	0.716795	-0.315305	0.238287
H180	H	0.793078	-0.316370	0.162255
H181	H	0.715982	-0.251598	0.162240
H182	H	0.861155	-0.259600	0.275562
H183	H	0.783991	-0.194886	0.275462
O184	O	0.835008	0.236679	0.000127
C185	C	0.705100	0.244708	0.062873
C186	C	0.789178	0.214022	0.062856
H187	H	0.668031	0.226413	0.113591
H188	H	0.667939	0.226341	0.012224
H189	H	0.717116	0.304135	0.062838
H190	H	0.777239	0.154594	0.062917
H191	H	0.826313	0.232443	0.113500
O192	O	0.868534	0.321342	0.083745
C193	C	0.753196	0.316393	0.167869
C194	C	0.816373	0.363191	0.121170
H195	H	0.710996	0.350207	0.198127
H196	H	0.788231	0.286272	0.208861
H197	H	0.713551	0.278043	0.131144
H198	H	0.856034	0.401580	0.157837
H199	H	0.781287	0.393262	0.080172
H200	H	1.084653	-0.009167	0.334071
