data_functionalizedCrystal
_audit_creation_method	'MofGen! by Chris Wilmer'
_symmetry_space_group_name_H-M	'P1'
_symmetry_Int_Tables_number	1
_symmetry_cell_setting	triclinic
loop_
_symmetry_equiv_pos_as_xyz
  x,y,z
_cell_length_a	16.956984
_cell_length_b	10.654551
_cell_length_c	16.053789
_cell_angle_alpha	92.862852
_cell_angle_beta	93.049747
_cell_angle_gamma	80.269390
loop_
_atom_site_label
_atom_site_type_symbol
_atom_site_fract_x
_atom_site_fract_y
_atom_site_fract_z
O1	O	1.061350	0.056411	0.069432
O2	O	0.829437	0.100476	0.069431
O3	O	0.950725	-0.104923	0.069432
O4	O	0.940062	0.261809	0.069431
O5	O	0.944668	-0.113744	-0.069427
O6	O	0.823379	0.091655	-0.069428
O7	O	1.055293	0.047589	-0.069428
Zn8	Zn	0.938375	0.068221	-0.091475
Zn9	Zn	0.946355	0.079844	0.091478
O10	O	0.934005	0.252988	-0.069428
C11	C	0.796712	0.098322	0.000001
C12	C	0.708229	0.105030	0.000001
C13	C	0.675524	-0.007136	0.000000
C14	C	0.592384	-0.000825	0.000006
C15	C	0.541950	0.117654	0.000007
C16	C	0.574660	0.229829	0.000011
C17	C	0.657799	0.223517	0.000011
C18	C	0.292350	0.148898	0.000013
C19	C	0.209206	0.155202	0.000011
C20	C	0.226936	-0.075453	0.000007
C21	C	0.310075	-0.081755	0.000002
C22	C	0.342779	0.030421	0.000010
N23	N	0.456967	0.124108	0.000011
N24	N	0.427760	0.023966	0.000013
C25	C	0.946914	-0.156039	0.000004
C26	C	0.944571	-0.295206	0.000010
C27	C	0.946773	-0.355781	0.075701
C28	C	0.944565	-0.486542	0.075697
C29	C	0.937954	-0.496144	-0.075695
C30	C	0.940157	-0.365384	-0.075691
C31	C	0.951187	-0.285604	0.151401
C32	C	0.953391	-0.346178	0.227098
C33	C	0.951182	-0.476939	0.227094
C34	C	0.946770	-0.547126	0.151393
C35	C	1.088018	0.049744	0.000004
C36	C	1.176501	0.043035	0.000009
C37	C	0.937816	0.304104	0.000001
C38	C	0.940159	0.443272	0.000001
N39	N	0.932934	0.060288	-0.216335
C40	C	0.979784	0.128665	-0.260026
C41	C	0.975989	0.123106	-0.347433
C42	C	0.925339	0.049176	-0.391148
C43	C	0.878487	-0.019209	-0.347451
C44	C	0.882287	-0.013656	-0.260046
C45	C	0.908751	0.024934	-0.652559
C46	C	0.904952	0.019389	-0.739970
C47	C	1.002455	0.161703	-0.739946
C48	C	1.006247	0.167255	-0.652539
C49	C	0.959399	0.098865	-0.608850
N50	N	0.921456	0.043496	-0.480492
N51	N	0.963286	0.104539	-0.519507
N52	N	0.951802	0.087767	0.216339
H53	H	0.351134	-0.178233	-0.000002
C54	C	1.135053	0.195544	-0.766824
C55	C	1.053957	0.236864	-0.787969
H56	H	1.166849	0.241951	-0.796468
H57	H	1.148756	0.107245	-0.781152
H58	H	1.144552	0.209435	-0.708511
H59	H	1.044456	0.222964	-0.846282
H60	H	1.040249	0.325184	-0.773646
H61	H	0.870603	-0.030755	-0.616998
C62	C	1.020932	-0.122126	0.110189
C63	C	0.953612	-0.141869	0.151406
H64	H	1.022430	-0.033391	0.110197
H65	H	1.017982	-0.155248	0.054281
H66	H	1.068041	-0.164335	0.138148
H67	H	0.906502	-0.099668	0.123444
H68	H	0.956555	-0.108732	0.207324
C69	C	0.940597	-0.169195	-0.142897
C70	C	0.937737	-0.298789	-0.158890
H71	H	0.939095	-0.128083	-0.194263
H72	H	0.988704	-0.160195	-0.111802
H73	H	0.895921	-0.131417	-0.111790
H74	H	0.982416	-0.336570	-0.189991
H75	H	0.889625	-0.307798	-0.189998
C76	C	0.808964	-0.120749	-0.731214
C77	C	0.849278	-0.061890	-0.788021
H78	H	0.774598	-0.170928	-0.760880
H79	H	0.778107	-0.057469	-0.697127
H80	H	0.846849	-0.173785	-0.697118
H81	H	0.811392	-0.008846	-0.822114
H82	H	0.880136	-0.125177	-0.822122
H83	H	0.837251	-0.079411	-0.383051
C84	C	0.305908	0.348090	0.071402
C85	C	0.328276	0.272214	0.000020
H86	H	0.328081	0.424230	0.071402
H87	H	0.325296	0.302749	0.119815
H88	H	0.249173	0.368766	0.071388
H89	H	0.385010	0.251530	0.000036
H90	H	0.308891	0.317564	-0.048406
C91	C	0.785521	-0.154871	-0.268844
C92	C	0.830785	-0.088813	-0.212018
H93	H	0.753724	-0.201267	-0.239192
H94	H	0.820430	-0.212238	-0.302928
H95	H	0.751703	-0.095902	-0.302941
H96	H	0.864608	-0.147783	-0.177925
H97	H	0.795872	-0.031440	-0.177919
C98	C	0.108525	0.300627	0.071391
C99	C	0.153761	0.285439	0.000014
H100	H	0.074292	0.381021	0.071387
H101	H	0.143435	0.296457	0.119808
H102	H	0.077157	0.234710	0.071377
H103	H	0.185134	0.351350	0.000031
H104	H	0.118846	0.289620	-0.048415
C105	C	0.959691	-0.141463	0.294327
C106	C	0.958221	-0.269028	0.310305
H107	H	0.962672	-0.093838	0.345698
H108	H	0.912312	-0.107628	0.263223
H109	H	1.005095	-0.136410	0.263236
H110	H	0.912814	-0.274082	0.341392
H111	H	1.005606	-0.302872	0.341423
H112	H	1.021024	0.188875	-0.224440
C113	C	0.957941	-0.454308	0.376737
C114	C	0.953601	-0.543524	0.310297
H115	H	0.959442	-0.495418	0.428104
H116	H	0.912276	-0.389115	0.373594
H117	H	1.005058	-0.417903	0.373580
H118	H	0.906481	-0.579923	0.313451
H119	H	0.999271	-0.608740	0.313442
H120	H	0.944960	-0.653596	0.151396
H121	H	1.014140	0.178784	-0.383002
H122	H	0.533590	0.326297	0.000018
C123	C	1.016413	0.341819	-0.554258
C124	C	1.061920	0.248536	-0.604498
H125	H	1.050781	0.392010	-0.524607
H126	H	0.989068	0.301890	-0.515726
H127	H	0.978537	0.394836	-0.588375
H128	H	1.099792	0.195514	-0.570380
H129	H	1.089278	0.288468	-0.643035
C130	C	0.931646	-0.700859	-0.142921
C131	C	0.933111	-0.573293	-0.158901
H132	H	0.928662	-0.748485	-0.194290
H133	H	0.886254	-0.705915	-0.111824
H134	H	0.979037	-0.734694	-0.111820
H135	H	0.885717	-0.539454	-0.189997
H136	H	0.978507	-0.568230	-0.190011
C137	C	0.671397	0.422703	0.071392
C138	C	0.693749	0.346815	0.000011
H139	H	0.693587	0.498828	0.071390
H140	H	0.690779	0.377358	0.119805
H141	H	0.614664	0.443407	0.071381
H142	H	0.750482	0.326104	0.000024
H143	H	0.674371	0.392169	-0.048416
C144	C	0.684690	-0.234491	0.000010
C145	C	0.730958	-0.137373	0.000004
H146	H	0.718913	-0.314894	0.000021
H147	H	0.649786	-0.230312	-0.048411
H148	H	0.654002	-0.224138	0.048436
H149	H	0.761641	-0.147720	-0.048425
H150	H	0.765876	-0.141555	0.048431
C151	C	0.472811	-0.093566	0.000021
C152	C	0.556434	-0.124121	0.000010
H153	H	0.450620	-0.169689	0.000032
H154	H	0.453433	-0.048235	-0.048399
H155	H	0.457669	-0.042068	0.048448
H156	H	0.571576	-0.175611	-0.048420
H157	H	0.575820	-0.169472	0.048435
C158	C	0.107363	-0.168197	0.000014
C159	C	0.190987	-0.198749	0.000010
H160	H	0.085173	-0.244320	0.000024
H161	H	0.087988	-0.122869	-0.048408
H162	H	0.092218	-0.116697	0.048439
H163	H	0.206133	-0.250242	-0.048418
H164	H	0.210369	-0.244098	0.048437
