data_functionalizedCrystal
_audit_creation_method	'MofGen! by Chris Wilmer'
_symmetry_space_group_name_H-M	'P1'
_symmetry_Int_Tables_number	1
_symmetry_cell_setting	triclinic
loop_
_symmetry_equiv_pos_as_xyz
  x,y,z
_cell_length_a	18.101398
_cell_length_b	18.101395
_cell_length_c	18.101390
_cell_angle_alpha	89.968664
_cell_angle_beta	89.985301
_cell_angle_gamma	90.029256
loop_
_atom_site_label
_atom_site_type_symbol
_atom_site_fract_x
_atom_site_fract_y
_atom_site_fract_z
Zn1	Zn	1.132124	-0.294838	-0.418650
Zn2	Zn	1.132019	-0.418695	-0.294812
Zn3	Zn	1.008282	-0.294868	-0.294832
Zn4	Zn	1.008233	-0.418638	-0.418622
O5	O	1.070164	-0.356760	-0.356729
O6	O	1.235743	-0.311279	-0.402225
O7	O	1.115581	-0.402305	-0.191181
O8	O	1.024774	-0.191231	-0.311277
O9	O	1.235665	-0.402276	-0.311242
O10	O	1.115760	-0.191209	-0.402245
O11	O	1.024672	-0.311330	-0.191197
O12	O	0.904642	-0.311275	-0.311250
O13	O	1.024691	-0.402179	-0.522258
O14	O	0.904607	-0.402208	-0.402198
O15	O	1.115713	-0.311224	-0.522279
O16	O	1.115534	-0.522320	-0.311215
O17	O	1.024589	-0.522279	-0.402178
C18	C	0.877754	-0.356739	-0.356724
C19	C	0.795440	-0.356748	-0.356739
C20	C	1.070065	-0.549170	-0.356707
C21	C	1.070091	-0.631484	-0.356722
C22	C	0.644731	-0.356762	-0.356738
C23	C	0.613380	-0.414063	-0.413871
C24	C	0.527761	-0.414295	-0.413702
C25	C	0.496349	-0.356776	-0.356738
C26	C	0.527401	-0.377609	-0.278597
C27	C	0.613046	-0.378017	-0.278927
C28	C	0.613210	-0.278486	-0.377064
C29	C	0.527560	-0.278915	-0.378785
C30	C	0.412489	-0.356782	-0.356733
C31	C	0.728591	-0.356758	-0.356737
C32	C	1.070253	-0.930575	-0.356762
C33	C	1.013166	-0.899255	-0.414136
C34	C	1.012895	-0.813637	-0.413956
C35	C	1.070172	-0.782193	-0.356743
C36	C	1.049043	-0.813349	-0.278695
C37	C	1.048675	-0.898994	-0.279039
C38	C	1.148595	-0.898920	-0.376750
C39	C	1.148134	-0.813269	-0.378461
C40	C	1.070128	-0.698333	-0.356728
C41	C	1.070296	-1.014435	-0.356773
C42	C	1.263326	-0.356781	-0.356734
C43	C	1.345640	-0.356790	-0.356737
C44	C	1.070208	-0.356692	-0.549891
C45	C	1.070227	-0.356663	-0.632205
C46	C	1.070284	-0.163598	-0.356767
C47	C	1.070335	-0.081284	-0.356783
C48	C	1.070267	-0.356617	-0.931296
C49	C	1.127724	-0.299592	-0.899984
C50	C	1.127545	-0.299380	-0.814365
C51	C	1.070248	-0.356640	-0.782913
C52	C	0.992231	-0.335434	-0.813993
C53	C	0.992575	-0.335007	-0.899638
C54	C	1.090140	-0.434995	-0.899709
C55	C	1.091852	-0.434595	-0.814059
C56	C	1.070232	-0.356654	-0.699054
C57	C	1.070277	-0.356601	-1.015156
C58	C	1.070163	-0.356774	-0.164318
C59	C	1.070288	-0.356594	-0.082005
H60	H	0.506767	-0.401299	-0.471633
H61	H	0.955450	-0.920840	-0.401063
H62	H	0.505921	-0.434194	-0.261125
Cl63	Cl	0.645240	-0.394252	-0.503589
H64	H	0.507239	-0.472302	-0.400217
H65	H	0.633487	-0.235798	-0.335455
H66	H	1.146032	-0.454304	-0.921349
H67	H	0.634868	-0.471736	-0.400549
Cl68	Cl	0.923240	-0.782098	-0.393519
Cl69	Cl	0.960258	-0.929941	-0.252898
H70	H	1.089314	-0.792983	-0.234783
H71	H	1.088451	-0.919716	-0.234834
Cl72	Cl	0.965748	-0.247956	-0.780903
H73	H	1.149265	-0.450586	-0.793744
H74	H	0.632988	-0.435225	-0.261748
H75	H	0.506179	-0.233968	-0.340239
Cl76	Cl	0.961560	-0.780338	-0.252084
H77	H	1.191127	-0.919174	-0.334963
H78	H	1.026114	-0.792569	-0.471828
H79	H	1.114736	-0.241852	-0.921521
H80	H	1.053046	-0.479367	-0.792646
Cl81	Cl	0.924223	-0.396329	-0.931620
Cl82	Cl	0.645069	-0.316362	-0.210929
Cl83	Cl	0.495989	-0.315151	-0.211065
Cl84	Cl	1.025527	-0.500594	-0.930968
Cl85	Cl	1.107234	-0.209734	-0.782751
Cl86	Cl	1.033368	-0.930976	-0.503778
Cl87	Cl	0.646597	-0.249102	-0.463556
H88	H	1.167859	-0.920465	-0.432692
H89	H	0.507268	-0.263199	-0.436293
H90	H	1.164068	-0.792902	-0.435900
Cl91	Cl	1.217280	-0.780212	-0.318651
H92	H	1.185396	-0.312660	-0.793353
H93	H	1.185764	-0.312708	-0.920581
Cl94	Cl	0.966531	-0.246560	-0.930506
Cl95	Cl	0.924340	-0.397589	-0.782547
