data_functionalizedCrystal
_audit_creation_method	'MofGen! by Chris Wilmer'
_symmetry_space_group_name_H-M	'P1'
_symmetry_Int_Tables_number	1
_symmetry_cell_setting	triclinic
loop_
_symmetry_equiv_pos_as_xyz
  x,y,z
_cell_length_a	18.215407
_cell_length_b	12.759399
_cell_length_c	12.759393
_cell_angle_alpha	89.969094
_cell_angle_beta	89.976349
_cell_angle_gamma	90.015037
loop_
_atom_site_label
_atom_site_type_symbol
_atom_site_fract_x
_atom_site_fract_y
_atom_site_fract_z
Zn1	Zn	-1.125144	0.418218	0.594093
Zn2	Zn	-0.625144	0.918218	1.094093
Zn3	Zn	-1.125067	0.593933	0.418412
Zn4	Zn	-0.625067	1.093933	0.918412
Zn5	Zn	-1.002070	0.418269	0.418420
Zn6	Zn	-0.502070	0.918269	0.918420
Zn7	Zn	-1.002064	0.593855	0.594041
Zn8	Zn	-0.502064	1.093855	1.094041
O9	O	-1.063586	0.506069	0.506242
O10	O	-0.563586	1.006069	1.006242
O11	O	-1.228118	0.441538	0.570807
O12	O	-0.728118	0.941538	1.070807
O13	O	-1.108722	0.570685	0.271392
O14	O	-0.608722	1.070685	0.771392
O15	O	-1.018431	0.271241	0.441749
O16	O	-0.518431	0.771241	0.941749
O17	O	-1.228061	0.570636	0.441735
O18	O	-0.728061	1.070636	0.941735
O19	O	-1.108853	0.271203	0.570815
O20	O	-0.608853	0.771203	1.070815
O21	O	-1.018356	0.441625	0.271398
O22	O	-0.518356	0.941625	0.771398
O23	O	-0.899085	0.441549	0.441698
O24	O	-0.399085	0.941549	0.941698
O25	O	-1.018420	0.570502	0.741069
O26	O	-0.518420	1.070502	1.241069
O27	O	-0.899080	0.570552	0.570726
O28	O	-0.399080	1.070552	1.070726
O29	O	-1.108847	0.441462	0.741107
O30	O	-0.608847	0.941462	1.241107
O31	O	-1.108715	0.740944	0.441684
O32	O	-0.608715	1.240944	0.941684
O33	O	-1.018345	0.740886	0.570718
O34	O	-0.518345	1.240886	1.070718
C35	C	-0.872380	0.506048	0.506208
C36	C	-0.372380	1.006048	1.006208
C37	C	-0.790581	0.506065	0.506218
C38	C	-0.290581	1.006065	1.006218
C39	C	-1.063541	0.779036	0.506218
C40	C	-0.563541	1.279036	1.006218
C41	C	-1.063589	0.895813	0.506243
C42	C	-0.563589	1.395813	1.006243
C43	C	-1.063641	0.505968	0.780275
C44	C	-0.563641	1.005968	1.280275
C45	C	-1.063665	0.505925	0.897052
C46	C	-0.563665	1.005925	1.397052
C47	C	-0.602404	0.573339	0.573315
C48	C	-0.102404	1.073339	1.073315
C49	C	-0.525545	0.573342	0.573327
C50	C	-0.025545	1.073342	1.073327
C51	C	-0.525521	0.438804	0.439172
C52	C	-0.025521	0.938804	0.939172
C53	C	-0.602378	0.438797	0.439166
C54	C	-0.102378	0.938797	0.939166
C55	C	-0.640818	0.506071	0.506236
C56	C	-0.140818	1.006071	1.006236
C57	C	-0.487101	0.506080	0.506254
C58	C	0.012899	1.006080	1.006254
C59	C	-0.403768	0.506082	0.506266
C60	C	0.096232	1.006082	1.006266
C61	C	-0.724156	0.506068	0.506226
C62	C	-0.224156	1.006068	1.006226
C63	C	-0.255539	0.506087	0.506271
C64	C	0.244461	1.006087	1.006271
C65	C	-0.337338	0.506086	0.506272
C66	C	0.162662	1.006086	1.006272
C67	C	-1.063652	0.232035	0.506289
C68	C	-0.563652	0.732035	1.006289
C69	C	-1.063679	0.115259	0.506309
C70	C	-0.563679	0.615259	1.006309
C71	C	-1.110698	0.950670	0.439131
C72	C	-0.610698	1.450670	0.939131
C73	C	-1.110746	1.060394	0.439166
C74	C	-0.610746	1.560394	0.939166
C75	C	-1.016568	1.060394	0.573427
C76	C	-0.516568	1.560394	1.073427
C77	C	-1.016525	0.950672	0.573397
C78	C	-0.516525	1.450672	1.073397
C79	C	-1.063574	0.506093	0.233274
C80	C	-0.563574	1.006093	0.733274
C81	C	-1.063693	0.505840	0.116498
C82	C	-0.563693	1.005840	0.616498
C83	C	-1.110753	0.438723	0.951935
C84	C	-0.610753	0.938723	1.451935
C85	C	-1.110766	0.438678	1.061660
C86	C	-0.610766	0.938678	1.561660
C87	C	-1.016599	0.573045	1.061607
C88	C	-0.516599	1.073045	1.561607
C89	C	-1.016583	0.573084	0.951885
C90	C	-0.516583	1.073084	1.451885
H91	H	-0.633699	0.628115	0.627931
H92	H	-0.133699	1.128115	1.127931
F93	F	-0.643263	0.367191	0.367773
F94	F	-0.143263	0.867191	0.867773
H95	H	-1.149088	0.384034	0.907294
H96	H	-0.649088	0.884034	1.407294
H97	H	-1.149109	0.383953	1.106341
H98	H	-0.649109	0.883953	1.606341
F99	F	-0.966497	0.644521	1.119973
F100	F	-0.466497	1.144521	1.619973
F101	F	-0.966385	0.892286	0.644835
F102	F	-0.466385	1.392286	1.144835
H103	H	-1.149108	1.105053	0.384519
H104	H	-0.649108	1.605053	0.884519
H105	H	-0.494272	0.628117	0.627951
H106	H	0.005728	1.128117	1.127951
F107	F	-0.484604	0.367212	0.367794
F108	F	0.015396	0.867212	0.867794
F109	F	-0.966480	1.118788	0.644892
F110	F	-0.466480	1.618788	1.144892
H111	H	-0.978233	0.627807	0.907197
H112	H	-0.478233	1.127807	1.407197
H113	H	-1.149022	0.906006	0.384452
H114	H	-0.649022	1.406006	0.884452
