data_functionalizedCrystal
_audit_creation_method	'MofGen! by Chris Wilmer'
_symmetry_space_group_name_H-M	'P1'
_symmetry_Int_Tables_number	1
_symmetry_cell_setting	triclinic
loop_
_symmetry_equiv_pos_as_xyz
  x,y,z
_cell_length_a	14.908571
_cell_length_b	15.297327
_cell_length_c	14.908694
_cell_angle_alpha	103.447437
_cell_angle_beta	83.592472
_cell_angle_gamma	96.991395
loop_
_atom_site_label
_atom_site_type_symbol
_atom_site_fract_x
_atom_site_fract_y
_atom_site_fract_z
Zn1	Zn	1.335576	-0.474947	-0.669165
Zn2	Zn	1.303555	-0.616576	-0.540958
Zn3	Zn	1.178500	-0.456494	-0.506084
Zn4	Zn	1.160998	-0.616506	-0.683545
O5	O	1.244657	-0.541131	-0.599938
O6	O	1.456726	-0.501486	-0.660736
O7	O	1.280889	-0.587648	-0.408409
O8	O	1.220062	-0.332704	-0.507104
O9	O	1.433200	-0.605541	-0.566542
O10	O	1.335465	-0.346261	-0.626919
O11	O	1.189012	-0.470037	-0.382786
O12	O	1.050780	-0.469969	-0.521047
O13	O	1.190233	-0.605421	-0.809561
O14	O	1.037922	-0.587529	-0.651427
O15	O	1.318495	-0.501418	-0.798996
O16	O	1.263919	-0.742805	-0.580486
O17	O	1.159183	-0.742754	-0.685244
C18	C	1.011837	-0.526740	-0.584014
C19	C	0.912233	-0.520606	-0.577226
C20	C	0.711688	-0.631665	-0.700109
C21	C	0.618101	-0.625905	-0.693736
C22	C	0.631470	-0.503322	-0.558110
C23	C	0.725057	-0.509082	-0.564484
C24	C	0.765163	-0.573257	-0.635485
C25	C	0.858751	-0.579020	-0.641854
C26	C	0.872119	-0.456434	-0.506233
C27	C	0.778532	-0.450674	-0.499859
C28	C	1.206202	-0.775514	-0.638231
C29	C	1.189834	-0.875791	-0.654649
C30	C	1.362024	-1.158459	-0.482933
C31	C	1.377402	-1.064244	-0.467503
C32	C	1.330512	-1.017126	-0.514288
C33	C	1.268241	-1.064233	-0.576506
C34	C	1.252856	-1.158457	-0.591932
C35	C	1.221344	-1.017124	-0.623288
C36	C	1.159072	-1.064231	-0.685506
C37	C	1.143691	-1.158446	-0.700930
C38	C	1.190582	-1.205564	-0.654144
C39	C	1.236728	-0.922900	-0.607861
C40	C	1.127560	-0.922898	-0.716861
C41	C	1.112182	-1.017114	-0.732291
C42	C	1.478387	-0.555579	-0.615925
C43	C	1.577988	-0.561736	-0.622738
C44	C	1.255984	-0.555470	-0.838375
C45	C	1.260810	-0.561581	-0.939983
C46	C	1.283288	-0.305835	-0.561517
C47	C	1.299750	-0.205566	-0.545145
C48	C	1.174186	-0.450595	-1.104235
C49	C	1.178719	-0.456333	-1.199703
C50	C	1.274402	-0.578799	-1.226391
C51	C	1.269869	-0.573060	-1.130922
C52	C	1.219761	-0.508956	-1.069847
C53	C	1.215234	-0.503214	-0.974376
C54	C	1.310911	-0.625683	-1.001066
C55	C	1.315444	-0.631421	-1.096535
C56	C	1.233437	-0.526786	-0.362421
C57	C	1.228826	-0.520432	-0.260784
H58	H	0.915668	-0.408875	-0.453609
C59	C	1.413586	-1.210294	-0.431466
N60	N	1.452423	-1.249336	-0.392695
C61	C	0.587339	-0.432727	-0.480023
N62	N	0.554099	-0.379553	-0.421208
H63	H	1.287429	-0.884554	-0.557203
C64	C	1.128588	-0.392128	-1.237525
N65	N	1.090828	-0.343764	-1.266012
C66	C	1.043678	-1.068943	-0.800722
N67	N	0.992079	-1.107981	-0.852261
C68	C	1.347447	-0.913488	-0.497330
N69	N	1.360213	-0.835425	-0.484562
H70	H	0.891403	-0.631276	-0.699666
C71	C	1.370327	-0.702121	-1.163747
N72	N	1.411585	-0.755439	-1.214376
C73	C	0.559281	-0.690164	-0.764823
N74	N	0.514977	-0.738569	-0.818368
C75	C	1.329032	-0.649698	-1.293628
N76	N	1.370008	-0.703239	-1.344285
H77	H	1.348025	-0.673202	-0.973058
C78	C	1.119072	-0.380076	-1.037049
N79	N	1.077558	-0.326961	-0.986446
H80	H	1.428101	-1.025892	-0.416844
C81	C	0.734405	-0.380085	-0.421762
N82	N	0.701169	-0.326918	-0.362936
C83	C	1.173665	-1.309207	-0.671110
N84	N	1.160924	-1.387272	-0.683885
C85	C	0.755806	-0.702260	-0.778207
N86	N	0.789033	-0.755432	-0.837033
H87	H	1.089376	-0.884535	-0.754956
C88	C	1.075183	-1.210261	-0.769363
N89	N	1.023582	-1.249286	-0.820907
H90	H	1.174438	-0.451013	-0.924649
