data_functionalizedCrystal
_audit_creation_method	'MofGen! by Chris Wilmer'
_symmetry_space_group_name_H-M	'P1'
_symmetry_Int_Tables_number	1
_symmetry_cell_setting	triclinic
loop_
_symmetry_equiv_pos_as_xyz
  x,y,z
_cell_length_a	18.050588
_cell_length_b	14.908993
_cell_length_c	14.908858
_cell_angle_alpha	83.247645
_cell_angle_beta	93.328862
_cell_angle_gamma	93.331113
loop_
_atom_site_label
_atom_site_type_symbol
_atom_site_fract_x
_atom_site_fract_y
_atom_site_fract_z
Zn1	Zn	-0.210733	1.354216	0.432058
Zn2	Zn	-0.341716	1.362822	0.280704
Zn3	Zn	-0.224320	1.211581	0.289433
Zn4	Zn	-0.341672	1.202799	0.440738
O5	O	-0.279610	1.282854	0.360733
O6	O	-0.222440	1.482021	0.404694
O7	O	-0.331848	1.350036	0.155198
O8	O	-0.118589	1.230575	0.308374
O9	O	-0.318673	1.488343	0.293495
O10	O	-0.108606	1.335369	0.413159
O11	O	-0.245598	1.238920	0.161612
O12	O	-0.245555	1.083753	0.316790
O13	O	-0.318598	1.215609	0.566250
O14	O	-0.331773	1.077301	0.427953
O15	O	-0.222397	1.326854	0.559873
O16	O	-0.445639	1.341521	0.301912
O17	O	-0.445607	1.223953	0.419488
C18	C	-0.290134	1.047684	0.374261
C19	C	-0.294653	0.947076	0.380070
C20	C	-0.213217	0.764680	0.275394
C21	C	-0.217460	0.670150	0.280849
C22	C	-0.307388	0.663485	0.396430
C23	C	-0.303144	0.758015	0.390975
C24	C	-0.256056	0.808609	0.330456
C25	C	-0.251809	0.903141	0.325006
C26	C	-0.341740	0.896474	0.440582
C27	C	-0.345984	0.801944	0.446037
C28	C	-0.472569	1.282741	0.360713
C29	C	-0.555112	1.282774	0.360729
C30	C	-0.803943	1.218936	0.424662
C31	C	-0.749779	1.300190	0.442118
C32	C	-0.852222	1.282959	0.360769
C33	C	-0.759307	1.201616	0.343336
C34	C	-0.706242	1.282863	0.360752
C35	C	-0.799141	1.364255	0.378265
C36	C	-0.808678	1.265627	0.279448
C37	C	-0.754535	1.346940	0.296869
C38	C	-0.936317	1.283013	0.360781
C39	C	-0.622148	1.282819	0.360739
C40	C	-0.085896	1.282992	0.360772
C41	C	-0.003347	1.283050	0.360789
C42	C	-0.268977	1.269292	0.596822
C43	C	-0.264446	1.263512	0.697429
C44	C	-0.269046	1.518943	0.347153
C45	C	-0.264544	1.619549	0.341366
C46	C	-0.290146	1.296416	0.125560
C47	C	-0.294461	1.302371	0.024943
C48	C	-0.213155	1.197521	0.842568
C49	C	-0.217411	1.202948	0.748039
C50	C	-0.307225	1.318656	0.741354
C51	C	-0.302969	1.313229	0.835883
C52	C	-0.255933	1.252658	0.886487
C53	C	-0.251681	1.247228	0.981018
C54	C	-0.341491	1.362940	0.974331
C55	C	-0.345747	1.368367	0.879802
H56	H	-0.384324	0.760738	0.495307
H57	H	-0.724064	1.314815	0.510881
H58	H	-0.376321	1.407842	1.010099
C59	C	-0.205368	1.051008	0.265325
C60	C	-0.200052	0.958758	0.258485
H61	H	-0.173412	1.085340	0.224258
H62	H	-0.255152	1.067236	0.251083
H63	H	-0.191134	1.063012	0.325271
H64	H	-0.214291	0.946753	0.198540
H65	H	-0.150258	0.942524	0.272720
H66	H	-0.732978	1.401101	0.242826
H67	H	-0.834410	1.250977	0.210706
C68	C	-0.128214	1.088023	0.764147
C69	C	-0.170393	1.142333	0.699763
H70	H	-0.099190	1.050597	0.734341
H71	H	-0.096380	1.125363	0.798748
H72	H	-0.160470	1.051266	0.803006
H73	H	-0.138137	1.179095	0.660908
H74	H	-0.202230	1.104989	0.665146
H75	H	-0.816703	1.433021	0.393082
H76	H	-0.376619	0.932251	0.485422
C77	C	-0.124756	0.761778	0.161691
C78	C	-0.161463	0.820300	0.208870
H79	H	-0.092810	0.796117	0.120616
H80	H	-0.096270	0.722666	0.203311
H81	H	-0.160296	0.726872	0.129135
H82	H	-0.125922	0.855201	0.241432
H83	H	-0.189950	0.859427	0.167244
C84	C	-0.760434	1.041922	0.390419
C85	C	-0.735491	1.108804	0.323418
H86	H	-0.745741	0.984622	0.378118
H87	H	-0.739407	1.054624	0.447735
H88	H	-0.813074	1.041154	0.390831
H89	H	-0.682851	1.109577	0.323010
H90	H	-0.756516	1.096099	0.266086
H91	H	-0.213382	1.197907	1.022219
H92	H	-0.174859	1.148198	0.883771
C93	C	-0.353617	1.378353	0.593474
C94	C	-0.358921	1.385234	0.685719
H95	H	-0.385535	1.419453	0.559130
H96	H	-0.303824	1.392523	0.577245
H97	H	-0.367907	1.318416	0.581489
H98	H	-0.344625	1.445170	0.697707
H99	H	-0.408724	1.371070	0.701955
H100	H	-0.384041	1.417684	0.838587
H101	H	-0.345732	0.622275	0.445693
C102	C	-0.217260	0.570840	0.165238
C103	C	-0.170374	0.621870	0.220312
H104	H	-0.188191	0.541042	0.127856
H105	H	-0.245896	0.527175	0.202059
H106	H	-0.249484	0.609701	0.128436
H107	H	-0.138153	0.583008	0.257118
H108	H	-0.141726	0.665541	0.183486
C109	C	-0.803313	1.164317	0.582752
C110	C	-0.833232	1.145988	0.497657
H111	H	-0.821401	1.119289	0.627815
H112	H	-0.750666	1.164134	0.583605
H113	H	-0.817594	1.221956	0.594551
H114	H	-0.818947	1.088353	0.485855
H115	H	-0.885891	1.146163	0.496802
