data_functionalizedCrystal
_audit_creation_method	'MofGen! by Chris Wilmer'
_symmetry_space_group_name_H-M	'P1'
_symmetry_Int_Tables_number	1
_symmetry_cell_setting	triclinic
loop_
_symmetry_equiv_pos_as_xyz
  x,y,z
_cell_length_a	27.732048
_cell_length_b	14.519709
_cell_length_c	13.596369
_cell_angle_alpha	89.999709
_cell_angle_beta	89.989067
_cell_angle_gamma	96.838600
loop_
_atom_site_label
_atom_site_type_symbol
_atom_site_fract_x
_atom_site_fract_y
_atom_site_fract_z
O1	O	0.063362	-1.222766	-0.081675
O2	O	0.070824	-0.954159	-0.081706
O3	O	-0.003264	-1.096805	-0.081671
O4	O	0.137450	-1.080120	-0.081710
O5	O	-0.003268	-1.096791	0.081912
O6	O	0.070820	-0.954145	0.081877
O7	O	0.063358	-1.222752	0.081908
Zn8	Zn	0.067088	-1.088446	0.107865
Zn9	Zn	0.067094	-1.088465	-0.107663
O10	O	0.137446	-1.080106	0.081873
C11	C	0.070474	-0.919799	0.000082
C12	C	0.069432	-0.817435	0.000071
C13	C	-0.021274	-1.096448	0.000124
C14	C	-0.074934	-1.095393	0.000132
C15	C	0.063708	-1.257113	0.000119
C16	C	0.064750	-1.359476	0.000123
C17	C	-0.413378	-1.173048	0.000090
C18	C	-0.615057	-1.169135	0.000076
O19	O	-0.645973	-1.240145	0.000041
N20	N	-0.634585	-1.084552	0.000067
C21	C	-0.603690	-1.000941	0.000055
O22	O	-0.624927	-0.928909	0.000037
C23	C	-0.402012	-1.004855	0.000062
C24	C	-0.382487	-1.089444	0.000081
C25	C	-0.393853	-1.257630	0.000108
C26	C	-0.343436	-1.258607	0.000117
C27	C	-0.312545	-1.175003	0.000108
C28	C	-0.332071	-1.090421	0.000090
C29	C	-0.371118	-0.921246	0.000043
C30	C	-0.320696	-0.922232	0.000043
C31	C	-0.301171	-1.006820	0.000062
C32	C	-0.250763	-1.007794	0.000090
N33	N	-0.231235	-1.092377	0.000099
C34	C	-0.262126	-1.175981	0.000108
C35	C	-0.709574	-0.998893	0.000053
C36	C	-0.759993	-0.997914	0.000053
C37	C	-0.771356	-1.166108	0.000072
C38	C	-0.720936	-1.167086	0.000079
C39	C	-0.690045	-1.083476	0.000062
C40	C	-0.156247	-1.178028	0.000128
C41	C	-0.105825	-1.178998	0.000141
C42	C	-0.094466	-1.010804	0.000116
C43	C	-0.144883	-1.009833	0.000109
C44	C	-0.175773	-1.093453	0.000111
O45	O	-0.219818	-0.936822	0.000114
O46	O	-0.240879	-1.248004	0.000104
C47	C	-0.463795	-1.172071	0.000081
C48	C	-0.483320	-1.087489	0.000063
C49	C	-0.452429	-1.003885	0.000054
C50	C	-0.533740	-1.086510	0.000063
C51	C	-0.564631	-1.170115	0.000072
C52	C	-0.545103	-1.254698	0.000081
C53	C	-0.494686	-1.255675	0.000090
C54	C	-0.471957	-0.919302	0.000046
C55	C	-0.522375	-0.918331	0.000038
C56	C	-0.553266	-1.001936	0.000047
C57	C	0.155456	-1.080464	0.000077
C58	C	0.209116	-1.081518	0.000062
N59	N	0.067085	-1.088441	0.254957
C60	C	0.065596	-0.442606	0.000116
C61	C	0.066661	-0.546896	0.000103
C62	C	0.067514	-0.630018	0.000093
C63	C	0.068579	-0.734314	0.000081
N64	N	0.067094	-1.088478	-0.254754
C65	C	0.067094	-1.088464	0.656248
C66	C	0.067093	-1.088454	0.544596
C67	C	0.067090	-1.088453	0.455606
C68	C	0.067088	-1.088442	0.343947
H69	H	-0.089931	-1.247882	0.000158
H70	H	-0.419000	-1.325714	0.000112
O71	O	-0.186297	-1.259194	0.000265
C72	C	-0.215803	-1.263669	0.084997
H73	H	-0.218432	-1.190506	0.113227
H74	H	-0.253659	-1.298589	0.065946
H75	H	-0.199178	-1.305530	0.144332
H76	H	-0.796516	-1.234182	0.000080
O77	O	-0.778980	-0.915769	0.000218
C78	C	-0.807822	-0.910162	0.084923
H79	H	-0.795862	-0.958173	0.144149
H80	H	-0.803366	-0.835769	0.113347
H81	H	-0.847559	-0.932008	0.065770
O82	O	-0.702052	-1.249335	0.000044
C83	C	-0.740135	-1.322910	0.000080
H84	H	-0.774405	-1.297552	-0.030887
H85	H	-0.729543	-1.382015	-0.047409
H86	H	-0.747250	-1.348658	0.078562
H87	H	-0.538266	-0.849444	0.000031
H88	H	-0.446810	-0.851220	0.000036
H89	H	-0.684426	-0.930803	0.000040
H90	H	-0.327544	-1.327488	0.000128
H91	H	-0.387006	-0.852365	0.000022
O92	O	-0.575135	-1.335888	-0.000087
C93	C	-0.604636	-1.340336	-0.084801
H94	H	-0.586205	-1.292915	-0.144015
H95	H	-0.610237	-1.414703	-0.113235
H96	H	-0.641321	-1.316989	-0.065655
O97	O	-0.163832	-0.927645	-0.000079
C98	C	-0.148029	-0.876726	-0.084792
H99	H	-0.137483	-0.926208	-0.143992
H100	H	-0.178604	-0.837942	-0.113251
H101	H	-0.115223	-0.824854	-0.065636
H102	H	-0.295547	-0.854144	0.000027
O103	O	-0.064385	-0.929679	0.000063
C104	C	-0.015699	-0.948691	0.000094
H105	H	-0.013699	-1.021105	-0.030858
H106	H	0.007101	-0.895369	-0.047410
H107	H	-0.001129	-0.944972	0.078573
O108	O	-0.475803	-1.337926	0.000058
C109	C	-0.513888	-1.411497	0.000088
H110	H	-0.548156	-1.386136	-0.030886
H111	H	-0.503296	-1.470604	-0.047398
H112	H	-0.521008	-1.437244	0.078570
