data_functionalizedCrystal
_audit_creation_method	'MofGen! by Chris Wilmer'
_symmetry_space_group_name_H-M	'P1'
_symmetry_Int_Tables_number	1
_symmetry_cell_setting	triclinic
loop_
_symmetry_equiv_pos_as_xyz
  x,y,z
_cell_length_a	10.685727
_cell_length_b	10.686285
_cell_length_c	10.685986
_cell_angle_alpha	98.412590
_cell_angle_beta	90.351197
_cell_angle_gamma	80.939845
loop_
_atom_site_label
_atom_site_type_symbol
_atom_site_fract_x
_atom_site_fract_y
_atom_site_fract_z
Zn1	Zn	-1.911870	0.586566	-0.814895
Zn2	Zn	-1.946818	0.817642	-0.588879
Zn3	Zn	-1.718355	0.589115	-0.588904
Zn4	Zn	-1.718378	0.784957	-0.784844
O5	O	-1.823855	0.694570	-0.694380
O6	O	-2.093095	0.629830	-0.797480
O7	O	-1.931127	0.802073	-0.412292
O8	O	-1.729389	0.410110	-0.631470
O9	O	-2.118771	0.799601	-0.631426
O10	O	-1.871563	0.408237	-0.797504
O11	O	-1.763276	0.634175	-0.412310
O12	O	-1.541768	0.602482	-0.602330
O13	O	-1.729430	0.743895	-0.965420
O14	O	-1.541786	0.746367	-0.746286
O15	O	-1.871587	0.598137	-0.987499
O16	O	-1.931150	0.991974	-0.602286
O17	O	-1.763317	0.967960	-0.746261
C18	C	-1.495990	0.671155	-0.671050
C19	C	-1.355727	0.661167	-0.661097
C20	C	-1.851061	1.026293	-0.671040
C21	C	-1.862811	1.168211	-0.661105
C22	C	-1.796612	0.667086	-1.023528
C23	C	-1.785003	0.655373	-1.163791
C24	C	-1.153000	0.718064	-0.717797
C25	C	-1.293260	0.728040	-0.727762
C26	C	-1.796575	0.361552	-0.717842
C27	C	-1.784950	0.219639	-0.727840
C28	C	-1.851057	0.721861	-0.366525
C29	C	-1.862881	0.733231	-0.226305
H30	H	-1.347083	0.792927	-0.792459
H31	H	-1.301896	0.596264	-0.596407
Br32	Br	-1.658855	1.112070	-0.835740
H33	H	-1.938458	1.232759	-0.596356
Br34	Br	-1.659079	0.529334	-1.253430
Br35	Br	-1.988830	0.859255	-1.136665
