data_functionalizedCrystal
_audit_creation_method	'MofGen! by Chris Wilmer'
_symmetry_space_group_name_H-M	'P1'
_symmetry_Int_Tables_number	1
_symmetry_cell_setting	triclinic
loop_
_symmetry_equiv_pos_as_xyz
  x,y,z
_cell_length_a	17.077404
_cell_length_b	12.759394
_cell_length_c	17.077396
_cell_angle_alpha	89.972850
_cell_angle_beta	89.982756
_cell_angle_gamma	90.015062
loop_
_atom_site_label
_atom_site_type_symbol
_atom_site_fract_x
_atom_site_fract_y
_atom_site_fract_z
Zn1	Zn	1.200081	-0.418252	-0.443855
Zn2	Zn	1.200012	-0.593955	-0.312593
Zn3	Zn	1.068818	-0.418291	-0.312602
Zn4	Zn	1.068799	-0.593890	-0.443817
O5	O	1.134428	-0.506097	-0.378217
O6	O	1.309919	-0.441570	-0.426454
O7	O	1.182587	-0.570696	-0.202748
O8	O	1.086267	-0.271265	-0.330033
O9	O	1.309868	-0.570658	-0.330017
O10	O	1.182706	-0.271236	-0.426463
O11	O	1.086200	-0.441637	-0.202754
O12	O	0.958969	-0.441574	-0.329996
O13	O	1.086235	-0.570547	-0.553669
O14	O	0.958955	-0.570586	-0.426399
O15	O	1.182687	-0.441507	-0.553697
O16	O	1.182569	-0.740967	-0.329981
O17	O	1.086168	-0.740920	-0.426391
C18	C	0.930480	-0.506078	-0.378195
C19	C	0.843230	-0.506095	-0.378205
C20	C	0.802253	-0.573373	-0.428321
C21	C	0.720273	-0.573375	-0.428334
C22	C	0.679270	-0.506104	-0.378225
C23	C	0.720253	-0.438819	-0.328107
C24	C	0.802232	-0.438812	-0.328099
C25	C	0.549383	-0.438839	-0.328125
C26	C	0.467398	-0.438847	-0.328132
C27	C	0.467424	-0.573402	-0.428360
C28	C	0.549403	-0.573396	-0.428352
C29	C	0.590379	-0.506112	-0.378233
C30	C	1.134380	-0.779064	-0.378198
C31	C	1.134432	-0.895841	-0.378216
C32	C	1.234890	-0.895837	-0.277900
C33	C	1.285139	-0.950696	-0.227751
C34	C	1.285185	-1.060418	-0.227773
C35	C	1.234978	-1.115283	-0.277950
C36	C	1.184729	-1.060424	-0.328099
C37	C	1.184687	-0.950700	-0.328070
C38	C	1.084276	-1.060428	-0.428417
C39	C	1.084225	-0.950706	-0.428393
C40	C	1.034069	-1.115293	-0.478594
C41	C	0.983814	-1.060434	-0.528740
C42	C	0.983770	-0.950706	-0.528716
C43	C	1.033975	-0.895847	-0.478542
C44	C	1.339172	-0.506117	-0.378239
C45	C	1.426422	-0.506125	-0.378249
C46	C	1.134467	-0.506015	-0.582961
C47	C	1.134484	-0.505981	-0.670211
C48	C	1.134496	-0.232063	-0.378253
C49	C	1.134525	-0.115287	-0.378269
C50	C	1.084310	-0.438771	-0.711204
C51	C	1.084323	-0.438748	-0.793185
C52	C	1.134514	-0.505928	-0.834171
C53	C	1.184690	-0.573145	-0.793172
C54	C	1.184672	-0.573174	-0.711193
C55	C	1.184724	-0.573079	-0.964042
C56	C	1.184742	-0.573050	-1.046027
C57	C	1.084374	-0.438654	-1.046034
C58	C	1.084357	-0.438682	-0.964055
C59	C	1.134534	-0.505897	-0.923062
C60	C	1.134433	-0.506102	-0.174269
C61	C	1.134569	-0.505841	-0.087020
H62	H	0.835631	-0.628156	-0.469123
Br63	Br	0.664664	-0.664682	-0.496354
H64	H	0.434017	-0.384057	-0.287339
H65	H	1.225590	-0.627804	-0.930668
Br66	Br	1.033763	-1.264200	-0.478257
H67	H	0.582744	-0.384040	-0.287319
Br68	Br	1.252867	-0.664215	-1.101651
H69	H	0.686862	-0.384041	-0.287311
Br70	Br	0.915691	-1.134897	-0.596838
H71	H	1.326019	-0.906015	-0.186899
Br72	Br	1.234674	-1.264190	-0.277610
Br73	Br	1.353387	-1.134874	-0.159720
H74	H	1.225535	-0.627894	-0.677817
H75	H	0.942854	-0.906045	-0.569557
H76	H	0.835594	-0.384022	-0.287293
H77	H	1.033939	-0.806506	-0.478512
Br78	Br	1.016196	-0.347584	-0.655588
Br79	Br	0.605049	-0.664703	-0.496350
Br80	Br	0.411814	-0.664703	-0.496391
H81	H	1.234847	-0.806496	-0.277868
Br82	Br	1.016184	-0.347588	-0.848815
Br83	Br	1.016247	-0.347497	-0.908431
Br84	Br	1.016280	-0.347427	-1.101666
H85	H	1.225552	-0.627850	-0.826549
