data_functionalizedCrystal
_audit_creation_method	'MofGen! by Chris Wilmer'
_symmetry_space_group_name_H-M	'P1'
_symmetry_Int_Tables_number	1
_symmetry_cell_setting	triclinic
loop_
_symmetry_equiv_pos_as_xyz
  x,y,z
_cell_length_a	15.538191
_cell_length_b	13.339070
_cell_length_c	11.804365
_cell_angle_alpha	74.887832
_cell_angle_beta	97.107590
_cell_angle_gamma	81.450694
loop_
_atom_site_label
_atom_site_type_symbol
_atom_site_fract_x
_atom_site_fract_y
_atom_site_fract_z
O1	O	-1.184052	0.324809	-0.099049
O2	O	-0.937649	0.218229	-0.099045
O3	O	-1.032571	0.408397	-0.099043
O4	O	-1.089130	0.134640	-0.099051
O5	O	-1.007572	0.358371	0.099012
O6	O	-0.912650	0.168202	0.099010
O7	O	-1.159053	0.274782	0.099007
Cu8	Cu	-1.033569	0.216924	0.117092
Cu9	Cu	-1.063133	0.276086	-0.117131
O10	O	-1.064131	0.084613	0.099004
C11	C	-0.892969	0.182064	-0.000017
C12	C	-0.797076	0.148849	-0.000016
C13	C	-1.010518	0.417566	-0.000017
C14	C	-0.982041	0.519412	-0.000021
C15	C	-1.203734	0.310947	-0.000024
C16	C	-1.299627	0.344164	-0.000033
C17	C	-0.423039	0.478834	-0.000025
C18	C	-0.332937	0.447601	-0.000027
C19	C	-0.356413	0.271919	-0.000032
C20	C	-0.446518	0.303136	-0.000024
C21	C	-0.479824	0.406595	-0.000022
C22	C	-0.503303	0.230897	-0.000021
C23	C	-0.593401	0.262114	-0.000020
C24	C	-0.626714	0.365570	-0.000021
C25	C	-0.569922	0.437812	-0.000021
C26	C	-0.469997	0.127440	-0.000031
C27	C	-0.526781	0.055201	-0.000029
C28	C	-0.616880	0.086415	-0.000019
C29	C	-0.650194	0.189871	-0.000020
C30	C	-0.673673	0.014173	-0.000019
C31	C	-0.763771	0.045389	-0.000018
C32	C	-0.740292	0.221088	-0.000019
C33	C	-1.086185	0.075446	-0.000025
C34	C	-1.114663	-0.026398	-0.000028
N35	N	-1.012781	0.175316	0.281832
C36	C	-1.203467	0.965511	-0.000024
C37	C	-1.230225	0.869821	-0.000013
C38	C	-1.168181	0.782215	-0.000016
C39	C	-1.079376	0.790306	-0.000028
C40	C	-1.052614	0.886003	-0.000030
C41	C	-1.017328	0.702707	-0.000021
C42	C	-0.928522	0.710799	-0.000034
C43	C	-0.901766	0.806487	-0.000036
C44	C	-0.963809	0.894094	-0.000034
C45	C	-1.044089	0.607010	-0.000020
C46	C	-0.893236	0.527502	-0.000025
C47	C	-0.866479	0.623192	-0.000036
N48	N	-1.083926	0.317705	-0.281871
C49	C	-1.133841	0.417640	0.655784
C50	C	-1.149565	0.449121	0.531123
C51	C	-1.115370	0.380672	0.468794
C52	C	-1.065449	0.280738	0.531139
C53	C	-1.049729	0.249251	0.655812
C54	C	-1.031258	0.212283	0.468822
C55	C	-0.981337	0.112348	0.531167
C56	C	-0.965620	0.080867	0.655828
C57	C	-0.999815	0.149316	0.718157
C58	C	-1.046978	0.243770	0.344149
C59	C	-0.962867	0.075380	0.344177
C60	C	-0.947143	0.043900	0.468838
H61	H	-0.767409	0.305333	-0.000010
H62	H	-0.646542	-0.070061	-0.000033
H63	H	-1.087624	0.325136	0.293399
H64	H	-1.161683	0.473359	0.706540
F65	F	-0.912501	-0.025498	0.722181
F66	F	-0.894014	-0.062456	0.535204
H67	H	-0.286705	0.506435	-0.000031
H68	H	-0.810005	-0.013438	-0.000005
H69	H	-0.700081	0.390988	-0.000036
F70	F	-1.196662	0.680375	-0.000008
F71	F	-1.269485	1.058744	-0.000003
H72	H	-0.794172	0.629795	-0.000046
H73	H	-0.935024	0.019642	0.293430
H74	H	-0.942028	0.972017	-0.000047
H75	H	-1.116395	0.600433	-0.000009
H76	H	-0.987009	0.123686	0.819667
F77	F	-0.605371	0.547923	-0.000005
F78	F	-0.827199	0.434266	-0.000021
F79	F	-1.202692	0.555472	0.464775
F80	F	-0.458489	0.588945	-0.000010
H81	H	-0.329284	0.187683	-0.000038
F82	F	-0.807249	0.815092	-0.000034
H83	H	-0.396633	0.102028	-0.000036
F84	F	-1.324736	0.861220	-0.000019
H85	H	-1.128174	0.406308	0.367289
F86	F	-0.491326	-0.054903	-0.000038
