data_functionalizedCrystal
_audit_creation_method	'MofGen! by Chris Wilmer'
_symmetry_space_group_name_H-M	'P1'
_symmetry_Int_Tables_number	1
_symmetry_cell_setting	triclinic
loop_
_symmetry_equiv_pos_as_xyz
  x,y,z
_cell_length_a	14.908571
_cell_length_b	14.908178
_cell_length_c	14.908803
_cell_angle_alpha	90.202898
_cell_angle_beta	89.810884
_cell_angle_gamma	89.820760
loop_
_atom_site_label
_atom_site_type_symbol
_atom_site_fract_x
_atom_site_fract_y
_atom_site_fract_z
Zn1	Zn	1.319834	-0.467911	0.559088
Zn2	Zn	1.320777	-0.609624	0.400103
Zn3	Zn	1.179120	-0.450644	0.401139
Zn4	Zn	1.161828	-0.608605	0.541815
O5	O	1.245389	-0.534196	0.475536
O6	O	1.445369	-0.494362	0.544794
O7	O	1.309617	-0.581735	0.274832
O8	O	1.204628	-0.327520	0.429754
O9	O	1.446062	-0.598478	0.427988
O10	O	1.308010	-0.340206	0.545798
O11	O	1.205542	-0.464933	0.275593
O12	O	1.051416	-0.463946	0.413005
O13	O	1.175156	-0.596741	0.669515
O14	O	1.038711	-0.579999	0.516359
O15	O	1.291242	-0.493374	0.682206
O16	O	1.292850	-0.734903	0.411239
O17	O	1.176071	-0.734155	0.515354
C18	C	1.012546	-0.519989	0.462920
C19	C	0.912932	-0.513934	0.457543
C20	C	1.232709	-0.767050	0.461331
C21	C	1.227365	-0.866673	0.455288
C22	C	0.712566	-0.623571	0.554896
C23	C	0.618970	-0.617884	0.549847
C24	C	0.632141	-0.496871	0.442400
C25	C	0.725737	-0.502557	0.447450
C26	C	0.765946	-0.565910	0.503698
C27	C	0.859545	-0.571600	0.508743
C28	C	0.872714	-0.450583	0.401301
C29	C	0.779118	-0.444896	0.396252
C30	C	1.324880	-1.066935	0.564888
C31	C	1.319861	-1.160540	0.559213
C32	C	1.212305	-1.147488	0.438269
C33	C	1.217324	-1.053884	0.443943
C34	C	1.273614	-1.013611	0.507254
C35	C	1.278637	-0.920004	0.512924
C36	C	1.171076	-0.906955	0.391984
C37	C	1.166058	-1.000559	0.386310
C38	C	1.479142	-0.548459	0.488202
C39	C	1.578753	-0.554537	0.493600
C40	C	1.231165	-0.546870	0.709287
C41	C	1.225103	-0.552271	0.808897
C42	C	1.258142	-0.300435	0.489819
C43	C	1.263577	-0.200820	0.495905
C44	C	1.334592	-0.454762	1.009294
C45	C	1.328900	-0.459834	1.102887
C46	C	1.208023	-0.567481	1.089679
C47	C	1.213715	-0.562409	0.996086
C48	C	1.277003	-0.506049	0.955897
C49	C	1.282699	-0.500983	0.862301
C50	C	1.161818	-0.608624	0.849095
C51	C	1.156126	-0.613696	0.942689
C52	C	1.259552	-0.521591	1.242694
C53	C	1.265618	-0.516193	1.143083
H54	H	0.892281	-0.623187	0.554542
O55	O	1.384813	-0.409883	1.154663
C56	C	1.434843	-0.261634	1.194999
C57	C	1.371488	-0.318100	1.136297
H58	H	1.424079	-0.187415	1.180185
H59	H	1.507388	-0.280705	1.179536
H60	H	1.419920	-0.274983	1.268791
H61	H	1.386330	-0.304780	1.062487
H62	H	1.298963	-0.299018	1.151836
O63	O	1.333204	-0.880920	0.574544
C64	C	1.368855	-0.863132	0.731117
C65	C	1.306982	-0.907433	0.661424
H66	H	1.347689	-0.884566	0.801374
H67	H	1.363629	-0.787064	0.725352
H68	H	1.441102	-0.885020	0.718208
H69	H	1.234710	-0.885617	0.674288
H70	H	1.312285	-0.983494	0.667205
H71	H	0.916187	-0.403633	0.359610
H72	H	1.156496	-0.613366	1.122418
O73	O	0.740199	-0.383283	0.341597
C74	C	0.763143	-0.263899	0.235508
C75	C	0.807331	-0.333619	0.297387
H76	H	0.817399	-0.223739	0.199733
H77	H	0.719400	-0.216606	0.277176
H78	H	0.719908	-0.299788	0.183752
H79	H	0.850611	-0.297805	0.349153
H80	H	0.851022	-0.380908	0.255660
H81	H	1.104597	-0.659581	0.975424
O82	O	1.105996	-0.658494	0.797133
C83	C	1.093767	-0.773083	0.683473
C84	C	1.157083	-0.716648	0.742248
H85	H	1.135045	-0.820128	0.639097
H86	H	1.051828	-0.726756	0.639564
H87	H	1.047542	-0.814190	0.728301
H88	H	1.203363	-0.675535	0.697488
H89	H	1.198960	-0.763024	0.786164
O90	O	0.751590	-0.685019	0.609661
C91	C	0.768581	-0.738799	0.760903
C92	C	0.724346	-0.669142	0.698986
H93	H	0.746557	-0.725999	0.833131
H94	H	0.844652	-0.732958	0.755795
H95	H	0.747232	-0.809057	0.739601
H96	H	0.745624	-0.598853	0.720245
H97	H	0.648283	-0.675062	0.704100
O98	O	0.567076	-0.673772	0.599679
C99	C	0.453366	-0.686146	0.714169
C100	C	0.512098	-0.622752	0.657805
H101	H	0.408888	-0.644921	0.761164
H102	H	0.498141	-0.732385	0.755302
H103	H	0.409543	-0.728068	0.667713
H104	H	0.555929	-0.580771	0.704195
H105	H	0.467271	-0.576572	0.616662
H106	H	0.599386	-0.445286	0.396611
H107	H	1.370720	-1.034144	0.616432
H108	H	1.361602	-1.203954	0.606149
H109	H	1.166472	-1.180295	0.386728
H110	H	1.120226	-1.033363	0.334766
H111	H	1.129335	-0.863527	0.345053
O112	O	1.344197	-0.446160	0.823404
C113	C	1.463519	-0.339959	0.846387
C114	C	1.393902	-0.401997	0.890551
H115	H	1.503737	-0.304250	0.900655
H116	H	1.427636	-0.288159	0.803233
H117	H	1.510768	-0.381596	0.802568
H118	H	1.346634	-0.360434	0.934414
H119	H	1.429844	-0.453799	0.933652
H120	H	1.386128	-0.408876	0.976571
