data_functionalizedCrystal
_audit_creation_method	'MofGen! by Chris Wilmer'
_symmetry_space_group_name_H-M	'P1'
_symmetry_Int_Tables_number	1
_symmetry_cell_setting	triclinic
loop_
_symmetry_equiv_pos_as_xyz
  x,y,z
_cell_length_a	10.686220
_cell_length_b	25.639239
_cell_length_c	10.686551
_cell_angle_alpha	85.590528
_cell_angle_beta	90.308082
_cell_angle_gamma	94.420676
loop_
_atom_site_label
_atom_site_type_symbol
_atom_site_fract_x
_atom_site_fract_y
_atom_site_fract_z
Zn1	Zn	1.972159	-0.127472	-0.562366
Zn2	Zn	1.955834	-0.222109	-0.352592
Zn3	Zn	1.746264	-0.140848	-0.368681
Zn4	Zn	1.762265	-0.221050	-0.578370
O5	O	1.859130	-0.177870	-0.465502
O6	O	2.145540	-0.134872	-0.521108
O7	O	1.914505	-0.217371	-0.179180
O8	O	1.776365	-0.065903	-0.394409
O9	O	2.133546	-0.204401	-0.366988
O10	O	1.942329	-0.056076	-0.536709
O11	O	1.760535	-0.157668	-0.191000
O12	O	1.572839	-0.156641	-0.409928
O13	O	1.803636	-0.202595	-0.751793
O14	O	1.584595	-0.215565	-0.563985
O15	O	1.957844	-0.133844	-0.740035
O16	O	1.930021	-0.295139	-0.382506
O17	O	1.787807	-0.294361	-0.548384
C18	C	1.533200	-0.187440	-0.490440
C19	C	1.393768	-0.191545	-0.501138
C20	C	1.858915	-0.313720	-0.465461
C21	C	1.858941	-0.371833	-0.465476
C22	C	1.933401	-0.732571	-0.379250
C23	C	1.933451	-0.787174	-0.379263
O24	O	1.996536	-0.815738	-0.305904
N25	N	1.859357	-0.814099	-0.465568
C26	C	1.785218	-0.786419	-0.551874
O27	O	1.722201	-0.814336	-0.625286
C28	C	1.785176	-0.731818	-0.551866
C29	C	1.859265	-0.704895	-0.465547
C30	C	2.007485	-0.705649	-0.292939
C31	C	2.007433	-0.651050	-0.292925
C32	C	1.933297	-0.623374	-0.379222
C33	C	1.859213	-0.650297	-0.465533
C34	C	1.711045	-0.704138	-0.638177
C35	C	1.711010	-0.649533	-0.638162
C36	C	1.785099	-0.622611	-0.551843
C37	C	1.785025	-0.568023	-0.551816
N38	N	1.859119	-0.541097	-0.465510
C39	C	1.933255	-0.568773	-0.379213
C40	C	1.785314	-0.901087	-0.551887
C41	C	1.785349	-0.955688	-0.551890
C42	C	1.933583	-0.956438	-0.379280
C43	C	1.933541	-0.901836	-0.379272
C44	C	1.859408	-0.874161	-0.465581
C45	C	1.933139	-0.454112	-0.379189
C46	C	1.933077	-0.399509	-0.379179
C47	C	1.784847	-0.398763	-0.551793
C48	C	1.784904	-0.453362	-0.551799
C49	C	1.859060	-0.481035	-0.465493
O50	O	1.721976	-0.539424	-0.625140
O51	O	1.996274	-0.540849	-0.305825
C52	C	2.186333	-0.168263	-0.440468
C53	C	2.325768	-0.164169	-0.429800
C54	C	1.884346	-0.166610	-0.792704
C55	C	1.895092	-0.161811	-0.932138
C56	C	1.859383	-0.041486	-0.465568
C57	C	1.859490	0.016632	-0.465597
C58	C	1.834084	-0.189046	-0.139567
C59	C	1.823582	-0.193690	-0.000116
H60	H	1.345309	-0.218129	-0.570396
O61	O	1.383427	-0.132387	-0.347243
C62	C	1.353725	-0.080269	-0.377316
H63	H	1.262286	-0.080325	-0.432761
H64	H	1.342413	-0.060006	-0.287209
H65	H	1.432457	-0.058331	-0.436292
H66	H	1.724579	-0.475283	-0.622091
O67	O	1.638916	-0.622602	-0.721837
C68	C	1.552382	-0.595915	-0.656551
H69	H	1.589364	-0.589694	-0.558125
H70	H	1.539427	-0.556258	-0.708924
H71	H	1.458383	-0.620213	-0.649811
O72	O	1.639262	-0.730330	-0.722088
C73	C	1.716903	-0.756968	-0.797741
H74	H	1.808597	-0.763849	-0.746286
H75	H	1.667111	-0.796303	-0.818463
H76	H	1.737782	-0.732293	-0.889646
O77	O	1.740894	-0.230658	-0.942137
C78	C	1.806487	-0.264917	-0.860886
H79	H	1.900104	-0.244347	-0.834122
H80	H	1.748358	-0.276561	-0.772596
H81	H	1.824038	-0.301547	-0.910236
O82	O	1.713032	-0.371838	-0.635740
C83	C	1.790630	-0.335316	-0.711313
H84	H	1.890036	-0.348561	-0.711578
H85	H	1.752632	-0.332706	-0.811300
H86	H	1.791970	-0.295147	-0.672175
H87	H	2.067862	-0.728176	-0.222665
H88	H	1.993408	-0.377591	-0.308884
O89	O	1.977836	-0.124883	-0.990159
C90	C	1.970520	-0.128158	-1.121127
H91	H	1.875033	-0.147523	-1.146297
H92	H	1.982896	-0.087045	-1.170382
H93	H	2.047715	-0.152551	-1.152607
H94	H	1.993527	-0.476637	-0.308913
H95	H	2.067766	-0.629133	-0.222640
H96	H	1.993871	-0.879919	-0.308984
H97	H	1.993954	-0.978981	-0.309016
H98	H	1.725005	-0.977604	-0.622169
O99	O	1.713168	-0.874288	-0.635772
C100	C	1.647812	-0.909766	-0.711961
H101	H	1.639593	-0.950590	-0.660900
H102	H	1.549971	-0.896482	-0.732823
H103	H	1.701022	-0.910914	-0.803765
