data_functionalizedCrystal
_audit_creation_method	'MofGen! by Chris Wilmer'
_symmetry_space_group_name_H-M	'P1'
_symmetry_Int_Tables_number	1
_symmetry_cell_setting	triclinic
loop_
_symmetry_equiv_pos_as_xyz
  x,y,z
_cell_length_a	16.776229
_cell_length_b	14.971486
_cell_length_c	14.971486
_cell_angle_alpha	83.614129
_cell_angle_beta	90.007612
_cell_angle_gamma	89.996240
loop_
_atom_site_label
_atom_site_type_symbol
_atom_site_fract_x
_atom_site_fract_y
_atom_site_fract_z
O1	O	-0.066197	-1.186940	-0.116567
O2	O	0.433803	-0.686940	0.383433
O3	O	-0.066219	-0.926540	-0.130525
O4	O	0.433781	-0.426540	0.369475
O5	O	-0.066202	-1.063719	0.006654
O6	O	0.433798	-0.563719	0.506654
O7	O	-0.066214	-1.049760	-0.253746
O8	O	0.433786	-0.549760	0.246254
O9	O	0.066375	-1.063717	0.006666
O10	O	0.566375	-0.563717	0.506666
O11	O	0.066358	-0.926537	-0.130513
O12	O	0.566358	-0.426537	0.369487
O13	O	0.066380	-1.186938	-0.116554
O14	O	0.566380	-0.686938	0.383446
Zn15	Zn	0.087418	-1.056737	-0.123532
Zn16	Zn	0.587418	-0.556737	0.376468
Zn17	Zn	-0.087257	-1.056740	-0.123548
Zn18	Zn	0.412743	-0.556740	0.376452
O19	O	0.066362	-1.049758	-0.253734
O20	O	0.566362	-0.549758	0.246266
C21	C	0.000067	-0.893214	-0.129895
C22	C	0.500067	-0.393214	0.370105
C23	C	0.000059	-0.793917	-0.128024
C24	C	0.500059	-0.293917	0.371976
C25	C	0.000086	-1.063094	0.039985
C26	C	0.500086	-0.563094	0.539985
C27	C	0.000086	-1.061223	0.139282
C28	C	0.500086	-0.561223	0.639282
N29	N	-0.206468	-1.056743	-0.123552
N30	N	0.293532	-0.556743	0.376448
C31	C	-0.248178	-1.117599	-0.062929
C32	C	0.251822	-0.617599	0.437071
C33	C	-0.331630	-1.117603	-0.062927
C34	C	0.168370	-0.617603	0.437073
C35	C	-0.373371	-1.056745	-0.123544
C36	C	0.126629	-0.556745	0.376456
C37	C	-0.331656	-0.995886	-0.184174
C38	C	0.168344	-0.495886	0.315826
C39	C	-0.248205	-0.995887	-0.184180
C40	C	0.251795	-0.495887	0.315820
C41	C	-0.668203	-0.995879	-0.184152
C42	C	-0.168203	-0.495879	0.315848
C43	C	-0.751660	-0.995880	-0.184140
C44	C	-0.251660	-0.495880	0.315860
C45	C	-0.751628	-1.117594	-0.062900
C46	C	-0.251628	-0.617594	0.437100
C47	C	-0.668177	-1.117596	-0.062905
C48	C	-0.168177	-0.617596	0.437095
C49	C	-0.626469	-1.056740	-0.123538
C50	C	-0.126469	-0.556740	0.376462
C51	C	-0.535981	-1.056738	-0.123541
C52	C	-0.035981	-0.556738	0.376459
C53	C	-0.463858	-1.056742	-0.123538
C54	C	0.036142	-0.556742	0.376462
N55	N	0.206629	-1.056741	-0.123520
N56	N	0.706629	-0.556741	0.376480
C57	C	0.000092	-1.220263	-0.117185
C58	C	0.500092	-0.720263	0.382815
C59	C	0.000095	-1.319561	-0.119056
C60	C	0.500095	-0.819561	0.380944
C61	C	0.000056	-0.736692	-0.208614
C62	C	0.500056	-0.236692	0.291386
C63	C	0.000068	-0.643392	-0.206850
C64	C	0.500068	-0.143392	0.293150
C65	C	0.000077	-0.607320	-0.124497
C66	C	0.500077	-0.107320	0.375503
C67	C	0.000082	-0.664552	-0.043902
C68	C	0.500082	-0.164552	0.456098
C69	C	0.000076	-0.757850	-0.045666
C70	C	0.500076	-0.257850	0.454334
C71	C	0.000093	-0.470090	-0.040231
C72	C	0.500093	0.029910	0.459769
C73	C	0.000098	-0.376786	-0.038466
C74	C	0.500098	0.123214	0.461534
C75	C	0.000085	-0.355632	-0.201415
C76	C	0.500085	0.144368	0.298585
C77	C	0.000079	-0.448930	-0.203179
C78	C	0.500079	0.051070	0.296821
C79	C	0.000083	-0.506156	-0.122584
C80	C	0.500083	-0.006156	0.377416
C81	C	0.000073	-1.050384	-0.287065
C82	C	0.500073	-0.550384	0.212935
C83	C	0.000068	-1.052254	-0.386362
C84	C	0.500068	-0.552254	0.113638
C85	C	0.000093	-1.141812	0.196507
C86	C	0.500093	-0.641812	0.696507
C87	C	0.000085	-1.140049	0.289807
C88	C	0.500085	-0.640049	0.789807
C89	C	0.000075	-1.057696	0.325879
C90	C	0.500075	-0.557696	0.825879
C91	C	0.000065	-0.977101	0.268646
C92	C	0.500065	-0.477101	0.768646
C93	C	0.000068	-0.978865	0.175349
C94	C	0.500068	-0.478865	0.675349
C95	C	0.000062	-0.973430	0.463109
C96	C	0.500062	-0.473430	0.963109
C97	C	0.000061	-0.971665	0.556413
C98	C	0.500061	-0.471665	1.056413
C99	C	0.000079	-1.134614	0.577567
C100	C	0.500079	-0.634614	1.077567
C101	C	0.000081	-1.136378	0.484269
C102	C	0.500081	-0.636378	0.984269
C103	C	0.000073	-1.055782	0.427043
C104	C	0.500073	-0.555782	0.927043
H105	H	-0.214198	-1.167153	-0.013564
H106	H	0.285802	-0.667153	0.486436
Br107	Br	0.000094	-1.249425	0.367467
Br108	Br	0.500094	-0.749425	0.867467
H109	H	0.000095	-1.203437	0.454903
H110	H	0.500095	-0.703437	0.954903
H111	H	-0.214246	-0.946333	-0.233546
H112	H	0.285754	-0.446333	0.266454
H113	H	0.000052	-0.910047	0.298024
H114	H	0.500052	-0.410047	0.798024
H115	H	0.000062	-0.913240	0.128756
H116	H	0.500062	-0.413240	0.628756
Br117	Br	0.000051	-0.859899	0.605368
Br118	Br	0.500051	-0.359899	1.105368
Br119	Br	-0.388239	-1.200198	0.019345
Br120	Br	0.111761	-0.700198	0.519345
H121	H	0.000097	-0.516682	0.025399
H122	H	0.500097	-0.016682	0.525399
Br123	Br	0.000055	-0.497885	-0.314946
Br124	Br	0.500055	0.002115	0.185054
Br125	Br	0.000118	-1.253584	0.147562
Br126	Br	0.500118	-0.753584	0.647562
H127	H	-0.634194	-1.167149	-0.013542
H128	H	-0.134194	-0.667149	0.486458
Br129	Br	0.000035	-0.785637	-0.320385
Br130	Br	0.500035	-0.285637	0.179615
H131	H	-0.785596	-1.167149	-0.013532
H132	H	-0.285596	-0.667149	0.486468
H133	H	0.000101	-0.635175	0.023152
H134	H	0.500101	-0.135175	0.523152
Br135	Br	0.000048	-0.864048	0.385445
Br136	Br	0.500048	-0.364048	0.885445
H137	H	0.000065	-0.596802	-0.272474
H138	H	0.500065	-0.096802	0.227526
H139	H	-0.365646	-0.946337	-0.233534
H140	H	0.134354	-0.446337	0.266466
Br141	Br	-0.808309	-0.913281	-0.266411
Br142	Br	-0.308309	-0.413281	0.233589
H143	H	-0.634251	-0.946327	-0.233520
H144	H	-0.134251	-0.446327	0.266480
H145	H	0.000086	-0.309033	-0.267039
H146	H	0.500086	0.190967	0.232961
Br147	Br	0.000137	-0.327831	0.073300
Br148	Br	0.500137	0.172169	0.573300
Br149	Br	0.000086	-0.835515	0.063710
Br150	Br	0.500086	-0.335515	0.563710
Br151	Br	0.000089	-1.243995	0.655229
Br152	Br	0.500089	-0.743995	1.155229
