data_functionalizedCrystal
_audit_creation_method	'MofGen! by Chris Wilmer'
_symmetry_space_group_name_H-M	'P1'
_symmetry_Int_Tables_number	1
_symmetry_cell_setting	triclinic
loop_
_symmetry_equiv_pos_as_xyz
  x,y,z
_cell_length_a	13.262390
_cell_length_b	23.532407
_cell_length_c	11.804365
_cell_angle_alpha	101.750517
_cell_angle_beta	62.657606
_cell_angle_gamma	83.670349
loop_
_atom_site_label
_atom_site_type_symbol
_atom_site_fract_x
_atom_site_fract_y
_atom_site_fract_z
O1	O	1.519181	0.008376	-0.591067
O2	O	1.190588	0.029019	-0.484646
O3	O	1.364788	-0.064552	-0.541042
O4	O	1.344981	0.101947	-0.534671
O5	O	1.318928	-0.039942	-0.328140
O6	O	1.144728	0.053630	-0.271744
O7	O	1.473321	0.032987	-0.378164
Cu8	Cu	1.304837	0.045555	-0.305514
Cu9	Cu	1.359072	0.016450	-0.557296
O10	O	1.299121	0.126558	-0.321768
C11	C	1.125626	0.042431	-0.364582
C12	C	1.000386	0.045720	-0.324020
C13	C	0.747361	0.001322	-0.673916
C14	C	0.865032	-0.001772	-0.712028
C15	C	0.898877	0.010101	-0.615029
C16	C	0.815039	0.025068	-0.479912
C17	C	0.697358	0.028157	-0.441796
C18	C	0.848873	0.036937	-0.382910
C19	C	0.765035	0.051903	-0.247792
C20	C	0.647366	0.054993	-0.209683
C21	C	0.613522	0.043120	-0.306682
C22	C	0.966554	0.033847	-0.421026
C23	C	0.916550	0.060683	-0.188906
C24	C	0.798880	0.063776	-0.150794
C25	C	1.341353	-0.073446	-0.434424
C26	C	1.339834	-0.136613	-0.433923
C27	C	1.433423	-0.538754	-0.464299
C28	C	1.432016	-0.598110	-0.463852
O29	O	1.518771	-0.637669	-0.491993
N30	N	1.328451	-0.617383	-0.430310
C31	C	1.226289	-0.577297	-0.397225
O32	O	1.138069	-0.599140	-0.368655
C33	C	1.227699	-0.517944	-0.397682
C34	C	1.331269	-0.498673	-0.431213
C35	C	1.536984	-0.519483	-0.497829
C36	C	1.538391	-0.460131	-0.498273
C37	C	1.436236	-0.420050	-0.465187
C38	C	1.332675	-0.439321	-0.431657
C39	C	1.125541	-0.477861	-0.364607
C40	C	1.126960	-0.418504	-0.365067
C41	C	1.230530	-0.399234	-0.398598
C42	C	1.231927	-0.339889	-0.399016
N43	N	1.335492	-0.320616	-0.432558
C44	C	1.437647	-0.360697	-0.465644
C45	C	1.223335	-0.701944	-0.396272
C46	C	1.221921	-0.761296	-0.395806
C47	C	1.427649	-0.782105	-0.462435
C48	C	1.429060	-0.722751	-0.462892
C49	C	1.326900	-0.682672	-0.429814
C50	C	1.440592	-0.236053	-0.466573
C51	C	1.441988	-0.176694	-0.467009
C52	C	1.236262	-0.155891	-0.400386
C53	C	1.234864	-0.215244	-0.399944
C54	C	1.337039	-0.255324	-0.433044
O55	O	1.145218	-0.300297	-0.370895
O56	O	1.525855	-0.338847	-0.494226
C57	C	1.538283	0.019575	-0.498231
C58	C	1.663525	0.016284	-0.538801
C59	C	1.322557	0.135452	-0.428389
C60	C	1.324078	0.198618	-0.428899
N61	N	1.266700	0.066025	-0.128427
N62	N	1.397219	-0.004024	-0.734387
C63	C	1.488801	-0.053192	0.173618
C64	C	1.517651	-0.068680	0.039617
C65	C	1.454915	-0.035005	-0.002401
C66	C	1.363325	0.014161	0.089597
C67	C	1.334479	0.029653	0.223609
C68	C	1.300593	0.047840	0.047590
C69	C	1.209003	0.097006	0.139587
C70	C	1.180160	0.112495	0.273587
C71	C	1.242896	0.078820	0.315604
C72	C	1.329440	0.032348	-0.086423
C73	C	1.175117	0.115193	-0.036432
C74	C	1.146267	0.130681	0.097570
H75	H	0.719793	-0.008349	-0.752878
C76	C	0.985604	-0.327041	-0.217481
C77	C	1.014661	-0.374448	-0.328703
H78	H	0.916280	-0.299842	-0.195038
H79	H	0.973335	-0.342054	-0.144459
H80	H	1.047489	-0.307070	-0.237528
H81	H	0.952780	-0.394422	-0.308653
H82	H	1.026923	-0.359434	-0.401741
H83	H	0.517706	0.045640	-0.275657
H84	H	1.124034	0.142615	-0.070641
C85	C	1.574837	-0.164584	-0.118574
C86	C	1.618064	-0.122881	-0.061189
H87	H	1.636759	-0.198094	-0.180721
H88	H	1.516601	-0.177162	-0.050905
H89	H	1.541851	-0.146781	-0.163034
H90	H	1.651043	-0.140684	-0.016720
H91	H	1.676321	-0.110304	-0.128868
H92	H	1.404012	-0.007683	-0.161316
H93	H	0.579109	0.067169	-0.099663
C94	C	1.067061	-0.036407	-0.610700
C95	C	1.028220	0.006704	-0.656919
H96	H	1.146918	-0.038504	-0.636574
H97	H	1.021979	-0.025792	-0.516360
H98	H	1.058644	-0.074167	-0.647842
H99	H	1.036630	0.044465	-0.619769
H100	H	1.073316	-0.003908	-0.751278
H101	H	0.730603	0.075962	-0.040779
C102	C	0.902628	-0.027988	-0.937631
C103	C	0.957181	-0.018221	-0.860540
H104	H	0.959521	-0.038140	-1.029321
H105	H	0.864664	-0.059725	-0.920831
H106	H	0.846715	0.007284	-0.915036
H107	H	1.013088	-0.053494	-0.883128
H108	H	0.995164	0.013519	-0.877349
C109	C	0.941681	0.175728	0.202259
C110	C	1.045595	0.184723	0.198705
H111	H	0.879530	0.209090	0.264704
H112	H	0.949881	0.171330	0.116451
H113	H	0.925151	0.140668	0.228056
H114	H	1.062129	0.219781	0.172899
H115	H	1.037395	0.189128	0.284532
H116	H	0.944105	0.070350	-0.109921
C117	C	1.645207	-0.203235	-0.532836
C118	C	1.555842	-0.155515	-0.503880
H119	H	1.715494	-0.190161	-0.555607
H120	H	1.624389	-0.217376	-0.457036
H121	H	1.656358	-0.234529	-0.605519
H122	H	1.544685	-0.124223	-0.431189
H123	H	1.576665	-0.141366	-0.579688
H124	H	1.523794	-0.268681	-0.493531
H125	H	1.034804	0.021662	-0.531039
H126	H	1.219404	0.091429	0.424720
C127	C	1.142106	-0.089713	-0.471711
C128	C	1.123979	-0.111828	-0.364029
H129	H	1.072785	-0.062513	-0.449273
H130	H	1.203983	-0.069747	-0.491732
H131	H	1.161824	-0.121884	-0.547153
H132	H	1.104269	-0.079657	-0.288589
H133	H	1.062082	-0.131794	-0.343990
H134	H	1.622729	-0.444448	-0.525583
C135	C	1.740465	-0.534071	-0.563709
C136	C	1.649284	-0.563533	-0.534190
H137	H	1.809795	-0.561262	-0.586142
H138	H	1.752727	-0.519070	-0.636744
H139	H	1.720717	-0.501904	-0.488247
H140	H	1.669030	-0.595697	-0.609656
H141	H	1.637023	-0.578543	-0.461148
H142	H	1.140137	-0.669312	-0.369323
C143	C	1.632268	-0.749296	-0.528713
C144	C	1.542909	-0.701575	-0.499770
H145	H	1.702558	-0.736225	-0.551492
H146	H	1.611446	-0.763431	-0.452905
H147	H	1.643414	-0.780593	-0.601388
H148	H	1.531758	-0.670279	-0.427088
H149	H	1.563736	-0.687431	-0.575586
H150	H	1.150522	-0.230930	-0.372604
C151	C	1.518393	-0.004312	-0.201558
C152	C	1.486627	-0.052031	-0.149698
H153	H	1.537979	-0.014829	-0.292500
H154	H	1.454870	0.029781	-0.152791
H155	H	1.583888	0.004467	-0.194575
H156	H	1.421126	-0.060807	-0.156672
H157	H	1.550156	-0.086134	-0.198480
H158	H	1.510830	-0.814750	-0.489380
H159	H	1.105591	0.152533	0.348490
C160	C	1.018714	-0.734751	-0.329996
C161	C	1.108073	-0.782472	-0.358937
H162	H	0.948431	-0.747826	-0.307248
H163	H	1.007554	-0.703461	-0.257316
H164	H	1.039551	-0.720609	-0.405808
H165	H	1.087239	-0.796611	-0.283120
H166	H	1.119232	-0.813772	-0.431623
H167	H	1.041205	-0.493540	-0.337310
C168	C	1.547268	-0.149359	0.193102
C169	C	1.557744	-0.090204	0.219814
H170	H	1.589837	-0.172211	0.221618
H171	H	1.467316	-0.150368	0.239441
H172	H	1.577565	-0.165619	0.100124
H173	H	1.527438	-0.073943	0.312794
H174	H	1.637712	-0.089193	0.173478
