data_functionalizedCrystal
_audit_creation_method	'MofGen! by Chris Wilmer'
_symmetry_space_group_name_H-M	'P1'
_symmetry_Int_Tables_number	1
_symmetry_cell_setting	triclinic
loop_
_symmetry_equiv_pos_as_xyz
  x,y,z
_cell_length_a	6.817900
_cell_length_b	7.076105
_cell_length_c	14.858329
_cell_angle_alpha	90.603658
_cell_angle_beta	104.519616
_cell_angle_gamma	117.701832
loop_
_atom_site_label
_atom_site_type_symbol
_atom_site_fract_x
_atom_site_fract_y
_atom_site_fract_z
V1	V	-4.204948	-0.665613	-0.127216
V2	V	-3.871614	-0.332280	0.206118
V3	V	-3.538281	0.001054	0.539451
O4	O	-4.183566	-0.652317	0.007609
O5	O	-3.850232	-0.318983	0.340942
O6	O	-3.516899	0.014350	0.674275
O7	O	-4.160539	-0.661662	-0.253686
O8	O	-3.827205	-0.328329	0.079648
O9	O	-3.493872	0.005004	0.412981
O10	O	-4.231845	-0.955635	-0.124603
O11	O	-3.898512	-0.622302	0.208731
O12	O	-3.565179	-0.288968	0.542064
O13	O	-4.111766	-0.356309	-0.122368
O14	O	-3.778432	-0.022975	0.210965
O15	O	-3.445099	0.310358	0.544299
V16	V	-4.678301	-0.628545	-0.111167
V17	V	-4.344968	-0.295211	0.222167
V18	V	-4.011635	0.038122	0.555500
O19	O	-4.488513	-0.746925	-0.162420
O20	O	-4.155179	-0.413592	0.170913
O21	O	-3.821846	-0.080259	0.504246
O22	O	-4.844934	-0.547232	-0.075962
O23	O	-4.511600	-0.213899	0.257372
O24	O	-4.178267	0.119435	0.590705
O25	O	-4.499504	-0.632495	0.015303
O26	O	-4.166171	-0.299162	0.348637
O27	O	-3.832837	0.034171	0.681970
O28	O	-4.817080	-0.641841	-0.245991
O29	O	-4.483747	-0.308507	0.087342
O30	O	-4.150413	0.024826	0.420676
O31	O	-4.888880	-0.937849	-0.116014
O32	O	-4.555547	-0.604515	0.217319
O33	O	-4.222214	-0.271182	0.550652
O34	O	-4.428197	-0.338522	-0.113780
O35	O	-4.094864	-0.005189	0.219554
O36	O	-3.761531	0.328144	0.552887
C37	C	-4.004074	-0.651317	-0.284537
C38	C	-3.670741	-0.317984	0.048796
C39	C	-3.337407	0.015350	0.382130
C40	C	-4.049553	-0.650020	-0.387923
C41	C	-3.716220	-0.316687	-0.054590
C42	C	-3.382887	0.016647	0.278743
C43	C	-4.086476	-0.648947	-0.471884
C44	C	-3.753143	-0.315613	-0.138550
C45	C	-3.419809	0.017720	0.194783
C46	C	-4.132820	-0.647611	-0.577216
C47	C	-3.799486	-0.314278	-0.243883
C48	C	-3.466153	0.019056	0.089450
C49	C	-4.169773	-0.646548	-0.661171
C50	C	-3.836440	-0.313215	-0.327838
C51	C	-3.503106	0.020119	0.005496
C52	C	-4.216119	-0.645208	-0.766510
C53	C	-3.882785	-0.311875	-0.433177
C54	C	-3.549452	0.021458	-0.099843
C55	C	-4.101984	-0.026305	-0.119873
C56	C	-3.768651	0.307028	0.213461
C57	C	-3.435318	0.640361	0.546794
C58	C	-4.228370	-0.267851	-0.118524
C59	C	-3.895037	0.065482	0.214810
C60	C	-3.561704	0.398816	0.548143
C61	C	-4.319309	-0.642834	0.046150
C62	C	-3.985976	-0.309501	0.379483
C63	C	-3.652643	0.023832	0.712816
C64	C	-4.253072	-0.644145	0.149535
C65	C	-3.919738	-0.310812	0.482869
C66	C	-3.586405	0.022521	0.816202
