data_functionalizedCrystal
_audit_creation_method	'MofGen! by Chris Wilmer'
_symmetry_space_group_name_H-M	'P1'
_symmetry_Int_Tables_number	1
_symmetry_cell_setting	triclinic
loop_
_symmetry_equiv_pos_as_xyz
  x,y,z
_cell_length_a	25.639242
_cell_length_b	25.639239
_cell_length_c	25.639234
_cell_angle_alpha	90.024905
_cell_angle_beta	90.029352
_cell_angle_gamma	90.034213
loop_
_atom_site_label
_atom_site_type_symbol
_atom_site_fract_x
_atom_site_fract_y
_atom_site_fract_z
Zn1	Zn	0.799262	-0.208245	0.295742
Zn2	Zn	1.049262	0.041755	0.545742
Zn3	Zn	1.299262	0.291755	0.795742
Zn4	Zn	1.549262	0.541755	1.045742
Zn5	Zn	0.799175	-0.295673	0.208307
Zn6	Zn	1.049175	-0.045673	0.458307
Zn7	Zn	1.299175	0.204327	0.708307
Zn8	Zn	1.549175	0.454327	0.958307
Zn9	Zn	0.711827	-0.208247	0.208306
Zn10	Zn	0.961827	0.041753	0.458306
Zn11	Zn	1.211827	0.291753	0.708306
Zn12	Zn	1.461827	0.541753	0.958306
Zn13	Zn	0.711784	-0.295644	0.295696
Zn14	Zn	0.961784	-0.045644	0.545696
Zn15	Zn	1.211784	0.204356	0.795696
Zn16	Zn	1.461784	0.454356	1.045696
O17	O	0.755512	-0.251952	0.252013
O18	O	1.005512	-0.001952	0.502013
O19	O	1.255512	0.248048	0.752013
O20	O	1.505512	0.498048	1.002013
O21	O	0.872416	-0.219854	0.284163
O22	O	1.122416	0.030146	0.534163
O23	O	1.372416	0.280146	0.784163
O24	O	1.622416	0.530146	1.034163
O25	O	0.787570	-0.284089	0.135141
O26	O	1.037570	-0.034089	0.385141
O27	O	1.287570	0.215911	0.635141
O28	O	1.537570	0.465911	0.885141
O29	O	0.723481	-0.135081	0.219924
O30	O	0.973481	0.114919	0.469924
O31	O	1.223481	0.364919	0.719924
O32	O	1.473481	0.614919	0.969924
O33	O	0.872351	-0.284087	0.219924
O34	O	1.122351	-0.034087	0.469924
O35	O	1.372351	0.215913	0.719924
O36	O	1.622351	0.465913	0.969924
O37	O	0.787719	-0.135080	0.284163
O38	O	1.037719	0.114920	0.534163
O39	O	1.287719	0.364920	0.784163
O40	O	1.537719	0.614920	1.034163
O41	O	0.723396	-0.219857	0.135141
O42	O	0.973396	0.030143	0.385141
O43	O	1.223396	0.280143	0.635141
O44	O	1.473396	0.530143	0.885141
O45	O	0.638656	-0.219829	0.219880
O46	O	0.888656	0.030171	0.469880
O47	O	1.138656	0.280171	0.719880
O48	O	1.388656	0.530171	0.969880
O49	O	0.723406	-0.284038	0.368868
O50	O	0.973406	-0.034038	0.618868
O51	O	1.223406	0.215962	0.868868
O52	O	1.473406	0.465962	1.118868
O53	O	0.638624	-0.284040	0.284085
O54	O	0.888624	-0.034040	0.534085
O55	O	1.138624	0.215960	0.784085
O56	O	1.388624	0.465960	1.034085
O57	O	0.787676	-0.219826	0.368901
O58	O	1.037676	0.030174	0.618901
O59	O	1.287676	0.280174	0.868901
O60	O	1.537676	0.530174	1.118901
O61	O	0.787527	-0.368835	0.219880
O62	O	1.037527	-0.118835	0.469880
O63	O	1.287527	0.131165	0.719880
O64	O	1.537527	0.381165	0.969880
O65	O	0.723321	-0.368813	0.284085
O66	O	0.973321	-0.118813	0.534085
O67	O	1.223321	0.131187	0.784085
O68	O	1.473321	0.381187	1.034085
C69	C	0.619669	-0.251932	0.251977
C70	C	0.869669	-0.001932	0.501977
C71	C	1.119669	0.248068	0.751977
C72	C	1.369669	0.498068	1.001977
C73	C	0.561555	-0.251935	0.251975
C74	C	0.811555	-0.001935	0.501975
C75	C	1.061555	0.248065	0.751975
C76	C	1.311555	0.498065	1.001975
C77	C	0.201184	-0.285443	0.285413
C78	C	0.451184	-0.035443	0.535413
C79	C	0.701184	0.214557	0.785413
C80	C	0.951184	0.464557	1.035413
C81	C	0.146580	-0.285446	0.285421
C82	C	0.396580	-0.035446	0.535421
C83	C	0.646580	0.214554	0.785421
C84	C	0.896580	0.464554	1.035421
O85	O	0.118337	-0.313909	0.313821
O86	O	0.368337	-0.063909	0.563821
O87	O	0.618337	0.186091	0.813821
O88	O	0.868337	0.436091	1.063821
N89	N	0.119273	-0.251967	0.252047
N90	N	0.369273	-0.001967	0.502047
N91	N	0.619273	0.248033	0.752047
N92	N	0.869273	0.498033	1.002047
C93	C	0.146573	-0.218478	0.218666
C94	C	0.396573	0.031522	0.468666
C95	C	0.646573	0.281522	0.718666
C96	C	0.896573	0.531522	0.968666
O97	O	0.118332	-0.190002	0.190280
O98	O	0.368332	0.059998	0.440280
O99	O	0.618332	0.309998	0.690280
O100	O	0.868332	0.559998	0.940280
C101	C	0.201176	-0.218473	0.218661
C102	C	0.451176	0.031527	0.468661
C103	C	0.701176	0.281527	0.718661
C104	C	0.951176	0.531527	0.968661
C105	C	0.228481	-0.251958	0.252034
C106	C	0.478481	-0.001958	0.502034
C107	C	0.728481	0.248042	0.752034
C108	C	0.978481	0.498042	1.002034
C109	C	0.228489	-0.318925	0.318783
C110	C	0.478489	-0.068925	0.568783
C111	C	0.728489	0.181075	0.818783
C112	C	0.978489	0.431075	1.068783
C113	C	0.283089	-0.318922	0.318774
C114	C	0.533089	-0.068922	0.568774
C115	C	0.783089	0.181078	0.818774
C116	C	1.033089	0.431078	1.068774
C117	C	0.310385	-0.285437	0.285395
C118	C	0.560385	-0.035437	0.535395
C119	C	0.810385	0.214563	0.785395
C120	C	1.060385	0.464563	1.035395
C121	C	0.283081	-0.251955	0.252024
C122	C	0.533081	-0.001955	0.502024
C123	C	0.783081	0.248045	0.752024
C124	C	1.033081	0.498045	1.002024
C125	C	0.228475	-0.184982	0.185283
C126	C	0.478475	0.065018	0.435283
C127	C	0.728475	0.315018	0.685283
C128	C	0.978475	0.565018	0.935283
C129	C	0.283082	-0.184980	0.185281
C130	C	0.533082	0.065020	0.435281
C131	C	0.783082	0.315020	0.685281
C132	C	1.033082	0.565020	0.935281
C133	C	0.310387	-0.218465	0.218654
C134	C	0.560387	0.031535	0.468654
C135	C	0.810387	0.281535	0.718654
C136	C	1.060387	0.531535	0.968654
C137	C	0.364978	-0.218468	0.218636
C138	C	0.614978	0.031532	0.468636
C139	C	0.864978	0.281532	0.718636
C140	C	1.114978	0.531532	0.968636
N141	N	0.392285	-0.251947	0.252010
N142	N	0.642285	-0.001947	0.502010
N143	N	0.892285	0.248053	0.752010
N144	N	1.142285	0.498053	1.002010
C145	C	0.364989	-0.285432	0.285389
C146	C	0.614989	-0.035432	0.535389
C147	C	0.864989	0.214568	0.785389
C148	C	1.114989	0.464568	1.035389
C149	C	0.031902	-0.218492	0.218680
C150	C	0.281902	0.031508	0.468680
C151	C	0.531902	0.281508	0.718680
C152	C	0.781902	0.531508	0.968680
C153	C	-0.022700	-0.218499	0.218683
C154	C	0.227300	0.031501	0.468683
C155	C	0.477300	0.281501	0.718683
C156	C	0.727300	0.531501	0.968683
C157	C	-0.022689	-0.285466	0.285438
C158	C	0.227311	-0.035466	0.535438
C159	C	0.477311	0.214534	0.785438
C160	C	0.727311	0.464534	1.035438
C161	C	0.031914	-0.285461	0.285433
C162	C	0.281914	-0.035461	0.535433
C163	C	0.531914	0.214539	0.785433
C164	C	0.781914	0.464539	1.035433
C165	C	0.059209	-0.251971	0.252054
C166	C	0.309209	-0.001971	0.502054
C167	C	0.559209	0.248029	0.752054
C168	C	0.809209	0.498029	1.002054
C169	C	0.479654	-0.285424	0.285368
C170	C	0.729654	-0.035424	0.535368
C171	C	0.979654	0.214576	0.785368
C172	C	1.229654	0.464576	1.035368
C173	C	0.534259	-0.285420	0.285354
C174	C	0.784259	-0.035420	0.535354
C175	C	1.034259	0.214580	0.785354
C176	C	1.284259	0.464580	1.035354
C177	C	0.534243	-0.218451	0.218601
C178	C	0.784243	0.031549	0.468601
C179	C	1.034243	0.281549	0.718601
C180	C	1.284243	0.531549	0.968601
C181	C	0.479643	-0.218457	0.218612
C182	C	0.729643	0.031543	0.468612
C183	C	0.979643	0.281543	0.718612
C184	C	1.229643	0.531543	0.968612
C185	C	0.452349	-0.251945	0.252000
C186	C	0.702349	-0.001945	0.502000
C187	C	0.952349	0.248055	0.752000
C188	C	1.202349	0.498055	1.002000
O189	O	0.393256	-0.190018	0.190252
O190	O	0.643256	0.059982	0.440252
O191	O	0.893256	0.309982	0.690252
O192	O	1.143256	0.559982	0.940252
O193	O	0.393236	-0.313899	0.313776
O194	O	0.643236	-0.063899	0.563776
O195	O	0.893236	0.186101	0.813776
O196	O	1.143236	0.436101	1.063776
C197	C	0.755424	-0.387795	0.251989
C198	C	1.005424	-0.137795	0.501989
C199	C	1.255424	0.112205	0.751989
C200	C	1.505424	0.362205	1.001989
C201	C	0.755434	-0.445909	0.251996
C202	C	1.005434	-0.195909	0.501996
C203	C	1.255434	0.054091	0.751996
C204	C	1.505434	0.304091	1.001996
C205	C	0.789031	-0.806270	0.218638
C206	C	1.039031	-0.556270	0.468638
C207	C	1.289031	-0.306270	0.718638
C208	C	1.539031	-0.056270	0.968638
C209	C	0.789051	-0.860875	0.218645
C210	C	1.039051	-0.610875	0.468645
C211	C	1.289051	-0.360875	0.718645
C212	C	1.539051	-0.110875	0.968645
O213	O	0.817526	-0.889110	0.190257
O214	O	1.067526	-0.639110	0.440257
O215	O	1.317526	-0.389110	0.690257
O216	O	1.567526	-0.139110	0.940257
N217	N	0.755604	-0.888191	0.252048
N218	N	1.005604	-0.638191	0.502048
N219	N	1.255604	-0.388191	0.752048
N220	N	1.505604	-0.138191	1.002048
C221	C	0.722138	-0.860901	0.285449
C222	C	0.972138	-0.610901	0.535449
C223	C	1.222138	-0.360901	0.785449
C224	C	1.472138	-0.110901	1.035449
O225	O	0.693690	-0.889150	0.313861
O226	O	0.943690	-0.639150	0.563861
O227	O	1.193690	-0.389150	0.813861
O228	O	1.443690	-0.139150	1.063861
C229	C	0.722120	-0.806298	0.285444
C230	C	0.972120	-0.556298	0.535444
C231	C	1.222120	-0.306298	0.785444
C232	C	1.472120	-0.056298	1.035444
C233	C	0.755566	-0.778984	0.252036
C234	C	1.005566	-0.528984	0.502036
C235	C	1.255566	-0.278984	0.752036
C236	C	1.505566	-0.028984	1.002036
C237	C	0.822475	-0.778957	0.185233
C238	C	1.072475	-0.528957	0.435233
C239	C	1.322475	-0.278957	0.685233
C240	C	1.572475	-0.028957	0.935233
C241	C	0.822454	-0.724356	0.185226
C242	C	1.072454	-0.474356	0.435226
C243	C	1.322454	-0.224356	0.685226
C244	C	1.572454	0.025644	0.935226
C245	C	0.788989	-0.697069	0.218623
C246	C	1.038989	-0.447069	0.468623
C247	C	1.288989	-0.197069	0.718623
C248	C	1.538989	0.052931	0.968623
C249	C	0.755545	-0.724383	0.252028
C250	C	1.005545	-0.474383	0.502028
C251	C	1.255545	-0.224383	0.752028
C252	C	1.505545	0.025617	1.002028
C253	C	0.688657	-0.779008	0.318847
C254	C	0.938657	-0.529008	0.568847
C255	C	1.188657	-0.279008	0.818847
C256	C	1.438657	-0.029008	1.068847
C257	C	0.688643	-0.724401	0.318840
C258	C	0.938643	-0.474401	0.568840
C259	C	1.188643	-0.224401	0.818840
C260	C	1.438643	0.025599	1.068840
C261	C	0.722089	-0.697087	0.285432
C262	C	0.972089	-0.447087	0.535432
C263	C	1.222089	-0.197087	0.785432
C264	C	1.472089	0.052913	1.035432
C265	C	0.722059	-0.642496	0.285418
C266	C	0.972059	-0.392496	0.535418
C267	C	1.222059	-0.142496	0.785418
C268	C	1.472059	0.107504	1.035418
N269	N	0.755507	-0.615179	0.252016
N270	N	1.005507	-0.365179	0.502016
N271	N	1.255507	-0.115179	0.752016
N272	N	1.505507	0.134821	1.002016
C273	C	0.788972	-0.642466	0.218619
C274	C	1.038972	-0.392466	0.468619
C275	C	1.288972	-0.142466	0.718619
C276	C	1.538972	0.107534	0.968619
C277	C	0.722177	-0.975571	0.285457
C278	C	0.972177	-0.725571	0.535457
C279	C	1.222177	-0.475571	0.785457
C280	C	1.472177	-0.225571	1.035457
C281	C	0.722191	-1.030174	0.285459
C282	C	0.972191	-0.780174	0.535459
C283	C	1.222191	-0.530174	0.785459
C284	C	1.472191	-0.280174	1.035459
C285	C	0.789106	-1.030144	0.218656
C286	C	1.039106	-0.780144	0.468656
C287	C	1.289106	-0.530144	0.718656
C288	C	1.539106	-0.280144	0.968656
C289	C	0.789089	-0.975541	0.218652
C290	C	1.039089	-0.725541	0.468652
C291	C	1.289089	-0.475541	0.718652
C292	C	1.539089	-0.225541	0.968652
C293	C	0.755625	-0.948255	0.252055
C294	C	1.005625	-0.698255	0.502055
C295	C	1.255625	-0.448255	0.752055
C296	C	1.505625	-0.198255	1.002055
C297	C	0.788925	-0.527801	0.218605
C298	C	1.038925	-0.277801	0.468605
C299	C	1.288925	-0.027801	0.718605
C300	C	1.538925	0.222199	0.968605
C301	C	0.788899	-0.473196	0.218599
C302	C	1.038899	-0.223196	0.468599
C303	C	1.288899	0.026804	0.718599
C304	C	1.538899	0.276804	0.968599
C305	C	0.721987	-0.473230	0.285403
C306	C	0.971987	-0.223230	0.535403
C307	C	1.221987	0.026770	0.785403
C308	C	1.471987	0.276770	1.035403
C309	C	0.722010	-0.527831	0.285408
C310	C	0.972010	-0.277831	0.535408
C311	C	1.222010	-0.027831	0.785408
C312	C	1.472010	0.222169	1.035408
C313	C	0.755483	-0.555115	0.252007
C314	C	1.005483	-0.305115	0.502007
C315	C	1.255483	-0.055115	0.752007
C316	C	1.505483	0.194885	1.002007
O317	O	0.693601	-0.614226	0.313794
O318	O	0.943601	-0.364226	0.563794
O319	O	1.193601	-0.114226	0.813794
O320	O	1.443601	0.135774	1.063794
O321	O	0.817419	-0.614210	0.190216
O322	O	1.067419	-0.364210	0.440216
O323	O	1.317419	-0.114210	0.690216
O324	O	1.567419	0.135790	0.940216
C325	C	0.891885	-0.251973	0.252049
C326	C	1.141885	-0.001973	0.502049
C327	C	1.391885	0.248027	0.752049
C328	C	1.641885	0.498027	1.002049
C329	C	0.949999	-0.251982	0.252064
C330	C	1.199999	-0.001982	0.502064
C331	C	1.449999	0.248018	0.752064
C332	C	1.699999	0.498018	1.002064
C333	C	0.755546	-0.251928	0.388386
C334	C	1.005546	-0.001928	0.638386
C335	C	1.255546	0.248072	0.888386
C336	C	1.505546	0.498072	1.138386
C337	C	0.755560	-0.251918	0.446500
C338	C	1.005560	-0.001918	0.696500
C339	C	1.255560	0.248082	0.946500
C340	C	1.505560	0.498082	1.196500
C341	C	0.755614	-0.115579	0.252048
C342	C	1.005614	0.134421	0.502048
C343	C	1.255614	0.384421	0.752048
C344	C	1.505614	0.634421	1.002048
C345	C	0.755658	-0.057465	0.252064
C346	C	1.005658	0.192535	0.502064
C347	C	1.255658	0.442535	0.752064
C348	C	1.505658	0.692535	1.002064
C349	C	0.755508	-0.251938	0.116170
C350	C	1.005508	-0.001938	0.366170
C351	C	1.255508	0.248062	0.616170
C352	C	1.505508	0.498062	0.866170
C353	C	0.755595	-0.251801	0.058057
C354	C	1.005595	-0.001801	0.308057
C355	C	1.255595	0.248199	0.558057
C356	C	1.505595	0.498199	0.808057
C357	C	0.722160	-0.218411	0.806869
C358	C	0.972160	0.031589	1.056869
C359	C	1.222160	0.281589	1.306869
C360	C	1.472160	0.531589	1.556869
C361	C	0.722163	-0.218401	0.861473
C362	C	0.972163	0.031599	1.111473
C363	C	1.222163	0.281599	1.361473
C364	C	1.472163	0.531599	1.611473
O365	O	0.693738	-0.189969	0.889714
O366	O	0.943738	0.060031	1.139714
O367	O	1.193738	0.310031	1.389714
O368	O	1.443738	0.560031	1.639714
N369	N	0.755578	-0.251836	0.888783
N370	N	1.005578	-0.001836	1.138783
N371	N	1.255578	0.248164	1.388783
N372	N	1.505578	0.498164	1.638783
C373	C	0.788988	-0.285287	0.861485
C374	C	1.038988	-0.035287	1.111485
C375	C	1.288988	0.214713	1.361485
C376	C	1.538988	0.464713	1.611485
O377	O	0.817411	-0.313726	0.889728
O378	O	1.067411	-0.063726	1.139728
O379	O	1.317411	0.186274	1.389728
O380	O	1.567411	0.436274	1.639728
C381	C	0.788983	-0.285299	0.806882
C382	C	1.038983	-0.035299	1.056882
C383	C	1.288983	0.214701	1.306882
C384	C	1.538983	0.464701	1.556882
C385	C	0.755569	-0.251857	0.779575
C386	C	1.005569	-0.001857	1.029575
C387	C	1.255569	0.248143	1.279575
C388	C	1.505569	0.498143	1.529575
C389	C	0.688749	-0.184972	0.779562
C390	C	0.938749	0.065028	1.029562
C391	C	1.188749	0.315028	1.279562
C392	C	1.438749	0.565028	1.529562
C393	C	0.688747	-0.184981	0.724961
C394	C	0.938747	0.065019	0.974961
C395	C	1.188747	0.315019	1.224961
C396	C	1.438747	0.565019	1.474961
C397	C	0.722156	-0.218428	0.697668
C398	C	0.972156	0.031572	0.947668
C399	C	1.222156	0.281572	1.197668
C400	C	1.472156	0.531572	1.447668
C401	C	0.755567	-0.251866	0.724974
C402	C	1.005567	-0.001866	0.974974
C403	C	1.255567	0.248134	1.224974
C404	C	1.505567	0.498134	1.474974
C405	C	0.822390	-0.318752	0.779585
C406	C	1.072390	-0.068752	1.029585
C407	C	1.322390	0.181248	1.279585
C408	C	1.572390	0.431248	1.529585
C409	C	0.822381	-0.318761	0.724978
C410	C	1.072381	-0.068761	0.974978
C411	C	1.322381	0.181239	1.224978
C412	C	1.572381	0.431239	1.474978
C413	C	0.788968	-0.285319	0.697672
C414	C	1.038968	-0.035319	0.947672
C415	C	1.288968	0.214681	1.197672
C416	C	1.538968	0.464681	1.447672
C417	C	0.788974	-0.285322	0.643080
C418	C	1.038974	-0.035322	0.893080
C419	C	1.288974	0.214678	1.143080
C420	C	1.538974	0.464678	1.393080
N421	N	0.755559	-0.251887	0.615771
N422	N	1.005559	-0.001887	0.865771
N423	N	1.255559	0.248113	1.115771
N424	N	1.505559	0.498113	1.365771
C425	C	0.722150	-0.218440	0.643064
C426	C	0.972150	0.031560	0.893064
C427	C	1.222150	0.281560	1.143064
C428	C	1.472150	0.531560	1.393064
C429	C	0.788998	-0.285260	0.976156
C430	C	1.038998	-0.035260	1.226156
C431	C	1.288998	0.214740	1.476156
C432	C	1.538998	0.464740	1.726156
C433	C	0.789006	-0.285246	1.030758
C434	C	1.039006	-0.035246	1.280758
C435	C	1.289006	0.214754	1.530758
C436	C	1.539006	0.464754	1.780758
C437	C	0.722180	-0.218361	1.030742
C438	C	0.972180	0.031639	1.280742
C439	C	1.222180	0.281639	1.530742
C440	C	1.472180	0.531639	1.780742
C441	C	0.722174	-0.218373	0.976139
C442	C	0.972174	0.031627	1.226139
C443	C	1.222174	0.281627	1.476139
C444	C	1.472174	0.531627	1.726139
C445	C	0.755583	-0.251825	0.948846
C446	C	1.005583	-0.001825	1.198846
C447	C	1.255583	0.248175	1.448846
C448	C	1.505583	0.498175	1.698846
C449	C	0.722149	-0.218461	0.528399
C450	C	0.972149	0.031539	0.778399
C451	C	1.222149	0.281539	1.028399
C452	C	1.472149	0.531539	1.278399
C453	C	0.722151	-0.218471	0.473794
C454	C	0.972151	0.031529	0.723794
C455	C	1.222151	0.281529	0.973794
C456	C	1.472151	0.531529	1.223794
C457	C	0.788976	-0.285358	0.473814
C458	C	1.038976	-0.035358	0.723814
C459	C	1.288976	0.214642	0.973814
C460	C	1.538976	0.464642	1.223814
C461	C	0.788975	-0.285346	0.528415
C462	C	1.038975	-0.035346	0.778415
C463	C	1.288975	0.214654	1.028415
C464	C	1.538975	0.464654	1.278415
C465	C	0.755558	-0.251896	0.555706
C466	C	1.005558	-0.001896	0.805706
C467	C	1.255558	0.248104	1.055706
C468	C	1.505558	0.498104	1.305706
O469	O	0.817383	-0.313741	0.614804
O470	O	1.067383	-0.063741	0.864804
O471	O	1.317383	0.186259	1.114804
O472	O	1.567383	0.436259	1.364804
O473	O	0.693728	-0.190011	0.614814
O474	O	0.943728	0.059989	0.864814
O475	O	1.193728	0.309989	1.114814
O476	O	1.443728	0.559989	1.364814
H477	H	0.054142	-0.312727	0.312609
H478	H	0.304142	-0.062727	0.562609
H479	H	0.554142	0.187273	0.812609
H480	H	0.804142	0.437273	1.062609
N481	N	0.652709	-0.148894	0.808992
N482	N	0.902709	0.101106	1.058992
N483	N	1.152709	0.351106	1.308992
N484	N	1.402709	0.601106	1.558992
H485	H	0.660861	-0.111543	0.799495
H486	H	0.910861	0.138457	1.049495
H487	H	1.160861	0.388457	1.299495
H488	H	1.410861	0.638457	1.549495
H489	H	0.657793	-0.153998	0.847719
H490	H	0.907793	0.096002	1.097719
H491	H	1.157793	0.346002	1.347719
H492	H	1.407793	0.596002	1.597719
N493	N	-0.052137	-0.321583	0.321441
N494	N	0.197863	-0.071583	0.571441
N495	N	0.447863	0.178417	0.821441
N496	N	0.697863	0.428417	1.071441
H497	H	-0.074765	-0.300368	0.345710
H498	H	0.175235	-0.050368	0.595710
H499	H	0.425235	0.199632	0.845710
H500	H	0.675235	0.449632	1.095710
H501	H	-0.026524	-0.342787	0.342548
H502	H	0.223476	-0.092787	0.592548
H503	H	0.473476	0.157213	0.842548
H504	H	0.723476	0.407213	1.092548
H505	H	0.816324	-0.953305	0.191448
H506	H	1.066324	-0.703305	0.441448
H507	H	1.316324	-0.453305	0.691448
H508	H	1.566324	-0.203305	0.941448
H509	H	0.816209	-0.312498	0.953938
H510	H	1.066209	-0.062498	1.203938
H511	H	1.316209	0.187502	1.453938
H512	H	1.566209	0.437502	1.703938
H513	H	0.849729	-0.801168	0.158037
H514	H	1.099729	-0.551168	0.408037
H515	H	1.349729	-0.301168	0.658037
H516	H	1.599729	-0.051168	0.908037
H517	H	0.816357	-1.052371	0.191464
H518	H	1.066357	-0.802371	0.441464
H519	H	1.316357	-0.552371	0.691464
H520	H	1.566357	-0.302371	0.941464
N521	N	0.450219	-0.321548	0.321371
N522	N	0.700219	-0.071548	0.571371
N523	N	0.950219	0.178452	0.821371
N524	N	1.200219	0.428452	1.071371
H525	H	0.427591	-0.300341	0.345647
H526	H	0.677591	-0.050341	0.595647
H527	H	0.927591	0.199659	0.845647
H528	H	1.177591	0.449659	1.095647
H529	H	0.475840	-0.342750	0.342471
H530	H	0.725840	-0.092750	0.592471
H531	H	0.975840	0.157250	0.842471
H532	H	1.225840	0.407250	1.092471
H533	H	0.816189	-0.312571	0.550650
H534	H	1.066189	-0.062571	0.800650
H535	H	1.316189	0.187429	1.050650
H536	H	1.566189	0.437429	1.300650
H537	H	0.849590	-0.345999	0.702760
H538	H	1.099590	-0.095999	0.952760
H539	H	1.349590	0.154001	1.202760
H540	H	1.599590	0.404001	1.452760
N541	N	0.825010	-0.321430	0.444371
N542	N	1.075010	-0.071430	0.694371
N543	N	1.325010	0.178570	0.944371
N544	N	1.575010	0.428570	1.194371
H545	H	0.819876	-0.316419	0.405638
H546	H	1.069876	-0.066419	0.655638
H547	H	1.319876	0.183581	0.905638
H548	H	1.569876	0.433581	1.155638
H549	H	0.816898	-0.358764	0.453963
H550	H	1.066898	-0.108764	0.703963
H551	H	1.316898	0.141236	0.953963
H552	H	1.566898	0.391236	1.203963
H553	H	0.816221	-0.312472	1.052987
H554	H	1.066221	-0.062472	1.302987
H555	H	1.316221	0.187528	1.552987
H556	H	1.566221	0.437528	1.802987
N557	N	0.652542	-0.694974	0.354863
N558	N	0.902542	-0.444974	0.604863
N559	N	1.152542	-0.194974	0.854863
N560	N	1.402542	0.055026	1.104863
H561	H	0.657601	-0.656237	0.349792
H562	H	0.907601	-0.406237	0.599792
H563	H	1.157601	-0.156237	0.849792
H564	H	1.407601	0.093763	1.099792
H565	H	0.660662	-0.704489	0.392214
H566	H	0.910662	-0.454489	0.642214
H567	H	1.160662	-0.204489	0.892214
H568	H	1.410662	0.045511	1.142214
H569	H	0.556488	-0.312690	0.312530
H570	H	0.806488	-0.062690	0.562530
H571	H	1.056488	0.187310	0.812530
H572	H	1.306488	0.437310	1.062530
N573	N	0.686115	-1.059629	0.321492
N574	N	0.936115	-0.809629	0.571492
N575	N	1.186115	-0.559629	0.821492
N576	N	1.436115	-0.309629	1.071492
H577	H	0.691202	-1.098361	0.316433
H578	H	0.941202	-0.848361	0.566433
H579	H	1.191202	-0.598361	0.816433
H580	H	1.441202	-0.348361	1.066433
H581	H	0.648776	-1.050123	0.313312
H582	H	0.898776	-0.800123	0.563312
H583	H	1.148776	-0.550123	0.813312
H584	H	1.398776	-0.300123	1.063312
N585	N	0.686077	-0.946143	0.321482
N586	N	0.936077	-0.696143	0.571482
N587	N	1.186077	-0.446143	0.821482
N588	N	1.436077	-0.196143	1.071482
H589	H	0.664892	-0.971738	0.342639
H590	H	0.914892	-0.721738	0.592639
H591	H	1.164892	-0.471738	0.842639
H592	H	1.414892	-0.221738	1.092639
H593	H	0.661885	-0.923523	0.300171
H594	H	0.911885	-0.673523	0.550171
H595	H	1.161885	-0.423523	0.800171
H596	H	1.411885	-0.173523	1.050171
N597	N	0.450184	-0.182361	0.182605
N598	N	0.700184	0.067639	0.432605
N599	N	0.950184	0.317639	0.682605
N600	N	1.200184	0.567639	0.932605
H601	H	0.427551	-0.158160	0.203891
H602	H	0.677551	0.091840	0.453891
H603	H	0.927551	0.341840	0.703891
H604	H	1.177551	0.591840	0.953891
H605	H	0.427536	-0.203629	0.158356
H606	H	0.677536	0.046371	0.408356
H607	H	0.927536	0.296371	0.658356
H608	H	1.177536	0.546371	0.908356
H609	H	0.054123	-0.191221	0.191496
H610	H	0.304123	0.058779	0.441496
H611	H	0.554123	0.308779	0.691496
H612	H	0.804123	0.558779	0.941496
N613	N	0.652580	-0.808459	0.354878
N614	N	0.902580	-0.558459	0.604878
N615	N	1.152580	-0.308459	0.854878
N616	N	1.402580	-0.058459	1.104878
H617	H	0.631382	-0.782880	0.376032
H618	H	0.881382	-0.532880	0.626032
H619	H	1.131382	-0.282880	0.876032
H620	H	1.381382	-0.032880	1.126032
H621	H	0.673854	-0.831081	0.379102
H622	H	0.923854	-0.581081	0.629102
H623	H	1.173854	-0.331081	0.879102
H624	H	1.423854	-0.081081	1.129102
N625	N	0.686110	-0.182406	0.444337
N626	N	0.936110	0.067594	0.694337
N627	N	1.186110	0.317594	0.944337
N628	N	1.436110	0.567594	1.194337
H629	H	0.707375	-0.158183	0.421700
H630	H	0.957375	0.091817	0.671700
H631	H	1.207375	0.341817	0.921700
H632	H	1.457375	0.591817	1.171700
H633	H	0.664950	-0.161252	0.469946
H634	H	0.914950	0.088748	0.719946
H635	H	1.164950	0.338748	0.969946
H636	H	1.414950	0.588748	1.219946
N637	N	0.652704	-0.148921	0.695507
N638	N	0.902704	0.101079	0.945507
N639	N	1.152704	0.351079	1.195507
N640	N	1.402704	0.601079	1.445507
H641	H	0.673966	-0.124698	0.672866
H642	H	0.923966	0.125302	0.922866
H643	H	1.173966	0.375302	1.172866
H644	H	1.423966	0.625302	1.422866
H645	H	0.631546	-0.127768	0.721117
H646	H	0.881546	0.122232	0.971117
H647	H	1.131546	0.372232	1.221117
H648	H	1.381546	0.622232	1.471117
H649	H	0.849599	-0.345983	0.801809
H650	H	1.099599	-0.095983	1.051809
H651	H	1.349599	0.154017	1.301809
H652	H	1.599599	0.404017	1.551809
H653	H	0.694937	-0.191222	0.550613
H654	H	0.944937	0.058778	0.800613
H655	H	1.194937	0.308778	1.050613
H656	H	1.444937	0.558778	1.300613
N657	N	0.686132	-0.182311	0.946685
N658	N	0.936132	0.067689	1.196685
N659	N	1.186132	0.317689	1.446685
N660	N	1.436132	0.567689	1.696685
H661	H	0.707394	-0.158089	0.924044
H662	H	0.957394	0.091911	1.174044
H663	H	1.207394	0.341911	1.424044
H664	H	1.457394	0.591911	1.674044
H665	H	0.664977	-0.161156	0.972297
H666	H	0.914977	0.088844	1.222297
H667	H	1.164977	0.338844	1.472297
H668	H	1.414977	0.588844	1.722297
H669	H	0.694777	-0.550071	0.312613
H670	H	0.944777	-0.300071	0.562613
H671	H	1.194777	-0.050071	0.812613
H672	H	1.444777	0.199929	1.062613
H673	H	-0.044927	-0.191238	0.191502
H674	H	0.205073	0.058762	0.441502
H675	H	0.455073	0.308762	0.691502
H676	H	0.705073	0.558762	0.941502
H677	H	0.694976	-0.191127	1.052975
H678	H	0.944976	0.058873	1.302975
H679	H	1.194976	0.308873	1.552975
H680	H	1.444976	0.558873	1.802975
N681	N	0.312530	-0.355038	0.354773
N682	N	0.562530	-0.105038	0.604773
N683	N	0.812530	0.144962	0.854773
N684	N	1.062530	0.394962	1.104773
H685	H	0.303050	-0.346965	0.392144
H686	H	0.553050	-0.096965	0.642144
H687	H	0.803050	0.153035	0.892144
H688	H	1.053050	0.403035	1.142144
H689	H	0.351255	-0.349945	0.349667
H690	H	0.601255	-0.099945	0.599667
H691	H	0.851255	0.150055	0.849667
H692	H	1.101255	0.400055	1.099667
N693	N	0.199053	-0.355046	0.354785
N694	N	0.449053	-0.105046	0.604785
N695	N	0.699053	0.144954	0.854785
N696	N	0.949053	0.394954	1.104785
H697	H	0.224644	-0.376254	0.375919
H698	H	0.474644	-0.126254	0.625919
H699	H	0.724644	0.123746	0.875919
H700	H	0.974644	0.373746	1.125919
H701	H	0.176377	-0.379216	0.333457
H702	H	0.426377	-0.129216	0.583457
H703	H	0.676377	0.120784	0.833457
H704	H	0.926377	0.370784	1.083457
H705	H	0.305303	-0.157704	0.158103
H706	H	0.555303	0.092296	0.408103
H707	H	0.805303	0.342296	0.658103
H708	H	1.055303	0.592296	0.908103
N709	N	0.199034	-0.148866	0.149288
N710	N	0.449034	0.101134	0.399288
N711	N	0.699034	0.351134	0.649288
N712	N	0.949034	0.601134	0.899288
H713	H	0.224620	-0.127654	0.128147
H714	H	0.474620	0.122346	0.378147
H715	H	0.724620	0.372346	0.628147
H716	H	0.974620	0.622346	0.878147
H717	H	0.176407	-0.124700	0.170617
H718	H	0.426407	0.125300	0.420617
H719	H	0.676407	0.375300	0.670617
H720	H	0.926407	0.625300	0.920617
N721	N	0.858537	-0.694901	0.149201
N722	N	1.108537	-0.444901	0.399201
N723	N	1.358537	-0.194901	0.649201
N724	N	1.608537	0.055099	0.899201
H725	H	0.837304	-0.672277	0.124940
H726	H	1.087304	-0.422277	0.374940
H727	H	1.337304	-0.172277	0.624940
H728	H	1.587304	0.077723	0.874940
H729	H	0.879731	-0.720513	0.128086
H730	H	1.129731	-0.470513	0.378086
H731	H	1.379731	-0.220513	0.628086
H732	H	1.629731	0.029487	0.878086
H733	H	0.556478	-0.191191	0.191422
H734	H	0.806478	0.058809	0.441422
H735	H	1.056478	0.308809	0.691422
H736	H	1.306478	0.558809	0.941422
N737	N	0.685890	-0.443795	0.321420
N738	N	0.935890	-0.193795	0.571420
N739	N	1.185890	0.056205	0.821420
N740	N	1.435890	0.306205	1.071420
H741	H	0.690956	-0.405060	0.316344
H742	H	0.940956	-0.155060	0.566344
H743	H	1.190956	0.094940	0.816344
H744	H	1.440956	0.344940	1.066344
H745	H	0.694011	-0.453308	0.358772
H746	H	0.944011	-0.203308	0.608772
H747	H	1.194011	0.046692	0.858772
H748	H	1.444011	0.296692	1.108772
H749	H	0.816183	-0.550009	0.191408
H750	H	1.066183	-0.300009	0.441408
H751	H	1.316183	-0.050009	0.691408
H752	H	1.566183	0.199991	0.941408
N753	N	0.824976	-0.443736	0.182566
N754	N	1.074976	-0.193736	0.432566
N755	N	1.324976	0.056264	0.682566
N756	N	1.574976	0.306264	0.932566
H757	H	0.846180	-0.469311	0.161413
H758	H	1.096180	-0.219311	0.411413
H759	H	1.346180	0.030689	0.661413
H760	H	1.596180	0.280689	0.911413
H761	H	0.849151	-0.421046	0.203873
H762	H	1.099151	-0.171046	0.453873
H763	H	1.349151	0.078954	0.703873
H764	H	1.599151	0.328954	0.953873
