data_functionalizedCrystal
_audit_creation_method	'MofGen! by Chris Wilmer'
_symmetry_space_group_name_H-M	'P1'
_symmetry_Int_Tables_number	1
_symmetry_cell_setting	triclinic
loop_
_symmetry_equiv_pos_as_xyz
  x,y,z
_cell_length_a	19.121215
_cell_length_b	19.121063
_cell_length_c	21.395364
_cell_angle_alpha	87.573606
_cell_angle_beta	92.454287
_cell_angle_gamma	95.002544
loop_
_atom_site_label
_atom_site_type_symbol
_atom_site_fract_x
_atom_site_fract_y
_atom_site_fract_z
Zn1	Zn	1.063649	-0.234487	0.403764
Zn2	Zn	1.563649	0.265513	0.903764
Zn3	Zn	1.058561	-0.352125	0.303265
Zn4	Zn	1.558561	0.147875	0.803265
Zn5	Zn	0.946007	-0.239480	0.294702
Zn6	Zn	1.446007	0.260520	0.794702
Zn7	Zn	0.940925	-0.357125	0.403707
Zn8	Zn	1.440925	0.142875	0.903707
O9	O	1.002286	-0.295804	0.351360
O10	O	1.502286	0.204196	0.851360
O11	O	1.161440	-0.245910	0.394041
O12	O	1.661440	0.254090	0.894041
O13	O	1.043629	-0.337179	0.214451
O14	O	1.543629	0.162821	0.714451
O15	O	0.965869	-0.140350	0.305609
O16	O	1.465869	0.359650	0.805609
O17	O	1.157701	-0.332338	0.320205
O18	O	1.657701	0.167662	0.820205
O19	O	1.052300	-0.136682	0.385737
O20	O	1.552300	0.363318	0.885737
O21	O	0.960936	-0.254419	0.208160
O22	O	1.460936	0.245581	0.708160
O23	O	0.846868	-0.259268	0.305554
O24	O	1.346868	0.240732	0.805554
O25	O	0.957206	-0.340860	0.491392
O26	O	1.457206	0.159140	0.991392
O27	O	0.843134	-0.345701	0.385639
O28	O	1.343134	0.154299	0.885639
O29	O	1.047372	-0.250759	0.491435
O30	O	1.547372	0.249241	0.991435
O31	O	1.038700	-0.451255	0.320149
O32	O	1.538700	0.048745	0.820149
O33	O	0.952273	-0.454929	0.393943
O34	O	1.452273	0.045071	0.893943
C35	C	0.819470	-0.303569	0.344661
C36	C	1.319470	0.196431	0.844661
C37	C	0.741260	-0.306908	0.341811
C38	C	1.241260	0.193092	0.841811
C39	C	0.298821	-0.328045	0.323780
C40	C	0.798821	0.171955	0.823780
C41	C	0.372308	-0.324904	0.326453
C42	C	0.872308	0.175096	0.826453
C43	C	0.410997	-0.278409	0.366300
C44	C	0.910997	0.221591	0.866300
C45	C	0.376195	-0.235047	0.403472
C46	C	0.876195	0.264953	0.903472
C47	C	0.302710	-0.238185	0.400795
C48	C	0.802710	0.261815	0.900795
C49	C	0.632973	-0.266684	0.376306
C50	C	1.132973	0.233316	0.876306
C51	C	0.706463	-0.263551	0.378981
C52	C	1.206463	0.236449	0.878981
C53	C	0.702571	-0.353408	0.301961
C54	C	1.202571	0.146592	0.801961
C55	C	0.629084	-0.356544	0.299291
C56	C	1.129084	0.143456	0.799291
C57	C	0.594289	-0.313180	0.336460
C58	C	1.094289	0.186820	0.836460
C59	C	0.486112	-0.275199	0.369035
C60	C	0.986112	0.224801	0.869035
C61	C	0.519175	-0.316387	0.333722
C62	C	1.019175	0.183613	0.833722
C63	C	0.994402	-0.478623	0.357983
C64	C	1.494402	0.021377	0.857983
C65	C	0.991094	-0.556831	0.360840
C66	C	1.491094	-0.056831	0.860840
C67	C	1.034572	-0.591635	0.323796
C68	C	1.534572	-0.091635	0.823796
C69	C	1.031465	-0.665120	0.326487
C70	C	1.531465	-0.165120	0.826487
C71	C	0.984875	-0.703798	0.366218
C72	C	1.484875	-0.203798	0.866218
C73	C	0.941394	-0.668988	0.403266
C74	C	1.441394	-0.168988	0.903266
C75	C	0.944506	-0.595505	0.400579
C76	C	1.444506	-0.095505	0.900579
C77	C	0.973231	-0.925767	0.376257
C78	C	1.473231	-0.425767	0.876257
C79	C	0.970121	-0.999256	0.378941
C80	C	1.470121	-0.499256	0.878941
C81	C	1.060193	-0.995382	0.302162
C82	C	1.560193	-0.495382	0.802162
C83	C	1.063298	-0.921897	0.299475
C84	C	1.563298	-0.421897	0.799475
C85	C	1.019820	-0.887094	0.336525
C86	C	1.519820	-0.387094	0.836525
C87	C	0.981696	-0.778911	0.368968
C88	C	1.481696	-0.278911	0.868968
C89	C	1.023003	-0.811982	0.333778
C90	C	1.523003	-0.311982	0.833778
C91	C	1.185815	-0.288010	0.358085
C92	C	1.685815	0.211990	0.858085
C93	C	1.264025	-0.284688	0.360950
C94	C	1.764025	0.215312	0.860950
C95	C	1.002290	-0.295810	0.514783
C96	C	1.502290	0.204190	1.014783
C97	C	1.002292	-0.295813	0.584425
C98	C	1.502292	0.204187	1.084425
C99	C	1.010219	-0.112271	0.344725
C100	C	1.510219	0.387729	0.844725
C101	C	1.013600	-0.034060	0.341897
C102	C	1.513600	0.465940	0.841897
C103	C	1.045344	-0.338892	1.089496
C104	C	1.545344	0.161108	1.589496
C105	C	1.045342	-0.338897	1.024061
C106	C	1.545342	0.161103	1.524061
C107	C	1.002290	-0.295808	0.988063
C108	C	1.502290	0.204192	1.488063
C109	C	0.959223	-0.252725	1.017505
C110	C	1.459223	0.247275	1.517505
C111	C	0.959220	-0.252726	1.082939
C112	C	1.459220	0.247274	1.582939
C113	C	0.999478	-0.232646	0.881899
C114	C	1.499478	0.267354	1.381899
C115	C	0.999485	-0.232644	0.816466
C116	C	1.499485	0.267356	1.316466
C117	C	1.002293	-0.295805	0.786242
C118	C	1.502293	0.204195	1.286242
C119	C	1.005108	-0.358970	0.821459
C120	C	1.505108	0.141030	1.321459
C121	C	1.005106	-0.358971	0.886893
C122	C	1.505106	0.141029	1.386893
C123	C	1.002287	-0.295802	0.917110
C124	C	1.502287	0.204198	1.417110
C125	C	1.045352	-0.338894	0.685855
C126	C	1.545352	0.161106	1.185855
C127	C	1.045345	-0.338901	0.620419
C128	C	1.545345	0.161099	1.120419
C129	C	0.959230	-0.252723	0.613863
C130	C	1.459230	0.247277	1.113863
C131	C	0.959232	-0.252723	0.679299
C132	C	1.459232	0.247277	1.179299
C133	C	1.002297	-0.295807	0.715291
C134	C	1.502297	0.204193	1.215291
C135	C	1.002279	-0.295814	1.188572
C136	C	1.502279	0.204186	1.688572
C137	C	1.002285	-0.295811	1.118931
C138	C	1.502285	0.204189	1.618931
H139	H	0.604651	-0.231376	0.406575
H140	H	1.104651	0.268624	0.906575
C141	C	0.418750	-0.183904	0.447304
C142	C	0.918750	0.316096	0.947304
H143	H	0.467499	-0.188249	0.443580
H144	H	0.967499	0.311751	0.943580
H145	H	0.408740	-0.137123	0.436055
H146	H	0.908740	0.362877	0.936055
H147	H	0.406271	-0.194799	0.489325
H148	H	0.906271	0.305201	0.989325
C149	C	0.911861	-0.205342	0.711681
C150	C	1.411861	0.294658	1.211681
H151	H	0.918017	-0.211522	0.755807
H152	H	1.418017	0.288478	1.255807
H153	H	0.924187	-0.157622	0.699631
H154	H	1.424187	0.342378	1.199631
H155	H	0.864141	-0.217668	0.699590
H156	H	1.364141	0.282332	1.199590
H157	H	0.517621	-0.237344	0.401480
H158	H	1.017621	0.262656	0.901480
C159	C	0.925395	-0.887493	0.417000
C160	C	1.425395	-0.387493	0.917000
H161	H	0.897196	-0.921055	0.441039
H162	H	1.397196	-0.421055	0.941039
H163	H	0.953493	-0.857646	0.444258
H164	H	1.453493	-0.357646	0.944258
H165	H	0.895969	-0.860171	0.390831
H166	H	1.395969	-0.360171	0.890831
H167	H	1.080408	-0.373977	1.118798
H168	H	1.580408	0.126023	1.618798
C169	C	1.085823	-0.549095	0.280092
C170	C	1.585823	-0.049095	0.780092
H171	H	1.111277	-0.580351	0.258420
H172	H	1.611277	-0.080351	0.758420
H173	H	1.060146	-0.521606	0.250739
H174	H	1.560146	-0.021606	0.750739
H175	H	1.117678	-0.519092	0.304159
H176	H	1.617678	-0.019092	0.804159
C177	C	0.264433	-0.190496	0.441687
C178	C	0.764433	0.309504	0.941687
H179	H	0.297998	-0.162361	0.465807
H180	H	0.797998	0.337639	0.965807
H181	H	0.237078	-0.161017	0.415610
H182	H	0.737078	0.338983	0.915610
H183	H	0.234616	-0.218693	0.468881
H184	H	0.734616	0.281307	0.968881
H185	H	0.903463	-0.700486	0.435620
H186	H	1.403463	-0.200486	0.935620
H187	H	1.066870	-0.693454	0.296321
H188	H	1.566870	-0.193454	0.796321
C189	C	1.074250	-0.769441	0.290075
C190	C	1.574250	-0.269441	0.790075
H191	H	1.099704	-0.800691	0.268397
H192	H	1.599704	-0.300691	0.768397
H193	H	1.048567	-0.741952	0.260728
H194	H	1.548567	-0.241952	0.760728
H195	H	1.106105	-0.739438	0.314143
H196	H	1.606105	-0.239438	0.814143
H197	H	0.909102	-0.567168	0.430744
H198	H	1.409102	-0.067168	0.930744
H199	H	0.487672	-0.354241	0.301276
H200	H	0.987672	0.145759	0.801276
C201	C	1.092710	-0.386283	0.991673
C202	C	1.592710	0.113717	1.491673
H203	H	1.086539	-0.380113	0.947548
H204	H	1.586539	0.119887	1.447548
H205	H	1.140430	-0.373972	1.003758
H206	H	1.640430	0.126028	1.503758
H207	H	1.080370	-0.434003	1.003726
H208	H	1.580370	0.065997	1.503726
C209	C	1.114551	-0.879356	0.255774
C210	C	1.614551	-0.379356	0.755774
H211	H	1.140006	-0.910609	0.234101
H212	H	1.640006	-0.410609	0.734101
H213	H	1.088873	-0.851867	0.226423
H214	H	1.588873	-0.351867	0.726423
H215	H	1.146405	-0.849352	0.279843
H216	H	1.646405	-0.349352	0.779843
C217	C	0.410582	-0.372598	0.285565
C218	C	0.910582	0.127402	0.785565
H219	H	0.377015	-0.400743	0.261456
H220	H	0.877015	0.099257	0.761456
H221	H	0.440398	-0.344408	0.258371
H222	H	0.940398	0.155592	0.758371
H223	H	0.437937	-0.402078	0.311647
H224	H	0.937937	0.097922	0.811647
H225	H	1.007396	-0.410402	0.915565
H226	H	1.507396	0.089598	1.415565
H227	H	1.095592	-1.023727	0.271999
H228	H	1.595592	-0.523727	0.771999
C229	C	1.008192	-0.428451	0.788222
C230	C	1.508192	0.071549	1.288222
H231	H	1.007781	-0.419408	0.744208
H232	H	1.507781	0.080592	1.244208
H233	H	1.050056	-0.449132	0.801328
H234	H	1.550056	0.050868	1.301328
H235	H	0.968631	-0.459674	0.798616
H236	H	1.468631	0.040326	1.298616
C237	C	1.092718	-0.386287	0.725449
C238	C	1.592718	0.113713	1.225449
H239	H	1.118356	-0.411952	0.698545
H240	H	1.618356	0.088048	1.198545
H241	H	1.124538	-0.358063	0.751123
H242	H	1.624538	0.141937	1.251123
H243	H	1.064476	-0.418093	0.751099
H244	H	1.564476	0.081907	1.251099
H245	H	0.597589	-0.394405	0.266842
H246	H	1.097589	0.105595	0.766842
H247	H	0.932191	-1.030745	0.411307
H248	H	1.432191	-0.530745	0.911307
H249	H	0.943761	-0.810412	0.401317
H250	H	1.443761	-0.310412	0.901317
H251	H	0.924157	-0.217643	1.106903
H252	H	1.424157	0.282357	1.606903
C253	C	1.092713	-0.386291	0.588041
C254	C	1.592713	0.113709	1.088041
H255	H	1.118364	-0.411943	0.618850
H256	H	1.618364	0.088057	1.118850
H257	H	1.064478	-0.418097	0.562637
H258	H	1.564478	0.081903	1.062637
H259	H	1.124534	-0.358062	0.562666
H260	H	1.624534	0.141938	1.062666
H261	H	0.924174	-0.217641	0.584554
H262	H	1.424174	0.282359	1.084554
H263	H	0.924168	-0.217643	0.988190
H264	H	1.424168	0.282357	1.488190
C265	C	0.740848	-0.401098	0.261073
C266	C	1.240848	0.098902	0.761073
H267	H	0.790154	-0.392568	0.268368
H268	H	1.290154	0.107432	0.768368
H269	H	0.726774	-0.448907	0.271443
H270	H	1.226774	0.051093	0.771443
H271	H	0.729237	-0.391229	0.218174
H272	H	1.229237	0.108771	0.718174
C273	C	0.996393	-0.163166	0.777733
C274	C	1.496393	0.336834	1.277733
H275	H	0.994708	-0.125551	0.805103
H276	H	1.494708	0.374449	1.305103
H277	H	1.036987	-0.155263	0.753465
H278	H	1.536987	0.344737	1.253465
H279	H	0.955563	-0.165817	0.750743
H280	H	1.455563	0.334183	1.250743
C281	C	0.256267	-0.379191	0.279951
C282	C	0.756267	0.120809	0.779951
H283	H	0.207517	-0.374857	0.283683
H284	H	0.707517	0.125143	0.783683
H285	H	0.268743	-0.368304	0.237931
H286	H	0.768743	0.131696	0.737931
H287	H	0.266281	-0.425973	0.291207
H288	H	0.766281	0.074027	0.791207
C289	C	0.996392	-0.163164	0.915139
C290	C	1.496392	0.336836	1.415139
H291	H	0.994727	-0.125546	0.884796
H292	H	1.494727	0.374454	1.384796
H293	H	0.955566	-0.165809	0.939203
H294	H	1.455566	0.334191	1.439203
H295	H	1.036991	-0.155269	0.941919
H296	H	1.536991	0.344731	1.441919
H297	H	0.737962	-0.225684	0.411428
H298	H	1.237962	0.274316	0.911428
