data_functionalizedCrystal
_audit_creation_method	'MofGen! by Chris Wilmer'
_symmetry_space_group_name_H-M	'P1'
_symmetry_Int_Tables_number	1
_symmetry_cell_setting	triclinic
loop_
_symmetry_equiv_pos_as_xyz
  x,y,z
_cell_length_a	19.805405
_cell_length_b	19.121224
_cell_length_c	19.805399
_cell_angle_alpha	87.533523
_cell_angle_beta	90.026615
_cell_angle_gamma	87.541003
loop_
_atom_site_label
_atom_site_type_symbol
_atom_site_fract_x
_atom_site_fract_y
_atom_site_fract_z
Zn1	Zn	-0.225464	-1.073743	0.427003
Zn2	Zn	-0.338656	-1.073654	0.313813
Zn3	Zn	-0.230297	-0.956291	0.308984
Zn4	Zn	-0.343433	-0.956253	0.422119
O5	O	-0.284463	-1.014985	0.367980
O6	O	-0.236457	-1.172019	0.416054
O7	O	-0.324306	-1.058065	0.218455
O8	O	-0.134937	-0.971925	0.324663
O9	O	-0.319619	-1.171954	0.332893
O10	O	-0.131386	-1.058217	0.411371
O11	O	-0.244695	-0.971838	0.214907
O12	O	-0.249327	-0.857999	0.319927
O13	O	-0.327760	-0.971859	0.517484
O14	O	-0.332447	-0.857970	0.403046
O15	O	-0.241089	-1.058179	0.521073
O16	O	-0.434008	-1.058027	0.328157
O17	O	-0.437518	-0.971773	0.407728
C18	C	-0.291930	-0.832500	0.360433
C19	C	-0.295141	-0.754431	0.357220
C20	C	-0.460322	-1.014905	0.367952
C21	C	-0.535553	-1.014935	0.367965
C22	C	-0.315469	-0.312891	0.336897
C23	C	-0.312449	-0.386245	0.339910
C24	C	-0.267711	-0.422957	0.384785
C25	C	-0.225987	-0.386313	0.426643
C26	C	-0.229005	-0.312961	0.423626
C27	C	-0.256434	-0.644435	0.396061
C28	C	-0.253421	-0.717792	0.399077
C29	C	-0.339882	-0.717719	0.312343
C30	C	-0.342899	-0.644365	0.309332
C31	C	-0.301172	-0.607727	0.351188
C32	C	-0.264624	-0.497936	0.387867
C33	C	-0.304256	-0.532750	0.348102
C34	C	-0.568991	-1.059841	0.413147
C35	C	-0.639678	-1.059866	0.413161
C36	C	-0.676926	-1.014989	0.367989
C37	C	-0.643483	-0.970079	0.322805
C38	C	-0.572797	-0.970050	0.322795
C39	C	-0.928552	-0.970191	0.322844
C40	C	-0.999243	-0.970225	0.322856
C41	C	-0.995433	-1.060007	0.413210
C42	C	-0.924747	-1.059979	0.413200
C43	C	-0.891310	-1.015066	0.368019
C44	C	-0.814663	-1.015038	0.368006
C45	C	-0.753572	-1.015020	0.367999
C46	C	-0.107916	-1.015085	0.368023
C47	C	-0.032682	-1.015127	0.368042
C48	C	-0.284418	-1.015025	0.544524
C49	C	-0.284399	-1.015042	0.619757
C50	C	-0.276961	-0.198184	0.375549
C51	C	-0.273750	-0.276252	0.378754
C52	C	-0.284456	-1.014987	0.192124
C53	C	-0.284279	-1.015106	0.116897
C54	C	-0.239268	-1.059989	0.656971
C55	C	-0.239248	-1.059997	0.727660
C56	C	-0.284363	-1.015059	0.761133
C57	C	-0.329497	-0.970106	0.723914
C58	C	-0.329513	-0.970096	0.653227
C59	C	-0.329433	-0.970146	1.008989
C60	C	-0.329414	-0.970161	1.079682
C61	C	-0.239167	-1.060047	1.083422
C62	C	-0.239183	-1.060036	1.012735
C63	C	-0.284314	-1.015081	0.975522
C64	C	-0.284334	-1.015073	0.898873
C65	C	-0.284347	-1.015070	0.837781
H66	H	-0.346420	-0.416073	0.305825
H67	H	-0.340679	-0.502855	0.311563
H68	H	-0.379328	-0.614479	0.272790
H69	H	-0.666900	-1.096438	0.449947
H70	H	-0.366258	-0.933488	0.622927
H71	H	-0.366229	-0.933515	0.751174
N72	N	-0.884578	-1.108381	0.461926
H73	H	-0.856427	-1.079803	0.492082
H74	H	-0.853943	-1.140928	0.435743
H75	H	-0.366154	-0.933564	1.106934
H76	H	-0.351903	-0.283005	0.300358
N77	N	-0.216394	-0.537541	0.436283
H78	H	-0.183738	-0.567982	0.410097
H79	H	-0.242766	-0.567933	0.468826
N80	N	-0.384882	-0.757234	0.267197
H81	H	-0.376183	-0.809273	0.275914
H82	H	-0.374806	-0.744391	0.218349
N83	N	-0.177746	-0.425906	0.475056
H84	H	-0.182170	-0.477935	0.470624
H85	H	-0.188889	-0.413093	0.522844
H86	H	-1.029568	-0.933677	0.286071
N87	N	-0.892493	-0.921759	0.274110
H88	H	-0.926817	-0.893340	0.245493
H89	H	-0.861988	-0.950361	0.243990
H90	H	-1.022665	-1.096575	0.450001
H91	H	-0.216986	-0.747682	0.435618
H92	H	-0.195030	-0.283130	0.457708
H93	H	-0.222461	-0.614613	0.430147
N94	N	-0.683654	-0.921676	0.274081
H95	H	-0.733507	-0.928510	0.280940
H96	H	-0.670864	-0.932637	0.226204
H97	H	-0.202447	-1.096632	0.985484
N98	N	-0.536728	-0.921614	0.274066
H99	H	-0.571049	-0.893190	0.245450
H100	H	-0.506221	-0.950211	0.243944
H101	H	-0.538668	-1.096388	0.449928
H102	H	-0.202531	-1.096585	0.629722
N103	N	-0.378086	-0.921638	0.968857
H104	H	-0.406657	-0.893168	1.000790
H105	H	-0.408257	-0.950179	0.940688
N106	N	-0.190557	-1.108462	0.767798
H107	H	-0.161979	-1.136927	0.735866
H108	H	-0.216761	-1.140957	0.798475
H109	H	-0.202417	-1.096649	1.113730
