data_functionalizedCrystal
_audit_creation_method	'MofGen! by Chris Wilmer'
_symmetry_space_group_name_H-M	'P1'
_symmetry_Int_Tables_number	1
_symmetry_cell_setting	triclinic
loop_
_symmetry_equiv_pos_as_xyz
  x,y,z
_cell_length_a	13.032721
_cell_length_b	18.215407
_cell_length_c	18.215399
_cell_angle_alpha	90.018561
_cell_angle_beta	97.154738
_cell_angle_gamma	82.803795
loop_
_atom_site_label
_atom_site_type_symbol
_atom_site_fract_x
_atom_site_fract_y
_atom_site_fract_z
Zn1	Zn	-0.416276	-1.087860	-0.453317
Zn2	Zn	-0.591036	-1.072146	-0.345879
Zn3	Zn	-0.416284	-0.964792	-0.330268
Zn4	Zn	-0.590951	-0.949144	-0.468899
O5	O	-0.503637	-1.018485	-0.399591
O6	O	-0.439491	-1.188757	-0.439077
O7	O	-0.567893	-1.057878	-0.240827
O8	O	-0.270046	-0.994242	-0.333536
O9	O	-0.567886	-1.177212	-0.360143
O10	O	-0.270040	-1.084660	-0.423940
O11	O	-0.439503	-0.979005	-0.229358
O12	O	-0.439421	-0.859735	-0.348645
O13	O	-0.567741	-0.967572	-0.569813
O14	O	-0.567749	-0.848238	-0.450497
O15	O	-0.439408	-1.069486	-0.558365
O16	O	-0.737261	-1.042704	-0.375252
O17	O	-0.737199	-0.952335	-0.465635
C18	C	-0.503577	-0.827284	-0.399569
C19	C	-0.503577	-0.745485	-0.399579
C20	C	-0.775148	-0.994136	-0.423845
C21	C	-0.891301	-0.983787	-0.434245
C22	C	-0.436873	-0.486420	-0.440768
C23	C	-0.436861	-0.563280	-0.440766
C24	C	-0.570365	-0.551295	-0.358413
C25	C	-0.570382	-0.474436	-0.358420
C26	C	-0.503629	-0.442001	-0.399596
C27	C	-0.503602	-0.595720	-0.399587
C28	C	-0.503590	-0.679054	-0.399584
C29	C	-0.503643	-0.358661	-0.399600
C30	C	-0.943082	-1.023926	-0.394196
C31	C	-1.063133	-1.013230	-0.404944
C32	C	-0.231065	-1.042949	-0.375259
C33	C	-0.114912	-1.053374	-0.364890
C34	C	-0.503565	-1.018536	-0.591537
C35	C	-0.503534	-1.018558	-0.673334
C36	C	-0.503680	-0.210434	-0.399609
C37	C	-0.503654	-0.292235	-0.399604
C38	C	-0.436648	-1.071648	-0.855562
C39	C	-0.436618	-1.071659	-0.932418
C40	C	-0.570258	-0.965536	-0.944328
C41	C	-0.570282	-0.965521	-0.867473
C42	C	-0.503479	-1.018582	-0.823092
C43	C	-0.503424	-1.018607	-0.976804
C44	C	-0.503392	-1.018619	-1.060134
C45	C	-0.503510	-1.018569	-0.739756
C46	C	-0.503633	-1.018483	-0.208384
C47	C	-0.503369	-1.018630	-0.126562
H48	H	-0.382519	-0.460014	-0.474296
H49	H	-0.382250	-1.114851	-0.819429
H50	H	-0.624749	-0.438268	-0.324893
H51	H	-0.898540	-1.066211	-0.351953
H52	H	-0.624703	-0.922303	-0.841036
H53	H	-0.624649	-0.922337	-0.980473
H54	H	-0.382502	-0.599443	-0.474293
C55	C	-1.123303	-0.956103	-0.462019
N56	N	-1.168624	-0.913075	-0.505005
H57	H	-0.624711	-0.577713	-0.324888
C58	C	-1.054744	-1.110501	-0.307814
N59	N	-1.009425	-1.153527	-0.264824
H60	H	-0.382196	-1.114870	-0.958851
H61	H	-0.935847	-0.941508	-0.476493
