data_functionalizedCrystal
_audit_creation_method	'MofGen! by Chris Wilmer'
_symmetry_space_group_name_H-M	'P1'
_symmetry_Int_Tables_number	1
_symmetry_cell_setting	triclinic
loop_
_symmetry_equiv_pos_as_xyz
  x,y,z
_cell_length_a	25.639242
_cell_length_b	29.839132
_cell_length_c	29.839126
_cell_angle_alpha	89.973634
_cell_angle_beta	90.028678
_cell_angle_gamma	89.959210
loop_
_atom_site_label
_atom_site_type_symbol
_atom_site_fract_x
_atom_site_fract_y
_atom_site_fract_z
Zn1	Zn	0.799235	0.178941	0.254107
Zn2	Zn	1.299235	0.678941	0.754107
Zn3	Zn	0.799138	0.254062	0.178974
Zn4	Zn	1.299138	0.754062	0.678974
Zn5	Zn	0.711801	0.178941	0.178977
Zn6	Zn	1.211801	0.678941	0.678977
Zn7	Zn	0.711746	0.254039	0.254063
Zn8	Zn	1.211746	0.754039	0.754063
O9	O	0.755480	0.216496	0.216530
O10	O	1.255480	0.716496	0.716530
O11	O	0.872387	0.188916	0.244157
O12	O	1.372387	0.688916	0.744157
O13	O	0.787535	0.244106	0.116107
O14	O	1.287535	0.744106	0.616107
O15	O	0.723463	0.116074	0.188963
O16	O	1.223463	0.616074	0.688963
O17	O	0.872316	0.244107	0.188957
O18	O	1.372316	0.744107	0.688957
O19	O	0.787700	0.116074	0.244160
O20	O	1.287700	0.616074	0.744160
O21	O	0.723369	0.188915	0.116110
O22	O	1.223369	0.688915	0.616110
O23	O	0.638629	0.188893	0.188921
O24	O	1.138629	0.688893	0.688921
O25	O	0.723369	0.244068	0.316936
O26	O	1.223369	0.744068	0.816936
O27	O	0.638588	0.244067	0.244086
O28	O	1.138588	0.744067	0.744086
O29	O	0.787647	0.188894	0.316968
O30	O	1.287647	0.688894	0.816968
O31	O	0.787482	0.316926	0.188915
O32	O	1.287482	0.816926	0.688915
O33	O	0.723275	0.316909	0.244083
O34	O	1.223275	0.816909	0.744083
C35	C	0.619638	0.216478	0.216500
C36	C	1.119638	0.716478	0.716500
C37	C	0.561523	0.216481	0.216497
C38	C	1.061523	0.716481	0.716497
C39	C	0.755377	0.333218	0.216503
C40	C	1.255377	0.833218	0.716503
C41	C	0.755380	0.383153	0.216507
C42	C	1.255380	0.883153	0.716507
C43	C	0.201148	0.245273	0.245228
C44	C	0.701148	0.745273	0.745228
C45	C	0.146544	0.245276	0.245235
C46	C	0.646544	0.745276	0.745235
O47	O	0.118297	0.269734	0.269636
O48	O	0.618297	0.769734	0.769636
N49	N	0.119241	0.216508	0.216560
N50	N	0.619241	0.716508	0.716560
C51	C	0.146545	0.187733	0.187879
C52	C	0.646545	0.687733	0.687879
O53	O	0.118308	0.163263	0.163489
O54	O	0.618308	0.663263	0.663489
C55	C	0.201149	0.187728	0.187874
C56	C	0.701149	0.687728	0.687874
C57	C	0.228449	0.216501	0.216548
C58	C	0.728449	0.716501	0.716548
C59	C	0.228448	0.274043	0.273899
C60	C	0.728448	0.774043	0.773899
C61	C	0.283049	0.274041	0.273892
C62	C	0.783049	0.774041	0.773892
C63	C	0.310349	0.245269	0.245212
C64	C	0.810349	0.745269	0.745212
C65	C	0.283049	0.216498	0.216540
C66	C	0.783049	0.716498	0.716540
C67	C	0.228452	0.158950	0.159196
C68	C	0.728452	0.658950	0.659196
C69	C	0.283059	0.158948	0.159194
C70	C	0.783059	0.658948	0.659194
C71	C	0.310359	0.187721	0.187868
C72	C	0.810359	0.687721	0.687868
C73	C	0.364950	0.187724	0.187853
C74	C	0.864950	0.687724	0.687853
N75	N	0.392253	0.216492	0.216528
N76	N	0.892253	0.716492	0.716528
C77	C	0.364953	0.245264	0.245207
C78	C	0.864953	0.745264	0.745207
C79	C	0.031875	0.187744	0.187891
C80	C	0.531875	0.687744	0.687891
C81	C	-0.022728	0.187751	0.187893
C82	C	0.477272	0.687751	0.687893
C83	C	-0.022725	0.245293	0.245249
C84	C	0.477275	0.745293	0.745249
C85	C	0.031878	0.245289	0.245245
C86	C	0.531878	0.745289	0.745245
C87	C	0.059178	0.216512	0.216566
C88	C	0.559178	0.716512	0.716566
C89	C	0.479618	0.245257	0.245189
C90	C	0.979618	0.745257	0.745189
C91	C	0.534223	0.245254	0.245177
C92	C	1.034223	0.745254	0.745177
C93	C	0.534216	0.187709	0.187822
C94	C	1.034216	0.687709	0.687822
C95	C	0.479615	0.187714	0.187832
C96	C	0.979615	0.687714	0.687832
C97	C	0.452318	0.216490	0.216519
C98	C	0.952318	0.716490	0.716519
O99	O	0.393232	0.163277	0.163465
O100	O	0.893232	0.663277	0.663465
O101	O	0.393197	0.269725	0.269597
O102	O	0.893197	0.769725	0.769597
C103	C	0.788936	0.692792	0.187828
C104	C	1.288936	1.192792	0.687828
C105	C	0.788986	0.880465	0.187838
C106	C	1.288986	1.380465	0.687838
O107	O	0.817460	0.904727	0.163446
O108	O	1.317460	1.404727	0.663446
N109	N	0.755535	0.903938	0.216538
N110	N	1.255535	1.403938	0.716538
C111	C	0.722071	0.880489	0.245239
C112	C	1.222071	1.380489	0.745239
O113	O	0.693624	0.904760	0.269653
O114	O	1.193624	1.404760	0.769653
C115	C	0.722024	0.692817	0.245230
C116	C	1.222024	1.192817	0.745230
C117	C	0.755474	0.669347	0.216526
C118	C	1.255474	1.169347	0.716526
C119	C	0.822383	0.669322	0.159126
C120	C	1.322383	1.169322	0.659126
C121	C	0.822369	0.622407	0.159122
C122	C	1.322369	1.122407	0.659122
C123	C	0.788906	0.598961	0.187820
C124	C	1.288906	1.098961	0.687820
C125	C	0.755459	0.622431	0.216522
C126	C	1.255459	1.122431	0.716522
C127	C	0.688564	0.669369	0.273934
C128	C	1.188564	1.169369	0.773934
C129	C	0.688556	0.622448	0.273930
C130	C	1.188556	1.122448	0.773930
C131	C	0.722006	0.598978	0.245225
C132	C	1.222006	1.098978	0.745225
C133	C	0.721982	0.552071	0.245216
C134	C	1.221982	1.052071	0.745216
N135	N	0.755433	0.528598	0.216516
N136	N	1.255433	1.028598	0.716516
C137	C	0.788895	0.552043	0.187818
C138	C	1.288895	1.052043	0.687818
C139	C	0.722097	0.979020	0.245240
C140	C	1.222097	1.479020	0.745240
C141	C	0.722108	1.025938	0.245242
C142	C	1.222108	1.525938	0.745242
C143	C	0.789024	1.025910	0.187842
C144	C	1.289024	1.525910	0.687842
C145	C	0.789010	0.978992	0.187838
C146	C	1.289010	1.478992	0.687838
C147	C	0.755549	0.955547	0.216541
C148	C	1.255549	1.455547	0.716541
C149	C	0.788862	0.453518	0.187812
C150	C	1.288862	0.953518	0.687812
C151	C	0.788842	0.406598	0.187809
C152	C	1.288842	0.906598	0.687809
C153	C	0.721929	0.406629	0.245211
C154	C	1.221929	0.906629	0.745211
C155	C	0.721946	0.453545	0.245212
C156	C	1.221946	0.953545	0.745212
C157	C	0.755417	0.476988	0.216511
C158	C	1.255417	0.976988	0.716511
O159	O	0.693527	0.527780	0.269599
O160	O	1.193527	1.027780	0.769599
O161	O	0.817347	0.527764	0.163415
O162	O	1.317347	1.027764	0.663415
C163	C	0.788951	0.739708	0.187832
C164	C	1.288951	1.239708	0.687832
C165	C	0.755504	0.763178	0.216534
C166	C	1.255504	1.263178	0.716534
C167	C	0.722042	0.739733	0.245232
C168	C	1.222042	1.239733	0.745232
C169	C	0.755515	0.810096	0.216535
C170	C	1.255515	1.310096	0.716535
C171	C	0.788977	0.833541	0.187837
C172	C	1.288977	1.333541	0.687837
C173	C	0.822428	0.810068	0.159138
C174	C	1.322428	1.310068	0.659138
C175	C	0.822413	0.763153	0.159134
C176	C	1.322413	1.263153	0.659134
C177	C	0.688590	0.763205	0.273931
C178	C	1.188590	1.263205	0.773931
C179	C	0.688608	0.810121	0.273933
C180	C	1.188608	1.310121	0.773933
C181	C	0.722070	0.833566	0.245235
C182	C	1.222070	1.333566	0.745235
C183	C	0.891853	0.216514	0.216561
C184	C	1.391853	0.716514	0.716561
C185	C	0.949967	0.216522	0.216574
C186	C	1.449967	0.716522	0.716574
C187	C	0.755512	0.216479	0.333709
C188	C	1.255512	0.716479	0.833709
C189	C	0.755526	0.216471	0.383643
C190	C	1.255526	0.716471	0.883643
C191	C	0.755579	1.099317	0.216557
C192	C	1.255579	1.599317	0.716557
C193	C	0.755571	1.049383	0.216544
C194	C	1.255571	1.549383	0.716544
C195	C	0.755478	0.216481	0.099808
C196	C	1.255478	0.716481	0.599808
C197	C	0.755565	0.216361	0.049874
C198	C	1.255565	0.716361	0.549874
C199	C	0.722125	0.187688	0.693291
C200	C	1.222125	0.687688	1.193291
C201	C	0.722140	0.187657	0.880964
C202	C	1.222140	0.687657	1.380964
O203	O	0.693715	0.163230	0.905233
O204	O	1.193715	0.663230	1.405233
N205	N	0.755551	0.216387	0.904428
N206	N	1.255551	0.716387	1.404428
C207	C	0.788958	0.245129	0.880972
C208	C	1.288958	0.745129	1.380972
O209	O	0.817373	0.269568	0.905236
O210	O	1.317373	0.769568	1.405236
C211	C	0.788940	0.245162	0.693299
C212	C	1.288940	0.745162	1.193299
C213	C	0.755531	0.216427	0.669837
C214	C	1.255531	0.716427	1.169837
C215	C	0.688718	0.158956	0.669829
C216	C	1.188718	0.658956	1.169829
C217	C	0.688717	0.158962	0.622914
C218	C	1.188717	0.658962	1.122914
C219	C	0.722123	0.187701	0.599460
C220	C	1.222123	0.687701	1.099460
C221	C	0.755530	0.216433	0.622922
C222	C	1.255530	0.716433	1.122922
C223	C	0.822344	0.273906	0.669843
C224	C	1.322344	0.773906	1.169843
C225	C	0.822336	0.273912	0.622922
C226	C	1.322336	0.773912	1.122922
C227	C	0.788927	0.245177	0.599460
C228	C	1.288927	0.745177	1.099460
C229	C	0.788934	0.245178	0.552553
C230	C	1.288934	0.745178	1.052553
N231	N	0.755523	0.216448	0.529089
N232	N	1.255523	0.716448	1.029089
C233	C	0.722117	0.187710	0.552542
C234	C	1.222117	0.687710	1.052542
C235	C	0.788966	0.245109	0.979502
C236	C	1.288966	0.745109	1.479502
C237	C	0.788971	0.245100	1.026420
C238	C	1.288971	0.745100	1.526420
C239	C	0.722152	0.187629	1.026409
C240	C	1.222152	0.687629	1.526409
C241	C	0.722150	0.187636	0.979491
C242	C	1.222150	0.687636	1.479491
C243	C	0.755555	0.216379	0.956038
C244	C	1.255555	0.716379	1.456038
C245	C	0.722117	0.187725	0.454016
C246	C	1.222117	0.687725	0.954016
C247	C	0.722121	0.187733	0.407097
C248	C	1.222121	0.687733	0.907097
C249	C	0.788937	0.245205	0.407111
C250	C	1.288937	0.745205	0.907111
C251	C	0.788936	0.245196	0.454027
C252	C	1.288936	0.745196	0.954027
C253	C	0.755522	0.216455	0.477478
C254	C	1.255522	0.716455	0.977478
O255	O	0.817340	0.269596	0.528255
O256	O	1.317340	0.769596	1.028255
O257	O	0.693699	0.163281	0.528270
O258	O	1.193699	0.663281	1.028270
C259	C	0.722127	0.187682	0.740206
C260	C	1.222127	0.687682	1.240206
C261	C	0.755534	0.216414	0.763668
C262	C	1.255534	0.716414	1.263668
C263	C	0.788939	0.245153	0.740215
C264	C	1.288939	0.745153	1.240215
C265	C	0.755539	0.216405	0.810586
C266	C	1.255539	0.716405	1.310586
C267	C	0.722133	0.187667	0.834040
C268	C	1.222133	0.687667	1.334040
C269	C	0.688722	0.158937	0.810575
C270	C	1.188722	0.658937	1.310575
C271	C	0.688721	0.158943	0.763660
C272	C	1.188721	0.658943	1.263660
C273	C	0.822350	0.273883	0.763679
C274	C	1.322350	0.773883	1.263679
C275	C	0.822349	0.273874	0.810595
C276	C	1.322349	0.773874	1.310595
C277	C	0.788944	0.245135	0.834048
C278	C	1.288944	0.745135	1.334048
H279	H	0.556448	0.268686	0.268527
H280	H	1.056448	0.768686	0.768527
C281	C	0.449598	0.276896	0.276757
C282	C	0.949598	0.776896	0.776757
H283	H	0.473683	0.294025	0.293832
H284	H	0.973683	0.794025	0.793832
H285	H	0.428334	0.259728	0.296364
H286	H	0.928334	0.759728	0.796364
H287	H	0.428262	0.296456	0.259551
H288	H	0.928262	0.796456	0.759551
H289	H	0.694909	0.164320	0.473105
H290	H	1.194909	0.664320	0.973105
C291	C	-0.052752	0.156103	0.156349
C292	C	0.447248	0.656103	0.656349
H293	H	-0.028668	0.138967	0.139271
H294	H	0.471332	0.638967	0.639271
H295	H	-0.074082	0.173259	0.136744
H296	H	0.425918	0.673259	0.636744
H297	H	-0.074023	0.136551	0.173576
H298	H	0.425977	0.636551	0.673576
H299	H	0.816182	0.268494	1.045519
H300	H	1.316182	0.768494	1.545519
H301	H	0.305272	0.297470	0.297242
H302	H	0.805272	0.797470	0.797242
H303	H	0.694866	1.045043	0.268612
H304	H	1.194866	1.545043	0.768612
C305	C	0.564253	0.156060	0.156279
C306	C	1.064253	0.656060	0.656279
H307	H	0.600682	0.160178	0.160388
H308	H	1.100682	0.660178	0.660388
H309	H	0.555282	0.162587	0.126081
H310	H	1.055282	0.662587	0.626081
H311	H	0.555333	0.125884	0.162918
H312	H	1.055333	0.625884	0.662918
C313	C	0.859192	0.695105	0.127553
C314	C	1.359192	1.195105	0.627553
H315	H	0.879104	0.674401	0.110459
H316	H	1.379104	1.174401	0.610459
H317	H	0.881970	0.713383	0.144753
H318	H	1.381970	1.213383	0.644753
H319	H	0.839205	0.713429	0.107957
H320	H	1.339205	1.213429	0.607957
C321	C	0.825678	0.276817	0.381307
C322	C	1.325678	0.776817	0.881307
H323	H	0.820885	0.272707	0.350004
H324	H	1.320885	0.772707	0.850004
H325	H	0.860817	0.270252	0.389007
H326	H	1.360817	0.770252	0.889007
H327	H	0.817989	0.307001	0.388983
H328	H	1.317989	0.807001	0.888983
C329	C	0.198426	0.305696	0.305449
C330	C	0.698426	0.805696	0.805449
H331	H	0.222513	0.322829	0.322519
H332	H	0.722513	0.822829	0.822519
H333	H	0.177150	0.288546	0.325061
H334	H	0.677150	0.788546	0.825061
H335	H	0.177102	0.325253	0.288227
H336	H	0.677102	0.825253	0.788227
H337	H	0.849651	0.744047	0.135760
H338	H	1.349651	1.244047	0.635760
H339	H	-0.044963	0.268720	0.268603
H340	H	0.455037	0.768720	0.768603
C341	C	0.825641	0.380783	0.156235
C342	C	1.325641	0.880783	0.656235
H343	H	0.845575	0.401469	0.139148
H344	H	1.345575	0.901469	0.639148
H345	H	0.805651	0.362507	0.136639
H346	H	1.305651	0.862507	0.636639
H347	H	0.848407	0.362454	0.173443
H348	H	1.348407	0.862454	0.673443
C349	C	0.859102	0.305485	0.836398
C350	C	1.359102	0.805485	1.336398
H351	H	0.878991	0.322603	0.815706
H352	H	1.378991	0.822603	1.315706
H353	H	0.881904	0.288306	0.854717
H354	H	1.381904	0.788306	1.354717
H355	H	0.839076	0.325056	0.854683
H356	H	1.339076	0.825056	1.354683
H357	H	0.054102	0.268718	0.268594
H358	H	0.554102	0.768718	0.768594
H359	H	0.816169	0.268517	0.960411
H360	H	1.316169	0.768517	1.460411
C361	C	0.061899	0.156093	0.156337
C362	C	0.561899	0.656093	0.656337
H363	H	0.037815	0.138965	0.139259
H364	H	0.537815	0.638965	0.639259
H365	H	0.083227	0.136538	0.173552
H366	H	0.583227	0.636538	0.673552
H367	H	0.083172	0.173251	0.136725
H368	H	0.583172	0.673251	0.636725
C369	C	0.198433	0.127296	0.127658
C370	C	0.698433	0.627296	0.627658
H371	H	0.222520	0.110158	0.110584
H372	H	0.722520	0.610158	0.610584
H373	H	0.177103	0.144447	0.108049
H374	H	0.677103	0.644447	0.608049
H375	H	0.177163	0.107745	0.144887
H376	H	0.677163	0.607745	0.644887
C377	C	0.313085	0.127292	0.127647
C378	C	0.813085	0.627292	0.627647
H379	H	0.289002	0.110161	0.110571
H380	H	0.789002	0.610161	0.610571
H381	H	0.334414	0.107741	0.144866
H382	H	0.834414	0.607741	0.644866
H383	H	0.334357	0.144449	0.108033
H384	H	0.834357	0.644449	0.608033
C385	C	0.859103	0.305493	0.737886
C386	C	1.359103	0.805493	1.237886
H387	H	0.879002	0.322598	0.758584
H388	H	1.379002	0.822598	1.258584
H389	H	0.839089	0.325071	0.719567
H390	H	1.339089	0.825071	1.219567
H391	H	0.881903	0.288309	0.719602
H392	H	1.381903	0.788309	1.219602
H393	H	0.661510	0.135565	0.603815
H394	H	1.161510	0.635565	1.103815
H395	H	0.694953	0.164228	1.045513
H396	H	1.194953	0.664228	1.545513
H397	H	0.816118	0.472599	0.164442
H398	H	1.316118	0.972599	0.664442
H399	H	0.457386	0.164286	0.164483
H400	H	0.957386	0.664286	0.664483
H401	H	0.694710	0.472655	0.268587
H402	H	1.194710	0.972655	0.768587
H403	H	0.661308	0.603362	0.297304
H404	H	1.161308	1.103362	0.797304
H405	H	0.849607	0.603300	0.135749
H406	H	1.349607	1.103300	0.635749
C407	C	0.859083	0.305530	0.597127
C408	C	1.359083	0.805530	1.097127
H409	H	0.878981	0.322638	0.617822
H410	H	1.378981	0.822638	1.117822
H411	H	0.839062	0.325104	0.578810
H412	H	1.339062	0.825104	1.078810
H413	H	0.881885	0.288350	0.578839
H414	H	1.381885	0.788350	1.078839
H415	H	0.849550	0.297305	0.688938
H416	H	1.349550	0.797305	1.188938
H417	H	0.816248	0.959885	0.164465
H418	H	1.316248	1.459885	0.664465
C419	C	0.685128	0.380836	0.276781
C420	C	1.185128	0.880836	0.776781
H421	H	0.665206	0.401531	0.293877
H422	H	1.165206	0.901531	0.793877
H423	H	0.705118	0.362508	0.296368
H424	H	1.205118	0.862508	0.796368
H425	H	0.662350	0.362559	0.259575
H426	H	1.162350	0.862559	0.759575
C427	C	0.651966	0.127339	0.737858
C428	C	1.151966	0.627339	1.237858
H429	H	0.632070	0.110228	0.758551
H430	H	1.132070	0.610228	1.258551
H431	H	0.671979	0.107767	0.719567
H432	H	1.171979	0.607767	1.219567
H433	H	0.629162	0.144527	0.719544
H434	H	1.129162	0.644527	1.219544
H435	H	0.816270	1.045007	0.164475
H436	H	1.316270	1.545007	0.664475
C437	C	0.685393	0.156034	0.953687
C438	C	1.185393	0.656034	1.453687
H439	H	0.665497	0.138921	0.974379
H440	H	1.165497	0.638921	1.474379
H441	H	0.705404	0.136464	0.935393
H442	H	1.205404	0.636464	1.435393
H443	H	0.662590	0.173225	0.935375
H444	H	1.162590	0.673225	1.435375
H445	H	0.694848	0.959935	0.268614
H446	H	1.194848	1.459935	0.768614
C447	C	0.651772	0.695176	0.305512
C448	C	1.151772	1.195176	0.805512
H449	H	0.631851	0.674487	0.322605
H450	H	1.131851	1.174487	0.822605
H451	H	0.629003	0.713508	0.288315
H452	H	1.129003	1.213508	0.788315
H453	H	0.671770	0.713450	0.325109
H454	H	1.171770	1.213450	0.825109
H455	H	0.849672	0.829166	0.135770
H456	H	1.349672	1.329166	0.635770
C457	C	0.651811	0.835933	0.305511
C458	C	1.151811	1.335933	0.805511
H459	H	0.631886	0.815246	0.322603
H460	H	1.131886	1.315246	0.822603
H461	H	0.629045	0.854267	0.288312
H462	H	1.129045	1.354267	0.788312
H463	H	0.671810	0.854205	0.325108
H464	H	1.171810	1.354205	0.825108
H465	H	0.816147	0.268590	0.473131
H466	H	1.316147	0.768590	0.973131
C467	C	0.651972	0.127330	0.836380
C468	C	1.151972	0.627330	1.336380
H469	H	0.656757	0.131448	0.867682
H470	H	1.156757	0.631448	1.367682
H471	H	0.659645	0.097144	0.828709
H472	H	1.159645	0.597144	1.328709
H473	H	0.616834	0.133909	0.828676
H474	H	1.116834	0.633909	1.328676
C475	C	0.685365	0.156126	0.381291
C476	C	1.185365	0.656126	0.881291
H477	H	0.665467	0.139014	0.401982
H478	H	1.165467	0.639014	0.901982
H479	H	0.705380	0.136555	0.363001
H480	H	1.205380	0.636555	0.863001
H481	H	0.662564	0.173315	0.362976
H482	H	1.162564	0.673315	0.862976
H483	H	0.661513	0.135553	0.688920
H484	H	1.161513	0.635553	1.188920
H485	H	0.661342	0.744120	0.297301
H486	H	1.161342	1.244120	0.797301
