data_functionalizedCrystal
_audit_creation_method	'MofGen! by Chris Wilmer'
_symmetry_space_group_name_H-M	'P1'
_symmetry_Int_Tables_number	1
_symmetry_cell_setting	triclinic
loop_
_symmetry_equiv_pos_as_xyz
  x,y,z
_cell_length_a	21.395364
_cell_length_b	19.805405
_cell_length_c	19.805398
_cell_angle_alpha	89.975049
_cell_angle_beta	89.985076
_cell_angle_gamma	90.041677
loop_
_atom_site_label
_atom_site_type_symbol
_atom_site_fract_x
_atom_site_fract_y
_atom_site_fract_z
Zn1	Zn	0.957817	-0.269220	-0.382707
Zn2	Zn	0.957744	-0.382405	-0.269521
Zn3	Zn	0.853050	-0.269265	-0.269534
Zn4	Zn	0.853008	-0.382402	-0.382670
O5	O	0.905405	-0.325823	-0.326108
O6	O	1.045485	-0.284217	-0.367703
O7	O	0.943843	-0.367417	-0.174806
O8	O	0.866995	-0.174542	-0.284568
O9	O	1.045432	-0.367373	-0.284546
O10	O	0.943967	-0.174509	-0.367716
O11	O	0.866924	-0.284293	-0.174815
O12	O	0.765366	-0.284290	-0.284531
O13	O	0.866925	-0.367368	-0.477391
O14	O	0.765336	-0.367412	-0.367651
O15	O	0.943927	-0.284214	-0.477419
O16	O	0.943803	-0.477121	-0.284509
O17	O	0.866854	-0.477119	-0.367639
C18	C	0.742617	-0.325856	-0.326089
C19	C	0.672976	-0.325886	-0.326097
C20	C	0.905333	-0.501679	-0.326083
C21	C	0.905360	-0.576911	-0.326096
C22	C	0.640313	-0.282658	-0.369464
C23	C	0.574878	-0.282640	-0.369466
C24	C	0.542108	-0.325862	-0.326109
C25	C	0.574779	-0.369094	-0.282734
C26	C	0.640213	-0.369106	-0.282727
C27	C	0.438388	-0.386817	-0.320669
C28	C	0.372955	-0.386807	-0.320679
C29	C	0.340287	-0.325825	-0.326124
C30	C	0.373060	-0.264853	-0.331572
C31	C	0.438494	-0.264864	-0.331566
C32	C	0.471155	-0.325854	-0.326111
C33	C	0.236671	-0.282573	-0.369496
C34	C	0.171235	-0.282554	-0.369494
C35	C	0.171137	-0.369015	-0.282765
C36	C	0.236572	-0.369028	-0.282764
C37	C	0.269336	-0.325808	-0.326133
C38	C	0.945416	-0.612180	-0.369425
C39	C	0.945439	-0.682868	-0.369437
C40	C	0.905408	-0.718287	-0.326117
C41	C	0.865348	-0.683013	-0.282786
C42	C	0.865323	-0.612326	-0.282777
C43	C	0.865449	-0.968086	-0.282820
C44	C	0.865478	-1.038778	-0.282831
C45	C	0.945565	-1.038629	-0.369481
C46	C	0.945539	-0.967941	-0.369472
C47	C	0.905477	-0.932674	-0.326144
C48	C	0.905452	-0.856025	-0.326132
C49	C	0.905436	-0.794934	-0.326125
C50	C	1.068828	-0.325790	-0.326127
C51	C	1.138469	-0.325777	-0.326136
C52	C	0.905429	-0.325785	-0.502651
C53	C	0.905440	-0.325769	-0.577883
C54	C	0.905494	-0.149280	-0.326147
C55	C	0.905531	-0.074048	-0.326164
C56	C	0.945611	-0.282351	-1.039689
C57	C	0.945601	-0.282372	-0.969001
C58	C	0.905504	-0.325675	-0.933645
C59	C	0.865419	-0.368966	-0.968980
C60	C	0.865433	-0.368948	-1.039668
C61	C	0.865365	-0.369039	-0.683907
C62	C	0.865353	-0.369052	-0.613215
C63	C	0.945533	-0.282463	-0.613240
C64	C	0.945546	-0.282445	-0.683928
C65	C	0.905464	-0.325738	-0.719257
C66	C	0.905476	-0.325716	-0.795906
C67	C	0.905489	-0.325694	-0.856997
C68	C	0.905416	-0.325811	-0.150252
C69	C	0.905527	-0.325637	-0.075020
H70	H	0.666985	-0.247464	-0.404778
H71	H	0.666807	-0.404309	-0.247412
H72	H	0.548278	-0.247434	-0.404780
H73	H	0.346463	-0.215195	-0.336006
H74	H	0.978195	-0.247181	-0.712711
C75	C	0.989631	-0.234846	-0.574376
C76	C	0.962500	-0.181726	-0.525786
C77	C	1.006595	-0.134108	-0.486923
C78	C	1.077821	-0.139610	-0.496651
C79	C	1.104956	-0.192732	-0.545244
C80	C	1.060861	-0.240350	-0.584106
H81	H	0.909771	-0.177650	-0.518582
H82	H	0.986508	-0.094783	-0.450952
H83	H	1.110463	-0.104361	-0.467883
H84	H	1.157685	-0.196808	-0.552447
H85	H	1.080948	-0.279675	-0.620078
C86	C	0.821438	-1.077740	-0.235180
C87	C	0.826584	-1.068059	-0.158237
C88	C	0.782547	-1.107021	-0.110589
C89	C	0.733364	-1.155664	-0.139882
C90	C	0.728215	-1.165347	-0.216829
C91	C	0.772253	-1.126385	-0.264477
H92	H	0.862994	-1.032049	-0.136549
H93	H	0.786358	-1.099853	-0.053628
H94	H	0.700765	-1.184506	-0.104610
H95	H	0.691805	-1.201358	-0.238517
H96	H	0.768441	-1.133554	-0.321438
C97	C	0.989718	-0.234716	-1.078578
C98	C	0.989735	-0.234691	-1.156331
C99	C	1.033846	-0.187055	-1.195218
C100	C	1.077939	-0.139445	-1.156351
C101	C	1.077924	-0.139468	-1.078594
C102	C	1.033813	-0.187104	-1.039707
H103	H	0.957093	-0.269936	-1.185107
H104	H	1.033857	-0.187039	-1.252779
H105	H	1.110593	-0.104183	-1.185137
H106	H	1.110566	-0.104223	-1.049818
H107	H	1.033802	-0.187121	-0.982146
H108	H	0.832697	-0.404315	-0.584430
C109	C	0.821245	-0.416627	-0.722764
C110	C	0.777118	-0.464233	-0.683871
C111	C	0.732983	-0.511809	-0.722731
C112	C	0.732975	-0.511779	-0.800484
C113	C	0.777103	-0.464170	-0.839381
C114	C	0.821238	-0.416594	-0.800521
H115	H	0.777123	-0.464258	-0.626309
H116	H	0.700316	-0.547052	-0.693936
H117	H	0.700303	-0.546997	-0.829250
H118	H	0.777098	-0.464146	-0.896943
H119	H	0.853905	-0.381351	-0.829316
H120	H	0.263349	-0.247377	-0.404806
H121	H	0.978183	-1.067352	-0.404763
H122	H	0.144642	-0.247348	-0.404808
C123	C	0.538735	-0.416641	-0.235040
C124	C	0.547673	-0.493595	-0.240423
C125	C	0.511631	-0.541141	-0.192725
C126	C	0.466651	-0.511733	-0.139644
C127	C	0.457711	-0.434775	-0.134260
C128	C	0.493753	-0.387229	-0.181958
H129	H	0.580972	-0.515368	-0.279718
H130	H	0.518249	-0.598111	-0.196711
H131	H	0.439970	-0.546930	-0.104335
H132	H	0.424412	-0.413002	-0.094964
H133	H	0.487135	-0.330259	-0.177971
H134	H	0.263167	-0.404232	-0.247452
C135	C	0.135100	-0.416561	-0.235069
C136	C	0.090124	-0.387151	-0.181984
C137	C	0.054084	-0.434696	-0.134283
C138	C	0.063019	-0.511650	-0.139667
C139	C	0.107996	-0.541064	-0.192753
C140	C	0.144037	-0.493519	-0.240454
H141	H	0.083508	-0.330181	-0.177997
H142	H	0.020789	-0.412922	-0.094985
H143	H	0.036340	-0.546846	-0.104356
H144	H	0.114612	-0.598034	-0.196741
H145	H	0.177332	-0.515293	-0.279752
C146	C	0.821262	-0.573527	-0.235113
C147	C	0.777230	-0.612483	-0.187459
C148	C	0.733166	-0.573685	-0.139795
C149	C	0.733134	-0.495932	-0.139786
C150	C	0.777168	-0.456972	-0.187442
C151	C	0.821232	-0.495770	-0.235105
H152	H	0.777253	-0.670044	-0.187464
H153	H	0.700569	-0.602526	-0.104517
H154	H	0.700515	-0.467212	-0.104503
H155	H	0.777145	-0.399411	-0.187436
H156	H	0.853828	-0.466929	-0.270383
H157	H	0.346277	-0.436454	-0.316247
H158	H	0.465175	-0.215218	-0.336000
H159	H	0.464981	-0.436480	-0.316234
H160	H	0.978016	-0.583347	-0.404698
H161	H	0.978061	-0.711581	-0.404715
C162	C	0.989570	-0.928982	-0.417128
C163	C	1.033628	-0.967776	-0.464796
C164	C	1.077657	-0.928818	-0.512456
C165	C	1.077628	-0.851065	-0.512449
C166	C	1.033569	-0.812266	-0.464780
C167	C	0.989540	-0.851224	-0.417119
H168	H	1.033650	-1.025338	-0.464803
H169	H	1.110272	-0.957540	-0.547744
H170	H	1.110221	-0.822225	-0.547730
H171	H	1.033547	-0.754705	-0.464773
H172	H	0.956925	-0.822502	-0.381831
H173	H	0.832775	-0.404227	-0.940188
H174	H	0.832830	-0.939377	-0.247540
H175	H	0.978242	-0.247126	-0.940238
H176	H	0.832793	-0.404196	-1.068433
H177	H	0.832752	-0.711856	-0.247516
