data_functionalizedCrystal
_audit_creation_method	'MofGen! by Chris Wilmer'
_symmetry_space_group_name_H-M	'P1'
_symmetry_Int_Tables_number	1
_symmetry_cell_setting	triclinic
loop_
_symmetry_equiv_pos_as_xyz
  x,y,z
_cell_length_a	11.792254
_cell_length_b	11.792254
_cell_length_c	18.366186
_cell_angle_alpha	89.993617
_cell_angle_beta	89.991016
_cell_angle_gamma	84.198598
loop_
_atom_site_label
_atom_site_type_symbol
_atom_site_fract_x
_atom_site_fract_y
_atom_site_fract_z
O1	O	1.506915	0.155637	-0.060549
O2	O	1.176576	0.171655	-0.060551
O3	O	1.349754	-0.001523	-0.060545
O4	O	1.333736	0.328815	-0.060555
O5	O	1.349725	-0.001532	0.060554
O6	O	1.176546	0.171646	0.060548
O7	O	1.506885	0.155628	0.060550
Zn8	Zn	1.341711	0.163636	0.079776
Zn9	Zn	1.341750	0.163647	-0.079777
O10	O	1.333707	0.328806	0.060544
C11	C	1.134271	0.170642	-0.000002
C12	C	1.008257	0.167621	-0.000002
C13	C	0.905921	0.165168	-0.000005
C14	C	0.777534	0.162099	-0.000005
C15	C	1.348730	-0.043818	0.000004
C16	C	1.345710	-0.169832	0.000004
C17	C	1.343256	-0.272168	0.000001
C18	C	1.340188	-0.400555	-0.000006
C19	C	1.549190	0.156642	-0.000001
C20	C	1.675204	0.159662	-0.000005
C21	C	1.334731	0.371102	-0.000007
C22	C	1.337751	0.497115	-0.000011
N23	N	1.341693	0.163627	0.188667
N24	N	1.341777	0.163647	-0.188668
C25	C	1.418401	0.086982	0.226770
C26	C	1.418409	0.086977	0.302998
C27	C	1.341718	0.163637	0.341120
C28	C	1.264994	0.240288	0.303008
C29	C	1.264982	0.240283	0.226782
C30	C	1.327488	0.266915	0.461877
C31	C	1.327509	0.266921	0.538102
C32	C	1.341750	0.163651	0.576228
C33	C	1.355995	0.060371	0.538119
C34	C	1.355983	0.060366	0.461893
C35	C	1.341722	0.163650	0.423775
C36	C	1.418471	0.086994	0.696986
C37	C	1.418470	0.086988	0.773215
C38	C	1.265062	0.240308	0.773223
C39	C	1.265057	0.240305	0.696995
C40	C	1.341768	0.163649	0.658881
H41	H	1.480861	0.024562	0.195740
O42	O	1.369909	-0.040054	0.575031
C43	C	1.382457	-0.131206	0.525051
H44	H	1.413810	-0.099597	0.470704
H45	H	1.296759	-0.166342	0.516964
C46	C	1.431065	-0.264833	0.621540
C47	C	1.469583	-0.226012	0.554793
H48	H	1.484804	-0.323317	0.639887
H49	H	1.422607	-0.203423	0.655213
H50	H	1.359649	-0.294105	0.614792
H51	H	1.540989	-0.196728	0.561543
H52	H	1.478055	-0.287420	0.521121
O53	O	1.190514	0.314639	0.189652
C54	C	1.206975	0.298222	0.114199
H55	H	1.248835	0.208269	0.103790
H56	H	1.264297	0.362850	0.092557
C57	C	1.039566	0.424982	0.087860
C58	C	1.090970	0.314496	0.075075
H59	H	0.968010	0.435025	0.063725
H60	H	1.028477	0.436046	0.138694
H61	H	1.087345	0.478825	0.069825
H62	H	1.043198	0.260656	0.093118
H63	H	1.102048	0.303423	0.024243
O64	O	1.493154	0.012718	0.659948
C65	C	1.563519	0.074037	0.615861
H66	H	1.565882	0.163576	0.638826
H67	H	1.528098	0.079705	0.558078
C68	C	1.682133	-0.097564	0.586534
C69	C	1.685043	0.012407	0.614743
H70	H	1.757094	-0.135582	0.585841
H71	H	1.634725	-0.138877	0.616234
H72	H	1.652611	-0.092825	0.538384
H73	H	1.714552	0.007666	0.662895
H74	H	1.732459	0.053718	0.585051
H75	H	1.367578	-0.023728	0.430867
H76	H	1.202598	0.302721	0.665970
O77	O	1.313611	0.367342	0.575005
C78	C	1.301050	0.458489	0.525011
H79	H	1.269665	0.426879	0.470684
H80	H	1.386749	0.493614	0.516883
C81	C	1.252504	0.592130	0.621493
C82	C	1.213948	0.553308	0.554769
H83	H	1.198780	0.650621	0.639850
H84	H	1.260971	0.530723	0.655175
H85	H	1.323920	0.621393	0.614711
H86	H	1.142540	0.524033	0.561554
H87	H	1.205467	0.614712	0.521089
O88	O	1.493031	0.012474	0.339909
C89	C	1.560707	-0.055211	0.289923
H90	H	1.562275	-0.008672	0.235581
H91	H	1.523334	-0.139778	0.281830
C92	C	1.681074	-0.134935	0.386405
C93	C	1.683007	-0.077771	0.319662
H94	H	1.756514	-0.148856	0.404750
H95	H	1.635478	-0.089338	0.420082
H96	H	1.649925	-0.205401	0.379651
H97	H	1.714143	-0.007301	0.326418
H98	H	1.728612	-0.123356	0.285986
O99	O	1.493101	0.012490	0.810118
C100	C	1.560782	-0.055180	0.760128
H101	H	1.562336	-0.008637	0.705786
H102	H	1.523424	-0.139755	0.752034
C103	C	1.681171	-0.134891	0.856603
C104	C	1.683087	-0.077721	0.789862
H105	H	1.756613	-0.148800	0.874945
H106	H	1.635570	-0.089303	0.890283
H107	H	1.650034	-0.205363	0.849849
H108	H	1.714210	-0.007245	0.796618
H109	H	1.728696	-0.123297	0.756183
O110	O	1.190670	0.314732	0.810358
C111	C	1.207104	0.298279	0.885809
H112	H	1.297079	0.256474	0.896211
H113	H	1.142519	0.240913	0.907454
C114	C	1.080249	0.465619	0.912162
C115	C	1.190761	0.414281	0.924938
H116	H	1.070163	0.537173	0.936300
H117	H	1.069173	0.476702	0.861329
H118	H	1.026441	0.417802	0.930200
H119	H	1.244566	0.462091	0.906892
H120	H	1.201846	0.403209	0.975769
O121	O	1.313818	0.367169	0.424762
C122	C	1.410224	0.376977	0.380667
H123	H	1.455003	0.288517	0.369255
H124	H	1.471301	0.430484	0.410027
C125	C	1.317539	0.543553	0.322273
C126	C	1.372532	0.434904	0.308251
H127	H	1.294291	0.579290	0.277605
H128	H	1.252590	0.536949	0.351983
H129	H	1.368445	0.588128	0.346741
H130	H	1.321621	0.390327	0.283792
H131	H	1.437472	0.441503	0.278536
O132	O	1.190387	0.314796	0.339923
C133	C	1.122694	0.382467	0.289942
H134	H	1.121120	0.335918	0.235610
H135	H	1.160057	0.467037	0.281819
C136	C	1.002341	0.462195	0.386442
C137	C	1.000399	0.405019	0.319713
H138	H	0.926905	0.476112	0.404806
H139	H	1.047949	0.416608	0.420116
H140	H	1.033482	0.532664	0.379664
H141	H	0.969273	0.334547	0.326493
H142	H	0.954783	0.450596	0.286040
