data_functionalizedCrystal
_audit_creation_method	'MofGen! by Chris Wilmer'
_symmetry_space_group_name_H-M	'P1'
_symmetry_Int_Tables_number	1
_symmetry_cell_setting	triclinic
loop_
_symmetry_equiv_pos_as_xyz
  x,y,z
_cell_length_a	18.050591
_cell_length_b	18.050590
_cell_length_c	13.897441
_cell_angle_alpha	89.966994
_cell_angle_beta	89.973262
_cell_angle_gamma	90.015000
loop_
_atom_site_label
_atom_site_type_symbol
_atom_site_fract_x
_atom_site_fract_y
_atom_site_fract_z
Zn1	Zn	1.135394	-0.295706	-0.545520
Zn2	Zn	1.135310	-0.419910	-0.384214
Zn3	Zn	1.011198	-0.295731	-0.384221
Zn4	Zn	1.011182	-0.419851	-0.545450
O5	O	1.073271	-0.357800	-0.464851
O6	O	1.239307	-0.312196	-0.524148
O7	O	1.118818	-0.403473	-0.249233
O8	O	1.027714	-0.191803	-0.405650
O9	O	1.239246	-0.403449	-0.405638
O10	O	1.118960	-0.191785	-0.524155
O11	O	1.027633	-0.312239	-0.249238
O12	O	0.907271	-0.312181	-0.405582
O13	O	1.027687	-0.403348	-0.680441
O14	O	0.907259	-0.403372	-0.524036
O15	O	1.118945	-0.312139	-0.680492
O16	O	1.118803	-0.523827	-0.405570
O17	O	1.027606	-0.523784	-0.524030
C18	C	0.880319	-0.357773	-0.464803
C19	C	0.797773	-0.357780	-0.464805
C20	C	1.073214	-0.550752	-0.464813
C21	C	1.073257	-0.633298	-0.464828
C22	C	0.548932	-0.308139	-0.400542
C23	C	0.598369	-0.290047	-0.488573
C24	C	0.500652	-0.357818	-0.464884
C25	C	0.598297	-0.375857	-0.376819
C26	C	0.646638	-0.357798	-0.464841
C27	C	0.549002	-0.339691	-0.552962
C28	C	0.548926	-0.425532	-0.441149
C29	C	0.598341	-0.407465	-0.529240
C30	C	0.416554	-0.357828	-0.464908
C31	C	0.730734	-0.357788	-0.464827
C32	C	1.122953	-0.832745	-0.400500
C33	C	1.141097	-0.882073	-0.488538
C34	C	1.073299	-0.784428	-0.464867
C35	C	1.055231	-0.882181	-0.376869
C36	C	1.073341	-0.930413	-0.464896
C37	C	1.091478	-0.832669	-0.552951
C38	C	1.005581	-0.832773	-0.441222
C39	C	1.023699	-0.882079	-0.529321
C40	C	1.073277	-0.700330	-0.464849
C41	C	1.073364	-1.014509	-0.464925
C42	C	1.266976	-0.357826	-0.464900
C43	C	1.349522	-0.357838	-0.464921
C44	C	1.073323	-0.357734	-0.716444
C45	C	1.073346	-0.357706	-0.823658
C46	C	1.073348	-0.164094	-0.464911
C47	C	1.073381	-0.081548	-0.464936
C48	C	1.073366	-0.357656	-1.019954
C49	C	1.073353	-0.357686	-0.910721
C50	C	1.073261	-0.357811	-0.214237
C51	C	1.073382	-0.357630	-0.107023
H52	H	0.527240	-0.266105	-0.346216
Cl53	Cl	0.631894	-0.201622	-0.519558
Cl54	Cl	0.917157	-0.799313	-0.410280
H55	H	0.619897	-0.449469	-0.583696
Cl56	Cl	1.187801	-0.799296	-0.316546
Cl57	Cl	0.958896	-0.915317	-0.613473
H58	H	1.106721	-0.811013	-0.627446
Cl59	Cl	1.229544	-0.915494	-0.519462
Cl60	Cl	0.515715	-0.316016	-0.667951
Cl61	Cl	1.031609	-0.915759	-0.261955
H62	H	0.619953	-0.391122	-0.302363
Cl63	Cl	0.515364	-0.513931	-0.410131
