data_functionalizedCrystal
_audit_creation_method	'MofGen! by Chris Wilmer'
_symmetry_space_group_name_H-M	'P1'
_symmetry_Int_Tables_number	1
_symmetry_cell_setting	triclinic
loop_
_symmetry_equiv_pos_as_xyz
  x,y,z
_cell_length_a	14.044220
_cell_length_b	14.044209
_cell_length_c	12.503552
_cell_angle_alpha	93.838203
_cell_angle_beta	93.839891
_cell_angle_gamma	86.811584
loop_
_atom_site_label
_atom_site_type_symbol
_atom_site_fract_x
_atom_site_fract_y
_atom_site_fract_z
O1	O	1.282205	-0.225121	0.089218
O2	O	1.005536	-0.216813	0.089245
O3	O	1.139718	-0.082632	0.089216
O4	O	1.148023	-0.359302	0.089246
O5	O	1.129615	-0.092732	-0.089424
O6	O	0.995432	-0.226913	-0.089396
O7	O	1.272102	-0.235220	-0.089422
Cu8	Cu	1.132845	-0.231989	-0.105720
Cu9	Cu	1.144793	-0.220045	0.105543
O10	O	1.137920	-0.369402	-0.089394
C11	C	0.964862	-0.218228	-0.000072
C12	C	0.858720	-0.207382	-0.000063
C13	C	0.664381	-0.187558	-0.000086
C14	C	0.613251	-0.264472	-0.000082
C15	C	0.505114	-0.253441	-0.000095
C16	C	0.772528	-0.198587	-0.000073
C17	C	1.131031	-0.052060	-0.000105
C18	C	1.120187	0.054082	-0.000109
C19	C	1.312776	-0.233806	-0.000103
C20	C	1.418918	-0.244651	-0.000106
N21	N	1.124448	-0.240390	-0.254311
C22	C	1.100363	0.248421	-0.000098
C23	C	1.177277	0.299550	-0.000104
C24	C	1.166247	0.407687	-0.000098
C25	C	1.111392	0.140274	-0.000104
C26	C	1.146609	0.600026	-0.000079
C27	C	1.157458	0.493883	-0.000093
C28	C	1.165544	-0.199275	-0.526753
C29	C	1.112104	-0.252749	-0.473418
C30	C	1.118974	-0.245871	-0.351496
C31	C	1.158675	-0.206153	-0.648686
N32	N	1.153197	-0.211637	0.254134
H33	H	0.650690	-0.338604	-0.000069
H34	H	1.216451	-0.148334	-0.480854
H35	H	0.626944	-0.113431	-0.000100
O36	O	1.265647	0.254738	-0.000169
C37	C	1.357357	0.104538	-0.000134
C38	C	1.257228	0.155169	-0.000081
H39	H	1.350586	0.024029	-0.000039
H40	H	1.393590	0.121779	-0.074919
H41	H	1.402034	0.130339	0.074602
H42	H	1.212475	0.129397	-0.074766
H43	H	1.221071	0.137930	0.074754
O44	O	1.011994	0.293225	-0.000143
C45	C	0.920302	0.443439	-0.000080
C46	C	1.020432	0.392804	-0.000048
H47	H	0.927091	0.523957	0.000019
H48	H	0.875609	0.417763	-0.074860
H49	H	0.884077	0.426075	0.074662
H50	H	1.056739	0.410144	-0.074739
H51	H	1.065055	0.418484	0.074781
O52	O	1.051451	-0.313514	-0.528339
C53	C	0.989151	-0.375793	-0.701702
C54	C	1.057890	-0.306954	-0.639632
H55	H	0.994319	-0.370498	-0.791693
H56	H	1.009329	-0.452110	-0.679740
H57	H	0.912859	-0.355681	-0.679611
H58	H	1.134204	-0.326978	-0.661690
H59	H	1.037631	-0.230655	-0.661599
