data_functionalizedCrystal
_audit_creation_method	'MofGen! by Chris Wilmer'
_symmetry_space_group_name_H-M	'P1'
_symmetry_Int_Tables_number	1
_symmetry_cell_setting	triclinic
loop_
_symmetry_equiv_pos_as_xyz
  x,y,z
_cell_length_a	25.639242
_cell_length_b	13.032831
_cell_length_c	13.032268
_cell_angle_alpha	90.886977
_cell_angle_beta	82.833978
_cell_angle_gamma	97.192840
loop_
_atom_site_label
_atom_site_type_symbol
_atom_site_fract_x
_atom_site_fract_y
_atom_site_fract_z
Zn1	Zn	0.353122	1.498669	-0.781038
Zn2	Zn	0.853122	1.998669	-0.281038
Zn3	Zn	0.431026	1.520453	-0.609103
Zn4	Zn	0.931026	2.020453	-0.109103
Zn5	Zn	0.331278	1.348516	-0.587267
Zn6	Zn	0.831278	1.848516	-0.087267
Zn7	Zn	0.428199	1.326700	-0.759227
Zn8	Zn	0.928199	1.826700	-0.259227
O9	O	0.385906	1.423584	-0.684159
O10	O	0.885906	1.923584	-0.184159
O11	O	0.373780	1.645485	-0.776497
O12	O	0.873780	2.145485	-0.276497
O13	O	0.409836	1.515892	-0.462285
O14	O	0.909836	2.015892	0.037715
O15	O	0.261011	1.368447	-0.612960
O16	O	0.761011	1.868447	-0.112960
O17	O	0.431016	1.661490	-0.650177
O18	O	0.931016	2.161490	-0.150177
O19	O	0.277059	1.478764	-0.755323
O20	O	0.777059	1.978764	-0.255323
O21	O	0.336552	1.389570	-0.446242
O22	O	0.836552	1.889570	0.053758
O23	O	0.333811	1.201696	-0.591811
O24	O	0.833811	1.701696	-0.091811
O25	O	0.426198	1.331265	-0.906041
O26	O	0.926198	1.831265	-0.406041
O27	O	0.405018	1.185667	-0.718149
O28	O	0.905018	1.685667	-0.218149
O29	O	0.371039	1.457610	-0.922066
O30	O	0.871039	1.957610	-0.422066
O31	O	0.503816	1.494738	-0.629028
O32	O	1.003816	1.994738	-0.129028
O33	O	0.501739	1.352388	-0.739323
O34	O	1.001739	1.852388	-0.239323
C35	C	0.366738	1.156363	-0.650244
C36	C	0.866738	1.656363	-0.150244
C37	C	0.358551	1.042041	-0.635759
C38	C	0.858551	1.542041	-0.135759
C39	C	0.249534	1.423609	-0.684139
C40	C	0.749534	1.923609	-0.184139
C41	C	0.191420	1.423620	-0.684131
C42	C	0.691420	1.923620	-0.184131
C43	C	0.390179	0.983182	-0.691718
C44	C	0.890179	1.483182	-0.191718
C45	C	0.381719	0.865025	-0.676749
C46	C	0.881719	1.365025	-0.176749
C47	C	-0.170021	1.349542	-0.741656
C48	C	0.329979	1.849542	-0.241656
C49	C	-0.224624	1.349549	-0.741669
C50	C	0.275376	1.849549	-0.241669
O51	O	-0.253782	1.286547	-0.790538
O52	O	0.246218	1.786547	-0.290538
N53	N	-0.250853	1.423663	-0.684247
N54	N	0.249147	1.923663	-0.184247
C55	C	-0.222474	1.497781	-0.626816
C56	C	0.277526	1.997781	-0.126816
O57	O	-0.249797	1.560822	-0.577976
O58	O	0.250203	2.060822	-0.077976
C59	C	-0.167871	1.497778	-0.626809
C60	C	0.332129	1.997778	-0.126809
C61	C	-0.141647	1.423653	-0.684227
C62	C	0.358353	1.923653	-0.184227
C63	C	-0.143797	1.275424	-0.799070
C64	C	0.356203	1.775424	-0.299070
C65	C	-0.089198	1.275416	-0.799055
C66	C	0.410802	1.775416	-0.299055
C67	C	-0.060823	1.349527	-0.741626
C68	C	0.439177	1.849527	-0.241626
C69	C	-0.087048	1.423645	-0.684212
C70	C	0.412952	1.923645	-0.184212
C71	C	-0.139493	1.571900	-0.569385
C72	C	0.360507	2.071900	-0.069385
C73	C	-0.084887	1.571891	-0.569384
C74	C	0.415113	2.071891	-0.069384
C75	C	-0.058662	1.497766	-0.626802
C76	C	0.441338	1.997766	-0.126802
C77	C	-0.004074	1.497748	-0.626768
C78	C	0.495926	1.997748	-0.126768
N79	N	0.022154	1.423634	-0.684191
N80	N	0.522154	1.923634	-0.184191
C81	C	-0.006220	1.349524	-0.741620
C82	C	0.493780	1.849524	-0.241620
C83	C	-0.337143	1.497783	-0.626836
C84	C	0.162857	1.997783	-0.126836
C85	C	-0.391746	1.497782	-0.626836
C86	C	0.108254	1.997782	-0.126836
C87	C	-0.393892	1.349551	-0.741691
C88	C	0.106108	1.849551	-0.241691
C89	C	-0.339289	1.349548	-0.741684
C90	C	0.160711	1.849548	-0.241684
C91	C	-0.310915	1.423669	-0.684258
C92	C	0.189085	1.923669	-0.184258
C93	C	0.108442	1.349513	-0.741583
C94	C	0.608442	1.849513	-0.241583
C95	C	0.163045	1.349509	-0.741560
C96	C	0.663045	1.849509	-0.241560
C97	C	0.165188	1.497743	-0.626709
C98	C	0.665188	1.997743	-0.126709
C99	C	0.110588	1.497744	-0.626728
C100	C	0.610588	1.997744	-0.126728
C101	C	0.082217	1.423624	-0.684173
C102	C	0.582217	1.923624	-0.184173
O103	O	0.025118	1.560721	-0.577927
O104	O	0.525118	2.060721	-0.077927
O105	O	0.021110	1.286502	-0.790463
O106	O	0.521110	1.786502	-0.290463
C107	C	0.521752	1.423585	-0.684204
C108	C	1.021752	1.923585	-0.184204
C109	C	0.579876	1.423675	-0.684269
C110	C	1.079876	1.923675	-0.184269
C111	C	0.400740	1.389574	-0.952414
C112	C	0.900740	1.889574	-0.452414
C113	C	0.407061	1.375081	-1.066729
C114	C	0.907061	1.875081	-0.566729
C115	C	0.405150	1.691849	-0.718206
C116	C	0.905150	2.191849	-0.218206
C117	C	0.413351	1.806168	-0.732715
C118	C	0.913351	2.306168	-0.232715
C119	C	0.382587	1.431132	-1.125623
C120	C	0.882587	1.931132	-0.625623
C121	C	0.389120	1.416154	-1.243773
C122	C	0.889120	1.916154	-0.743773
C123	C	0.371097	1.457522	-0.416954
C124	C	0.871097	1.957522	0.083046
C125	C	0.364643	1.472214	-0.302665
C126	C	0.864643	1.972214	0.197335
H127	H	0.423519	1.020266	-0.750712
H128	H	0.923519	1.520266	-0.250712
H129	H	0.325208	1.004957	-0.576774
H130	H	0.825208	1.504957	-0.076774
H131	H	0.348373	0.827945	-0.617759
H132	H	0.848373	1.327945	-0.117759
F133	F	0.348866	1.508331	-1.077200
F134	F	0.848866	2.008331	-0.577200
F135	F	0.330938	1.549448	-1.254253
F136	F	0.830938	2.049448	-0.754253
F137	F	0.456928	0.854625	-0.809840
F138	F	0.956928	1.354625	-0.309840
F139	F	-0.424100	1.270674	-0.802811
F140	F	0.075900	1.770674	-0.302811
H141	H	-0.160837	1.632259	-0.522631
H142	H	0.339163	2.132259	-0.022631
H143	H	0.432846	1.315998	-1.103777
H144	H	0.932846	1.815998	-0.603777
F145	F	0.190952	1.270611	-0.802674
F146	F	0.690952	1.770611	-0.302674
F147	F	0.078254	1.270626	-0.802722
F148	F	0.578254	1.770626	-0.302722
H149	H	-0.067851	1.215055	-0.845809
H150	H	0.432149	1.715055	-0.345809
H151	H	-0.061786	1.632253	-0.522623
H152	H	0.438214	2.132253	-0.022623
F153	F	-0.173987	1.196540	-0.860202
F154	F	0.326013	1.696540	-0.360202
F155	F	-0.311384	1.270656	-0.802796
F156	F	0.188616	1.770656	-0.302796
F157	F	-0.419651	1.576666	-0.565711
F158	F	0.080349	2.076666	-0.065711
H159	H	-0.314045	1.558140	-0.580063
H160	H	0.185955	2.058140	-0.080063
F161	F	0.195396	1.576615	-0.565596
F162	F	0.695396	2.076615	-0.065596
F163	F	0.082675	1.576619	-0.565597
F164	F	0.582675	2.076619	-0.065597
F165	F	0.422828	1.338926	-1.292188
F166	F	0.922828	1.838926	-0.792188
