data_functionalizedCrystal
_audit_creation_method	'MofGen! by Chris Wilmer'
_symmetry_space_group_name_H-M	'P1'
_symmetry_Int_Tables_number	1
_symmetry_cell_setting	triclinic
loop_
_symmetry_equiv_pos_as_xyz
  x,y,z
_cell_length_a	34.571875
_cell_length_b	34.571051
_cell_length_c	34.567439
_cell_angle_alpha	60.004367
_cell_angle_beta	60.008842
_cell_angle_gamma	59.994195
loop_
_atom_site_label
_atom_site_type_symbol
_atom_site_fract_x
_atom_site_fract_y
_atom_site_fract_z
O1	O	0.053721	-0.565181	0.472559
O2	O	0.553721	-0.065181	0.972559
O3	O	0.020283	-0.440038	0.380761
O4	O	0.520283	0.059962	0.880761
O5	O	0.099534	-0.519209	0.380676
O6	O	0.599534	-0.019209	0.880676
O7	O	-0.025530	-0.486010	0.472643
O8	O	0.474470	0.013990	0.972643
O9	O	0.125831	-0.492917	0.406885
O10	O	0.625831	0.007083	0.906885
O11	O	0.046580	-0.413746	0.406969
O12	O	0.546580	0.086254	0.906969
O13	O	0.080018	-0.538889	0.498767
O14	O	0.580018	-0.038889	0.998767
Zn15	Zn	0.067475	-0.472143	0.457030
Zn16	Zn	0.567475	0.027857	0.957030
Zn17	Zn	0.032827	-0.506784	0.422498
Zn18	Zn	0.532827	-0.006784	0.922498
O19	O	0.000767	-0.459718	0.498852
O20	O	0.500767	0.040282	0.998852
N21	N	0.091122	-0.448505	0.480598
N22	N	0.591122	0.051495	0.980598
N23	N	0.009184	-0.530426	0.398930
N24	N	0.509184	-0.030426	0.898930
C25	C	0.124402	-0.415465	0.717633
C26	C	0.624402	0.084535	1.217633
C27	C	0.328327	-0.415388	0.513477
C28	C	0.828327	0.084612	1.013477
C29	C	0.124221	-0.415437	0.513630
C30	C	0.624221	0.084563	1.013630
C31	C	0.124201	-0.211364	0.513624
C32	C	0.624201	0.288636	1.013624
C33	C	0.157075	-0.309853	0.546423
C34	C	0.657075	0.190147	1.046423
C35	C	0.157084	-0.382601	0.546423
C36	C	0.657084	0.117399	1.046423
C37	C	0.175289	-0.364414	0.564591
C38	C	0.675289	0.135586	1.064591
C39	C	0.254624	-0.350722	0.522790
C40	C	0.754624	0.149278	1.022790
C41	C	0.304220	-0.367243	0.506229
C42	C	0.804220	0.132757	1.006229
C43	C	0.304249	-0.447494	0.536832
C44	C	0.804249	0.052506	1.036832
C45	C	0.254655	-0.430972	0.553394
C46	C	0.754655	0.069028	1.053394
C47	C	0.169014	-0.285043	0.497667
C48	C	0.669014	0.214957	0.997667
C49	C	0.152454	-0.235444	0.481153
C50	C	0.652454	0.264556	0.981153
C51	C	0.112020	-0.235469	0.562154
C52	C	0.612020	0.264531	1.062154
C53	C	0.128580	-0.285068	0.578668
C54	C	0.628580	0.214932	1.078668
C55	C	0.108321	-0.370634	0.558439
C56	C	0.608321	0.129366	1.058439
C57	C	0.091776	-0.387168	0.541918
C58	C	0.591776	0.112832	1.041918
C59	C	0.172754	-0.427637	0.501375
C60	C	0.672754	0.072363	1.001375
C61	C	0.189301	-0.411103	0.517891
C62	C	0.689301	0.088897	1.017891
C63	C	0.108399	-0.370649	0.643978
C64	C	0.608399	0.129351	1.143978
C65	C	0.091911	-0.387197	0.693575
C66	C	0.591911	0.112803	1.193575
C67	C	0.172928	-0.427676	0.693511
C68	C	0.672928	0.072324	1.193511
C69	C	0.189415	-0.411128	0.643912
C70	C	0.689415	0.088872	1.143912
C71	C	0.157149	-0.382613	0.619147
C72	C	0.657149	0.117387	1.119147
C73	C	0.229844	-0.382585	0.546371
C74	C	0.729844	0.117415	1.046371
C75	C	0.105624	-0.433333	0.772186
C76	C	0.605624	0.066667	1.272186
C77	C	0.382878	-0.432925	0.495007
C78	C	0.882878	0.067075	0.995007
C79	C	0.105380	-0.433313	0.495792
C80	C	0.605380	0.066687	0.995792
C81	C	0.105683	-0.156808	0.496094
C82	C	0.605683	0.343192	0.996094
C83	C	-0.023527	-0.563458	0.161535
C84	C	0.476473	-0.063458	0.661535
C85	C	-0.023851	-0.767445	0.365663
C86	C	0.476149	-0.267445	0.865663
C87	C	-0.023821	-0.563448	0.365756
C88	C	0.476179	-0.063448	0.865756
C89	C	-0.227785	-0.563229	0.365355
C90	C	0.272215	-0.063229	0.865355
C91	C	-0.129302	-0.596153	0.332678
C92	C	0.370698	-0.096153	0.832678
C93	C	-0.056593	-0.596234	0.332823
C94	C	0.443407	-0.096234	0.832823
C95	C	-0.074746	-0.614396	0.314578
C96	C	0.425254	-0.114396	0.814578
C97	C	-0.088477	-0.693710	0.356299
C98	C	0.411523	-0.193710	0.856299
C99	C	-0.071982	-0.743310	0.372851
C100	C	0.428018	-0.243310	0.872851
C101	C	0.008266	-0.743392	0.342376
C102	C	0.508266	-0.243392	0.842376
C103	C	-0.008230	-0.693794	0.325823
C104	C	0.491770	-0.193794	0.825823
C105	C	-0.154162	-0.608103	0.381422
C106	C	0.345838	-0.108103	0.881422
C107	C	-0.203757	-0.591517	0.397874
C108	C	0.296243	-0.091517	0.897874
C109	C	-0.203630	-0.551037	0.316836
C110	C	0.296370	-0.051037	0.816836
C111	C	-0.154034	-0.567623	0.300384
C112	C	0.345966	-0.067623	0.800384
C113	C	-0.068543	-0.547475	0.320829
C114	C	0.431457	-0.047475	0.820829
C115	C	-0.052041	-0.530969	0.337421
C116	C	0.447959	-0.030969	0.837421
C117	C	-0.011639	-0.611977	0.377990
C118	C	0.488361	-0.111977	0.877990
C119	C	-0.028141	-0.628485	0.361404
C120	C	0.471859	-0.128485	0.861404
C121	C	-0.068417	-0.547482	0.235199
C122	C	0.431583	-0.047482	0.735199
C123	C	-0.051814	-0.530977	0.185602
C124	C	0.448186	-0.030977	0.685602
C125	C	-0.011349	-0.611990	0.185649
C126	C	0.488651	-0.111990	0.685649
C127	C	-0.027951	-0.628493	0.235248
C128	C	0.472049	-0.128493	0.735248
C129	C	-0.056486	-0.596238	0.260022
C130	C	0.443514	-0.096238	0.760022
C131	C	-0.056602	-0.668955	0.332787
C132	C	0.443398	-0.168955	0.832787
C133	C	-0.005599	-0.544662	0.106983
C134	C	0.494401	-0.044662	0.606983
C135	C	-0.006342	-0.821999	0.384121
C136	C	0.493658	-0.321999	0.884121
C137	C	-0.005979	-0.544649	0.383673
C138	C	0.494021	-0.044649	0.883673
C139	C	-0.282336	-0.544682	0.382817
C140	C	0.217664	-0.044682	0.882817
N141	N	0.427518	-0.448428	0.480350
N142	N	0.927518	0.051572	0.980350
O143	O	0.589573	-0.456297	0.363634
O144	O	1.089573	0.043703	0.863634
O145	O	0.589761	-0.548399	0.488643
O146	O	1.089761	-0.048399	0.988643
O147	O	0.589681	-0.548188	0.409364
O148	O	1.089681	-0.048188	0.909364
O149	O	0.589654	-0.456508	0.442913
O150	O	1.089654	0.043492	0.942913
O151	O	0.510890	-0.521988	0.435708
O152	O	1.010890	-0.021988	0.935708
O153	O	0.510970	-0.522199	0.514987
O154	O	1.010970	-0.022199	1.014987
O155	O	0.510782	-0.430098	0.389978
O156	O	1.010782	0.069902	0.889978
Zn157	Zn	0.498366	-0.471989	0.456665
Zn158	Zn	0.998366	0.028011	0.956665
Zn159	Zn	0.602177	-0.506508	0.421956
Zn160	Zn	1.102177	-0.006508	0.921956
O161	O	0.510862	-0.430308	0.469257
O162	O	1.010862	0.069692	0.969257
N163	N	0.673025	-0.530068	0.398267
N164	N	1.173025	-0.030068	0.898267
N165	N	0.091092	-0.112167	0.480590
N166	N	0.591092	0.387833	0.980590
O167	O	-0.025539	0.049976	0.472612
O168	O	0.474461	0.549976	0.972612
O169	O	0.099472	0.050011	0.380491
O170	O	0.599472	0.550011	0.880491
O171	O	0.020155	0.049979	0.380751
O172	O	0.520155	0.549979	0.880751
O173	O	0.053778	0.050009	0.472352
O174	O	0.553778	0.550009	0.972352
O175	O	0.046458	-0.028818	0.407008
O176	O	0.546458	0.471182	0.907008
O177	O	0.125775	-0.028785	0.406748
O178	O	0.625775	0.471215	0.906748
O179	O	0.000764	-0.028821	0.498869
O180	O	0.500764	0.471179	0.998869
Zn181	Zn	0.067445	-0.041314	0.456977
Zn182	Zn	0.567445	0.458686	0.956977
Zn183	Zn	0.032791	0.062504	0.422382
Zn184	Zn	0.532791	0.562504	0.922382
O185	O	0.080081	-0.028788	0.498609
O186	O	0.580081	0.471212	0.998609
N187	N	0.009138	0.133358	0.398771
N188	N	0.509138	0.633358	0.898771
N189	N	0.091421	-0.448552	0.816827
N190	N	0.591421	0.051448	1.316827
O191	O	0.083469	-0.565164	0.978960
O192	O	0.583469	-0.065164	1.478960
O193	O	-0.008614	-0.440110	0.979002
O194	O	0.491386	0.059890	1.479002
O195	O	-0.008399	-0.519410	0.978978
O196	O	0.491601	-0.019410	1.478978
O197	O	0.083253	-0.485863	0.978984
O198	O	0.583253	0.014137	1.478984
O199	O	0.017837	-0.493128	0.900185
O200	O	0.517837	0.006872	1.400185
O201	O	0.017621	-0.413827	0.900208
O202	O	0.517621	0.086173	1.400208
O203	O	0.109704	-0.538881	0.900167
O204	O	0.609704	-0.038881	1.400167
Zn205	Zn	0.067828	-0.472181	0.887677
Zn206	Zn	0.567828	0.027819	1.387677
Zn207	Zn	0.033262	-0.506810	0.991491
Zn208	Zn	0.533262	-0.006810	1.491491
O209	O	0.109489	-0.459581	0.900191
O210	O	0.609489	0.040419	1.400191
N211	N	0.009668	-0.530444	1.062341
N212	N	0.509668	-0.030444	1.562341
C213	C	0.030297	-0.411123	0.381218
C214	C	0.530297	0.088877	0.881218
C215	C	0.128439	-0.509167	0.381113
C216	C	0.628439	-0.009167	0.881113
C217	C	0.070004	-0.567805	0.498310
C218	C	0.570004	-0.067805	0.998310
C219	C	-0.028138	-0.469761	0.498415
C220	C	0.471862	0.030239	0.998415
C221	C	0.550388	-0.547982	0.517564
C222	C	1.050388	-0.047982	1.017564
C223	C	0.550290	-0.547721	0.419387
C224	C	1.050290	-0.047721	0.919387
C225	C	0.550153	-0.430514	0.361058
C226	C	1.050153	0.069486	0.861058
C227	C	0.550253	-0.430775	0.459234
C228	C	1.050253	0.069225	0.959234
C229	C	0.128339	0.010714	0.380902
C230	C	0.628339	0.510714	0.880902
C231	C	0.030148	0.010577	0.381256
C232	C	0.530148	0.510577	0.881256
C233	C	-0.028136	0.010574	0.498426
C234	C	0.471864	0.510574	0.998426
C235	C	0.070089	0.010613	0.498104
C236	C	0.570089	0.510613	0.998104
C237	C	-0.008178	-0.411214	0.939610
C238	C	0.491822	0.088786	1.439610
C239	C	-0.007906	-0.509413	0.939566
C240	C	0.492094	-0.009413	1.439566
C241	C	0.109268	-0.567777	0.939558
C242	C	0.609268	-0.067777	1.439558
C243	C	0.109002	-0.469572	0.939586
C244	C	0.609002	0.030428	1.439586
H245	H	0.052212	-0.377448	0.713786
H246	H	0.552212	0.122552	1.213786
O247	O	-0.042610	-0.368328	0.939561
O248	O	0.457390	0.131672	1.439561
C249	C	-0.026432	-0.332609	0.898754
C250	C	0.473568	0.167391	1.398754
H251	H	0.013950	-0.345639	0.885141
H252	H	0.513950	0.154361	1.385141
H253	H	-0.040284	-0.299553	0.907942
H254	H	0.459716	0.200447	1.407942
H255	H	-0.039879	-0.323749	0.870180
H256	H	0.460121	0.176251	1.370180
H257	H	0.550247	-0.401977	0.466412
H258	H	1.050247	0.098023	0.966412
O259	O	0.016374	-0.643388	0.161660
O260	O	0.516374	-0.143388	0.661660
C261	C	0.023330	-0.689960	0.194207
C262	C	0.523330	-0.189960	0.694207
H263	H	0.017740	-0.689862	0.229578
H264	H	0.517740	-0.189862	0.729578
H265	H	0.060943	-0.713546	0.179933
H266	H	0.560943	-0.213546	0.679933
H267	H	-0.003069	-0.704133	0.199429
H268	H	0.496931	-0.204133	0.699429
H269	H	0.023152	-0.375173	0.352387
H270	H	0.523152	0.124827	0.852387
O271	O	0.143818	-0.610589	0.939523
O272	O	0.643818	-0.110589	1.439523
C273	C	0.184591	-0.610582	0.939534
C274	C	0.684591	-0.110582	1.439534
H275	H	0.184022	-0.572576	0.924628
H276	H	0.684022	-0.072576	1.424628
H277	H	0.217564	-0.631642	0.916649
H278	H	0.717564	-0.131642	1.416649
H279	H	0.185160	-0.627521	0.977334
H280	H	0.685160	-0.127521	1.477334
H281	H	0.137795	-0.462392	0.939581
H282	H	0.637795	0.037608	1.439581
O283	O	0.171039	0.011046	0.346253
O284	O	0.671039	0.511046	0.846253
C285	C	0.164539	0.051947	0.306470
C286	C	0.664539	0.551947	0.806470
H287	H	0.126713	0.065390	0.307130
H288	H	0.626713	0.565390	0.807130
H289	H	0.190460	0.042946	0.272723
H290	H	0.690460	0.542946	0.772723
H291	H	0.171190	0.080577	0.307385
H292	H	0.671190	0.580577	0.807385
O293	O	0.171288	-0.517680	0.346674
O294	O	0.671288	-0.017680	0.846674
C295	C	0.179752	-0.556014	0.335727
C296	C	0.679752	-0.056014	0.835727
H297	H	0.157619	-0.578781	0.367061
H298	H	0.657619	-0.078781	0.867061
H299	H	0.218919	-0.578322	0.328031
H300	H	0.718919	-0.078322	0.828031
H301	H	0.169564	-0.541937	0.303239
H302	H	0.669564	-0.041937	0.803239
H303	H	0.082121	-0.347425	0.623816
H304	H	0.582121	0.152575	1.123816
O305	O	0.078726	0.010531	0.532456
O306	O	0.578726	0.510531	1.032456
C307	C	0.117116	-0.030266	0.543307
C308	C	0.617116	0.469734	1.043307
H309	H	0.120842	-0.058790	0.532902
H310	H	0.620842	0.441210	1.032902
H311	H	0.110471	-0.043971	0.582943
H312	H	0.610471	0.456029	1.082943
H313	H	0.151076	-0.021029	0.522852
H314	H	0.651076	0.478971	1.022852
H315	H	-0.064060	-0.462687	0.527292
H316	H	0.435940	0.037313	1.027292
O317	O	-0.042184	-0.518030	0.939502
O318	O	0.457816	-0.018030	1.439502
C319	C	-0.024925	-0.564601	0.939487
C320	C	0.475075	-0.064601	1.439487
H321	H	0.015429	-0.577074	0.924588
H322	H	0.515429	-0.077074	1.424588
H323	H	-0.039332	-0.565269	0.916581
H324	H	0.460668	-0.065269	1.416581
H325	H	-0.036914	-0.589119	0.977277
H326	H	0.463086	-0.089119	1.477277
H327	H	-0.061773	-0.491265	0.327657
H328	H	0.438227	0.008735	0.827657
H329	H	0.199204	-0.450885	0.713670
H330	H	0.699204	0.049115	1.213670
O331	O	0.550470	-0.582433	0.560414
O332	O	1.050470	-0.082433	1.060414
C333	C	0.550474	-0.565369	0.589896
C334	C	1.050474	-0.065369	1.089896
H335	H	0.565352	-0.534935	0.567113
H336	H	1.065352	-0.034935	1.067113
H337	H	0.573391	-0.595133	0.612565
H338	H	1.073391	-0.095133	1.112565
H339	H	0.512684	-0.552242	0.613851
H340	H	1.012684	-0.052242	1.113851
O341	O	0.550219	-0.582039	0.410832
O342	O	1.050219	-0.082039	0.910832
C343	C	0.509392	-0.565742	0.399713
C344	C	1.009392	-0.065742	0.899713
H345	H	0.480863	-0.536340	0.415028
H346	H	0.980863	-0.036340	0.915028
H347	H	0.495727	-0.596272	0.415526
H348	H	0.995727	-0.096272	0.915526
H349	H	0.518569	-0.551438	0.359596
H350	H	1.018569	-0.051438	0.859596
H351	H	0.022945	0.010574	0.352477
H352	H	0.522945	0.510574	0.852477
O353	O	0.550103	-0.396073	0.318197
O354	O	1.050103	0.103927	0.818197
C355	C	0.550070	-0.413127	0.288724
C356	C	1.050070	0.086873	0.788724
H357	H	0.565031	-0.453483	0.301531
H358	H	1.065031	0.046517	0.801531
H359	H	0.572895	-0.398573	0.250762
H360	H	1.072895	0.101427	0.750762
H361	H	0.512257	-0.401116	0.290048
H362	H	1.012257	0.098884	0.790048
H363	H	-0.064037	0.010563	0.527345
H364	H	0.435963	0.510563	1.027345
H365	H	0.198991	-0.450848	0.478149
H366	H	0.698991	0.049152	0.978149
O367	O	0.078446	-0.610693	0.532725
O368	O	0.578446	-0.110693	1.032725
C369	C	0.045950	-0.631747	0.545485
C370	C	0.545950	-0.131747	1.045485
H371	H	0.013134	-0.603057	0.536004
H372	H	0.513134	-0.103057	1.036004
H373	H	0.035330	-0.651665	0.585238
H374	H	0.535330	-0.151665	1.085238
H375	H	0.063109	-0.657544	0.525535
H376	H	0.563109	-0.157544	1.025535
H377	H	0.082085	-0.347427	0.581670
H378	H	0.582085	0.152573	1.081670
O379	O	0.236785	-0.422836	0.619845
O380	O	0.736785	0.077164	1.119845
C381	C	0.257399	-0.472513	0.631937
C382	C	0.757399	0.027487	1.131937
H383	H	0.233911	-0.489880	0.667956
H384	H	0.733911	0.010120	1.167956
H385	H	0.293892	-0.484100	0.633605
H386	H	0.793892	0.015900	1.133605
H387	H	0.261066	-0.483728	0.604028
H388	H	0.761066	0.016272	1.104028
O389	O	0.044392	-0.375521	0.553653
O390	O	0.544392	0.124479	1.053653
C391	C	0.019502	-0.346814	0.582372
C392	C	0.519502	0.153186	1.082372
H393	H	0.043180	-0.353138	0.600378
H394	H	0.543180	0.146862	1.100378
H395	H	-0.013574	-0.356129	0.610453
H396	H	0.486426	0.143871	1.110453
H397	H	0.008774	-0.307960	0.559510
H398	H	0.508774	0.192040	1.059510
H399	H	0.234479	-0.456922	0.572596
H400	H	0.734479	0.043078	1.072596
O401	O	0.236685	-0.422774	0.506180
O402	O	0.736685	0.077226	1.006180
C403	C	0.261575	-0.451459	0.477438
C404	C	0.761575	0.048541	0.977438
H405	H	0.237932	-0.469512	0.483792
H406	H	0.737932	0.030488	0.983792
H407	H	0.294704	-0.479503	0.486689
H408	H	0.794704	0.020497	0.986689
H409	H	0.272214	-0.428557	0.438593
H410	H	0.772214	0.071443	0.938593
H411	H	0.324452	-0.486894	0.542541
H412	H	0.824452	0.013106	1.042541
H413	H	0.324395	-0.341295	0.487026
H414	H	0.824395	0.158705	0.987026
H415	H	0.234427	-0.311322	0.517070
H416	H	0.734427	0.188678	1.017070
O417	O	-0.130209	-0.635795	0.412855
O418	O	0.369791	-0.135795	0.912855
C419	C	-0.162788	-0.642790	0.459407
C420	C	0.337212	-0.142790	0.959407
H421	H	-0.198120	-0.612858	0.459262
H422	H	0.301880	-0.112858	0.959262
H423	H	-0.148498	-0.643064	0.482999
H424	H	0.351502	-0.143064	0.982999
H425	H	-0.168089	-0.678103	0.473603
H426	H	0.331911	-0.178103	0.973603
H427	H	0.162174	-0.215242	0.441450
H428	H	0.662174	0.284758	0.941450
O429	O	0.196669	-0.309047	0.466282
O430	O	0.696669	0.190953	0.966282
C431	C	0.203659	-0.276510	0.419706
C432	C	0.703659	0.223490	0.919706
H433	H	0.173747	-0.241162	0.419818
H434	H	0.673747	0.258838	0.919818
H435	H	0.203896	-0.290837	0.396169
H436	H	0.703896	0.209163	0.896169
H437	H	0.238986	-0.271223	0.405469
H438	H	0.738986	0.228777	0.905469
H439	H	0.088825	-0.215289	0.588411
H440	H	0.588825	0.284711	1.088411
H441	H	-0.061536	-0.491273	0.165398
H442	H	0.438464	0.008727	0.665398
O443	O	0.116956	-0.309099	0.626048
O444	O	0.616956	0.190901	1.126048
C445	C	0.088243	-0.276588	0.650966
C446	C	0.588243	0.223412	1.150966
H447	H	0.094549	-0.241224	0.627314
H448	H	0.594549	0.258776	1.127314
H449	H	0.097569	-0.290923	0.684051
H450	H	0.597569	0.209077	1.184051
H451	H	0.049396	-0.271326	0.661684
H452	H	0.549396	0.228674	1.161684
H453	H	-0.018232	-0.668197	0.255455
H454	H	0.481768	-0.168197	0.755455
O455	O	-0.096061	-0.516132	0.259248
O456	O	0.403939	-0.016132	0.759248
C457	C	-0.071009	-0.487488	0.247170
C458	C	0.428991	0.012512	0.747170
H459	H	-0.031331	-0.506676	0.233588
H460	H	0.468669	-0.006676	0.733588
H461	H	-0.079916	-0.479988	0.279800
H462	H	0.420084	0.020012	0.779800
H463	H	-0.081522	-0.452640	0.218358
H464	H	0.418478	0.047360	0.718358
O465	O	-0.096242	-0.516189	0.293123
O466	O	0.403758	-0.016189	0.793123
C467	C	-0.140353	-0.523272	0.315603
C468	C	0.359647	-0.023272	0.815603
H469	H	-0.136400	-0.560903	0.341819
H470	H	0.363600	-0.060903	0.841819
H471	H	-0.153013	-0.517741	0.287870
H472	H	0.346987	-0.017741	0.787870
H473	H	-0.167315	-0.496901	0.335297
H474	H	0.332685	0.003099	0.835297
O475	O	0.016050	-0.643353	0.405694
O476	O	0.516050	-0.143353	0.905694
C477	C	0.057665	-0.672057	0.380695
C478	C	0.557665	-0.172057	0.880695
H479	H	0.051058	-0.672535	0.351786
H480	H	0.551058	-0.172535	0.851786
H481	H	0.068080	-0.709668	0.406167
H482	H	0.568080	-0.209668	0.906167
H483	H	0.087508	-0.657178	0.363917
H484	H	0.587508	-0.157178	0.863917
O485	O	-0.016601	-0.675843	0.373076
O486	O	0.483399	-0.175843	0.873076
C487	C	-0.058278	-0.687798	0.397952
C488	C	0.441722	-0.187798	0.897952
H489	H	-0.088088	-0.659840	0.414736
H490	H	0.411912	-0.159840	0.914736
H491	H	-0.051774	-0.723815	0.426847
H492	H	0.448226	-0.223815	0.926847
H493	H	-0.068674	-0.689405	0.372388
H494	H	0.431326	-0.189405	0.872388
O495	O	0.022788	-0.669796	0.302935
O496	O	0.522788	-0.169796	0.802935
C497	C	0.056491	-0.681940	0.262065
C498	C	0.556491	-0.181940	0.762065
H499	H	0.058817	-0.717943	0.266534
H500	H	0.558817	-0.217943	0.766534
H501	H	0.092576	-0.683673	0.256708
H502	H	0.592576	-0.183673	0.756708
H503	H	0.045334	-0.654025	0.229904
H504	H	0.545334	-0.154025	0.729904
O505	O	0.055253	-0.767577	0.335589
O506	O	0.555253	-0.267577	0.835589
C507	C	0.072465	-0.796267	0.308603
C508	C	0.572465	-0.296267	0.808603
H509	H	0.041855	-0.803660	0.312429
H510	H	0.541855	-0.303660	0.812429
H511	H	0.099860	-0.831162	0.321811
H512	H	0.599860	-0.331162	0.821811
H513	H	0.089599	-0.777178	0.269748
H514	H	0.589599	-0.277178	0.769748
H515	H	-0.097938	-0.763465	0.391989
H516	H	0.402062	-0.263465	0.891989
H517	H	-0.223999	-0.601245	0.437568
H518	H	0.276001	-0.101245	0.937568
O519	O	-0.135456	-0.669599	0.362986
O520	O	0.364544	-0.169599	0.862986
C521	C	-0.150556	-0.681712	0.340662
C522	C	0.349444	-0.181712	0.840662
H523	H	-0.118853	-0.695387	0.311398
H524	H	0.381147	-0.195387	0.811398
H525	H	-0.177825	-0.649077	0.324709
H526	H	0.322175	-0.149077	0.824709
H527	H	-0.167200	-0.710468	0.367827
H528	H	0.332800	-0.210468	0.867827
O529	O	-0.227585	-0.523315	0.285403
O530	O	0.272415	-0.023315	0.785403
C531	C	-0.195007	-0.516344	0.238850
C532	C	0.304993	-0.016344	0.738850
H533	H	-0.159669	-0.521921	0.239001
H534	H	0.340331	-0.021921	0.739001
H535	H	-0.209288	-0.478727	0.215270
H536	H	0.290712	0.021273	0.715270
H537	H	-0.189722	-0.542744	0.224635
H538	H	0.310278	-0.042744	0.724635
H539	H	-0.133793	-0.557888	0.260690
H540	H	0.366207	-0.057888	0.760690
