data_functionalizedCrystal
_audit_creation_method	'MofGen! by Chris Wilmer'
_symmetry_space_group_name_H-M	'P1'
_symmetry_Int_Tables_number	1
_symmetry_cell_setting	triclinic
loop_
_symmetry_equiv_pos_as_xyz
  x,y,z
_cell_length_a	10.654550
_cell_length_b	9.130313
_cell_length_c	10.654551
_cell_angle_alpha	89.998448
_cell_angle_beta	84.485132
_cell_angle_gamma	90.003780
loop_
_atom_site_label
_atom_site_type_symbol
_atom_site_fract_x
_atom_site_fract_y
_atom_site_fract_z
O1	O	1.667835	0.121910	0.176393
O2	O	1.302356	0.121885	0.193199
O3	O	1.493498	0.121899	0.002057
O4	O	1.476693	0.121896	0.367535
O5	O	1.493496	-0.121700	0.002062
O6	O	1.302354	-0.121713	0.193204
O7	O	1.667832	-0.121689	0.176398
Cu8	Cu	1.485093	-0.143944	0.184802
Cu9	Cu	1.485096	0.144140	0.184796
O10	O	1.476691	-0.121703	0.367540
C11	C	1.255557	0.000083	0.191968
C12	C	1.116114	0.000074	0.188276
N13	N	1.485100	-0.346566	0.184805
C14	C	1.036629	0.000095	0.300817
C15	C	0.905608	0.000120	0.297341
C16	C	0.933570	0.000110	0.068771
C17	C	1.064589	0.000074	0.072249
C18	C	1.020484	0.000106	0.432780
C19	C	0.889463	0.000132	0.429304
C20	C	1.569760	-0.423212	0.100196
C21	C	1.569756	-0.576549	0.100181
C22	C	1.400430	-0.576581	0.269395
C23	C	1.400428	-0.423246	0.269403
C24	C	1.667523	-0.423195	0.002506
C25	C	1.667519	-0.576532	0.002491
C26	C	1.714632	0.000117	0.177629
C27	C	1.854075	0.000135	0.181321
C28	C	1.492263	0.000103	-0.044739
C29	C	1.488570	0.000112	-0.184182
N30	N	1.485098	0.346763	0.184782
C31	C	1.486839	0.132895	-0.249696
C32	C	1.483359	0.132888	-0.380717
C33	C	1.483346	-0.132696	-0.380697
C34	C	1.486817	-0.132688	-0.249678
C35	C	1.486852	0.286229	-0.249710
C36	C	1.483372	0.286222	-0.380730
C37	C	1.477926	0.000097	0.414336
C38	C	1.481619	0.000097	0.553779
H39	H	1.129302	0.000037	-0.019393
H40	H	1.488220	-0.240813	-0.196340
C41	C	0.833081	0.137869	0.496460
N42	N	0.790616	0.241612	0.547037
C43	C	1.068663	0.142198	0.489520
N44	N	1.104954	0.249230	0.532244
H45	H	1.331491	-0.639030	0.338271
H46	H	1.570163	0.345101	-0.427023
H47	H	0.843791	-0.105037	0.469187
H48	H	1.331481	-0.360843	0.338287
H49	H	1.637006	-0.624081	-0.088732
H50	H	1.758706	-0.375631	0.033094
H51	H	0.891602	0.000133	-0.025694
C52	C	1.481420	-0.278769	-0.452755
N53	N	1.479971	-0.388794	-0.507028
H54	H	1.049814	-0.101845	0.484393
H55	H	1.646079	-0.381576	-0.094027
C56	C	1.610596	0.350512	-0.209762
N57	N	1.703802	0.398928	-0.179673
C58	C	1.797868	-0.632753	0.031657
N59	N	1.896032	-0.675097	0.053661
H60	H	1.391776	0.333807	-0.410299
C61	C	1.369602	0.365753	-0.187182
N62	N	1.281289	0.425646	-0.140086
