data_functionalizedCrystal
_audit_creation_method	'MofGen! by Chris Wilmer'
_symmetry_space_group_name_H-M	'P1'
_symmetry_Int_Tables_number	1
_symmetry_cell_setting	triclinic
loop_
_symmetry_equiv_pos_as_xyz
  x,y,z
_cell_length_a	10.967819
_cell_length_b	13.596369
_cell_length_c	11.026607
_cell_angle_alpha	89.997861
_cell_angle_beta	96.381100
_cell_angle_gamma	102.135272
loop_
_atom_site_label
_atom_site_type_symbol
_atom_site_fract_x
_atom_site_fract_y
_atom_site_fract_z
O1	O	1.694042	0.368924	0.170518
O2	O	1.334403	0.307968	0.186839
O3	O	1.484416	0.333391	0.001777
O4	O	1.544029	0.343502	0.355580
O5	O	1.484395	0.169804	0.001787
O6	O	1.334382	0.144381	0.186849
O7	O	1.694021	0.205338	0.170528
Zn8	Zn	1.514198	0.148887	0.178690
Zn9	Zn	1.514226	0.364419	0.178677
O10	O	1.544008	0.179915	0.355590
C11	C	1.287635	0.218250	0.185656
C12	C	1.148310	0.194635	0.182102
N13	N	1.514188	0.001793	0.178699
C14	C	0.942214	0.244462	0.176851
C15	C	1.086213	0.268863	0.180516
C16	C	1.514195	-0.087204	0.178701
C17	C	1.514205	-0.198853	0.178693
C18	C	1.514218	-0.287842	0.178679
C19	C	1.514231	-0.399498	0.178672
C20	C	1.740789	0.295058	0.171711
C21	C	1.880114	0.318679	0.175265
C22	C	1.473408	0.249734	-0.043520
C23	C	1.440624	0.244181	-0.178507
N24	N	1.514244	0.511514	0.178659
C25	C	1.531146	0.259526	-0.251559
C26	C	1.497264	0.253786	-0.391076
C27	C	1.555016	0.263573	0.400887
C28	C	1.587800	0.269133	0.535874
H29	H	0.888774	0.162858	0.175502
F30	F	1.306537	0.221464	-0.231758
F31	F	1.721894	0.291866	-0.410884
F32	F	1.078474	0.087964	0.180338
F33	F	1.156053	0.375534	0.182296
H34	H	1.633729	0.276907	-0.210814
F35	F	0.949959	0.425345	0.177045
F36	F	1.363171	0.231068	-0.444321
