data_functionalizedCrystal
_audit_creation_method	'MofGen! by Chris Wilmer'
_symmetry_space_group_name_H-M	'P1'
_symmetry_Int_Tables_number	1
_symmetry_cell_setting	triclinic
loop_
_symmetry_equiv_pos_as_xyz
  x,y,z
_cell_length_a	6.817900
_cell_length_b	11.102289
_cell_length_c	14.125465
_cell_angle_alpha	94.634960
_cell_angle_beta	100.398878
_cell_angle_gamma	108.605707
loop_
_atom_site_label
_atom_site_type_symbol
_atom_site_fract_x
_atom_site_fract_y
_atom_site_fract_z
V1	V	-4.017267	-0.174747	-0.299976
O2	O	-3.978094	0.009521	-0.294266
O3	O	-3.994689	-0.347575	-0.297924
O4	O	-3.952937	-0.171566	-0.430806
O5	O	-4.020135	-0.167706	-0.160464
V6	V	-4.499614	-0.152765	-0.283289
O7	O	-4.281107	-0.222967	-0.336580
O8	O	-4.685971	-0.104545	-0.246686
O9	O	-4.298985	0.020063	-0.285341
O10	O	-4.656184	-0.337033	-0.289000
O11	O	-4.614143	-0.159806	-0.422801
O12	O	-4.340737	-0.155946	-0.152459
C13	C	-3.846487	-0.389722	-0.293192
C14	C	-3.909207	-0.531008	-0.292387
C15	C	-4.121172	-0.603840	-0.296808
C16	C	-4.180096	-0.736594	-0.296059
C17	C	-3.815066	-0.723671	-0.286464
C18	C	-3.756148	-0.590921	-0.287220
C19	C	-4.331919	-0.611301	-0.302343
C20	C	-4.390842	-0.744056	-0.301594
C21	C	-3.793227	-0.165204	-0.462695
C22	C	-3.822084	-0.163747	-0.569649
C23	C	-3.874978	-0.161075	-0.765472
C24	C	-4.061271	-0.166435	-0.817793
C25	C	-4.090704	-0.164948	-0.926756
C26	C	-3.845537	-0.162561	-0.656500
C27	C	-4.110531	0.062203	-0.290071
C28	C	-4.027048	0.203488	-0.290883
C29	C	-4.163791	-0.162312	-0.120566
C30	C	-4.114171	-0.163763	-0.013611
H31	H	-4.500253	-0.801663	-0.372872
H32	H	-4.462801	-0.769264	-0.235873
O33	O	-4.225238	-0.173484	-0.773600
C34	C	-4.273294	-0.285171	-0.728794
H35	H	-4.215096	-0.358412	-0.765505
H36	H	-4.191496	-0.259515	-0.648393
C37	C	-4.586383	-0.252937	-0.693782
C38	C	-4.514918	-0.342898	-0.738876
H39	H	-4.735425	-0.288544	-0.699996
H40	H	-4.554003	-0.177689	-0.723964
H41	H	-4.518198	-0.231565	-0.626784
H42	H	-4.583082	-0.364256	-0.805874
H43	H	-4.547315	-0.418152	-0.708705
H44	H	-3.690459	-0.772469	-0.282259
H45	H	-3.737604	-0.155370	-0.802510
O46	O	-4.357033	-0.547995	-0.221360
C47	C	-4.159684	-0.458189	-0.171590
H48	H	-4.026381	-0.488695	-0.192043
H49	H	-4.145337	-0.359269	-0.192714
C50	C	-4.307285	-0.415041	-0.035938
C51	C	-4.143561	-0.452515	-0.061053
H52	H	-4.297340	-0.411534	0.032246
H53	H	-4.440245	-0.475540	-0.069470
H54	H	-4.295311	-0.332610	-0.053549
H55	H	-4.155553	-0.534950	-0.043453
H56	H	-4.010601	-0.392028	-0.027515
O57	O	-4.439448	-0.588211	-0.385796
C58	C	-4.659263	-0.639906	-0.390636
H59	H	-4.691921	-0.719571	-0.343437
H60	H	-4.717617	-0.561005	-0.363138
C61	C	-4.736325	-0.597500	-0.554796
C62	C	-4.776437	-0.695353	-0.496831
H63	H	-4.808607	-0.631697	-0.620302
H64	H	-4.588231	-0.562667	-0.551535
H65	H	-4.784953	-0.531757	-0.531869
H66	H	-4.727785	-0.761086	-0.519750
H67	H	-4.924526	-0.730198	-0.500099
H68	H	-3.583555	-0.531627	-0.283631
