data_functionalizedCrystal
_audit_creation_method	'MofGen! by Chris Wilmer'
_symmetry_space_group_name_H-M	'P1'
_symmetry_Int_Tables_number	1
_symmetry_cell_setting	triclinic
loop_
_symmetry_equiv_pos_as_xyz
  x,y,z
_cell_length_a	10.654550
_cell_length_b	22.610064
_cell_length_c	10.654551
_cell_angle_alpha	89.993053
_cell_angle_beta	84.485132
_cell_angle_gamma	90.011830
loop_
_atom_site_label
_atom_site_type_symbol
_atom_site_fract_x
_atom_site_fract_y
_atom_site_fract_z
O1	O	1.667851	0.049229	0.176382
O2	O	1.302372	0.049219	0.193188
O3	O	1.493514	0.049225	0.002045
O4	O	1.476709	0.049224	0.367524
O5	O	1.493480	-0.049144	0.002073
O6	O	1.302338	-0.049150	0.193216
O7	O	1.667817	-0.049140	0.176409
Zn8	Zn	1.485072	-0.064763	0.184817
Zn9	Zn	1.485117	0.064842	0.184780
O10	O	1.476675	-0.049145	0.367552
C11	C	1.255557	0.000034	0.191968
C12	C	1.116114	0.000030	0.188276
N13	N	1.485051	-0.153216	0.184841
C14	C	1.036629	0.000038	0.300817
C15	C	0.905608	0.000048	0.297341
C16	C	0.933570	0.000045	0.068771
C17	C	1.064589	0.000030	0.072249
C18	C	1.088154	0.000038	0.416844
C19	C	1.008667	0.000047	0.529395
C20	C	0.877647	0.000057	0.525918
C21	C	0.826112	0.000059	0.409891
C22	C	1.569758	-0.561855	0.100156
C23	C	1.569764	-0.623775	0.100147
O24	O	1.641732	-0.655791	0.028162
N25	N	1.485115	-0.654753	0.184754
C26	C	1.400446	-0.623808	0.269368
O27	O	1.328445	-0.655843	0.341332
C28	C	1.400435	-0.561889	0.269370
C29	C	1.485098	-0.530914	0.184765
C30	C	1.654413	-0.530879	0.015557
C31	C	1.654408	-0.468964	0.015568
C32	C	1.569748	-0.438023	0.100178
C33	C	1.485093	-0.468998	0.184776
C34	C	1.315760	-0.530945	0.353976
C35	C	1.315755	-0.469022	0.353970
C36	C	1.400418	-0.438047	0.269366
C37	C	1.400427	-0.376142	0.269397
N38	N	1.485076	-0.345164	0.184789
C39	C	1.569737	-0.376105	0.100179
C40	C	1.400475	-0.753842	0.269356
C41	C	1.400491	-0.815759	0.269361
C42	C	1.569809	-0.815721	0.100138
C43	C	1.569797	-0.753803	0.100140
C44	C	1.485124	-0.722863	0.184748
C45	C	1.569720	-0.246077	0.100210
C46	C	1.569711	-0.184156	0.100232
C47	C	1.400390	-0.184199	0.269450
C48	C	1.400403	-0.246115	0.269433
C49	C	1.485073	-0.277052	0.184802
O50	O	1.328493	-0.344086	0.341341
O51	O	1.641714	-0.344062	0.028217
C52	C	1.714632	0.000047	0.177629
C53	C	1.854075	0.000055	0.181321
C54	C	1.492263	0.000041	-0.044739
C55	C	1.488570	0.000045	-0.184182
N56	N	1.485148	0.153295	0.184746
C57	C	1.486856	0.053665	-0.249709
C58	C	1.483376	0.053663	-0.380729
C59	C	1.483329	-0.053585	-0.380684
C60	C	1.486800	-0.053582	-0.249665
C61	C	1.488626	0.107292	-0.184225
C62	C	1.486914	0.160917	-0.249753
C63	C	1.483434	0.160914	-0.380773
C64	C	1.481666	0.107287	-0.446266
C65	C	1.477926	0.000039	0.414336
C66	C	1.481619	0.000039	0.553779
H67	H	1.194836	0.000032	0.419687
N68	N	1.488743	0.215692	-0.182861
N69	N	1.576747	0.251594	-0.208322
H70	H	1.578041	0.290281	-0.161081
H71	H	1.482027	0.204577	-0.434120
H72	H	1.478814	0.107289	-0.552949
H73	H	1.488169	-0.097244	-0.196309
H74	H	0.719425	0.000058	0.407069
H75	H	1.481890	-0.097246	-0.434019
N76	N	1.656281	-0.847324	0.013682
N77	N	1.731857	-0.819666	-0.061864
H78	H	1.792925	-0.841986	-0.122921
H79	H	1.050636	0.000041	0.623860
N80	N	1.740885	-0.562472	-0.070903
N81	N	1.738150	-0.555536	-0.187002
H82	H	1.799230	-0.577842	-0.248071
H83	H	0.812931	0.000059	0.617562
N84	N	1.145786	0.000036	-0.042709
N85	N	1.222052	0.041495	-0.066280
H86	H	1.279398	0.041498	-0.147473
H87	H	0.891600	0.000055	-0.025693
H88	H	1.638665	-0.271260	0.031294
N89	N	1.656175	-0.152522	0.013776
N90	N	1.653425	-0.159431	-0.102324
H91	H	1.714481	-0.137090	-0.163389
N92	N	1.740990	-0.437338	-0.070772
N93	N	1.816626	-0.464981	-0.146243
H94	H	1.877812	-0.442649	-0.207194
N95	N	1.656221	-0.722174	0.013646
N96	N	1.731760	-0.749815	-0.061927
H97	H	1.792776	-0.727481	-0.123045
H98	H	1.491464	0.107301	-0.077542
H99	H	1.331464	-0.158998	0.338342
H100	H	1.331564	-0.840975	0.338267
H101	H	1.331527	-0.728654	0.338264
H102	H	1.246819	-0.556157	0.422868
H103	H	1.331475	-0.271335	0.338338
N104	N	1.229247	-0.437429	0.440403
N105	N	1.153669	-0.465097	0.515927
H106	H	1.092573	-0.442786	0.576972
