data_functionalizedCrystal
_audit_creation_method	'MofGen! by Chris Wilmer'
_symmetry_space_group_name_H-M	'P1'
_symmetry_Int_Tables_number	1
_symmetry_cell_setting	triclinic
loop_
_symmetry_equiv_pos_as_xyz
  x,y,z
_cell_length_a	16.959455
_cell_length_b	18.050583
_cell_length_c	16.959454
_cell_angle_alpha	89.967998
_cell_angle_beta	90.017095
_cell_angle_gamma	89.979063
loop_
_atom_site_label
_atom_site_type_symbol
_atom_site_fract_x
_atom_site_fract_y
_atom_site_fract_z
Zn1	Zn	1.208388	-0.420032	-0.314688
Zn2	Zn	1.208309	-0.295851	-0.446892
Zn3	Zn	1.076215	-0.295845	-0.314725
Zn4	Zn	1.076181	-0.419989	-0.446821
O5	O	1.142274	-0.357929	-0.380781
O6	O	1.318989	-0.403580	-0.332239
O7	O	1.190768	-0.191926	-0.429405
O8	O	1.093796	-0.312335	-0.204109
O9	O	1.318931	-0.312344	-0.429369
O10	O	1.190902	-0.403574	-0.204082
O11	O	1.093719	-0.191922	-0.332302
O12	O	0.965600	-0.312293	-0.332233
O13	O	1.093738	-0.523919	-0.429248
O14	O	0.965575	-0.403501	-0.429284
O15	O	1.190869	-0.523951	-0.332170
O16	O	1.190735	-0.312303	-0.557494
O17	O	1.093661	-0.403506	-0.557441
C18	C	0.936907	-0.357892	-0.380756
C19	C	0.849051	-0.357894	-0.380764
C20	C	0.477534	-0.310399	-0.431307
C21	C	0.477616	-0.405550	-0.330322
C22	C	0.560162	-0.405532	-0.330308
C23	C	0.601398	-0.357948	-0.380796
C24	C	0.560088	-0.310381	-0.431297
C25	C	0.601478	-0.453103	-0.279814
C26	C	0.684029	-0.453087	-0.279800
C27	C	0.725266	-0.405499	-0.330284
C28	C	0.683951	-0.357930	-0.380787
C29	C	0.725187	-0.310345	-0.431274
C30	C	0.683874	-0.262772	-0.481773
C31	C	0.601325	-0.262792	-0.481782
C32	C	0.807815	-0.405478	-0.330276
C33	C	0.807741	-0.310327	-0.431265
C34	C	1.142309	-0.551635	-0.380697
C35	C	1.142323	-0.634181	-0.380661
C36	C	1.195197	-0.833649	-0.327845
C37	C	1.123102	-0.883037	-0.308495
C38	C	1.142355	-0.785311	-0.380648
C39	C	1.214478	-0.883006	-0.399947
C40	C	1.142392	-0.931297	-0.380633
C41	C	1.070223	-0.833612	-0.361261
C42	C	1.161647	-0.833577	-0.452746
C43	C	1.089503	-0.882942	-0.433424
C44	C	1.142335	-0.701213	-0.380654
C45	C	1.142404	-1.015393	-0.380627
C46	C	1.348442	-0.357967	-0.380808
C47	C	1.436298	-0.357984	-0.380819
C48	C	1.142207	-0.357917	-0.586148
C49	C	1.142251	-0.357936	-0.674004
C50	C	1.142284	-0.164977	-0.380808
C51	C	1.142423	-0.082432	-0.380622
C52	C	1.091801	-0.405414	-1.045483
C53	C	1.192967	-0.310521	-1.045477
C54	C	1.192939	-0.310514	-0.962931
C55	C	1.142341	-0.357957	-0.921657
C56	C	1.091770	-0.405407	-0.962929
C57	C	1.243504	-0.263059	-0.921653
C58	C	1.243477	-0.263050	-0.839102
C59	C	1.192882	-0.310497	-0.797827
C60	C	1.142310	-0.357950	-0.839104
C61	C	1.091711	-0.405393	-0.797830
C62	C	1.041142	-0.452850	-0.839105
C63	C	1.041174	-0.452855	-0.921654
C64	C	1.192850	-0.310493	-0.715278
C65	C	1.091680	-0.405386	-0.715276
C66	C	1.142362	-0.357958	-0.174613
C67	C	1.142399	-0.357971	-0.086757
H68	H	0.567898	-0.491848	-0.238715
O69	O	0.852213	-0.258996	-0.485716
H70	H	0.889840	-0.292159	-0.525967
H71	H	0.717659	-0.491824	-0.238680
H72	H	1.284654	-0.224409	-0.805501
O73	O	0.852371	-0.456784	-0.275814
H74	H	0.916700	-0.448780	-0.284290
O75	O	0.986562	-0.504011	-0.794580
H76	H	0.951397	-0.537007	-0.837144
H77	H	0.567681	-0.224060	-0.522895
H78	H	1.050480	-0.444024	-0.681676
O79	O	0.986620	-0.504023	-0.966169
H80	H	0.995132	-0.496046	-1.030504
O81	O	1.037249	-0.456590	-1.089992
H82	H	1.045763	-0.448623	-1.154328
O83	O	0.728358	-0.211448	-0.536222
H84	H	0.712518	-0.224087	-0.598278
O85	O	0.432984	-0.259088	-0.485772
H86	H	0.368654	-0.267092	-0.477302
O87	O	0.433146	-0.456867	-0.275863
H88	H	0.368804	-0.448884	-0.284349
O89	O	1.298082	-0.211887	-0.966153
H90	H	1.360099	-0.224683	-0.950239
H91	H	1.275456	-0.904705	-0.416275
O92	O	1.254264	-0.804925	-0.268660
H93	H	1.238060	-0.824720	-0.208848
O94	O	1.101498	-0.911823	-0.227728
H95	H	1.145429	-0.892089	-0.184006
H96	H	1.009227	-0.812006	-0.344861
O97	O	1.183269	-0.804770	-0.533495
H98	H	1.182484	-0.743286	-0.532883
H99	H	1.044781	-0.904449	-0.478072
O100	O	1.247561	-0.259371	-1.089988
H101	H	1.239097	-0.267357	-1.154323
H102	H	1.234019	-0.271851	-0.681676
