data_functionalizedCrystal
_audit_creation_method	'MofGen! by Chris Wilmer'
_symmetry_space_group_name_H-M	'P1'
_symmetry_Int_Tables_number	1
_symmetry_cell_setting	triclinic
loop_
_symmetry_equiv_pos_as_xyz
  x,y,z
_cell_length_a	15.995350
_cell_length_b	14.853567
_cell_length_c	13.930277
_cell_angle_alpha	90.000757
_cell_angle_beta	89.999152
_cell_angle_gamma	96.436348
loop_
_atom_site_label
_atom_site_type_symbol
_atom_site_fract_x
_atom_site_fract_y
_atom_site_fract_z
O1	O	1.111124	-0.116206	-0.079681
O2	O	0.867365	-0.130556	-0.079713
O3	O	0.995756	0.007858	-0.079699
O4	O	0.982734	-0.254619	-0.079695
O5	O	0.995738	0.007861	0.079963
O6	O	0.867348	-0.130553	0.079949
O7	O	1.111106	-0.116203	0.079981
Zn8	Zn	0.989224	-0.123377	0.105315
Zn9	Zn	0.989248	-0.123381	-0.105047
O10	O	0.982716	-0.254616	0.079967
C11	C	0.836161	-0.129961	0.000114
C12	C	0.743209	-0.128182	0.000101
C13	C	0.995157	0.041447	0.000129
C14	C	0.993389	0.141528	0.000121
C15	C	1.142311	-0.116798	0.000152
C16	C	1.235263	-0.118576	0.000159
C17	C	1.573018	-0.124963	0.000120
C18	C	1.525699	-0.223539	0.000482
C19	C	1.429006	-0.221760	0.000133
C20	C	1.405454	-0.121795	0.000140
C21	C	1.446468	-0.073176	-0.091037
C22	C	1.543107	-0.075652	-0.091124
C23	C	1.543476	-0.073613	0.090442
C24	C	1.446530	-0.073636	0.091657
C25	C	1.310754	-0.119999	0.000148
C26	C	1.667718	-0.126756	0.000106
C27	C	0.983315	-0.288206	0.000137
C28	C	0.985083	-0.388287	0.000139
N29	N	0.989214	-0.123374	0.248881
C30	C	0.909648	0.553949	0.000128
C31	C	1.062178	0.575436	0.000148
C32	C	1.063841	0.481405	0.000142
C33	C	0.988406	0.423641	0.000131
C34	C	0.911308	0.459909	0.000125
C35	C	1.140937	0.445129	0.000158
C36	C	1.142603	0.351093	0.000154
C37	C	1.067167	0.293327	0.000136
C38	C	0.990066	0.329600	0.000129
C39	C	0.914631	0.271837	0.000117
C40	C	0.837529	0.308108	0.000104
C41	C	0.835872	0.402144	0.000107
C42	C	1.068824	0.199292	0.000132
C43	C	0.916291	0.177796	0.000115
N44	N	0.989264	-0.123377	-0.248613
C45	C	0.932394	-0.184647	0.701144
C46	C	1.046124	-0.062109	0.701126
C47	C	1.046114	-0.062106	0.600630
C48	C	0.989244	-0.123375	0.550387
C49	C	0.932384	-0.184648	0.600639
C50	C	1.102979	-0.000841	0.550370
C51	C	1.102972	-0.000836	0.449868
C52	C	1.046097	-0.062102	0.399623
C53	C	0.989234	-0.123376	0.449882
C54	C	0.932364	-0.184646	0.399638
C55	C	0.875496	-0.245916	0.449895
C56	C	0.875509	-0.245913	0.550394
C57	C	1.046084	-0.062105	0.299124
C58	C	0.932354	-0.184646	0.299133
H59	H	1.544282	-0.262938	0.065861
H60	H	0.886040	-0.234536	0.258231
N61	N	0.874308	-0.247218	0.752488
N62	N	0.874316	-0.247209	0.842219
H63	H	0.833292	-0.291400	0.878483
H64	H	1.400633	-0.259983	0.065489
H65	H	1.431086	-0.000737	0.097165
N66	N	1.139230	0.634434	0.000143
N67	N	1.190485	0.631133	-0.067156
H68	H	1.244907	0.672804	-0.067162
N69	N	1.566140	-0.120141	-0.176608
N70	N	1.615882	-0.078995	-0.235144
H71	H	1.632149	-0.110421	-0.295515
N72	N	1.217979	0.504143	0.000178
N73	N	1.216483	0.588101	0.000175
H74	H	1.270896	0.629785	0.000187
N75	N	0.830895	0.590997	0.000140
N76	N	0.780014	0.573300	0.067442
H77	H	0.724394	0.599467	0.067454
N78	N	1.221363	0.314061	0.000169
N79	N	1.288709	0.365647	0.000181
H80	H	1.344335	0.339493	0.000190
H81	H	0.854861	0.130770	0.000102
H82	H	0.829196	-0.295806	0.408975
H83	H	1.432257	0.000266	-0.094423
H84	H	1.131599	0.169764	0.000149
H85	H	0.829210	-0.295798	0.591319
N86	N	1.583458	0.015134	-0.096352
N87	N	1.631048	0.038751	-0.165200
H88	H	1.659541	0.102869	-0.168900
H89	H	1.418097	-0.106924	-0.158885
H90	H	1.092430	-0.012229	0.742037
N91	N	1.161094	0.061698	0.601705
N92	N	1.161109	0.061669	0.691436
H93	H	1.202164	0.105828	0.727697
H94	H	1.149275	0.049054	0.408956
H95	H	1.092389	-0.012223	0.258210
H96	H	1.545333	-0.262764	-0.064538
N97	N	0.760483	0.249087	0.000104
N98	N	0.761985	0.165131	0.000113
H99	H	0.707574	0.123443	0.000115
H100	H	1.401182	-0.260235	-0.065334
N101	N	1.569303	-0.114046	0.177123
N102	N	1.609803	-0.181207	0.173380
H103	H	1.628044	-0.209772	0.234594
H104	H	0.773099	0.431685	0.000097
N105	N	1.412329	-0.118177	0.176265
N106	N	1.335130	-0.122797	0.192625
H107	H	1.310969	-0.154259	0.252376
N108	N	1.583227	0.017556	0.091211
N109	N	1.661655	0.032569	0.094162
H110	H	1.689734	0.096954	0.094699
