data_functionalizedCrystal
_audit_creation_method	'MofGen! by Chris Wilmer'
_symmetry_space_group_name_H-M	'P1'
_symmetry_Int_Tables_number	1
_symmetry_cell_setting	triclinic
loop_
_symmetry_equiv_pos_as_xyz
  x,y,z
_cell_length_a	14.971491
_cell_length_b	9.130313
_cell_length_c	10.654550
_cell_angle_alpha	89.995631
_cell_angle_beta	84.050583
_cell_angle_gamma	89.994628
loop_
_atom_site_label
_atom_site_type_symbol
_atom_site_fract_x
_atom_site_fract_y
_atom_site_fract_z
O1	O	1.187831	-0.121862	0.163687
O2	O	0.927538	-0.121851	0.183279
O3	O	1.063669	-0.121847	-0.009321
O4	O	1.051700	-0.121865	0.356286
O5	O	1.063660	0.121751	-0.009326
O6	O	0.927529	0.121748	0.183273
O7	O	1.187822	0.121737	0.163681
Cu8	Cu	1.057675	0.143985	0.173477
Cu9	Cu	1.057686	-0.144099	0.173483
O10	O	1.051691	0.121734	0.356280
C11	C	0.894204	-0.000050	0.182399
C12	C	0.794893	-0.000046	0.179769
C13	C	1.062786	-0.000049	-0.056112
C14	C	1.060157	-0.000051	-0.195527
C15	C	0.367131	-0.132865	0.168428
C16	C	0.460445	-0.132859	0.170894
C17	C	0.507092	-0.000069	0.172133
C18	C	0.460422	0.132726	0.170892
C19	C	0.367111	0.132719	0.168416
C20	C	0.654912	0.132731	0.176054
C21	C	0.748229	0.132738	0.178532
C22	C	0.748246	-0.132847	0.178532
C23	C	0.654935	-0.132854	0.176057
C24	C	0.608271	-0.000060	0.174818
C25	C	1.221156	-0.000067	0.164561
C26	C	1.320467	-0.000081	0.167191
N27	N	1.057673	0.346608	0.173471
N28	N	1.057694	-0.346721	0.173479
C29	C	1.117973	0.423261	0.088224
C30	C	1.117981	0.576598	0.088224
C31	C	0.997388	0.576614	0.258730
C32	C	0.997376	0.423280	0.258723
C33	C	1.140308	-0.000055	-0.275870
C34	C	1.137832	-0.000072	-0.406865
C35	C	0.975046	-0.000076	-0.377159
C36	C	0.977523	-0.000069	-0.246168
C37	C	1.052574	-0.000068	0.403072
C38	C	1.055204	-0.000076	0.542487
H39	H	0.329157	-0.240999	0.167428
Br40	Br	0.591585	0.312954	0.174354
H41	H	1.203100	-0.000079	-0.472276
H42	H	0.498435	-0.240985	0.171894
H43	H	0.329117	0.240845	0.167422
H44	H	0.912249	-0.000070	-0.180748
Br45	Br	0.811537	0.312956	0.180207
H46	H	0.907768	-0.000088	-0.418407
Br47	Br	0.915529	0.319238	0.374413
Br48	Br	0.591626	-0.313072	0.174392
Br49	Br	0.523729	0.312944	0.172566
Br50	Br	1.199803	0.319211	-0.027476
Br51	Br	0.811572	-0.313069	0.180235
Br52	Br	1.252453	-0.000029	-0.207147
H53	H	1.167081	0.639005	0.018807
H54	H	0.948297	0.639057	0.328142
