data_functionalizedCrystal
_audit_creation_method	'MofGen! by Chris Wilmer'
_symmetry_space_group_name_H-M	'P1'
_symmetry_Int_Tables_number	1
_symmetry_cell_setting	triclinic
loop_
_symmetry_equiv_pos_as_xyz
  x,y,z
_cell_length_a	17.038272
_cell_length_b	17.019448
_cell_length_c	9.482900
_cell_angle_alpha	103.131721
_cell_angle_beta	80.035009
_cell_angle_gamma	87.247973
loop_
_atom_site_label
_atom_site_type_symbol
_atom_site_fract_x
_atom_site_fract_y
_atom_site_fract_z
O1	O	1.047371	0.161696	-0.100495
O2	O	1.547371	0.661696	0.399505
O3	O	0.819782	0.158939	-0.100882
O4	O	1.319782	0.658939	0.399118
O5	O	0.941379	0.044534	-0.115154
O6	O	1.441379	0.544534	0.384846
O7	O	0.925775	0.276101	-0.086223
O8	O	1.425775	0.776101	0.413777
O9	O	0.916678	0.067872	0.129550
O10	O	1.416678	0.567872	0.629550
O11	O	0.795082	0.182277	0.143822
O12	O	1.295082	0.682277	0.643822
O13	O	1.022671	0.185034	0.144209
O14	O	1.522671	0.685034	0.644209
Cu15	Cu	0.906621	0.185786	0.166359
Cu16	Cu	1.406621	0.685786	0.666359
Cu17	Cu	0.935832	0.158186	-0.123032
Cu18	Cu	1.435832	0.658186	0.376968
O19	O	0.901074	0.299439	0.158481
O20	O	1.401074	0.799439	0.658481
C21	C	0.778338	0.168104	0.021151
C22	C	1.278338	0.668104	0.521151
C23	C	0.691646	0.160633	0.020201
C24	C	1.191646	0.660633	0.520201
C25	C	0.928921	0.026427	0.003474
C26	C	1.428921	0.526427	0.503474
C27	C	0.928589	-0.062296	-0.007621
C28	C	1.428589	0.437704	0.492379
C29	C	0.927480	-0.564755	-0.077224
C30	C	1.427480	-0.064755	0.422776
C31	C	0.927780	-0.481387	-0.066769
C32	C	1.427780	0.018613	0.433231
C33	C	0.914460	-0.426997	0.071847
C34	C	1.414460	0.073003	0.571847
C35	C	0.900846	-0.455979	0.200016
C36	C	1.400846	0.044021	0.700016
C37	C	0.900552	-0.539347	0.189559
C38	C	1.400552	-0.039347	0.689559
C39	C	0.914681	-0.174646	0.110092
C40	C	1.414681	0.325354	0.610092
C41	C	0.914975	-0.091274	0.120538
C42	C	1.414975	0.408726	0.620538
C43	C	0.941910	-0.116687	-0.146248
C44	C	1.441910	0.383313	0.353752
C45	C	0.941609	-0.200054	-0.156692
C46	C	1.441609	0.299946	0.343308
C47	C	0.928000	-0.229030	-0.028523
C48	C	1.428000	0.270970	0.471477
C49	C	0.914764	-0.341781	0.082537
C50	C	1.414764	0.158219	0.582537
C51	C	0.927701	-0.314245	-0.039214
C52	C	1.427701	0.185755	0.460786
C53	C	0.640614	0.229209	0.028770
C54	C	1.140614	0.729209	0.528770
C55	C	0.559156	0.222188	0.027913
C56	C	1.059156	0.722188	0.527913
C57	C	0.528732	0.146590	0.018476
C58	C	1.028732	0.646590	0.518476
C59	C	0.579770	0.078009	0.009911
C60	C	1.079770	0.578009	0.509911
C61	C	0.661226	0.085032	0.010779
C62	C	1.161226	0.585032	0.510779
C63	C	0.283302	0.121780	0.015416
C64	C	0.783302	0.621780	0.515416
C65	C	0.201840	0.114762	0.014544
C66	C	0.701840	0.614762	0.514544
C67	C	0.181231	0.258942	0.032549
C68	C	0.681231	0.758942	0.532549
C69	C	0.262690	0.265957	0.033407
C70	C	0.762690	0.765957	0.533407
C71	C	0.313721	0.197378	0.024849
C72	C	0.813721	0.697378	0.524849
C73	C	0.445469	0.139411	0.017595
C74	C	0.945469	0.639411	0.517595
C75	C	0.396981	0.204558	0.025741
C76	C	0.896981	0.704558	0.525741
C77	C	1.064116	0.175868	0.022173
C78	C	1.564116	0.675868	0.522173
C79	C	1.150808	0.183338	0.023113
C80	C	1.650808	0.683338	0.523113
C81	C	0.913533	0.317545	0.039850
C82	C	1.413533	0.817545	0.539850
C83	C	0.913865	0.406268	0.050935
C84	C	1.413865	0.906268	0.550935
N85	N	0.886081	0.205199	0.369901
N86	N	1.386081	0.705199	0.869901
N87	N	0.956378	0.138768	-0.326574
N88	N	1.456378	0.638768	0.173426
C89	C	0.929768	0.163907	0.436949
C90	C	1.429768	0.663907	0.936949
C91	C	0.912685	0.180065	0.606382
C92	C	1.412685	0.680065	1.106382
H93	H	0.938319	-0.609034	-0.190100
H94	H	1.438319	-0.109034	0.309900
H95	H	0.904104	-0.046988	0.233422
H96	H	1.404104	0.453012	0.733422
F97	F	1.021931	0.077064	0.584534
F98	F	1.521931	0.577064	1.084534
F99	F	0.820657	0.267037	0.458818
F100	F	1.320657	0.767037	0.958818
F101	F	0.995051	0.101914	0.348013
F102	F	1.495051	0.601914	0.848013
F103	F	0.942273	-0.450551	-0.203175
F104	F	1.442273	0.049449	0.296825
F105	F	0.886065	-0.570186	0.325965
F106	F	1.386065	-0.070186	0.825965
F107	F	0.847257	0.241907	0.695294
F108	F	1.347257	0.741907	1.195294
H109	H	0.952461	-0.244335	-0.269568
H110	H	1.452461	0.255665	0.230432
F111	F	0.413083	0.058955	0.007547
F112	F	0.913083	0.558955	0.507547
F113	F	0.956405	-0.085843	-0.282645
F114	F	1.456405	0.414157	0.217355
F115	F	0.169461	0.034299	0.004526
F116	F	0.669461	0.534299	0.504526
F117	F	0.886675	-0.398092	0.347542
F118	F	1.386675	0.101908	0.847542
F119	F	0.941883	-0.372132	-0.186735
F120	F	1.441883	0.127868	0.313265
F121	F	0.900191	-0.205473	0.246502
F122	F	1.400191	0.294527	0.746502
H123	H	0.554991	0.016457	0.002249
H124	H	1.054991	0.516457	0.502249
F125	F	0.900586	-0.283888	0.230059
F126	F	1.400586	0.216112	0.730059
H127	H	0.665378	0.290769	0.036453
H128	H	1.165378	0.790769	0.536453
H129	H	0.517608	0.278030	0.034889
H130	H	1.017608	0.778030	0.534889
F131	F	0.295064	0.346419	0.043443
F132	F	0.795064	0.846419	0.543443
F133	F	0.126916	0.331925	0.041659
F134	F	0.626916	0.831925	0.541659
H135	H	0.324842	0.065938	0.008449
H136	H	0.824842	0.565938	0.508449
H137	H	0.702777	0.029190	0.003801
H138	H	1.202777	0.529190	0.503801
H139	H	0.421755	0.266111	0.033432
H140	H	0.921755	0.766111	0.533432
