data_functionalizedCrystal
_audit_creation_method	'MofGen! by Chris Wilmer'
_symmetry_space_group_name_H-M	'P1'
_symmetry_Int_Tables_number	1
_symmetry_cell_setting	triclinic
loop_
_symmetry_equiv_pos_as_xyz
  x,y,z
_cell_length_a	6.817900
_cell_length_b	15.866870
_cell_length_c	16.305550
_cell_angle_alpha	112.498803
_cell_angle_beta	103.455250
_cell_angle_gamma	102.655915
loop_
_atom_site_label
_atom_site_type_symbol
_atom_site_fract_x
_atom_site_fract_y
_atom_site_fract_z
V1	V	-4.051892	-0.133572	-0.304568
O2	O	-4.012769	0.005585	-0.256287
O3	O	-4.028396	-0.264050	-0.343343
O4	O	-4.002974	-0.131883	-0.418760
O5	O	-4.038366	-0.127496	-0.180349
V6	V	-4.532361	-0.116884	-0.284747
O7	O	-4.319852	-0.170179	-0.348047
O8	O	-4.714598	-0.080277	-0.241268
O9	O	-4.332650	0.013593	-0.245972
O10	O	-4.688881	-0.256042	-0.333028
O11	O	-4.663283	-0.122960	-0.408966
O12	O	-4.358072	-0.118573	-0.170555
C13	C	-3.879472	-0.295846	-0.349082
C14	C	-3.941544	-0.402515	-0.381546
C15	C	-3.847043	-0.127253	-0.445281
C16	C	-3.888495	-0.126736	-0.538902
C17	C	-3.931812	-0.683673	-0.080408
C18	C	-3.990147	-0.783910	-0.110942
C19	C	-4.075699	-0.811764	-0.274110
C20	C	-4.017359	-0.711528	-0.243590
C21	C	-3.945421	-0.647489	-0.146738
C22	C	-4.030968	-0.675344	-0.309919
C23	C	-3.972644	-0.575116	-0.279401
C24	C	-3.900711	-0.511072	-0.182553
C25	C	-3.887097	-0.547262	-0.116220
C26	C	-4.102922	-0.739384	-0.406771
C27	C	-4.116531	-0.703201	-0.473100
C28	C	-4.058192	-0.602971	-0.442582
C29	C	-3.986259	-0.538927	-0.345735
C30	C	-4.071807	-0.566781	-0.508916
C31	C	-4.013483	-0.466554	-0.478398
C32	C	-3.927935	-0.438699	-0.315217
C33	C	-4.039197	-0.124730	-0.879024
C34	C	-3.802006	-0.118776	-0.836244
C35	C	-3.758992	-0.119712	-0.739040
C36	C	-3.964430	-0.125724	-0.710285
C37	C	-4.149659	-0.220491	-0.790381
C38	C	-4.191420	-0.219955	-0.887764
C39	C	-4.077045	-0.036675	-0.805798
C40	C	-4.028971	-0.035924	-0.707722
C41	C	-3.922189	-0.126290	-0.614923
C42	C	-4.081448	-0.124171	-0.974389
C43	C	-4.144918	0.045385	-0.240233
C44	C	-4.062084	0.152053	-0.207774
C45	C	-4.177347	-0.123206	-0.144030
C46	C	-4.115132	-0.123719	-0.050407
H47	H	-3.853231	-0.429461	-0.157708
N48	N	-4.354531	-0.230880	-0.768562
H49	H	-4.470721	-0.232166	-0.820848
H50	H	-4.328996	-0.174107	-0.706375
N51	N	-4.093191	-0.308815	-0.795582
H52	H	-4.089107	-0.346682	-0.860630
H53	H	-4.204872	-0.351214	-0.783399
N54	N	-3.809499	-0.478185	-0.011756
H55	H	-3.907879	-0.439315	0.000639
H56	H	-3.658893	-0.432708	0.008371
N57	N	-4.165850	-0.847489	-0.439692
H58	H	-4.038627	-0.862838	-0.411118
H59	H	-4.213547	-0.882491	-0.511112
H60	H	-3.873200	-0.631528	-0.001541
H61	H	-4.024596	-0.437094	-0.532411
N62	N	-3.937727	0.058442	-0.793925
H63	H	-3.848659	0.045412	-0.835901
H64	H	-3.839720	0.099440	-0.725568
N65	N	-3.975477	-0.822938	-0.039396
H66	H	-3.921058	-0.767159	0.026587
H67	H	-3.873327	-0.860583	-0.044601
N68	N	-4.194172	-0.772273	-0.577560
H69	H	-4.229073	-0.841259	-0.586830
H70	H	-4.078189	-0.757513	-0.603966
N71	N	-4.160480	-0.308248	-0.955468
H72	H	-4.187240	-0.308783	-1.019277
H73	H	-4.264754	-0.368888	-0.962662
H74	H	-4.134286	-0.863918	-0.352968
N75	N	-3.850821	0.056928	-0.633307
H76	H	-3.893261	0.114427	-0.631988
H77	H	-3.715329	0.060168	-0.648956
H78	H	-3.619411	-0.051574	-0.682828
H79	H	-4.130406	-0.618936	-0.587774
N80	N	-4.223665	-0.034310	-0.678885
H81	H	-4.273028	-0.092032	-0.667033
H82	H	-4.342780	-0.037336	-0.731265
N83	N	-4.423789	-0.230957	-0.928268
H84	H	-4.519229	-0.294302	-0.936581
H85	H	-4.452506	-0.230652	-0.991758
H86	H	-4.249786	-0.040194	-0.833708
N87	N	-3.850344	-0.369622	-0.210754
H88	H	-3.815467	-0.300639	-0.201490
H89	H	-3.717367	-0.377721	-0.176559
H90	H	-3.682722	-0.050317	-0.827319
H91	H	-3.769062	-0.182040	-0.887429
H92	H	-3.704853	-0.183706	-0.742647
