data_functionalizedCrystal
_audit_creation_method	'MofGen! by Chris Wilmer'
_symmetry_space_group_name_H-M	'P1'
_symmetry_Int_Tables_number	1
_symmetry_cell_setting	triclinic
loop_
_symmetry_equiv_pos_as_xyz
  x,y,z
_cell_length_a	17.699083
_cell_length_b	23.532407
_cell_length_c	16.776229
_cell_angle_alpha	89.988688
_cell_angle_beta	89.998886
_cell_angle_gamma	83.065847
loop_
_atom_site_label
_atom_site_type_symbol
_atom_site_fract_x
_atom_site_fract_y
_atom_site_fract_z
O1	O	1.003713	0.072020	-0.066185
O2	O	1.503713	0.572020	0.433815
O3	O	0.783287	0.081390	-0.066212
O4	O	1.283287	0.581390	0.433788
O5	O	0.900147	-0.006208	-0.066183
O6	O	1.400147	0.493792	0.433817
O7	O	0.886853	0.159617	-0.066214
O8	O	1.386853	0.659617	0.433786
O9	O	0.900132	-0.006213	0.066394
O10	O	1.400132	0.493787	0.566394
O11	O	0.783272	0.081384	0.066365
O12	O	1.283272	0.581384	0.566365
O13	O	1.003698	0.072015	0.066392
O14	O	1.503698	0.572015	0.566392
Zn15	Zn	0.893482	0.076699	0.087428
Zn16	Zn	1.393482	0.576699	0.587428
Zn17	Zn	0.893503	0.076706	-0.087248
Zn18	Zn	1.393503	0.576706	0.412752
O19	O	0.886838	0.159612	0.066363
O20	O	1.386838	0.659612	0.566363
C21	C	0.755084	0.081051	0.000073
C22	C	1.255084	0.581051	0.500073
C23	C	0.671071	0.080044	0.000063
C24	C	1.171071	0.580044	0.500063
C25	C	0.899801	-0.027427	0.000107
C26	C	1.399801	0.472573	0.500107
C27	C	0.898783	-0.090647	0.000113
C28	C	1.398783	0.409353	0.500113
C29	C	0.622189	0.131462	0.000054
C30	C	1.122189	0.631462	0.500054
C31	C	0.543251	0.130512	0.000065
C32	C	1.043251	0.630512	0.500065
C33	C	0.513196	0.078144	0.000079
C34	C	1.013196	0.578144	0.500079
C35	C	0.562084	0.026722	0.000090
C36	C	1.062084	0.526722	0.500090
C37	C	0.641021	0.027672	0.000086
C38	C	1.141021	0.527672	0.500086
C39	C	0.243740	0.022888	0.000111
C40	C	0.743740	0.522888	0.500111
C41	C	0.164797	0.021942	0.000113
C42	C	0.664797	0.521942	0.500113
C43	C	0.145970	0.125728	0.000090
C44	C	0.645970	0.625728	0.500090
C45	C	0.224907	0.126678	0.000085
C46	C	0.724907	0.626678	0.500085
C47	C	0.273788	0.075257	0.000101
C48	C	0.773788	0.575257	0.500101
C49	C	0.359382	0.076287	0.000091
C50	C	0.859382	0.576287	0.500091
C51	C	0.427603	0.077113	0.000083
C52	C	0.927603	0.577113	0.500083
C53	C	0.961554	-0.489570	0.000077
C54	C	1.461554	0.010430	0.500077
C55	C	0.960609	-0.548973	0.000071
C56	C	1.460609	-0.048973	0.500071
O57	O	1.018799	-0.585550	0.000049
O58	O	1.518799	-0.085550	0.500049
N59	N	0.891136	-0.571799	0.000063
N60	N	1.391136	-0.071799	0.500063
C61	C	0.822604	-0.535218	0.000053
C62	C	1.322604	-0.035218	0.500053
O63	O	0.763424	-0.560088	0.000045
O64	O	1.263424	-0.060088	0.500045
C65	C	0.823550	-0.475816	0.000054
C66	C	1.323550	0.024184	0.500054
C67	C	0.893028	-0.452994	0.000070
C68	C	1.393028	0.047006	0.500070
C69	C	1.031026	-0.466747	0.000093
C70	C	1.531026	0.033253	0.500093
C71	C	1.031972	-0.407348	0.000100
C72	C	1.531972	0.092652	0.500100
C73	C	0.963445	-0.370772	0.000093
C74	C	1.463445	0.129228	0.500093
C75	C	0.893973	-0.393595	0.000078
C76	C	1.393973	0.106405	0.500078
C77	C	0.755019	-0.439237	0.000038
C78	C	1.255019	0.060763	0.500038
C79	C	0.755971	-0.379832	0.000038
C80	C	1.255971	0.120168	0.500038
C81	C	0.825448	-0.357009	0.000054
C82	C	1.325448	0.142991	0.500054
C83	C	0.826391	-0.297620	0.000078
C84	C	1.326391	0.202380	0.500078
N85	N	0.895864	-0.274795	0.000086
N86	N	1.395864	0.225205	0.500086
C87	C	0.964391	-0.311371	0.000093
C88	C	1.464391	0.188629	0.500093
C89	C	0.820622	-0.659966	0.000051
C90	C	1.320622	-0.159966	0.500051
C91	C	0.819674	-0.719367	0.000056
C92	C	1.319674	-0.219367	0.500056
C93	C	0.957680	-0.733118	0.000073
C94	C	1.457680	-0.233118	0.500073
C95	C	0.958626	-0.673716	0.000073
C96	C	1.458626	-0.173716	0.500073
C97	C	0.890095	-0.637141	0.000059
C98	C	1.390095	-0.137141	0.500059
C99	C	0.966371	-0.186628	0.000110
C100	C	1.466371	0.313372	0.500110
C101	C	0.967310	-0.127223	0.000121
C102	C	1.467310	0.372777	0.500121
C103	C	0.829305	-0.113478	0.000100
C104	C	1.329305	0.386522	0.500100
C105	C	0.828365	-0.172877	0.000094
C106	C	1.328365	0.327123	0.500094
C107	C	0.896904	-0.209452	0.000096
C108	C	1.396904	0.290548	0.500096
O109	O	0.768232	-0.261008	0.000097
O110	O	1.268232	0.238992	0.500097
O111	O	1.023560	-0.286493	0.000091
O112	O	1.523560	0.213507	0.500091
C113	C	1.031901	0.072353	0.000105
C114	C	1.531901	0.572353	0.500105
C115	C	1.115914	0.073360	0.000110
C116	C	1.615914	0.573360	0.500110
C117	C	0.887184	0.180832	0.000071
C118	C	1.387184	0.680832	0.500071
C119	C	0.888202	0.244052	0.000060
C120	C	1.388202	0.744052	0.500060
N121	N	0.893474	0.076693	0.206639
N122	N	1.393474	0.576693	0.706639
N123	N	0.893517	0.076706	-0.206459
N124	N	1.393517	0.576706	0.293541
C125	C	0.945235	0.037921	0.248369
C126	C	1.445235	0.537921	0.748369
C127	C	0.945239	0.037921	0.331821
C128	C	1.445239	0.537921	0.831821
C129	C	0.893485	0.076696	0.373542
C130	C	1.393485	0.576696	0.873542
C131	C	0.841719	0.115470	0.331806
C132	C	1.341719	0.615470	0.831806
C133	C	0.841712	0.115467	0.248355
C134	C	1.341712	0.615467	0.748355
C135	C	0.841746	0.115481	0.668353
C136	C	1.341746	0.615481	1.168353
C137	C	0.841759	0.115482	0.751810
C138	C	1.341759	0.615482	1.251810
C139	C	0.945274	0.037935	0.751819
C140	C	1.445274	0.537935	1.251819
C141	C	0.945267	0.037932	0.668368
C142	C	1.445267	0.537932	1.168368
C143	C	0.893498	0.076704	0.626640
C144	C	1.393498	0.576704	1.126640
C145	C	0.893493	0.076703	0.536151
C146	C	1.393493	0.576703	1.036151
C147	C	0.893493	0.076699	0.464029
C148	C	1.393493	0.576699	0.964029
H149	H	0.646653	0.174106	0.000042
H150	H	1.146653	0.674106	0.500042
O151	O	1.024300	-0.768596	-0.000034
O152	O	1.524300	-0.268596	0.499966
C153	C	1.141942	-0.798547	-0.068738
C154	C	1.641942	-0.298547	0.431262
C155	C	1.066538	-0.758327	-0.068708
C156	C	1.566538	-0.258327	0.431292
H157	H	1.176105	-0.790267	-0.124264
H158	H	1.676105	-0.290267	0.375736
H159	H	1.176207	-0.790267	-0.013290
H160	H	1.676207	-0.290267	0.486710
H161	H	1.129308	-0.844917	-0.068706
H162	H	1.629308	-0.344917	0.431294
H163	H	1.079103	-0.711942	-0.068768
H164	H	1.579103	-0.211942	0.431232
H165	H	1.032295	-0.766656	-0.124151
H166	H	1.532295	-0.266656	0.375849
O167	O	0.291183	-0.027077	-0.000021
O168	O	0.791183	0.472923	0.499979
C169	C	0.331383	-0.115511	-0.068662
C170	C	0.831383	0.384489	0.431338
C171	C	0.277621	-0.058937	-0.068622
C172	C	0.777621	0.441063	0.431378
H173	H	0.320426	-0.141291	-0.124112
H174	H	0.820426	0.358709	0.375888
H175	H	0.392981	-0.105878	-0.068716
H176	H	0.892981	0.394122	0.431284
H177	H	0.320505	-0.141265	-0.013149
H178	H	0.820505	0.358735	0.486851
H179	H	0.288430	-0.033156	-0.124126
H180	H	0.788430	0.466844	0.375874
H181	H	0.216040	-0.068610	-0.068527
H182	H	0.716040	0.431390	0.431473
O183	O	0.791404	0.153168	0.792215
O184	O	1.291404	0.653168	1.292215
C185	C	0.688745	0.230102	0.783405
C186	C	1.188745	0.730102	1.283405
C187	C	0.745714	0.187448	0.737546
C188	C	1.245714	0.687448	1.237546
H189	H	0.651801	0.257837	0.739225
H190	H	1.151801	0.757837	1.239225
H191	H	0.651083	0.205574	0.822467
H192	H	1.151083	0.705574	1.322467
H193	H	0.721220	0.258500	0.822481
H194	H	1.221220	0.758500	1.322481
H195	H	0.713302	0.159039	0.698427
H196	H	1.213302	0.659039	1.198427
H197	H	0.783376	0.212012	0.698534
H198	H	1.283376	0.712012	1.198534
H199	H	0.773512	-0.083687	0.000097
H200	H	1.273512	0.416313	0.500097
O201	O	0.791571	0.153174	0.627742
O202	O	1.291571	0.653174	1.127742
C203	C	0.774868	0.231001	0.533554
C204	C	1.274868	0.731001	1.033554
C205	C	0.831774	0.188331	0.579483
C206	C	1.331774	0.688331	1.079483
H207	H	0.807350	0.259444	0.494538
H208	H	1.307350	0.759444	0.994538
H209	H	0.737244	0.206487	0.494441
H210	H	1.237244	0.706487	0.994441
H211	H	0.737875	0.258689	0.577730
H212	H	1.237875	0.758689	1.077730
H213	H	0.868818	0.160632	0.535364
H214	H	1.368818	0.660632	1.035364
H215	H	0.869346	0.212879	0.618607
H216	H	1.369346	0.712879	1.118607
H217	H	0.799561	0.147039	0.214380
H218	H	1.299561	0.647039	0.714380
H219	H	0.140330	-0.020705	0.000126
H220	H	0.640330	0.479295	0.500126
O221	O	0.688477	-0.022290	-0.000051
O222	O	1.188477	0.477710	0.499949
C223	C	0.728695	-0.110720	-0.068693
C224	C	1.228695	0.389280	0.431307
C225	C	0.674921	-0.054153	-0.068651
C226	C	1.174921	0.445847	0.431349
H227	H	0.717742	-0.136503	-0.124143
H228	H	1.217742	0.363497	0.375857
H229	H	0.790290	-0.101079	-0.068749
H230	H	1.290290	0.398921	0.431251
H231	H	0.717824	-0.136476	-0.013179
H232	H	1.217824	0.363524	0.486821
H233	H	0.685722	-0.028369	-0.124156
H234	H	1.185722	0.471631	0.375844
H235	H	0.613343	-0.063834	-0.068555
H236	H	1.113343	0.436166	0.431445
O237	O	1.034871	-0.105150	0.000098
O238	O	1.534871	0.394850	0.500098
C239	C	1.171652	-0.125069	0.000160
C240	C	1.671652	0.374931	0.500160
C241	C	1.095198	-0.150141	0.000169
C242	C	1.595198	0.349859	0.500169
H243	H	1.220447	-0.161432	0.000234
H244	H	1.720447	0.338568	0.500234
H245	H	1.175605	-0.097613	-0.055333
H246	H	1.675605	0.402387	0.444667
H247	H	1.175501	-0.097593	0.055633
H248	H	1.675501	0.402407	0.555633
H249	H	1.091298	-0.177642	-0.055267
H250	H	1.591298	0.322358	0.444733
H251	H	1.091278	-0.177564	0.055699
H252	H	1.591278	0.322436	0.555699
O253	O	0.532928	-0.024164	0.000244
O254	O	1.032928	0.475836	0.500244
C255	C	0.524913	-0.113183	0.068917
C256	C	1.024913	0.386817	0.568917
C257	C	0.557964	-0.055568	0.068857
C258	C	1.057964	0.444432	0.568857
H259	H	0.545154	-0.138594	0.124376
H260	H	1.045154	0.361406	0.624376
H261	H	0.460095	-0.105066	0.068967
H262	H	0.960095	0.394934	0.568967
H263	H	0.545065	-0.138559	0.013413
H264	H	1.045065	0.361441	0.513413
H265	H	0.537870	-0.030162	0.124352
H266	H	1.037870	0.469838	0.624352
H267	H	0.622779	-0.063725	0.068766
H268	H	1.122779	0.436275	0.568766
O269	O	0.791339	0.153078	0.372297
O270	O	1.291339	0.653078	0.872297
C271	C	0.659490	0.186591	0.397804
C272	C	1.159490	0.686591	0.897804
C273	C	0.716461	0.143959	0.351913
C274	C	1.216461	0.643959	0.851913
H275	H	0.598938	0.179241	0.381327
H276	H	1.098938	0.679241	0.881327
H277	H	0.668322	0.179934	0.464626
H278	H	1.168322	0.679934	0.964626
H279	H	0.669039	0.232192	0.381389
H280	H	1.169039	0.732192	0.881389
H281	H	0.706946	0.098340	0.368261
H282	H	1.206946	0.598340	0.868261
H283	H	0.707615	0.150666	0.285103
H284	H	1.207615	0.650666	0.785103
H285	H	1.022182	-0.216401	0.000109
H286	H	1.522182	0.283599	0.500109
H287	H	1.015201	-0.655139	0.000086
H288	H	1.515201	-0.155139	0.500086
H289	H	0.764811	-0.630189	0.000046
H290	H	1.264811	-0.130189	0.500046
O291	O	0.495875	0.180512	0.000019
O292	O	0.995875	0.680512	0.500019
C293	C	0.485531	0.283558	0.000040
C294	C	0.985531	0.783558	0.500040
C295	C	0.539270	0.226973	0.000070
C296	C	1.039270	0.726973	0.500070
H297	H	0.520594	0.321136	0.000099
H298	H	1.020594	0.821136	0.500099
H299	H	0.448112	0.285749	-0.055452
H300	H	0.948112	0.785749	0.444548
H301	H	0.448094	0.285676	0.055514
H302	H	0.948094	0.785676	0.555514
H303	H	0.576755	0.224817	-0.055366
H304	H	1.076755	0.724817	0.444634
H305	H	0.576637	0.224806	0.055599
H306	H	1.076637	0.724806	0.555599
H307	H	0.249373	0.169322	0.000070
H308	H	0.749373	0.669322	0.500070
H309	H	0.763099	-0.737943	0.000057
H310	H	1.263099	-0.237943	0.500057
O311	O	1.099529	-0.385278	0.000074
O312	O	1.599529	0.114722	0.500074
C313	C	1.236310	-0.405208	0.000133
C314	C	1.736310	0.094792	0.500133
C315	C	1.159851	-0.430273	0.000147
C316	C	1.659851	0.069727	0.500147
H317	H	1.285100	-0.441575	0.000210
H318	H	1.785100	0.058425	0.500210
H319	H	1.240266	-0.377756	-0.055362
H320	H	1.740266	0.122244	0.444638
H321	H	1.240164	-0.377731	0.055605
H322	H	1.740164	0.122269	0.555605
H323	H	1.155945	-0.457776	-0.055286
H324	H	1.655945	0.042224	0.444714
H325	H	1.155928	-0.457694	0.055679
H326	H	1.655928	0.042306	0.555679
H327	H	0.987382	0.006348	0.214405
H328	H	1.487382	0.506348	0.714405
H329	H	1.086833	-0.496522	0.000096
H330	H	1.586833	0.003478	0.500096
O331	O	0.098562	0.175718	0.000188
O332	O	0.598562	0.675718	0.500188
C333	C	0.058292	0.264123	0.068872
C334	C	0.558292	0.764123	0.568872
C335	C	0.112033	0.207539	0.068855
C336	C	0.612033	0.707539	0.568855
H337	H	0.069153	0.289860	0.124392
H338	H	0.569153	0.789860	0.624392
H339	H	0.069176	0.289939	0.013418
H340	H	0.569176	0.789939	0.513418
H341	H	-0.003284	0.254438	0.068842
H342	H	0.496716	0.754438	0.568842
H343	H	0.173628	0.217172	0.068913
H344	H	0.673628	0.717172	0.568913
H345	H	0.101083	0.181739	0.124304
H346	H	0.601083	0.681739	0.624304
O347	O	0.687460	-0.461302	-0.000017
O348	O	1.187460	0.038698	0.499983
C349	C	0.550680	-0.441368	-0.000004
C350	C	1.050680	0.058632	0.499996
C351	C	0.627141	-0.416305	0.000041
C352	C	1.127141	0.083695	0.500041
H353	H	0.501892	-0.405000	0.000060
H354	H	1.001892	0.095000	0.500060
H355	H	0.546740	-0.468803	-0.055504
H356	H	1.046740	0.031197	0.444496
H357	H	0.546808	-0.468863	0.055462
H358	H	1.046808	0.031137	0.555462
H359	H	0.631065	-0.388785	-0.055387
H360	H	1.131065	0.111215	0.444613
H361	H	0.631048	-0.388903	0.055578
H362	H	1.131048	0.111097	0.555578
H363	H	0.771791	-0.191460	0.000103
H364	H	1.271791	0.308540	0.500103
O365	O	0.689417	-0.344279	-0.000115
O366	O	1.189417	0.155721	0.499885
C367	C	0.610419	-0.269197	-0.068782
C368	C	1.110419	0.230803	0.431218
C369	C	0.685808	-0.309435	-0.068720
C370	C	1.185808	0.190565	0.431280
H371	H	0.607483	-0.241008	-0.124234
H372	H	1.107483	0.258992	0.375766
H373	H	0.560574	-0.295689	-0.068845
H374	H	1.060574	0.204311	0.431155
H375	H	0.607410	-0.241079	-0.013271
H376	H	1.107410	0.258921	0.486729
H377	H	0.688891	-0.337562	-0.124221
H378	H	1.188891	0.162438	0.375779
H379	H	0.735617	-0.282910	-0.068615
H380	H	1.235617	0.217090	0.431385
O381	O	0.995602	0.000242	0.372234
O382	O	1.495602	0.500242	0.872234
C383	C	1.098267	-0.076685	0.363436
C384	C	1.598267	0.423315	0.863436
C385	C	1.041279	-0.034037	0.317571
C386	C	1.541279	0.465963	0.817571
H387	H	1.135201	-0.104419	0.319261
H388	H	1.635201	0.395581	0.819261
H389	H	1.135938	-0.052152	0.402467
H390	H	1.635938	0.447848	0.902467
H391	H	1.065809	-0.105085	0.402545
H392	H	1.565809	0.394915	0.902545
H393	H	1.073675	-0.005627	0.278419
H394	H	1.573675	0.494373	0.778419
H395	H	1.003609	-0.058605	0.278590
H396	H	1.503609	0.441395	0.778590
H397	H	0.987412	0.006360	0.634402
H398	H	1.487412	0.506360	1.134402
H399	H	0.987425	0.006362	0.785803
H400	H	1.487425	0.506362	1.285803
