data_functionalizedCrystal
_audit_creation_method	'MofGen! by Chris Wilmer'
_symmetry_space_group_name_H-M	'P1'
_symmetry_Int_Tables_number	1
_symmetry_cell_setting	triclinic
loop_
_symmetry_equiv_pos_as_xyz
  x,y,z
_cell_length_a	16.793024
_cell_length_b	16.793047
_cell_length_c	33.586455
_cell_angle_alpha	113.253857
_cell_angle_beta	66.219990
_cell_angle_gamma	112.758327
loop_
_atom_site_label
_atom_site_type_symbol
_atom_site_fract_x
_atom_site_fract_y
_atom_site_fract_z
O1	O	0.005016	-0.570216	-0.583573
O2	O	-0.034529	-0.474528	-0.453458
O3	O	0.114723	-0.474535	-0.528082
O4	O	-0.144235	-0.570209	-0.508949
O5	O	0.108729	-0.346329	-0.530229
O6	O	-0.040523	-0.346322	-0.455605
O7	O	-0.000977	-0.442010	-0.585721
Cu8	Cu	-0.021297	-0.382459	-0.520859
Cu9	Cu	-0.014209	-0.534079	-0.518320
O10	O	-0.150229	-0.442003	-0.511097
C11	C	0.005100	-0.790970	-0.238461
C12	C	0.009223	-0.693065	-0.217557
C13	C	0.003804	-0.645758	-0.241627
C14	C	-0.075059	-0.538459	-0.266316
C15	C	0.049838	-0.422849	-0.250165
C16	C	-0.040584	-0.395375	-0.435637
C17	C	-0.044693	-0.353446	-0.386631
C18	C	-0.039275	-0.401741	-0.363054
C19	C	-0.040566	-0.125547	-0.300731
C20	C	-0.044689	-0.223451	-0.321635
C21	C	-0.039266	-0.270752	-0.297563
C22	C	0.039597	-0.378051	-0.272874
C23	C	-0.085304	-0.493667	-0.289026
C24	C	0.005118	-0.521142	-0.103554
C25	C	0.009231	-0.563064	-0.152559
C26	C	0.003809	-0.514775	-0.176138
C27	C	0.010758	-0.652581	-0.172822
C28	C	0.001010	-0.556371	-0.220792
C29	C	-0.008251	-0.506059	-0.245823
C30	C	-0.046224	-0.263935	-0.366370
C31	C	-0.036476	-0.360146	-0.318399
C32	C	-0.027211	-0.410451	-0.293367
C33	C	0.815184	-0.521162	-0.508596
C34	C	0.415541	-0.125553	-0.528781
C35	C	0.375032	-0.223457	-0.531493
C36	C	0.423813	-0.270761	-0.529101
C37	C	0.149318	-0.395376	-0.530584
C38	C	0.246774	-0.353455	-0.532364
C39	C	0.294574	-0.401748	-0.529976
C40	C	0.548961	-0.790984	-0.510398
C41	C	0.286104	-0.263940	-0.532530
C42	C	0.383336	-0.360149	-0.528302
C43	C	0.432207	-0.407971	-0.525810
C44	C	0.392316	-0.497392	-0.524993
C45	C	0.303554	-0.538991	-0.526667
C46	C	0.254683	-0.491169	-0.529159
C47	C	0.263666	-0.628421	-0.525851
C48	C	0.312537	-0.676243	-0.523359
C49	C	0.401299	-0.634644	-0.521685
C50	C	0.441190	-0.545223	-0.522502
C51	C	0.529952	-0.503624	-0.520828
C52	C	0.578823	-0.551446	-0.518336
C53	C	0.538939	-0.640864	-0.517520
C54	C	0.450177	-0.682463	-0.519194
C55	C	0.587810	-0.688687	-0.515028
C56	C	0.676572	-0.647088	-0.513354
C57	C	0.716463	-0.557666	-0.514172
C58	C	0.667586	-0.509847	-0.516662
C59	C	0.569840	-0.414195	-0.521644
C60	C	0.658602	-0.372596	-0.519970
C61	C	0.707476	-0.420426	-0.517480
C62	C	0.698493	-0.283174	-0.520788
C63	C	0.649622	-0.235352	-0.523280
C64	C	0.560860	-0.276951	-0.524954
C65	C	0.520969	-0.366372	-0.524136
C66	C	0.511989	-0.229129	-0.527446
C67	C	-0.040530	-0.395407	-0.935652
C68	C	0.005063	-0.791004	-0.738448
C69	C	0.009186	-0.693099	-0.717543
C70	C	0.003779	-0.645796	-0.741620
C71	C	0.005077	-0.521171	-0.603544
C72	C	0.009198	-0.563096	-0.652550
C73	C	0.003786	-0.514804	-0.676131
C74	C	-0.040516	-0.125574	-0.800747
C75	C	0.010719	-0.652613	-0.672809
C76	C	0.000994	-0.556406	-0.720789
C77	C	-0.004621	-0.508585	-0.744908
C78	C	-0.007444	-0.419162	-0.724369
C79	C	-0.004651	-0.377560	-0.679711
C80	C	0.000964	-0.425381	-0.655592
C81	C	-0.007471	-0.288129	-0.659174
C82	C	-0.013086	-0.240308	-0.683293
C83	C	-0.015878	-0.281910	-0.727951
C84	C	-0.013056	-0.371333	-0.748490
C85	C	-0.015848	-0.412935	-0.793148
C86	C	-0.021463	-0.365114	-0.817267
C87	C	-0.024282	-0.275694	-0.796731
C88	C	-0.021490	-0.234092	-0.752073
C89	C	-0.029897	-0.227873	-0.820850
C90	C	-0.032690	-0.269476	-0.865508
C91	C	-0.029867	-0.358899	-0.886047
C92	C	-0.024255	-0.406717	-0.861925
C93	C	-0.013028	-0.502367	-0.813685
C94	C	-0.015821	-0.543969	-0.858343
C95	C	-0.021433	-0.496140	-0.882464
C96	C	-0.012998	-0.633392	-0.878882
C97	C	-0.007383	-0.681213	-0.854763
C98	C	-0.004591	-0.639611	-0.810105
C99	C	-0.007414	-0.550188	-0.789566
C100	C	0.001024	-0.687432	-0.785986
O101	O	-0.000965	0.173549	-0.277957
O102	O	-0.040516	-0.085616	-0.325254
O103	O	0.108737	0.059592	-0.327284
O104	O	-0.150219	0.028341	-0.275927
O105	O	0.114753	0.055151	-0.263265
O106	O	-0.034500	-0.090057	-0.261234
O107	O	0.005051	0.169108	-0.213937
Cu108	Cu	-0.014175	0.039120	-0.231740
Cu109	Cu	-0.021290	0.044372	-0.307451
O110	O	-0.144202	0.023900	-0.211907
O111	O	-0.034458	-0.474571	0.046517
O112	O	0.005076	-0.570190	-0.083599
O113	O	-0.144170	-0.570237	-0.008972
O114	O	0.114787	-0.474523	-0.028110
O115	O	-0.150200	-0.442024	-0.011093
O116	O	-0.000954	-0.441976	-0.085720
O117	O	-0.040488	-0.346357	0.044396
Cu118	Cu	-0.021272	-0.382460	-0.020856
Cu119	Cu	-0.014141	-0.534087	-0.018347
O120	O	0.108757	-0.346309	-0.030231
C121	C	-0.850734	0.086244	-0.289716
C122	C	-0.753280	0.087165	-0.312001
C123	C	-0.705462	0.081107	-0.288506
C124	C	-0.599592	0.000085	-0.264184
C125	C	-0.481080	0.121287	-0.283645
C126	C	-0.450996	0.035117	-0.097351
C127	C	-0.410501	0.028587	-0.146852
C128	C	-0.459292	0.034683	-0.169840
C129	C	-0.184802	0.024283	-0.235878
C130	C	-0.282257	0.023363	-0.213592
C131	C	-0.330068	0.029423	-0.237088
C132	C	-0.435938	0.110445	-0.261411
C133	C	-0.554456	-0.010759	-0.241948
C134	C	-0.584541	0.075410	-0.428242
C135	C	-0.625029	0.081943	-0.378743
C136	C	-0.576244	0.075844	-0.355753
C137	C	-0.713963	0.086424	-0.357292
C138	C	-0.616708	0.075351	-0.310510
C139	C	-0.565963	0.065400	-0.286043
C140	C	-0.321573	0.024104	-0.168302
C141	C	-0.418828	0.035176	-0.215083
C142	C	-0.469568	0.045131	-0.239552
O143	O	0.585213	0.169090	-0.504004
O144	O	0.494056	-0.090076	-0.525516
O145	O	0.488081	0.055124	-0.449918
O146	O	0.591189	0.023889	-0.579602
O147	O	0.359978	0.059584	-0.452885
O148	O	0.365953	-0.085616	-0.528483
O149	O	0.457110	0.173550	-0.506971
Cu150	Cu	0.399835	0.044374	-0.517998
Cu151	Cu	0.551332	0.039099	-0.514489
O152	O	0.463086	0.028349	-0.582569
C153	C	0.815354	-0.521094	-0.008709
C154	C	0.717898	-0.563028	-0.006927
C155	C	0.670072	-0.514739	-0.009298
C156	C	0.564182	-0.463204	-0.048354
C157	C	0.445681	-0.498945	0.013847
C158	C	0.415547	-0.125494	-0.028771
C159	C	0.375059	-0.223405	-0.031498
C160	C	0.423859	-0.270708	-0.029121
C161	C	0.149365	-0.395355	-0.030599
C162	C	0.246820	-0.353421	-0.032381
C163	C	0.294640	-0.401713	-0.030008
C164	C	0.400530	-0.453248	0.009048
C165	C	0.519038	-0.417504	-0.053155
C166	C	0.549171	-0.790955	-0.010537
C167	C	0.589653	-0.693047	-0.007809
C168	C	0.540859	-0.645741	-0.010187
C169	C	0.678588	-0.652551	-0.006775
C170	C	0.581317	-0.556344	-0.010973
C171	C	0.530562	-0.506029	-0.015250
C172	C	0.286131	-0.263897	-0.032533
C173	C	0.383402	-0.360104	-0.028335
C174	C	0.434150	-0.410423	-0.024057
O175	O	-0.620614	0.089309	0.052274
O176	O	-0.529507	0.043784	-0.078544
O177	O	-0.523494	0.194833	-0.006033
O178	O	-0.626628	-0.061740	-0.020236
O179	O	-0.395386	0.185419	-0.005549
O180	O	-0.401400	0.034370	-0.078059
O181	O	-0.492507	0.079895	0.052758
Cu182	Cu	-0.435256	0.056273	-0.012607
Cu183	Cu	-0.586758	0.067406	-0.013179
O184	O	-0.498521	-0.071154	-0.019752
C185	C	-0.437537	0.048335	0.402491
C186	C	-0.397043	0.041789	0.352989
C187	C	-0.445822	0.047883	0.329994
C188	C	-0.496646	0.126653	0.277022
C189	C	-0.465894	-0.000633	0.218811
C190	C	-0.837226	0.099430	0.210091
C191	C	-0.739773	0.100339	0.187806
C192	C	-0.691967	0.094287	0.211308
C193	C	-0.571027	0.088563	0.071568
C194	C	-0.611521	0.095108	0.121070
C195	C	-0.562739	0.089011	0.144061
C196	C	-0.511915	0.010241	0.197033
C197	C	-0.542670	0.137531	0.255247
C198	C	-0.171338	0.037467	0.263967
C199	C	-0.268788	0.036555	0.286249
C200	C	-0.316597	0.042611	0.262750
C201	C	-0.308112	0.037305	0.331542
C202	C	-0.405351	0.048369	0.284750
C203	C	-0.456092	0.058317	0.260279
C204	C	-0.700452	0.099593	0.142516
C205	C	-0.603213	0.088528	0.189308
C206	C	-0.552469	0.078578	0.213776
O207	O	-0.040608	-1.085661	-0.825229
O208	O	-0.001018	-0.826491	-0.777938
O209	O	-0.150287	-0.971682	-0.775894
O210	O	0.108661	-0.940470	-0.827272
O211	O	-0.144253	-0.976123	-0.711878
O212	O	0.005016	-0.830932	-0.713922
O213	O	-0.034575	-1.090102	-0.761213
Cu214	Cu	-0.014228	-0.960923	-0.731722
Cu215	Cu	-0.021364	-0.955670	-0.807428
O216	O	0.114695	-0.944911	-0.763256
C217	C	-0.114910	-0.196886	-0.221632
C218	C	-0.036365	-0.225064	-0.248236
H219	H	-0.113123	-0.168686	-0.191179
H220	H	-0.118569	-0.155324	-0.233064
H221	H	-0.166305	-0.247543	-0.222605
H222	H	0.015031	-0.174406	-0.247266
H223	H	-0.032697	-0.266629	-0.236801
C224	C	-0.308763	0.149106	-0.235049
C225	C	-0.341400	0.173408	-0.259731
H226	H	-0.250390	0.187971	-0.234019
H227	H	-0.348612	0.154153	-0.205066
H228	H	-0.305138	0.088715	-0.249331
H229	H	-0.345031	0.233798	-0.245447
H230	H	-0.301540	0.168370	-0.289720
C231	C	0.458219	-0.508083	0.080557
C232	C	0.402699	-0.544355	0.052274
H233	H	0.431681	-0.536116	0.104281
H234	H	0.515951	-0.518360	0.063400
H235	H	0.464665	-0.445173	0.093178
H236	H	0.396259	-0.607263	0.039650
H237	H	0.344951	-0.534085	0.069434
H238	H	-0.574318	0.196197	0.271049
C239	C	0.285531	-0.122186	-0.033814
C240	C	0.231603	-0.210019	-0.033925
H241	H	0.251865	-0.088926	-0.034672
H242	H	0.303915	-0.094024	-0.007051
H243	H	0.337380	-0.124042	-0.059650
H244	H	0.179756	-0.208164	-0.008087
H245	H	0.213205	-0.238188	-0.060691
C246	C	-0.692681	-0.108506	-0.311111
C247	C	-0.694119	-0.062901	-0.265884
H248	H	-0.751037	-0.147394	-0.312157
H249	H	-0.675922	-0.066106	-0.327155
H250	H	-0.650115	-0.142959	-0.324691
H251	H	-0.736680	-0.028443	-0.252304
H252	H	-0.710888	-0.105307	-0.249834
C253	C	-0.082775	-0.831375	-0.890440
C254	C	-0.004271	-0.779917	-0.877430
H255	H	-0.080849	-0.892307	-0.904437
H256	H	-0.134182	-0.827973	-0.864432
H257	H	-0.086526	-0.808749	-0.911282
H258	H	-0.000524	-0.802539	-0.856586
H259	H	0.047150	-0.783323	-0.903441
C260	C	0.523759	-0.150386	0.011020
C261	C	0.521907	-0.225026	-0.027371
H262	H	0.584290	-0.122192	0.012101
H263	H	0.500343	-0.108818	0.009471
H264	H	0.487909	-0.169533	0.037526
H265	H	0.557752	-0.205878	-0.053877
H266	H	0.545335	-0.266602	-0.025825
H267	H	-0.037138	-0.474881	-0.380005
H268	H	0.468233	-0.679598	-0.011487
C269	C	-0.462861	0.006011	0.082541
C270	C	-0.464697	0.082840	0.119888
H271	H	-0.402331	0.002209	0.067617
H272	H	-0.498706	-0.046027	0.092596
H273	H	-0.486288	0.009756	0.062078
H274	H	-0.441276	0.079092	0.140353
H275	H	-0.428839	0.134891	0.109834
C276	C	-0.104891	-0.541718	-0.935029
C277	C	-0.024504	-0.542068	-0.931758
H278	H	-0.106779	-0.570069	-0.965461
H279	H	-0.155021	-0.573477	-0.915634
H280	H	-0.107380	-0.481368	-0.926216
H281	H	-0.022018	-0.602419	-0.940567
H282	H	0.025639	-0.510311	-0.951159
C283	C	-0.682539	-0.134749	-0.225121
C284	C	-0.597436	-0.086486	-0.218685
H285	H	-0.709064	-0.181508	-0.210765
H286	H	-0.720199	-0.095355	-0.212297
H287	H	-0.676066	-0.160128	-0.256666
H288	H	-0.603910	-0.061101	-0.187140
H289	H	-0.559767	-0.125887	-0.231507
C290	C	-0.082949	-0.213994	-0.583275
C291	C	-0.004415	-0.242190	-0.609881
H292	H	-0.081069	-0.185627	-0.552842
H293	H	-0.086697	-0.172571	-0.594764
H294	H	-0.134343	-0.264667	-0.584169
H295	H	0.046978	-0.191515	-0.608990
H296	H	-0.000659	-0.283615	-0.598389
H297	H	-0.724884	0.094041	0.248327
C298	C	0.821261	-0.148309	-0.520189
C299	C	0.796466	-0.237261	-0.518940
H300	H	0.881740	-0.119963	-0.519044
H301	H	0.816829	-0.148079	-0.547455
H302	H	0.782035	-0.116554	-0.494909
H303	H	0.835688	-0.269018	-0.544222
H304	H	0.800905	-0.237496	-0.491671
C305	C	0.647151	-0.387212	-0.116853
C306	C	0.562035	-0.372069	-0.091573
H307	H	0.673695	-0.359157	-0.140568
H308	H	0.684787	-0.362629	-0.097656
H309	H	0.640693	-0.450122	-0.129485
H310	H	0.568494	-0.309158	-0.078937
H311	H	0.524391	-0.396648	-0.110773
C312	C	0.274982	-0.180125	-0.572873
C313	C	0.231603	-0.210057	-0.533940
H314	H	0.241330	-0.146862	-0.573741
H315	H	0.333998	-0.142726	-0.572224
H316	H	0.279022	-0.230492	-0.599058
H317	H	0.227568	-0.159689	-0.507754
H318	H	0.172570	-0.247458	-0.534585
C319	C	-0.260284	-0.050142	-0.312939
C320	C	-0.285643	0.029778	-0.287060
H321	H	-0.232867	-0.049929	-0.343790
H322	H	-0.218502	-0.054617	-0.302028
H323	H	-0.312290	-0.100081	-0.310555
H324	H	-0.233636	0.079717	-0.289441
H325	H	-0.327428	0.034262	-0.297975
C326	C	0.062310	-0.090148	-0.647615
C327	C	-0.016195	-0.141606	-0.660625
H328	H	0.060389	-0.029214	-0.633624
H329	H	0.066060	-0.112766	-0.626775
H330	H	0.113723	-0.093556	-0.673627
H331	H	-0.067607	-0.138203	-0.634613
H332	H	-0.019954	-0.118981	-0.681467
C333	C	-0.493600	0.255071	-0.288029
C334	C	-0.438087	0.196993	-0.306922
H335	H	-0.467054	0.301810	-0.302399
H336	H	-0.551331	0.222329	-0.292390
H337	H	-0.500050	0.280474	-0.256487
H338	H	-0.431643	0.171585	-0.338464
H339	H	-0.380340	0.229740	-0.302566
H340	H	-0.048864	-0.224020	-0.386283
C341	C	0.689822	-0.736168	0.033628
C342	C	0.733110	-0.706402	-0.005356
H343	H	0.723481	-0.769410	0.034506
H344	H	0.685861	-0.685736	0.059777
H345	H	0.630768	-0.773558	0.033033
H346	H	0.792162	-0.669006	-0.004760
H347	H	0.737081	-0.756841	-0.031511
C348	C	0.643690	-0.081809	-0.486853
C349	C	0.693623	-0.136645	-0.524174
H350	H	0.670854	-0.020871	-0.487403
H351	H	0.583596	-0.099833	-0.488219
H352	H	0.642771	-0.087522	-0.459627
H353	H	0.694537	-0.130937	-0.551401
H354	H	0.753733	-0.118615	-0.522812
H355	H	0.003251	-0.391359	-0.619081
H356	H	-0.503619	0.071273	-0.373665
C357	C	0.739847	-0.364940	0.029556
C358	C	0.714486	-0.415988	-0.010062
H359	H	0.767265	-0.303974	0.029087
H360	H	0.687851	-0.368313	0.055226
H361	H	0.781638	-0.387906	0.031218
H362	H	0.672689	-0.393026	-0.011723
H363	H	0.766490	-0.412610	-0.035739
H364	H	-0.023809	-0.160979	-0.735279
H365	H	-0.518563	-0.039000	0.162804
C366	C	0.131922	-0.626036	-0.529758
C367	C	0.156715	-0.537084	-0.531007
H368	H	0.071436	-0.654378	-0.530895
H369	H	0.171136	-0.657790	-0.555037
H370	H	0.136365	-0.626263	-0.502491
H371	H	0.152278	-0.536857	-0.558276
H372	H	0.117489	-0.505322	-0.505726
C373	C	-0.061961	-0.780717	-0.643429
C374	C	0.014259	-0.706488	-0.645915
H375	H	-0.059773	-0.813979	-0.626827
H376	H	-0.115043	-0.760401	-0.628583
H377	H	-0.062746	-0.818119	-0.673192
H378	H	0.015041	-0.669082	-0.616152
H379	H	0.067356	-0.726803	-0.660760
C380	C	-0.578382	0.059560	0.323997
C381	C	-0.543864	0.054056	0.354169
H382	H	-0.638911	0.063363	0.338922
H383	H	-0.542535	0.111605	0.313948
H384	H	-0.577125	0.007436	0.298661
H385	H	-0.545115	0.106184	0.379503
H386	H	-0.579721	0.002006	0.364224
C387	C	-0.559111	0.117749	-0.108333
C388	C	-0.557320	0.040903	-0.145671
H389	H	-0.619625	0.121606	-0.093416
H390	H	-0.535722	0.113984	-0.087865
H391	H	-0.523212	0.169776	-0.118398
H392	H	-0.593214	-0.011124	-0.135606
H393	H	-0.580721	0.044661	-0.166143
H394	H	-0.738384	0.080845	-0.251490
C395	C	0.657276	-0.559565	-0.103921
C396	C	0.658709	-0.469152	-0.081130
H397	H	0.715633	-0.563230	-0.124156
H398	H	0.640521	-0.591209	-0.082499
H399	H	0.614709	-0.585567	-0.120570
H400	H	0.701271	-0.443152	-0.064477
H401	H	0.675475	-0.437495	-0.102554
H402	H	-0.281187	0.020914	-0.148901
C403	C	-0.440829	-0.130835	0.155958
C404	C	-0.423170	-0.079829	0.197486
H405	H	-0.414446	-0.179722	0.142793
H406	H	-0.504289	-0.153393	0.160805
H407	H	-0.415712	-0.093979	0.136110
H408	H	-0.448292	-0.116683	0.217335
H409	H	-0.359696	-0.057271	0.192640
C410	C	-0.159424	-0.476813	-0.332060
C411	C	-0.162789	-0.535179	-0.310666
H412	H	-0.207257	-0.502444	-0.345422
H413	H	-0.165595	-0.420726	-0.310335
H414	H	-0.103142	-0.467699	-0.354938
H415	H	-0.219069	-0.544287	-0.287786
H416	H	-0.156626	-0.591282	-0.332394
C417	C	-0.711661	0.180675	0.100837
C418	C	-0.754954	0.103890	0.116314
H419	H	-0.745308	0.183322	0.084658
H420	H	-0.707719	0.232875	0.125996
H421	H	-0.652600	0.177893	0.081353
H422	H	-0.814013	0.106675	0.135801
H423	H	-0.758906	0.051677	0.091152
C424	C	-0.246829	-0.036980	0.186903
C425	C	-0.272175	0.042949	0.212777
H426	H	-0.219412	-0.036776	0.156050
H427	H	-0.205050	-0.041458	0.197815
H428	H	-0.298840	-0.086912	0.189290
H429	H	-0.220162	0.092881	0.210392
H430	H	-0.313956	0.047436	0.201861
C431	C	-0.226526	-0.046650	0.336601
C432	C	-0.253607	0.033007	0.357743
H433	H	-0.192872	-0.049297	0.352775
H434	H	-0.278386	-0.096894	0.336376
H435	H	-0.189942	-0.047773	0.306313
H436	H	-0.290197	0.034127	0.388029
H437	H	-0.201739	0.083264	0.357972
C438	C	0.149412	-0.289237	-0.322552
C439	C	0.105062	-0.285383	-0.276742
H440	H	0.189826	-0.232023	-0.324939
H441	H	0.182362	-0.333035	-0.336001
H442	H	0.106124	-0.305252	-0.337782
H443	H	0.148350	-0.269374	-0.261513
H444	H	0.072110	-0.241570	-0.263287
H445	H	-0.489994	0.175891	0.311254
C446	C	0.506025	-0.075599	-0.491013
C447	C	0.555972	-0.130419	-0.528336
H448	H	0.533173	-0.014659	-0.491560
H449	H	0.445929	-0.093638	-0.492379
H450	H	0.505113	-0.081312	-0.463788
H451	H	0.556878	-0.124711	-0.555562
H452	H	0.616084	-0.112373	-0.526975
H453	H	-0.754334	0.089615	-0.376700
H454	H	0.191099	-0.662437	-0.527221
C455	C	0.173579	-0.505365	0.008629
C456	C	0.250214	-0.500453	-0.029226
H457	H	0.146153	-0.566324	0.009110
H458	H	0.190807	-0.470708	0.035494
H459	H	0.131798	-0.482407	0.006952
H460	H	0.291998	-0.523405	-0.027547
H461	H	0.232988	-0.535123	-0.056098
C462	C	-0.079389	-0.407246	-0.152395
C463	C	0.000916	-0.416041	-0.153253
H464	H	-0.081175	-0.346291	-0.138263
H465	H	-0.081866	-0.424913	-0.182542
H466	H	-0.129589	-0.444559	-0.135791
H467	H	0.051116	-0.378733	-0.169861
H468	H	0.003401	-0.398363	-0.123102
H469	H	-0.047834	-0.232081	-0.882358
C470	C	0.281315	-0.494000	0.073386
C471	C	0.305999	-0.447326	0.041819
H472	H	0.222954	-0.490343	0.093618
H473	H	0.280368	-0.555322	0.057916
H474	H	0.323879	-0.467978	0.090039
H475	H	0.263439	-0.473353	0.025164
H476	H	0.306940	-0.385993	0.057291
H477	H	-0.015274	-0.667410	-0.915397
C478	C	0.079452	-0.719624	-0.317556
C479	C	0.000907	-0.691445	-0.290955
H480	H	0.077664	-0.747832	-0.348009
H481	H	0.130842	-0.668975	-0.316584
H482	H	0.083108	-0.761189	-0.306120
H483	H	-0.002746	-0.649875	-0.302389
H484	H	-0.050498	-0.742101	-0.291929
H485	H	0.107243	-0.392097	-0.234140
H486	H	0.417564	-0.755580	-0.518528
C487	C	-0.061805	-0.709209	-0.107733
C488	C	0.014312	-0.706460	-0.145933
H489	H	-0.059613	-0.742477	-0.091136
H490	H	-0.062460	-0.649632	-0.089043
H491	H	-0.114963	-0.737397	-0.117116
H492	H	0.067470	-0.678266	-0.136551
H493	H	0.014976	-0.766047	-0.164627
H494	H	-0.123560	-0.607102	-0.263443
C495	C	0.191899	-0.779933	-0.484597
C496	C	0.268508	-0.774943	-0.522460
H497	H	0.164716	-0.840868	-0.484044
H498	H	0.209094	-0.745021	-0.457742
H499	H	0.149924	-0.757308	-0.486332
H500	H	0.310485	-0.797562	-0.520724
H501	H	0.251315	-0.809868	-0.549322
C502	C	0.673686	-0.713460	-0.461064
C503	C	0.722755	-0.697503	-0.503436
H504	H	0.702200	-0.744569	-0.454933
H505	H	0.671672	-0.657696	-0.438253
H506	H	0.613911	-0.748951	-0.461274
H507	H	0.782529	-0.662007	-0.503225
H508	H	0.724780	-0.753276	-0.526254
H509	H	0.780052	-0.386407	-0.516111
H510	H	0.003321	-0.760550	-0.802778
