data_functionalizedCrystal
_audit_creation_method	'MofGen! by Chris Wilmer'
_symmetry_space_group_name_H-M	'P1'
_symmetry_Int_Tables_number	1
_symmetry_cell_setting	triclinic
loop_
_symmetry_equiv_pos_as_xyz
  x,y,z
_cell_length_a	10.654547
_cell_length_b	8.559649
_cell_length_c	7.681481
_cell_angle_alpha	94.930900
_cell_angle_beta	95.778576
_cell_angle_gamma	102.867640
loop_
_atom_site_label
_atom_site_type_symbol
_atom_site_fract_x
_atom_site_fract_y
_atom_site_fract_z
O1	O	1.631359	-0.239188	-0.146449
O2	O	1.263676	-0.260542	-0.146445
O3	O	1.479911	-0.017622	-0.146446
O4	O	1.415124	-0.482107	-0.146449
O5	O	1.506533	0.012346	0.146412
O6	O	1.290297	-0.230574	0.146412
O7	O	1.657981	-0.209220	0.146408
Zn8	Zn	1.478366	-0.215139	0.192908
Zn9	Zn	1.443291	-0.254623	-0.192945
O10	O	1.441746	-0.452140	0.146409
C11	C	1.230351	-0.243989	-0.000016
C12	C	1.091393	-0.239295	-0.000015
C13	C	0.801261	-0.263121	-0.319320
C14	C	0.852040	-0.281664	-0.478957
C15	C	0.982601	-0.286086	-0.478953
C16	C	1.062389	-0.271959	-0.319294
C17	C	1.011610	-0.253416	-0.159657
C18	C	0.881043	-0.249000	-0.159679
C19	C	1.040614	-0.220752	0.159622
C20	C	0.910051	-0.216341	0.159621
C21	C	1.120402	-0.206625	0.319281
C22	C	1.069621	-0.188093	0.478922
C23	C	0.939051	-0.183673	0.478911
C24	C	0.859272	-0.197798	0.319258
C25	C	1.498131	0.056837	-0.000020
C26	C	1.512745	0.234054	-0.000030
C27	C	1.691306	-0.225773	-0.000025
C28	C	1.830263	-0.230468	-0.000038
C29	C	1.423525	-0.526599	-0.000021
C30	C	1.408911	-0.703817	-0.000022
N31	N	1.502313	-0.188192	0.456242
N32	N	1.419355	-0.281558	-0.456279
H33	H	0.897716	-0.168580	0.608907
O34	O	1.031818	-0.304390	-0.634063
C35	C	1.019393	-0.471660	-0.906994
C36	C	0.963550	-0.451149	-0.731383
H37	H	0.964204	-0.590293	-0.985743
H38	H	1.126397	-0.472511	-0.879653
H39	H	1.008863	-0.367284	-0.985652
H40	H	0.973987	-0.555494	-0.652637
H41	H	0.856569	-0.450228	-0.758848
O42	O	1.603300	-0.074296	0.545756
C43	C	1.708361	0.208238	0.602577
C44	C	1.593952	0.079416	0.501061
H45	H	1.700826	0.332546	0.566506
H46	H	1.803649	0.182898	0.566372
H47	H	1.705256	0.204636	0.750121
H48	H	1.596932	0.082946	0.353494
H49	H	1.498714	0.104800	0.537412
H50	H	1.308834	0.213797	-0.000015
H51	H	1.168701	-0.275541	-0.319304
O52	O	1.632094	0.332371	-0.000338
C53	C	1.768393	0.525717	-0.151993
C54	C	1.633187	0.414417	-0.151882
H55	H	1.769313	0.592106	-0.274484
H56	H	1.844261	0.450507	-0.152118
H57	H	1.791676	0.617024	-0.029369
H58	H	1.609780	0.323090	-0.274485
H59	H	1.557394	0.489732	-0.151666
H60	H	1.334673	-0.376856	0.468524
H61	H	0.694946	-0.259543	-0.319340
H62	H	1.226713	-0.210216	0.319274
O63	O	1.147295	-0.174172	0.633884
C64	C	1.339042	-0.022100	0.819240
C65	C	1.251200	-0.037695	0.643663
H66	H	1.423054	0.088254	0.827219
H67	H	1.378752	-0.134776	0.827239
H68	H	1.280284	-0.008178	0.933311
H69	H	1.309869	-0.051567	0.529492
H70	H	1.211482	0.074988	0.635817
O71	O	0.774421	-0.295669	-0.633995
C72	C	0.582586	-0.447624	-0.819256
C73	C	0.670387	-0.431979	-0.643636
H74	H	0.498439	-0.557804	-0.827091
H75	H	0.641220	-0.461744	-0.933423
H76	H	0.543052	-0.334816	-0.827216
H77	H	0.709942	-0.544749	-0.635504
H78	H	0.611694	-0.417781	-0.529552
H79	H	0.752959	-0.194211	0.319234
