data_functionalizedCrystal
_audit_creation_method	'MofGen! by Chris Wilmer'
_symmetry_space_group_name_H-M	'P1'
_symmetry_Int_Tables_number	1
_symmetry_cell_setting	triclinic
loop_
_symmetry_equiv_pos_as_xyz
  x,y,z
_cell_length_a	17.699083
_cell_length_b	10.723023
_cell_length_c	16.176319
_cell_angle_alpha	89.994236
_cell_angle_beta	89.998611
_cell_angle_gamma	83.875281
loop_
_atom_site_label
_atom_site_type_symbol
_atom_site_fract_x
_atom_site_fract_y
_atom_site_fract_z
O1	O	1.005074	0.157797	-0.068629
O2	O	0.784825	0.178327	-0.068656
O3	O	0.900030	-0.013601	-0.068638
O4	O	0.889869	0.349726	-0.068646
O5	O	0.900014	-0.013613	0.068855
O6	O	0.784809	0.178315	0.068838
O7	O	1.005058	0.157785	0.068864
Cu8	Cu	0.894932	0.168049	0.081405
Cu9	Cu	0.894951	0.168063	-0.081196
O10	O	0.889853	0.349713	0.068847
C11	C	0.756615	0.177585	0.000088
C12	C	0.672583	0.175379	0.000077
C13	C	0.899283	-0.060094	0.000107
C14	C	0.897071	-0.198611	0.000105
C15	C	0.624673	0.288036	0.000075
C16	C	0.545716	0.285955	0.000086
C17	C	0.514672	0.171215	0.000093
C18	C	0.562589	0.058549	0.000098
C19	C	0.641544	0.060631	0.000093
C20	C	0.244173	0.050148	0.000118
C21	C	0.165212	0.048075	0.000121
C22	C	0.148345	0.275473	0.000111
C23	C	0.227300	0.277555	0.000106
C24	C	0.275210	0.164889	0.000116
C25	C	0.360823	0.167147	0.000105
C26	C	0.429060	0.168956	0.000097
C27	C	0.896093	-0.260353	-0.071122
C28	C	0.893807	-0.403517	-0.071127
C29	C	1.033267	0.158527	0.000119
C30	C	1.117299	0.160734	0.000124
C31	C	0.890600	0.396206	0.000100
C32	C	0.892812	0.534723	0.000097
N33	N	0.894924	0.168038	0.195770
N34	N	0.894965	0.168064	-0.195562
C35	C	0.945953	0.083087	0.239042
C36	C	0.945956	0.083086	0.325589
C37	C	0.894935	0.168042	0.368863
C38	C	0.843901	0.252998	0.325585
C39	C	0.843894	0.252992	0.239040
C40	C	0.843927	0.253021	0.674613
C41	C	0.843939	0.253022	0.761165
C42	C	0.945989	0.083115	0.761163
C43	C	0.945982	0.083109	0.674618
C44	C	0.894946	0.168059	0.631347
C45	C	0.894942	0.168058	0.537503
C46	C	0.894942	0.168050	0.462706
H47	H	0.506710	0.377693	0.000083
H48	H	0.896945	-0.207224	-0.132099
H49	H	0.896210	-0.251738	0.061081
H50	H	0.680552	-0.031107	0.000094
H51	H	0.283172	-0.041591	0.000126
H52	H	0.252572	0.370988	0.000097
C53	C	0.131359	-0.076381	0.000092
C54	C	0.051959	-0.054084	0.000069
C55	C	0.020748	-0.168694	0.000029
H56	H	0.147677	-0.122853	0.048030
H57	H	0.147721	-0.122773	-0.047870
H58	H	0.035604	-0.007711	0.048026
H59	H	0.035620	-0.007631	-0.047866
H60	H	0.037109	-0.215086	-0.047933
H61	H	0.037071	-0.215157	0.047968
H62	H	-0.033128	-0.153581	0.000006
C63	C	0.893776	-0.394393	0.081389
C64	C	0.829958	-0.305454	0.085704
C65	C	0.830815	-0.240133	0.160581
H66	H	0.938595	-0.353152	0.084549
H67	H	0.892814	-0.451661	0.126099
H68	H	0.830927	-0.248195	0.041006
H69	H	0.785130	-0.346662	0.082558
H70	H	0.829853	-0.297401	0.205291
H71	H	0.875636	-0.198900	0.163735
H72	H	0.787513	-0.179789	0.163522
C73	C	1.001382	-0.009295	0.192213
C74	C	1.046057	-0.083714	0.248637
C75	C	1.097119	-0.168846	0.205531
H76	H	1.033188	0.035377	0.158440
H77	H	0.973905	-0.061254	0.158478
H78	H	1.073532	-0.031762	0.282358
H79	H	1.014272	-0.128414	0.282412
H80	H	1.069642	-0.220805	0.171797
H81	H	1.128919	-0.124163	0.171760
H82	H	1.127432	-0.219357	0.243809
H83	H	0.109327	0.367211	0.000108
C84	C	1.001354	-0.009334	0.808041
C85	C	0.988460	-0.131927	0.786981
C86	C	1.039452	-0.217118	0.830138
H87	H	0.994103	0.002654	0.865794
H88	H	1.051949	0.004037	0.793835
H89	H	0.937878	-0.145292	0.801192
H90	H	0.995716	-0.143955	0.729235
H91	H	1.090046	-0.203747	0.815932
H92	H	1.032197	-0.205118	0.887889
H93	H	1.030714	-0.300306	0.815849
C94	C	0.788489	0.345397	0.627791
C95	C	0.743826	0.419822	0.684215
C96	C	0.692754	0.504948	0.641109
H97	H	0.756677	0.300721	0.594036
H98	H	0.815958	0.397353	0.594037
H99	H	0.716359	0.367872	0.717954
H100	H	0.775618	0.464525	0.717971
H101	H	0.720223	0.556904	0.607355
H102	H	0.660947	0.460262	0.607356
H103	H	0.662449	0.555463	0.679386
H104	H	0.987507	0.013911	0.360821
C105	C	0.892714	-0.474085	-0.152529
C106	C	0.894087	-0.389355	-0.218236
C107	C	0.893085	-0.454320	-0.293238
H108	H	0.847853	-0.515213	-0.155716
H109	H	0.935976	-0.534493	-0.155653
H110	H	0.850828	-0.328969	-0.215114
H111	H	0.938944	-0.348224	-0.215076
H112	H	0.936347	-0.514728	-0.296361
H113	H	0.848224	-0.495445	-0.296416
H114	H	0.894023	-0.396842	-0.337829
H115	H	0.987531	0.013933	0.639387
H116	H	0.802388	0.322207	0.796397
H117	H	0.802340	0.322166	0.203808
C118	C	0.658228	0.412743	0.000109
C119	C	0.599366	0.510957	0.000132
C120	C	0.630246	0.625856	0.000177
H121	H	0.688665	0.418467	-0.047827
H122	H	0.688658	0.418345	0.048073
H123	H	0.568949	0.505357	-0.047827
H124	H	0.568924	0.505274	0.048064
H125	H	0.660676	0.631459	0.048141
H126	H	0.660683	0.631568	-0.047760
H127	H	0.590313	0.692508	0.000200
C128	C	0.528740	-0.065902	0.000064
C129	C	0.449340	-0.043617	0.000044
C130	C	0.418135	-0.158233	-0.000000
H131	H	0.545062	-0.112378	0.047999
H132	H	0.545103	-0.112287	-0.047901
H133	H	0.432984	0.002748	0.048004
H134	H	0.432997	0.002840	-0.047887
H135	H	0.434498	-0.204617	-0.047965
H136	H	0.434462	-0.204700	0.047936
H137	H	0.364259	-0.143128	-0.000022
C138	C	0.788589	0.345183	0.372714
C139	C	0.799531	0.327033	0.457770
C140	C	0.748599	0.411947	0.501209
H141	H	0.737975	0.331818	0.358641
H142	H	0.797244	0.428471	0.358567
H143	H	0.790870	0.243765	0.471911
H144	H	0.850135	0.340409	0.471868
H145	H	0.757254	0.495235	0.487061
H146	H	0.697988	0.398575	0.487128
H147	H	0.756021	0.399652	0.558923
