data_functionalizedCrystal
_audit_creation_method	'MofGen! by Chris Wilmer'
_symmetry_space_group_name_H-M	'P1'
_symmetry_Int_Tables_number	1
_symmetry_cell_setting	triclinic
loop_
_symmetry_equiv_pos_as_xyz
  x,y,z
_cell_length_a	13.897449
_cell_length_b	18.101395
_cell_length_c	13.897441
_cell_angle_alpha	90.030698
_cell_angle_beta	90.020733
_cell_angle_gamma	90.032384
loop_
_atom_site_label
_atom_site_type_symbol
_atom_site_fract_x
_atom_site_fract_y
_atom_site_fract_z
Zn1	Zn	1.474613	-0.294781	0.545380
Zn2	Zn	1.724613	-0.044781	0.795380
Zn3	Zn	1.974613	0.205219	1.045380
Zn4	Zn	2.224613	0.455219	1.295380
Zn5	Zn	1.474469	-0.418636	0.384082
Zn6	Zn	1.724469	-0.168636	0.634082
Zn7	Zn	1.974469	0.081364	0.884082
Zn8	Zn	2.224469	0.331364	1.134082
Zn9	Zn	1.313302	-0.294816	0.384099
Zn10	Zn	1.563302	-0.044816	0.634099
Zn11	Zn	1.813302	0.205184	0.884099
Zn12	Zn	2.063302	0.455184	1.134099
Zn13	Zn	1.313246	-0.418588	0.545334
Zn14	Zn	1.563246	-0.168588	0.795334
Zn15	Zn	1.813246	0.081412	1.045334
Zn16	Zn	2.063246	0.331412	1.295334
O17	O	1.393907	-0.356705	0.464724
O18	O	1.643907	-0.106705	0.714724
O19	O	1.893907	0.143295	0.964724
O20	O	2.143907	0.393295	1.214724
O21	O	1.609575	-0.311216	0.523996
O22	O	1.859575	-0.061216	0.773996
O23	O	2.109575	0.188784	1.023996
O24	O	2.359575	0.438784	1.273996
O25	O	1.453053	-0.402246	0.249102
O26	O	1.703053	-0.152246	0.499102
O27	O	1.953053	0.097754	0.749102
O28	O	2.203053	0.347754	0.999102
O29	O	1.334784	-0.191178	0.405520
O30	O	1.584784	0.058822	0.655520
O31	O	1.834784	0.308822	0.905520
O32	O	2.084784	0.558822	1.155520
O33	O	1.609470	-0.402212	0.405490
O34	O	1.859470	-0.152212	0.655490
O35	O	2.109470	0.097788	0.905490
O36	O	2.359470	0.347788	1.155490
O37	O	1.453298	-0.191152	0.524013
O38	O	1.703298	0.058848	0.774013
O39	O	1.953298	0.308848	1.024013
O40	O	2.203298	0.558848	1.274013
O41	O	1.334644	-0.311276	0.249115
O42	O	1.584644	-0.061276	0.499115
O43	O	1.834644	0.188724	0.749115
O44	O	2.084644	0.438724	0.999115
O45	O	1.178313	-0.311229	0.405475
O46	O	1.428313	-0.061229	0.655475
O47	O	1.678313	0.188771	0.905475
O48	O	1.928313	0.438771	1.155475
O49	O	1.334688	-0.402129	0.680322
O50	O	1.584688	-0.152129	0.930322
O51	O	1.834688	0.097871	1.180322
O52	O	2.084688	0.347871	1.430322
O53	O	1.178272	-0.402164	0.523934
O54	O	1.428272	-0.152164	0.773934
O55	O	1.678272	0.097836	1.023934
O56	O	1.928272	0.347836	1.273934
O57	O	1.453244	-0.311169	0.680356
O58	O	1.703244	-0.061169	0.930356
O59	O	1.953244	0.188831	1.180356
O60	O	2.203244	0.438831	1.430356
O61	O	1.452999	-0.522263	0.405445
O62	O	1.702999	-0.272263	0.655445
O63	O	1.952999	-0.022263	0.905445
O64	O	2.202999	0.227737	1.155445
O65	O	1.334549	-0.522227	0.523917
O66	O	1.584549	-0.272227	0.773917
O67	O	1.834549	-0.022227	1.023917
O68	O	2.084549	0.227773	1.273917
C69	C	1.143293	-0.356695	0.464702
C70	C	1.393293	-0.106695	0.714702
C71	C	1.643293	0.143305	0.964702
C72	C	1.893293	0.393305	1.214702
C73	C	1.036079	-0.356709	0.464715
C74	C	1.286079	-0.106709	0.714715
C75	C	1.536079	0.143291	0.964715
C76	C	1.786079	0.393291	1.214715
C77	C	0.839784	-0.356712	0.464741
C78	C	1.089784	-0.106712	0.714741
C79	C	1.339784	0.143288	0.964741
C80	C	1.589784	0.393288	1.214741
C81	C	0.949016	-0.356708	0.464724
C82	C	1.199016	-0.106708	0.714724
C83	C	1.449016	0.143292	0.964724
C84	C	1.699016	0.393292	1.214724
C85	C	1.393778	-0.549116	0.464695
C86	C	1.643778	-0.299116	0.714695
C87	C	1.893778	-0.049116	0.964695
C88	C	2.143778	0.200884	1.214695
C89	C	1.393811	-0.631430	0.464716
C90	C	1.643811	-0.381430	0.714716
C91	C	1.893811	-0.131430	0.964716
C92	C	2.143811	0.118570	1.214716
C93	C	1.394023	-0.930521	0.464767
C94	C	1.644023	-0.680521	0.714767
C95	C	1.894023	-0.430521	0.964767
C96	C	2.144023	-0.180521	1.214767
C97	C	1.319670	-0.899204	0.539492
C98	C	1.569670	-0.649204	0.789492
C99	C	1.819670	-0.399204	1.039492
C100	C	2.069670	-0.149204	1.289492
C101	C	1.319317	-0.813586	0.539258
C102	C	1.569317	-0.563586	0.789258
C103	C	1.819317	-0.313586	1.039258
C104	C	2.069317	-0.063586	1.289258
C105	C	1.393918	-0.782138	0.464743
C106	C	1.643918	-0.532138	0.714743
C107	C	1.893918	-0.282138	0.964743
C108	C	2.143918	-0.032138	1.214743
C109	C	1.366392	-0.813295	0.363084
C110	C	1.616392	-0.563295	0.613084
C111	C	1.866392	-0.313295	0.863084
C112	C	2.116392	-0.063295	1.113084
C113	C	1.365913	-0.898940	0.363531
C114	C	1.615913	-0.648940	0.613531
C115	C	1.865913	-0.398940	0.863531
C116	C	2.115913	-0.148940	1.113531
C117	C	1.496064	-0.898862	0.490807
C118	C	1.746064	-0.648862	0.740807
C119	C	1.996064	-0.398862	0.990807
C120	C	2.246064	-0.148862	1.240807
C121	C	1.495464	-0.813210	0.493037
C122	C	1.745464	-0.563210	0.743037
C123	C	1.995464	-0.313210	0.993037
C124	C	2.245464	-0.063210	1.243037
C125	C	1.393860	-0.698279	0.464722
C126	C	1.643860	-0.448279	0.714722
C127	C	1.893860	-0.198279	0.964722
C128	C	2.143860	0.051721	1.214722
C129	C	1.394078	-1.014380	0.464781
C130	C	1.644078	-0.764380	0.714781
C131	C	1.894078	-0.514380	0.964781
C132	C	2.144078	-0.264380	1.214781
C133	C	1.645500	-0.356716	0.464746
C134	C	1.895500	-0.106716	0.714746
C135	C	2.145500	0.143284	0.964746
C136	C	2.395500	0.393284	1.214746
C137	C	1.752714	-0.356720	0.464756
C138	C	2.002714	-0.106720	0.714756
C139	C	2.252714	0.143280	0.964756
C140	C	2.502714	0.393280	1.214756
C141	C	1.393976	-0.356640	0.716317
C142	C	1.643976	-0.106640	0.966317
C143	C	1.893976	0.143360	1.216317
C144	C	2.143976	0.393360	1.466317
C145	C	1.394005	-0.356612	0.823531
C146	C	1.644005	-0.106612	1.073531
C147	C	1.894005	0.143388	1.323531
C148	C	2.144005	0.393388	1.573531
C149	C	1.394063	-0.163543	0.464773
C150	C	1.644063	0.086457	0.714773
C151	C	1.894063	0.336457	0.964773
C152	C	2.144063	0.586457	1.214773
C153	C	1.394130	-0.081229	0.464795
C154	C	1.644130	0.168771	0.714795
C155	C	1.894130	0.418771	0.964795
C156	C	2.144130	0.668771	1.214795
C157	C	1.393895	-0.356717	0.214109
C158	C	1.643895	-0.106717	0.464109
C159	C	1.893895	0.143283	0.714109
C160	C	2.143895	0.393283	0.964109
C161	C	1.394052	-0.356536	0.106896
C162	C	1.644052	-0.106536	0.356896
C163	C	1.894052	0.143464	0.606896
C164	C	2.144052	0.393464	0.856896
C165	C	1.394031	-0.356562	1.019826
C166	C	1.644031	-0.106562	1.269826
C167	C	1.894031	0.143438	1.519826
C168	C	2.144031	0.393438	1.769826
C169	C	1.394014	-0.356592	0.910594
C170	C	1.644014	-0.106592	1.160594
C171	C	1.894014	0.143408	1.410594
C172	C	2.144014	0.393408	1.660594
H173	H	1.336539	-0.792518	0.614637
H174	H	1.586539	-0.542518	0.864637
H175	H	1.836539	-0.292518	1.114637
H176	H	2.086539	-0.042518	1.364637
H177	H	1.417719	-0.919659	0.305957
H178	H	1.667719	-0.669659	0.555957
H179	H	1.917719	-0.419659	0.805957
H180	H	2.167719	-0.169659	1.055957
H181	H	1.521159	-0.920406	0.563673
H182	H	1.771159	-0.670406	0.813673
H183	H	2.021159	-0.420406	1.063673
H184	H	2.271159	-0.170406	1.313673
Br185	Br	1.193251	-0.779542	0.510517
Br186	Br	1.443251	-0.529542	0.760517
Br187	Br	1.693251	-0.279542	1.010517
Br188	Br	1.943251	-0.029542	1.260517
H189	H	1.418843	-0.792926	0.305891
H190	H	1.668843	-0.542926	0.555891
H191	H	1.918843	-0.292926	0.805891
H192	H	2.168843	-0.042926	1.055891
H193	H	1.291321	-0.918985	0.341472
H194	H	1.541321	-0.668985	0.591472
H195	H	1.791321	-0.418985	0.841472
H196	H	2.041321	-0.168985	1.091472
H197	H	1.292590	-0.791912	0.340630
H198	H	1.542590	-0.541912	0.590630
H199	H	1.792590	-0.291912	0.840630
H200	H	2.042590	-0.041912	1.090630
H201	H	1.516221	-0.792844	0.567852
H202	H	1.766221	-0.542844	0.817852
H203	H	2.016221	-0.292844	1.067852
H204	H	2.266221	-0.042844	1.317852
Br205	Br	1.592689	-0.777518	0.408945
Br206	Br	1.842689	-0.527518	0.658945
Br207	Br	2.092689	-0.277518	0.908945
Br208	Br	2.342689	-0.027518	1.158945
H209	H	1.551460	-0.919113	0.436383
H210	H	1.801460	-0.669113	0.686383
H211	H	2.051460	-0.419113	0.936383
H212	H	2.301460	-0.169113	1.186383
H213	H	1.244495	-0.920792	0.522460
H214	H	1.494495	-0.670792	0.772460
H215	H	1.744495	-0.420792	1.022460
H216	H	1.994495	-0.170792	1.272460
Br217	Br	1.348083	-0.933446	0.665541
Br218	Br	1.598083	-0.683446	0.915541
Br219	Br	1.848083	-0.433446	1.165541
Br220	Br	2.098083	-0.183446	1.415541
