data_functionalizedCrystal
_audit_creation_method	'MofGen! by Chris Wilmer'
_symmetry_space_group_name_H-M	'P1'
_symmetry_Int_Tables_number	1
_symmetry_cell_setting	triclinic
loop_
_symmetry_equiv_pos_as_xyz
  x,y,z
_cell_length_a	29.839133
_cell_length_b	18.050591
_cell_length_c	18.050582
_cell_angle_alpha	89.979078
_cell_angle_beta	90.015179
_cell_angle_gamma	89.974391
loop_
_atom_site_label
_atom_site_type_symbol
_atom_site_fract_x
_atom_site_fract_y
_atom_site_fract_z
Zn1	Zn	-0.178930	-1.135285	0.420070
Zn2	Zn	0.071070	-0.885285	0.670070
Zn3	Zn	0.321070	-0.635285	0.920070
Zn4	Zn	0.571070	-0.385285	1.170070
Zn5	Zn	-0.254052	-1.135193	0.295896
Zn6	Zn	-0.004052	-0.885193	0.545896
Zn7	Zn	0.245948	-0.635193	0.795896
Zn8	Zn	0.495948	-0.385193	1.045896
Zn9	Zn	-0.178931	-1.011105	0.295881
Zn10	Zn	0.071069	-0.761105	0.545881
Zn11	Zn	0.321069	-0.511105	0.795881
Zn12	Zn	0.571069	-0.261105	1.045881
Zn13	Zn	-0.254028	-1.011050	0.420031
Zn14	Zn	-0.004028	-0.761050	0.670031
Zn15	Zn	0.245972	-0.511050	0.920031
Zn16	Zn	0.495972	-0.261050	1.170031
O17	O	-0.216485	-1.073158	0.357969
O18	O	0.033515	-0.823158	0.607969
O19	O	0.283515	-0.573158	0.857969
O20	O	0.533515	-0.323158	1.107969
O21	O	-0.188904	-1.239198	0.403620
O22	O	0.061096	-0.989198	0.653620
O23	O	0.311096	-0.739198	0.903620
O24	O	0.561096	-0.489198	1.153620
O25	O	-0.244098	-1.118717	0.191969
O26	O	0.005902	-0.868717	0.441969
O27	O	0.255902	-0.618717	0.691969
O28	O	0.505902	-0.368717	0.941969
O29	O	-0.116064	-1.027639	0.312364
O30	O	0.133936	-0.777639	0.562364
O31	O	0.383936	-0.527639	0.812364
O32	O	0.633936	-0.277639	1.062364
O33	O	-0.244096	-1.239130	0.312390
O34	O	0.005904	-0.989130	0.562390
O35	O	0.255904	-0.739130	0.812390
O36	O	0.505904	-0.489130	1.062390
O37	O	-0.116063	-1.118874	0.403606
O38	O	0.133937	-0.868874	0.653606
O39	O	0.383937	-0.618874	0.903606
O40	O	0.633937	-0.368874	1.153606
O41	O	-0.188907	-1.027550	0.191958
O42	O	0.061093	-0.777550	0.441958
O43	O	0.311093	-0.527550	0.691958
O44	O	0.561093	-0.277550	0.941958
O45	O	-0.188884	-0.907173	0.312327
O46	O	0.061116	-0.657173	0.562327
O47	O	0.311116	-0.407173	0.812327
O48	O	0.561116	-0.157173	1.062327
O49	O	-0.244055	-1.027545	0.523961
O50	O	0.005945	-0.777545	0.773961
O51	O	0.255945	-0.527545	1.023961
O52	O	0.505945	-0.277545	1.273961
O53	O	-0.244057	-0.907132	0.403540
O54	O	0.005943	-0.657132	0.653540
O55	O	0.255943	-0.407132	0.903540
O56	O	0.505943	-0.157132	1.153540
O57	O	-0.188881	-1.118821	0.523989
O58	O	0.061119	-0.868821	0.773989
O59	O	0.311119	-0.618821	1.023989
O60	O	0.561119	-0.368821	1.273989
O61	O	-0.316916	-1.118664	0.312353
O62	O	-0.066916	-0.868664	0.562353
O63	O	0.183084	-0.618664	0.812353
O64	O	0.433084	-0.368664	1.062353
O65	O	-0.316898	-1.027456	0.403554
O66	O	-0.066898	-0.777456	0.653554
O67	O	0.183102	-0.527456	0.903554
O68	O	0.433102	-0.277456	1.153554
C69	C	-0.216469	-0.880206	0.357928
C70	C	0.033531	-0.630206	0.607928
C71	C	0.283531	-0.380206	0.857928
C72	C	0.533531	-0.130206	1.107928
C73	C	-0.216472	-0.797660	0.357928
C74	C	0.033528	-0.547660	0.607928
C75	C	0.283528	-0.297660	0.857928
C76	C	0.533528	-0.047660	1.107928
C77	C	-0.216465	-1.073187	0.551675
C78	C	0.033535	-0.823187	0.801675
C79	C	0.283535	-0.573187	1.051675
C80	C	0.533535	-0.323187	1.301675
C81	C	-0.216457	-1.073200	0.634221
C82	C	0.033543	-0.823200	0.884221
C83	C	0.283543	-0.573200	1.134221
C84	C	0.533543	-0.323200	1.384221
C85	C	-0.333208	-1.073064	0.357967
C86	C	-0.083208	-0.823064	0.607967
C87	C	0.166792	-0.573064	0.857967
C88	C	0.416792	-0.323064	1.107967
C89	C	-0.383142	-1.073091	0.357991
C90	C	-0.133142	-0.823091	0.607991
C91	C	0.116858	-0.573091	0.857991
C92	C	0.366858	-0.323091	1.107991
C93	C	-0.739694	-1.120692	0.405533
C94	C	-0.489694	-0.870692	0.655533
C95	C	-0.239694	-0.620692	0.905533
C96	C	0.010306	-0.370692	1.155533
C97	C	-0.552021	-1.120621	0.405532
C98	C	-0.302021	-0.870621	0.655532
C99	C	-0.052021	-0.620621	0.905532
C100	C	0.197979	-0.370621	1.155532
O101	O	-0.527726	-1.160996	0.445943
O102	O	-0.277726	-0.910996	0.695943
O103	O	-0.027726	-0.660996	0.945943
O104	O	0.222274	-0.410996	1.195943
N105	N	-0.528587	-1.073150	0.357989
N106	N	-0.278587	-0.823150	0.607989
N107	N	-0.028587	-0.573150	0.857989
N108	N	0.221413	-0.323150	1.107989
C109	C	-0.552075	-1.025697	0.310440
C110	C	-0.302075	-0.775697	0.560440
C111	C	-0.052075	-0.525697	0.810440
C112	C	0.197925	-0.275697	1.060440
O113	O	-0.527838	-0.985323	0.269996
O114	O	-0.277838	-0.735323	0.519996
O115	O	-0.027838	-0.485323	0.769996
O116	O	0.222162	-0.235323	1.019996
C117	C	-0.739747	-1.025771	0.310438
C118	C	-0.489747	-0.775771	0.560438
C119	C	-0.239747	-0.525771	0.810438
C120	C	0.010253	-0.275771	1.060438
C121	C	-0.763178	-1.073240	0.357989
C122	C	-0.513178	-0.823240	0.607989
C123	C	-0.263178	-0.573240	0.857989
C124	C	-0.013178	-0.323240	1.107989
C125	C	-0.763125	-1.168157	0.453080
C126	C	-0.513125	-0.918157	0.703080
C127	C	-0.263125	-0.668157	0.953080
C128	C	-0.013125	-0.418157	1.203080
C129	C	-0.810040	-1.168171	0.453082
C130	C	-0.560040	-0.918171	0.703082
C131	C	-0.310040	-0.668171	0.953082
C132	C	-0.060040	-0.418171	1.203082
C133	C	-0.833525	-1.120720	0.405538
C134	C	-0.583525	-0.870720	0.655538
C135	C	-0.333525	-0.620720	0.905538
C136	C	-0.083525	-0.370720	1.155538
C137	C	-0.810094	-1.073254	0.357991
C138	C	-0.560094	-0.823254	0.607991
C139	C	-0.310094	-0.573254	0.857991
C140	C	-0.060094	-0.323254	1.107991
C141	C	-0.763234	-0.978322	0.262885
C142	C	-0.513234	-0.728322	0.512885
C143	C	-0.263234	-0.478322	0.762885
C144	C	-0.013234	-0.228322	1.012885
C145	C	-0.810155	-0.978346	0.262887
C146	C	-0.560155	-0.728346	0.512887
C147	C	-0.310155	-0.478346	0.762887
C148	C	-0.060155	-0.228346	1.012887
C149	C	-0.833586	-1.025815	0.310439
C150	C	-0.583586	-0.775815	0.560439
C151	C	-0.333586	-0.525815	0.810439
C152	C	-0.083586	-0.275815	1.060439
C153	C	-0.880494	-1.025817	0.310450
C154	C	-0.630494	-0.775817	0.560450
C155	C	-0.380494	-0.525817	0.810450
C156	C	-0.130494	-0.275817	1.060450
N157	N	-0.903927	-1.073288	0.357993
N158	N	-0.653927	-0.823288	0.607993
N159	N	-0.403927	-0.573288	0.857993
N160	N	-0.153927	-0.323288	1.107993
C161	C	-0.880443	-1.120740	0.405537
C162	C	-0.630443	-0.870740	0.655537
C163	C	-0.380443	-0.620740	0.905537
C164	C	-0.130443	-0.370740	1.155537
C165	C	-0.453545	-1.025660	0.310445
C166	C	-0.203545	-0.775660	0.560445
C167	C	0.046455	-0.525660	0.810445
C168	C	0.296455	-0.275660	1.060445
C169	C	-0.406627	-1.025640	0.310447
C170	C	-0.156627	-0.775640	0.560447
C171	C	0.093373	-0.525640	0.810447
C172	C	0.343373	-0.275640	1.060447
C173	C	-0.406576	-1.120566	0.405538
C174	C	-0.156576	-0.870566	0.655538
C175	C	0.093424	-0.620566	0.905538
C176	C	0.343424	-0.370566	1.155538
C177	C	-0.453494	-1.120581	0.405540
C178	C	-0.203494	-0.870581	0.655540
C179	C	0.046506	-0.620581	0.905540
C180	C	0.296506	-0.370581	1.155540
C181	C	-0.476978	-1.073131	0.357988
C182	C	-0.226978	-0.823131	0.607988
C183	C	0.023022	-0.573131	0.857988
C184	C	0.273022	-0.323131	1.107988
C185	C	-0.978968	-1.120766	0.405539
C186	C	-0.728968	-0.870766	0.655539
C187	C	-0.478968	-0.620766	0.905539
C188	C	-0.228968	-0.370766	1.155539
C189	C	-1.025888	-1.120773	0.405540
C190	C	-0.775888	-0.870773	0.655540
C191	C	-0.525888	-0.620773	0.905540
C192	C	-0.275888	-0.370773	1.155540
C193	C	-1.025935	-1.025851	0.310446
C194	C	-0.775935	-0.775851	0.560446
C195	C	-0.525935	-0.525851	0.810446
C196	C	-0.275935	-0.275851	1.060446
C197	C	-0.979020	-1.025840	0.310448
C198	C	-0.729020	-0.775840	0.560448
C199	C	-0.479020	-0.525840	0.810448
C200	C	-0.229020	-0.275840	1.060448
C201	C	-0.955537	-1.073303	0.357997
C202	C	-0.705537	-0.823303	0.607997
C203	C	-0.455537	-0.573303	0.857997
C204	C	-0.205537	-0.323303	1.107997
O205	O	-0.904818	-0.985469	0.270054
O206	O	-0.654818	-0.735469	0.520054
O207	O	-0.404818	-0.485469	0.770054
O208	O	-0.154818	-0.235469	1.020054
O209	O	-0.904688	-1.161119	0.445963
O210	O	-0.654688	-0.911119	0.695963
O211	O	-0.404688	-0.661119	0.945963
O212	O	-0.154688	-0.411119	1.195963
C213	C	-0.692778	-1.120677	0.405530
C214	C	-0.442778	-0.870677	0.655530
C215	C	-0.192778	-0.620677	0.905530
C216	C	0.057222	-0.370677	1.155530
C217	C	-0.669347	-1.073212	0.357984
C218	C	-0.419347	-0.823212	0.607984
C219	C	-0.169347	-0.573212	0.857984
C220	C	0.080653	-0.323212	1.107984
C221	C	-0.692832	-1.025760	0.310439
C222	C	-0.442832	-0.775760	0.560439
C223	C	-0.192832	-0.525760	0.810439
C224	C	0.057168	-0.275760	1.060439
C225	C	-0.622430	-1.073192	0.357985
C226	C	-0.372430	-0.823192	0.607985
C227	C	-0.122430	-0.573192	0.857985
C228	C	0.127570	-0.323192	1.107985
C229	C	-0.598945	-1.120643	0.405529
C230	C	-0.348945	-0.870643	0.655529
C231	C	-0.098945	-0.620643	0.905529
C232	C	0.151055	-0.370643	1.155529
C233	C	-0.622378	-1.168114	0.453072
C234	C	-0.372378	-0.918114	0.703072
C235	C	-0.122378	-0.668114	0.953072
C236	C	0.127622	-0.418114	1.203072
C237	C	-0.669294	-1.168129	0.453074
C238	C	-0.419294	-0.918129	0.703074
C239	C	-0.169294	-0.668129	0.953074
C240	C	0.080706	-0.418129	1.203074
C241	C	-0.669399	-0.978289	0.262897
C242	C	-0.419399	-0.728289	0.512897
C243	C	-0.169399	-0.478289	0.762897
C244	C	0.080601	-0.228289	1.012897
C245	C	-0.622483	-0.978278	0.262899
C246	C	-0.372483	-0.728278	0.512899
C247	C	-0.122483	-0.478278	0.762899
C248	C	0.127517	-0.228278	1.012899
C249	C	-0.598999	-1.025730	0.310443
C250	C	-0.348999	-0.775730	0.560443
C251	C	-0.098999	-0.525730	0.810443
C252	C	0.151001	-0.275730	1.060443
C253	C	-0.099307	-1.073273	0.357988
C254	C	0.150693	-0.823273	0.607988
C255	C	0.400693	-0.573273	0.857988
C256	C	0.650693	-0.323273	1.107988
C257	C	-0.049373	-1.073322	0.357995
C258	C	0.200627	-0.823322	0.607995
C259	C	0.450627	-0.573322	0.857995
C260	C	0.700627	-0.323322	1.107995
C261	C	-0.216502	-1.266864	0.358011
C262	C	0.033498	-1.016864	0.608011
C263	C	0.283498	-0.766864	0.858011
C264	C	0.533498	-0.516864	1.108011
C265	C	-0.216510	-1.349410	0.358029
C266	C	0.033490	-1.099410	0.608029
C267	C	0.283490	-0.849410	0.858029
C268	C	0.533490	-0.599410	1.108029
C269	C	-0.186434	-0.598210	0.308441
C270	C	0.063566	-0.348210	0.558441
C271	C	0.313566	-0.098210	0.808441
C272	C	0.563566	0.151790	1.058441
C273	C	-0.227410	-0.548789	0.290174
C274	C	0.022590	-0.298789	0.540174
C275	C	0.272590	-0.048789	0.790174
C276	C	0.522590	0.201211	1.040174
C277	C	-0.216486	-0.646530	0.357962
C278	C	0.033514	-0.396530	0.607962
C279	C	0.283514	-0.146530	0.857962
C280	C	0.533514	0.103470	1.107962
C281	C	-0.175525	-0.548870	0.376227
C282	C	0.074475	-0.298870	0.626227
C283	C	0.324475	-0.048870	0.876227
C284	C	0.574475	0.201130	1.126227
C285	C	-0.216495	-0.500545	0.357993
C286	C	0.033505	-0.250545	0.607993
C287	C	0.283505	-0.000545	0.857993
C288	C	0.533505	0.249455	1.107993
C289	C	-0.257483	-0.598196	0.339659
C290	C	-0.007483	-0.348196	0.589659
C291	C	0.242517	-0.098196	0.839659
C292	C	0.492517	0.151804	1.089659
C293	C	-0.205570	-0.598281	0.425744
C294	C	0.044430	-0.348281	0.675744
C295	C	0.294430	-0.098281	0.925744
C296	C	0.544430	0.151719	1.175744
C297	C	-0.246574	-0.548882	0.407503
C298	C	0.003426	-0.298882	0.657503
C299	C	0.253426	-0.048882	0.907503
C300	C	0.503426	0.201118	1.157503
C301	C	-0.216480	-0.730628	0.357942
C302	C	0.033520	-0.480628	0.607942
C303	C	0.283520	-0.230628	0.857942
C304	C	0.533520	0.019372	1.107942
C305	C	-0.216506	-0.416448	0.358013
C306	C	0.033494	-0.166448	0.608013
C307	C	0.283494	0.083552	0.858013
C308	C	0.533494	0.333552	1.108013
C309	C	-0.216473	-1.073172	0.165017
C310	C	0.033527	-0.823172	0.415017
C311	C	0.283527	-0.573172	0.665017
C312	C	0.533527	-0.323172	0.915017
C313	C	-0.216355	-1.073303	0.082472
C314	C	0.033645	-0.823303	0.332472
C315	C	0.283645	-0.573303	0.582472
C316	C	0.533645	-0.323303	0.832472
C317	C	-0.246420	-1.023602	0.833656
C318	C	0.003580	-0.773602	1.083656
C319	C	0.253580	-0.523602	1.333656
C320	C	0.503580	-0.273602	1.583656
C321	C	-0.257404	-1.091357	0.883057
C322	C	-0.007404	-0.841357	1.133057
C323	C	0.242596	-0.591357	1.383057
C324	C	0.492596	-0.341357	1.633057
C325	C	-0.216423	-1.073236	0.785351
C326	C	0.033577	-0.823236	1.035351
C327	C	0.283577	-0.573236	1.285351
C328	C	0.533577	-0.323236	1.535351
C329	C	-0.205426	-1.005519	0.883032
C330	C	0.044574	-0.755519	1.133032
C331	C	0.294574	-0.505519	1.383032
C332	C	0.544574	-0.255519	1.633032
C333	C	-0.216390	-1.073266	0.931336
C334	C	0.033610	-0.823266	1.181336
C335	C	0.283610	-0.573266	1.431336
C336	C	0.533610	-0.323266	1.681336
C337	C	-0.227429	-1.141027	0.833665
C338	C	0.022571	-0.891027	1.083665
C339	C	0.272571	-0.641027	1.333665
C340	C	0.522571	-0.391027	1.583665
C341	C	-0.175431	-1.055143	0.833636
C342	C	0.074569	-0.805143	1.083636
C343	C	0.324569	-0.555143	1.333636
C344	C	0.574569	-0.305143	1.583636
C345	C	-0.186400	-1.122944	0.883014
C346	C	0.063600	-0.872944	1.133014
C347	C	0.313600	-0.622944	1.383014
C348	C	0.563600	-0.372944	1.633014
C349	C	-0.216442	-1.073218	0.701253
C350	C	0.033558	-0.823218	0.951253
C351	C	0.283558	-0.573218	1.201253
C352	C	0.533558	-0.323218	1.451253
C353	C	-0.216371	-1.073291	1.015433
C354	C	0.033629	-0.823291	1.265433
C355	C	0.283629	-0.573291	1.515433
C356	C	0.533629	-0.323291	1.765433
H357	H	-1.044963	-1.159427	0.444266
H358	H	-0.794963	-0.909427	0.694266
H359	H	-0.544963	-0.659427	0.944266
H360	H	-0.294963	-0.409427	1.194266
H361	H	-0.603409	-0.939617	0.224178
H362	H	-0.353409	-0.689617	0.474178
H363	H	-0.103409	-0.439617	0.724178
H364	H	0.146591	-0.189617	0.974178
F365	F	-0.302779	-0.626396	0.319396
F366	F	-0.052779	-0.376396	0.569396
F367	F	0.197221	-0.126396	0.819396
F368	F	0.447221	0.123604	1.069396
H369	H	-0.161018	-1.164980	0.904549
H370	H	0.088982	-0.914980	1.154549
H371	H	0.338982	-0.664980	1.404549
H372	H	0.588982	-0.414980	1.654549
H373	H	-0.236756	-1.198324	0.812070
H374	H	0.013244	-0.948324	1.062070
H375	H	0.263244	-0.698324	1.312070
H376	H	0.513244	-0.448324	1.562070
F377	F	-0.279834	-0.520748	0.462259
F378	F	-0.029834	-0.270748	0.712259
F379	F	0.220166	-0.020748	0.962259
F380	F	0.470166	0.229252	1.212259
H381	H	-0.472661	-0.987018	0.271721
H382	H	-0.222661	-0.737018	0.521721
H383	H	0.027339	-0.487018	0.771721
H384	H	0.277339	-0.237018	1.021721
F385	F	-0.193478	-0.626716	0.500631
F386	F	0.056522	-0.376716	0.750631
F387	F	0.306522	-0.126716	1.000631
F388	F	0.556522	0.123284	1.250631
F389	F	-0.130151	-1.035091	0.805238
F390	F	0.119849	-0.785091	1.055238
F391	F	0.369849	-0.535091	1.305238
F392	F	0.619849	-0.285091	1.555238
F393	F	-0.381695	-0.975106	0.259847
F394	F	-0.131695	-0.725106	0.509847
F395	F	0.118305	-0.475106	0.759847
F396	F	0.368305	-0.225106	1.009847
H397	H	-0.959942	-0.987179	0.271735
H398	H	-0.709942	-0.737179	0.521735
H399	H	-0.459942	-0.487179	0.771735
H400	H	-0.209942	-0.237179	1.021735
H401	H	-0.292056	-1.106678	0.904765
H402	H	-0.042056	-0.856678	1.154765
H403	H	0.207944	-0.606678	1.404765
H404	H	0.457944	-0.356678	1.654765
H405	H	-0.744164	-0.939669	0.224164
H406	H	-0.494164	-0.689669	0.474164
H407	H	-0.244164	-0.439669	0.724164
H408	H	0.005836	-0.189669	0.974164
F409	F	-0.153252	-0.626522	0.253646
F410	F	0.096748	-0.376522	0.503646
F411	F	0.346748	-0.126522	0.753646
F412	F	0.596748	0.123478	1.003646
F413	F	-0.193285	-0.930650	0.911378
F414	F	0.056715	-0.680650	1.161378
F415	F	0.306715	-0.430650	1.411378
F416	F	0.556715	-0.180650	1.661378
H417	H	-0.271821	-0.981667	0.811985
H418	H	-0.021821	-0.731667	1.061985
H419	H	0.228179	-0.481667	1.311985
H420	H	0.478179	-0.231667	1.561985
F421	F	-0.953983	-1.171282	0.456146
F422	F	-0.703983	-0.921282	0.706146
F423	F	-0.453983	-0.671282	0.956146
F424	F	-0.203983	-0.421282	1.206146
H425	H	-0.829273	-0.939706	0.224163
H426	H	-0.579273	-0.689706	0.474163
H427	H	-0.329273	-0.439706	0.724163
H428	H	-0.079273	-0.189706	0.974163
F429	F	-0.130243	-0.520543	0.396402
F430	F	0.119757	-0.270543	0.646402
F431	F	0.369757	-0.020543	0.896402
F432	F	0.619757	0.229457	1.146402
F433	F	-1.050937	-0.975347	0.259854
F434	F	-0.800937	-0.725347	0.509854
F435	F	-0.550937	-0.475347	0.759854
F436	F	-0.300937	-0.225347	1.009854
F437	F	-0.694225	-1.218651	0.503687
F438	F	-0.444225	-0.968651	0.753687
F439	F	-0.194225	-0.718651	1.003687
F440	F	0.055775	-0.468651	1.253687
H441	H	-0.829113	-1.206831	0.491798
H442	H	-0.579113	-0.956831	0.741798
H443	H	-0.329113	-0.706831	0.991798
H444	H	-0.079113	-0.456831	1.241798
F445	F	-0.478427	-1.171105	0.456148
F446	F	-0.228427	-0.921105	0.706148
F447	F	0.021573	-0.671105	0.956148
F448	F	0.271573	-0.421105	1.206148
F449	F	-0.738138	-1.218667	0.503687
F450	F	-0.488138	-0.968667	0.753687
F451	F	-0.238138	-0.718667	1.003687
F452	F	0.011862	-0.468667	1.253687
F453	F	-0.239487	-0.520374	0.215268
F454	F	0.010513	-0.270374	0.465268
F455	F	0.260513	-0.020374	0.715268
F456	F	0.510513	0.229626	0.965268
F457	F	-0.381574	-1.171069	0.456137
F458	F	-0.131574	-0.921069	0.706137
F459	F	0.118426	-0.671069	0.956137
F460	F	0.368426	-0.421069	1.206137
H461	H	-0.603250	-1.206749	0.491787
H462	H	-0.353250	-0.956749	0.741787
H463	H	-0.103250	-0.706749	0.991787
H464	H	0.146750	-0.456749	1.241787
F465	F	-0.694386	-0.927782	0.212291
F466	F	-0.444386	-0.677782	0.462291
F467	F	-0.194386	-0.427782	0.712291
F468	F	0.055614	-0.177782	0.962291
