data_functionalizedCrystal
_audit_creation_method	'MofGen! by Chris Wilmer'
_symmetry_space_group_name_H-M	'P1'
_symmetry_Int_Tables_number	1
_symmetry_cell_setting	triclinic
loop_
_symmetry_equiv_pos_as_xyz
  x,y,z
_cell_length_a	12.759401
_cell_length_b	12.759399
_cell_length_c	12.759393
_cell_angle_alpha	90.026805
_cell_angle_beta	89.980324
_cell_angle_gamma	89.985324
loop_
_atom_site_label
_atom_site_type_symbol
_atom_site_fract_x
_atom_site_fract_y
_atom_site_fract_z
Zn1	Zn	1.606270	0.418204	-0.594012
Zn2	Zn	2.106270	0.918204	-0.094012
Zn3	Zn	1.606162	0.593919	-0.418343
Zn4	Zn	2.106162	1.093919	0.081657
Zn5	Zn	1.430568	0.418256	-0.418351
Zn6	Zn	1.930568	0.918256	0.081649
Zn7	Zn	1.430562	0.593842	-0.593984
Zn8	Zn	1.930562	1.093842	-0.093984
O9	O	1.518390	0.506055	-0.506172
O10	O	2.018390	1.006055	-0.006172
O11	O	1.753276	0.441523	-0.570717
O12	O	2.253276	0.941523	-0.070717
O13	O	1.582827	0.570671	-0.271323
O14	O	2.082827	1.070671	0.228677
O15	O	1.453923	0.271228	-0.441667
O16	O	1.953923	0.771228	0.058333
O17	O	1.753197	0.570620	-0.441654
O18	O	2.253197	1.070620	0.058346
O19	O	1.583010	0.271189	-0.570725
O20	O	2.083010	0.771189	-0.070725
O21	O	1.453819	0.441612	-0.271329
O22	O	1.953819	0.941612	0.228671
O23	O	1.283546	0.441538	-0.441641
O24	O	1.783546	0.941538	0.058359
O25	O	1.453912	0.570489	-0.741009
O26	O	1.953912	1.070489	-0.241009
O27	O	1.283542	0.570540	-0.570678
O28	O	1.783542	1.070540	-0.070678
O29	O	1.583004	0.441448	-0.741029
O30	O	2.083004	0.941448	-0.241029
O31	O	1.582821	0.740930	-0.441628
O32	O	2.082821	1.240930	0.058372
O33	O	1.453808	0.740874	-0.570670
O34	O	1.953808	1.240874	-0.070670
C35	C	1.245423	0.506037	-0.506158
C36	C	1.745423	1.006037	-0.006158
C37	C	1.128646	0.506055	-0.506176
C38	C	1.628646	1.006055	-0.006176
C39	C	1.073826	0.438955	-0.573483
C40	C	1.573826	0.938955	-0.073483
C41	C	0.964102	0.438966	-0.573490
C42	C	1.464102	0.938966	-0.073490
C43	C	0.964028	0.573185	-0.438880
C44	C	1.464028	1.073185	0.061120
C45	C	1.073750	0.573168	-0.438869
C46	C	1.573750	1.073168	0.061131
C47	C	1.518330	0.779023	-0.506168
C48	C	2.018330	1.279023	-0.006168
C49	C	1.518401	0.895799	-0.506201
C50	C	2.018401	1.395799	-0.006201
C51	C	1.585655	0.950656	-0.439089
C52	C	2.085655	1.450656	0.060911
C53	C	1.585724	1.060380	-0.439132
C54	C	2.085724	1.560380	0.060868
C55	C	1.451275	1.060381	-0.573403
C56	C	1.951275	1.560381	-0.073403
C57	C	1.451212	0.950659	-0.573364
C58	C	1.951212	1.450659	-0.073364
C59	C	1.792424	0.506074	-0.506188
C60	C	2.292424	1.006074	-0.006188
C61	C	1.909200	0.506082	-0.506195
C62	C	2.409200	1.006082	-0.006195
C63	C	1.518483	1.232022	-0.506218
C64	C	2.018483	1.732022	-0.006218
C65	C	1.518533	1.115245	-0.506283
C66	C	2.018533	1.615245	-0.006283
C67	C	1.518469	0.505954	-0.780206
C68	C	2.018469	1.005954	-0.280206
C69	C	1.518503	0.505911	-0.896983
C70	C	2.018503	1.005911	-0.396983
C71	C	1.585726	0.438709	-0.951857
C72	C	2.085726	0.938709	-0.451857
C73	C	1.585743	0.438664	-1.061581
C74	C	2.085743	0.938664	-0.561581
C75	C	1.451312	0.573032	-1.061547
C76	C	1.951312	1.073032	-0.561547
C77	C	1.451290	0.573072	-0.951825
C78	C	1.951290	1.073072	-0.451825
C79	C	1.518373	0.506080	-0.233205
C80	C	2.018373	1.006080	0.266795
C81	C	1.518543	0.505827	-0.116429
C82	C	2.018543	1.005827	0.383571
H83	H	1.118520	0.384304	-0.628285
H84	H	1.618520	0.884304	-0.128285
H85	H	1.640365	0.905991	-0.384403
H86	H	2.140365	1.405991	0.115597
C87	C	1.659705	1.120717	-0.365299
C88	C	2.159705	1.620717	0.134701
N89	N	1.715430	1.166162	-0.309683
N90	N	2.215430	1.666162	0.190317
H91	H	1.396571	1.105062	-0.628083
H92	H	1.896571	1.605062	-0.128083
H93	H	1.396445	0.905992	-0.628020
H94	H	1.896445	1.405992	-0.128020
C95	C	1.659652	0.364822	-0.891534
C96	C	2.159652	0.864822	-0.391534
N97	N	1.715333	0.309164	-0.846102
N98	N	2.215333	0.809164	-0.346102
C99	C	1.659697	0.364738	-1.121938
C100	C	2.159697	0.864738	-0.621938
N101	N	1.715402	0.309054	-1.167397
N102	N	2.215402	0.809054	-0.667397
C103	C	1.377380	0.646902	-1.121884
C104	C	1.877380	1.146902	-0.621884
N105	N	1.321692	0.702543	-1.167328
N106	N	1.821692	1.202543	-0.667328
H107	H	1.396541	0.627795	-0.907145
H108	H	1.896541	1.127795	-0.407145
C109	C	0.903632	0.647012	-0.364853
C110	C	1.403632	1.147012	0.135147
N111	N	0.858143	0.702623	-0.309097
N112	N	1.358143	1.202623	0.190903
H113	H	1.118386	0.627810	-0.384054
H114	H	1.618386	1.127810	0.115946
C115	C	0.903805	0.365154	-0.647536
C116	C	1.403805	0.865154	-0.147536
N117	N	0.858390	0.309556	-0.703311
N118	N	1.358390	0.809556	-0.203311
