data_functionalizedCrystal
_audit_creation_method	'MofGen! by Chris Wilmer'
_symmetry_space_group_name_H-M	'P1'
_symmetry_Int_Tables_number	1
_symmetry_cell_setting	triclinic
loop_
_symmetry_equiv_pos_as_xyz
  x,y,z
_cell_length_a	14.519709
_cell_length_b	9.016244
_cell_length_c	14.519731
_cell_angle_alpha	90.003217
_cell_angle_beta	96.315501
_cell_angle_gamma	89.998797
loop_
_atom_site_label
_atom_site_type_symbol
_atom_site_fract_x
_atom_site_fract_y
_atom_site_fract_z
O1	O	-1.223881	0.123132	0.120886
O2	O	-0.955405	0.123182	0.135123
O3	O	-1.096751	0.123143	-0.006233
O4	O	-1.082535	0.123172	0.262242
O5	O	-1.096730	-0.123538	-0.006229
O6	O	-0.955384	-0.123499	0.135126
O7	O	-1.223860	-0.123548	0.120889
Cu8	Cu	-1.089620	-0.146047	0.128008
Cu9	Cu	-1.089645	0.145681	0.128004
O10	O	-1.082514	-0.123509	0.262245
C11	C	-0.921035	-0.000152	0.134461
C12	C	-0.818654	-0.000133	0.132473
C13	C	-0.443757	-0.000196	0.125153
C14	C	-0.548065	-0.000178	0.127186
C15	C	-0.631202	-0.000163	0.128813
C16	C	-0.735517	-0.000148	0.130846
N17	N	-1.089610	-0.351233	0.128010
C18	C	-1.013771	-0.586245	0.203376
C19	C	-1.013935	-0.414354	0.203655
C20	C	-1.185875	-0.413587	0.149187
C21	C	-1.185460	-0.585532	0.149720
C22	C	-1.070143	-0.585783	0.031215
C23	C	-1.067926	-0.413829	0.031860
C24	C	-0.258230	-0.000207	0.121551
C25	C	-0.360612	-0.000205	0.123539
C26	C	-1.096075	-0.000198	-0.040591
C27	C	-1.094079	-0.000199	-0.142971
N28	N	-1.089663	0.350867	0.127995
C29	C	-1.092457	-0.000195	-0.226115
C30	C	-1.090430	-0.000183	-0.330424
C31	C	-1.088822	-0.000173	-0.413563
C32	C	-1.086795	-0.000164	-0.517878
C33	C	-1.083191	-0.000165	0.296603
C34	C	-1.085187	-0.000155	0.398983
H35	H	-0.942385	-0.372198	0.191013
H36	H	-1.026412	-0.373202	0.275472
H37	H	-1.243699	-0.372699	0.095752
Br38	Br	-1.214087	-0.652352	0.267367
H39	H	-1.243706	-0.627130	0.096990
Br40	Br	-0.894129	-0.655172	0.182633
Br41	Br	-1.215176	-0.341785	0.265497
Br42	Br	-0.955660	-0.658128	-0.002645
H43	H	-0.997112	-0.373076	0.015792
H44	H	-1.026081	-0.629433	0.274787
H45	H	-1.119594	-0.370868	-0.026874
H46	H	-1.125486	-0.626451	-0.024883
