data_functionalizedCrystal
_audit_creation_method	'MofGen! by Chris Wilmer'
_symmetry_space_group_name_H-M	'P1'
_symmetry_Int_Tables_number	1
_symmetry_cell_setting	triclinic
loop_
_symmetry_equiv_pos_as_xyz
  x,y,z
_cell_length_a	16.109301
_cell_length_b	23.532407
_cell_length_c	14.586319
_cell_angle_alpha	89.991566
_cell_angle_beta	89.999213
_cell_angle_gamma	83.155079
loop_
_atom_site_label
_atom_site_type_symbol
_atom_site_fract_x
_atom_site_fract_y
_atom_site_fract_z
O1	O	1.102555	0.073202	-0.076192
O2	O	0.860422	0.082312	-0.076208
O3	O	0.988790	-0.005148	-0.076183
O4	O	0.974187	0.160662	-0.076217
O5	O	0.988781	-0.005149	0.076298
O6	O	0.860413	0.082311	0.076273
O7	O	1.102546	0.073201	0.076289
Cu8	Cu	0.981479	0.077756	0.090204
Cu9	Cu	0.981489	0.077757	-0.090123
O10	O	0.974178	0.160660	0.076264
C11	C	0.829445	0.081942	0.000031
C12	C	0.737159	0.080836	0.000026
C13	C	0.514498	0.130160	0.000026
C14	C	0.427786	0.129116	0.000032
C15	C	0.448476	0.025348	0.000050
C16	C	0.535187	0.026393	0.000050
C17	C	0.568195	0.078801	0.000034
C18	C	0.394773	0.076712	0.000039
C19	C	0.300755	0.075580	0.000046
C20	C	0.662218	0.079933	0.000029
C21	C	0.988414	-0.026366	0.000060
C22	C	0.987296	-0.089587	0.000067
C23	C	1.056249	-0.488436	0.000021
C24	C	1.055210	-0.547840	0.000014
O25	O	1.119130	-0.584349	-0.000015
N26	N	0.978895	-0.570748	0.000010
C27	C	0.903614	-0.534248	0.000003
O28	O	0.838607	-0.559187	-0.000002
C29	C	0.904654	-0.474845	0.000004
C30	C	0.980973	-0.451941	0.000018
C31	C	1.132562	-0.465531	0.000034
C32	C	1.133601	-0.406131	0.000043
C33	C	1.058325	-0.369636	0.000039
C34	C	0.982012	-0.392541	0.000026
C35	C	0.829373	-0.438346	-0.000009
C36	C	0.830419	-0.378940	-0.000009
C37	C	0.906739	-0.356036	0.000004
C38	C	0.907774	-0.296645	0.000031
N39	N	0.984089	-0.273738	0.000035
C40	C	1.059365	-0.310233	0.000039
C41	C	0.901437	-0.658998	0.000001
C42	C	0.900396	-0.718400	0.000007
C43	C	1.051993	-0.731988	0.000016
C44	C	1.053032	-0.672585	0.000017
C45	C	0.977752	-0.636091	0.000005
C46	C	1.061539	-0.185488	0.000058
C47	C	1.062571	-0.126082	0.000071
C48	C	0.910975	-0.112499	0.000057
C49	C	0.909943	-0.171900	0.000049
C50	C	0.985232	-0.208394	0.000047
O51	O	0.843888	-0.260102	0.000057
O52	O	1.124361	-0.285285	0.000032
C53	C	1.133523	0.073570	0.000048
C54	C	1.225809	0.074677	0.000047
C55	C	0.974554	0.181878	0.000019
C56	C	0.975672	0.245100	0.000006
N57	N	0.981477	0.077754	0.217035
N58	N	0.981497	0.077754	-0.216954
C59	C	1.038338	0.039040	0.452053
C60	C	1.038340	0.039039	0.548034
C61	C	0.924631	0.116470	0.548021
C62	C	0.924625	0.116468	0.452042
C63	C	0.981483	0.077754	0.404060
C64	C	0.981491	0.077754	0.596021
C65	C	0.981494	0.077753	0.700088
C66	C	0.981480	0.077754	0.299986
H67	H	0.421590	-0.017320	0.000069
C68	C	1.099984	-0.002959	0.399792
C69	C	1.087811	0.005321	0.305464
C70	C	1.144573	-0.033367	0.257295
H71	H	1.091282	-0.040983	0.415448
H72	H	1.155454	0.003212	0.415438
H73	H	1.032354	-0.000854	0.289824
H74	H	1.096519	0.043337	0.289780
H75	H	1.200043	-0.027196	0.272942
H76	H	1.135867	-0.071388	0.272959
H77	H	1.136326	-0.027750	0.193289
C78	C	1.135833	-0.647642	-0.000121
C79	C	1.140858	-0.613920	-0.078559
C80	C	1.217120	-0.590930	-0.078714
H81	H	1.180584	-0.677830	-0.000164
H82	H	1.139398	-0.624723	0.053024
H83	H	1.137301	-0.636838	-0.131690
H84	H	1.096126	-0.583723	-0.078533
H85	H	1.220685	-0.568011	-0.025569
H86	H	1.261864	-0.621122	-0.078754
H87	H	1.220536	-0.568043	-0.131928
H88	H	0.384069	0.170939	0.000028
C89	C	0.819722	-0.619350	-0.000186
C90	C	0.815873	-0.584851	-0.078644
C91	C	0.740607	-0.548330	-0.078855
H92	H	0.816890	-0.595846	0.052926
H93	H	0.774105	-0.641485	-0.000237
H94	H	0.861478	-0.562718	-0.078585
H95	H	0.818691	-0.608340	-0.131769
H96	H	0.694989	-0.570465	-0.078906
H97	H	0.737781	-0.524830	-0.025740
H98	H	0.737982	-0.524921	-0.132092
H99	H	0.878340	0.147991	0.587098
C100	C	0.593356	-0.029434	0.000011
C101	C	0.545892	-0.075554	-0.000007
C102	C	0.599448	-0.126988	-0.000051
H103	H	0.627630	-0.031265	0.053171
H104	H	0.627602	-0.031212	-0.053183
H105	H	0.511661	-0.073777	0.053182
H106	H	0.511620	-0.073743	-0.053163
H107	H	0.633694	-0.128766	-0.053245
H108	H	0.633719	-0.128813	0.053110
H109	H	0.567252	-0.158286	-0.000072
H110	H	1.113286	-0.761714	0.000016
C111	C	1.100164	-0.003019	0.599975
C112	C	1.149966	-0.036912	0.537408
C113	C	1.206936	-0.075658	0.585221
H114	H	1.070555	-0.026787	0.637428
H115	H	1.134648	0.017461	0.637390
H116	H	1.115486	-0.057390	0.500009
H117	H	1.179593	-0.013159	0.499953
H118	H	1.241420	-0.055178	0.622636
H119	H	1.177320	-0.099422	0.622672
H120	H	1.240738	-0.098655	0.542777
H121	H	0.767225	-0.456984	-0.000026
C122	C	0.862857	0.158568	0.400094
C123	C	0.813083	0.192486	0.462655
C124	C	0.756182	0.231275	0.414834
H125	H	0.828339	0.138138	0.362659
H126	H	0.892544	0.182310	0.362661
H127	H	0.783398	0.168746	0.500072
H128	H	0.847578	0.212927	0.500092
H129	H	0.785869	0.255018	0.377401
H130	H	0.721670	0.210841	0.377400
H131	H	0.722409	0.254296	0.457274
C132	C	0.827145	-0.196852	-0.000100
C133	C	0.822136	-0.230555	-0.078546
C134	C	0.745879	-0.253551	-0.078718
H135	H	0.782390	-0.166667	-0.000145
H136	H	0.823578	-0.219785	0.053039
H137	H	0.825694	-0.207623	-0.131672
H138	H	0.866873	-0.260748	-0.078518
H139	H	0.742312	-0.276484	-0.025579
H140	H	0.701130	-0.223363	-0.078760
H141	H	0.742474	-0.276425	-0.131938
C142	C	1.145523	-0.101326	0.000035
C143	C	1.211220	-0.146006	0.000008
C144	C	1.287644	-0.123225	-0.000040
H145	H	1.149199	-0.078452	0.053196
H146	H	1.149128	-0.078445	-0.053157
H147	H	1.207617	-0.168878	0.053195
H148	H	1.207572	-0.168885	-0.053150
H149	H	1.291249	-0.100344	-0.053232
H150	H	1.291311	-0.100351	0.053123
H151	H	1.332229	-0.153537	-0.000066
C152	C	0.817448	-0.743153	-0.000044
C153	C	0.751754	-0.698471	-0.000068
C154	C	0.675328	-0.721249	-0.000133
H155	H	0.813765	-0.766042	0.053111
H156	H	0.813846	-0.766019	-0.053243
H157	H	0.755354	-0.675614	0.053126
H158	H	0.755409	-0.675578	-0.053219
H159	H	0.671726	-0.744115	-0.053331
H160	H	0.671654	-0.744137	0.053023
H161	H	0.630745	-0.690936	-0.000157
C162	C	0.748593	-0.339412	0.000025
C163	C	0.681541	-0.372191	0.000035
C164	C	0.606152	-0.335800	0.000081
H165	H	0.745732	-0.315937	-0.053131
H166	H	0.745792	-0.315971	0.053222
H167	H	0.684341	-0.395622	-0.053157
H168	H	0.684374	-0.395665	0.053188
H169	H	0.603352	-0.312359	0.053278
H170	H	0.603300	-0.312327	-0.053077
H171	H	0.560649	-0.358035	0.000096
C172	C	0.829277	-0.072840	-0.000140
C173	C	0.825458	-0.038344	-0.078600
C174	C	0.750206	-0.001807	-0.078827
H175	H	0.826448	-0.049335	0.052971
H176	H	0.783647	-0.094965	-0.000199
H177	H	0.871075	-0.016222	-0.078533
H178	H	0.828273	-0.061833	-0.131724
H179	H	0.704576	-0.023931	-0.078886
H180	H	0.747383	0.021694	-0.025713
H181	H	0.747601	0.021600	-0.132065
H182	H	0.541371	0.172834	0.000019
H183	H	1.122847	-0.215195	0.000053
H184	H	1.193864	-0.495240	0.000034
C185	C	1.216550	-0.381379	0.000002
C186	C	1.282241	-0.426064	-0.000022
C187	C	1.358669	-0.403289	-0.000075
H188	H	1.220231	-0.358503	0.053161
H189	H	1.220158	-0.358501	-0.053193
H190	H	1.278635	-0.448932	0.053167
H191	H	1.278587	-0.448943	-0.053178
H192	H	1.362277	-0.380410	-0.053269
H193	H	1.362341	-0.380413	0.053085
H194	H	1.403250	-0.433603	-0.000100
