data_functionalizedCrystal
_audit_creation_method	'MofGen! by Chris Wilmer'
_symmetry_space_group_name_H-M	'P1'
_symmetry_Int_Tables_number	1
_symmetry_cell_setting	triclinic
loop_
_symmetry_equiv_pos_as_xyz
  x,y,z
_cell_length_a	13.897449
_cell_length_b	18.101397
_cell_length_c	13.897441
_cell_angle_alpha	89.965096
_cell_angle_beta	89.976606
_cell_angle_gamma	90.021292
loop_
_atom_site_label
_atom_site_type_symbol
_atom_site_fract_x
_atom_site_fract_y
_atom_site_fract_z
Zn1	Zn	1.474684	-0.294790	-0.545421
Zn2	Zn	1.474570	-0.418645	-0.384110
Zn3	Zn	1.313373	-0.294824	-0.384132
Zn4	Zn	1.313347	-0.418596	-0.545355
O5	O	1.393994	-0.356714	-0.464754
O6	O	1.609651	-0.311226	-0.524041
O7	O	1.453150	-0.402255	-0.249131
O8	O	1.334830	-0.191186	-0.405564
O9	O	1.609567	-0.402222	-0.405527
O10	O	1.453344	-0.191161	-0.524062
O11	O	1.334720	-0.311284	-0.249147
O12	O	1.178388	-0.311236	-0.405500
O13	O	1.334785	-0.402137	-0.680346
O14	O	1.178369	-0.402171	-0.523950
O15	O	1.453319	-0.311178	-0.680394
O16	O	1.453125	-0.522272	-0.405463
O17	O	1.334675	-0.522235	-0.523929
C18	C	1.143379	-0.356702	-0.464721
C19	C	1.036165	-0.356715	-0.464729
C20	C	0.949096	-0.356718	-0.464745
C21	C	0.839863	-0.356723	-0.464775
C22	C	1.393911	-0.549124	-0.464708
C23	C	1.393964	-0.631438	-0.464720
C24	C	1.394087	-0.930529	-0.464808
C25	C	1.468405	-0.899196	-0.390073
C26	C	1.468662	-0.813577	-0.390266
C27	C	1.394026	-0.782147	-0.464763
C28	C	1.421587	-0.813148	-0.566438
C29	C	1.422162	-0.898793	-0.566031
C30	C	1.292011	-0.899041	-0.438749
C31	C	1.292515	-0.813391	-0.436479
C32	C	1.393990	-0.698287	-0.464745
C33	C	1.394126	-1.014389	-0.464834
C34	C	1.645587	-0.356726	-0.464789
C35	C	1.752800	-0.356731	-0.464803
C36	C	1.394062	-0.356648	-0.716348
C37	C	1.394091	-0.356620	-0.823562
C38	C	1.394103	-0.163552	-0.464822
C39	C	1.394149	-0.081238	-0.464851
C40	C	1.394117	-0.356570	-1.019857
C41	C	1.394100	-0.356600	-0.910624
C42	C	1.393981	-0.356725	-0.214140
C43	C	1.394139	-0.356545	-0.106927
H44	H	1.451370	-0.919844	-0.314457
O45	O	1.218662	-0.925884	-0.510846
H46	H	1.146796	-0.903415	-0.491967
O47	O	1.519495	-0.785042	-0.596197
H48	H	1.512953	-0.753110	-0.664086
O49	O	1.353573	-0.926240	-0.642307
H50	H	1.296639	-0.960351	-0.608123
H51	H	1.451419	-0.792620	-0.314876
H52	H	1.496775	-0.918710	-0.588105
H53	H	1.369113	-0.792786	-0.623619
H54	H	1.544275	-0.793032	-0.407508
H55	H	1.271733	-0.793137	-0.361655
O56	O	1.568017	-0.927626	-0.412648
H57	H	1.619912	-0.905181	-0.359469
H58	H	1.266939	-0.920706	-0.365893
H59	H	1.234164	-0.792004	-0.486926
