data_functionalizedCrystal
_audit_creation_method	'MofGen! by Chris Wilmer'
_symmetry_space_group_name_H-M	'P1'
_symmetry_Int_Tables_number	1
_symmetry_cell_setting	triclinic
loop_
_symmetry_equiv_pos_as_xyz
  x,y,z
_cell_length_a	13.032831
_cell_length_b	13.897448
_cell_length_c	13.034356
_cell_angle_alpha	97.210930
_cell_angle_beta	105.184960
_cell_angle_gamma	82.822399
loop_
_atom_site_label
_atom_site_type_symbol
_atom_site_fract_x
_atom_site_fract_y
_atom_site_fract_z
Zn1	Zn	1.700192	-0.489005	0.806446
Zn2	Zn	1.677506	-0.668494	0.628818
Zn3	Zn	1.499996	-0.489013	0.606329
Zn4	Zn	1.522536	-0.632052	0.783870
O5	O	1.600058	-0.569641	0.706366
O6	O	1.845820	-0.528063	0.801743
O7	O	1.635032	-0.659941	0.477194
O8	O	1.526614	-0.354034	0.632911
O9	O	1.829153	-0.659933	0.671240
O10	O	1.673696	-0.354028	0.779936
O11	O	1.504616	-0.528077	0.460672
O12	O	1.354348	-0.492740	0.611020
O13	O	1.565029	-0.597821	0.935505
O14	O	1.370908	-0.597829	0.741459
O15	O	1.695552	-0.492726	0.952091
O16	O	1.656888	-0.798639	0.649349
O17	O	1.543032	-0.771865	0.763266
C18	C	1.324088	-0.541332	0.671350
C19	C	1.206030	-0.529241	0.656395
C20	C	1.161605	-0.575951	0.714170
C21	C	1.039587	-0.563457	0.698715
C22	C	1.599976	-0.820251	0.706325
C23	C	1.600043	-0.927469	0.706355
C24	C	1.600163	-1.123769	0.706436
C25	C	1.600094	-1.014533	0.706394
C26	C	1.877105	-0.598062	0.741518
C27	C	1.995166	-0.610173	0.756498
C28	C	1.635336	-0.541208	0.983416
C29	C	1.650369	-0.529091	1.101479
C30	C	1.600171	-0.318054	0.706433
C31	C	1.600220	-0.210842	0.706462
C32	C	1.564978	-0.597901	0.430400
C33	C	1.550150	-0.609767	0.312365
C34	C	1.608026	-0.563170	1.267932
C35	C	1.592485	-0.575694	1.145908
H36	H	0.987291	-0.514209	0.637811
H37	H	1.213906	-0.625188	0.775079
H38	H	1.047462	-0.659411	0.817414
N39	N	1.140417	-0.467462	0.580002
N40	N	1.041390	-0.457395	0.567560
H41	H	0.995051	-0.413760	0.513607
N42	N	1.684625	-0.501505	1.333545
N43	N	1.697145	-0.491424	1.432577
H44	H	1.751246	-0.447872	1.478916
H45	H	1.531431	-0.624865	1.093614
H46	H	1.711431	-0.479926	1.153772
H47	H	1.489100	-0.658935	1.260068
