data_functionalizedCrystal
_audit_creation_method	'MofGen! by Chris Wilmer'
_symmetry_space_group_name_H-M	'P1'
_symmetry_Int_Tables_number	1
_symmetry_cell_setting	triclinic
loop_
_symmetry_equiv_pos_as_xyz
  x,y,z
_cell_length_a	19.188930
_cell_length_b	22.610064
_cell_length_c	19.188924
_cell_angle_alpha	89.998009
_cell_angle_beta	83.143372
_cell_angle_gamma	90.022082
loop_
_atom_site_label
_atom_site_type_symbol
_atom_site_fract_x
_atom_site_fract_y
_atom_site_fract_z
O1	O	0.926148	0.049377	0.087158
O2	O	1.426148	0.549377	0.587158
O3	O	0.722836	0.049337	0.098893
O4	O	1.222836	0.549337	0.598893
O5	O	0.830361	0.049351	-0.008630
O6	O	1.330361	0.549351	0.491370
O7	O	0.818622	0.049363	0.194682
O8	O	1.318622	0.549363	0.694682
O9	O	0.830342	-0.049018	-0.008615
O10	O	1.330342	0.450982	0.491385
O11	O	0.722817	-0.049032	0.098908
O12	O	1.222817	0.450968	0.598908
O13	O	0.926129	-0.048992	0.087174
O14	O	1.426129	0.451008	0.587174
Zn15	Zn	0.824470	-0.064630	0.093044
Zn16	Zn	1.324470	0.435370	0.593044
Zn17	Zn	0.824495	0.064975	0.093023
Zn18	Zn	1.324495	0.564975	0.593023
O19	O	0.818603	-0.049006	0.194697
O20	O	1.318603	0.450994	0.694697
C21	C	0.696815	0.000147	0.098521
C22	C	1.196815	0.500147	0.598521
C23	C	0.619311	0.000132	0.097380
C24	C	1.119311	0.500132	0.597380
N25	N	0.824458	-0.153083	0.093057
N26	N	1.324458	0.346917	0.593057
C27	C	0.574386	0.000145	0.160471
C28	C	1.074386	0.500145	0.660471
C29	C	0.501562	0.000151	0.159399
C30	C	1.001562	0.500151	0.659399
C31	C	0.473667	0.000157	0.095233
C32	C	0.973667	0.500157	0.595233
C33	C	0.518602	0.000140	0.032134
C34	C	1.018602	0.500140	0.532134
C35	C	0.591424	0.000128	0.033207
C36	C	1.091424	0.500128	0.533207
N37	N	0.365694	0.033657	0.046180
N38	N	0.865694	0.533657	0.546180
N39	N	0.296516	0.033670	0.045165
N40	N	0.796516	0.533670	0.545165
C41	C	0.254258	0.000192	0.091995
C42	C	0.754258	0.500192	0.591995
N43	N	0.283791	-0.033291	0.139889
N44	N	0.783791	0.466709	0.639889
N45	N	0.352976	-0.033301	0.140906
N46	N	0.852976	0.466699	0.640906
C47	C	0.394704	0.000170	0.094062
C48	C	0.894704	0.500170	0.594062
C49	C	0.130368	0.000212	0.153928
C50	C	0.630368	0.500212	0.653928
C51	C	0.057543	0.000214	0.152854
C52	C	0.557543	0.500214	0.652854
C53	C	0.074585	0.000209	0.025586
C54	C	0.574585	0.500209	0.525586
C55	C	0.147409	0.000201	0.026662
C56	C	0.647409	0.500201	0.526662
C57	C	0.175295	0.000205	0.090835
C58	C	0.675295	0.500205	0.590835
C59	C	0.872109	-0.561718	0.045419
C60	C	1.372109	-0.061718	0.545419
C61	C	0.872113	-0.623638	0.045414
C62	C	1.372113	-0.123638	0.545414
O63	O	0.912598	-0.655651	0.004921
O64	O	1.412598	-0.155651	0.504921
N65	N	0.824494	-0.654620	0.093009
N66	N	1.324494	-0.154620	0.593009
C67	C	0.776864	-0.623679	0.140607
C68	C	1.276864	-0.123679	0.640607
O69	O	0.736361	-0.655717	0.181089
O70	O	1.236361	-0.155717	0.681089
C71	C	0.776858	-0.561760	0.140608
C72	C	1.276858	-0.061760	0.640608
C73	C	0.824484	-0.530781	0.093015
C74	C	1.324484	-0.030781	0.593015
C75	C	0.919731	-0.530739	-0.002171
C76	C	1.419731	-0.030739	0.497829
C77	C	0.919728	-0.468823	-0.002164
C78	C	1.419728	0.031177	0.497836
C79	C	0.872103	-0.437886	0.045431
C80	C	1.372103	0.062114	0.545431
C81	C	0.824481	-0.468865	0.093021
C82	C	1.324481	0.031135	0.593021
C83	C	0.729225	-0.530820	0.188202
C84	C	1.229225	-0.030820	0.688202
C85	C	0.729223	-0.468897	0.188199
C86	C	1.229223	0.031103	0.688199
C87	C	0.776849	-0.437918	0.140606
C88	C	1.276849	0.062082	0.640606
C89	C	0.776854	-0.376013	0.140623
C90	C	1.276854	0.123987	0.640623
N91	N	0.824472	-0.345031	0.093028
N92	N	1.324472	0.154969	0.593028
C93	C	0.872097	-0.375968	0.045432
C94	C	1.372097	0.124032	0.545432
C95	C	0.776881	-0.753712	0.140600
C96	C	1.276881	-0.253712	0.640600
C97	C	0.776890	-0.815630	0.140602
C98	C	1.276890	-0.315630	0.640602
C99	C	0.872137	-0.815585	0.045409
C100	C	1.372137	-0.315585	0.545409
C101	C	0.872131	-0.753666	0.045410
C102	C	1.372131	-0.253666	0.545410
C103	C	0.824499	-0.722730	0.093005
C104	C	1.324499	-0.222730	0.593005
C105	C	0.872088	-0.245940	0.045449
C106	C	1.372088	0.254060	0.545449
C107	C	0.872083	-0.184019	0.045462
C108	C	1.372083	0.315981	0.545462
C109	C	0.776833	-0.184070	0.140652
C110	C	1.276833	0.315930	0.640652
C111	C	0.776840	-0.245986	0.140643
C112	C	1.276840	0.254014	0.640643
C113	C	0.824470	-0.276919	0.093036
C114	C	1.324470	0.223081	0.593036
O115	O	0.736387	-0.343960	0.181094
O116	O	1.236387	0.156040	0.681094
O117	O	0.912587	-0.343922	0.004951
O118	O	1.412587	0.156078	0.504951
C119	C	0.952149	0.000199	0.087546
C120	C	1.452149	0.500199	0.587546
C121	C	1.029654	0.000219	0.088687
C122	C	1.529654	0.500219	0.588687
C123	C	0.829973	0.000166	-0.034634
C124	C	1.329973	0.500166	0.465366
C125	C	0.828834	0.000164	-0.112138
C126	C	1.328834	0.500164	0.387862
N127	N	0.824512	0.153428	0.093004
N128	N	1.324512	0.653428	0.593004
C129	C	0.828313	0.053785	-0.148546
C130	C	1.328313	0.553785	0.351454
C131	C	0.827233	0.053790	-0.221369
C132	C	1.327233	0.553790	0.278631
C133	C	0.826688	0.000170	-0.257783
C134	C	1.326688	0.500170	0.242217
C135	C	0.827205	-0.053458	-0.221366
C136	C	1.327205	0.446542	0.278634
C137	C	0.828278	-0.053461	-0.148544
C138	C	1.328278	0.446539	0.351456
N139	N	0.864728	-0.039730	-0.377440
N140	N	1.364728	0.460270	0.122560
N141	N	0.863710	-0.039724	-0.446618
N142	N	1.363710	0.460276	0.053382
C143	C	0.823454	0.000175	-0.477192
C144	C	1.323454	0.500175	0.022808
N145	N	0.784262	0.040077	-0.435976
N146	N	1.284262	0.540077	0.064024
N147	N	0.785283	0.040072	-0.366791
N148	N	1.285283	0.540072	0.133209
C149	C	0.825524	0.000167	-0.336746
C150	C	1.325524	0.500167	0.163254
C151	C	0.821761	0.053804	-0.592562
C152	C	1.321761	0.553804	-0.092562
C153	C	0.820677	0.053806	-0.665386
C154	C	1.320677	0.553806	-0.165386
C155	C	0.820656	-0.053443	-0.665383
C156	C	1.320656	0.446557	-0.165383
C157	C	0.821733	-0.053444	-0.592560
C158	C	1.321733	0.446556	-0.092560
C159	C	0.822289	0.000182	-0.556154
C160	C	1.322289	0.500182	-0.056154
C161	C	0.818992	0.000180	0.220700
C162	C	1.318992	0.500180	0.720700
C163	C	0.820131	0.000186	0.298205
C164	C	1.320131	0.500186	0.798205
H165	H	0.464976	0.000160	0.210777
H166	H	0.964976	0.500160	0.710777
C167	C	0.043913	0.000213	-0.044997
C168	C	0.543913	0.500213	0.455003
H169	H	0.081103	0.000201	-0.082420
H170	H	0.581103	0.500201	0.417580
H171	H	0.015881	0.034519	-0.048069
H172	H	0.515881	0.534519	0.451931
H173	H	0.015839	-0.034093	-0.048054
H174	H	0.515839	0.465907	0.451946
H175	H	0.826760	-0.097116	-0.251019
H176	H	1.326760	0.402884	0.248981
C177	C	0.008122	0.000229	0.222256
C178	C	0.508122	0.500229	0.722256
H179	H	-0.039243	0.000229	0.212427
H180	H	0.460757	0.500229	0.712427
H181	H	0.016578	0.034534	0.248567
H182	H	0.516578	0.534534	0.748567
H183	H	0.016533	-0.034077	0.248585
H184	H	0.516533	0.465923	0.748585
C185	C	0.724501	-0.849700	0.192955
C186	C	1.224501	-0.349700	0.692955
H187	H	0.696136	-0.822402	0.221295
H188	H	1.196136	-0.322402	0.721295
H189	H	0.749518	-0.873851	0.221960
H190	H	1.249518	-0.373851	0.721960
H191	H	0.695515	-0.873859	0.167901
H192	H	1.195515	-0.373859	0.667901
C193	C	0.724445	-0.150032	0.192999
C194	C	1.224445	0.349968	0.692999
H195	H	0.731262	-0.108719	0.186175
H196	H	1.231262	0.391281	0.686175
H197	H	0.731870	-0.160174	0.239583
H198	H	1.231870	0.339826	0.739583
H199	H	0.677874	-0.160196	0.185518
H200	H	1.177874	0.339804	0.685518
C201	C	0.487924	0.000147	-0.038449
C202	C	0.987924	0.500147	0.461551
H203	H	0.525113	0.000134	-0.075872
H204	H	1.025113	0.500134	0.424128
H205	H	0.459895	0.034456	-0.041520
H206	H	0.959895	0.534456	0.458480
H207	H	0.459846	-0.034155	-0.041506
H208	H	0.959846	0.465845	0.458494
C209	C	0.640844	0.000121	-0.036196
C210	C	1.140844	0.500121	0.463804
H211	H	0.613804	0.000128	-0.074567
H212	H	1.113804	0.500128	0.425433
H213	H	0.669587	-0.034185	-0.038419
H214	H	1.169587	0.465815	0.461581
H215	H	0.669625	0.034426	-0.038425
H216	H	1.169625	0.534426	0.461575
H217	H	0.828700	-0.097127	-0.118901
H218	H	1.328700	0.402873	0.381099
H219	H	0.183988	0.000193	-0.024713
H220	H	0.683988	0.500193	0.475287
H221	H	0.822209	0.097469	-0.562919
H222	H	1.322209	0.597469	-0.062919
C223	C	0.924470	-0.149946	-0.006896
C224	C	1.424470	0.350054	0.493104
H225	H	0.952828	-0.177242	-0.035247
H226	H	1.452828	0.322758	0.464753
H227	H	0.953455	-0.125782	0.018148
H228	H	1.453455	0.374218	0.518148
H229	H	0.899441	-0.125799	-0.035900
H230	H	1.399441	0.374201	0.464100
H231	H	0.828763	0.097452	-0.118909
H232	H	1.328763	0.597452	0.381091
C233	C	0.924518	-0.849623	-0.006953
C234	C	1.424518	-0.349623	0.493047
H235	H	0.917691	-0.890935	-0.000139
H236	H	1.417691	-0.390935	0.499861
H237	H	0.971092	-0.839463	0.000507
H238	H	1.471092	-0.339463	0.500507
H239	H	0.917072	-0.839476	-0.053534
H240	H	1.417072	-0.339476	0.446466
C241	C	0.820051	-0.112424	-0.705429
C242	C	1.320051	0.387576	-0.205429
H243	H	0.819340	-0.104744	-0.754014
H244	H	1.319340	0.395256	-0.254014
H245	H	0.779516	-0.134463	-0.688041
H246	H	1.279516	0.365537	-0.188041
H247	H	0.860934	-0.134451	-0.698948
H248	H	1.360934	0.365549	-0.198948
H249	H	0.910872	-0.271119	0.006682
H250	H	1.410872	0.228881	0.506682
H251	H	0.153075	0.000206	0.206181
H252	H	0.653075	0.500206	0.706181
H253	H	0.738095	-0.728528	0.179363
H254	H	1.238095	-0.228528	0.679363
H255	H	0.690443	-0.556035	0.226956
H256	H	1.190443	-0.056035	0.726956
C257	C	0.676830	-0.434872	0.240558
C258	C	1.176830	0.065128	0.740558
H259	H	0.648473	-0.462193	0.268903
H260	H	1.148473	0.037807	0.768903
H261	H	0.647844	-0.410724	0.215518
H262	H	1.147844	0.089276	0.715518
H263	H	0.701855	-0.410713	0.269568
H264	H	1.201855	0.089287	0.769568
H265	H	0.958508	-0.443604	-0.040921
H266	H	1.458508	0.056396	0.459079
C267	C	0.972127	-0.564760	-0.054527
C268	C	1.472127	-0.064760	0.445473
H269	H	1.000486	-0.537433	-0.082861
H270	H	1.500486	-0.037433	0.417139
H271	H	0.947117	-0.588926	-0.083537
H272	H	1.447117	-0.088926	0.416463
H273	H	1.001118	-0.588899	-0.029477
H274	H	1.501118	-0.088899	0.470523
H275	H	0.738065	-0.271209	0.179404
H276	H	1.238065	0.228791	0.679404
C277	C	0.822319	-0.112427	-0.552511
C278	C	1.322319	0.387573	-0.052511
H279	H	0.821846	-0.144362	-0.584627
H280	H	1.321846	0.355638	-0.084627
H281	H	0.782032	-0.114668	-0.518651
H282	H	1.282032	0.385332	-0.018651
H283	H	0.863450	-0.114647	-0.529557
H284	H	1.363450	0.385353	-0.029557
H285	H	0.910912	-0.728446	0.006655
H286	H	1.410912	-0.228446	0.506655
H287	H	0.820249	0.097473	-0.695027
H288	H	1.320249	0.597473	-0.195027
C289	C	0.826663	0.112773	-0.261429
C290	C	1.326663	0.612773	0.238571
H291	H	0.825941	0.105093	-0.310013
H292	H	1.325941	0.605093	0.189987
H293	H	0.867551	0.134811	-0.254945
H294	H	1.367551	0.634811	0.245055
H295	H	0.786134	0.134801	-0.244048
H296	H	1.286134	0.634801	0.255952
H297	H	0.597086	0.000149	0.212725
H298	H	1.097086	0.500149	0.712725
