data_functionalizedCrystal
_audit_creation_method	'MofGen! by Chris Wilmer'
_symmetry_space_group_name_H-M	'P1'
_symmetry_Int_Tables_number	1
_symmetry_cell_setting	triclinic
loop_
_symmetry_equiv_pos_as_xyz
  x,y,z
_cell_length_a	10.723023
_cell_length_b	10.723022
_cell_length_c	9.798715
_cell_angle_alpha	89.996846
_cell_angle_beta	90.001472
_cell_angle_gamma	95.532613
loop_
_atom_site_label
_atom_site_type_symbol
_atom_site_fract_x
_atom_site_fract_y
_atom_site_fract_z
O1	O	-0.175016	1.657187	-0.113476
O2	O	-0.191771	1.294035	-0.113480
O3	O	-0.001817	1.483988	-0.113475
O4	O	-0.364970	1.467234	-0.113481
O5	O	-0.001816	1.483975	0.113507
O6	O	-0.191770	1.294022	0.113502
O7	O	-0.175014	1.657174	0.113506
Zn8	Zn	-0.183392	1.475596	0.149543
Zn9	Zn	-0.183394	1.475613	-0.149516
O10	O	-0.364968	1.467221	0.113502
C11	C	-0.190551	1.247529	0.000011
C12	C	-0.186904	1.108974	0.000009
C13	C	-0.289421	0.890796	0.000005
C14	C	-0.293192	1.033998	0.000006
C15	C	-0.411469	1.468446	0.000010
C16	C	-0.550023	1.472094	0.000008
C17	C	-0.611794	1.473713	0.117590
C18	C	-0.754997	1.477483	0.117591
C19	C	0.044683	1.482763	0.000013
C20	C	0.183238	1.479115	0.000007
C21	C	-0.176234	1.703681	0.000013
C22	C	-0.179881	1.842235	0.000005
N23	N	-0.183390	1.475593	0.353642
N24	N	-0.183386	1.475626	-0.353616
C25	C	-0.103460	1.555547	0.578576
C26	C	-0.103462	1.555530	0.421413
H27	H	-0.558662	1.472302	0.218256
O28	O	-0.613353	1.473534	-0.120140
C29	C	-0.666532	1.366689	-0.331629
C30	C	-0.594792	1.364894	-0.195586
H31	H	-0.651529	1.278876	-0.392678
H32	H	-0.770764	1.369344	-0.310340
H33	H	-0.630338	1.453237	-0.392626
H34	H	-0.630879	1.278358	-0.134521
H35	H	-0.490569	1.362304	-0.216971
O36	O	-0.265080	1.394151	0.576698
C37	C	-0.435188	1.369216	0.415273
C38	C	-0.342718	1.461626	0.494077
H39	H	-0.498000	1.423733	0.348477
H40	H	-0.380772	1.306470	0.348293
H41	H	-0.495308	1.309019	0.490797
H42	H	-0.282575	1.521905	0.418651
H43	H	-0.397209	1.524286	0.561078
H44	H	-0.763648	1.477729	-0.100665
O45	O	-0.021936	1.637363	0.648046
C46	C	0.049314	1.853663	0.691920
C47	C	-0.043111	1.761146	0.613195
H48	H	0.032245	1.953761	0.663751
H49	H	0.034780	1.839242	0.806300
H50	H	0.149415	1.836463	0.663919
H51	H	-0.143248	1.778290	0.641082
H52	H	-0.028467	1.775588	0.498834
H53	H	-0.380409	0.826353	-0.000005
O54	O	-0.021606	1.637037	0.351975
C55	C	0.194740	1.708198	0.308229
C56	C	0.102145	1.615799	0.386893
H57	H	0.294812	1.691077	0.336453
H58	H	0.180371	1.693688	0.193839
H59	H	0.177573	1.808307	0.336230
H60	H	0.119255	1.515653	0.359006
H61	H	0.116535	1.630418	0.501264
O62	O	-0.264858	1.393903	0.423340
C63	C	-0.289770	1.223816	0.584799
C64	C	-0.197371	1.316277	0.505963
H65	H	-0.235243	1.161015	0.651597
H66	H	-0.352509	1.278240	0.651780
H67	H	-0.349975	1.163685	0.509296
H68	H	-0.137084	1.376431	0.581368
H69	H	-0.134719	1.261778	0.438962
O70	O	-0.405057	1.083924	-0.000243
C71	C	-0.540520	1.215017	-0.117808
C72	C	-0.413798	1.158537	-0.117707
H73	H	-0.547617	1.275375	-0.212753
H74	H	-0.620006	1.136333	-0.117902
H75	H	-0.547715	1.275229	-0.022774
H76	H	-0.406480	1.098338	-0.212725
H77	H	-0.334372	1.237281	-0.117542
H78	H	-0.093113	1.067171	-0.000026
O79	O	-0.818447	1.478921	0.237655
C80	C	-0.978865	1.374900	0.381019
C81	C	-0.907080	1.373103	0.245009
H82	H	-1.050559	1.289370	0.386997
H83	H	-0.910151	1.373003	0.469607
H84	H	-1.029088	1.463723	0.387102
H85	H	-0.856854	1.284295	0.238792
H86	H	-0.975854	1.375067	0.156485
O87	O	-0.071409	0.919230	-0.000175
C88	C	0.056369	1.082446	-0.117811
C89	C	-0.066540	0.995346	-0.117759
H90	H	0.060358	1.143989	-0.212881
H91	H	0.060379	1.144171	-0.022885
H92	H	0.139410	1.023586	-0.117743
H93	H	-0.149650	1.054107	-0.117874
H94	H	-0.070440	0.933616	-0.212677
