data_functionalizedCrystal
_audit_creation_method	'MofGen! by Chris Wilmer'
_symmetry_space_group_name_H-M	'P1'
_symmetry_Int_Tables_number	1
_symmetry_cell_setting	triclinic
loop_
_symmetry_equiv_pos_as_xyz
  x,y,z
_cell_length_a	10.654550
_cell_length_b	10.868271
_cell_length_c	10.654550
_cell_angle_alpha	89.995020
_cell_angle_beta	95.515069
_cell_angle_gamma	90.001065
loop_
_atom_site_label
_atom_site_type_symbol
_atom_site_fract_x
_atom_site_fract_y
_atom_site_fract_z
O1	O	1.667841	0.102230	-0.176400
O2	O	1.302362	0.102253	-0.193206
O3	O	1.493505	0.102233	-0.002064
O4	O	1.476699	0.102250	-0.367542
O5	O	1.493489	-0.102412	-0.002056
O6	O	1.302346	-0.102392	-0.193198
O7	O	1.667825	-0.102415	-0.176392
Zn8	Zn	1.485083	-0.134895	-0.184794
Zn9	Zn	1.485104	0.134733	-0.184804
O10	O	1.476683	-0.102395	-0.367534
C11	C	1.255556	-0.000067	-0.191968
C12	C	1.116113	-0.000058	-0.188276
N13	N	1.485078	-0.318909	-0.184786
C14	C	1.036628	-0.000057	-0.300818
C15	C	0.905607	-0.000078	-0.297341
C16	C	0.933570	-0.000098	-0.068772
C17	C	1.064588	-0.000085	-0.072250
C18	C	1.485098	-0.569915	-0.184801
C19	C	1.485083	-0.430238	-0.184797
C20	C	1.714631	-0.000092	-0.177630
C21	C	1.854074	-0.000093	-0.181322
C22	C	1.492263	-0.000089	0.044738
C23	C	1.488571	-0.000086	0.184181
N24	N	1.485119	0.318747	-0.184802
C25	C	1.477925	-0.000071	-0.414336
C26	C	1.481616	-0.000065	-0.553779
C27	C	1.601112	-0.000093	0.263667
C28	C	1.597636	-0.000078	0.394688
C29	C	1.369066	-0.000055	0.366725
C30	C	1.372544	-0.000061	0.235706
H31	H	0.840894	-0.000080	-0.388984
N32	N	1.243925	-0.000040	0.422292
H33	H	1.237392	0.075822	0.476022
H34	H	1.237455	-0.075952	0.475970
H35	H	1.695588	-0.000111	0.221720
H36	H	1.129309	-0.000090	0.019401
H37	H	0.891602	-0.000127	0.025693
N38	N	1.092200	-0.000051	-0.425957
H39	H	1.187261	-0.000041	-0.411087
H40	H	1.063185	0.075813	-0.475258
N41	N	1.719019	-0.000084	0.480420
H42	H	1.793044	-0.000102	0.427894
H43	H	1.722543	-0.075945	0.535401
N44	N	1.251155	-0.000045	0.149963
H45	H	1.177125	-0.000037	0.202483
H46	H	1.247612	-0.075910	0.095000
