data_functionalizedCrystal
_audit_creation_method	'MofGen! by Chris Wilmer'
_symmetry_space_group_name_H-M	'P1'
_symmetry_Int_Tables_number	1
_symmetry_cell_setting	triclinic
loop_
_symmetry_equiv_pos_as_xyz
  x,y,z
_cell_length_a	15.944551
_cell_length_b	27.732048
_cell_length_c	15.021413
_cell_angle_alpha	89.999048
_cell_angle_beta	89.997174
_cell_angle_gamma	83.070697
loop_
_atom_site_label
_atom_site_type_symbol
_atom_site_fract_x
_atom_site_fract_y
_atom_site_fract_z
O1	O	1.113714	0.062334	-0.073949
O2	O	1.447047	0.395667	0.259384
O3	O	1.780380	0.729001	0.592718
O4	O	0.869064	0.070020	-0.073973
O5	O	1.202397	0.403353	0.259361
O6	O	1.535730	0.736687	0.592694
O7	O	0.998987	-0.004187	-0.073943
O8	O	1.332320	0.329146	0.259390
O9	O	1.665654	0.662480	0.592723
O10	O	0.983790	0.136541	-0.073979
O11	O	1.317124	0.469874	0.259355
O12	O	1.650457	0.803207	0.592688
O13	O	0.998966	-0.004176	0.074121
O14	O	1.332300	0.329157	0.407454
O15	O	1.665633	0.662490	0.740788
O16	O	0.869043	0.070030	0.074092
O17	O	1.202376	0.403364	0.407425
O18	O	1.535710	0.736697	0.740758
O19	O	1.113693	0.062345	0.074115
O20	O	1.447026	0.395678	0.407448
O21	O	1.780360	0.729011	0.740782
Zn22	Zn	0.991365	0.066189	0.097612
Zn23	Zn	1.324698	0.399522	0.430945
Zn24	Zn	1.658031	0.732856	0.764278
Zn25	Zn	0.991392	0.066175	-0.097469
Zn26	Zn	1.324725	0.399509	0.235864
Zn27	Zn	1.658059	0.732842	0.569197
O28	O	0.983770	0.136551	0.074086
O29	O	1.317103	0.469885	0.407419
O30	O	1.650436	0.803218	0.740752
C31	C	0.837763	0.069706	0.000057
C32	C	1.171097	0.403039	0.333390
C33	C	1.504430	0.736373	0.666723
C34	C	0.744530	0.068749	0.000049
C35	C	1.077863	0.402083	0.333382
C36	C	1.411197	0.735416	0.666715
C37	C	0.530305	0.020466	0.000078
C38	C	0.863638	0.353800	0.333411
C39	C	1.196971	0.687133	0.666745
C40	C	0.469001	0.042882	-0.072931
C41	C	0.802335	0.376215	0.260402
C42	C	1.135668	0.709549	0.593736
C43	C	0.573827	0.067019	0.000060
C44	C	0.907160	0.400352	0.333393
C45	C	1.240493	0.733686	0.666726
C46	C	0.469003	0.042904	0.073049
C47	C	0.802337	0.376237	0.406382
C48	C	1.135670	0.709570	0.739715
C49	C	0.408936	0.065344	0.000074
C50	C	0.742269	0.398677	0.333407
C51	C	1.075602	0.732011	0.666741
C52	C	0.513752	0.089448	-0.073010
C53	C	0.847085	0.422781	0.260324
C54	C	1.180418	0.756114	0.593657
C55	C	0.513760	0.089463	0.073036
C56	C	0.847093	0.422796	0.406369
C57	C	1.180426	0.756129	0.739702
C58	C	0.452474	0.111912	0.000009
C59	C	0.785807	0.445246	0.333342
C60	C	1.119140	0.778579	0.666675
C61	C	0.668816	0.067983	0.000051
C62	C	1.002150	0.401316	0.333384
C63	C	1.335483	0.734649	0.666717
C64	C	0.313947	0.064384	0.000077
C65	C	0.647281	0.397717	0.333410
C66	C	0.980614	0.731051	0.666743
C67	C	0.998658	-0.022190	0.000091
C68	C	1.331991	0.311143	0.333425
C69	C	1.665324	0.644477	0.666758
C70	C	0.997697	-0.075849	0.000099
C71	C	1.331030	0.257484	0.333432
C72	C	1.664364	0.590818	0.666765
C73	C	1.068426	-0.414358	0.000060
C74	C	1.401759	-0.081024	0.333393
C75	C	1.735093	0.252309	0.666726
C76	C	1.064862	-0.616033	0.000047
C77	C	1.398195	-0.282699	0.333380
C78	C	1.731529	0.050634	0.666714
O79	O	1.129539	-0.647008	0.000014
O80	O	1.462872	-0.313675	0.333347
O81	O	1.796205	0.019658	0.666681
N82	N	0.987823	-0.635490	0.000040
N83	N	1.321156	-0.302157	0.333374
N84	N	1.654490	0.031176	0.666707
C85	C	0.911669	-0.604525	0.000031
C86	C	1.245003	-0.271192	0.333365
C87	C	1.578336	0.062141	0.666698
O88	O	0.846061	-0.625703	0.000016
O89	O	1.179394	-0.292369	0.333350
O90	O	1.512728	0.040964	0.666683
C91	C	0.915234	-0.402851	0.000038
C92	C	1.248567	-0.069518	0.333371
C93	C	1.581901	0.263815	0.666704
C94	C	0.992278	-0.383397	0.000053
C95	C	1.325612	-0.050064	0.333386
C96	C	1.658945	0.283270	0.666720
C97	C	1.145464	-0.394903	0.000074
C98	C	1.478797	-0.061569	0.333408
C99	C	1.812131	0.271764	0.666741
C100	C	1.146354	-0.344487	0.000082
C101	C	1.479687	-0.011154	0.333416
C102	C	1.813021	0.322180	0.666749
C103	C	1.070206	-0.313526	0.000076
C104	C	1.403540	0.019807	0.333409
C105	C	1.736873	0.353141	0.666742
C106	C	0.993168	-0.332981	0.000061
C107	C	1.326502	0.000352	0.333394
C108	C	1.659835	0.333686	0.666728
C109	C	0.839081	-0.371887	0.000022
C110	C	1.172415	-0.038554	0.333355
C111	C	1.505748	0.294779	0.666689
C112	C	0.839979	-0.321466	0.000021
C113	C	1.173313	0.011867	0.333355
C114	C	1.506646	0.345200	0.666688
C115	C	0.917024	-0.302012	0.000037
C116	C	1.250357	0.031322	0.333370
C117	C	1.583690	0.364655	0.666704
C118	C	0.917911	-0.251604	0.000063
C119	C	1.251244	0.081729	0.333396
C120	C	1.584577	0.415062	0.666729
N121	N	0.994950	-0.232147	0.000069
N122	N	1.328283	0.101186	0.333403
N123	N	1.661617	0.434520	0.666736
C124	C	1.071098	-0.263108	0.000076
C125	C	1.404431	0.070225	0.333409
C126	C	1.737764	0.403559	0.666742
C127	C	0.909803	-0.710408	0.000030
C128	C	1.243136	-0.377074	0.333363
C129	C	1.576470	-0.043741	0.666696
C130	C	0.908912	-0.760826	0.000030
C131	C	1.242245	-0.427492	0.333363
C132	C	1.575578	-0.094159	0.666696
C133	C	1.062105	-0.772330	0.000044
C134	C	1.395438	-0.438996	0.333377
C135	C	1.728772	-0.105663	0.666710
C136	C	1.062995	-0.721911	0.000050
C137	C	1.396329	-0.388577	0.333383
C138	C	1.729662	-0.055244	0.666717
C139	C	0.986842	-0.690950	0.000036
C140	C	1.320176	-0.357617	0.333369
C141	C	1.653509	-0.024283	0.666703
C142	C	1.072961	-0.157231	0.000093
C143	C	1.406295	0.176103	0.333427
C144	C	1.739628	0.509436	0.666760
C145	C	1.073845	-0.106810	0.000105
C146	C	1.407178	0.226523	0.333438
C147	C	1.740511	0.559857	0.666772
C148	C	0.920652	-0.095310	0.000086
C149	C	1.253985	0.238023	0.333420
C150	C	1.587319	0.571356	0.666753
C151	C	0.919768	-0.145727	0.000079
C152	C	1.253102	0.187607	0.333413
C153	C	1.586435	0.520940	0.666746
C154	C	0.995930	-0.176686	0.000080
C155	C	1.329263	0.156647	0.333413
C156	C	1.662596	0.489981	0.666746
O157	O	0.853269	-0.220600	0.000085
O158	O	1.186602	0.112733	0.333419
O159	O	1.519935	0.446066	0.666752
O160	O	1.136697	-0.241921	0.000071
O161	O	1.470030	0.091412	0.333404
O162	O	1.803363	0.424745	0.666738
C163	C	1.067536	-0.464774	0.000052
C164	C	1.400869	-0.131440	0.333385
C165	C	1.734203	0.201893	0.666718
C166	C	0.990498	-0.484228	0.000037
C167	C	1.323831	-0.150895	0.333370
C168	C	1.657165	0.182438	0.666704
C169	C	0.914350	-0.453268	0.000031
C170	C	1.247684	-0.119934	0.333364
C171	C	1.581017	0.213399	0.666697
C172	C	0.989607	-0.534647	0.000037
C173	C	1.322940	-0.201313	0.333370
C174	C	1.656273	0.132020	0.666704
C175	C	1.065754	-0.565608	0.000044
C176	C	1.399088	-0.232274	0.333377
C177	C	1.732421	0.101059	0.666710
C178	C	1.142794	-0.546150	0.000050
C179	C	1.476127	-0.212817	0.333383
C180	C	1.809460	0.120516	0.666717
C181	C	1.143684	-0.495734	0.000058
C182	C	1.477017	-0.162401	0.333391
C183	C	1.810350	0.170932	0.666725
C184	C	0.837311	-0.472725	0.000024
C185	C	1.170644	-0.139392	0.333357
C186	C	1.503978	0.193942	0.666691
C187	C	0.836427	-0.523141	0.000017
C188	C	1.169760	-0.189808	0.333350
C189	C	1.503094	0.143525	0.666684
C190	C	0.912575	-0.554102	0.000023
C191	C	1.245908	-0.220769	0.333357
C192	C	1.579242	0.112564	0.666690
C193	C	1.144993	0.062658	0.000084
C194	C	1.478326	0.395992	0.333417
C195	C	1.811660	0.729325	0.666750
C196	C	1.238227	0.063615	0.000086
C197	C	1.571560	0.396948	0.333419
C198	C	1.904893	0.730282	0.666753
C199	C	0.984099	0.154554	0.000049
C200	C	1.317432	0.487888	0.333383
C201	C	1.650766	0.821221	0.666716
C202	C	0.985059	0.208213	0.000036
C203	C	1.318393	0.541547	0.333369
C204	C	1.651726	0.874880	0.666703
N205	N	0.991352	0.066198	0.230749
N206	N	1.324686	0.399532	0.564083
N207	N	1.658019	0.732865	0.897416
N208	N	0.991411	0.066162	-0.230607
N209	N	1.324744	0.399495	0.102727
N210	N	1.658078	0.732829	0.436060
C211	C	0.931267	0.100495	0.470419
C212	C	1.264600	0.433829	0.803752
C213	C	1.597933	0.767162	1.137086
C214	C	1.007044	0.109879	0.529758
C215	C	1.340378	0.443213	0.863091
C216	C	1.673711	0.776546	1.196425
C217	C	0.991374	0.066186	0.412356
C218	C	1.324707	0.399520	0.745690
C219	C	1.658041	0.732853	1.079023
C220	C	0.915617	0.056813	0.529759
C221	C	1.248950	0.390146	0.863092
C222	C	1.582283	0.723480	1.196426
C223	C	0.991388	0.066176	0.587780
C224	C	1.324721	0.399509	0.921114
C225	C	1.658055	0.732842	1.254447
C226	C	1.067190	0.075592	0.470389
C227	C	1.400523	0.408925	0.803722
C228	C	1.733856	0.742259	1.137055
C229	C	0.975712	0.022507	0.470385
C230	C	1.309045	0.355840	0.803718
C231	C	1.642379	0.689173	1.137051
C232	C	1.051545	0.031872	0.529697
C233	C	1.384878	0.365205	0.863030
C234	C	1.718212	0.698539	1.196363
C235	C	0.991365	0.066194	0.311299
C236	C	1.324698	0.399527	0.644632
C237	C	1.658031	0.732860	0.977966
C238	C	0.991406	0.066168	0.688836
C239	C	1.324739	0.399501	1.022169
C240	C	1.658073	0.732835	1.355502
H241	H	1.136586	-0.090973	0.000120
H242	H	1.469919	0.242360	0.333453
H243	H	1.803253	0.575693	0.666787
H244	H	1.124107	-0.797547	0.000049
H245	H	1.457441	-0.464214	0.333383
H246	H	1.790774	-0.130880	0.666716
Cl247	Cl	0.955203	-0.034499	0.430083
Cl248	Cl	1.288537	0.298834	0.763417
Cl249	Cl	1.621870	0.632168	1.096750
H250	H	0.880487	0.129533	0.444392
H251	H	1.213820	0.462866	0.777725
H252	H	1.547153	0.796200	1.111059
Cl253	Cl	1.240545	-0.471285	0.000070
Cl254	Cl	1.573878	-0.137952	0.333403
Cl255	Cl	1.907211	0.195381	0.666737
H256	H	0.776344	-0.387718	0.000004
H257	H	1.109677	-0.054385	0.333337
H258	H	1.443010	0.278949	0.666671
Cl259	Cl	1.166135	0.087892	0.430300
Cl260	Cl	1.499469	0.421225	0.763633
Cl261	Cl	1.832802	0.754559	1.096967
H262	H	0.858655	-0.070093	0.000084
H263	H	1.191988	0.263240	0.333418
H264	H	1.525321	0.596574	0.666751
Cl265	Cl	0.744238	-0.282547	0.000003
Cl266	Cl	1.077571	0.050786	0.333336
Cl267	Cl	1.410904	0.384119	0.666670
Cl268	Cl	1.027518	0.166902	0.570025
Cl269	Cl	1.360851	0.500235	0.903358
Cl270	Cl	1.694185	0.833569	1.236691
Cl271	Cl	0.816695	0.044579	0.570025
Cl272	Cl	1.150029	0.377912	0.903359
Cl273	Cl	1.483362	0.711246	1.236692
H274	H	1.134979	-0.182432	0.000090
H275	H	1.468313	0.150901	0.333424
H276	H	1.801646	0.484234	0.666757
Cl277	Cl	0.582511	-0.039191	-0.000015
Cl278	Cl	0.915844	0.294142	0.333319
Cl279	Cl	1.249177	0.627475	0.666652
H280	H	0.418809	0.150587	-0.000042
H281	H	0.752143	0.483920	0.333291
H282	H	1.085476	0.817254	0.666625
H283	H	1.102437	0.002852	0.555561
H284	H	1.435770	0.336185	0.888894
H285	H	1.769103	0.669518	1.222227
H286	H	0.449157	0.023188	-0.134645
H287	H	0.782491	0.356521	0.198688
H288	H	1.115824	0.689854	0.532021
H289	H	0.449166	0.023209	0.134770
H290	H	0.782499	0.356543	0.468103
H291	H	1.115833	0.689876	0.801437
Cl292	Cl	0.544222	0.119817	-0.168412
Cl293	Cl	0.877555	0.453151	0.164921
Cl294	Cl	1.210888	0.786484	0.498254
Cl295	Cl	0.544435	0.119844	0.168323
Cl296	Cl	0.877768	0.453177	0.501656
Cl297	Cl	1.211102	0.786511	0.834989
H298	H	0.847786	-0.685203	0.000018
H299	H	1.181120	-0.351870	0.333352
H300	H	1.514453	-0.018537	0.666685
Cl301	Cl	0.741572	-0.433810	0.000014
Cl302	Cl	1.074905	-0.100476	0.333347
Cl303	Cl	1.408239	0.232857	0.666681
H304	H	1.209091	-0.328652	0.000091
H305	H	1.542425	0.004681	0.333425
H306	H	1.875758	0.338014	0.666758
H307	H	1.207476	-0.420107	0.000076
H308	H	1.540810	-0.086773	0.333410
H309	H	1.874143	0.246560	0.666743
Cl310	Cl	0.812052	-0.785276	0.000027
Cl311	Cl	1.145385	-0.451943	0.333360
Cl312	Cl	1.478719	-0.118610	0.666694
Cl313	Cl	1.159854	-0.697459	0.000068
Cl314	Cl	1.493188	-0.364126	0.333402
Cl315	Cl	1.826521	-0.030792	0.666735
H316	H	0.857033	-0.161567	0.000091
H317	H	1.190366	0.171766	0.333425
H318	H	1.523699	0.505100	0.666758
H319	H	1.204796	-0.571368	0.000059
H320	H	1.538129	-0.238034	0.333393
H321	H	1.871462	0.095299	0.666726
Cl322	Cl	0.739561	-0.547591	0.000002
Cl323	Cl	1.072895	-0.214258	0.333335
Cl324	Cl	1.406228	0.119075	0.666668
