data_functionalizedCrystal
_audit_creation_method	'MofGen! by Chris Wilmer'
_symmetry_space_group_name_H-M	'P1'
_symmetry_Int_Tables_number	1
_symmetry_cell_setting	triclinic
loop_
_symmetry_equiv_pos_as_xyz
  x,y,z
_cell_length_a	14.519709
_cell_length_b	15.944551
_cell_length_c	12.996460
_cell_angle_alpha	89.992903
_cell_angle_beta	90.000034
_cell_angle_gamma	83.589442
loop_
_atom_site_label
_atom_site_type_symbol
_atom_site_fract_x
_atom_site_fract_y
_atom_site_fract_z
O1	O	1.223676	0.110109	-0.085435
O2	O	0.955177	0.123076	-0.085467
O3	O	1.096759	-0.005672	-0.085441
O4	O	1.082094	0.238857	-0.085461
O5	O	1.096744	-0.005679	0.085693
O6	O	0.955162	0.123069	0.085667
O7	O	1.223661	0.110102	0.085699
Cu8	Cu	1.089410	0.116585	0.101309
Cu9	Cu	1.089428	0.116593	-0.101077
O10	O	1.082080	0.238849	0.085673
C11	C	0.920810	0.122468	0.000096
C12	C	0.818432	0.120657	0.000084
C13	C	0.443548	0.113990	0.000132
C14	C	0.547853	0.115842	0.000118
C15	C	0.630987	0.117323	0.000107
C16	C	0.735298	0.119175	0.000095
C17	C	1.096142	-0.036970	0.000126
C18	C	1.094317	-0.130219	0.000126
C19	C	1.002196	-0.345209	0.000101
C20	C	1.044967	-0.406168	0.084486
C21	C	1.091015	-0.300950	0.000118
C22	C	1.045002	-0.406144	-0.084239
C23	C	1.087820	-0.465867	0.000106
C24	C	1.133811	-0.360680	0.084572
C25	C	1.133834	-0.360650	-0.084228
C26	C	1.176669	-0.421591	0.000177
C27	C	1.092854	-0.205945	0.000126
C28	C	1.085988	-0.560871	0.000105
C29	C	1.258028	0.110710	0.000133
C30	C	1.360406	0.112521	0.000139
C31	C	1.082696	0.270148	0.000103
C32	C	1.084521	0.363397	0.000096
N33	N	1.089405	0.116578	0.243656
N34	N	1.089441	0.116593	-0.243424
C35	C	1.089426	0.116594	0.663470
C36	C	1.089418	0.116592	0.546665
C37	C	1.089416	0.116587	0.453567
C38	C	1.089406	0.116584	0.336754
H39	H	0.928471	-0.312009	0.000177
C40	C	0.994212	-0.433420	0.180847
C41	C	0.892094	-0.399376	0.199372
C42	C	0.841333	-0.426625	0.295728
C43	C	0.892690	-0.487918	0.373560
C44	C	0.994813	-0.521967	0.355038
C45	C	1.045574	-0.494718	0.258681
H46	H	0.854072	-0.353999	0.141754
H47	H	0.765734	-0.401420	0.309439
H48	H	0.855113	-0.508090	0.444889
H49	H	1.032836	-0.567343	0.412656
H50	H	1.121173	-0.519923	0.244971
C51	C	1.184552	-0.333369	-0.180593
C52	C	1.196290	-0.239587	-0.197722
C53	C	1.247000	-0.212302	-0.294097
C54	C	1.285971	-0.278800	-0.373342
C55	C	1.274234	-0.372588	-0.356215
C56	C	1.223524	-0.399872	-0.259841
H57	H	1.167440	-0.190356	-0.139058
H58	H	1.255688	-0.142874	-0.306774
H59	H	1.323509	-0.258602	-0.444684
H60	H	1.303084	-0.421819	-0.414880
H61	H	1.214836	-0.469301	-0.247163
C62	C	1.184507	-0.333613	0.181060
C63	C	1.195561	-0.239787	0.198919
C64	C	1.246252	-0.212717	0.295406
C65	C	1.285891	-0.279474	0.374035
C66	C	1.274839	-0.373306	0.356178
C67	C	1.224147	-0.400375	0.259690
H68	H	1.166217	-0.190364	0.140712
H69	H	1.254433	-0.143256	0.308625
H70	H	1.323416	-0.259435	0.445460
H71	H	1.304183	-0.422729	0.414385
H72	H	1.215966	-0.469837	0.246472
C73	C	1.276351	-0.466247	0.000245
C74	C	1.342420	-0.451736	0.089578
C75	C	1.442100	-0.496393	0.089651
C76	C	1.475711	-0.555559	0.000390
C77	C	1.409640	-0.570073	-0.088951
C78	C	1.309960	-0.525417	-0.089023
H79	H	1.317540	-0.407935	0.155661
H80	H	1.491009	-0.485648	0.155787
H81	H	1.549500	-0.588616	0.000443
H82	H	1.434520	-0.613874	-0.155033
H83	H	1.261051	-0.536161	-0.155159
C84	C	0.994246	-0.433352	-0.180614
C85	C	0.892132	-0.399288	-0.199138
C86	C	0.841368	-0.426491	-0.295507
C87	C	0.892718	-0.487759	-0.373353
C88	C	0.994838	-0.521827	-0.354831
C89	C	1.045601	-0.494624	-0.258462
H90	H	0.854114	-0.353930	-0.141510
H91	H	0.765772	-0.401272	-0.309217
H92	H	0.855140	-0.507897	-0.444691
H93	H	1.032855	-0.567185	-0.412459
H94	H	1.121197	-0.519843	-0.244752
