data_functionalizedCrystal
_audit_creation_method	'MofGen! by Chris Wilmer'
_symmetry_space_group_name_H-M	'P1'
_symmetry_Int_Tables_number	1
_symmetry_cell_setting	triclinic
loop_
_symmetry_equiv_pos_as_xyz
  x,y,z
_cell_length_a	17.038272
_cell_length_b	17.038272
_cell_length_c	16.098538
_cell_angle_alpha	92.930266
_cell_angle_beta	92.920305
_cell_angle_gamma	88.888444
loop_
_atom_site_label
_atom_site_type_symbol
_atom_site_fract_x
_atom_site_fract_y
_atom_site_fract_z
O1	O	0.167266	-1.052033	-0.069152
O2	O	0.164557	-0.824222	-0.069177
O3	O	0.052006	-0.936773	-0.069158
O4	O	0.279817	-0.939482	-0.069171
O5	O	0.058553	-0.930197	0.069354
O6	O	0.171104	-0.817646	0.069335
O7	O	0.173813	-1.045456	0.069359
Zn8	Zn	0.173498	-0.930507	0.091339
Zn9	Zn	0.164872	-0.939172	-0.091156
O10	O	0.286364	-0.932905	0.069341
C11	C	0.165367	-0.791641	0.000076
C12	C	0.158019	-0.704358	0.000067
N13	N	0.179385	-0.924599	0.215887
C14	C	0.025987	-0.931022	0.000097
C15	C	-0.061297	-0.923674	0.000096
C16	C	-0.106906	-0.991137	0.000104
C17	C	-0.188918	-0.984229	0.000096
C18	C	-0.225320	-0.909856	0.000085
C19	C	-0.179705	-0.842388	0.000074
C20	C	-0.097694	-0.849297	0.000077
C21	C	-0.472708	-0.885446	0.000071
C22	C	-0.554725	-0.878541	0.000071
C23	C	-0.563932	-1.020383	0.000091
C24	C	-0.481920	-1.027286	0.000098
C25	C	-0.436312	-0.959818	0.000083
C26	C	-0.309149	-0.902792	0.000079
C27	C	-0.352485	-0.966882	0.000084
C28	C	0.312383	-0.938656	0.000083
C29	C	0.399666	-0.946005	0.000079
C30	C	0.173002	-1.078037	0.000105
C31	C	0.180351	-1.165320	0.000108
C32	C	0.225482	-0.658749	0.000064
C33	C	0.218574	-0.576737	0.000075
C34	C	0.144201	-0.540335	0.000085
C35	C	0.076733	-0.585950	0.000090
C36	C	0.083642	-0.667961	0.000084
C37	C	0.119792	-0.292946	0.000108
C38	C	0.112887	-0.210929	0.000112
C39	C	0.254729	-0.201722	0.000098
C40	C	0.261632	-0.283734	0.000088
C41	C	0.194164	-0.329342	0.000098
C42	C	0.137138	-0.456505	0.000094
C43	C	0.201228	-0.413170	0.000094
N44	N	0.158979	-0.945085	-0.215705
C45	C	0.131633	-0.972390	0.259480
C46	C	0.135759	-0.968265	0.346668
C47	C	0.187642	-0.916352	0.390262
C48	C	0.235395	-0.868556	0.346663
C49	C	0.231265	-0.872678	0.259476
C50	C	0.202602	-0.901410	0.653510
C51	C	0.206731	-0.897294	0.740702
C52	C	0.107093	-0.997003	0.740702
C53	C	0.102971	-1.001123	0.653513
C54	C	0.150721	-0.953324	0.609922
C55	C	0.191862	-0.912136	0.479383
C56	C	0.146496	-0.957536	0.520803
H57	H	-0.077274	-1.051699	0.000118
H58	H	-0.226050	-1.039165	0.000104
Cl59	Cl	-0.016765	-0.540188	0.000107
Cl60	Cl	-0.415384	-0.800628	0.000050
H61	H	-0.601075	-1.075312	0.000101
H62	H	0.089389	-1.014666	0.223992
Cl63	Cl	-0.225468	-0.748890	0.000051
Cl64	Cl	0.043643	-0.410737	0.000102
H65	H	0.028706	-0.705095	0.000086
H66	H	0.261782	-0.442811	0.000091
H67	H	0.096876	-1.007180	0.382161
H68	H	0.060724	-1.043394	0.618021
Cl69	Cl	0.291296	-0.812591	0.204674
H70	H	0.068216	-1.035918	0.776202
Cl71	Cl	0.300616	-0.803289	0.401465
Cl72	Cl	0.081272	-1.022793	0.465999
Cl73	Cl	-0.040357	-0.764483	0.000064
Cl74	Cl	-0.306721	-1.060377	0.000093
Cl75	Cl	0.271962	-0.832027	0.795500
Cl76	Cl	0.262633	-0.841325	0.598715
Cl77	Cl	0.257087	-0.846878	0.534190
H78	H	-0.584359	-0.817975	0.000075
H79	H	-0.452287	-1.087848	0.000107
H80	H	-0.338796	-0.842238	0.000072
H81	H	0.286045	-0.688381	0.000056
Cl82	Cl	0.303390	-0.519403	0.000066
H83	H	0.052321	-0.181294	0.000118
H84	H	0.322194	-0.313367	0.000070
H85	H	0.309658	-0.164579	0.000092
H86	H	0.064854	-0.330070	0.000117
