data_functionalizedCrystal
_audit_creation_method	'MofGen! by Chris Wilmer'
_symmetry_space_group_name_H-M	'P1'
_symmetry_Int_Tables_number	1
_symmetry_cell_setting	triclinic
loop_
_symmetry_equiv_pos_as_xyz
  x,y,z
_cell_length_a	21.395362
_cell_length_b	11.169416
_cell_length_c	21.395355
_cell_angle_alpha	89.989073
_cell_angle_beta	89.956060
_cell_angle_gamma	90.026221
loop_
_atom_site_label
_atom_site_type_symbol
_atom_site_fract_x
_atom_site_fract_y
_atom_site_fract_z
Zn1	Zn	0.957948	-0.477437	-0.354619
Zn2	Zn	1.457948	0.022563	0.145381
Zn3	Zn	0.957888	-0.678108	-0.249855
Zn4	Zn	1.457888	-0.178108	0.250145
Zn5	Zn	0.853163	-0.477493	-0.249820
Zn6	Zn	1.353163	0.022507	0.250180
Zn7	Zn	0.853169	-0.678133	-0.354560
Zn8	Zn	1.353169	-0.178133	0.145440
O9	O	0.905542	-0.577793	-0.302213
O10	O	1.405542	-0.077793	0.197787
O11	O	1.045618	-0.504023	-0.340761
O12	O	1.545618	-0.004023	0.159239
O13	O	0.943968	-0.651509	-0.162172
O14	O	1.443968	-0.151509	0.337828
O15	O	0.867086	-0.309536	-0.263732
O16	O	1.367086	0.190464	0.236268
O17	O	1.045574	-0.651455	-0.263792
O18	O	1.545574	-0.151455	0.236208
O19	O	0.944071	-0.309495	-0.340727
O20	O	1.444071	0.190505	0.159273
O21	O	0.867027	-0.504118	-0.162147
O22	O	1.367027	-0.004118	0.337853
O23	O	0.765486	-0.504142	-0.263675
O24	O	1.265486	-0.004142	0.236325
O25	O	0.867096	-0.651497	-0.442246
O26	O	1.367096	-0.151497	0.057754
O27	O	0.765491	-0.651551	-0.340627
O28	O	1.265491	-0.151551	0.159373
O29	O	0.944077	-0.504047	-0.442289
O30	O	1.444077	-0.004047	0.057711
O31	O	0.943974	-0.846061	-0.263734
O32	O	1.443974	-0.346061	0.236266
O33	O	0.867038	-0.846079	-0.340661
O34	O	1.367038	-0.346079	0.159339
C35	C	0.742754	-0.577856	-0.302141
C36	C	1.242754	-0.077856	0.197859
C37	C	0.673113	-0.577912	-0.302124
C38	C	1.173113	-0.077912	0.197876
C39	C	0.905517	-0.889618	-0.302209
C40	C	1.405517	-0.389618	0.197791
C41	C	0.905564	-1.023018	-0.302228
C42	C	1.405564	-0.523018	0.197772
C43	C	0.640419	-0.654770	-0.342133
C44	C	1.140419	-0.154770	0.157867
C45	C	0.574984	-0.654741	-0.342161
C46	C	1.074984	-0.154741	0.157839
C47	C	0.542245	-0.577866	-0.302169
C48	C	1.042245	-0.077866	0.197831
C49	C	0.574947	-0.500994	-0.262157
C50	C	1.074947	-0.000994	0.237843
C51	C	0.640381	-0.501017	-0.262135
C52	C	1.140381	-0.001017	0.237865
C53	C	0.438518	-0.568198	-0.245763
C54	C	0.938518	-0.068198	0.254237
C55	C	0.373085	-0.568183	-0.245784
C56	C	0.873085	-0.068183	0.254216
C57	C	0.340424	-0.577788	-0.302238
C58	C	0.840424	-0.077788	0.197762
C59	C	0.373204	-0.587433	-0.358673
C60	C	0.873204	-0.087433	0.141327
C61	C	0.438638	-0.587456	-0.358650
C62	C	0.938638	-0.087456	0.141350
C63	C	0.471293	-0.577832	-0.302189
C64	C	0.971293	-0.077832	0.197811
C65	C	0.236777	-0.654618	-0.342281
C66	C	0.736777	-0.154618	0.157719
C67	C	0.171341	-0.654580	-0.342310
C68	C	0.671341	-0.154580	0.157690
C69	C	0.171306	-0.500839	-0.262300
C70	C	0.671306	-0.000839	0.237700
C71	C	0.236741	-0.500871	-0.262277
C72	C	0.736741	-0.000871	0.237723
C73	C	0.269473	-0.577766	-0.302266
C74	C	0.769473	-0.077766	0.197734
C75	C	1.068965	-0.577730	-0.302287
C76	C	1.568965	-0.077730	0.197713
C77	C	1.138607	-0.577703	-0.302318
C78	C	1.638607	-0.077703	0.197682
C79	C	0.905594	-0.577769	-0.465637
C80	C	1.405594	-0.077769	0.034363
C81	C	0.905616	-0.577758	-0.535278
C82	C	1.405616	-0.077758	-0.035278
C83	C	0.905584	-0.264751	-0.302232
C84	C	1.405584	0.235249	0.197768
C85	C	0.905602	-0.131351	-0.302240
C86	C	1.405602	0.368649	0.197760
C87	C	0.945698	-0.500978	-0.568015
C88	C	1.445698	-0.000978	-0.068015
C89	C	0.945697	-0.500926	-0.633450
C90	C	1.445697	-0.000926	-0.133450
C91	C	0.905621	-0.577676	-0.666146
C92	C	1.405621	-0.077676	-0.166146
C93	C	0.865531	-0.654462	-0.633402
C94	C	1.365531	-0.154462	-0.133402
C95	C	0.865529	-0.654503	-0.567968
C96	C	1.365529	-0.154503	-0.067968
C97	C	0.900665	-0.685744	-0.769818
C98	C	1.400665	-0.185744	-0.269818
C99	C	0.900672	-0.685705	-0.835251
C100	C	1.400672	-0.185705	-0.335251
C101	C	0.905625	-0.577550	-0.867967
C102	C	1.405625	-0.077550	-0.367967
C103	C	0.910584	-0.469429	-0.835243
C104	C	1.410584	0.030571	-0.335243
C105	C	0.910582	-0.469470	-0.769809
C106	C	1.410582	0.030530	-0.269809
C107	C	0.905619	-0.577640	-0.737099
C108	C	1.405619	-0.077640	-0.237099
C109	C	0.945708	-0.500707	-0.971656
C110	C	1.445708	-0.000707	-0.471656
C111	C	0.945703	-0.500653	-1.037093
C112	C	1.445703	-0.000653	-0.537093
C113	C	0.865540	-0.654200	-1.037044
C114	C	1.365540	-0.154200	-0.537044
C115	C	0.865542	-0.654243	-0.971608
C116	C	1.365542	-0.154243	-0.471608
C117	C	0.905630	-0.577498	-0.938919
C118	C	1.405630	-0.077498	-0.438919
C119	C	0.905526	-0.577731	-0.139426
C120	C	1.405526	-0.077731	0.360574
C121	C	0.905626	-0.577403	-0.069785
C122	C	1.405626	-0.077403	0.430215
H123	H	0.667065	-0.717383	-0.374697
H124	H	1.167065	-0.217383	0.125303
H125	H	0.832903	-0.716679	-1.063664
H126	H	1.332903	-0.216679	-0.563664
H127	H	0.548359	-0.717327	-0.374744
H128	H	1.048359	-0.217327	0.125256
C129	C	0.135301	-0.416264	-0.218317
C130	C	0.635301	0.083736	0.281683
H131	H	0.091648	-0.427256	-0.224060
H132	H	0.591648	0.072744	0.275940
H133	H	0.146067	-0.335660	-0.227559
H134	H	0.646067	0.164340	0.272441
H135	H	0.145968	-0.433709	-0.176196
H136	H	0.645968	0.066291	0.323804
C137	C	0.474694	-0.598047	-0.420723
C138	C	0.974694	-0.098047	0.079277
H139	H	0.445875	-0.603755	-0.454351
H140	H	0.945875	-0.103755	0.045649
H141	H	0.500198	-0.667619	-0.419842
H142	H	1.000198	-0.167619	0.080158
H143	H	0.500246	-0.529275	-0.426275
H144	H	1.000246	-0.029275	0.073725
H145	H	0.667001	-0.438427	-0.229555
H146	H	1.167001	0.061573	0.270445
H147	H	0.978340	-0.438485	-0.541403
H148	H	1.478340	0.061515	-0.041403
H149	H	0.978336	-0.438396	-0.660110
H150	H	1.478336	0.061604	-0.160110
C151	C	0.538937	-0.416434	-0.218167
C152	C	1.038937	0.083566	0.281833
H153	H	0.495284	-0.427436	-0.223906
H154	H	0.995284	0.072564	0.276094
H155	H	0.549697	-0.335825	-0.227404
H156	H	1.049697	0.164175	0.272596
H157	H	0.549610	-0.433889	-0.176048
H158	H	1.049610	0.066111	0.323952
C159	C	0.916027	-0.350548	-0.733814
C160	C	1.416027	0.149452	-0.233814
H161	H	0.918972	-0.286123	-0.762665
H162	H	1.418972	0.213877	-0.262665
H163	H	0.952342	-0.352104	-0.708311
H164	H	1.452342	0.147896	-0.208311
H165	H	0.880112	-0.340040	-0.708264
H166	H	1.380112	0.159960	-0.208264
C167	C	0.272788	-0.739180	-0.386273
C168	C	0.772788	-0.239180	0.113727
H169	H	0.316441	-0.728197	-0.380524
H170	H	0.816441	-0.228197	0.119476
H171	H	0.262118	-0.721725	-0.428389
H172	H	0.762118	-0.221725	0.071611
H173	H	0.262026	-0.819795	-0.377036
H174	H	0.762026	-0.319795	0.122964
C175	C	0.916440	-0.350522	-0.871221
C176	C	1.416440	0.149478	-0.371221
H177	H	0.915848	-0.365999	-0.914878
H178	H	1.415848	0.134001	-0.414878
H179	H	0.954688	-0.312664	-0.860372
H180	H	1.454688	0.187336	-0.360372
H181	H	0.882508	-0.299576	-0.860619
H182	H	1.382508	0.200424	-0.360619
C183	C	0.135374	-0.739122	-0.386322
C184	C	0.635374	-0.239122	0.113678
H185	H	0.091715	-0.728087	-0.380615
H186	H	0.591715	-0.228087	0.119385
H187	H	0.146058	-0.819739	-0.377077
H188	H	0.646058	-0.319739	0.122923
H189	H	0.146153	-0.721679	-0.428434
H190	H	0.646153	-0.221679	0.071566
H191	H	0.978346	-0.438210	-0.945039
H192	H	1.478346	0.061790	-0.445039
H193	H	0.346613	-0.595252	-0.404643
H194	H	0.846613	-0.095252	0.095357
C195	C	0.272706	-0.416342	-0.218259
C196	C	0.772706	0.083658	0.281741
H197	H	0.243839	-0.370560	-0.194440
H198	H	0.743839	0.129440	0.305560
H199	H	0.298279	-0.364125	-0.242260
H200	H	0.798279	0.135875	0.257740
H201	H	0.298184	-0.462197	-0.190909
H202	H	0.798184	0.037803	0.309091
H203	H	0.896464	-0.773795	-0.743185
H204	H	1.396464	-0.273795	-0.243185
H205	H	0.346401	-0.560337	-0.199832
H206	H	0.846401	-0.060337	0.300168
C207	C	0.821446	-0.738982	-0.531956
C208	C	1.321446	-0.238982	-0.031956
H209	H	0.797580	-0.784693	-0.560798
H210	H	1.297580	-0.284693	-0.060798
H211	H	0.794152	-0.693110	-0.506401
H212	H	1.294152	-0.193110	-0.006401
H213	H	0.845416	-0.791285	-0.506458
H214	H	1.345416	-0.291285	-0.006458
H215	H	0.465106	-0.560371	-0.199789
H216	H	0.965106	-0.060371	0.300211
H217	H	0.978342	-0.438122	-1.063746
H218	H	1.478342	0.061878	-0.563746
H219	H	0.832907	-0.716773	-0.944954
H220	H	1.332907	-0.216773	-0.444954
C221	C	0.895215	-0.804630	-0.871242
C222	C	1.395215	-0.304630	-0.371242
H223	H	0.892252	-0.869047	-0.842387
H224	H	1.392252	-0.369047	-0.342387
H225	H	0.931121	-0.815162	-0.896795
H226	H	1.431121	-0.315162	-0.396795
H227	H	0.858893	-0.803056	-0.896740
H228	H	1.358893	-0.303056	-0.396740
C229	C	0.821452	-0.738891	-0.669365
C230	C	1.321452	-0.238891	-0.169365
H231	H	0.827199	-0.727880	-0.713024
H232	H	1.327199	-0.227880	-0.213024
H233	H	0.779355	-0.721353	-0.658612
H234	H	1.279355	-0.221353	-0.158612
H235	H	0.830615	-0.819536	-0.658651
H236	H	1.330615	-0.319536	-0.158651
