data_functionalizedCrystal
_audit_creation_method	'MofGen! by Chris Wilmer'
_symmetry_space_group_name_H-M	'P1'
_symmetry_Int_Tables_number	1
_symmetry_cell_setting	triclinic
loop_
_symmetry_equiv_pos_as_xyz
  x,y,z
_cell_length_a	16.974897
_cell_length_b	10.540510
_cell_length_c	15.455313
_cell_angle_alpha	92.694210
_cell_angle_beta	83.675220
_cell_angle_gamma	83.956223
loop_
_atom_site_label
_atom_site_type_symbol
_atom_site_fract_x
_atom_site_fract_y
_atom_site_fract_z
O1	O	1.057001	0.150608	-0.146246
O2	O	1.557001	0.650608	0.353754
O3	O	0.826141	0.172442	-0.130059
O4	O	1.326141	0.672442	0.369941
O5	O	0.946850	-0.023297	-0.138523
O6	O	1.446850	0.476703	0.361477
O7	O	0.936292	0.346348	-0.137783
O8	O	1.436292	0.846348	0.362217
O9	O	0.939948	-0.012150	0.006224
O10	O	1.439948	0.487850	0.506224
O11	O	0.819239	0.183590	0.014687
O12	O	1.319239	0.683590	0.514687
O13	O	1.050098	0.161756	-0.001500
O14	O	1.550098	0.661756	0.498500
Cu15	Cu	0.934038	0.173691	0.019810
Cu16	Cu	1.434038	0.673691	0.519810
Cu17	Cu	0.942202	0.160508	-0.151369
Cu18	Cu	1.442202	0.660508	0.348631
O19	O	0.929389	0.357496	0.006963
O20	O	1.429389	0.857496	0.506963
C21	C	0.793129	0.177389	-0.055613
C22	C	1.293129	0.677389	0.444387
C23	C	0.705046	0.175507	-0.049437
C24	C	1.205046	0.675507	0.450563
C25	C	0.667420	0.168550	-0.125430
C26	C	1.167420	0.668550	0.374570
C27	C	0.584654	0.166802	-0.119614
C28	C	1.084654	0.666802	0.380386
C29	C	0.539518	0.172003	-0.037805
C30	C	1.039518	0.672003	0.462195
C31	C	0.577149	0.178964	0.038194
C32	C	1.077149	0.678964	0.538194
C33	C	0.659912	0.180721	0.032378
C34	C	1.159912	0.680721	0.532378
C35	C	0.291589	0.167409	-0.011948
C36	C	0.791589	0.667409	0.488052
C37	C	0.208820	0.165648	-0.006137
C38	C	0.708820	0.665648	0.493863
C39	C	0.216331	0.153488	-0.163946
C40	C	0.716331	0.653488	0.336054
C41	C	0.299096	0.155238	-0.169755
C42	C	0.799096	0.655238	0.330245
C43	C	0.336720	0.162206	-0.093757
C44	C	0.836720	0.662206	0.406243
N45	N	0.454918	0.170212	-0.031858
N46	N	0.954918	0.670212	0.468142
N47	N	0.421317	0.164005	-0.099704
N48	N	0.921317	0.664005	0.400296
C49	C	0.942612	-0.065010	-0.066096
C50	C	1.442612	0.434990	0.433904
C51	C	0.940259	-0.205910	-0.065936
C52	C	1.440259	0.294090	0.434064
C53	C	1.024099	-0.425148	-0.071485
C54	C	1.524099	0.074852	0.428515
C55	C	1.026626	-0.278632	-0.071991
C56	C	1.526626	0.221368	0.428009
C57	C	0.899989	-0.256081	-0.145492
C58	C	1.399989	0.243919	0.354508
C59	C	0.898093	-0.402806	-0.145423
C60	C	1.398093	0.097194	0.354577
C61	C	0.888444	-0.389899	0.019306
C62	C	1.388444	0.110101	0.519306
C63	C	0.892489	-0.243562	0.020107
C64	C	1.392489	0.256438	0.520107
C65	C	1.083111	0.156809	-0.075948
C66	C	1.583111	0.656809	0.424052
C67	C	1.171194	0.158691	-0.082130
C68	C	1.671194	0.658691	0.417870
C69	C	0.933627	0.399208	-0.065465
C70	C	1.433627	0.899208	0.434535
C71	C	0.935981	0.540108	-0.065631
C72	C	1.435981	1.040108	0.434369
N73	N	0.928302	0.182962	0.140208
N74	N	1.428302	0.682962	0.640208
N75	N	0.947944	0.151226	-0.271767
N76	N	1.447944	0.651226	0.228233
C77	C	0.979602	0.099835	0.182005
C78	C	1.479602	0.599835	0.682005
C79	C	0.975271	0.106858	0.273116
C80	C	1.475271	0.606858	0.773116
C81	C	0.919644	0.197016	0.322429
C82	C	1.419644	0.697016	0.822429
C83	C	0.868339	0.280146	0.280626
C84	C	1.368339	0.780146	0.780626
C85	C	0.872666	0.273116	0.189516
C86	C	1.372666	0.773116	0.689516
C87	C	0.900966	0.227326	0.595320
C88	C	1.400966	0.727326	1.095320
C89	C	0.896644	0.234353	0.686435
C90	C	1.396644	0.734353	1.186435
C91	C	1.003576	0.061063	0.678920
C92	C	1.503576	0.561063	1.178920
C93	C	1.007901	0.054046	0.587809
C94	C	1.507901	0.554046	1.087809
C95	C	0.956593	0.137172	0.546014
C96	C	1.456593	0.637172	1.046014
N97	N	0.915218	0.204199	0.415559
N98	N	1.415218	0.704199	0.915559
N99	N	0.961016	0.129981	0.452885
N100	N	1.461016	0.629981	0.952885
H101	H	1.058393	-0.245471	-0.015168
H102	H	1.558393	0.254529	0.484832
H103	H	0.921743	-0.210935	0.078999
H104	H	1.421743	0.289065	0.578999
H105	H	1.045347	-0.006616	0.712958
H106	H	1.545347	0.493384	1.212958
Cl107	Cl	0.794766	-0.165121	0.034641
Cl108	Cl	1.294766	0.334879	0.534641
H109	H	0.851344	0.307775	0.726582
H110	H	1.351344	0.807775	1.226582
Cl111	Cl	0.707214	0.189473	0.127916
Cl112	Cl	1.207214	0.689473	0.627916
Cl113	Cl	0.808169	0.377619	0.136972
Cl114	Cl	1.308169	0.877619	0.636972
H115	H	0.859190	0.295013	0.561297
H116	H	1.359190	0.795013	1.061297
H117	H	0.823043	0.353550	0.320781
H118	H	1.323043	0.853550	0.820781
H119	H	0.185688	0.147818	-0.225820
H120	H	0.685688	0.647818	0.274180
Cl121	Cl	0.537356	0.158056	-0.215154
Cl122	Cl	1.037356	0.658056	0.284846
H123	H	1.054920	-0.463264	-0.014567
H124	H	1.554920	0.036736	0.485433
Cl125	Cl	1.080092	-0.500435	-0.166106
Cl126	Cl	1.580092	-0.000435	0.333894
H127	H	0.823572	-0.410608	0.024410
H128	H	1.323572	0.089392	0.524410
H129	H	0.172069	0.169919	0.060486
H130	H	0.672069	0.669919	0.560486
Cl131	Cl	0.520405	0.185513	0.141042
Cl132	Cl	1.020405	0.685513	0.641042
Cl133	Cl	0.724156	0.162002	-0.228283
Cl134	Cl	1.224156	0.662002	0.271717
Cl135	Cl	0.338877	0.176167	0.083595
Cl136	Cl	0.838877	0.676167	0.583595
Cl137	Cl	0.951922	-0.216788	-0.243788
Cl138	Cl	1.451922	0.283212	0.256212
Cl139	Cl	1.049540	-0.013506	0.120021
Cl140	Cl	1.549540	0.486494	0.620021
Cl141	Cl	1.084711	-0.242982	-0.167397
Cl142	Cl	1.584711	0.257018	0.332603
Cl143	Cl	1.077834	-0.059294	0.525816
Cl144	Cl	1.577834	0.440706	1.025816
Cl145	Cl	0.355834	0.148692	-0.272606
Cl146	Cl	0.855834	0.648692	0.227394
Cl147	Cl	0.949296	-0.473255	-0.244083
Cl148	Cl	1.449296	0.026745	0.255917
Cl149	Cl	0.802051	-0.181161	-0.143363
Cl150	Cl	1.302051	0.318839	0.356637
H151	H	0.833674	-0.424696	-0.144639
H152	H	1.333674	0.075304	0.355361
H153	H	0.912902	-0.427847	0.080035
H154	H	1.412902	0.072153	0.580035
Cl155	Cl	1.039762	0.002353	0.325663
Cl156	Cl	1.539762	0.502353	0.825663
