data_functionalizedCrystal
_audit_creation_method	'MofGen! by Chris Wilmer'
_symmetry_space_group_name_H-M	'P1'
_symmetry_Int_Tables_number	1
_symmetry_cell_setting	triclinic
loop_
_symmetry_equiv_pos_as_xyz
  x,y,z
_cell_length_a	16.120530
_cell_length_b	18.101397
_cell_length_c	18.101389
_cell_angle_alpha	89.978953
_cell_angle_beta	87.084523
_cell_angle_gamma	87.115827
loop_
_atom_site_label
_atom_site_type_symbol
_atom_site_fract_x
_atom_site_fract_y
_atom_site_fract_z
Zn1	Zn	1.274561	-0.352405	-0.476057
Zn2	Zn	1.774561	0.147595	0.023943
Zn3	Zn	1.274469	-0.476226	-0.352206
Zn4	Zn	1.774469	0.023774	0.147794
Zn5	Zn	1.135145	-0.346118	-0.345958
Zn6	Zn	1.635145	0.153882	0.154042
Zn7	Zn	1.135116	-0.469918	-0.469737
Zn8	Zn	1.635116	0.030082	0.030263
O9	O	1.204823	-0.411167	-0.410989
O10	O	1.704823	0.088833	0.089011
O11	O	1.391215	-0.374101	-0.464887
O12	O	1.891215	0.125899	0.035113
O13	O	1.255962	-0.458976	-0.247743
O14	O	1.755962	0.041024	0.252257
O15	O	1.153690	-0.243321	-0.363246
O16	O	1.653690	0.256679	0.136754
O17	O	1.391148	-0.465072	-0.373894
O18	O	1.891148	0.034928	0.126106
O19	O	1.256118	-0.247940	-0.458829
O20	O	1.756118	0.252060	0.041171
O21	O	1.153601	-0.363386	-0.243153
O22	O	1.653601	0.136614	0.256847
O23	O	1.018475	-0.357269	-0.357118
O24	O	1.518475	0.142731	0.142882
O25	O	1.153639	-0.454321	-0.574209
O26	O	1.653639	0.045679	-0.074209
O27	O	1.018454	-0.448225	-0.448057
O28	O	1.518454	0.051775	0.051943
O29	O	1.256089	-0.367984	-0.578853
O30	O	1.756089	0.132016	-0.078853
O31	O	1.255933	-0.579020	-0.367766
O32	O	1.755933	-0.079020	0.132234
O33	O	1.153551	-0.574386	-0.454116
O34	O	1.653551	-0.074386	0.045884
C35	C	0.988214	-0.401381	-0.401224
C36	C	1.488214	0.098619	0.098776
C37	C	0.895548	-0.397212	-0.397064
C38	C	1.395548	0.102788	0.102936
C39	C	0.725886	-0.389585	-0.389476
C40	C	1.225886	0.110415	0.110524
C41	C	0.684600	-0.432804	-0.432557
C42	C	1.184600	0.067196	0.067443
C43	C	0.590194	-0.428559	-0.428335
C44	C	1.090194	0.071441	0.071665
C45	C	0.820300	-0.393828	-0.393697
C46	C	1.320300	0.106172	0.106303
C47	C	1.204751	-0.603574	-0.410950
C48	C	1.704751	-0.103574	0.089050
C49	C	1.204797	-0.685890	-0.410962
C50	C	1.704797	-0.185890	0.089038
C51	C	1.204904	-0.984986	-0.411034
C52	C	1.704904	-0.484986	0.088966
C53	C	1.269140	-0.956538	-0.356544
C54	C	1.769140	-0.456538	0.143456
C55	C	1.269363	-0.870929	-0.356702
C56	C	1.769363	-0.370929	0.143298
C57	C	1.204851	-0.836601	-0.410997
C58	C	1.704851	-0.336601	0.089003
C59	C	1.228667	-0.868696	-0.490130
C60	C	1.728667	-0.368696	0.009870
C61	C	1.229165	-0.954363	-0.489839
C62	C	1.729165	-0.454363	0.010161
C63	C	1.116679	-0.949512	-0.387060
C64	C	1.616679	-0.449512	0.112940
C65	C	1.117115	-0.863882	-0.385337
C66	C	1.617115	-0.363882	0.114663
C67	C	1.204820	-0.752740	-0.410982
C68	C	1.704820	-0.252740	0.089018
C69	C	1.204937	-1.068847	-0.411055
C70	C	1.704937	-0.568847	0.088945
C71	C	1.422277	-0.420991	-0.420793
C72	C	1.922277	0.079009	0.079207
C73	C	1.514943	-0.425178	-0.424971
C74	C	2.014943	0.074822	0.075029
C75	C	1.204871	-0.411150	-0.604153
C76	C	1.704871	0.088850	-0.104153
C77	C	1.204891	-0.411143	-0.686468
C78	C	1.704891	0.088857	-0.186468
C79	C	1.204917	-0.218009	-0.411046
C80	C	1.704917	0.281991	0.088954
C81	C	1.204957	-0.135697	-0.411070
C82	C	1.704957	0.364303	0.088930
C83	C	1.204940	-0.411007	-0.985562
C84	C	1.704940	0.088993	-0.485562
C85	C	1.140259	-0.465135	-0.951305
C86	C	1.640259	0.034865	-0.451305
C87	C	1.140434	-0.465408	-0.865695
C88	C	1.640434	0.034592	-0.365695
C89	C	1.204915	-0.411074	-0.837178
C90	C	1.704915	0.088926	-0.337178
C91	C	1.292758	-0.436221	-0.872227
C92	C	1.792758	0.063779	-0.372227
C93	C	1.292397	-0.436579	-0.957856
C94	C	1.792397	0.063421	-0.457856
C95	C	1.182542	-0.331639	-0.952984
C96	C	1.682542	0.168361	-0.452984
C97	C	1.180588	-0.332003	-0.867245
C98	C	1.680588	0.167997	-0.367245
C99	C	1.204907	-0.411112	-0.753318
C100	C	1.704907	0.088888	-0.253318
C101	C	1.204955	-0.410971	-1.069422
C102	C	1.704955	0.089029	-0.569422
C103	C	1.204823	-0.411132	-0.218579
C104	C	1.704823	0.088868	0.281421
C105	C	1.204964	-0.410938	-0.136271
C106	C	1.704964	0.089062	0.363729
H107	H	0.690334	-0.349400	-0.349424
H108	H	1.190334	0.150600	0.150576
H109	H	1.254463	-0.849286	-0.298151
H110	H	1.754463	-0.349286	0.201849
Cl111	Cl	1.246421	-0.987373	-0.265888
Cl112	Cl	1.746421	-0.487373	0.234112
H113	H	1.334135	-0.980940	-0.372552
H114	H	1.834135	-0.480940	0.127448
H115	H	1.183311	-0.846298	-0.531991
H116	H	1.683311	-0.346298	-0.031991
Cl117	Cl	1.327118	-0.839940	-0.521166
Cl118	Cl	1.827118	-0.339940	-0.021166
H119	H	1.155223	-0.524156	-0.845874
H120	H	1.655223	-0.024156	-0.345874
Cl121	Cl	1.328729	-0.989616	-0.520479
Cl122	Cl	1.828729	-0.489616	-0.020479
H123	H	1.095012	-0.970185	-0.330151
H124	H	1.595012	-0.470185	0.169849
Cl125	Cl	1.370260	-0.843761	-0.381682
Cl126	Cl	1.870260	-0.343761	0.118318
H127	H	1.119600	-0.309499	-0.971744
H128	H	1.619600	0.190501	-0.471744
Cl129	Cl	1.039383	-0.440326	-0.978552
Cl130	Cl	1.539383	0.059674	-0.478552
Cl131	Cl	1.321707	-0.526338	-0.990024
Cl132	Cl	1.821707	-0.026338	-0.490024
H133	H	1.184427	-0.973079	-0.532053
H134	H	1.684427	-0.473079	-0.032053
H135	H	1.099156	-0.842803	-0.327083
H136	H	1.599156	-0.342803	0.172917
H137	H	1.066679	-0.840227	-0.421800
H138	H	1.566679	-0.340227	0.078200
H139	H	0.720155	-0.472991	-0.472612
H140	H	1.220155	0.027009	0.027388
Cl141	Cl	1.042784	-0.977479	-0.448257
Cl142	Cl	1.542784	-0.477479	0.051743
H143	H	1.115943	-0.313112	-0.844011
H144	H	1.615943	0.186888	-0.344011
H145	H	1.075296	-0.449213	-0.841738
H146	H	1.575296	0.050787	-0.341738
Cl147	Cl	1.248022	-0.265939	-0.837274
Cl148	Cl	1.748022	0.234061	-0.337274
Cl149	Cl	1.162815	-0.555269	-0.985601
Cl150	Cl	1.662815	-0.055269	-0.485601
H151	H	1.229652	-0.291261	-0.975377
H152	H	1.729652	0.208739	-0.475377
H153	H	1.342224	-0.399080	-0.980835
H154	H	1.842224	0.100920	-0.480835
Cl155	Cl	1.369166	-0.377535	-0.844252
Cl156	Cl	1.869166	0.122465	-0.344252
H157	H	1.312072	-0.493764	-0.851650
H158	H	1.812072	0.006236	-0.351650
