data_functionalizedCrystal
_audit_creation_method	'MofGen! by Chris Wilmer'
_symmetry_space_group_name_H-M	'P1'
_symmetry_Int_Tables_number	1
_symmetry_cell_setting	triclinic
loop_
_symmetry_equiv_pos_as_xyz
  x,y,z
_cell_length_a	18.215407
_cell_length_b	18.101397
_cell_length_c	18.215399
_cell_angle_alpha	90.031052
_cell_angle_beta	90.017331
_cell_angle_gamma	90.014979
loop_
_atom_site_label
_atom_site_type_symbol
_atom_site_fract_x
_atom_site_fract_y
_atom_site_fract_z
Zn1	Zn	1.125091	-0.294943	0.416062
Zn2	Zn	1.125010	-0.418790	0.292990
Zn3	Zn	1.002025	-0.294955	0.293014
Zn4	Zn	1.001999	-0.418735	0.416020
O5	O	1.063531	-0.356856	0.354522
O6	O	1.228064	-0.311389	0.399745
O7	O	1.108672	-0.402391	0.190009
O8	O	1.018394	-0.191320	0.309365
O9	O	1.228005	-0.402379	0.309324
O10	O	1.108811	-0.191311	0.399768
O11	O	1.018316	-0.311410	0.190027
O12	O	0.899037	-0.311357	0.309323
O13	O	1.018351	-0.402285	0.519010
O14	O	0.899018	-0.402297	0.399695
O15	O	1.108786	-0.311336	0.519041
O16	O	1.108648	-0.522415	0.309283
O17	O	1.018272	-0.522375	0.399672
C18	C	0.872325	-0.356823	0.354507
C19	C	0.790526	-0.356827	0.354519
C20	C	0.525494	-0.309568	0.401679
C21	C	0.602353	-0.309556	0.401676
C22	C	0.602310	-0.404167	0.307381
C23	C	0.525452	-0.404182	0.307387
C24	C	0.487046	-0.356878	0.354535
C25	C	0.640762	-0.356851	0.354526
C26	C	0.724096	-0.356839	0.354523
C27	C	0.403707	-0.356892	0.354539
C28	C	1.063468	-0.549266	0.354486
C29	C	1.063509	-0.631580	0.354495
C30	C	1.063602	-0.930671	0.354562
C31	C	1.120306	-0.899340	0.297540
C32	C	1.120502	-0.813722	0.297688
C33	C	1.063556	-0.782289	0.354529
C34	C	1.084580	-0.813297	0.432100
C35	C	1.085018	-0.898942	0.431789
C36	C	0.985724	-0.899173	0.334685
C37	C	0.986109	-0.813523	0.332954
C38	C	1.063528	-0.698429	0.354514
C39	C	1.063632	-1.014531	0.354582
C40	C	1.255484	-0.356889	0.354537
C41	C	1.337283	-0.356903	0.354543
C42	C	1.063574	-0.356803	0.546475
C43	C	1.063593	-0.356781	0.628274
C44	C	1.063614	-0.163694	0.354574
C45	C	1.063650	-0.081380	0.354596
C46	C	1.063530	-0.356854	0.163315
C47	C	1.063655	-0.356668	0.081517
C48	C	1.110710	-0.309359	0.893349
C49	C	1.110701	-0.309379	0.816490
C50	C	1.016536	-0.404095	0.816447
C51	C	1.016549	-0.404078	0.893304
C52	C	1.063634	-0.356706	0.931753
C53	C	1.063613	-0.356743	0.778037
C54	C	1.063603	-0.356765	0.694703
C55	C	1.063645	-0.356685	1.015092
H56	H	0.494148	-0.442712	0.268997
O57	O	0.929807	-0.926092	0.389705
H58	H	0.904357	-0.877992	0.417649
H59	H	0.978199	-0.442662	0.785133
H60	H	0.494226	-0.271050	0.440069
H61	H	0.633653	-0.271032	0.440066
O62	O	1.161490	-0.258273	0.934830
H63	H	1.219245	-0.270986	0.920094
H64	H	0.978214	-0.442637	0.924574
H65	H	0.633589	-0.442678	0.268993
O66	O	1.161475	-0.258310	0.775071
H67	H	1.198906	-0.291469	0.740058
H68	H	1.044542	-0.792934	0.475729
H69	H	0.970256	-0.793264	0.275867
H70	H	1.107349	-0.792760	0.240169
H71	H	1.107312	-0.919983	0.239849
O72	O	1.196309	-0.927767	0.314760
H73	H	1.193874	-0.964112	0.363756
O74	O	1.159278	-0.785201	0.454800
H75	H	1.154284	-0.753272	0.506596
H76	H	1.178190	-0.793184	0.310839
H77	H	1.141944	-0.918867	0.448627
O78	O	1.032698	-0.926402	0.489992
H79	H	1.007200	-0.878507	0.518239
O80	O	0.960391	-0.927846	0.261051
H81	H	0.957228	-0.989056	0.262824
O82	O	0.927128	-0.785192	0.383932
H83	H	0.952205	-0.748247	0.425633
