data_functionalizedCrystal
_audit_creation_method	'MofGen! by Chris Wilmer'
_symmetry_space_group_name_H-M	'P1'
_symmetry_Int_Tables_number	1
_symmetry_cell_setting	triclinic
loop_
_symmetry_equiv_pos_as_xyz
  x,y,z
_cell_length_a	19.121102
_cell_length_b	25.639239
_cell_length_c	19.120904
_cell_angle_alpha	92.410104
_cell_angle_beta	90.088173
_cell_angle_gamma	87.592882
loop_
_atom_site_label
_atom_site_type_symbol
_atom_site_fract_x
_atom_site_fract_y
_atom_site_fract_z
Zn1	Zn	1.054765	-0.255751	-0.442042
Zn2	Zn	1.059658	-0.339618	-0.324799
Zn3	Zn	0.942536	-0.248315	-0.319827
Zn4	Zn	0.937469	-0.339266	-0.437001
O5	O	0.998607	-0.295738	-0.380917
O6	O	1.153518	-0.270136	-0.430680
O7	O	1.048290	-0.324541	-0.226035
O8	O	0.957496	-0.176139	-0.336067
O9	O	1.157113	-0.331752	-0.344542
O10	O	1.039950	-0.181603	-0.425859
O11	O	0.962241	-0.257461	-0.222382
O12	O	0.843760	-0.257121	-0.331180
O13	O	0.948861	-0.331153	-0.535775
O14	O	0.840037	-0.323942	-0.417267
O15	O	1.035037	-0.269795	-0.539478
O16	O	1.043377	-0.412733	-0.339654
O17	O	0.953605	-0.412475	-0.422089
C18	C	0.816461	-0.289687	-0.373137
C19	C	0.738537	-0.287111	-0.369826
C20	C	0.700012	-0.320740	-0.413021
C21	C	0.626794	-0.318313	-0.409912
C22	C	0.592104	-0.282260	-0.363605
C23	C	0.630634	-0.248627	-0.320408
C24	C	0.703850	-0.251052	-0.323520
C25	C	0.371134	-0.273194	-0.351972
C26	C	0.297913	-0.270773	-0.348862
C27	C	0.294078	-0.340458	-0.438367
C28	C	0.367296	-0.342882	-0.441472
C29	C	0.405820	-0.309247	-0.398278
C30	C	0.517264	-0.279779	-0.360425
C31	C	0.480658	-0.311726	-0.401462
C32	C	0.998491	-0.431575	-0.380880
C33	C	0.998504	-0.489690	-0.380890
C34	C	1.045465	-0.850185	-0.338075
C35	C	1.045491	-0.904791	-0.338085
O36	O	1.085298	-0.933135	-0.301642
N37	N	0.998728	-0.931982	-0.380969
C38	C	0.951940	-0.904565	-0.423850
O39	O	0.912167	-0.932708	-0.460327
C40	C	0.951917	-0.849961	-0.423843
C41	C	0.998679	-0.822772	-0.380951
C42	C	1.092223	-0.822997	-0.295188
C43	C	1.092195	-0.768395	-0.295176
C44	C	1.045409	-0.740982	-0.338052
C45	C	0.998651	-0.768171	-0.380940
C46	C	0.905133	-0.822546	-0.466727
C47	C	0.905115	-0.767938	-0.466716
C48	C	0.951876	-0.740749	-0.423825
C49	C	0.951837	-0.686156	-0.423805
N50	N	0.998600	-0.658965	-0.380921
C51	C	1.045386	-0.686378	-0.338045
C52	C	0.951992	-1.019238	-0.423863
C53	C	0.952011	-1.073841	-0.423867
C54	C	1.045564	-1.074063	-0.338103
C55	C	1.045541	-1.019459	-0.338096
C56	C	0.998756	-0.992047	-0.380980
C57	C	1.045324	-0.571710	-0.338024
C58	C	1.045290	-0.517103	-0.338014
C59	C	0.951740	-0.516886	-0.423780
C60	C	0.951771	-0.571488	-0.423788
C61	C	0.998569	-0.598899	-0.380907
O62	O	0.912052	-0.657777	-0.460232
O63	O	1.085159	-0.658229	-0.301581
C64	C	1.181464	-0.301813	-0.388728
C65	C	1.259387	-0.304401	-0.392057
C66	C	0.990838	-0.301264	-0.563775
C67	C	0.987527	-0.303619	-0.641698
C68	C	0.998742	-0.159371	-0.380971
C69	C	0.998800	-0.101259	-0.380993
C70	C	1.030837	-0.272781	-0.680236
C71	C	1.027718	-0.274992	-0.753453
C72	C	0.981292	-0.308044	-0.788130
C73	C	0.937977	-0.338883	-0.749587
C74	C	0.941093	-0.336669	-0.676372
C75	C	0.969635	-0.316324	-1.009097
C76	C	0.966523	-0.318536	-1.082318
C77	C	1.056263	-0.254644	-1.086178
C78	C	1.059378	-0.252436	-1.012961
C79	C	1.016061	-0.283273	-0.974424
C80	C	0.978104	-0.310306	-0.862970
C81	C	1.019246	-0.281008	-0.899586
C82	C	1.006386	-0.290196	-0.198772
C83	C	1.009833	-0.287698	-0.120856
H84	H	0.728252	-0.350100	-0.450727
H85	H	0.595430	-0.345698	-0.445086
C86	C	0.745711	-0.214481	-0.276738
C87	C	0.786076	-0.183601	-0.318302
C88	C	0.824638	-0.149899	-0.275232
H89	H	0.775608	-0.234406	-0.247344
H90	H	0.714586	-0.192634	-0.248726
H91	H	0.817198	-0.205446	-0.346302
H92	H	0.756196	-0.163665	-0.347695
H93	H	0.793512	-0.128051	-0.247219
H94	H	0.854531	-0.169828	-0.245840
H95	H	0.852025	-0.128939	-0.303427
H96	H	0.934373	-0.341441	-0.977730
C97	C	1.103403	-0.221229	-1.127987
C98	C	1.173514	-0.234386	-1.113154
C99	C	1.216959	-0.203616	-1.151661
H100	H	1.093778	-0.185383	-1.115595
H101	H	1.094947	-0.227285	-1.176566
H102	H	1.181967	-0.228326	-1.064585
H103	H	1.183161	-0.270227	-1.125548
H104	H	1.208503	-0.209673	-1.200241
H105	H	1.207328	-0.167772	-1.139267
H106	H	1.264534	-0.212543	-1.141607
H107	H	0.928715	-0.345452	-1.110550
C108	C	1.109729	-0.216576	-0.975184
C109	C	1.103187	-0.221237	-0.902816
C110	C	1.149554	-0.188207	-0.867994
H111	H	1.099011	-0.181455	-0.986690
H112	H	1.156343	-0.226137	-0.989139
H113	H	1.056584	-0.211673	-0.888867
H114	H	1.113911	-0.256351	-0.891290
H115	H	1.196168	-0.197768	-0.881949
H116	H	1.138832	-0.153088	-0.879506
H117	H	1.145126	-0.191369	-0.818889
C118	C	0.901298	-0.989457	-0.470509
C119	C	0.939025	-0.960752	-0.517183
C120	C	0.892351	-0.933320	-0.560170
H121	H	0.871886	-0.966322	-0.442441
H122	H	0.873464	-1.013460	-0.496088
H123	H	0.966847	-0.936751	-0.491607
H124	H	0.968435	-0.983874	-0.545267
H125	H	0.864517	-0.957323	-0.585749
H126	H	0.862942	-0.910188	-0.532097
H127	H	0.917942	-0.913844	-0.591848
C128	C	0.252208	-0.376882	-0.485352
C129	C	0.208311	-0.347297	-0.528583
C130	C	0.169736	-0.380832	-0.571886
H131	H	0.224701	-0.397885	-0.457345
H132	H	0.283329	-0.398692	-0.513419
H133	H	0.177193	-0.325495	-0.500520
H134	H	0.235799	-0.326295	-0.556605
H135	H	0.200857	-0.402642	-0.599952
H136	H	0.142234	-0.401833	-0.543873
H137	H	0.139952	-0.360763	-0.601228
H138	H	1.130274	-0.746261	-0.260252
C139	C	0.887640	-0.374754	-0.787365
C140	C	0.894194	-0.370104	-0.859733
C141	C	0.847842	-0.403147	-0.894554
H142	H	0.841023	-0.365209	-0.773437
H143	H	0.898380	-0.409873	-0.775830
H144	H	0.883449	-0.334993	-0.871263
H145	H	0.940801	-0.379654	-0.873681
H146	H	0.858581	-0.438266	-0.883020
H147	H	0.801227	-0.393599	-0.880622
H148	H	0.852286	-0.400000	-0.943660
H149	H	0.508906	-0.341078	-0.439168
C150	C	0.405003	-0.382083	-0.491639
C151	C	0.448680	-0.415744	-0.453648
C152	C	0.483422	-0.451867	-0.499837
H153	H	0.432343	-0.364048	-0.523461
H154	H	0.371598	-0.401795	-0.516913
H155	H	0.482081	-0.396034	-0.428387
H156	H	0.421357	-0.433791	-0.421829
H157	H	0.450017	-0.471580	-0.525110
H158	H	0.510758	-0.433828	-0.531657
H159	H	0.513056	-0.474714	-0.474067
H160	H	0.913927	-1.095973	-0.458787
H161	H	0.867017	-0.745622	-0.501639
H162	H	0.913696	-0.593627	-0.458716
H163	H	0.402492	-0.245810	-0.316795
H164	H	0.269669	-0.241408	-0.311157
H165	H	1.068644	-0.245869	-0.652007
C166	C	0.592845	-0.209534	-0.270156
C167	C	0.520479	-0.214616	-0.276661
C168	C	0.485648	-0.178616	-0.230373
H169	H	0.604353	-0.175102	-0.280968
H170	H	0.606790	-0.216104	-0.223525
H171	H	0.506540	-0.208042	-0.323282
H172	H	0.508950	-0.249039	-0.265843
H173	H	0.499593	-0.185186	-0.183741
H174	H	0.497162	-0.144187	-0.241189
H175	H	0.436545	-0.182062	-0.234776
C176	C	0.854335	-0.851963	-0.513375
C177	C	0.813379	-0.816259	-0.550933
C178	C	0.766581	-0.843338	-0.593923
H179	H	0.824888	-0.871474	-0.485317
H180	H	0.879823	-0.875035	-0.545130
H181	H	0.787893	-0.793196	-0.519183
H182	H	0.842807	-0.796746	-0.579005
H183	H	0.792069	-0.866410	-0.625678
H184	H	0.737139	-0.862849	-0.565860
H185	H	0.738792	-0.819117	-0.619416
H186	H	0.905819	-0.361775	-0.644995
C187	C	0.901025	-0.487025	-0.470309
C188	C	0.911030	-0.433387	-0.461130
C189	C	0.864335	-0.405862	-0.503991
H190	H	0.854338	-0.494073	-0.458050
H191	H	0.909260	-0.497685	-0.517875
H192	H	0.902790	-0.422731	-0.413574
H193	H	0.957708	-0.426323	-0.473393
H194	H	0.872570	-0.416522	-0.551557
H195	H	0.817651	-0.412914	-0.491729
H196	H	0.871121	-0.369467	-0.497774
H197	H	0.489010	-0.250426	-0.322720
C198	C	1.143052	-0.852657	-0.248553
C199	C	1.183977	-0.817148	-0.210986
C200	C	1.230801	-0.844447	-0.168005
H201	H	1.172516	-0.875756	-0.276618
H202	H	1.117584	-0.872159	-0.216803
H203	H	1.209443	-0.797654	-0.242732
H204	H	1.154531	-0.794049	-0.182908
H205	H	1.205332	-0.863949	-0.136255
H206	H	1.260260	-0.867544	-0.196076
H207	H	1.258569	-0.820358	-0.142506
C208	C	1.096141	-0.487681	-0.291422
C209	C	1.137133	-0.523380	-0.253892
C210	C	1.183990	-0.496298	-0.210974
H211	H	1.070719	-0.464596	-0.259645
H212	H	1.125554	-0.468183	-0.319550
H213	H	1.107724	-0.542869	-0.225767
H214	H	1.162570	-0.546466	-0.285652
H215	H	1.213402	-0.476801	-0.239102
H216	H	1.158562	-0.473215	-0.179201
H217	H	1.211812	-0.520517	-0.185510
H218	H	1.057043	-0.254095	-0.871348
H219	H	1.083432	-0.594021	-0.303108
C220	C	1.096391	-0.990038	-0.291508
C221	C	1.137375	-1.025740	-0.253974
C222	C	1.184235	-0.998661	-0.211056
H223	H	1.070971	-0.966950	-0.259733
H224	H	1.125808	-0.970544	-0.319635
H225	H	1.107962	-1.045225	-0.225849
H226	H	1.162810	-1.048829	-0.285731
H227	H	1.213652	-0.979167	-0.239183
H228	H	1.158809	-0.975574	-0.179285
H229	H	1.212052	-1.022880	-0.185589
C230	C	1.096390	-1.103931	-0.291689
C231	C	1.086434	-1.157572	-0.300922
C232	C	1.133269	-1.185106	-0.258212
H233	H	1.088271	-1.093331	-0.244093
H234	H	1.143037	-1.096828	-0.304060
H235	H	1.039798	-1.164672	-0.288546
H236	H	1.094558	-1.168188	-0.348509
H237	H	1.179916	-1.178003	-0.270584
H238	H	1.125146	-1.174502	-0.210619
H239	H	1.126525	-1.221505	-0.264476
H240	H	0.940307	-0.337219	-0.891213
H241	H	1.062987	-0.249882	-0.784827
