data_functionalizedCrystal
_audit_creation_method	'MofGen! by Chris Wilmer'
_symmetry_space_group_name_H-M	'P1'
_symmetry_Int_Tables_number	1
_symmetry_cell_setting	triclinic
loop_
_symmetry_equiv_pos_as_xyz
  x,y,z
_cell_length_a	12.759401
_cell_length_b	14.908520
_cell_length_c	12.759393
_cell_angle_alpha	93.262204
_cell_angle_beta	89.979927
_cell_angle_gamma	93.320638
loop_
_atom_site_label
_atom_site_type_symbol
_atom_site_fract_x
_atom_site_fract_y
_atom_site_fract_z
Zn1	Zn	1.582055	-0.359103	-0.618157
Zn2	Zn	1.571789	-0.509990	-0.452604
Zn3	Zn	1.406357	-0.359151	-0.442491
Zn4	Zn	1.396187	-0.509920	-0.628232
O5	O	1.489097	-0.434541	-0.535371
O6	O	1.727714	-0.379129	-0.596212
O7	O	1.549804	-0.490030	-0.304244
O8	O	1.438217	-0.232900	-0.457345
O9	O	1.720171	-0.489985	-0.474580
O10	O	1.567301	-0.232865	-0.586406
O11	O	1.428262	-0.379209	-0.296815
O12	O	1.257988	-0.379141	-0.467115
O13	O	1.420883	-0.489864	-0.773913
O14	O	1.250516	-0.489910	-0.603578
O15	O	1.557439	-0.379060	-0.766511
O16	O	1.539943	-0.636225	-0.484350
O17	O	1.410928	-0.636173	-0.613383
C18	C	1.216131	-0.434523	-0.535343
C19	C	1.099353	-0.434538	-0.535357
C20	C	1.473246	-0.668933	-0.551080
C21	C	1.466562	-0.769207	-0.557835
C22	C	0.930835	-0.492188	-0.471965
C23	C	1.040560	-0.492172	-0.471934
C24	C	1.048416	-0.376910	-0.598807
C25	C	0.938694	-0.376923	-0.598832
C26	C	0.926300	-0.558736	-0.398719
C27	C	1.036025	-0.558720	-0.398688
C28	C	1.588481	-0.957624	-0.436275
C29	C	1.582203	-1.051841	-0.442619
C30	C	1.447735	-1.051857	-0.576871
C31	C	1.454013	-0.957641	-0.570528
C32	C	1.524387	-0.910528	-0.500226
C33	C	1.530658	-0.816310	-0.493877
C34	C	1.396196	-0.816328	-0.628134
C35	C	1.389918	-0.910544	-0.634478
C36	C	1.763129	-0.434559	-0.535400
C37	C	1.879905	-0.434567	-0.535412
C38	C	1.489172	-0.434449	-0.809398
C39	C	1.489203	-0.434410	-0.926173
C40	C	1.505038	-0.199234	-0.519624
C41	C	1.511832	-0.098960	-0.512914
C42	C	1.425945	-0.376695	-0.977171
C43	C	1.425979	-0.376668	-1.086894
C44	C	1.552537	-0.492074	-1.094609
C45	C	1.552497	-0.492105	-0.984889
C46	C	1.352881	-0.310063	-0.972718
C47	C	1.352915	-0.310036	-1.082440
C48	C	1.489088	-0.434567	-0.262405
C49	C	1.489277	-0.434352	-0.145615
H50	H	0.897232	-0.329995	-0.650489
C51	C	1.241230	-0.335346	-0.934176
N52	N	1.157136	-0.354391	-0.905147
H53	H	1.344003	-0.777971	-0.680205
H54	H	1.061100	-0.628608	-0.425030
H55	H	1.603992	-0.539115	-0.943371
H56	H	1.096295	-0.329977	-0.650440
H57	H	0.897746	-0.539948	-0.316131
C58	C	1.246213	-0.343813	-1.130675
N59	N	1.165847	-0.369254	-1.167007
C60	C	1.652708	-1.103644	-0.372264
N61	N	1.705815	-1.142662	-0.319269
H62	H	1.604070	-0.539046	-1.142429
H63	H	1.645775	-0.919265	-0.379025
H64	H	0.887802	-0.625139	-0.432197
C65	C	1.370328	-1.103697	-0.654195
N66	N	1.312022	-1.142744	-0.712433
H67	H	1.386515	-0.243706	-0.934250
H68	H	1.379439	-0.240155	-1.107549
C69	C	1.608070	-0.764487	-0.416545
N70	N	1.666382	-0.725457	-0.358298
C71	C	1.312505	-0.962379	-0.711800
N72	N	1.254191	-1.001420	-0.770036
H73	H	1.071705	-0.533615	-0.319746
