data_functionalizedCrystal
_audit_creation_method	'MofGen! by Chris Wilmer'
_symmetry_space_group_name_H-M	'P1'
_symmetry_Int_Tables_number	1
_symmetry_cell_setting	triclinic
loop_
_symmetry_equiv_pos_as_xyz
  x,y,z
_cell_length_a	23.532407
_cell_length_b	23.532407
_cell_length_c	22.010155
_cell_angle_alpha	89.983144
_cell_angle_beta	90.012768
_cell_angle_gamma	82.848674
loop_
_atom_site_label
_atom_site_type_symbol
_atom_site_fract_x
_atom_site_fract_y
_atom_site_fract_z
O1	O	-0.755249	-0.069141	0.050457
O2	O	-0.505249	0.180859	0.300457
O3	O	-0.255249	0.430859	0.550457
O4	O	-0.005249	0.680859	0.800457
O5	O	-0.589386	-0.079144	0.050476
O6	O	-0.339386	0.170856	0.300476
O7	O	-0.089386	0.420856	0.550476
O8	O	0.160614	0.670856	0.800476
O9	O	-0.677319	0.008789	0.050453
O10	O	-0.427319	0.258789	0.300453
O11	O	-0.177319	0.508789	0.550453
O12	O	0.072681	0.758789	0.800453
O13	O	-0.667316	-0.157074	0.050480
O14	O	-0.417316	0.092926	0.300480
O15	O	-0.167316	0.342926	0.550480
O16	O	0.082684	0.592926	0.800480
O17	O	-0.677333	0.008804	-0.050597
O18	O	-0.427333	0.258804	0.199403
O19	O	-0.177333	0.508804	0.449403
O20	O	0.072667	0.758804	0.699403
O21	O	-0.589399	-0.079129	-0.050574
O22	O	-0.339399	0.170871	0.199426
O23	O	-0.089399	0.420871	0.449426
O24	O	0.160601	0.670871	0.699426
O25	O	-0.755263	-0.069126	-0.050593
O26	O	-0.505263	0.180874	0.199407
O27	O	-0.255263	0.430874	0.449407
O28	O	-0.005263	0.680874	0.699407
Cu29	Cu	-0.672332	-0.074126	-0.059810
Cu30	Cu	-0.422332	0.175874	0.190190
Cu31	Cu	-0.172332	0.425874	0.440190
Cu32	Cu	0.077668	0.675874	0.690190
Cu33	Cu	-0.672316	-0.074144	0.059693
Cu34	Cu	-0.422316	0.175856	0.309693
Cu35	Cu	-0.172316	0.425856	0.559693
Cu36	Cu	0.077684	0.675856	0.809693
O37	O	-0.667329	-0.157059	-0.050570
O38	O	-0.417329	0.092941	0.199430
O39	O	-0.167329	0.342941	0.449430
O40	O	0.082671	0.592941	0.699430
C41	C	-0.677071	0.030013	-0.000074
C42	C	-0.427071	0.280013	0.249926
C43	C	-0.177071	0.530013	0.499926
C44	C	0.072929	0.780013	0.749926
C45	C	-0.676305	0.093230	-0.000081
C46	C	-0.426305	0.343230	0.249919
C47	C	-0.176305	0.593230	0.499919
C48	C	0.073695	0.843230	0.749919
C49	C	-0.776472	-0.069388	-0.000069
C50	C	-0.526472	0.180612	0.249931
C51	C	-0.276472	0.430612	0.499931
C52	C	-0.026472	0.680612	0.749931
C53	C	-0.839689	-0.070154	-0.000072
C54	C	-0.589689	0.179846	0.249928
C55	C	-0.339689	0.429846	0.499928
C56	C	-0.089689	0.679846	0.749928
C57	C	-0.568176	-0.078882	-0.000047
C58	C	-0.318176	0.171118	0.249953
C59	C	-0.068176	0.421118	0.499953
C60	C	0.181824	0.671118	0.749953
C61	C	-0.504959	-0.078116	-0.000040
C62	C	-0.254959	0.171884	0.249960
C63	C	-0.004959	0.421884	0.499960
C64	C	0.245041	0.671884	0.749960
C65	C	-0.723539	0.492333	-0.000063
C66	C	-0.473539	0.742333	0.249937
C67	C	-0.223539	0.992333	0.499937
C68	C	0.026461	1.242333	0.749937
C69	C	-0.722827	0.551733	-0.000059
C70	C	-0.472827	0.801733	0.249941
C71	C	-0.222827	1.051733	0.499941
C72	C	0.027173	1.301733	0.749941
O73	O	-0.766613	0.588478	-0.000043
O74	O	-0.516613	0.838478	0.249957
O75	O	-0.266613	1.088478	0.499957
O76	O	-0.016613	1.338478	0.749957
N77	N	-0.670551	0.574359	-0.000054
N78	N	-0.420551	0.824359	0.249946
N79	N	-0.170551	1.074359	0.499946
N80	N	0.079449	1.324359	0.749946
C81	C	-0.618983	0.537582	-0.000047
C82	C	-0.368983	0.787582	0.249953
C83	C	-0.118983	1.037582	0.499953
C84	C	0.131017	1.287582	0.749953
O85	O	-0.574452	0.562281	-0.000042
O86	O	-0.324452	0.812281	0.249958
O87	O	-0.074452	1.062281	0.499958
O88	O	0.175548	1.312281	0.749958
C89	C	-0.619695	0.478183	-0.000045
C90	C	-0.369695	0.728183	0.249955
C91	C	-0.119695	0.978183	0.499955
C92	C	0.130305	1.228183	0.749955
C93	C	-0.671974	0.455560	-0.000057
C94	C	-0.421974	0.705560	0.249943
C95	C	-0.171974	0.955560	0.499943
C96	C	0.078026	1.205560	0.749943
C97	C	-0.775814	0.469710	-0.000073
C98	C	-0.525814	0.719710	0.249927
C99	C	-0.275814	0.969710	0.499927
C100	C	-0.025814	1.219710	0.749927
C101	C	-0.776525	0.410313	-0.000077
C102	C	-0.526525	0.660313	0.249923
C103	C	-0.276525	0.910313	0.499923
C104	C	-0.026525	1.160313	0.749923
C105	C	-0.724961	0.373540	-0.000071
C106	C	-0.474961	0.623540	0.249929
C107	C	-0.224961	0.873540	0.499929
C108	C	0.025039	1.123540	0.749929
C109	C	-0.672686	0.396164	-0.000061
C110	C	-0.422686	0.646164	0.249939
C111	C	-0.172686	0.896164	0.499939
C112	C	0.077314	1.146164	0.749939
C113	C	-0.568127	0.441406	-0.000033
C114	C	-0.318127	0.691406	0.249967
C115	C	-0.068127	0.941406	0.499967
C116	C	0.181873	1.191406	0.749967
C117	C	-0.568844	0.382004	-0.000032
C118	C	-0.318844	0.632004	0.249968
C119	C	-0.068844	0.882004	0.499968
C120	C	0.181156	1.132004	0.749968
C121	C	-0.621123	0.359381	-0.000043
C122	C	-0.371123	0.609381	0.249957
C123	C	-0.121123	0.859381	0.499957
C124	C	0.128877	1.109381	0.749957
C125	C	-0.621832	0.299995	-0.000059
C126	C	-0.371832	0.549995	0.249941
C127	C	-0.121832	0.799995	0.499941
C128	C	0.128168	1.049995	0.749941
N129	N	-0.674109	0.277369	-0.000064
N130	N	-0.424109	0.527369	0.249936
N131	N	-0.174109	0.777369	0.499936
N132	N	0.075891	1.027369	0.749936
C133	C	-0.725673	0.314141	-0.000070
C134	C	-0.475673	0.564141	0.249930
C135	C	-0.225673	0.814141	0.499930
C136	C	0.024327	1.064141	0.749930
C137	C	-0.617491	0.662324	-0.000048
C138	C	-0.367491	0.912324	0.249952
C139	C	-0.117491	1.162324	0.499952
C140	C	0.132509	1.412324	0.749952
C141	C	-0.616779	0.721722	-0.000053
C142	C	-0.366779	0.971722	0.249947
C143	C	-0.116779	1.221722	0.499947
C144	C	0.133221	1.471722	0.749947
C145	C	-0.720623	0.735869	-0.000065
C146	C	-0.470623	0.985869	0.249935
C147	C	-0.220623	1.235869	0.499935
C148	C	0.029377	1.485869	0.749935
C149	C	-0.721335	0.676470	-0.000064
C150	C	-0.471335	0.926470	0.249936
C151	C	-0.221335	1.176470	0.499936
C152	C	0.028665	1.426470	0.749936
C153	C	-0.669767	0.639698	-0.000053
C154	C	-0.419767	0.889698	0.249947
C155	C	-0.169767	1.139698	0.499947
C156	C	0.080233	1.389698	0.749947
C157	C	-0.727163	0.189405	-0.000080
C158	C	-0.477163	0.439405	0.249920
C159	C	-0.227163	0.689405	0.499920
C160	C	0.022837	0.939405	0.749920
C161	C	-0.727869	0.130003	-0.000087
C162	C	-0.477869	0.380003	0.249913
C163	C	-0.227869	0.630003	0.499913
C164	C	0.022131	0.880003	0.749913
C165	C	-0.624025	0.115860	-0.000072
C166	C	-0.374025	0.365860	0.249928
C167	C	-0.124025	0.615860	0.499928
C168	C	0.125975	0.865860	0.749928
C169	C	-0.623318	0.175257	-0.000068
C170	C	-0.373318	0.425257	0.249932
C171	C	-0.123318	0.675257	0.499932
C172	C	0.126682	0.925257	0.749932
C173	C	-0.674891	0.212029	-0.000070
C174	C	-0.424891	0.462029	0.249930
C175	C	-0.174891	0.712029	0.499930
C176	C	0.075109	0.962029	0.749930
O177	O	-0.578070	0.263215	-0.000073
O178	O	-0.328070	0.513215	0.249927
O179	O	-0.078070	0.763215	0.499927
O180	O	0.171930	1.013215	0.749927
O181	O	-0.770196	0.289434	-0.000067
O182	O	-0.520196	0.539434	0.249933
O183	O	-0.270196	0.789434	0.499933
O184	O	-0.020196	1.039434	0.749933
C185	C	-0.105856	-0.125350	-0.000060
C186	C	0.144144	0.124650	0.249940
C187	C	0.394144	0.374650	0.499940
C188	C	0.644144	0.624650	0.749940
C189	C	-0.046456	-0.124638	-0.000064
C190	C	0.203544	0.125362	0.249936
C191	C	0.453544	0.375362	0.499936
C192	C	0.703544	0.625362	0.749936
O193	O	-0.009711	-0.168424	-0.000079
O194	O	0.240289	0.081576	0.249921
O195	O	0.490289	0.331576	0.499921
O196	O	0.740289	0.581576	0.749921
N197	N	-0.023830	-0.072362	-0.000071
N198	N	0.226170	0.177638	0.249929
N199	N	0.476170	0.427638	0.499929
N200	N	0.726170	0.677638	0.749929
C201	C	-0.060607	-0.020794	-0.000081
C202	C	0.189393	0.229206	0.249919
C203	C	0.439393	0.479206	0.499919
C204	C	0.689393	0.729206	0.749919
O205	O	-0.035908	0.023737	-0.000089
O206	O	0.214092	0.273737	0.249911
O207	O	0.464092	0.523737	0.499911
O208	O	0.714092	0.773737	0.749911
C209	C	-0.120006	-0.021506	-0.000082
C210	C	0.129994	0.228494	0.249918
C211	C	0.379994	0.478494	0.499918
C212	C	0.629994	0.728494	0.749918
C213	C	-0.142629	-0.073785	-0.000068
C214	C	0.107371	0.176215	0.249932
C215	C	0.357371	0.426215	0.499932
C216	C	0.607371	0.676215	0.749932
C217	C	-0.128479	-0.177625	-0.000047
C218	C	0.121521	0.072375	0.249953
C219	C	0.371521	0.322375	0.499953
C220	C	0.621521	0.572375	0.749953
C221	C	-0.187876	-0.178336	-0.000042
C222	C	0.062124	0.071664	0.249958
C223	C	0.312124	0.321664	0.499958
C224	C	0.562124	0.571664	0.749958
C225	C	-0.224649	-0.126772	-0.000050
C226	C	0.025351	0.123228	0.249950
C227	C	0.275351	0.373228	0.499950
C228	C	0.525351	0.623228	0.749950
C229	C	-0.202025	-0.074496	-0.000063
C230	C	0.047975	0.175504	0.249937
C231	C	0.297975	0.425504	0.499937
C232	C	0.547975	0.675504	0.749937
C233	C	-0.156783	0.030062	-0.000096
C234	C	0.093217	0.280062	0.249904
C235	C	0.343217	0.530062	0.499904
C236	C	0.593217	0.780062	0.749904
C237	C	-0.216185	0.029345	-0.000097
C238	C	0.033815	0.279345	0.249903
C239	C	0.283815	0.529345	0.499903
C240	C	0.533815	0.779345	0.749903
C241	C	-0.238808	-0.022934	-0.000083
C242	C	0.011192	0.227066	0.249917
C243	C	0.261192	0.477066	0.499917
C244	C	0.511192	0.727066	0.749917
C245	C	-0.298194	-0.023643	-0.000066
C246	C	-0.048194	0.226357	0.249934
C247	C	0.201806	0.476357	0.499934
C248	C	0.451806	0.726357	0.749934
N249	N	-0.320820	-0.075920	-0.000059
N250	N	-0.070820	0.174080	0.249941
N251	N	0.179180	0.424080	0.499941
N252	N	0.429180	0.674080	0.749941
C253	C	-0.284048	-0.127484	-0.000050
C254	C	-0.034048	0.122516	0.249950
C255	C	0.215952	0.372516	0.499950
C256	C	0.465952	0.622516	0.749950
C257	C	0.064135	-0.019302	-0.000081
C258	C	0.314135	0.230698	0.249919
C259	C	0.564135	0.480698	0.499919
C260	C	0.814135	0.730698	0.749919
C261	C	0.123533	-0.018589	-0.000077
C262	C	0.373533	0.231411	0.249923
C263	C	0.623533	0.481411	0.499923
C264	C	0.873533	0.731411	0.749923
C265	C	0.137680	-0.122434	-0.000060
C266	C	0.387680	0.127566	0.249940
C267	C	0.637680	0.377566	0.499940
C268	C	0.887680	0.627566	0.749940
C269	C	0.078281	-0.123146	-0.000060
C270	C	0.328281	0.126854	0.249940
C271	C	0.578281	0.376854	0.499940
C272	C	0.828281	0.626854	0.749940
C273	C	0.041509	-0.071578	-0.000074
C274	C	0.291509	0.178422	0.249926
C275	C	0.541509	0.428422	0.499926
C276	C	0.791509	0.678422	0.749926
C277	C	-0.408784	-0.128974	-0.000039
C278	C	-0.158784	0.121026	0.249961
C279	C	0.091216	0.371026	0.499961
C280	C	0.341216	0.621026	0.749961
C281	C	-0.468186	-0.129680	-0.000032
C282	C	-0.218186	0.120320	0.249968
C283	C	0.031814	0.370320	0.499968
C284	C	0.281814	0.620320	0.749968
C285	C	-0.482329	-0.025836	-0.000052
C286	C	-0.232329	0.224164	0.249948
C287	C	0.017671	0.474164	0.499948
C288	C	0.267671	0.724164	0.749948
C289	C	-0.422932	-0.025129	-0.000056
C290	C	-0.172932	0.224871	0.249944
C291	C	0.077068	0.474871	0.499944
C292	C	0.327068	0.724871	0.749944
C293	C	-0.386160	-0.076702	-0.000052
C294	C	-0.136160	0.173298	0.249948
C295	C	0.113840	0.423298	0.499948
C296	C	0.363840	0.673298	0.749948
O297	O	-0.334974	0.020119	-0.000054
O298	O	-0.084974	0.270119	0.249946
O299	O	0.165026	0.520119	0.499946
O300	O	0.415026	0.770119	0.749946
O301	O	-0.308755	-0.172007	-0.000051
O302	O	-0.058755	0.077993	0.249949
O303	O	0.191245	0.327993	0.499949
O304	O	0.441245	0.577993	0.749949
C305	C	-0.667577	0.821717	-0.000048
C306	C	-0.417577	1.071717	0.249952
C307	C	-0.167577	1.321717	0.499952
C308	C	0.082423	1.571717	0.749952
C309	C	-0.668343	0.758500	-0.000056
C310	C	-0.418343	1.008500	0.249944
C311	C	-0.168343	1.258500	0.499944
C312	C	0.081657	1.508500	0.749944
N313	N	-0.672305	-0.074153	0.143746
N314	N	-0.422305	0.175847	0.393746
N315	N	-0.172305	0.425847	0.643746
N316	N	0.077695	0.675847	0.893746
N317	N	-0.672348	-0.074113	-0.143863
N318	N	-0.422348	0.175887	0.106137
N319	N	-0.172348	0.425887	0.356137
N320	N	0.077652	0.675887	0.606137
C321	C	-0.711350	-0.035273	0.563515
C322	C	-0.461350	0.214727	0.813515
C323	C	-0.211350	0.464727	1.063515
C324	C	0.038650	0.714727	1.313515
C325	C	-0.711354	-0.035271	0.627123
C326	C	-0.461354	0.214729	0.877123
C327	C	-0.211354	0.464729	1.127123
C328	C	0.038646	0.714729	1.377123
O329	O	-0.744543	-0.002237	0.660005
O330	O	-0.494543	0.247763	0.910005
O331	O	-0.244543	0.497763	1.160005
O332	O	0.005457	0.747763	1.410005
N333	N	-0.672344	-0.074126	0.658953
N334	N	-0.422344	0.175874	0.908953
N335	N	-0.172344	0.425874	1.158953
N336	N	0.077656	0.675874	1.408953
C337	C	-0.633331	-0.112991	0.627172
C338	C	-0.383331	0.137009	0.877172
C339	C	-0.133331	0.387009	1.127172
C340	C	0.116669	0.637009	1.377172
O341	O	-0.600151	-0.146040	0.660087
O342	O	-0.350151	0.103960	0.910087
O343	O	-0.100151	0.353960	1.160087
O344	O	0.149849	0.603960	1.410087
C345	C	-0.633331	-0.112995	0.563566
C346	C	-0.383331	0.137005	0.813566
C347	C	-0.133331	0.387005	1.063566
C348	C	0.116669	0.637005	1.313566
C349	C	-0.672339	-0.074134	0.531739
C350	C	-0.422339	0.175866	0.781739
C351	C	-0.172339	0.425866	1.031739
C352	C	0.077661	0.675866	1.281739
C353	C	-0.750356	0.003585	0.531688
C354	C	-0.500356	0.253585	0.781688
C355	C	-0.250356	0.503585	1.031688
C356	C	-0.000356	0.753585	1.281688
C357	C	-0.750351	0.003583	0.468085
C358	C	-0.500351	0.253583	0.718085
C359	C	-0.250351	0.503583	0.968085
C360	C	-0.000351	0.753583	1.218085
C361	C	-0.711340	-0.035277	0.436308
C362	C	-0.461340	0.214723	0.686308
C363	C	-0.211340	0.464723	0.936308
C364	C	0.038660	0.714723	1.186308
C365	C	-0.672334	-0.074136	0.468136
C366	C	-0.422334	0.175864	0.718136
C367	C	-0.172334	0.425864	0.968136
C368	C	0.077666	0.675864	1.218136
C369	C	-0.594321	-0.151862	0.531787
C370	C	-0.344321	0.098138	0.781787
C371	C	-0.094321	0.348138	1.031787
C372	C	0.155679	0.598138	1.281787
C373	C	-0.594324	-0.151864	0.468176
C374	C	-0.344324	0.098136	0.718176
C375	C	-0.094324	0.348136	0.968176
C376	C	0.155676	0.598136	1.218176
C377	C	-0.633332	-0.113002	0.436349
C378	C	-0.383332	0.136998	0.686349
C379	C	-0.133332	0.386998	0.936349
C380	C	0.116668	0.636998	1.186349
C381	C	-0.633319	-0.112998	0.372756
C382	C	-0.383319	0.137002	0.622756
C383	C	-0.133319	0.387002	0.872756
C384	C	0.116681	0.637002	1.122756
N385	N	-0.672328	-0.074142	0.340926
N386	N	-0.422328	0.175858	0.590926
N387	N	-0.172328	0.425858	0.840926
N388	N	0.077672	0.675858	1.090926
C389	C	-0.711339	-0.035282	0.372702
C390	C	-0.461339	0.214718	0.622702
C391	C	-0.211339	0.464718	0.872702
C392	C	0.038661	0.714718	1.122702
C393	C	-0.633337	-0.112978	0.760750
C394	C	-0.383337	0.137022	1.010750
C395	C	-0.133337	0.387022	1.260750
C396	C	0.116663	0.637022	1.510750
C397	C	-0.633335	-0.112971	0.824355
C398	C	-0.383335	0.137029	1.074355
C399	C	-0.133335	0.387029	1.324355
C400	C	0.116665	0.637029	1.574355
C401	C	-0.711358	-0.035252	0.824301
C402	C	-0.461358	0.214748	1.074301
C403	C	-0.211358	0.464748	1.324301
C404	C	0.038642	0.714748	1.574301
C405	C	-0.711357	-0.035257	0.760695
C406	C	-0.461357	0.214743	1.010695
C407	C	-0.211357	0.464743	1.260695
C408	C	0.038643	0.714743	1.510695
C409	C	-0.672347	-0.074123	0.728920
C410	C	-0.422347	0.175877	0.978920
C411	C	-0.172347	0.425877	1.228920
C412	C	0.077653	0.675877	1.478920
C413	C	-0.711326	-0.035289	0.239131
C414	C	-0.461326	0.214711	0.489131
C415	C	-0.211326	0.464711	0.739131
C416	C	0.038674	0.714711	0.989131
C417	C	-0.711316	-0.035293	0.175522
C418	C	-0.461316	0.214707	0.425522
C419	C	-0.211316	0.464707	0.675522
C420	C	0.038684	0.714707	0.925522
C421	C	-0.633295	-0.113013	0.175582
C422	C	-0.383295	0.136987	0.425582
C423	C	-0.133295	0.386987	0.675582
C424	C	0.116705	0.636987	0.925582
C425	C	-0.633302	-0.113008	0.239185
C426	C	-0.383302	0.136992	0.489185
C427	C	-0.133302	0.386992	0.739185
C428	C	0.116698	0.636992	0.989185
C429	C	-0.672323	-0.074143	0.270958
C430	C	-0.422323	0.175857	0.520958
C431	C	-0.172323	0.425857	0.770958
C432	C	0.077677	0.675857	1.020958
O433	O	-0.600148	-0.146017	0.339833
O434	O	-0.350148	0.103983	0.589833
O435	O	-0.100148	0.353983	0.839833
O436	O	0.149852	0.603983	1.089833
O437	O	-0.744519	-0.002243	0.339779
O438	O	-0.494519	0.247757	0.589779
O439	O	-0.244519	0.497757	0.839779
O440	O	0.005481	0.747757	1.089779
H441	H	-0.770444	0.111587	-0.000097
H442	H	-0.520444	0.361587	0.249903
H443	H	-0.270444	0.611587	0.499903
H444	H	-0.020444	0.861587	0.749903
Br445	Br	-0.554048	0.065943	-0.000064
Br446	Br	-0.304048	0.315943	0.249936
Br447	Br	-0.054048	0.565943	0.499936
Br448	Br	0.195952	0.815943	0.749936
H449	H	0.167632	-0.164421	-0.000056
H450	H	0.417632	0.085579	0.249944
H451	H	0.667632	0.335579	0.499944
H452	H	0.917632	0.585579	0.749944
Br453	Br	-0.845804	0.519606	-0.000081
Br454	Br	-0.595804	0.769606	0.249919
Br455	Br	-0.345804	1.019606	0.499919
Br456	Br	-0.095804	1.269606	0.749919
H457	H	-0.404512	0.017441	-0.000058
H458	H	-0.154512	0.267441	0.249942
H459	H	0.095488	0.517441	0.499942
H460	H	0.345488	0.767441	0.749942
Br461	Br	-0.792289	0.645775	-0.000080
Br462	Br	-0.542289	0.895775	0.249920
Br463	Br	-0.292289	1.145775	0.499920
Br464	Br	-0.042289	1.395775	0.749920
H465	H	-0.246123	0.071339	-0.000108
H466	H	0.003877	0.321339	0.249892
H467	H	0.253877	0.571339	0.499892
H468	H	0.503877	0.821339	0.749892
Br469	Br	-0.218568	-0.249291	-0.000026
Br470	Br	0.031432	0.000709	0.249974
Br471	Br	0.281432	0.250709	0.499974
Br472	Br	0.531432	0.500709	0.749974
H473	H	-0.762610	0.765821	-0.000068
H474	H	-0.512610	1.015821	0.249932
H475	H	-0.262610	1.265821	0.499932
H476	H	-0.012610	1.515821	0.749932
Br477	Br	-0.764257	0.017454	0.132331
Br478	Br	-0.514257	0.267454	0.382331
Br479	Br	-0.264257	0.517454	0.632331
Br480	Br	-0.014257	0.767454	0.882331
H481	H	-0.574207	0.740136	-0.000055
H482	H	-0.324207	0.990136	0.249945
H483	H	-0.074207	1.240136	0.499945
H484	H	0.175793	1.490136	0.749945
Br485	Br	-0.078583	-0.247615	-0.000036
Br486	Br	0.171417	0.002385	0.249964
Br487	Br	0.421417	0.252385	0.499964
Br488	Br	0.671417	0.502385	0.749964
H489	H	-0.575496	0.632387	-0.000044
H490	H	-0.325496	0.882387	0.249956
H491	H	-0.075496	1.132387	0.499956
H492	H	0.174504	1.382387	0.749956
H493	H	-0.782116	0.035226	0.442175
H494	H	-0.532116	0.285226	0.692175
H495	H	-0.282116	0.535226	0.942175
H496	H	-0.032116	0.785226	1.192175
H497	H	-0.743122	-0.003613	0.734785
H498	H	-0.493122	0.246387	0.984785
H499	H	-0.243122	0.496387	1.234785
H500	H	0.006878	0.746387	1.484785
H501	H	-0.769159	0.219337	-0.000079
H502	H	-0.519159	0.469337	0.249921
H503	H	-0.269159	0.719337	0.499921
H504	H	-0.019159	0.969337	0.749921
H505	H	-0.601531	-0.144651	0.149700
H506	H	-0.351531	0.105349	0.399700
H507	H	-0.101531	0.355349	0.649700
H508	H	0.148469	0.605349	0.899700
H509	H	-0.378851	-0.170970	-0.000038
H510	H	-0.128851	0.079030	0.249962
H511	H	0.121149	0.329030	0.499962
H512	H	0.371149	0.579030	0.749962
H513	H	0.034197	0.022693	-0.000087
H514	H	0.284197	0.272693	0.249913
H515	H	0.534197	0.522693	0.499913
H516	H	0.784197	0.772693	0.749913
H517	H	-0.601532	-0.144647	0.265099
H518	H	-0.351532	0.105353	0.515099
H519	H	-0.101532	0.355353	0.765099
H520	H	0.148468	0.605353	1.015099
Br521	Br	-0.580386	-0.165726	0.717633
Br522	Br	-0.330386	0.084274	0.967633
Br523	Br	-0.080386	0.334274	1.217633
Br524	Br	0.169614	0.584274	1.467633
Br525	Br	0.047586	-0.194099	-0.000042
Br526	Br	0.297586	0.055901	0.249958
Br527	Br	0.547586	0.305901	0.499958
Br528	Br	0.797586	0.555901	0.749958
H529	H	-0.743100	-0.003642	0.264993
H530	H	-0.493100	0.246358	0.514993
H531	H	-0.243100	0.496358	0.764993
H532	H	0.006900	0.746358	1.014993
H533	H	-0.819097	0.391900	-0.000084
H534	H	-0.569097	0.641900	0.249916
H535	H	-0.319097	0.891900	0.499916
H536	H	-0.069097	1.141900	0.749916
Br537	Br	-0.497171	0.472092	-0.000016
Br538	Br	-0.247171	0.722092	0.249984
Br539	Br	0.002829	0.972092	0.499984
Br540	Br	0.252829	1.222092	0.749984
H541	H	-0.512280	0.016146	-0.000056
H542	H	-0.262280	0.266146	0.249944
H543	H	-0.012280	0.516146	0.499944
H544	H	0.237720	0.766146	0.749944
Br545	Br	-0.498854	0.332101	-0.000014
Br546	Br	-0.248854	0.582101	0.249986
Br547	Br	0.001146	0.832101	0.499986
Br548	Br	0.251146	1.082101	0.749986
Br549	Br	-0.552367	0.205961	-0.000067
Br550	Br	-0.302367	0.455961	0.249933
Br551	Br	-0.052367	0.705961	0.499933
Br552	Br	0.197633	0.955961	0.749933
H553	H	-0.486602	-0.172255	-0.000020
H554	H	-0.236602	0.077745	0.249980
H555	H	0.013398	0.327745	0.499980
H556	H	0.263398	0.577745	0.749980
H557	H	0.141947	0.023982	-0.000078
H558	H	0.391947	0.273982	0.249922
H559	H	0.641947	0.523982	0.499922
H560	H	0.891947	0.773982	0.749922
H561	H	-0.138375	0.072634	-0.000108
H562	H	0.111625	0.322634	0.249892
H563	H	0.361625	0.572634	0.499892
H564	H	0.611625	0.822634	0.749892
Br565	Br	-0.803307	0.056329	0.574802
Br566	Br	-0.553307	0.306329	0.824802
Br567	Br	-0.303307	0.556329	1.074802
Br568	Br	-0.053307	0.806329	1.324802
H569	H	-0.743124	-0.003611	0.850185
H570	H	-0.493124	0.246389	1.100185
H571	H	-0.243124	0.496389	1.350185
H572	H	0.006876	0.746389	1.600185
Br573	Br	-0.580383	-0.165705	0.867542
Br574	Br	-0.330383	0.084295	1.117542
Br575	Br	-0.080383	0.334295	1.367542
Br576	Br	0.169617	0.584295	1.617542
Br577	Br	-0.541379	-0.204605	0.574968
Br578	Br	-0.291379	0.045395	0.824968
Br579	Br	-0.041379	0.295395	1.074968
Br580	Br	0.208621	0.545395	1.324968
H581	H	-0.562557	-0.183515	0.442308
H582	H	-0.312557	0.066485	0.692308
H583	H	-0.062557	0.316485	0.942308
H584	H	0.187443	0.566485	1.192308
