data_functionalizedCrystal
_audit_creation_method	'MofGen! by Chris Wilmer'
_symmetry_space_group_name_H-M	'P1'
_symmetry_Int_Tables_number	1
_symmetry_cell_setting	triclinic
loop_
_symmetry_equiv_pos_as_xyz
  x,y,z
_cell_length_a	27.732064
_cell_length_b	27.732048
_cell_length_c	22.010155
_cell_angle_alpha	90.009515
_cell_angle_beta	90.008059
_cell_angle_gamma	82.646040
loop_
_atom_site_label
_atom_site_type_symbol
_atom_site_fract_x
_atom_site_fract_y
_atom_site_fract_z
O1	O	0.640930	0.057554	0.050423
O2	O	0.500138	0.066291	0.050449
O3	O	0.574906	-0.008474	0.050424
O4	O	0.566161	0.132319	0.050449
O5	O	0.574884	-0.008474	-0.050627
O6	O	0.500115	0.066291	-0.050601
O7	O	0.640907	0.057554	-0.050627
Cu8	Cu	0.570509	0.061923	-0.059841
Cu9	Cu	0.570536	0.061923	0.059663
O10	O	0.566139	0.132319	-0.050602
C11	C	0.482120	0.066106	-0.000073
C12	C	0.428465	0.065551	-0.000064
C13	C	0.051392	0.017583	-0.000107
C14	C	0.253053	0.019630	-0.000090
O15	O	0.284305	-0.017591	-0.000120
N16	N	0.272180	0.063964	-0.000080
C17	C	0.240889	0.107790	-0.000077
O18	O	0.261785	0.145546	-0.000074
C19	C	0.039230	0.105743	-0.000098
C20	C	0.020105	0.061406	-0.000102
C21	C	0.032267	-0.026750	-0.000112
C22	C	-0.018145	-0.027261	-0.000112
C23	C	-0.049432	0.016561	-0.000108
C24	C	-0.030307	0.060895	-0.000103
C25	C	0.007940	0.149568	-0.000100
C26	C	-0.042478	0.149053	-0.000106
C27	C	-0.061602	0.104716	-0.000111
C28	C	-0.112006	0.104206	-0.000099
N29	N	-0.131134	0.059872	-0.000110
C30	C	-0.099846	0.016049	-0.000114
C31	C	0.346763	0.108861	-0.000065
C32	C	0.397178	0.109373	-0.000059
C33	C	0.409338	0.021213	-0.000073
C34	C	0.358923	0.020701	-0.000075
C35	C	0.327636	0.064527	-0.000076
C36	C	-0.205716	0.014979	-0.000115
C37	C	-0.256133	0.014472	-0.000113
C38	C	-0.268289	0.102632	-0.000103
C39	C	-0.217876	0.103140	-0.000101
C40	C	-0.186590	0.059309	-0.000110
O41	O	-0.143287	0.141407	-0.000077
O42	O	-0.120752	-0.021701	-0.000131
C43	C	0.101804	0.018094	-0.000106
C44	C	0.120930	0.062428	-0.000101
C45	C	0.089642	0.106250	-0.000097
C46	C	0.171344	0.062940	-0.000095
C47	C	0.202631	0.019117	-0.000099
C48	C	0.183504	-0.025217	-0.000109
C49	C	0.133092	-0.025728	-0.000110
C50	C	0.108770	0.150585	-0.000086
C51	C	0.159183	0.151092	-0.000085
C52	C	0.190470	0.107270	-0.000089
C53	C	0.574712	-0.026481	-0.000103
C54	C	0.574159	-0.080136	-0.000108
C55	C	0.614862	-0.418948	-0.000084
C56	C	0.612811	-0.620608	-0.000075
O57	O	0.650032	-0.651862	-0.000056
N58	N	0.568476	-0.639735	-0.000068
C59	C	0.524651	-0.608442	-0.000058
O60	O	0.486895	-0.629338	-0.000045
C61	C	0.526703	-0.406784	-0.000063
C62	C	0.571040	-0.387660	-0.000077
C63	C	0.659196	-0.399824	-0.000097
C64	C	0.659709	-0.349412	-0.000103
C65	C	0.615887	-0.318124	-0.000095
C66	C	0.571553	-0.337248	-0.000082
C67	C	0.482878	-0.375493	-0.000049
C68	C	0.483395	-0.325075	-0.000049
C69	C	0.527733	-0.305952	-0.000063
C70	C	0.528243	-0.255548	-0.000080
N71	N	0.572578	-0.236422	-0.000088
C72	C	0.616400	-0.267710	-0.000095
C73	C	0.523577	-0.714317	-0.000057
C74	C	0.523064	-0.764731	-0.000057
C75	C	0.611225	-0.776893	-0.000073
C76	C	0.611737	-0.726478	-0.000077
C77	C	0.567912	-0.695190	-0.000065
C78	C	0.617472	-0.161841	-0.000107
C79	C	0.617981	-0.111424	-0.000115
C80	C	0.529821	-0.099266	-0.000096
C81	C	0.529312	-0.149679	-0.000092
C82	C	0.573142	-0.180965	-0.000095
O83	O	0.491043	-0.224267	-0.000093
O84	O	0.654151	-0.246805	-0.000095
C85	C	0.614350	-0.469360	-0.000079
C86	C	0.570016	-0.488484	-0.000066
C87	C	0.526194	-0.457196	-0.000058
C88	C	0.569503	-0.538899	-0.000066
C89	C	0.613325	-0.570187	-0.000073
C90	C	0.657660	-0.551060	-0.000081
C91	C	0.658172	-0.500648	-0.000086
C92	C	0.481859	-0.476323	-0.000050
C93	C	0.481351	-0.526735	-0.000046
C94	C	0.525172	-0.558023	-0.000053
C95	C	0.658925	0.057739	-0.000104
C96	C	0.712580	0.058295	-0.000109
C97	C	0.566333	0.150326	-0.000074
C98	C	0.566886	0.203981	-0.000065
N99	N	0.570494	0.061922	-0.143893
C100	C	0.599634	0.091035	-0.563673
C101	C	0.599639	0.091034	-0.627281
O102	O	0.624398	0.115784	-0.660172
N103	N	0.570545	0.061917	-0.659100
C104	C	0.541447	0.032796	-0.627309
O105	O	0.516701	0.008029	-0.660215
C106	C	0.541444	0.032795	-0.563703
C107	C	0.570537	0.061917	-0.531886
C108	C	0.628724	0.120155	-0.531857
C109	C	0.628718	0.120157	-0.468253
C110	C	0.599621	0.091039	-0.436467
C111	C	0.570530	0.061919	-0.468283
C112	C	0.512349	0.003671	-0.531913
C113	C	0.512349	0.003672	-0.468302
C114	C	0.541442	0.032795	-0.436486
C115	C	0.541427	0.032803	-0.372893
N116	N	0.570521	0.061920	-0.341074
C117	C	0.599618	0.091038	-0.372860
C118	C	0.541456	0.032799	-0.760887
C119	C	0.541456	0.032803	-0.824492
C120	C	0.599649	0.091040	-0.824459
C121	C	0.599646	0.091039	-0.760853
C122	C	0.570550	0.061916	-0.729067
C123	C	0.599602	0.091040	-0.239289
C124	C	0.599591	0.091040	-0.175680
C125	C	0.541400	0.032801	-0.175719
C126	C	0.541409	0.032802	-0.239322
C127	C	0.570513	0.061923	-0.271105
O128	O	0.516683	0.008064	-0.339961
O129	O	0.624365	0.115796	-0.339947
N130	N	0.570555	0.061919	0.143715
H131	H	-0.033711	-0.063365	-0.000118
O132	O	0.066009	-0.074020	-0.000118
H133	H	0.059248	-0.095249	0.041068
H134	H	0.445243	-0.542300	-0.000040
H135	H	0.647841	-0.710911	-0.000088
O136	O	0.705993	-0.480025	-0.000098
H137	H	0.708345	-0.457340	0.041085
H138	H	0.446173	-0.450852	-0.000043
H139	H	0.517713	0.009094	-0.265228
O140	O	0.510051	0.001376	-0.141407
H141	H	0.483899	0.024709	-0.112407
O142	O	0.481489	-0.170303	-0.000084
H143	H	0.479135	-0.192986	-0.041269
H144	H	0.488656	-0.020044	-0.442426
O145	O	0.631028	0.122449	-0.726542
H146	H	0.607659	0.148590	-0.697567
H147	H	0.693341	-0.576544	-0.000090
O148	O	0.658492	-0.810644	-0.000077
H149	H	0.650682	-0.848911	-0.000069
H150	H	-0.271701	-0.021634	-0.000115
H151	H	-0.180248	-0.020712	-0.000122
H152	H	0.494142	-0.073782	-0.000092
O153	O	-0.302043	0.149894	-0.000103
H154	H	-0.295290	0.171135	0.041086
O155	O	0.338298	-0.027120	-0.000092
H156	H	0.350895	-0.048160	0.041089
O157	O	0.443087	-0.026055	-0.000087
H158	H	0.481355	-0.018246	-0.000088
H159	H	0.623282	0.114758	-0.149778
O160	O	0.475244	-0.785356	-0.000050
H161	H	0.444860	-0.755125	-0.000040
H162	H	0.412744	0.145477	-0.000047
O163	O	0.313020	0.156133	-0.000062
H164	H	0.334796	0.187043	-0.000048
H165	H	0.623302	0.114752	-0.265160
H166	H	0.023501	0.185672	-0.000094
H167	H	0.652410	0.143869	-0.442354
O168	O	0.664746	-0.195580	-0.000116
H169	H	0.666610	-0.218847	-0.041300
O170	O	0.660111	0.151566	-0.566130
H171	H	0.686272	0.128220	-0.595104
O172	O	-0.076224	0.196322	-0.000104
H173	H	-0.054452	0.227235	-0.000095
O174	O	0.112467	-0.073549	-0.000125
H175	H	0.142699	-0.103931	-0.000136
H176	H	0.446774	-0.391054	-0.000034
H177	H	0.623340	0.114751	-0.850352
O178	O	0.217253	-0.072485	-0.000120
H179	H	0.255521	-0.064675	-0.000125
H180	H	0.174748	0.187200	-0.000077
O181	O	0.075027	0.197853	-0.000079
H182	H	0.096802	0.228763	-0.000067
O183	O	-0.197244	0.150958	-0.000094
H184	H	-0.227472	0.181345	-0.000094
O185	O	0.476306	-0.680572	-0.000057
H186	H	0.445396	-0.702347	-0.000060
O187	O	0.480974	-0.027754	-0.566203
H188	H	0.454809	-0.004420	-0.595185
O189	O	0.510087	0.001383	-0.858807
H190	H	0.489862	-0.018870	-0.826011
H191	H	0.447706	-0.299603	-0.000038
O192	O	0.665804	-0.090797	-0.000121
H193	H	0.696188	-0.121026	-0.000116
H194	H	0.695813	-0.333847	-0.000112
O195	O	0.706465	-0.433568	-0.000114
H196	H	0.737375	-0.411792	-0.000129
H197	H	0.517758	0.009086	-0.735011
