data_functionalizedCrystal
_audit_creation_method	'MofGen! by Chris Wilmer'
_symmetry_space_group_name_H-M	'P1'
_symmetry_Int_Tables_number	1
_symmetry_cell_setting	triclinic
loop_
_symmetry_equiv_pos_as_xyz
  x,y,z
_cell_length_a	15.944551
_cell_length_b	9.065218
_cell_length_c	8.140239
_cell_angle_alpha	90.001686
_cell_angle_beta	89.993086
_cell_angle_gamma	95.742688
loop_
_atom_site_label
_atom_site_type_symbol
_atom_site_fract_x
_atom_site_fract_y
_atom_site_fract_z
O1	O	1.115964	-0.190270	-0.136767
O2	O	0.871592	-0.213728	-0.136734
O3	O	0.998829	0.012762	-0.136748
O4	O	0.988727	-0.416759	-0.136753
O5	O	0.998822	0.012764	0.136479
O6	O	0.871585	-0.213726	0.136493
O7	O	1.115956	-0.190267	0.136461
Zn8	Zn	0.993769	-0.201996	0.179857
Zn9	Zn	0.993779	-0.201999	-0.180131
O10	O	0.988719	-0.416757	0.136474
C11	C	0.840287	-0.212753	-0.000116
C12	C	0.747019	-0.209833	-0.000104
C13	C	0.997854	0.067727	-0.000137
C14	C	0.994951	0.231502	-0.000144
C15	C	1.147261	-0.191242	-0.000161
C16	C	1.240530	-0.194162	-0.000184
C17	C	1.456503	-0.341529	-0.000148
C18	C	1.517008	-0.273098	-0.134861
C19	C	1.411295	-0.199444	-0.000160
C20	C	1.516978	-0.273062	0.134519
C21	C	1.576247	-0.204556	-0.000130
C22	C	1.470572	-0.130973	-0.134984
C23	C	1.470536	-0.130957	0.134517
C24	C	1.531023	-0.062422	-0.000229
C25	C	1.316271	-0.196502	-0.000179
C26	C	1.671270	-0.207486	-0.000123
C27	C	0.989694	-0.471722	-0.000141
C28	C	0.992597	-0.635497	-0.000144
N29	N	0.993769	-0.201993	0.425540
N30	N	0.993786	-0.201991	-0.425814
H31	H	1.537580	-0.333198	-0.248748
H32	H	1.449946	-0.070911	0.248415
O33	O	1.569656	0.078299	-0.000236
C34	C	1.701462	0.233594	0.000909
C35	C	1.657817	0.074158	0.000970
H36	H	1.772747	0.230300	0.001849
H37	H	1.681591	0.294656	0.114694
H38	H	1.682348	0.293869	-0.113990
H39	H	1.676909	0.013758	0.115792
H40	H	1.677689	0.013208	-0.112891
O41	O	1.417863	-0.482247	-0.000595
C42	C	1.397626	-0.716097	-0.143086
C43	C	1.441426	-0.556770	-0.142793
H44	H	1.416675	-0.776405	-0.258023
H45	H	1.326351	-0.712648	-0.142022
H46	H	1.417475	-0.777224	-0.029346
H47	H	1.421646	-0.495551	-0.256514
H48	H	1.512693	-0.560326	-0.143771
O49	O	1.446047	-0.059443	-0.270965
C50	C	1.330083	0.023626	-0.423483
C51	C	1.357742	-0.057433	-0.269437
H52	H	1.258689	0.025305	-0.422282
H53	H	1.349556	-0.036537	-0.538202
H54	H	1.361546	0.142226	-0.423952
H55	H	1.326293	-0.176036	-0.268808
H56	H	1.338284	0.002845	-0.154788
H57	H	1.537516	-0.333183	0.248408
