data_functionalizedCrystal
_audit_creation_method	'MofGen! by Chris Wilmer'
_symmetry_space_group_name_H-M	'P1'
_symmetry_Int_Tables_number	1
_symmetry_cell_setting	triclinic
loop_
_symmetry_equiv_pos_as_xyz
  x,y,z
_cell_length_a	23.532407
_cell_length_b	16.992695
_cell_length_c	16.053802
_cell_angle_alpha	87.258926
_cell_angle_beta	87.440303
_cell_angle_gamma	93.241550
loop_
_atom_site_label
_atom_site_type_symbol
_atom_site_fract_x
_atom_site_fract_y
_atom_site_fract_z
O1	O	0.762229	-0.091835	-0.069325
O2	O	1.262229	0.408165	0.430675
O3	O	0.597050	-0.105601	-0.069350
O4	O	1.097050	0.394399	0.430650
O5	O	0.678977	0.015419	-0.069331
O6	O	1.178977	0.515419	0.430669
O7	O	0.680302	-0.212855	-0.069344
O8	O	1.180302	0.287145	0.430656
O9	O	0.674466	0.008785	0.069527
O10	O	1.174466	0.508785	0.569527
O11	O	0.592539	-0.112235	0.069508
O12	O	1.092539	0.387765	0.569508
O13	O	0.757718	-0.098469	0.069533
O14	O	1.257718	0.401531	0.569533
Zn15	Zn	0.674413	-0.106406	0.091567
Zn16	Zn	1.174413	0.393594	0.591567
Zn17	Zn	0.680356	-0.097665	-0.091384
Zn18	Zn	1.180356	0.402335	0.408616
O19	O	0.675791	-0.219489	0.069514
O20	O	1.175791	0.280511	0.569514
C21	C	0.573561	-0.108568	0.000076
C22	C	1.073561	0.391432	0.500076
C23	C	0.510292	-0.107513	0.000067
C24	C	1.010292	0.392487	0.500067
N25	N	0.670361	-0.112370	0.216427
N26	N	1.170361	0.387630	0.716427
C27	C	0.675018	0.041301	0.000098
C28	C	1.175018	0.541301	0.500098
C29	C	0.669935	0.128306	0.000097
C30	C	1.169935	0.628306	0.500097
C31	C	0.114414	-0.172521	0.000101
C32	C	0.614414	0.327479	0.500101
C33	C	0.054965	-0.171542	0.000106
C34	C	0.554965	0.328458	0.500106
O35	O	0.021210	-0.231805	0.000133
O36	O	0.521210	0.268195	0.500133
N37	N	0.028768	-0.099595	0.000109
N38	N	0.528768	0.400405	0.500109
C39	C	0.062024	-0.028623	0.000115
C40	C	0.562024	0.471377	0.500115
O41	O	0.034283	0.032663	0.000119
O42	O	0.534283	0.532663	0.500119
C43	C	0.121471	-0.029603	0.000116
C44	C	0.621471	0.470397	0.500116
C45	C	0.147665	-0.101554	0.000105
C46	C	0.647665	0.398446	0.500105
C47	C	0.140607	-0.244467	0.000091
C48	C	0.640607	0.255533	0.500091
C49	C	0.200052	-0.245445	0.000084
C50	C	0.700052	0.254555	0.500084
C51	C	0.233304	-0.174478	0.000088
C52	C	0.733304	0.325522	0.500088
C53	C	0.207110	-0.102533	0.000098
C54	C	0.707110	0.397467	0.500098
C55	C	0.154726	0.041368	0.000128
C56	C	0.654726	0.541368	0.500128
C57	C	0.214177	0.040381	0.000129
C58	C	0.714177	0.540381	0.500129
C59	C	0.240371	-0.031570	0.000118
C60	C	0.740371	0.468430	0.500118
C61	C	0.299806	-0.032545	0.000095
C62	C	0.799806	0.467455	0.500095
N63	N	0.326002	-0.104492	0.000092
N64	N	0.826002	0.395508	0.500092
C65	C	0.292751	-0.175458	0.000088
C66	C	0.792751	0.324542	0.500088
C67	C	-0.062821	-0.026571	0.000115
C68	C	0.437179	0.473429	0.500115
C69	C	-0.122267	-0.025590	0.000108
C70	C	0.377733	0.474410	0.500108
C71	C	-0.129322	-0.168509	0.000101
C72	C	0.370678	0.331491	0.500101
C73	C	-0.069874	-0.169489	0.000102
C74	C	0.430126	0.330511	0.500102
C75	C	-0.036624	-0.098518	0.000112
C76	C	0.463376	0.401482	0.500112
C77	C	0.417590	-0.177508	0.000074
C78	C	0.917590	0.322492	0.500074
C79	C	0.477041	-0.178480	0.000063
C80	C	0.977041	0.321520	0.500063
C81	C	0.484091	-0.035561	0.000075
C82	C	0.984091	0.464439	0.500075
C83	C	0.424645	-0.034588	0.000081
C84	C	0.924645	0.465412	0.500081
C85	C	0.391396	-0.105568	0.000083
C86	C	0.891396	0.394432	0.500083
O87	O	0.333597	0.027687	0.000071
O88	O	0.833597	0.527687	0.500071
O89	O	0.320500	-0.236735	0.000096
O90	O	0.820500	0.263265	0.500096
C91	C	0.781207	-0.095503	0.000105
C92	C	1.281207	0.404497	0.500105
C93	C	0.844476	-0.096557	0.000109
C94	C	1.344476	0.403443	0.500109
C95	C	0.679750	-0.245372	0.000083
C96	C	1.179750	0.254628	0.500083
C97	C	0.684834	-0.332376	0.000079
C98	C	1.184834	0.167624	0.500079
C99	C	0.718981	0.178928	0.000105
C100	C	1.218981	0.678928	0.500105
C101	C	0.714202	0.260678	0.000096
C102	C	1.214202	0.760678	0.500096
C103	C	0.660375	0.291804	0.000085
C104	C	1.160375	0.791804	0.500085
C105	C	0.611326	0.241175	0.000075
C106	C	1.111326	0.741175	0.500075
C107	C	0.616106	0.159427	0.000077
C108	C	1.116106	0.659427	0.500077
C109	C	0.640564	0.535248	0.000071
C110	C	1.140564	1.035248	0.500071
C111	C	0.635788	0.617002	0.000071
C112	C	1.135788	1.117002	0.500071
C113	C	0.738664	0.636499	0.000091
C114	C	1.238664	1.136499	0.500091
C115	C	0.743439	0.554748	0.000098
C116	C	1.243439	1.054748	0.500098
C117	C	0.694390	0.504127	0.000083
C118	C	1.194390	1.004127	0.500083
N119	N	0.655489	0.375365	0.000079
N120	N	1.155489	0.875365	0.500079
N121	N	0.699277	0.420568	0.000084
N122	N	1.199277	0.920568	0.500084
N123	N	0.684412	-0.091694	-0.216243
N124	N	1.184412	0.408306	0.283757
C125	C	0.705235	-0.060894	0.260128
C126	C	1.205235	0.439106	0.760128
C127	C	0.702407	-0.065074	0.347535
C128	C	1.202407	0.434926	0.847535
C129	C	0.664706	-0.120734	0.391237
C130	C	1.164706	0.379266	0.891237
C131	C	0.629827	-0.172213	0.347529
C132	C	1.129827	0.327787	0.847529
C133	C	0.632654	-0.168028	0.260125
C134	C	1.132654	0.331972	0.760125
C135	C	0.652360	-0.138988	0.652644
C136	C	1.152360	0.361012	1.152644
C137	C	0.649537	-0.143170	0.740055
C138	C	1.149537	0.356830	1.240055
C139	C	0.722116	-0.036030	0.740054
C140	C	1.222116	0.463970	1.240054
C141	C	0.724941	-0.031854	0.652648
C142	C	1.224941	0.468146	1.152648
C143	C	0.690061	-0.083330	0.608947
C144	C	1.190061	0.416670	1.108947
N145	N	0.661815	-0.125009	0.480580
N146	N	1.161815	0.374991	0.980580
N147	N	0.692949	-0.079050	0.519606
N148	N	1.192949	0.420950	1.019606
H149	H	0.390525	-0.235307	0.000078
H150	H	0.890525	0.264693	0.500078
N151	N	0.759731	0.019494	0.787186
N152	N	1.259731	0.519494	1.287186
H153	H	0.801038	0.011476	0.771964
H154	H	1.301038	0.511476	1.271964
H155	H	0.752174	0.008372	0.849172
H156	H	1.252174	0.508372	1.349172
N157	N	0.608878	-0.203214	0.787194
N158	N	1.108878	0.296786	1.287194
H159	H	0.587211	-0.235190	0.746248
H160	H	1.087211	0.264810	1.246248
H161	H	0.581175	-0.175122	0.823477
H162	H	1.081175	0.324878	1.323477
H163	H	0.599128	-0.217530	0.383117
H164	H	1.099128	0.282470	0.883117
N165	N	0.126482	0.118971	0.000148
N166	N	0.626482	0.618971	0.500148
H167	H	0.140041	0.152506	-0.051320
H168	H	0.640041	0.652506	0.448680
H169	H	0.136717	0.147505	0.051663
H170	H	0.636717	0.647505	0.551663
N171	N	0.801492	0.521169	0.000088
N172	N	1.301492	1.021169	0.500088
H173	H	0.804098	0.485227	0.051561
H174	H	1.304098	0.985227	0.551561
H175	H	0.831809	0.565681	0.000055
H176	H	1.331809	1.065681	0.500055
N177	N	0.553268	0.274737	0.000062
N178	N	1.053268	0.774737	0.500062
H179	H	0.550663	0.310678	-0.051412
H180	H	1.050663	0.810678	0.448588
H181	H	0.547353	0.305721	0.051572
H182	H	1.047353	0.805721	0.551572
N183	N	0.614736	-0.194510	0.605527
N184	N	1.114736	0.305490	1.105527
H185	H	0.623331	-0.250823	0.620728
H186	H	1.123331	0.249177	1.120728
H187	H	0.622255	-0.183352	0.543538
H188	H	1.122255	0.316648	1.043538
N189	N	0.577729	0.650573	0.000051
N190	N	1.077729	1.150573	0.500051
H191	H	0.582146	0.710041	0.000056
H192	H	1.082146	1.210041	0.500056
H193	H	0.554427	0.629569	0.051521
H194	H	1.054427	1.129569	0.551521
N195	N	0.595042	-0.223555	0.212988
N196	N	1.095042	0.276445	0.712988
H197	H	0.602551	-0.212457	0.150986
H198	H	1.102551	0.287543	0.650986
H199	H	0.553751	-0.215512	0.228276
H200	H	1.053751	0.284488	0.728276
H201	H	0.730804	-0.023157	0.383116
H202	H	1.230804	0.476843	0.883116
H203	H	0.221373	-0.304035	0.000075
H204	H	0.721373	0.195965	0.500075
H205	H	-0.035751	0.031227	0.000116
H206	H	0.464249	0.531227	0.500116
H207	H	0.755640	0.013469	0.617067
H208	H	1.255640	0.513469	1.117067
N209	N	0.505292	-0.256087	0.000043
N210	N	1.005292	0.243913	0.500043
H211	H	0.475204	-0.300893	0.000043
H212	H	0.975204	0.199107	0.500043
H213	H	0.528139	-0.262071	0.051514
H214	H	1.028139	0.237929	0.551514
H215	H	0.113540	-0.302260	0.000091
H216	H	0.613540	0.197740	0.500091
H217	H	-0.048552	-0.228078	0.000097
H218	H	0.451448	0.271922	0.500097
N219	N	-0.150518	0.052012	0.000110
N220	N	0.349482	0.552012	0.500110
H221	H	-0.136961	0.085541	-0.051363
H222	H	0.363039	0.585541	0.448637
H223	H	-0.140286	0.080556	0.051621
H224	H	0.359714	0.580556	0.551621
N225	N	-0.165177	-0.245068	0.000115
N226	N	0.334823	0.254932	0.500115
H227	H	-0.188337	-0.245407	-0.051354
H228	H	0.311663	0.254593	0.448646
H229	H	-0.191628	-0.250261	0.051630
H230	H	0.308372	0.249739	0.551630
N231	N	0.250039	0.116931	0.000146
N232	N	0.750039	0.616931	0.500146
H233	H	0.224421	0.162655	0.000154
H234	H	0.724421	0.662655	0.500154
H235	H	0.276526	0.122104	-0.051331
H236	H	0.776526	0.622104	0.448669
N237	N	0.396390	0.043014	0.000077
N238	N	0.896390	0.543014	0.500077
H239	H	0.426478	0.087822	0.000074
H240	H	0.926478	0.587822	0.500074
H241	H	0.370214	0.044076	0.051558
H242	H	0.870214	0.544076	0.551558
N243	N	0.777036	0.145359	0.000124
N244	N	1.277036	0.645359	0.500124
H245	H	0.807381	0.189836	0.000127
H246	H	1.307381	0.689836	0.500127
H247	H	0.782934	0.114321	-0.051349
H248	H	1.282934	0.614321	0.448651
N249	N	0.519960	0.040979	0.000079
N250	N	1.019960	0.540979	0.500079
H251	H	0.561593	0.029434	0.000079
H252	H	1.061593	0.529434	0.500079
H253	H	0.509443	0.069890	0.051562
H254	H	1.009443	0.569890	0.551562
N255	N	0.791565	0.691096	0.000108
N256	N	1.291565	1.191096	0.500108
H257	H	0.780372	0.747606	0.000105
H258	H	1.280372	1.247606	0.500105
H259	H	0.816535	0.683520	-0.051363
H260	H	1.316535	1.183520	0.448637
N261	N	0.767101	0.315278	0.000110
N262	N	1.267101	0.815278	0.500110
H263	H	0.801924	0.283155	0.000125
H264	H	1.301924	0.783155	0.500125
H265	H	0.765681	0.347163	0.051586
H266	H	1.265681	0.847163	0.551586
H267	H	0.600624	0.494041	0.000059
H268	H	1.100624	0.994041	0.500059
H269	H	0.576167	0.118211	0.000071
H270	H	1.076167	0.618211	0.500071
N271	N	0.745902	-0.000865	0.212995
N272	N	1.245902	0.499135	0.712995
H273	H	0.767565	0.031111	0.253947
H274	H	1.267565	0.531111	0.753947
H275	H	0.723705	0.035372	0.176740
H276	H	1.223705	0.535372	0.676740
