data_functionalizedCrystal
_audit_creation_method	'MofGen! by Chris Wilmer'
_symmetry_space_group_name_H-M	'P1'
_symmetry_Int_Tables_number	1
_symmetry_cell_setting	triclinic
loop_
_symmetry_equiv_pos_as_xyz
  x,y,z
_cell_length_a	12.759401
_cell_length_b	16.625539
_cell_length_c	16.625546
_cell_angle_alpha	89.971468
_cell_angle_beta	90.021512
_cell_angle_gamma	89.986045
loop_
_atom_site_label
_atom_site_type_symbol
_atom_site_fract_x
_atom_site_fract_y
_atom_site_fract_z
Zn1	Zn	1.606151	-0.455831	-0.321036
Zn2	Zn	2.106151	0.044169	0.178964
Zn3	Zn	1.606035	-0.320993	-0.455874
Zn4	Zn	2.106035	0.179007	0.044126
Zn5	Zn	1.430467	-0.321019	-0.321057
Zn6	Zn	1.930467	0.178981	0.178943
Zn7	Zn	1.430418	-0.455790	-0.455828
Zn8	Zn	1.930418	0.044210	0.044172
O9	O	1.518268	-0.388408	-0.388449
O10	O	2.018268	0.111592	0.111551
O11	O	1.753157	-0.437951	-0.338933
O12	O	2.253157	0.062049	0.161067
O13	O	1.582718	-0.208164	-0.438019
O14	O	2.082718	0.291836	0.061981
O15	O	1.453841	-0.338929	-0.208222
O16	O	1.953841	0.161071	0.291778
O17	O	1.753072	-0.338886	-0.437998
O18	O	2.253072	0.161114	0.062002
O19	O	1.582915	-0.437975	-0.208206
O20	O	2.082915	0.062025	0.291794
O21	O	1.453729	-0.208183	-0.338970
O22	O	1.953729	0.291817	0.161030
O23	O	1.283439	-0.338890	-0.338924
O24	O	1.783439	0.161110	0.161076
O25	O	1.453757	-0.568628	-0.437919
O26	O	1.953757	-0.068628	0.062081
O27	O	1.283403	-0.437906	-0.437940
O28	O	1.783403	0.062094	0.062060
O29	O	1.582867	-0.568658	-0.338888
O30	O	2.082867	-0.068658	0.161112
O31	O	1.582670	-0.338847	-0.568701
O32	O	2.082670	0.161153	-0.068701
O33	O	1.453645	-0.437882	-0.568666
O34	O	1.953645	0.062118	-0.068666
C35	C	1.245300	-0.388397	-0.388430
C36	C	1.745300	0.111603	0.111570
C37	C	1.128524	-0.388411	-0.388441
C38	C	1.628524	0.111589	0.111559
C39	C	1.073699	-0.440074	-0.336955
C40	C	1.573699	0.059926	0.163045
C41	C	0.963975	-0.440079	-0.336971
C42	C	1.463975	0.059921	0.163029
C43	C	0.963910	-0.336756	-0.439965
C44	C	1.463910	0.163244	0.060035
C45	C	1.073632	-0.336748	-0.439945
C46	C	1.573632	0.163252	0.060055
C47	C	1.073735	-0.499730	-0.277494
C48	C	1.573735	0.000270	0.222506
C49	C	0.964011	-0.499735	-0.277510
C50	C	1.464011	0.000265	0.222490
C51	C	1.518319	-0.598717	-0.388395
C52	C	2.018319	-0.098717	0.111605
C53	C	1.518341	-0.688338	-0.388373
C54	C	2.018341	-0.188338	0.111627
C55	C	1.518358	-0.761121	-0.388355
C56	C	2.018358	-0.261121	0.111645
C57	C	1.518383	-0.852429	-0.388325
C58	C	2.018383	-0.352429	0.111675
C59	C	1.518408	-0.925206	-0.388297
C60	C	2.018408	-0.425206	0.111703
C61	C	1.518434	-1.016520	-0.388267
C62	C	2.018434	-0.516520	0.111733
C63	C	1.792301	-0.388420	-0.388468
C64	C	2.292301	0.111580	0.111532
C65	C	1.909078	-0.388425	-0.388477
C66	C	2.409078	0.111575	0.111523
C67	C	1.518168	-0.388375	-0.597940
C68	C	2.018168	0.111625	-0.097940
C69	C	1.518222	-0.388387	-0.687561
C70	C	2.018222	0.111613	-0.187561
C71	C	1.518277	-0.178917	-0.388444
C72	C	2.018277	0.321083	0.111556
C73	C	1.518458	-0.089297	-0.388239
C74	C	2.018458	0.410703	0.111761
C75	C	1.518405	-0.388471	-1.015736
C76	C	2.018405	0.111529	-0.515736
C77	C	1.518351	-0.388450	-0.924428
C78	C	2.018351	0.111550	-0.424428
C79	C	1.518313	-0.388429	-0.851651
C80	C	2.018313	0.111571	-0.351651
C81	C	1.518260	-0.388408	-0.760337
C82	C	2.018260	0.111592	-0.260337
C83	C	1.518396	-0.388460	-0.178140
C84	C	2.018396	0.111540	0.321860
C85	C	1.518451	-0.388482	-0.088519
C86	C	2.018451	0.111518	0.411481
H87	H	1.107790	-0.559005	-0.299937
H88	H	1.607790	-0.059005	0.200063
C89	C	0.903526	-0.279932	-0.496620
C90	C	1.403526	0.220068	0.003380
C91	C	0.918575	-0.188281	-0.489914
C92	C	1.418575	0.311719	0.010086
C93	C	0.858193	-0.131457	-0.546571
C94	C	1.358193	0.368543	-0.046571
C95	C	0.782763	-0.166282	-0.609934
C96	C	1.282763	0.333718	-0.109934
C97	C	0.767711	-0.257938	-0.616642
C98	C	1.267711	0.242062	-0.116642
C99	C	0.828092	-0.314763	-0.559985
C100	C	1.328092	0.185237	-0.059985
H101	H	0.974416	-0.162497	-0.443007
H102	H	1.474416	0.337503	0.056993
H103	H	0.869336	-0.063607	-0.541605
H104	H	1.369336	0.436393	-0.041605
H105	H	0.738065	-0.124217	-0.651875
H106	H	1.238065	0.375783	-0.151875
H107	H	0.711870	-0.283722	-0.663549
H108	H	1.211870	0.216278	-0.163549
H109	H	0.816949	-0.382613	-0.564951
H110	H	1.316949	0.117387	-0.064951
C111	C	1.113977	-0.477283	-0.193099
C112	C	1.613977	0.022717	0.306901
C113	C	1.232637	-0.472929	-0.176724
C114	C	1.732637	0.027071	0.323276
C115	C	1.272879	-0.450482	-0.092331
C116	C	1.772879	0.049518	0.407669
C117	C	1.194462	-0.432390	-0.024314
C118	C	1.694462	0.067610	0.475686
C119	C	1.075795	-0.436744	-0.040687
C120	C	1.575795	0.063256	0.459313
C121	C	1.035553	-0.459191	-0.125080
C122	C	1.535553	0.040809	0.374920
H123	H	1.290692	-0.486322	-0.227076
H124	H	1.790692	0.013678	0.272924
H125	H	1.360724	-0.447259	-0.080211
H126	H	1.860724	0.052741	0.419789
H127	H	1.224251	-0.415773	0.038158
H128	H	1.724251	0.084227	0.538158
H129	H	1.017739	-0.423350	0.009665
H130	H	1.517739	0.076650	0.509665
H131	H	0.947707	-0.462413	-0.137200
H132	H	1.447707	0.037587	0.362800
H133	H	1.118267	-0.294671	-0.481862
H134	H	1.618267	0.205329	0.018138
H135	H	0.929982	-0.477484	-0.218161
H136	H	1.429982	0.022516	0.281839
C137	C	0.923803	-0.584053	-0.300232
C138	C	1.423803	-0.084053	0.199768
C139	C	1.002248	-0.652021	-0.318540
C140	C	1.502248	-0.152021	0.181460
C141	C	0.962040	-0.736335	-0.341263
C142	C	1.462040	-0.236335	0.158737
C143	C	0.843387	-0.752681	-0.345680
C144	C	1.343387	-0.252681	0.154320
C145	C	0.764935	-0.684711	-0.327372
C146	C	1.264935	-0.184711	0.172628
C147	C	0.805143	-0.600397	-0.304648
C148	C	1.305143	-0.100397	0.195352
H149	H	1.090089	-0.639923	-0.315271
H150	H	1.590089	-0.139923	0.184729
H151	H	1.020116	-0.786651	-0.354816
H152	H	1.520116	-0.286651	0.145184
H153	H	0.813623	-0.815095	-0.362501
H154	H	1.313623	-0.315095	0.137499
H155	H	0.677095	-0.696809	-0.330640
H156	H	1.177095	-0.196809	0.169360
H157	H	0.747067	-0.550081	-0.291095
H158	H	1.247067	-0.050081	0.208905
