data_functionalizedCrystal
_audit_creation_method	'MofGen! by Chris Wilmer'
_symmetry_space_group_name_H-M	'P1'
_symmetry_Int_Tables_number	1
_symmetry_cell_setting	triclinic
loop_
_symmetry_equiv_pos_as_xyz
  x,y,z
_cell_length_a	15.698487
_cell_length_b	21.606444
_cell_length_c	21.606444
_cell_angle_alpha	60.001331
_cell_angle_beta	90.003081
_cell_angle_gamma	59.998956
loop_
_atom_site_label
_atom_site_type_symbol
_atom_site_fract_x
_atom_site_fract_y
_atom_site_fract_z
Zr1	Zr	0.820615	0.677437	-0.081179
O2	O	0.684588	0.806562	-0.180005
O3	O	0.862315	0.548316	-0.050886
O4	O	0.862304	0.677440	-0.180005
O5	O	0.684606	0.677433	0.050967
O6	O	1.002489	0.677438	-0.180001
O7	O	0.684599	0.677438	-0.050887
O8	O	1.002508	0.446459	0.050968
O9	O	0.684586	0.908412	-0.180002
O10	O	0.984717	0.601422	-0.037961
O11	O	0.880104	0.601420	0.038049
O12	O	0.880091	0.753447	-0.113971
O13	O	0.775478	0.753446	-0.037961
Zr14	Zr	1.044204	0.677426	0.081272
Zr15	Zr	1.044193	0.677433	-0.081173
Zr16	Zr	0.820626	0.677430	0.081267
Zr17	Zr	0.820612	0.839877	-0.081174
Zr18	Zr	1.044206	0.514986	0.081267
O19	O	1.002503	0.806546	0.050980
O20	O	1.002487	0.806556	-0.179997
O21	O	0.684604	0.806552	0.050971
O22	O	1.180231	0.548301	0.180099
O23	O	1.180215	0.548311	-0.050878
O24	O	0.862332	0.548306	0.180090
O25	O	1.180213	0.677429	-0.050874
O26	O	1.002514	0.677422	0.180098
O27	O	0.862330	0.677425	0.180094
O28	O	1.180220	0.677425	0.050980
O29	O	0.862301	0.908409	-0.179997
O30	O	1.002517	0.446453	0.180091
O31	O	1.180232	0.446450	0.180095
O32	O	1.180223	0.446456	0.050973
O33	O	0.684595	0.908407	-0.050879
O34	O	0.862310	0.908404	-0.050875
O35	O	0.984727	0.601415	0.114065
O36	O	1.089340	0.601417	0.038055
O37	O	0.984715	0.753442	-0.037956
O38	O	0.880102	0.753441	0.038054
C39	C	0.932412	0.474243	0.000040
C40	C	0.932413	0.405283	0.000038
C41	C	0.652747	0.677436	0.000039
C42	C	0.557832	0.677438	0.000037
C43	C	0.987018	0.372886	-0.039640
C44	C	0.987021	0.308086	-0.039634
C45	C	0.932414	0.275689	0.000044
C46	C	0.877808	0.308088	0.039726
C47	C	0.877811	0.372883	0.039725
C48	C	0.877796	0.046779	0.039733
C49	C	0.877794	-0.018018	0.039729
C50	C	0.987006	-0.018017	-0.039627
C51	C	0.987009	0.046777	-0.039628
C52	C	0.932408	0.079168	0.000057
C53	C	0.932406	0.149430	0.000052
C54	C	0.932409	0.205432	0.000045
C55	C	0.480750	0.677440	0.000038
C56	C	0.384053	0.677435	0.000046
C57	C	1.212071	0.677426	0.000054
C58	C	1.306986	0.677425	0.000057
C59	C	0.932395	0.677440	-0.203148
C60	C	0.932390	0.677443	-0.272110
C61	C	0.932406	0.880619	0.000053
C62	C	0.932405	0.949579	0.000056
C63	C	0.877776	0.756798	-0.344186
C64	C	0.877785	0.756796	-0.408980
C65	C	0.932403	0.677437	-0.401698
C66	C	0.987024	0.598076	-0.329615
C67	C	0.987020	0.598079	-0.264822
C68	C	0.987040	0.598061	-0.590918
C69	C	0.987037	0.598064	-0.655719
C70	C	0.877805	0.756777	-0.735077
C71	C	0.877802	0.756780	-0.670283
C72	C	0.932427	0.677420	-0.598207
C73	C	0.932418	0.677423	-0.527949
C74	C	0.932406	0.677433	-0.471954
C75	C	0.932423	0.677423	0.203241
C76	C	0.932428	0.677420	0.272204
C77	C	1.212074	0.474238	0.000048
C78	C	1.306990	0.405277	0.000048
C79	C	0.932426	0.474235	0.203235
C80	C	0.932432	0.405271	0.272195
C81	C	1.212089	0.474230	0.203242
C82	C	1.307009	0.405265	0.272205
C83	C	0.652730	0.880633	-0.203149
C84	C	0.557810	0.949598	-0.272111
C85	C	0.652744	0.880624	0.000046
C86	C	0.557829	0.949586	0.000046
C87	C	0.932392	0.880628	-0.203141
C88	C	0.932386	0.949591	-0.272101
C89	C	1.296951	0.372894	-0.039638
C90	C	1.386126	0.308106	-0.039653
C91	C	1.485339	0.275697	0.000023
C92	C	1.495376	0.308086	0.039710
C93	C	1.406202	0.372878	0.039720
C94	C	0.987047	0.372883	0.344265
C95	C	0.987049	0.308094	0.409067
C96	C	0.932441	0.275690	0.401796
C97	C	0.877819	0.308085	0.329718
C98	C	0.877812	0.372877	0.264918
C99	C	1.406201	0.372879	0.264914
C100	C	1.495397	0.308088	0.329706
C101	C	1.485400	0.275680	0.401787
C102	C	1.386197	0.308072	0.409076
C103	C	1.297003	0.372866	0.344286
C104	C	0.458618	0.981991	-0.264821
C105	C	0.369421	1.046802	-0.329612
C106	C	0.379419	1.079214	-0.401694
C107	C	0.478621	1.046817	-0.408983
C108	C	0.567815	0.982012	-0.344192
C109	C	0.567867	0.981975	0.039725
C110	C	0.478693	1.046781	0.039722
C111	C	0.379480	1.079192	0.000044
C112	C	0.369443	1.046800	-0.039640
C113	C	0.458617	0.982000	-0.039641
C114	C	0.987005	0.981974	-0.264807
C115	C	0.987020	1.046764	-0.329596
C116	C	0.932409	1.079174	-0.401679
C117	C	0.877789	1.046784	-0.408972
C118	C	0.877781	0.981991	-0.344184
H119	H	1.031480	0.399264	-0.071954
C120	C	1.007261	1.119628	-0.281889
C121	C	1.047048	1.082369	-0.321569
H122	H	1.044315	1.141613	-0.276938
H123	H	1.015070	1.076403	-0.232996
H124	H	0.935415	1.166148	-0.308831
H125	H	1.118893	1.035845	-0.294625
H126	H	1.039248	1.125598	-0.370471
H127	H	1.031532	0.281726	0.467750
C128	C	0.441798	1.066709	0.138692
C129	C	0.489742	1.082366	0.083356
H130	H	0.448619	1.088679	0.165628
H131	H	0.474307	1.005541	0.172924
H132	H	0.369948	1.095302	0.115048
H133	H	0.561595	1.053768	0.107001
H134	H	0.457236	1.143545	0.049119
H135	H	0.932424	1.131932	-0.454428
C136	C	0.887254	1.066769	-0.527890
C137	C	0.817757	1.082423	-0.488213
H138	H	0.850186	1.088782	-0.576812
H139	H	0.938909	1.005599	-0.500975
H140	H	0.919787	1.095325	-0.532802
H141	H	0.785230	1.053862	-0.483296
H142	H	0.766084	1.143605	-0.515134
C143	C	1.269319	0.314554	0.481042
C144	C	1.375217	0.272448	0.488313
H145	H	1.262545	0.292561	0.529960
H146	H	1.236802	0.303927	0.454127
H147	H	1.236795	0.375730	0.454116
H148	H	1.407740	0.211272	0.515233
H149	H	1.407748	0.283067	0.515239
C150	C	0.688329	1.015002	-0.391919
C151	C	0.676840	0.946413	-0.352226
H152	H	0.755632	0.993029	-0.396889
H153	H	0.680540	1.040253	-0.364982
H154	H	0.636616	1.058233	-0.440812
H155	H	0.728549	0.903184	-0.303331
H156	H	0.684640	0.921149	-0.379162
H157	H	1.576167	0.281690	0.072012
H158	H	1.031516	0.533437	-0.649782
C159	C	0.741596	0.172561	0.032850
C160	C	0.817765	0.082386	0.083345
H161	H	0.704537	0.194544	0.059778
H162	H	0.694468	0.183175	-0.004692
H163	H	0.774132	0.201119	0.009230
H164	H	0.785228	0.053826	0.106962
H165	H	0.864900	0.071764	0.120901
H166	H	1.557941	0.222939	0.000009
C167	C	0.192197	1.172019	-0.451278
C168	C	0.281368	1.150442	-0.472909
H169	H	0.131664	1.215987	-0.495242
H170	H	0.192218	1.193253	-0.421969
H171	H	0.192228	1.121451	-0.421962
H172	H	0.281340	1.201009	-0.502220
H173	H	0.281346	1.129211	-0.502230
H174	H	1.216175	0.399281	-0.071956
H175	H	1.377933	0.281743	-0.071971
H176	H	0.833299	0.955632	-0.350134
H177	H	1.576164	0.281721	0.323757
H178	H	1.031485	0.281708	-0.071942
H179	H	0.833341	0.399239	0.206238
C180	C	1.523164	0.366318	0.118181
C181	C	1.417248	0.408457	0.083358
H182	H	1.529987	0.388278	0.145126
H183	H	1.555661	0.376953	0.080631
H184	H	1.555672	0.305143	0.152413
H185	H	1.384742	0.469632	0.049121
H186	H	1.384737	0.397829	0.120912
C187	C	0.829299	0.208771	0.074959
C188	C	0.817779	0.272480	0.083341
H189	H	0.792231	0.186795	0.101881
H190	H	0.901138	0.162256	0.094556
H191	H	0.802324	0.234060	0.022755
H192	H	0.844761	0.247189	0.135545
H193	H	0.745925	0.319003	0.063747
H194	H	0.450457	0.955605	-0.206134
C195	C	1.094978	0.366394	0.429220
C196	C	1.047060	0.408506	0.352271
H197	H	1.132016	0.388394	0.434165
H198	H	1.142125	0.305228	0.452845
H199	H	1.043284	0.377015	0.452833
H200	H	1.098754	0.397879	0.328659
H201	H	0.999908	0.469687	0.328637
C202	C	0.392940	0.909148	-0.054347
C203	C	0.447571	0.946390	-0.083249
H204	H	0.386122	0.887163	-0.081268
H205	H	0.325648	0.952382	-0.060026
H206	H	0.430015	0.862631	-0.002146
H207	H	0.410493	0.992912	-0.135449
H208	H	0.514875	0.903152	-0.077577
C209	C	1.094975	0.040260	-0.118063
C210	C	1.047039	0.082385	-0.083241
H211	H	1.132043	0.062238	-0.144982
H212	H	1.043297	0.050888	-0.152311
H213	H	1.142109	-0.020915	-0.080509
H214	H	0.999900	0.143559	-0.120796
H215	H	1.098724	0.071763	-0.048990
H216	H	1.031470	-0.044400	-0.071938
H217	H	1.031520	0.533441	-0.532239
H218	H	0.932455	0.222932	0.454567
C219	C	1.642904	0.235783	0.472978
C220	C	1.583455	0.204453	0.472999
H221	H	1.703445	0.191806	0.516936
H222	H	1.602564	0.286321	0.472990
H223	H	1.663035	0.250456	0.428996
H224	H	1.563318	0.189787	0.516979
H225	H	1.623802	0.153899	0.472994
H226	H	0.288655	1.073168	-0.323662
C227	C	0.769907	-0.011567	0.118229
C228	C	0.817810	-0.053664	0.083380
H229	H	0.732894	-0.033586	0.145186
H230	H	0.722739	0.049599	0.080692
H231	H	0.821606	-0.022179	0.152454
H232	H	0.766110	-0.043047	0.049151
H233	H	0.864982	-0.114844	0.120922
H234	H	1.216240	0.399227	0.350232
H235	H	0.833358	0.281692	0.323810
H236	H	1.414361	0.399256	0.206227
H237	H	1.031475	0.955597	-0.206119
H238	H	0.833343	0.399261	0.072033
C239	C	0.390356	1.146157	-0.543540
C240	C	0.489599	1.082443	-0.488220
H241	H	0.397134	1.168143	-0.592458
H242	H	0.353324	1.192663	-0.537850
H243	H	0.353311	1.120868	-0.537837
H244	H	0.526642	1.107734	-0.493919
H245	H	0.526647	1.035928	-0.493913
H246	H	0.833293	0.821421	-0.350124
H247	H	0.833315	0.821414	-0.467665
H248	H	0.648643	0.955591	0.072040
H249	H	0.306877	1.131957	0.000051
H250	H	0.288652	1.073199	-0.071945
H251	H	0.833330	0.821396	-0.793772
C252	C	0.769838	0.913668	-0.755238
C253	C	0.817769	0.844013	-0.678290
H254	H	0.732784	0.967522	-0.760180
H255	H	0.722703	0.910371	-0.778861
H256	H	0.821526	0.910356	-0.778854
H257	H	0.766080	0.847321	-0.654674
H258	H	0.864908	0.847312	-0.654657
C259	C	1.035468	0.527589	-0.393695
C260	C	1.047060	0.510841	-0.321605
H261	H	1.072526	0.473730	-0.388745
H262	H	1.062405	0.560204	-0.420641
H263	H	0.963609	0.560179	-0.420583
H264	H	1.118918	0.478256	-0.294719
H265	H	1.020128	0.478211	-0.294647
H266	H	1.031492	0.533460	-0.206135
