data_functionalizedCrystal
_audit_creation_method	'MofGen! by Chris Wilmer'
_symmetry_space_group_name_H-M	'P1'
_symmetry_Int_Tables_number	1
_symmetry_cell_setting	triclinic
loop_
_symmetry_equiv_pos_as_xyz
  x,y,z
_cell_length_a	9.730223
_cell_length_b	17.699083
_cell_length_c	17.699083
_cell_angle_alpha	83.283015
_cell_angle_beta	89.997786
_cell_angle_gamma	90.005831
loop_
_atom_site_label
_atom_site_type_symbol
_atom_site_fract_x
_atom_site_fract_y
_atom_site_fract_z
O1	O	0.114100	-1.004071	-0.095708
O2	O	0.614100	-0.504071	0.404292
O3	O	0.114145	-0.783693	-0.108160
O4	O	0.614145	-0.283693	0.391840
O5	O	0.114109	-0.900109	0.008255
O6	O	0.614109	-0.400109	0.508255
O7	O	0.114136	-0.887656	-0.212123
O8	O	0.614136	-0.387656	0.287877
O9	O	-0.114471	-0.900107	0.008252
O10	O	0.385529	-0.400107	0.508252
O11	O	-0.114435	-0.783692	-0.108163
O12	O	0.385565	-0.283692	0.391837
O13	O	-0.114480	-1.004070	-0.095711
O14	O	0.385520	-0.504070	0.404289
Zn15	Zn	-0.150749	-0.893881	-0.101938
Zn16	Zn	0.349251	-0.393881	0.398062
Zn17	Zn	0.150415	-0.893882	-0.101934
Zn18	Zn	0.650415	-0.393882	0.398066
O19	O	-0.114444	-0.887655	-0.212126
O20	O	0.385556	-0.387655	0.287874
C21	C	-0.000139	-0.755495	-0.107716
C22	C	0.499861	-0.255495	0.392284
C23	C	-0.000122	-0.671477	-0.106377
C24	C	0.499878	-0.171477	0.393623
N25	N	-0.356286	-0.893885	-0.101940
N26	N	0.143714	-0.393885	0.398060
C27	C	-0.000181	-0.899662	0.036451
C28	C	0.499819	-0.399662	0.536451
C29	C	-0.000181	-0.898323	0.120469
C30	C	0.499819	-0.398323	0.620469
C31	C	-0.428228	-0.945447	-0.050408
C32	C	0.071772	-0.445447	0.449592
C33	C	-0.572111	-0.945445	-0.050399
C34	C	-0.072111	-0.445445	0.449601
C35	C	-0.572097	-0.842317	-0.153459
C36	C	-0.072097	-0.342317	0.346541
C37	C	-0.428217	-0.842316	-0.153464
C38	C	0.071783	-0.342316	0.346536
C39	C	-0.356297	-0.997016	0.001116
C40	C	0.143703	-0.497016	0.501116
C41	C	-0.428239	-1.048583	0.052652
C42	C	0.071761	-0.548583	0.552652
C43	C	-0.572122	-1.048581	0.052661
C44	C	-0.072122	-0.548581	0.552661
C45	C	-0.644063	-0.997012	0.001135
C46	C	-0.144063	-0.497012	0.501135
N47	N	0.355951	-0.893884	-0.101926
N48	N	0.855951	-0.393884	0.398074
C49	C	-0.000193	-1.032268	-0.096156
C50	C	0.499807	-0.532268	0.403844
C51	C	-0.000201	-1.116286	-0.097494
C52	C	0.499799	-0.616286	0.402506
C53	C	-0.000114	-0.622856	-0.174710
C54	C	0.499886	-0.122856	0.325290
C55	C	-0.000132	-0.543913	-0.173448
C56	C	0.499868	-0.043913	0.326552
C57	C	-0.000148	-0.513592	-0.103852
C58	C	0.499852	-0.013592	0.396148
C59	C	-0.000160	-0.562219	-0.035513
C60	C	0.499840	-0.062219	0.464487
C61	C	-0.000152	-0.641161	-0.036776
C62	C	0.499848	-0.141161	0.463224
C63	C	-0.000195	-0.243856	-0.030418
C64	C	0.499805	0.256144	0.469582
C65	C	-0.000199	-0.164908	-0.029160
C66	C	0.499801	0.335092	0.470840
C67	C	-0.000175	-0.146608	-0.167090
C68	C	0.499825	0.353392	0.332910
C69	C	-0.000167	-0.225550	-0.168353
C70	C	0.499833	0.274450	0.331647
C71	C	-0.000186	-0.274170	-0.100015
C72	C	0.499814	0.225830	0.399985
C73	C	-0.000169	-0.359769	-0.101384
C74	C	0.499831	0.140231	0.398616
C75	C	-0.000155	-0.427995	-0.102481
C76	C	0.499845	0.072005	0.397519
C77	C	-0.000151	-0.888102	-0.240322
C78	C	0.499849	-0.388102	0.259678
C79	C	-0.000142	-0.889440	-0.324340
C80	C	0.499858	-0.389440	0.175660
C81	C	-0.000197	-0.966656	0.169090
C82	C	0.499803	-0.466656	0.669090
C83	C	-0.000185	-0.965394	0.248033
C84	C	0.499815	-0.465394	0.748033
C85	C	-0.000166	-0.895798	0.278354
C86	C	0.499834	-0.395798	0.778354
C87	C	-0.000146	-0.827459	0.229727
C88	C	0.499854	-0.327459	0.729727
C89	C	-0.000149	-0.828722	0.150785
C90	C	0.499851	-0.328722	0.650785
C91	C	-0.000134	-0.822364	0.548090
C92	C	0.499866	-0.322364	1.048090
C93	C	-0.000135	-0.821106	0.627038
C94	C	0.499865	-0.321106	1.127038
C95	C	-0.000170	-0.959036	0.645338
C96	C	0.499830	-0.459036	1.145338
C97	C	-0.000173	-0.960299	0.566396
C98	C	0.499827	-0.460299	1.066396
C99	C	-0.000145	-0.891961	0.517776
C100	C	0.499855	-0.391961	1.017776
C101	C	-0.000156	-0.893330	0.432177
C102	C	0.499844	-0.393330	0.932177
C103	C	-0.000165	-0.894427	0.363951
C104	C	0.499835	-0.394427	0.863951
H105	H	-0.239140	-0.997024	0.001112
H106	H	0.260860	-0.497024	0.501112
H107	H	-0.630680	-0.800333	-0.195411
H108	H	-0.130680	-0.300333	0.304589
N109	N	-0.000171	-0.529526	0.039556
N110	N	0.499829	-0.029526	0.539556
H111	H	-0.084910	-0.547273	0.069485
H112	H	0.415090	-0.047273	0.569485
H113	H	-0.000117	-0.472144	0.029931
H114	H	0.499883	0.027856	0.529931
N115	N	-0.000092	-0.746036	0.659740
N116	N	0.499908	-0.246036	1.159740
H117	H	-0.000099	-0.755609	0.717127
H118	H	0.499901	-0.255609	1.217127
H119	H	-0.084816	-0.716133	0.641947
H120	H	0.415184	-0.216133	1.141947
H121	H	-0.000100	-0.647537	-0.231384
H122	H	0.499900	-0.147537	0.268616
N123	N	-0.000216	-0.296282	0.043292
N124	N	0.499784	0.203718	0.543292
H125	H	0.084513	-0.286536	0.073663
H126	H	0.584513	0.213464	0.573663
H127	H	-0.000269	-0.350873	0.031881
H128	H	0.499731	0.149127	0.531881
H129	H	-0.000185	-1.014680	0.684934
H130	H	0.499815	-0.514680	1.184934
N131	N	-0.350651	-1.104201	0.108220
N132	N	0.149349	-0.604201	0.608220
H133	H	-0.418063	-1.136864	0.140868
H134	H	0.081937	-0.636864	0.640868
H135	H	-0.290941	-1.075294	0.141642
H136	H	0.209059	-0.575294	0.641642
H137	H	-0.630696	-1.090563	0.094627
H138	H	-0.130696	-0.590563	0.594627
H139	H	-0.761222	-0.997010	0.001152
H140	H	-0.261222	-0.497010	0.501152
N141	N	-0.000110	-0.748660	0.495655
N142	N	0.499890	-0.248660	0.995655
H143	H	-0.000105	-0.704382	0.526845
H144	H	0.499895	-0.204382	1.026845
H145	H	-0.084846	-0.746178	0.462504
H146	H	0.415154	-0.246178	0.962504
H147	H	-0.000166	-0.107012	-0.222734
H148	H	0.499834	0.392988	0.277266
N149	N	-0.000218	-0.132203	0.045908
N150	N	0.499782	0.367797	0.545908
H151	H	-0.000233	-0.174982	0.089009
H152	H	0.499767	0.325018	0.589009
H153	H	-0.084957	-0.099852	0.049427
H154	H	0.415043	0.400148	0.549427
H155	H	-0.000122	-0.770792	0.254420
H156	H	0.499878	-0.270792	0.754420
H157	H	-0.000135	-0.773078	0.111198
H158	H	0.499865	-0.273078	0.611198
N159	N	-0.000171	-0.693606	0.036926
N160	N	0.499829	-0.193606	0.536926
H161	H	-0.000181	-0.662421	0.081207
H162	H	0.499819	-0.162421	0.581207
H163	H	0.084566	-0.726754	0.039411
H164	H	0.584566	-0.226754	0.539411
H165	H	-0.369641	-0.800329	-0.195425
H166	H	0.130359	-0.300329	0.304575
H167	H	-0.000201	-1.021038	0.287618
H168	H	0.499799	-0.521038	0.787618
H169	H	-0.000124	-0.504328	-0.229092
H170	H	0.499876	-0.004328	0.270908
H171	H	-0.000221	-1.023330	0.144409
H172	H	0.499779	-0.523330	0.644409
N173	N	-0.000131	-0.258253	-0.243417
N174	N	0.499869	0.241747	0.256583
H175	H	-0.000128	-0.215472	-0.286516
H176	H	0.499872	0.284528	0.213484
H177	H	-0.084862	-0.290617	-0.246949
H178	H	0.415138	0.209383	0.253051
H179	H	-0.000194	-1.016971	0.541714
H180	H	0.499806	-0.516971	1.041714
