data_functionalizedCrystal
_audit_creation_method	'MofGen! by Chris Wilmer'
_symmetry_space_group_name_H-M	'P1'
_symmetry_Int_Tables_number	1
_symmetry_cell_setting	triclinic
loop_
_symmetry_equiv_pos_as_xyz
  x,y,z
_cell_length_a	16.109302
_cell_length_b	14.044190
_cell_length_c	15.186229
_cell_angle_alpha	90.004941
_cell_angle_beta	90.007553
_cell_angle_gamma	88.326779
loop_
_atom_site_label
_atom_site_type_symbol
_atom_site_fract_x
_atom_site_fract_y
_atom_site_fract_z
O1	O	1.112201	0.121833	0.073279
O2	O	1.612201	0.621833	0.573279
O3	O	0.871267	0.136994	0.073273
O4	O	1.371267	0.636994	0.573273
O5	O	0.988114	-0.008570	0.073258
O6	O	1.488114	0.491430	0.573258
O7	O	0.995353	0.267397	0.073293
O8	O	1.495353	0.767397	0.573293
O9	O	0.988100	-0.008562	-0.073199
O10	O	1.488100	0.491438	0.426801
O11	O	0.871253	0.137003	-0.073184
O12	O	1.371253	0.637003	0.426816
O13	O	1.112186	0.121841	-0.073179
O14	O	1.612186	0.621841	0.426821
Zn15	Zn	0.991717	0.129423	-0.096435
Zn16	Zn	1.491717	0.629423	0.403565
Zn17	Zn	0.991736	0.129412	0.096529
Zn18	Zn	1.491736	0.629412	0.596529
O19	O	0.995339	0.267406	-0.073164
O20	O	1.495339	0.767406	0.426836
C21	C	0.840239	0.136384	0.000043
C22	C	1.340239	0.636384	0.500043
C23	C	0.747807	0.134543	0.000040
C24	C	1.247807	0.634543	0.500040
C25	C	0.535141	0.130289	-0.079785
C26	C	1.035141	0.630289	0.420215
C27	C	0.448292	0.128548	-0.079782
C28	C	0.948292	0.628548	0.420218
C29	C	0.448318	0.128544	0.079893
C30	C	0.948318	0.628544	0.579893
C31	C	0.535166	0.130278	0.079890
C32	C	1.035166	0.630278	0.579890
C33	C	0.578576	0.131155	0.000048
C34	C	1.078576	0.631155	0.500048
C35	C	0.404878	0.127681	0.000054
C36	C	0.904878	0.627681	0.500054
C37	C	0.310712	0.125793	0.000058
C38	C	0.810712	0.625793	0.500058
C39	C	0.672748	0.133040	0.000044
C40	C	1.172748	0.633040	0.500044
C41	C	0.984940	-0.043879	0.000027
C42	C	1.484940	0.456121	0.500027
C43	C	0.975494	-0.149103	0.000019
C44	C	1.475494	0.350897	0.500019
C45	C	1.025219	-0.399404	0.000055
C46	C	1.525219	0.100596	0.500055
C47	C	0.958238	-0.341755	0.000047
C48	C	1.458238	0.158245	0.500047
C49	C	0.967842	-0.234553	0.000032
C50	C	1.467842	0.265447	0.500032
C51	C	1.015617	-0.506616	0.000070
C52	C	1.515617	-0.006616	0.500070
C53	C	1.143214	0.122451	0.000053
C54	C	1.643214	0.622451	0.500053
C55	C	1.235646	0.124293	0.000062
C56	C	1.735646	0.624293	0.500062
C57	C	0.998513	0.302715	0.000069
C58	C	1.498513	0.802715	0.500069
C59	C	1.007959	0.407938	0.000083
C60	C	1.507959	0.907938	0.500083
N61	N	0.991710	0.129430	-0.228127
N62	N	1.491710	0.629430	0.271873
C63	C	1.046413	0.186922	-0.453841
C64	C	1.546413	0.686922	0.046159
C65	C	1.046421	0.186915	-0.546031
C66	C	1.546421	0.686915	-0.046031
C67	C	0.937044	0.071900	-0.546058
C68	C	1.437044	0.571900	-0.046058
C69	C	0.937040	0.071902	-0.453870
C70	C	1.437040	0.571902	0.046130
C71	C	0.991723	0.129419	-0.407764
C72	C	1.491723	0.629419	0.092236
C73	C	0.991736	0.129409	-0.592142
C74	C	1.491736	0.629409	-0.092142
C75	C	0.991745	0.129402	-0.692098
C76	C	1.491745	0.629402	-0.192098
C77	C	0.991716	0.129425	-0.307802
C78	C	1.491716	0.629425	0.192198
N79	N	0.991749	0.129398	0.228222
N80	N	1.491749	0.629398	0.728222
H81	H	0.412931	0.127843	-0.144790
H82	H	0.912931	0.627843	0.355210
C83	C	0.877703	0.009564	-0.596274
C84	C	1.377703	0.509564	-0.096274
C85	C	0.889346	0.021939	-0.686872
C86	C	1.389346	0.521939	-0.186872
C87	C	0.834685	-0.035458	-0.733155
C88	C	1.334685	0.464542	-0.233155
H89	H	0.888312	-0.055325	-0.581308
H90	H	1.388312	0.444675	-0.081308
H91	H	0.822108	0.027139	-0.581189
H92	H	1.322108	0.527139	-0.081189
H93	H	0.944928	0.004359	-0.701952
H94	H	1.444928	0.504359	-0.201952
H95	H	0.878730	0.086816	-0.701864
H96	H	1.378730	0.586816	-0.201864
H97	H	0.779091	-0.017883	-0.718069
H98	H	1.279091	0.482117	-0.218069
H99	H	0.845299	-0.100343	-0.718182
H100	H	1.345299	0.399657	-0.218182
H101	H	0.842572	-0.027063	-0.794630
H102	H	1.342572	0.472937	-0.294630
C103	C	0.582278	0.131415	0.166598
C104	C	1.082278	0.631415	0.666598
C105	C	0.557871	0.212504	0.214764
C106	C	1.057871	0.712504	0.714764
C107	C	0.601261	0.213587	0.294634
C108	C	1.101261	0.713587	0.794634
H109	H	0.570328	0.075955	0.199503
H110	H	1.070328	0.575955	0.699503
H111	H	0.640225	0.132622	0.155196
H112	H	1.140225	0.632622	0.655196
H113	H	0.499938	0.211289	0.226169
H114	H	0.999938	0.711289	0.726169
H115	H	0.569823	0.267978	0.181886
H116	H	1.069823	0.767978	0.681886
H117	H	0.659207	0.214794	0.283233
H118	H	1.159207	0.714794	0.783233
H119	H	0.589307	0.158123	0.327532
H120	H	1.089307	0.658123	0.827532
H121	H	0.584712	0.268609	0.327321
H122	H	1.084712	0.768609	0.827321
H123	H	0.892505	0.025071	-0.416353
H124	H	1.392505	0.525071	0.083647
C125	C	0.582308	0.131426	-0.166441
C126	C	1.082308	0.631426	0.333559
C127	C	0.628841	0.213931	-0.171118
C128	C	1.128841	0.713931	0.328882
C129	C	0.672290	0.215014	-0.250940
C130	C	1.172290	0.715014	0.249060
H131	H	0.618495	0.076927	-0.169851
H132	H	1.118495	0.576927	0.330149
H133	H	0.544022	0.130710	-0.214011
H134	H	1.044022	0.630710	0.285989
H135	H	0.667123	0.214638	-0.123561
H136	H	1.167123	0.714638	0.376439
H137	H	0.592674	0.268444	-0.167724
H138	H	1.092674	0.768444	0.332276
H139	H	0.634004	0.214298	-0.298510
H140	H	1.134004	0.714298	0.201490
H141	H	0.708472	0.160511	-0.254342
H142	H	1.208472	0.660511	0.245658
H143	H	0.703861	0.270997	-0.254127
H144	H	1.203861	0.770997	0.245873
H145	H	1.089770	-0.368250	0.000047
H146	H	1.589770	0.131750	0.500047
H147	H	0.412964	0.127831	0.144898
H148	H	0.912964	0.627831	0.644898
H149	H	0.893681	-0.372910	0.000051
H150	H	1.393681	0.127090	0.500051
H151	H	1.090940	0.233755	-0.416305
H152	H	1.590940	0.733755	0.083695
C153	C	1.105831	0.249453	-0.595899
C154	C	1.605831	0.749453	-0.095899
C155	C	1.153702	0.299837	-0.535785
C156	C	1.653702	0.799837	-0.035785
C157	C	1.208435	0.357467	-0.581690
C158	C	1.708435	0.857467	-0.081690
H159	H	1.141293	0.210724	-0.631858
H160	H	1.641293	0.710724	-0.131858
H161	H	1.075018	0.293113	-0.631847
H162	H	1.575018	0.793113	-0.131847
H163	H	1.184513	0.256183	-0.499852
H164	H	1.684513	0.756183	0.000148
H165	H	1.118262	0.338584	-0.499824
H166	H	1.618262	0.838584	0.000176
H167	H	1.177622	0.401127	-0.617639
H168	H	1.677622	0.901127	-0.117639
H169	H	1.243891	0.318731	-0.617648
H170	H	1.743891	0.818731	-0.117648
H171	H	1.240916	0.391666	-0.540911
H172	H	1.740916	0.891666	-0.040911
