data_functionalizedCrystal
_audit_creation_method	'MofGen! by Chris Wilmer'
_symmetry_space_group_name_H-M	'P1'
_symmetry_Int_Tables_number	1
_symmetry_cell_setting	triclinic
loop_
_symmetry_equiv_pos_as_xyz
  x,y,z
_cell_length_a	16.120297
_cell_length_b	10.685972
_cell_length_c	10.685194
_cell_angle_alpha	98.378795
_cell_angle_beta	91.720017
_cell_angle_gamma	91.721091
loop_
_atom_site_label
_atom_site_type_symbol
_atom_site_fract_x
_atom_site_fract_y
_atom_site_fract_z
Zn1	Zn	-0.545205	-1.856615	0.402082
Zn2	Zn	-0.395475	-1.852690	0.601927
Zn3	Zn	-0.395477	-1.656789	0.405929
Zn4	Zn	-0.522191	-1.629999	0.628643
O5	O	-0.464587	-1.749023	0.509645
O6	O	-0.534974	-2.032919	0.415801
O7	O	-0.279782	-1.836273	0.566356
O8	O	-0.424972	-1.696150	0.228577
O9	O	-0.424967	-2.030036	0.562626
O10	O	-0.534976	-1.842961	0.225751
O11	O	-0.279784	-1.692345	0.422358
O12	O	-0.402655	-1.476411	0.448264
O13	O	-0.640936	-1.650491	0.608160
O14	O	-0.495751	-1.456728	0.611891
O15	O	-0.657845	-1.816984	0.441707
O16	O	-0.402651	-1.810296	0.782313
O17	O	-0.495749	-1.646686	0.801941
C18	C	-0.446707	-1.420721	0.533395
C19	C	-0.439075	-1.280267	0.543587
C20	C	-0.680227	-1.731187	0.527485
C21	C	-0.772120	-1.723586	0.535087
C22	C	-0.940370	-1.709665	0.548942
C23	C	-0.989690	-1.788658	0.469953
C24	C	-1.083310	-1.780912	0.477661
C25	C	-0.846741	-1.717409	0.541235
C26	C	-0.249795	-1.766869	0.491779
C27	C	-0.157935	-1.774741	0.483803
C28	C	-0.446722	-1.725191	0.837979
C29	C	-0.439113	-1.715108	0.978436
C30	C	-0.482534	-1.078609	0.485796
C31	C	-0.490173	-1.219061	0.475610
C32	C	-0.482542	-1.772982	0.180029
C33	C	-0.490193	-1.783192	0.039565
H34	H	-0.539758	-1.274111	0.409607
H35	H	-0.389483	-1.225212	0.609586
H36	H	-0.961603	-1.862102	0.396537
H37	H	-0.968455	-1.636227	0.622351
Cl38	Cl	-0.566707	-1.885101	0.954472
Cl39	Cl	-0.362604	-1.613180	1.063536
