data_functionalizedCrystal
_audit_creation_method	'MofGen! by Chris Wilmer'
_symmetry_space_group_name_H-M	'P1'
_symmetry_Int_Tables_number	1
_symmetry_cell_setting	triclinic
loop_
_symmetry_equiv_pos_as_xyz
  x,y,z
_cell_length_a	14.044191
_cell_length_b	14.044220
_cell_length_c	7.681481
_cell_angle_alpha	83.732834
_cell_angle_beta	96.250963
_cell_angle_gamma	93.190327
loop_
_atom_site_label
_atom_site_type_symbol
_atom_site_fract_x
_atom_site_fract_y
_atom_site_fract_z
O1	O	1.268914	0.238471	-0.146353
O2	O	1.602247	0.571804	0.186980
O3	O	1.935581	0.905137	0.520313
O4	O	0.992240	0.230159	-0.146375
O5	O	1.325574	0.563493	0.186958
O6	O	1.658907	0.896826	0.520291
O7	O	1.126425	0.095978	-0.146347
O8	O	1.459759	0.429312	0.186986
O9	O	1.793092	0.762645	0.520320
O10	O	1.134729	0.372652	-0.146381
O11	O	1.468062	0.705985	0.186952
O12	O	1.801396	1.039319	0.520285
O13	O	1.142938	0.079422	0.146514
O14	O	1.476271	0.412755	0.479847
O15	O	1.809605	0.746089	0.813181
O16	O	1.008753	0.213603	0.146486
O17	O	1.342086	0.546936	0.479819
O18	O	1.675420	0.880270	0.813153
O19	O	1.285427	0.221915	0.146508
O20	O	1.618760	0.555248	0.479841
O21	O	1.952093	0.888581	0.813175
Zn22	Zn	1.149711	0.215130	0.192995
Zn23	Zn	1.483045	0.548464	0.526328
Zn24	Zn	1.816378	0.881797	0.859662
Zn25	Zn	1.127956	0.236944	-0.192862
Zn26	Zn	1.461289	0.570277	0.140471
Zn27	Zn	1.794622	0.903610	0.473804
O28	O	1.151242	0.356096	0.146480
O29	O	1.484575	0.689429	0.479813
O30	O	1.817908	1.022762	0.813147
C31	C	0.964875	0.218245	0.000053
C32	C	1.298208	0.551578	0.333386
C33	C	1.631541	0.884912	0.666719
C34	C	0.858731	0.207398	0.000045
C35	C	1.192064	0.540731	0.333378
C36	C	1.525398	0.874065	0.666712
C37	C	0.613273	0.264498	0.000055
C38	C	0.946606	0.597831	0.333389
C39	C	1.279940	0.931165	0.666722
C40	C	0.664399	0.187581	0.000062
C41	C	0.997732	0.520915	0.333395
C42	C	1.331066	0.854248	0.666729
C43	C	0.772535	0.198610	0.000052
C44	C	1.105869	0.531943	0.333386
C45	C	1.439202	0.865277	0.666719
C46	C	0.505127	0.253471	0.000065
C47	C	0.838460	0.586804	0.333398
C48	C	1.171794	0.920137	0.666732
C49	C	1.131046	0.052078	0.000084
C50	C	1.464379	0.385412	0.333417
C51	C	1.797713	0.718745	0.666751
C52	C	1.120201	-0.054065	0.000085
C53	C	1.453535	0.279268	0.333419
C54	C	1.786868	0.612602	0.666752
C55	C	1.100374	-0.248402	0.000058
C56	C	1.433707	0.084932	0.333392
C57	C	1.767040	0.418265	0.666725
C58	C	1.177288	-0.299530	0.000059
C59	C	1.510622	0.033804	0.333392
C60	C	1.843955	0.367137	0.666726
C61	C	1.166256	-0.407665	0.000044
C62	C	1.499589	-0.074332	0.333377
C63	C	1.832922	0.259001	0.666711
C64	C	1.111405	-0.140256	0.000073
C65	C	1.444738	0.193077	0.333407
C66	C	1.778071	0.526411	0.666740
C67	C	1.312792	0.233829	0.000076
C68	C	1.646126	0.567163	0.333409
C69	C	1.979459	0.900496	0.666743
C70	C	1.418935	0.244677	0.000072
C71	C	1.752268	0.578010	0.333406
C72	C	2.085602	0.911343	0.666739
C73	C	1.146621	0.399996	0.000045
C74	C	1.479954	0.733329	0.333378
C75	C	1.813287	1.066663	0.666712
C76	C	1.157465	0.506140	0.000032
C77	C	1.490798	0.839473	0.333365
C78	C	1.824131	1.172806	0.666699
N79	N	1.164566	0.200243	0.456332
N80	N	1.497900	0.533576	0.789666
N81	N	1.831233	0.866910	1.122999
N82	N	1.113108	0.251824	-0.456200
N83	N	1.446441	0.585157	-0.122866
N84	N	1.779774	0.918491	0.210467
H85	H	0.650713	0.338625	0.000041
H86	H	0.984047	0.671959	0.333374
H87	H	1.317380	1.005292	0.666708
H88	H	1.251416	-0.262082	-0.000053
H89	H	1.584749	0.071251	0.333280
H90	H	1.918082	0.404585	0.666613
H91	H	1.026245	-0.285840	0.000048
H92	H	1.359579	0.047494	0.333381
H93	H	1.692912	0.380827	0.666715
Br94	Br	0.601997	0.064019	0.000081
Br95	Br	0.935331	0.397353	0.333414
Br96	Br	1.268664	0.730686	0.666748
Br97	Br	1.025554	0.339580	0.418453
Br98	Br	1.358888	0.672913	0.751786
Br99	Br	1.692221	1.006247	1.085119
H100	H	1.217106	0.147599	0.531549
H101	H	1.550440	0.480932	0.864883
H102	H	1.883773	0.814265	1.198216
