data_functionalizedCrystal
_audit_creation_method	'MofGen! by Chris Wilmer'
_symmetry_space_group_name_H-M	'P1'
_symmetry_Int_Tables_number	1
_symmetry_cell_setting	triclinic
loop_
_symmetry_equiv_pos_as_xyz
  x,y,z
_cell_length_a	14.044209
_cell_length_b	14.044220
_cell_length_c	12.503572
_cell_angle_alpha	93.843168
_cell_angle_beta	86.165405
_cell_angle_gamma	93.188415
loop_
_atom_site_label
_atom_site_type_symbol
_atom_site_fract_x
_atom_site_fract_y
_atom_site_fract_z
O1	O	-1.282200	-0.225107	0.089194
O2	O	-0.782200	0.274893	0.589194
O3	O	-1.005530	-0.216802	0.089225
O4	O	-0.505530	0.283198	0.589225
O5	O	-1.139711	-0.082619	0.089199
O6	O	-0.639711	0.417381	0.589199
O7	O	-1.148018	-0.359289	0.089220
O8	O	-0.648018	0.140711	0.589220
O9	O	-1.129622	-0.092729	-0.089441
O10	O	-0.629622	0.407271	0.410559
O11	O	-0.995440	-0.226911	-0.089415
O12	O	-0.495440	0.273089	0.410585
O13	O	-1.272110	-0.235216	-0.089446
O14	O	-0.772110	0.264784	0.410554
Cu15	Cu	-1.132854	-0.231987	-0.105742
Cu16	Cu	-0.632854	0.268013	0.394258
Cu17	Cu	-1.144786	-0.220031	0.105521
Cu18	Cu	-0.644786	0.279969	0.605521
O19	O	-1.137928	-0.369399	-0.089420
O20	O	-0.637928	0.130601	0.410580
C21	C	-0.964863	-0.218221	-0.000092
C22	C	-0.464863	0.281779	0.499908
C23	C	-0.858721	-0.207376	-0.000080
C24	C	-0.358721	0.292624	0.499920
N25	N	-1.124468	-0.240396	-0.254333
N26	N	-0.624468	0.259604	0.245667
C27	C	-1.131031	-0.052052	-0.000121
C28	C	-0.631031	0.447948	0.499879
C29	C	-1.120186	0.054091	-0.000121
C30	C	-0.620186	0.554091	0.499879
C31	C	-0.664382	-0.187553	-0.000101
C32	C	-0.164382	0.312447	0.499899
C33	C	-0.613252	-0.264468	-0.000099
C34	C	-0.113252	0.235532	0.499901
C35	C	-0.505116	-0.253437	-0.000110
C36	C	-0.005116	0.246563	0.499890
C37	C	-0.772529	-0.198581	-0.000089
C38	C	-0.272529	0.301419	0.499911
C39	C	-0.312777	-0.233799	-0.000124
C40	C	0.187223	0.266201	0.499876
C41	C	-0.418919	-0.244648	-0.000119
C42	C	0.081081	0.255352	0.499881
C43	C	-1.146609	-0.399966	-0.000098
C44	C	-0.646609	0.100034	0.499902
C45	C	-1.157454	-0.506108	-0.000091
C46	C	-0.657454	-0.006108	0.499909
C47	C	-1.100361	0.248429	-0.000103
C48	C	-0.600361	0.748429	0.499897
C49	C	-1.177275	0.299559	-0.000108
C50	C	-0.677275	0.799559	0.499892
C51	C	-1.166244	0.407696	-0.000099
C52	C	-0.666244	0.907696	0.499901
C53	C	-1.111391	0.140283	-0.000113
C54	C	-0.611391	0.640283	0.499887
C55	C	-1.112133	-0.252774	-0.473445
C56	C	-0.612133	0.247226	0.026555
C57	C	-1.165511	-0.199240	-0.526783
C58	C	-0.665511	0.300760	-0.026783
C59	C	-1.158647	-0.206127	-0.648705
C60	C	-0.658647	0.293873	-0.148705
C61	C	-1.118995	-0.245888	-0.351512
C62	C	-0.618995	0.254112	0.148488
N63	N	-1.153179	-0.211615	0.254111
N64	N	-0.653179	0.288385	0.754111
H65	H	-0.626945	-0.113426	-0.000111
H66	H	-0.126945	0.386574	0.499889
H67	H	-1.251412	0.262124	-0.000045
H68	H	-0.751412	0.762124	0.499955
H69	H	-1.061285	-0.303776	-0.519343
H70	H	-0.561285	0.196224	-0.019343
N71	N	-1.002167	0.298011	-0.000091
N72	N	-0.502167	0.798011	0.499909
H73	H	-1.008108	0.369351	-0.000089
H74	H	-0.508108	0.869351	0.499911
H75	H	-0.962620	0.275139	-0.066317
H76	H	-0.462620	0.775139	0.433683
H77	H	-0.650692	-0.338600	-0.000089
H78	H	-0.150692	0.161400	0.499911
H79	H	-1.216363	-0.148236	-0.480879
H80	H	-0.716363	0.351764	0.019121
