data_functionalizedCrystal
_audit_creation_method	'MofGen! by Chris Wilmer'
_symmetry_space_group_name_H-M	'P1'
_symmetry_Int_Tables_number	1
_symmetry_cell_setting	triclinic
loop_
_symmetry_equiv_pos_as_xyz
  x,y,z
_cell_length_a	29.917948
_cell_length_b	29.917021
_cell_length_c	29.913391
_cell_angle_alpha	60.005297
_cell_angle_beta	60.010472
_cell_angle_gamma	59.993667
loop_
_atom_site_label
_atom_site_type_symbol
_atom_site_fract_x
_atom_site_fract_y
_atom_site_fract_z
O1	O	0.061938	-0.653075	0.546110
O2	O	0.561938	-0.153075	1.046110
O3	O	0.023328	-0.508466	0.440017
O4	O	0.523328	-0.008466	0.940017
O5	O	0.114898	-0.599963	0.439941
O6	O	0.614898	-0.099963	0.939941
O7	O	-0.029633	-0.561578	0.546186
O8	O	0.470367	-0.061578	1.046186
O9	O	0.145278	-0.569587	0.470242
O10	O	0.645278	-0.069587	0.970242
O11	O	0.053708	-0.478090	0.470318
O12	O	0.553708	0.021910	0.970318
O13	O	0.092318	-0.622699	0.576411
O14	O	0.592318	-0.122699	1.076411
Zn15	Zn	0.077836	-0.545572	0.528175
Zn16	Zn	0.577836	-0.045572	1.028175
Zn17	Zn	0.037809	-0.585593	0.488253
Zn18	Zn	0.537809	-0.085593	0.988253
O19	O	0.000747	-0.531202	0.576487
O20	O	0.500747	-0.031202	1.076487
N21	N	0.105154	-0.518262	0.555424
N22	N	0.605154	-0.018262	1.055424
N23	N	0.010496	-0.612908	0.461004
N24	N	0.510496	-0.112908	0.961004
C25	C	0.164136	-0.309209	0.614352
C26	C	0.664136	0.190791	1.114352
C27	C	0.164251	-0.459335	0.764424
C28	C	0.664251	0.040665	1.264424
C29	C	0.164150	-0.459313	0.614341
C30	C	0.664150	0.040687	1.114341
C31	C	0.314282	-0.459305	0.614278
C32	C	0.814282	0.040695	1.114278
C33	C	0.180666	-0.358742	0.630849
C34	C	0.680666	0.141258	1.130849
C35	C	0.180732	-0.442815	0.714891
C36	C	0.680732	0.057185	1.214891
C37	C	0.264747	-0.442797	0.630809
C38	C	0.764747	0.057203	1.130809
C39	C	0.180676	-0.442802	0.630843
C40	C	0.680676	0.057198	1.130843
C41	C	0.143097	-0.246161	0.593354
C42	C	0.643097	0.253839	1.093354
C43	C	0.143120	-0.480326	0.593337
C44	C	0.643120	0.019674	1.093337
C45	C	0.201706	-0.421790	0.651848
C46	C	0.701706	0.078210	1.151848
C47	C	0.405963	-0.443499	0.565998
C48	C	0.905963	0.056501	1.065998
C49	C	0.463273	-0.462598	0.546874
C50	C	0.963273	0.037402	1.046874
C51	C	0.463297	-0.555329	0.582235
C52	C	0.963297	-0.055329	1.082235
C53	C	0.405988	-0.536228	0.601360
C54	C	0.905988	-0.036228	1.101360
C55	C	0.156905	-0.217495	0.537012
C56	C	0.656905	0.282505	1.037012
C57	C	0.137776	-0.160180	0.517926
C58	C	0.637776	0.339820	1.017926
C59	C	0.091035	-0.160201	0.611524
C60	C	0.591035	0.339799	1.111524
C61	C	0.110164	-0.217516	0.630611
C62	C	0.610164	0.282484	1.130611
C63	C	0.086772	-0.466488	0.607209
C64	C	0.586772	0.033512	1.107209
C65	C	0.067659	-0.485590	0.588108
C66	C	0.567659	0.014410	1.088108
C67	C	0.161236	-0.532368	0.541277
C68	C	0.661236	-0.032368	1.041277
C69	C	0.180352	-0.513266	0.560371
C70	C	0.680352	-0.013266	1.060371
C71	C	0.086942	-0.466529	0.856152
C72	C	0.586942	0.033471	1.356152
C73	C	0.067877	-0.485647	0.913465
C74	C	0.567877	0.014353	1.413465
C75	C	0.161489	-0.532436	0.913415
C76	C	0.661489	-0.032436	1.413415
C77	C	0.180552	-0.513318	0.856101
C78	C	0.680552	-0.013318	1.356101
C79	C	0.143277	-0.480363	0.827471
C80	C	0.643277	0.019637	1.327471
C81	C	0.377323	-0.480313	0.593239
C82	C	0.877323	0.019687	1.093239
C83	C	-0.111377	-0.650681	0.422736
C84	C	0.388623	-0.150681	0.922736
C85	C	-0.027364	-0.650787	0.422929
C86	C	0.472636	-0.150787	0.922929
C87	C	-0.048335	-0.671770	0.401835
C88	C	0.451665	-0.171770	0.901835
C89	C	-0.064214	-0.763416	0.450041
C90	C	0.435786	-0.263416	0.950041
C91	C	-0.045160	-0.820731	0.469172
C92	C	0.454840	-0.320731	0.969172
C93	C	0.047573	-0.820841	0.433980
C94	C	0.547573	-0.320841	0.933980
C95	C	0.028517	-0.763527	0.414847
C96	C	0.528517	-0.263527	0.914847
C97	C	-0.140115	-0.664483	0.479060
C98	C	0.359885	-0.164483	0.979060
C99	C	-0.197425	-0.645309	0.498058
C100	C	0.302575	-0.145309	0.998058
C101	C	-0.197256	-0.598535	0.404405
C102	C	0.302744	-0.098535	0.904405
C103	C	-0.139946	-0.617709	0.385407
C104	C	0.360054	-0.117709	0.885407
C105	C	-0.041168	-0.594444	0.409067
C106	C	0.458832	-0.094444	0.909067
C107	C	-0.022104	-0.575374	0.428250
C108	C	0.477896	-0.075374	0.928250
C109	C	0.024568	-0.668986	0.475143
C110	C	0.524568	-0.168986	0.975143
C111	C	0.005504	-0.688059	0.455967
C112	C	0.505504	-0.188059	0.955967
C113	C	-0.041000	-0.594453	0.310105
C114	C	0.459000	-0.094453	0.810105
C115	C	-0.021803	-0.575386	0.252792
C116	C	0.478197	-0.075386	0.752792
C117	C	0.024951	-0.669004	0.252854
C118	C	0.524951	-0.169004	0.752854
C119	C	0.005755	-0.688070	0.310168
C120	C	0.505755	-0.188070	0.810168
C121	C	-0.027222	-0.650793	0.338792
C122	C	0.472778	-0.150793	0.838792
C123	C	-0.027377	-0.734817	0.422881
C124	C	0.472623	-0.234817	0.922881
N125	N	0.491125	-0.518235	0.555255
N126	N	0.991125	-0.018235	1.055255
O127	O	0.678406	-0.527360	0.420422
O128	O	1.178406	-0.027360	0.920422
O129	O	0.678588	-0.633782	0.564887
O130	O	1.178588	-0.133782	1.064887
O131	O	0.678516	-0.633539	0.473265
O132	O	1.178516	-0.133539	0.973265
O133	O	0.678478	-0.527602	0.512044
O134	O	1.178478	-0.027602	1.012044
O135	O	0.587469	-0.603251	0.503685
O136	O	1.087469	-0.103251	1.003685
O137	O	0.587541	-0.603493	0.595307
O138	O	1.087541	-0.103493	1.095307
O139	O	0.587359	-0.497071	0.450842
O140	O	1.087359	0.002929	0.950842
Zn141	Zn	0.572994	-0.545473	0.527905
Zn142	Zn	1.072994	-0.045473	1.027905
Zn143	Zn	0.692953	-0.585380	0.487825
Zn144	Zn	1.192953	-0.085380	0.987825
O145	O	0.587431	-0.497313	0.542465
O146	O	1.087431	0.002687	1.042465
N147	N	0.774821	-0.612618	0.460470
N148	N	1.274821	-0.112618	0.960470
N149	N	0.105125	-0.132348	0.555445
N150	N	0.605125	0.367652	1.055445
O151	O	-0.029633	0.055031	0.546198
O152	O	0.470367	0.555031	1.046198
O153	O	0.114837	0.055047	0.439777
O154	O	0.614837	0.555047	0.939777
O155	O	0.023189	0.055024	0.440050
O156	O	0.523189	0.555024	0.940050
O157	O	0.062016	0.055054	0.545925
O158	O	0.562016	0.555054	1.045925
O159	O	0.053572	-0.036031	0.470398
O160	O	0.553572	0.463969	0.970398
O161	O	0.145220	-0.036008	0.470125
O162	O	0.645220	0.463992	0.970125
O163	O	0.000750	-0.036024	0.576546
O164	O	0.500750	0.463976	1.076546
Zn165	Zn	0.077809	-0.050473	0.528154
Zn166	Zn	0.577809	0.449527	1.028154
Zn167	Zn	0.037778	0.069496	0.488169
Zn168	Zn	0.537778	0.569496	0.988169
O169	O	0.092399	-0.036001	0.576273
O170	O	0.592399	0.463999	1.076273
N171	N	0.010456	0.151371	0.460879
N172	N	0.510456	0.651371	0.960879
N173	N	0.105414	-0.518315	0.941279
N174	N	0.605414	-0.018315	1.441279
O175	O	0.096182	-0.653057	1.128644
O176	O	0.596182	-0.153057	1.628644
O177	O	-0.010215	-0.508539	1.128670
O178	O	0.489785	-0.008539	1.628670
O179	O	-0.009968	-0.600172	1.128636
O180	O	0.490032	-0.100172	1.628636
O181	O	0.095935	-0.561424	1.128678
O182	O	0.595935	-0.061424	1.628678
O183	O	0.020367	-0.569808	1.037586
O184	O	0.520367	-0.069808	1.537586
O185	O	0.020121	-0.478175	1.037620
O186	O	0.520121	0.021825	1.537620
O187	O	0.126517	-0.622693	1.037594
O188	O	0.626517	-0.122693	1.537594
Zn189	Zn	0.078135	-0.545613	1.023151
Zn190	Zn	0.578135	-0.045613	1.523151
Zn191	Zn	0.038167	-0.585619	1.143113
Zn192	Zn	0.538167	-0.085619	1.643113
O193	O	0.126270	-0.531061	1.037628
O194	O	0.626270	-0.031061	1.537628
N195	N	0.010887	-0.612923	1.224985
N196	N	0.510887	-0.112923	1.724985
C197	C	0.034899	-0.475056	0.440551
C198	C	0.534899	0.024944	0.940551
C199	C	0.148298	-0.588365	0.440456
C200	C	0.648298	-0.088365	0.940456
C201	C	0.080746	-0.656109	0.575876
C202	C	0.580746	-0.156109	1.075876
C203	C	-0.032653	-0.542801	0.575971
C204	C	0.467347	-0.042801	1.075971
C205	C	0.633086	-0.633292	0.598298
C206	C	1.133086	-0.133292	1.098298
C207	C	0.632998	-0.632993	0.484834
C208	C	1.132998	-0.132993	0.984834
C209	C	0.632857	-0.497559	0.417433
C210	C	1.132857	0.002441	0.917433
C211	C	0.632949	-0.497860	0.530895
C212	C	1.132949	0.002140	1.030895
C213	C	0.148191	0.009634	0.440259
C214	C	0.648191	0.509634	0.940259
C215	C	0.034733	0.009493	0.440634
C216	C	0.534733	0.509493	0.940634
C217	C	-0.032641	0.009502	0.576027
C218	C	0.467359	0.509502	1.076027
C219	C	0.080854	0.009529	0.575690
C220	C	0.580854	0.509529	1.075690
C221	C	-0.009699	-0.475150	1.083148
C222	C	0.490301	0.024850	1.583148
C223	C	-0.009388	-0.588620	1.083088
C224	C	0.490612	-0.088620	1.583088
C225	C	0.126001	-0.656082	1.083116
C226	C	0.626001	-0.156082	1.583116
C227	C	0.125697	-0.542605	1.083155
C228	C	0.625697	-0.042605	1.583155
H229	H	0.022003	-0.474373	0.936811
H230	H	0.522003	0.025627	1.436811
H231	H	0.633132	-0.666701	0.639790
H232	H	1.133132	-0.166701	1.139790
H233	H	0.632941	-0.464583	0.539193
H234	H	1.132941	0.035417	1.039193
H235	H	0.088995	-0.697649	0.609197
H236	H	0.588995	-0.197649	1.109197
O237	O	0.197780	-0.598039	0.400583
O238	O	0.697780	-0.098039	0.900583
C239	C	0.253955	-0.561986	0.308298
C240	C	0.753955	-0.061986	0.808298
C241	C	0.197888	-0.550961	0.353402
C242	C	0.697888	-0.050961	0.853402
H243	H	0.254065	-0.523928	0.270146
H244	H	0.754065	-0.023928	0.770146
H245	H	0.261955	-0.597779	0.297974
H246	H	0.761955	-0.097779	0.797974
H247	H	0.287369	-0.572405	0.323401
H248	H	0.787369	-0.072405	0.823401
H249	H	0.164439	-0.540519	0.338336
H250	H	0.664439	-0.040519	0.838336
H251	H	0.189935	-0.515184	0.363719
H252	H	0.689935	-0.015184	0.863719
O253	O	0.165459	-0.532759	1.083088
O254	O	0.665459	-0.032759	1.583088
C255	C	0.256600	-0.527607	1.035904
C256	C	0.756600	-0.027607	1.535904
C257	C	0.211622	-0.538784	1.035919
C258	C	0.711622	-0.038784	1.535919
H259	H	0.293929	-0.532462	0.997765
H260	H	0.793929	-0.032462	1.497765
H261	H	0.268622	-0.557930	1.073980
H262	H	0.768622	-0.057930	1.573980
H263	H	0.240527	-0.484110	1.035941
H264	H	0.740527	0.015890	1.535941
H265	H	0.227656	-0.582266	1.035862
H266	H	0.727656	-0.082266	1.535862
H267	H	0.199606	-0.508427	0.997846
H268	H	0.699606	-0.008427	1.497846
H269	H	0.189596	0.009891	0.406765
H270	H	0.689596	0.509891	0.906765
O271	O	-0.082128	-0.533087	0.615844
O272	O	0.417872	-0.033087	1.115844
C273	C	-0.131052	-0.528135	0.707078
C274	C	0.368948	-0.028135	1.207078
C275	C	-0.074986	-0.539161	0.661974
C276	C	0.425014	-0.039161	1.161974
H277	H	-0.125298	-0.533031	0.744382
H278	H	0.374702	-0.033031	1.244382
H279	H	-0.150753	-0.558510	0.719096
H280	H	0.349247	-0.058510	1.219096
H281	H	-0.158620	-0.484657	0.691129
H282	H	0.341380	0.015343	1.191129
H283	H	-0.047375	-0.582623	0.677885
H284	H	0.452625	-0.082623	1.177885
H285	H	-0.055329	-0.508752	0.649963
H286	H	0.444671	-0.008752	1.149963
H287	H	-0.042644	-0.596897	1.083039
H288	H	0.457356	-0.096897	1.583039
O289	O	0.165787	-0.705634	1.083129
O290	O	0.665787	-0.205634	1.583129
C291	C	0.191253	-0.795809	1.083061
C292	C	0.691253	-0.295809	1.583061
C293	C	0.146144	-0.739722	1.083061
C294	C	0.646144	-0.239722	1.583061
H295	H	0.175393	-0.823381	1.082994
H296	H	0.675393	-0.323381	1.582994
H297	H	0.203195	-0.815516	1.121177
H298	H	0.703195	-0.315516	1.621177
H299	H	0.228587	-0.790037	1.044968
H300	H	0.728587	-0.290037	1.544968
H301	H	0.108781	-0.745446	1.121128
H302	H	0.608781	-0.245446	1.621128
H303	H	0.134249	-0.720034	1.044919
H304	H	0.634249	-0.220034	1.544919
H305	H	0.633014	-0.666272	0.476534
H306	H	1.133014	-0.166272	0.976534
O307	O	0.090726	0.009461	0.615444
O308	O	0.590726	0.509461	1.115444
C309	C	0.095929	-0.037727	0.706586
C310	C	0.595929	0.462273	1.206586
C311	C	0.084725	-0.037711	0.661615
C312	C	0.584725	0.462289	1.161615
H313	H	0.091094	-0.075867	0.743922
H314	H	0.591094	0.424133	1.243922
H315	H	0.065610	0.000351	0.718602
H316	H	0.565610	0.500351	1.218602
H317	H	0.139422	-0.037694	0.690507
H318	H	0.639422	0.462306	1.190507
H319	H	0.041248	-0.037763	0.677656
H320	H	0.541248	0.462237	1.177656
H321	H	0.115079	-0.075786	0.649605
H322	H	0.615079	0.424214	1.149605
H323	H	-0.043102	-0.433644	1.083156
H324	H	0.456898	0.066356	1.583156
H325	H	-0.074131	0.009496	0.609437
H326	H	0.425869	0.509496	1.109437
H327	H	0.026418	0.009490	0.407371
H328	H	0.526418	0.509490	0.907371
O329	O	0.050656	-0.434539	0.828428
O330	O	0.550656	0.065461	1.328428
C331	C	-0.044207	-0.390119	0.834531
C332	C	0.455793	0.109881	1.334531
C333	C	-0.003176	-0.426359	0.865996
C334	C	0.496824	0.073641	1.365996
H335	H	-0.087739	-0.383484	0.864891
H336	H	0.412261	0.116516	1.364891
H337	H	-0.037664	-0.411104	0.807712
H338	H	0.462336	0.088896	1.307712
H339	H	-0.037590	-0.348904	0.807688
H340	H	0.462410	0.151096	1.307688
H341	H	-0.009768	-0.467580	0.892869
H342	H	0.490232	0.032420	1.392869
H343	H	-0.009729	-0.405330	0.892780
H344	H	0.490271	0.094670	1.392780
O345	O	0.197772	-0.564459	0.941142
O346	O	0.697772	-0.064459	1.441142
C347	C	0.292634	-0.608828	0.935044
C348	C	0.792634	-0.108828	1.435044
C349	C	0.251605	-0.572561	0.903575
C350	C	0.751605	-0.072561	1.403575
H351	H	0.336167	-0.615380	0.904685
H352	H	0.836167	-0.115380	1.404685
H353	H	0.286091	-0.650080	0.961852
H354	H	0.786091	-0.150080	1.461852
H355	H	0.286015	-0.587839	0.961897
H356	H	0.786015	-0.087839	1.461897
H357	H	0.258200	-0.593501	0.876693
H358	H	0.758200	-0.093501	1.376693
H359	H	0.258159	-0.531310	0.876801
H360	H	0.758159	-0.031310	1.376801
H361	H	0.632798	-0.464146	0.375944
H362	H	1.132798	0.035854	0.875944
H363	H	0.056452	-0.439666	0.634048
H364	H	0.556452	0.060334	1.134048
O365	O	0.235275	-0.526823	0.828218
O366	O	0.735275	-0.026823	1.328218
C367	C	0.311128	-0.570881	0.763457
C368	C	0.811128	-0.070881	1.263457
C369	C	0.249152	-0.555634	0.795008
C370	C	0.749152	-0.055634	1.295008
H371	H	0.322366	-0.594167	0.736591
H372	H	0.822366	-0.094167	1.236591
H373	H	0.334520	-0.597746	0.793743
H374	H	0.834520	-0.097746	1.293743
H375	H	0.322376	-0.531978	0.736651
H376	H	0.822376	-0.031978	1.236651
H377	H	0.237854	-0.594506	0.821815
H378	H	0.737854	-0.094506	1.321815
H379	H	0.225795	-0.528748	0.764692
H380	H	0.725795	-0.028748	1.264692
H381	H	0.191560	-0.559196	0.514439
H382	H	0.691560	-0.059196	1.014439
O383	O	0.012927	-0.472086	0.601487
O384	O	0.512927	0.027914	1.101487
C385	C	-0.062993	-0.428009	0.568603
C386	C	0.437007	0.071991	1.068603
C387	C	-0.001006	-0.443257	0.553374
C388	C	0.498994	0.056743	1.053374
H389	H	-0.074275	-0.404708	0.529712
H390	H	0.425725	0.095292	1.029712
H391	H	-0.086347	-0.401158	0.595422
H392	H	0.413653	0.098842	1.095422
H393	H	-0.074241	-0.466912	0.591953
H394	H	0.425759	0.033088	1.091953
H395	H	0.010293	-0.404384	0.530004
H396	H	0.510293	0.095616	1.030004
H397	H	0.022314	-0.470129	0.526580
H398	H	0.522314	0.029871	1.026580
O399	O	0.235100	-0.526675	0.546800
O400	O	0.735100	-0.026675	1.046800
C401	C	0.320888	-0.522238	0.474103
C402	C	0.820888	-0.022238	0.974103
C403	C	0.258897	-0.507032	0.489398
C404	C	0.758897	-0.007032	0.989398
H405	H	0.340145	-0.506354	0.427695
H406	H	0.840145	-0.006354	0.927695
H407	H	0.340270	-0.568646	0.489859
H408	H	0.840270	-0.068646	0.989859
H409	H	0.328136	-0.502938	0.493442
H410	H	0.828136	-0.002938	0.993442
H411	H	0.251600	-0.526295	0.470064
H412	H	0.751600	-0.026295	0.970064
H413	H	0.239547	-0.460620	0.473652
H414	H	0.739547	0.039380	0.973652
O415	O	0.378198	-0.572004	0.627732
O416	O	0.878198	-0.072004	1.127732
C417	C	0.360702	-0.639408	0.622635
C418	C	0.860702	-0.139408	1.122635
C419	C	0.392195	-0.598899	0.592703
C420	C	0.892195	-0.098899	1.092703
H421	H	0.372016	-0.661172	0.594331
H422	H	0.872016	-0.161172	1.094331
H423	H	0.314809	-0.616184	0.634896
H424	H	0.814809	-0.116184	1.134896
H425	H	0.371995	-0.670886	0.660857
H426	H	0.871995	-0.170886	1.160857
H427	H	0.380948	-0.567412	0.554462
H428	H	0.880948	-0.067412	1.054462
H429	H	0.438081	-0.622160	0.580483
H430	H	0.938081	-0.122160	1.080483
O431	O	0.491073	-0.426803	0.520327
O432	O	0.991073	0.073197	1.020327
C433	C	0.508538	-0.347337	0.443093
C434	C	1.008538	0.152663	0.943093
C435	C	0.477030	-0.387843	0.473100
C436	C	0.977030	0.112157	0.973100
H437	H	0.497186	-0.315822	0.404911
H438	H	0.997186	0.184178	0.904911
H439	H	0.554429	-0.370563	0.430773
H440	H	1.054429	0.129437	0.930773
H441	H	0.497296	-0.325618	0.471408
H442	H	0.997296	0.174382	0.971408
H443	H	0.488226	-0.409574	0.444815
H444	H	0.988226	0.090426	0.944815
H445	H	0.431146	-0.364588	0.485428
H446	H	0.931146	0.135412	0.985428
O447	O	0.378091	-0.389174	0.558041
O448	O	0.878091	0.110826	1.058041
C449	C	0.313324	-0.307759	0.517966
C450	C	0.813324	0.192241	1.017966
C451	C	0.344861	-0.369275	0.526928
C452	C	0.844861	0.130725	1.026928
H453	H	0.286442	-0.291655	0.492820
H454	H	0.786442	0.208345	0.992820
H455	H	0.343617	-0.284696	0.495182
H456	H	0.843617	0.215304	0.995182
H457	H	0.286537	-0.301392	0.559302
H458	H	0.786537	0.198608	1.059302
H459	H	0.371650	-0.375693	0.485616
H460	H	0.871650	0.124307	0.985616
H461	H	0.314539	-0.392307	0.549738
H462	H	0.814539	0.107693	1.049738
H463	H	0.183721	-0.240813	0.506671
H464	H	0.683721	0.259187	1.006671
O465	O	0.151256	-0.132414	0.463176
O466	O	0.651256	0.367586	0.963176
C467	C	0.199602	-0.138440	0.372350
C468	C	0.699602	0.361560	0.872350
C469	C	0.184390	-0.169950	0.434340
C470	C	0.684390	0.330050	0.934340
H471	H	0.226383	-0.168774	0.349018
H472	H	0.726383	0.331226	0.849018
H473	H	0.222960	-0.111614	0.361027
H474	H	0.722960	0.388386	0.861027
H475	H	0.160685	-0.111598	0.361115
H476	H	0.660685	0.388402	0.861115
H477	H	0.223279	-0.196822	0.445619
H478	H	0.723279	0.303178	0.945619
H479	H	0.161011	-0.196741	0.445630
H480	H	0.661011	0.303259	0.945630
H481	H	0.486634	-0.600858	0.588843
H482	H	0.986634	-0.100858	1.088843
H483	H	0.064226	-0.136878	0.641864
H484	H	0.564226	0.363122	1.141864
H485	H	-0.033030	-0.529506	0.229442
H486	H	0.466970	-0.029506	0.729442
O487	O	0.096720	-0.245276	0.685359
O488	O	0.596720	0.254724	1.185359
C489	C	0.048308	-0.239245	0.776183
C490	C	0.548308	0.260755	1.276183
C491	C	0.063506	-0.207738	0.714193
C492	C	0.563506	0.292262	1.214193
H493	H	0.021443	-0.208909	0.799513
H494	H	0.521443	0.291091	1.299513
H495	H	0.087194	-0.266060	0.787479
H496	H	0.587194	0.233940	1.287479
H497	H	0.025005	-0.266098	0.787448
H498	H	0.525005	0.233902	1.287448
H499	H	0.086795	-0.180856	0.702884
H500	H	0.586795	0.319144	1.202884
H501	H	0.024600	-0.180957	0.702930
H502	H	0.524600	0.319043	1.202930
H503	H	-0.067855	-0.564093	0.333408
H504	H	0.432145	-0.064093	0.833408
H505	H	0.016979	-0.733950	0.333522
H506	H	0.516979	-0.233950	0.833522
O507	O	0.056990	-0.705291	0.225137
O508	O	0.556990	-0.205291	0.725137
C509	C	0.101297	-0.800162	0.231255
C510	C	0.601297	-0.300162	0.731255
C511	C	0.065019	-0.759126	0.262712
C512	C	0.565019	-0.259126	0.762712
H513	H	0.107790	-0.843697	0.261621
H514	H	0.607790	-0.343697	0.761621
H515	H	0.142571	-0.793661	0.204511
H516	H	0.642571	-0.293661	0.704511
H517	H	0.080354	-0.793502	0.204339
H518	H	0.580354	-0.293502	0.704339
H519	H	0.085913	-0.765762	0.289658
H520	H	0.585913	-0.265762	0.789658
H521	H	0.023747	-0.765638	0.289422
H522	H	0.523747	-0.265638	0.789422
O523	O	-0.073176	-0.558214	0.377061
O524	O	0.426824	-0.058214	0.877061
C525	C	-0.157446	-0.483964	0.369572
C526	C	0.342554	0.016036	0.869572
C527	C	-0.121256	-0.524974	0.405882
C528	C	0.378744	-0.024974	0.905882
H529	H	-0.196321	-0.457071	0.392855
H530	H	0.303679	0.042929	0.892855
H531	H	-0.168749	-0.507240	0.358251
H532	H	0.331251	-0.007240	0.858251
H533	H	-0.134036	-0.457193	0.330707
H534	H	0.365964	0.042807	0.830707
H535	H	-0.144633	-0.551755	0.444770
H536	H	0.355367	-0.051755	0.944770
H537	H	-0.109951	-0.501665	0.417159
H538	H	0.390049	-0.001665	0.917159
O539	O	-0.035431	-0.520637	0.414687
O540	O	0.464569	-0.020637	0.914687
C541	C	-0.030917	-0.434850	0.342000
C542	C	0.469083	0.065150	0.842000
C543	C	-0.015786	-0.496830	0.357287
C544	C	0.484214	0.003170	0.857287
H545	H	-0.015050	-0.415581	0.295591
H546	H	0.484950	0.084419	0.795591
H547	H	-0.011622	-0.427599	0.361342
H548	H	0.488378	0.072401	0.861342
H549	H	-0.077321	-0.415477	0.357754
H550	H	0.422679	0.084523	0.857754
H551	H	0.030610	-0.516244	0.341536
H552	H	0.530610	-0.016244	0.841536
H553	H	-0.035120	-0.504042	0.337952
H554	H	0.464880	-0.004042	0.837952
O555	O	0.056553	-0.705246	0.507168
O556	O	0.556553	-0.205246	1.007168
C557	C	0.140852	-0.779453	0.514639
C558	C	0.640852	-0.279453	1.014639
C559	C	0.104677	-0.738425	0.478315
C560	C	0.604677	-0.238425	0.978315
H561	H	0.179773	-0.806281	0.491322
H562	H	0.679773	-0.306281	0.991322
H563	H	0.117499	-0.806285	0.553492
H564	H	0.617499	-0.306285	1.053492
H565	H	0.152080	-0.756135	0.525983
H566	H	0.652080	-0.256135	1.025983
H567	H	0.093440	-0.761698	0.466929
H568	H	0.593440	-0.261698	0.966929
H569	H	0.128051	-0.711594	0.439488
H570	H	0.628051	-0.211594	0.939488
O571	O	0.018888	-0.742801	0.469505
O572	O	0.518888	-0.242801	0.969505
C573	C	0.014364	-0.828615	0.542138
C574	C	0.514364	-0.328615	1.042138
C575	C	-0.000820	-0.766633	0.526897
C576	C	0.499180	-0.266633	1.026897
H577	H	-0.001574	-0.847901	0.588539
H578	H	0.498426	-0.347901	1.088539
H579	H	0.060768	-0.848018	0.526436
H580	H	0.560768	-0.348018	1.026436
H581	H	-0.004897	-0.835806	0.522714
H582	H	0.495103	-0.335806	1.022714
H583	H	0.018404	-0.759393	0.546316
H584	H	0.518404	-0.259393	1.046316
H585	H	-0.047229	-0.747262	0.542589
H586	H	0.452771	-0.247262	1.042589
H587	H	0.058518	-0.740243	0.392731
H588	H	0.558518	-0.240243	0.892731
H589	H	0.093086	-0.844219	0.427442
H590	H	0.593086	-0.344219	0.927442
H591	H	-0.075156	-0.844016	0.491279
H592	H	0.424844	-0.344016	0.991279
H593	H	-0.109727	-0.740044	0.456586
H594	H	0.390273	-0.240044	0.956586
O595	O	-0.112447	-0.696485	0.515393
O596	O	0.387553	-0.196485	1.015393
C597	C	-0.118664	-0.740876	0.610291
C598	C	0.381336	-0.240876	1.110291
C599	C	-0.150065	-0.704619	0.569202
C600	C	0.349935	-0.204619	1.069202
H601	H	-0.149064	-0.747473	0.653804
H602	H	0.350936	-0.247473	1.153804
H603	H	-0.091844	-0.719927	0.603792
H604	H	0.408156	-0.219927	1.103792
H605	H	-0.091830	-0.782107	0.603689
H606	H	0.408170	-0.282107	1.103689
H607	H	-0.176928	-0.663382	0.575779
H608	H	0.323072	-0.163382	1.075779
H609	H	-0.176850	-0.725611	0.575711
H610	H	0.323150	-0.225611	1.075711
H611	H	-0.220518	-0.571693	0.374008
H612	H	0.279482	-0.071693	0.874008
O613	O	-0.225367	-0.658623	0.552770
O614	O	0.274633	-0.158623	1.052770
C615	C	-0.290187	-0.625628	0.628595
C616	C	0.209813	-0.125628	1.128595
C617	C	-0.258571	-0.610471	0.566631
C618	C	0.241429	-0.110471	1.066631
H619	H	-0.317049	-0.586707	0.639819
H620	H	0.182951	-0.086707	1.139819
H621	H	-0.259946	-0.652462	0.652037
H622	H	0.240054	-0.152462	1.152037
H623	H	-0.317002	-0.648943	0.639797
H624	H	0.182998	-0.148943	1.139797
H625	H	-0.231755	-0.587138	0.555378
H626	H	0.268245	-0.087138	1.055378
H627	H	-0.288841	-0.583664	0.543223
H628	H	0.211159	-0.083664	1.043223
O629	O	-0.112050	-0.604371	0.330686
O630	O	0.387950	-0.104371	0.830686
C631	C	-0.094398	-0.608737	0.244800
C632	C	0.405602	-0.108737	0.744800
C633	C	-0.126014	-0.623888	0.306764
C634	C	0.373986	-0.123888	0.806764
H635	H	-0.105685	-0.624499	0.225439
H636	H	0.394315	-0.124499	0.725439
H637	H	-0.048523	-0.628121	0.237603
H638	H	0.451477	-0.128121	0.737603
H639	H	-0.105608	-0.562333	0.225478
H640	H	0.394392	-0.062333	0.725478
H641	H	-0.114850	-0.670283	0.326127
H642	H	0.385150	-0.170283	0.826127
H643	H	-0.171881	-0.604464	0.313923
H644	H	0.328119	-0.104464	0.813923
O645	O	0.024965	-0.425479	0.400848
O646	O	0.524965	0.074521	0.900848
C647	C	-0.039989	-0.335341	0.375676
C648	C	0.460011	0.164659	0.875676
C649	C	-0.028815	-0.391466	0.420683
C650	C	0.471185	0.108534	0.920683
H651	H	-0.083465	-0.307821	0.391699
H652	H	0.416535	0.192179	0.891699
H653	H	-0.035122	-0.341003	0.338332
H654	H	0.464878	0.158997	0.838332
H655	H	-0.009630	-0.315635	0.363686
H656	H	0.490370	0.184365	0.863686
H657	H	-0.059164	-0.411202	0.432719
H658	H	0.440836	0.088798	0.932719
H659	H	-0.033662	-0.385768	0.457997
H660	H	0.466338	0.114232	0.957997
