data_functionalizedCrystal
_audit_creation_method	'MofGen! by Chris Wilmer'
_symmetry_space_group_name_H-M	'P1'
_symmetry_Int_Tables_number	1
_symmetry_cell_setting	triclinic
loop_
_symmetry_equiv_pos_as_xyz
  x,y,z
_cell_length_a	19.188930
_cell_length_b	14.853567
_cell_length_c	13.330367
_cell_angle_alpha	90.000844
_cell_angle_beta	90.021431
_cell_angle_gamma	83.389856
loop_
_atom_site_label
_atom_site_type_symbol
_atom_site_fract_x
_atom_site_fract_y
_atom_site_fract_z
O1	O	-0.926523	-0.112552	-0.083738
O2	O	-0.723263	-0.127704	-0.083668
O3	O	-0.830322	0.011132	-0.083708
O4	O	-0.819464	-0.251388	-0.083698
O5	O	-0.830307	0.011135	0.083139
O6	O	-0.723247	-0.127701	0.083179
O7	O	-0.926508	-0.112549	0.083109
Cu8	Cu	-0.824876	-0.120125	0.098379
Cu9	Cu	-0.824894	-0.120128	-0.098937
O10	O	-0.819448	-0.251385	0.083149
C11	C	-0.829823	0.044720	-0.000287
C12	C	-0.828348	0.144795	-0.000295
C13	C	-0.697242	-0.127211	-0.000236
C14	C	-0.619733	-0.125739	-0.000209
C15	C	-0.952528	-0.113041	-0.000325
C16	C	-1.030038	-0.114514	-0.000358
C17	C	-0.575080	-0.207203	-0.000222
C18	C	-0.502252	-0.205819	-0.000233
C19	C	-0.474079	-0.122966	-0.000252
C20	C	-0.518741	-0.041491	-0.000233
C21	C	-0.591568	-0.042878	-0.000212
N22	N	-0.365893	-0.059637	-0.057080
N23	N	-0.296710	-0.058326	-0.057102
C24	C	-0.254657	-0.118785	-0.000313
N25	N	-0.284398	-0.180619	0.056486
N26	N	-0.353587	-0.181933	0.056504
C27	C	-0.395112	-0.121454	-0.000274
C28	C	-0.131035	-0.198755	-0.000336
C29	C	-0.058205	-0.197368	-0.000341
C30	C	-0.074696	-0.033038	-0.000352
C31	C	-0.147524	-0.034427	-0.000337
C32	C	-0.175689	-0.117288	-0.000334
C33	C	-0.819948	-0.284972	-0.000274
C34	C	-0.821422	-0.385048	-0.000272
N35	N	-0.824868	-0.120121	0.237160
C36	C	-0.758520	0.556941	-0.000252
C37	C	-0.885709	0.578929	-0.000296
C38	C	-0.887095	0.484903	-0.000302
C39	C	-0.824193	0.426891	-0.000282
C40	C	-0.759904	0.462906	-0.000255
C41	C	-0.951383	0.448881	-0.000319
C42	C	-0.952772	0.354850	-0.000324
C43	C	-0.889869	0.296836	-0.000311
C44	C	-0.825577	0.332856	-0.000285
C45	C	-0.762675	0.274845	-0.000265
C46	C	-0.698383	0.310862	-0.000247
C47	C	-0.697001	0.404892	-0.000242
C48	C	-0.891251	0.202807	-0.000315
C49	C	-0.764059	0.180809	-0.000269
N50	N	-0.824908	-0.120124	-0.237719
C51	C	-0.777486	-0.181580	0.709801
C52	C	-0.872321	-0.058669	0.709733
C53	C	-0.872313	-0.058666	0.604715
C54	C	-0.824892	-0.120122	0.552235
C55	C	-0.777478	-0.181581	0.604773
C56	C	-0.919731	0.002786	0.552169
C57	C	-0.919725	0.002791	0.447144
C58	C	-0.872300	-0.058662	0.394662
C59	C	-0.824884	-0.120123	0.447207
C60	C	-0.777462	-0.181580	0.394726
C61	C	-0.730042	-0.243037	0.447269
C62	C	-0.730053	-0.243034	0.552290
C63	C	-0.872290	-0.058665	0.289641
C64	C	-0.777454	-0.181581	0.289698
H65	H	-0.598007	-0.274675	-0.000222
N66	N	-0.689182	0.595789	-0.000226
H67	H	-0.661616	0.574617	0.061634
H68	H	-0.661682	0.574607	-0.062108
H69	H	-0.465889	-0.272159	-0.000241
N70	N	-0.639737	0.044988	-0.000211
H71	H	-0.670298	0.048074	0.061646
H72	H	-0.610796	0.097639	-0.000260
N73	N	-0.195690	0.053438	-0.000323
H74	H	-0.166794	0.106137	-0.000335
H75	H	-0.226292	0.056444	-0.062165
N76	N	-0.726299	-0.247865	0.233105
H77	H	-0.734397	-0.311826	0.251378
H78	H	-0.733512	-0.238467	0.158618
N79	N	-0.678900	-0.309326	0.390661
H80	H	-0.686096	-0.299999	0.316159
H81	H	-0.629362	-0.299067	0.409043
N82	N	-1.022111	0.316004	-0.000344
H83	H	-1.061748	0.367024	-0.000354
H84	H	-1.025462	0.277474	-0.062201
H85	H	-0.712835	0.133582	-0.000256
N86	N	-0.044321	0.056327	-0.000360
H87	H	0.008591	0.044846	-0.000372
H88	H	-0.060674	0.091965	-0.062210
N89	N	-0.678918	-0.309329	0.608953
H90	H	-0.629354	-0.299108	0.590717
H91	H	-0.686182	-0.299977	0.683429
H92	H	-0.910901	-0.008631	0.246865
H93	H	-0.738876	-0.231616	0.752583
H94	H	-0.647168	0.263617	-0.000223
N95	N	-0.923472	0.007606	0.766331
H96	H	-0.916284	-0.001721	0.840835
H97	H	-0.915347	0.071539	0.747986
H98	H	-0.958344	0.052818	0.594902
N99	N	-0.010063	-0.285256	-0.000339
H100	H	0.020504	-0.288366	-0.062190
H101	H	0.020491	-0.288303	0.061552
H102	H	-0.644657	0.434227	-0.000226
N103	N	-0.970867	0.069073	0.390477
H104	H	-1.000909	0.108004	0.439661
H105	H	-0.944097	0.108846	0.346926
N106	N	-0.953551	0.641492	-0.000302
H107	H	-0.942919	0.706525	-0.000290
H108	H	-0.981572	0.629867	-0.062164
H109	H	-0.153968	-0.266225	-0.000319
N110	N	-0.488360	0.047872	-0.000241
H111	H	-0.435448	0.036390	-0.000258
H112	H	-0.504715	0.083513	-0.062088
N113	N	-1.019224	0.511446	-0.000322
H114	H	-1.008590	0.576479	-0.000319
H115	H	-1.047250	0.499817	-0.062179
N116	N	-0.960585	0.163956	-0.000325
H117	H	-1.000223	0.214974	-0.000331
H118	H	-0.963940	0.125425	-0.062180
