data_functionalizedCrystal
_audit_creation_method	'MofGen! by Chris Wilmer'
_symmetry_space_group_name_H-M	'P1'
_symmetry_Int_Tables_number	1
_symmetry_cell_setting	triclinic
loop_
_symmetry_equiv_pos_as_xyz
  x,y,z
_cell_length_a	10.654562
_cell_length_b	16.109304
_cell_length_c	9.130313
_cell_angle_alpha	90.001562
_cell_angle_beta	89.996930
_cell_angle_gamma	83.976371
loop_
_atom_site_label
_atom_site_type_symbol
_atom_site_fract_x
_atom_site_fract_y
_atom_site_fract_z
O1	O	1.666242	0.116820	-0.121886
O2	O	1.300615	0.127935	-0.121866
O3	O	1.493470	0.001407	-0.121877
O4	O	1.473386	0.243348	-0.121875
O5	O	1.493468	0.001410	0.121721
O6	O	1.300612	0.127938	0.121732
O7	O	1.666239	0.116824	0.121713
Cu8	Cu	1.483426	0.122381	0.143965
Cu9	Cu	1.483428	0.122377	-0.144119
O10	O	1.473384	0.243352	0.121724
C11	C	1.253827	0.127118	-0.000065
C12	C	1.114418	0.124670	-0.000058
C13	C	1.048901	0.123530	0.132717
C14	C	0.917910	0.121236	0.132692
C15	C	0.917963	0.121226	-0.132893
C16	C	1.048953	0.123514	-0.132867
C17	C	1.048869	0.123539	0.286050
C18	C	0.917878	0.121245	0.286026
C19	C	1.492655	-0.029571	-0.000081
C20	C	1.490214	-0.121881	-0.000091
C21	C	1.484576	-0.334254	-0.132871
C22	C	1.482271	-0.420988	-0.132870
C23	C	1.482274	-0.420981	0.132715
C24	C	1.484571	-0.334248	0.132712
C25	C	1.485728	-0.290887	-0.000085
C26	C	1.481126	-0.464354	-0.000081
C27	C	1.478627	-0.558395	-0.000078
C28	C	1.488225	-0.196840	-0.000088
C29	C	1.713027	0.117640	-0.000092
C30	C	1.852436	0.120088	-0.000108
C31	C	1.474199	0.274330	-0.000075
C32	C	1.476640	0.366639	-0.000075
N33	N	1.483433	0.122384	0.346588
N34	N	1.483431	0.122368	-0.346741
C35	C	1.568851	0.066376	0.423235
C36	C	1.568848	0.066366	0.576572
C37	C	1.398004	0.178378	0.576601
C38	C	1.398002	0.178384	0.423267
C39	C	1.667490	0.001709	0.423220
C40	C	1.667487	0.001699	0.576556
H41	H	1.095907	0.066083	0.344932
H42	H	0.864645	0.120285	-0.241021
C43	C	1.797574	0.021011	0.632779
N44	N	1.895539	0.035580	0.675125
H45	H	1.485515	-0.298952	-0.241003
H46	H	1.481330	-0.456293	-0.240997
H47	H	1.758399	0.021961	0.375657
H48	H	1.481335	-0.456296	0.240834
C49	C	1.121020	0.124748	-0.278928
N50	N	1.175302	0.125674	-0.388948
C51	C	1.087719	0.205450	0.350342
N52	N	1.116982	0.267146	0.398768
H53	H	0.870812	0.178705	0.344891
C54	C	0.879006	0.039340	0.350325
N55	N	0.849726	-0.022348	0.398758
H56	H	1.328437	0.223982	0.360862
H57	H	1.485501	-0.298937	0.240849
H58	H	1.646913	-0.062195	0.381600
C59	C	1.304034	0.239974	0.660962
N60	N	1.233253	0.286369	0.724501
H61	H	1.637792	-0.058690	0.624104
