data_functionalizedCrystal
_audit_creation_method	'MofGen! by Chris Wilmer'
_symmetry_space_group_name_H-M	'P1'
_symmetry_Int_Tables_number	1
_symmetry_cell_setting	triclinic
loop_
_symmetry_equiv_pos_as_xyz
  x,y,z
_cell_length_a	10.686220
_cell_length_b	16.625545
_cell_length_c	10.686551
_cell_angle_alpha	94.407339
_cell_angle_beta	89.691918
_cell_angle_gamma	94.407346
loop_
_atom_site_label
_atom_site_type_symbol
_atom_site_fract_x
_atom_site_fract_y
_atom_site_fract_z
Zn1	Zn	1.972230	-0.196578	0.562377
Zn2	Zn	1.955958	-0.342521	0.352612
Zn3	Zn	1.746342	-0.217205	0.368694
Zn4	Zn	1.762389	-0.340887	0.578390
O5	O	1.859230	-0.274298	0.465518
O6	O	2.145616	-0.207990	0.521120
O7	O	1.914627	-0.335213	0.179199
O8	O	1.776401	-0.101630	0.394415
O9	O	2.133661	-0.315213	0.367006
O10	O	1.942360	-0.086476	0.536714
O11	O	1.760623	-0.243144	0.191014
O12	O	1.572927	-0.241560	0.409942
O13	O	1.803750	-0.312428	0.751811
O14	O	1.584716	-0.332428	0.564005
O15	O	1.957919	-0.206405	0.740047
O16	O	1.930186	-0.455142	0.382533
O17	O	1.787972	-0.453942	0.548411
C18	C	1.533305	-0.289056	0.490457
C19	C	1.393875	-0.295387	0.501155
C20	C	1.859090	-0.483797	0.465489
C21	C	1.859149	-0.573414	0.465510
C22	C	1.859199	-0.646193	0.465531
C23	C	1.859275	-0.737497	0.465553
C24	C	1.859341	-0.810269	0.465564
C25	C	1.859415	-0.901579	0.465584
C26	C	2.186428	-0.259483	0.440483
C27	C	2.325860	-0.253169	0.429814
C28	C	1.884440	-0.256933	0.792719
C29	C	1.895183	-0.249534	0.932153
C30	C	1.859406	-0.063977	0.465572
C31	C	1.859481	0.025649	0.465595
C32	C	1.834190	-0.291533	0.139584
C33	C	1.823690	-0.298694	0.000133
H34	H	1.345431	-0.336383	0.570415
O35	O	1.731715	-0.361945	0.935945
H36	H	1.737416	-0.358022	0.832829
O37	O	1.987136	-0.186264	0.996348
H38	H	1.981416	-0.190173	1.099466
H39	H	1.374297	-0.212182	0.360551
