data_functionalizedCrystal
_audit_creation_method	'MofGen! by Chris Wilmer'
_symmetry_space_group_name_H-M	'P1'
_symmetry_Int_Tables_number	1
_symmetry_cell_setting	triclinic
loop_
_symmetry_equiv_pos_as_xyz
  x,y,z
_cell_length_a	17.077404
_cell_length_b	13.897448
_cell_length_c	13.897449
_cell_angle_alpha	90.010270
_cell_angle_beta	90.007040
_cell_angle_gamma	90.017917
loop_
_atom_site_label
_atom_site_type_symbol
_atom_site_fract_x
_atom_site_fract_y
_atom_site_fract_z
Zn1	Zn	1.199986	-0.384172	0.545408
Zn2	Zn	1.449986	-0.134172	0.795408
Zn3	Zn	1.699986	0.115828	1.045408
Zn4	Zn	1.949986	0.365828	1.295408
Zn5	Zn	1.199934	-0.545436	0.384110
Zn6	Zn	1.449934	-0.295436	0.634110
Zn7	Zn	1.699934	-0.045436	0.884110
Zn8	Zn	1.949934	0.204564	1.134110
Zn9	Zn	1.068747	-0.384158	0.384124
Zn10	Zn	1.318747	-0.134158	0.634124
Zn11	Zn	1.568747	0.115842	0.884124
Zn12	Zn	1.818747	0.365842	1.134124
Zn13	Zn	1.068698	-0.545427	0.545359
Zn14	Zn	1.318698	-0.295427	0.795359
Zn15	Zn	1.568698	-0.045427	1.045359
Zn16	Zn	1.818698	0.204573	1.295359
O17	O	1.134341	-0.464798	0.464750
O18	O	1.384341	-0.214798	0.714750
O19	O	1.634341	0.035202	0.964750
O20	O	1.884341	0.285202	1.214750
O21	O	1.309826	-0.405574	0.524026
O22	O	1.559826	-0.155574	0.774026
O23	O	1.809826	0.094426	1.024026
O24	O	2.059826	0.344426	1.274026
O25	O	1.182530	-0.524040	0.249130
O26	O	1.432530	-0.274040	0.499130
O27	O	1.682530	-0.024040	0.749130
O28	O	1.932530	0.225960	0.999130
O29	O	1.086198	-0.249178	0.405545
O30	O	1.336198	0.000822	0.655545
O31	O	1.586198	0.250822	0.905545
O32	O	1.836198	0.500822	1.155545
O33	O	1.309788	-0.524054	0.405521
O34	O	1.559788	-0.274054	0.655521
O35	O	1.809788	-0.024054	0.905521
O36	O	2.059788	0.225946	1.155521
O37	O	1.182619	-0.249188	0.524040
O38	O	1.432619	0.000812	0.774040
O39	O	1.682619	0.250812	1.024040
O40	O	1.932619	0.500812	1.274040
O41	O	1.086147	-0.405549	0.249140
O42	O	1.336147	-0.155549	0.499140
O43	O	1.586147	0.094451	0.749140
O44	O	1.836147	0.344451	0.999140
O45	O	0.958893	-0.405541	0.405497
O46	O	1.208893	-0.155541	0.655497
O47	O	1.458893	0.094459	0.905497
O48	O	1.708893	0.344459	1.155497
O49	O	1.086115	-0.524039	0.680347
O50	O	1.336115	-0.274039	0.930347
O51	O	1.586115	-0.024039	1.180347
O52	O	1.836115	0.225961	1.430347
O53	O	0.958858	-0.524025	0.523956
O54	O	1.208858	-0.274025	0.773956
O55	O	1.458858	-0.024025	1.023956
O56	O	1.708858	0.225975	1.273956
O57	O	1.182572	-0.405565	0.680383
O58	O	1.432572	-0.155565	0.930383
O59	O	1.682572	0.094435	1.180383
O60	O	1.932572	0.344435	1.430383
O61	O	1.182483	-0.680417	0.405473
O62	O	1.432483	-0.430417	0.655473
O63	O	1.682483	-0.180417	0.905473
O64	O	1.932483	0.069583	1.155473
O65	O	1.086064	-0.680410	0.523943
O66	O	1.336064	-0.430410	0.773943
O67	O	1.586064	-0.180410	1.023943
O68	O	1.836064	0.069590	1.273943
C69	C	0.930393	-0.464781	0.464723
C70	C	1.180393	-0.214781	0.714723
C71	C	1.430393	0.035219	0.964723
C72	C	1.680393	0.285219	1.214723
C73	C	0.843144	-0.464797	0.464735
C74	C	1.093144	-0.214797	0.714735
C75	C	1.343144	0.035203	0.964735
C76	C	1.593144	0.285203	1.214735
C77	C	0.802155	-0.526584	0.526318
C78	C	1.052155	-0.276584	0.776318
C79	C	1.302155	-0.026584	1.026318
C80	C	1.552155	0.223416	1.276318
C81	C	0.720175	-0.526586	0.526333
C82	C	0.970175	-0.276586	0.776333
C83	C	1.220175	-0.026586	1.026333
C84	C	1.470175	0.223414	1.276333
C85	C	0.679184	-0.464805	0.464760
C86	C	0.929184	-0.214805	0.714760
C87	C	1.179184	0.035195	0.964760
C88	C	1.429184	0.285195	1.214760
C89	C	0.720178	-0.403010	0.403175
C90	C	0.970178	-0.153010	0.653175
C91	C	1.220178	0.096990	0.903175
C92	C	1.470178	0.346990	1.153175
C93	C	0.802157	-0.403004	0.403165
C94	C	1.052157	-0.153004	0.653165
C95	C	1.302157	0.096996	0.903165
C96	C	1.552157	0.346996	1.153165
C97	C	0.549308	-0.403029	0.403198
C98	C	0.799308	-0.153029	0.653198
C99	C	1.049308	0.096971	0.903198
C100	C	1.299308	0.346971	1.153198
C101	C	0.467324	-0.403037	0.403206
C102	C	0.717324	-0.153037	0.653206
C103	C	0.967324	0.096963	0.903206
C104	C	1.217324	0.346963	1.153206
C105	C	0.467326	-0.526612	0.526366
C106	C	0.717326	-0.276612	0.776366
C107	C	0.967326	-0.026612	1.026366
C108	C	1.217326	0.223388	1.276366
C109	C	0.549305	-0.526605	0.526356
C110	C	0.799305	-0.276605	0.776356
C111	C	1.049305	-0.026605	1.026356
C112	C	1.299305	0.223395	1.276356
C113	C	0.590293	-0.464812	0.464769
C114	C	0.840293	-0.214812	0.714769
C115	C	1.090293	0.035188	0.964769
C116	C	1.340293	0.285188	1.214769
C117	C	1.134284	-0.715413	0.464722
C118	C	1.384284	-0.465413	0.714722
C119	C	1.634284	-0.215413	0.964722
C120	C	1.884284	0.034587	1.214722
C121	C	1.134331	-0.822627	0.464742
C122	C	1.384331	-0.572627	0.714742
C123	C	1.634331	-0.322627	0.964742
C124	C	1.884331	-0.072627	1.214742
C125	C	1.134414	-1.018922	0.464803
C126	C	1.384414	-0.768922	0.714803
C127	C	1.634414	-0.518922	0.964803
C128	C	1.884414	-0.268922	1.214803
C129	C	1.134366	-0.909689	0.464772
C130	C	1.384366	-0.659689	0.714772
C131	C	1.634366	-0.409689	0.964772
C132	C	1.884366	-0.159689	1.214772
C133	C	1.339086	-0.464817	0.464777
C134	C	1.589086	-0.214817	0.714777
C135	C	1.839086	0.035183	0.964777
C136	C	2.089086	0.285183	1.214777
C137	C	1.426335	-0.464824	0.464789
C138	C	1.676335	-0.214824	0.714789
C139	C	1.926335	0.035176	0.964789
C140	C	2.176335	0.285176	1.214789
C141	C	1.134344	-0.464802	0.716343
C142	C	1.384344	-0.214802	0.966343
C143	C	1.634344	0.035198	1.216343
C144	C	1.884344	0.285198	1.466343
C145	C	1.134345	-0.464804	0.823557
C146	C	1.384345	-0.214804	1.073557
C147	C	1.634345	0.035196	1.323557
C148	C	1.884345	0.285196	1.573557
C149	C	1.134420	-0.213205	0.464799
C150	C	1.384420	0.036795	0.714799
C151	C	1.634420	0.286795	0.964799
C152	C	1.884420	0.536795	1.214799
C153	C	1.134454	-0.105991	0.464820
C154	C	1.384454	0.144009	0.714820
C155	C	1.634454	0.394009	0.964820
C156	C	1.884454	0.644009	1.214820
C157	C	1.134326	-0.464808	1.019852
C158	C	1.384326	-0.214808	1.269852
C159	C	1.634326	0.035192	1.519852
C160	C	1.884326	0.285192	1.769852
C161	C	1.134334	-0.464809	0.910620
C162	C	1.384334	-0.214809	1.160620
C163	C	1.634334	0.035191	1.410620
C164	C	1.884334	0.285191	1.660620
C165	C	1.134331	-0.464814	1.214136
C166	C	1.384331	-0.214814	1.464136
C167	C	1.634331	0.035186	1.714136
C168	C	1.884331	0.285186	1.964136
C169	C	1.134325	-0.464806	1.106922
C170	C	1.384325	-0.214806	1.356922
C171	C	1.634325	0.035194	1.606922
C172	C	1.884325	0.285194	1.856922
H173	H	0.835524	-0.576897	0.576454
H174	H	1.085524	-0.326897	0.826454
H175	H	1.335524	-0.076897	1.076454
H176	H	1.585524	0.173103	1.326454
F177	F	0.592929	-0.592366	0.591883
F178	F	0.842929	-0.342366	0.841883
F179	F	1.092929	-0.092366	1.091883
F180	F	1.342929	0.157634	1.341883
F181	F	0.592929	-0.337260	0.337651
F182	F	0.842929	-0.087260	0.587651
F183	F	1.092929	0.162740	0.837651
F184	F	1.342929	0.412740	1.087651
H185	H	0.835529	-0.352685	0.353023
H186	H	1.085529	-0.102685	0.603023
H187	H	1.335529	0.147315	0.853023
H188	H	1.585529	0.397315	1.103023
H189	H	0.686797	-0.352703	0.353045
H190	H	0.936797	-0.102703	0.603045
H191	H	1.186797	0.147297	0.853045
H192	H	1.436797	0.397297	1.103045
H193	H	0.686806	-0.576901	0.576479
H194	H	0.936806	-0.326901	0.826479
H195	H	1.186806	-0.076901	1.076479
H196	H	1.436806	0.173099	1.326479
F197	F	0.423703	-0.592366	0.591923
F198	F	0.673703	-0.342366	0.841923
F199	F	0.923703	-0.092366	1.091923
F200	F	1.173703	0.157634	1.341923
H201	H	0.433951	-0.352717	0.353080
H202	H	0.683951	-0.102717	0.603080
H203	H	0.933951	0.147283	0.853080
H204	H	1.183951	0.397283	1.103080
