data_functionalizedCrystal
_audit_creation_method	'MofGen! by Chris Wilmer'
_symmetry_space_group_name_H-M	'P1'
_symmetry_Int_Tables_number	1
_symmetry_cell_setting	triclinic
loop_
_symmetry_equiv_pos_as_xyz
  x,y,z
_cell_length_a	8.559649
_cell_length_b	8.559649
_cell_length_c	7.681481
_cell_angle_alpha	94.930900
_cell_angle_beta	85.086760
_cell_angle_gamma	69.778664
loop_
_atom_site_label
_atom_site_type_symbol
_atom_site_fract_x
_atom_site_fract_y
_atom_site_fract_z
O1	O	-2.109661	0.037797	-0.146402
O2	O	-1.634175	-0.045985	-0.146408
O3	O	-1.913809	0.233649	-0.146402
O4	O	-1.830027	-0.241837	-0.146407
O5	O	-1.948236	0.268136	0.146456
O6	O	-1.668602	-0.011497	0.146450
O7	O	-2.144088	0.072285	0.146457
Zn8	Zn	-1.911811	0.035869	0.192951
Zn9	Zn	-1.866452	-0.009570	-0.192902
O10	O	-1.864454	-0.207349	0.146451
C11	C	-1.937371	0.311201	0.000024
C12	C	-1.956269	0.490899	0.000014
C13	C	-1.591080	-0.035090	0.000020
C14	C	-1.411380	-0.053990	0.000017
C15	C	-2.187183	0.061390	0.000025
C16	C	-2.366881	0.080288	0.000016
C17	C	-1.840891	-0.284902	0.000021
C18	C	-1.821992	-0.464601	0.000019
N19	N	-1.942779	0.066883	0.456286
N20	N	-1.835499	-0.040569	-0.456237
H21	H	-1.466259	0.209706	0.000009
O22	O	-1.667589	0.416948	0.000318
C23	C	-1.423286	0.318842	0.151968
C24	C	-1.598141	0.453088	0.151871
H25	H	-1.367071	0.348033	0.274466
H26	H	-1.434951	0.190144	0.152070
H27	H	-1.338334	0.319027	0.029350
H28	H	-1.683188	0.453057	0.274468
H29	H	-1.586347	0.581724	0.151678
O30	O	-2.073375	0.197925	0.545803
C31	C	-2.209238	0.498297	0.602627
C32	C	-2.061286	0.350050	0.501108
H33	H	-2.199495	0.621326	0.566556
H34	H	-2.332464	0.489136	0.566425
H35	H	-2.205224	0.494168	0.750171
H36	H	-2.065140	0.354085	0.353540
H37	H	-1.938125	0.359264	0.537456
H38	H	-2.085699	0.590289	0.000030
O39	O	-1.293002	-0.208462	0.000245
C40	C	-1.194761	-0.452643	0.152011
C41	C	-1.328955	-0.277751	0.151954
H42	H	-1.223762	-0.508701	0.274673
H43	H	-1.194991	-0.537786	0.029535
H44	H	-1.066100	-0.440864	0.151919
H45	H	-1.457681	-0.289370	0.152108
H46	H	-1.328577	-0.192674	0.274420
H47	H	-1.725988	-0.150245	0.468564
