data_functionalizedCrystal
_audit_creation_method	'MofGen! by Chris Wilmer'
_symmetry_space_group_name_H-M	'P1'
_symmetry_Int_Tables_number	1
_symmetry_cell_setting	triclinic
loop_
_symmetry_equiv_pos_as_xyz
  x,y,z
_cell_length_a	12.759401
_cell_length_b	25.639239
_cell_length_c	12.759393
_cell_angle_alpha	90.035978
_cell_angle_beta	90.020938
_cell_angle_gamma	90.040211
loop_
_atom_site_label
_atom_site_type_symbol
_atom_site_fract_x
_atom_site_fract_y
_atom_site_fract_z
Zn1	Zn	1.606091	-0.208104	0.593980
Zn2	Zn	1.605909	-0.295549	0.418283
Zn3	Zn	1.430390	-0.208132	0.418315
Zn4	Zn	1.430308	-0.295513	0.593921
O5	O	1.518175	-0.251825	0.506125
O6	O	1.753088	-0.219708	0.570685
O7	O	1.582584	-0.283980	0.271266
O8	O	1.453808	-0.134963	0.441656
O9	O	1.752954	-0.283953	0.441601
O10	O	1.582895	-0.134943	0.570716
O11	O	1.453631	-0.219755	0.271290
O12	O	1.283358	-0.219720	0.441598
O13	O	1.453669	-0.283891	0.740950
O14	O	1.283298	-0.283918	0.570615
O15	O	1.582816	-0.219672	0.740993
O16	O	1.582505	-0.368710	0.441544
O17	O	1.453492	-0.368683	0.570584
C18	C	1.245207	-0.251818	0.506104
C19	C	1.128431	-0.251828	0.506120
C20	C	1.073565	-0.285307	0.573193
C21	C	0.963841	-0.285309	0.573214
C22	C	0.963858	-0.218352	0.439079
C23	C	1.073580	-0.218347	0.439065
C24	C	0.813929	-0.304070	0.697071
C25	C	0.759060	-0.337557	0.764135
C26	C	0.794614	-0.388581	0.780073
C27	C	0.885037	-0.406129	0.728931
C28	C	0.939901	-0.372645	0.661860
C29	C	0.904348	-0.321613	0.645942
C30	C	1.223494	-0.199592	0.315206
C31	C	1.278359	-0.166110	0.248129
C32	C	1.242807	-0.115085	0.232180
C33	C	1.152381	-0.097539	0.283303
C34	C	1.097515	-0.131021	0.350380
C35	C	1.133075	-0.182046	0.366331
C36	C	1.517998	-0.387667	0.506077
C37	C	1.518018	-0.445781	0.506091
C38	C	1.585527	-0.806146	0.439048
C39	C	1.585568	-0.860750	0.439062
O40	O	1.642783	-0.888988	0.382007
N41	N	1.518359	-0.888064	0.506194
C42	C	1.451113	-0.860770	0.573324
O43	O	1.393952	-0.889017	0.630428
C44	C	1.451079	-0.806167	0.573315
C45	C	1.518284	-0.778856	0.506171
C46	C	1.652728	-0.778835	0.371910
C47	C	1.652685	-0.724234	0.371895
C48	C	1.585442	-0.696945	0.439018
C49	C	1.518242	-0.724255	0.506156
C50	C	1.383839	-0.778874	0.640449
C51	C	1.383810	-0.724267	0.640435
C52	C	1.451016	-0.696957	0.573291
C53	C	1.450956	-0.642365	0.573263
N54	N	1.518165	-0.615052	0.506131
C55	C	1.585408	-0.642341	0.439008
C56	C	1.451192	-0.975441	0.573341
C57	C	1.451221	-1.030043	0.573346
C58	C	1.585677	-1.030019	0.439085
C59	C	1.585642	-0.975416	0.439075
C60	C	1.518401	-0.948127	0.506208
C61	C	1.585313	-0.527676	0.438981
C62	C	1.585261	-0.473071	0.438969
C63	C	1.450810	-0.473100	0.573233
C64	C	1.450857	-0.527700	0.573242
C65	C	1.518117	-0.554987	0.506112
O66	O	1.393774	-0.614093	0.630292
O67	O	1.642569	-0.614088	0.381925
C68	C	1.792208	-0.251831	0.506146
C69	C	1.908984	-0.251834	0.506156
C70	C	1.518253	-0.251774	0.780158
C71	C	1.518287	-0.251753	0.896935
C72	C	1.518381	-0.115452	0.506196
C73	C	1.518468	-0.057337	0.506226
C74	C	1.518157	-0.251837	0.233157
C75	C	1.518327	-0.251711	0.116381
C76	C	1.585539	-0.218309	0.951821
C77	C	1.585556	-0.218286	1.061546
C78	C	1.451068	-0.285156	1.061487
C79	C	1.451045	-0.285176	0.951765
C80	C	1.623220	-0.156599	1.211536
C81	C	1.690489	-0.123160	1.266426
C82	C	1.793008	-0.115142	1.230836
C83	C	1.828280	-0.140572	1.140358
C84	C	1.761018	-0.174015	1.085473
C85	C	1.658484	-0.182023	1.121061
C86	C	1.413392	-0.346864	0.801773
C87	C	1.346134	-0.380310	0.746887
C88	C	1.243613	-0.388333	0.782474
C89	C	1.208344	-0.362913	0.872956
C90	C	1.275603	-0.329466	0.927843
C91	C	1.378123	-0.321443	0.892247
H92	H	0.913972	-0.447681	0.741905
H93	H	1.023890	-0.116729	0.392014
H94	H	1.847778	-0.087915	1.275535
H95	H	1.661760	-0.102455	1.340093
H96	H	1.287484	-0.087826	0.177550
C97	C	1.262606	-0.255723	0.332753
C98	C	1.202263	-0.292551	0.406540
C99	C	1.241375	-0.348681	0.424082
C100	C	1.340831	-0.367983	0.367838
C101	C	1.401180	-0.331155	0.294046
C102	C	1.362067	-0.275025	0.276504
H103	H	1.128634	-0.278262	0.448180
H104	H	1.196700	-0.375944	0.478707
H105	H	1.369784	-0.409534	0.380823
H106	H	1.474808	-0.345443	0.252406
H107	H	1.406743	-0.247762	0.221879
C108	C	1.377286	-1.060081	0.647197
C109	C	1.303324	-1.030056	0.721026
C110	C	1.229391	-1.060092	0.794886
C111	C	1.229421	-1.120153	0.794916
C112	C	1.303386	-1.150182	0.721084
C113	C	1.377318	-1.120146	0.647224
H114	H	1.303299	-0.985592	0.721007
H115	H	1.174637	-1.037862	0.849541
H116	H	1.174691	-1.142388	0.849591
H117	H	1.303410	-1.194646	0.721104
H118	H	1.432072	-1.142376	0.592569
H119	H	1.639988	-0.450836	0.384288
C120	C	1.659291	-0.557687	0.365133
C121	C	1.650760	-0.550222	0.245690
C122	C	1.724731	-0.580232	0.171836
C123	C	1.807233	-0.617708	0.217425
C124	C	1.815767	-0.625175	0.336874
C125	C	1.741796	-0.595164	0.410728
H126	H	1.589685	-0.522478	0.211936
H127	H	1.718413	-0.574705	0.083412
H128	H	1.861990	-0.639924	0.162754
H129	H	1.876843	-0.652918	0.370627
H130	H	1.748114	-0.600692	0.499152
C131	C	0.734263	-0.425417	0.853847
C132	C	0.634806	-0.406119	0.910095
C133	C	0.574452	-0.442951	0.983873
C134	C	0.613556	-0.499081	1.001404
C135	C	0.713019	-0.518381	0.945155
C136	C	0.773372	-0.481550	0.871376
H137	H	0.605854	-0.364566	0.897118
H138	H	0.500823	-0.428663	1.025512
H139	H	0.568879	-0.526346	1.056020
H140	H	0.741971	-0.559935	0.958131
H141	H	0.847001	-0.495838	0.829737
C142	C	1.726701	-0.808846	0.298064
C143	C	1.718174	-0.801375	0.178623
C144	C	1.792147	-0.831382	0.104765
C145	C	1.874648	-0.868859	0.150348
C146	C	1.883179	-0.876333	0.269796
C147	C	1.809205	-0.846326	0.343654
H148	H	1.657098	-0.773630	0.144874
H149	H	1.785831	-0.825849	0.016342
H150	H	1.929407	-0.891072	0.095674
H151	H	1.944254	-0.904078	0.303545
H152	H	1.815521	-0.851858	0.432077
H153	H	1.013520	-0.386932	0.620221
H154	H	1.396428	-0.953225	0.628006
C155	C	1.169624	-0.425125	0.722101
C156	C	1.142104	-0.413679	0.606872
C157	C	1.068113	-0.450467	0.546504
C158	C	1.021642	-0.498703	0.601364
C159	C	1.049162	-0.510152	0.716600
C160	C	1.123153	-0.473363	0.776968
H161	H	1.176505	-0.377970	0.566255
H162	H	1.047741	-0.441992	0.461199
H163	H	0.966870	-0.525936	0.556676
H164	H	1.014761	-0.545860	0.757217
H165	H	1.143525	-0.481838	0.862274
C166	C	1.799801	-0.201985	0.985950
C167	C	1.837478	-0.169937	0.891121
C168	C	1.876261	-0.197904	0.791591
C169	C	1.877367	-0.257919	0.786889
C170	C	1.839689	-0.289970	0.881722
C171	C	1.800906	-0.262003	0.981252
H172	H	1.836660	-0.125508	0.894598
H173	H	1.904153	-0.174177	0.721390
H174	H	1.906077	-0.278621	0.713211
H175	H	1.840507	-0.334399	0.878244
H176	H	1.773014	-0.285730	1.051453
C177	C	1.309914	-0.808904	0.714319
C178	C	1.190479	-0.801453	0.705653
C179	C	1.116551	-0.831480	0.779531
C180	C	1.162058	-0.868960	0.862074
C181	C	1.281499	-0.876413	0.870743
C182	C	1.355428	-0.846385	0.796865
H183	H	1.156786	-0.773707	0.644547
H184	H	1.028132	-0.825963	0.773113
H185	H	1.107332	-0.891188	0.916762
H186	H	1.315192	-0.904159	0.931849
H187	H	1.443847	-0.851903	0.803283
C188	C	1.309837	-0.694250	0.714280
C189	C	1.190412	-0.701827	0.705603
C190	C	1.116437	-0.671811	0.779444
C191	C	1.161888	-0.634218	0.861962
C192	C	1.281320	-0.626639	0.870642
C193	C	1.355295	-0.656655	0.796801
H194	H	1.156761	-0.729657	0.644515
H195	H	1.028026	-0.677421	0.773017
H196	H	1.107128	-0.611998	0.916623
H197	H	1.314971	-0.598809	0.931730
H198	H	1.443706	-0.651045	0.803228
H199	H	1.496871	-0.340330	0.772783
H200	H	1.396136	-0.549938	0.627919
H201	H	1.374863	-0.401014	0.673218
C202	C	1.113241	-0.041416	0.265732
C203	C	1.173574	-0.004591	0.191931
C204	C	1.134423	0.051529	0.174338
C205	C	1.034941	0.070824	0.230545
C206	C	0.974602	0.033998	0.304351
C207	C	1.013752	-0.022122	0.321944
H208	H	1.247222	-0.018873	0.150319
H209	H	1.179090	0.078790	0.119702
H210	H	1.005959	0.112367	0.217522
H211	H	0.900954	0.048281	0.345964
H212	H	0.969085	-0.049382	0.376580
C213	C	1.941061	-0.131757	1.101216
C214	C	2.015047	-0.094970	1.161585
C215	C	2.127829	-0.086153	1.122439
C216	C	2.166625	-0.114123	1.022923
C217	C	2.092637	-0.150912	0.962548
C218	C	1.979855	-0.159729	1.001694
H219	H	1.986330	-0.074263	1.235257
H220	H	2.182600	-0.058920	1.167133
H221	H	2.250113	-0.107596	0.993945
H222	H	2.121355	-0.171619	0.888876
H223	H	1.925085	-0.186962	0.957000
C224	C	1.377129	-0.321929	1.121812
C225	C	1.385626	-0.381368	1.106690
C226	C	1.311696	-0.418145	1.167015
C227	C	1.229268	-0.395482	1.242463
C228	C	1.220767	-0.336039	1.257589
C229	C	1.294698	-0.299263	1.197263
H230	H	1.446647	-0.398147	1.050835
H231	H	1.317989	-0.462148	1.155818
H232	H	1.174540	-0.422706	1.287120
H233	H	1.159747	-0.319260	1.313443
H234	H	1.288405	-0.255259	1.208460
H235	H	1.707412	-0.702001	0.317224
C236	C	1.095565	-0.371731	0.912105
C237	C	1.021580	-0.408515	0.851729
C238	C	0.908799	-0.417335	0.890875
C239	C	0.870003	-0.389372	0.990397
C240	C	0.943991	-0.352586	1.050780
C241	C	1.056771	-0.343765	1.011634
H242	H	1.050297	-0.429217	0.778051
H243	H	0.854029	-0.444567	0.846175
H244	H	0.786516	-0.395901	1.019375
H245	H	0.915273	-0.331883	1.124458
H246	H	1.111541	-0.316534	1.056334
H247	H	1.539738	-0.163120	1.240516
H248	H	1.118221	-0.312568	0.627796
H249	H	0.685438	-0.323264	0.805775
H250	H	1.640367	-0.953182	0.384401
H251	H	1.640434	-1.052248	0.384433
H252	H	1.246878	-0.308768	1.001518
H253	H	0.784979	-0.262520	0.684111
H254	H	0.919185	-0.191094	0.384484
H255	H	1.351989	-0.180401	0.206501
H256	H	1.396058	-0.450872	0.627881
H257	H	1.640288	-0.191092	0.907182
