data_functionalizedCrystal
_audit_creation_method	'MofGen! by Chris Wilmer'
_symmetry_space_group_name_H-M	'P1'
_symmetry_Int_Tables_number	1
_symmetry_cell_setting	triclinic
loop_
_symmetry_equiv_pos_as_xyz
  x,y,z
_cell_length_a	17.639054
_cell_length_b	19.077068
_cell_length_c	19.076919
_cell_angle_alpha	85.529249
_cell_angle_beta	80.566498
_cell_angle_gamma	76.080428
loop_
_atom_site_label
_atom_site_type_symbol
_atom_site_fract_x
_atom_site_fract_y
_atom_site_fract_z
Zn1	Zn	1.176637	0.093343	-0.613945
Zn2	Zn	1.676637	0.593343	-0.113945
Zn3	Zn	1.176539	0.206514	-0.500772
Zn4	Zn	1.676539	0.706514	-0.000772
Zn5	Zn	1.049976	0.110516	-0.474104
Zn6	Zn	1.549976	0.610516	0.025896
Zn7	Zn	1.038865	0.235002	-0.594735
Zn8	Zn	1.538865	0.735002	-0.094735
O9	O	1.110504	0.161344	-0.545889
O10	O	1.610504	0.661344	-0.045889
O11	O	1.287249	0.089246	-0.618132
O12	O	1.787249	0.589246	-0.118132
O13	O	1.164359	0.189044	-0.399387
O14	O	1.664359	0.689044	0.100613
O15	O	1.071468	0.008778	-0.489533
O16	O	1.571468	0.508778	0.010467
O17	O	1.287177	0.172392	-0.534984
O18	O	1.787177	0.672392	-0.034984
O19	O	1.164526	-0.003839	-0.592273
O20	O	1.664526	0.496161	-0.092273
O21	O	1.071373	0.118515	-0.379794
O22	O	1.571373	0.618515	0.120206
O23	O	0.937876	0.146139	-0.470907
O24	O	1.437876	0.646139	0.029093
O25	O	1.052531	0.220947	-0.695131
O26	O	1.552531	0.720947	-0.195131
O27	O	0.929713	0.237599	-0.559534
O28	O	1.429713	0.737599	-0.059534
O29	O	1.153752	0.116870	-0.709244
O30	O	1.653752	0.616870	-0.209244
O31	O	1.153585	0.309753	-0.516358
O32	O	1.653585	0.809753	-0.016358
O33	O	1.052436	0.330683	-0.585392
O34	O	1.552436	0.830683	-0.085392
C35	C	0.905111	0.196824	-0.510242
C36	C	1.405111	0.696824	-0.010242
C37	C	0.817241	0.212021	-0.495009
C38	C	1.317241	0.712021	0.004991
C39	C	0.693361	0.276652	-0.430182
C40	C	1.193361	0.776652	0.069818
C41	C	0.775928	0.262368	-0.444501
C42	C	1.275928	0.762368	0.055499
C43	C	0.775997	0.175942	-0.531223
C44	C	1.275997	0.675942	-0.031223
C45	C	0.693428	0.190222	-0.516914
C46	C	1.193428	0.690222	-0.016914
C47	C	0.652117	0.240578	-0.466393
C48	C	1.152117	0.740578	0.033607
C49	C	0.652184	0.154148	-0.553125
C50	C	1.152184	0.654148	-0.053125
C51	C	0.569622	0.168424	-0.538814
C52	C	1.069622	0.668424	-0.038814
C53	C	0.528305	0.218775	-0.488294
C54	C	1.028305	0.718775	0.011706
C55	C	0.569555	0.254854	-0.452082
C56	C	1.069555	0.754854	0.047918
C57	C	0.693497	0.103789	-0.603642
C58	C	1.193497	0.603789	-0.103642
C59	C	0.652253	0.067714	-0.639853
C60	C	1.152253	0.567714	-0.139853
C61	C	0.569690	0.081994	-0.625546
C62	C	1.069690	0.581994	-0.125546
C63	C	0.528372	0.132345	-0.575026
C64	C	1.028372	0.632345	-0.075026
C65	C	0.528440	0.045915	-0.661757
C66	C	1.028440	0.545915	-0.161757
C67	C	0.445878	0.060192	-0.647447
C68	C	0.945878	0.560192	-0.147447
C69	C	0.445811	0.146622	-0.560715
C70	C	0.945811	0.646622	-0.060715
C71	C	1.101815	0.346004	-0.551704
C72	C	1.601815	0.846004	-0.051704
C73	C	1.098169	0.424991	-0.554227
C74	C	1.598169	0.924991	-0.054227
C75	C	1.101913	0.170171	-0.728268
C76	C	1.601913	0.670171	-0.228268
C77	C	1.098252	0.173932	-0.805987
C78	C	1.598252	0.673932	-0.305987
C79	C	1.316699	0.125725	-0.581676
C80	C	1.816699	0.625725	-0.081676
C81	C	1.404567	0.110547	-0.596926
C82	C	1.904567	0.610547	-0.096926
C83	C	1.119247	-0.024040	-0.540071
C84	C	1.619247	0.475960	-0.040071
C85	C	1.122973	-0.103040	-0.537592
C86	C	1.622973	0.396960	-0.037592
C87	C	1.149157	0.451173	-0.519514
C88	C	1.649157	0.951173	-0.019514
C89	C	1.145732	0.525390	-0.521892
C90	C	1.645732	1.025390	-0.021892
C91	C	1.091316	0.573423	-0.558980
C92	C	1.591316	1.073423	-0.058980
C93	C	1.040326	0.547236	-0.593697
C94	C	1.540326	1.047236	-0.093697
C95	C	1.043755	0.473020	-0.591323
C96	C	1.543755	0.973020	-0.091323
C97	C	1.075413	0.796557	-0.569935
C98	C	1.575413	1.296557	-0.069935
C99	C	1.071986	0.870778	-0.572305
C100	C	1.571986	1.370778	-0.072305
C101	C	1.177393	0.848926	-0.500500
C102	C	1.677393	1.348926	-0.000500
C103	C	1.180814	0.774710	-0.498126
C104	C	1.680814	1.274710	0.001874
C105	C	1.129827	0.748529	-0.532846
C106	C	1.629827	1.248529	-0.032846
N107	N	1.087812	0.649285	-0.561410
N108	N	1.587812	1.149285	-0.061410
N109	N	1.133335	0.672668	-0.530420
N110	N	1.633335	1.172668	-0.030420
C111	C	1.149230	0.121515	-0.849848
C112	C	1.649230	0.621515	-0.349848
C113	C	1.145780	0.125048	-0.922871
C114	C	1.645780	0.625048	-0.422871
C115	C	1.091357	0.181002	-0.952033
C116	C	1.591357	0.681002	-0.452033
C117	C	1.040374	0.233422	-0.908166
C118	C	1.540374	0.733422	-0.408166
C119	C	1.043820	0.229885	-0.835143
C120	C	1.543820	0.729885	-0.335143
C121	C	1.075396	0.197387	-1.169638
C122	C	1.575396	0.697387	-0.669638
C123	C	1.071955	0.200921	-1.242667
C124	C	1.571955	0.700921	-0.742667
C125	C	1.177361	0.092546	-1.257367
C126	C	1.677361	0.592546	-0.757367
C127	C	1.180805	0.089017	-1.184343
C128	C	1.680805	0.589017	-0.684343
C129	C	1.129820	0.141435	-1.140482
C130	C	1.629820	0.641435	-0.640482
N131	N	1.087831	0.184616	-1.026675
N132	N	1.587831	0.684616	-0.526675
N133	N	1.133342	0.137817	-1.065841
N134	N	1.633342	0.637817	-0.565841
C135	C	1.119109	0.152492	-0.364226
C136	C	1.619109	0.652492	0.135774
C137	C	1.122933	0.148504	-0.286528
C138	C	1.622933	0.648504	0.213472
H139	H	0.809644	0.134941	-0.572356
H140	H	1.309644	0.634941	-0.072356
H141	H	0.685900	0.026713	-0.680985
H142	H	1.185900	0.526713	-0.180985
C143	C	0.987670	0.444219	-0.629508
C144	C	1.487670	0.944219	-0.129508
H145	H	0.954767	0.483455	-0.651933
H146	H	1.454767	0.983455	-0.151933
H147	H	1.017790	0.411488	-0.664311
H148	H	1.517790	0.911488	-0.164311
H149	H	0.955843	0.419957	-0.595836
H150	H	1.455843	0.919957	-0.095836
C151	C	1.209009	0.398340	-0.478712
C152	C	1.709009	0.898340	0.021288
H153	H	1.203744	0.350390	-0.482262
H154	H	1.703744	0.850390	0.017738
H155	H	1.261073	0.401777	-0.498584
H156	H	1.761073	0.901777	0.001416
H157	H	1.199122	0.410255	-0.430111
H158	H	1.699122	0.910255	0.069889
C159	C	0.980468	0.600071	-0.634491
C160	C	1.480468	1.100071	-0.134491
H161	H	0.985721	0.648023	-0.630927
H162	H	1.485721	1.148023	-0.130927
H163	H	0.990341	0.588164	-0.683090
H164	H	1.490341	1.088164	-0.183090
H165	H	0.928404	0.596629	-0.614608
H166	H	1.428404	1.096629	-0.114608
H167	H	1.193550	0.075953	-0.826111
H168	H	1.693550	0.575953	-0.326111
C169	C	0.987763	0.287558	-0.786900
C170	C	1.487763	0.787558	-0.286900
H171	H	0.954867	0.321397	-0.814726
H172	H	1.454867	0.821397	-0.314726
H173	H	0.955940	0.264956	-0.751572
H174	H	1.455940	0.764956	-0.251572
H175	H	1.017908	0.311918	-0.764647
H176	H	1.517908	0.811918	-0.264647
C177	C	0.647913	0.332047	-0.374614
C178	C	1.147913	0.832047	0.125386
H179	H	0.684300	0.351489	-0.355094
H180	H	1.184300	0.851489	0.144906
H181	H	0.612998	0.369913	-0.396709
H182	H	1.112998	0.869913	0.103291
H183	H	0.618411	0.308905	-0.337747
H184	H	1.118411	0.808905	0.162253
H185	H	0.562088	0.004911	-0.702887
H186	H	1.062088	0.504911	-0.202887
C187	C	1.240641	0.721879	-0.457298
C188	C	1.740641	1.221879	0.042702
H189	H	1.235366	0.673931	-0.460840
H190	H	1.735366	1.173931	0.039160
H191	H	1.292718	0.725298	-0.477145
H192	H	1.792718	1.225298	0.022855
H193	H	1.230726	0.733812	-0.408700
H194	H	1.730726	1.233812	0.091300
C195	C	1.233479	0.877723	-0.462315
C196	C	1.733479	1.377723	0.037685
H197	H	1.266374	0.838487	-0.439884
H198	H	1.766374	1.338487	0.060116
H199	H	1.265302	0.901986	-0.495985
H200	H	1.765302	1.401986	0.004015
H201	H	1.203359	0.910455	-0.427506
H202	H	1.703359	1.410455	0.072494
C203	C	1.019321	0.255047	-1.121398
C204	C	1.519321	0.755047	-0.621398
H205	H	1.029158	0.244927	-1.073730
H206	H	1.529158	0.744927	-0.573730
H207	H	1.028074	0.301382	-1.136873
H208	H	1.528074	0.801382	-0.636873
H209	H	0.966129	0.254396	-1.123820
H210	H	1.466129	0.754396	-0.623820
C211	C	1.012132	0.923613	-0.613110
C212	C	1.512132	1.423613	-0.113110
H213	H	0.982262	0.897392	-0.633455
H214	H	1.482262	1.397392	-0.133455
H215	H	0.977631	0.957256	-0.581294
H216	H	1.477631	1.457256	-0.081294
H217	H	1.039584	0.948781	-0.649765
H218	H	1.539584	1.448781	-0.149765
C219	C	1.201859	0.067392	-0.971116
C220	C	1.701859	0.567392	-0.471116
H221	H	1.234772	0.033567	-0.943291
H222	H	1.734772	0.533567	-0.443291
H223	H	1.171740	0.043023	-0.993381
H224	H	1.671740	0.543023	-0.493381
H225	H	1.233677	0.090017	-1.006435
H226	H	1.733677	0.590017	-0.506435
H227	H	1.225125	0.043455	-1.160606
H228	H	1.725125	0.543455	-0.660606
H229	H	0.535917	0.295865	-0.410949
H230	H	1.035917	0.795865	0.089051
C231	C	0.821293	0.302064	-0.404675
C232	C	1.321293	0.802064	0.095325
H233	H	0.784862	0.334102	-0.372544
H234	H	1.284862	0.834102	0.127456
H235	H	0.856209	0.267794	-0.378977
H236	H	1.356209	0.767794	0.121023
H237	H	0.850787	0.328798	-0.437943
H238	H	1.350787	0.828798	0.062057
C239	C	0.400359	0.202014	-0.505146
C240	C	0.900359	0.702014	-0.005146
H241	H	0.345282	0.205351	-0.501815
H242	H	0.845282	0.705351	-0.001815
H243	H	0.416579	0.186932	-0.460194
H244	H	0.916579	0.686932	0.039806
H245	H	0.411168	0.247939	-0.519158
H246	H	0.911168	0.747939	-0.019158
C247	C	1.019316	0.767769	-0.608111
C248	C	1.519316	1.267769	-0.108111
H249	H	0.986410	0.807008	-0.630528
H250	H	1.486410	1.307008	-0.130528
H251	H	1.049421	0.735035	-0.642918
H252	H	1.549421	1.235035	-0.142918
H253	H	0.987492	0.743511	-0.574430
H254	H	1.487492	1.243511	-0.074430
C255	C	1.012082	0.262468	-1.274746
C256	C	1.512082	0.762468	-0.774746
H257	H	1.017340	0.257069	-1.324518
H258	H	1.517340	0.757069	-0.824518
H259	H	0.960023	0.260657	-1.253233
H260	H	1.460023	0.760657	-0.753233
H261	H	1.021962	0.307649	-1.266286
H262	H	1.521962	0.807649	-0.766286
H263	H	0.760724	0.092164	-0.615289
H264	H	1.260724	0.592164	-0.115289
C265	C	0.400506	0.020517	-0.687283
C266	C	0.900506	0.520517	-0.187283
H267	H	0.436933	-0.011510	-0.719427
H268	H	0.936933	0.488490	-0.219427
H269	H	0.371002	-0.006214	-0.654029
H270	H	0.871002	0.493786	-0.154029
H271	H	0.365598	0.054804	-0.712982
H272	H	0.865598	0.554804	-0.212982
H273	H	1.187251	0.546703	-0.493624
H274	H	1.687251	1.046703	0.006376
C275	C	1.233437	0.034887	-1.305611
C276	C	1.733437	0.534887	-0.805611
H277	H	1.266346	0.001060	-1.277785
H278	H	1.766346	0.501060	-0.777785
H279	H	1.203315	0.010522	-1.327877
H280	H	1.703315	0.510522	-0.827877
H281	H	1.265260	0.057508	-1.340929
H282	H	1.765260	0.557508	-0.840929
C283	C	0.980510	0.294971	-0.940242
C284	C	1.480510	0.794971	-0.440242
H285	H	0.985763	0.289575	-0.990015
H286	H	1.485763	0.789575	-0.490015
H287	H	0.928449	0.293166	-0.918728
H288	H	1.428449	0.793166	-0.418728
H289	H	0.990398	0.340148	-0.931780
H290	H	1.490398	0.840148	-0.431780
H291	H	0.461080	0.230387	-0.476632
H292	H	0.961080	0.730387	0.023368
