data_functionalizedCrystal
_audit_creation_method	'MofGen! by Chris Wilmer'
_symmetry_space_group_name_H-M	'P1'
_symmetry_Int_Tables_number	1
_symmetry_cell_setting	triclinic
loop_
_symmetry_equiv_pos_as_xyz
  x,y,z
_cell_length_a	15.995350
_cell_length_b	12.837943
_cell_length_c	11.892113
_cell_angle_alpha	86.040150
_cell_angle_beta	94.365368
_cell_angle_gamma	90.839343
loop_
_atom_site_label
_atom_site_type_symbol
_atom_site_fract_x
_atom_site_fract_y
_atom_site_fract_z
O1	O	0.222915	-1.381365	0.093972
O2	O	0.212162	-1.079559	0.093980
O3	O	0.096309	-1.238712	0.093975
O4	O	0.338768	-1.222212	0.093977
O5	O	0.085810	-1.226873	-0.094032
O6	O	0.201663	-1.067720	-0.094028
O7	O	0.212415	-1.369526	-0.094035
Zn8	Zn	0.205372	-1.216743	-0.123881
Zn9	Zn	0.219206	-1.232342	0.123826
O10	O	0.328269	-1.210373	-0.094030
C11	C	0.059810	-1.232110	-0.000027
C12	C	-0.033303	-1.230066	-0.000020
C13	C	0.203280	-1.035019	-0.000023
C14	C	0.192447	-0.919942	-0.000020
C15	C	0.221297	-1.414066	-0.000030
C16	C	0.232131	-1.529143	-0.000025
C17	C	-0.371637	-1.222721	-0.000024
C18	C	-0.333222	-1.109402	0.000400
C19	C	-0.236393	-1.111421	-0.000023
C20	C	-0.203785	-1.226364	-0.000021
C21	C	-0.246398	-1.275510	-0.107382
C22	C	-0.343266	-1.272657	-0.107472
C23	C	-0.331497	-1.288461	0.106327
C24	C	-0.234475	-1.288524	0.107746
C25	C	-0.108923	-1.228429	-0.000024
C26	C	-0.466499	-1.220659	-0.000029
C27	C	0.364768	-1.216975	-0.000026
C28	C	0.457881	-1.219020	-0.000025
N29	N	0.195931	-1.206105	-0.292935
C30	C	0.322684	-0.678983	-0.000035
C31	C	0.312509	-0.570858	-0.000033
C32	C	0.161923	-0.595563	-0.000023
C33	C	0.172098	-0.703688	-0.000025
C34	C	0.252481	-0.745395	-0.000029
C35	C	0.262656	-0.853523	-0.000023
C36	C	0.112069	-0.878225	-0.000020
C37	C	0.101894	-0.770100	-0.000018
C38	C	0.294375	-1.317000	-0.529586
C39	C	0.287769	-1.309572	-0.647928
C40	C	0.176111	-1.183829	-0.647962
C41	C	0.182717	-1.191256	-0.529621
C42	C	0.241851	-1.257843	-0.470437
C43	C	0.248460	-1.265264	-0.352093
C44	C	0.136799	-1.139527	-0.352130
C45	C	0.130193	-1.132100	-0.470471
N46	N	0.228640	-1.242988	0.292880
H47	H	-0.207179	-1.072321	0.076937
H48	H	0.127959	-1.129628	-0.696171
Br49	Br	-0.379398	-1.026000	-0.126813
Br50	Br	0.371746	-0.910125	-0.000022
Br51	Br	0.431773	-0.735592	-0.000020
H52	H	0.036448	-0.736127	-0.000028
Br53	Br	0.407788	-0.480729	-0.000049
Br54	Br	0.359050	-1.389865	-0.728200
H55	H	0.096473	-0.561580	-0.000112
H56	H	-0.225757	-1.359704	-0.111373
H57	H	-0.216363	-1.062325	-0.077113
Br58	Br	-0.197115	-1.428914	0.118565
Br59	Br	-0.386665	-1.196283	-0.241232
Br60	Br	0.049943	-1.041738	-0.550803
H61	H	0.296614	-1.319478	-0.303907
H62	H	-0.225576	-1.231649	-0.187277
Br63	Br	-0.362963	-1.041967	0.128726
Br64	Br	0.065520	-1.059227	-0.271850
Br65	Br	-0.386408	-1.410839	-0.115603
Br66	Br	-0.186516	-1.229306	0.240146
Br67	Br	-0.363073	-1.235227	0.241956
Br68	Br	-0.373252	-1.427824	0.107535
H69	H	0.054905	-0.932311	-0.000008
H70	H	0.342532	-1.371207	-0.481397
