data_functionalizedCrystal
_audit_creation_method	'MofGen! by Chris Wilmer'
_symmetry_space_group_name_H-M	'P1'
_symmetry_Int_Tables_number	1
_symmetry_cell_setting	triclinic
loop_
_symmetry_equiv_pos_as_xyz
  x,y,z
_cell_length_a	10.723024
_cell_length_b	10.268362
_cell_length_c	10.723023
_cell_angle_alpha	90.000328
_cell_angle_beta	84.467709
_cell_angle_gamma	90.004333
loop_
_atom_site_label
_atom_site_type_symbol
_atom_site_fract_x
_atom_site_fract_y
_atom_site_fract_z
O1	O	1.657189	0.108289	0.175021
O2	O	2.157189	0.608289	0.675021
O3	O	1.294036	0.108293	0.191774
O4	O	1.794036	0.608293	0.691774
O5	O	1.483990	0.108285	0.001821
O6	O	1.983990	0.608285	0.501821
O7	O	1.467235	0.108296	0.364974
O8	O	1.967235	0.608296	0.864974
O9	O	1.483972	-0.108315	0.001828
O10	O	1.983972	0.391685	0.501828
O11	O	1.294018	-0.108308	0.191781
O12	O	1.794018	0.391692	0.691781
O13	O	1.657171	-0.108312	0.175027
O14	O	2.157171	0.391688	0.675027
Cu15	Cu	1.475593	-0.128087	0.183405
Cu16	Cu	1.975593	0.371913	0.683405
Cu17	Cu	1.475614	0.128068	0.183397
Cu18	Cu	1.975614	0.628068	0.683397
O19	O	1.467217	-0.108304	0.364980
O20	O	1.967217	0.391696	0.864980
C21	C	1.247528	-0.000007	0.190558
C22	C	1.747528	0.499993	0.690558
C23	C	1.108973	-0.000005	0.186911
C24	C	1.608973	0.499995	0.686911
N25	N	1.475587	-0.308253	0.183409
N26	N	1.975587	0.191747	0.683409
C27	C	1.033991	-0.000001	0.293198
C28	C	1.533991	0.499999	0.793198
C29	C	0.890787	0.000000	0.289431
C30	C	1.390787	0.500000	0.789431
C31	C	1.475596	-0.426095	0.183410
C32	C	1.975596	0.073905	0.683410
C33	C	1.475611	-0.573933	0.183399
C34	C	1.975611	-0.073933	0.683399
C35	C	1.703679	-0.000009	0.176243
C36	C	2.203679	0.499991	0.676243
C37	C	1.842234	-0.000002	0.179891
C38	C	2.342234	0.499998	0.679891
C39	C	1.482762	-0.000014	-0.044675
C40	C	1.982762	0.499986	0.455325
C41	C	1.479114	-0.000009	-0.183229
C42	C	1.979114	0.499991	0.316771
N43	N	1.475630	0.308234	0.183383
N44	N	1.975630	0.808234	0.683383
C45	C	1.473709	-0.112206	-0.388200
C46	C	1.973709	0.387794	0.111800
C47	C	1.477479	-0.112213	-0.244997
C48	C	1.977479	0.387787	0.255003
C49	C	1.468445	-0.000003	0.411477
C50	C	1.968445	0.499997	0.911477
C51	C	1.472093	0.000002	0.550031
C52	C	1.972093	0.500002	1.050031
H53	H	1.075812	-0.000006	0.386984
H54	H	1.575812	0.499994	0.886984
H55	H	0.826354	0.000009	0.380421
H56	H	1.326354	0.500009	0.880421
H57	H	1.067152	0.000025	0.093125
H58	H	1.567152	0.500025	0.593125
H59	H	0.906659	0.000003	0.088896
H60	H	1.406659	0.500003	0.588896
H61	H	1.472296	-0.208265	-0.441334
H62	H	1.972296	0.291735	0.058666
N63	N	1.479236	-0.232721	-0.178352
N64	N	1.979236	0.267279	0.321648
N65	N	1.482301	-0.232556	-0.062118
N66	N	1.982301	0.267444	0.437882
H67	H	1.483543	-0.317669	-0.015046
H68	H	1.983543	0.182331	0.484954
N69	N	1.477346	0.120514	-0.249849
N70	N	1.977346	0.620514	0.250151
N71	N	1.389918	0.199588	-0.224659
N72	N	1.889918	0.699588	0.275341
H73	H	1.388667	0.284708	-0.271718
H74	H	1.888667	0.784708	0.228282
N75	N	1.473872	0.120503	-0.383307
N76	N	1.973872	0.620503	0.116693
N77	N	1.563599	0.146739	-0.321377
N78	N	2.063599	0.646739	0.178623
H79	H	1.564857	0.231846	-0.274297
H80	H	2.064857	0.731846	0.225703
