data_functionalizedCrystal
_audit_creation_method	'MofGen! by Chris Wilmer'
_symmetry_space_group_name_H-M	'P1'
_symmetry_Int_Tables_number	1
_symmetry_cell_setting	triclinic
loop_
_symmetry_equiv_pos_as_xyz
  x,y,z
_cell_length_a	16.992694
_cell_length_b	14.421503
_cell_length_c	16.992695
_cell_angle_alpha	89.995710
_cell_angle_beta	90.668223
_cell_angle_gamma	90.002529
loop_
_atom_site_label
_atom_site_type_symbol
_atom_site_fract_x
_atom_site_fract_y
_atom_site_fract_z
O1	O	1.050855	0.076996	0.166906
O2	O	0.822455	0.077024	0.165075
O3	O	0.935739	0.077003	0.051790
O4	O	0.937570	0.077017	0.280190
O5	O	0.935720	-0.077221	0.051807
O6	O	0.822436	-0.077200	0.165092
O7	O	1.050836	-0.077227	0.166923
Cu8	Cu	0.936634	-0.091295	0.166009
Cu9	Cu	0.936656	0.091092	0.165989
O10	O	0.937551	-0.077206	0.280207
C11	C	0.793085	-0.000085	0.162727
C12	C	0.705600	-0.000074	0.155699
N13	N	0.936624	-0.219577	0.166022
C14	C	0.659610	-0.000071	0.223517
C15	C	0.577409	-0.000084	0.216908
C16	C	0.541201	-0.000094	0.142480
C17	C	0.587198	-0.000101	0.074657
C18	C	0.669397	-0.000094	0.081267
C19	C	0.295886	-0.000121	0.115086
C20	C	0.213681	-0.000125	0.108481
C21	C	0.203898	-0.000110	0.250732
C22	C	0.286099	-0.000098	0.257336
C23	C	0.332089	-0.000109	0.189512
N24	N	0.457178	-0.000105	0.135723
N25	N	0.416110	-0.000105	0.196270
C26	C	0.884230	-0.469221	0.218379
C27	C	0.956318	-0.531031	0.238115
C28	C	0.936642	-0.408738	0.166005
C29	C	0.864574	-0.531022	0.146289
C30	C	0.936653	-0.591459	0.165989
C31	C	1.008768	-0.469187	0.185778
C32	C	0.916975	-0.469173	0.093918
C33	C	0.989113	-0.530955	0.113627
C34	C	0.936635	-0.303477	0.166016
C35	C	0.936669	-0.696718	0.165978
C36	C	1.080205	-0.000117	0.169270
C37	C	1.167690	-0.000121	0.176299
C38	C	0.933374	-0.000109	0.022439
C39	C	0.926345	-0.000108	-0.065046
N40	N	0.936672	0.219373	0.165969
C41	C	0.994163	-0.000117	-0.111037
C42	C	0.987554	-0.000107	-0.193238
C43	C	0.913127	-0.000095	-0.229446
C44	C	0.845303	-0.000083	-0.183449
C45	C	0.851913	-0.000086	-0.101250
C46	C	0.885732	-0.000079	-0.474760
C47	C	0.879127	-0.000079	-0.556966
C48	C	1.021379	-0.000101	-0.566749
C49	C	1.027982	-0.000109	-0.484547
C50	C	0.960159	-0.000093	-0.438558
N51	N	0.906369	-0.000088	-0.313468
N52	N	0.966917	-0.000093	-0.354537
C53	C	0.939917	-0.000093	0.309559
C54	C	0.946945	-0.000088	0.397044
H55	H	0.689084	-0.000062	0.284124
H56	H	0.557710	-0.000122	0.014056
F57	F	0.154947	-0.000100	0.322909
H58	H	1.042779	-0.000116	-0.230680
F59	F	1.047118	-0.566168	0.055727
H60	H	0.839957	-0.442115	0.262712
H61	H	0.184203	-0.000132	0.047870
H62	H	0.972962	-0.558201	0.299071
F63	F	0.895192	-0.433629	0.014266
H64	H	1.088589	-0.000119	-0.455073
H65	H	1.076596	-0.000113	-0.604202
H66	H	0.803622	-0.558186	0.129620
F67	F	0.718344	-0.000101	0.009085
H68	H	0.315574	-0.000079	0.317942
F69	F	0.528465	-0.000076	0.289090
F70	F	0.766091	-0.000060	-0.221987
F71	F	0.813548	-0.000059	-0.425825
H72	H	0.333322	-0.000131	0.059859
H73	H	1.069737	-0.442140	0.202520
H74	H	1.054770	-0.000132	-0.081563
F75	F	0.799908	-0.000071	-0.595499
F76	F	0.779732	-0.000074	-0.052303
