data_functionalizedCrystal
_audit_creation_method	'MofGen! by Chris Wilmer'
_symmetry_space_group_name_H-M	'P1'
_symmetry_Int_Tables_number	1
_symmetry_cell_setting	triclinic
loop_
_symmetry_equiv_pos_as_xyz
  x,y,z
_cell_length_a	25.639242
_cell_length_b	25.639240
_cell_length_c	11.169409
_cell_angle_alpha	90.046464
_cell_angle_beta	90.031357
_cell_angle_gamma	90.027658
loop_
_atom_site_label
_atom_site_type_symbol
_atom_site_fract_x
_atom_site_fract_y
_atom_site_fract_z
Zn1	Zn	0.799297	-0.208179	0.678794
Zn2	Zn	0.799215	-0.295630	0.478061
Zn3	Zn	0.711858	-0.208202	0.478088
Zn4	Zn	0.711828	-0.295578	0.678666
O5	O	0.755549	-0.251897	0.578402
O6	O	0.872451	-0.219792	0.652209
O7	O	0.787605	-0.284063	0.310115
O8	O	0.723505	-0.135034	0.504777
O9	O	0.872391	-0.284041	0.504732
O10	O	0.787746	-0.135017	0.652235
O11	O	0.723425	-0.219831	0.310135
O12	O	0.638689	-0.219781	0.504653
O13	O	0.723452	-0.283953	0.846633
O14	O	0.638666	-0.283975	0.652016
O15	O	0.787716	-0.219742	0.846727
O16	O	0.787575	-0.368788	0.504607
O17	O	0.723372	-0.368750	0.651991
C18	C	0.619707	-0.251875	0.578324
C19	C	0.561593	-0.251878	0.578319
C20	C	0.310402	-0.218415	0.501803
C21	C	0.365007	-0.218411	0.501788
O22	O	0.393246	-0.189928	0.436663
N23	N	0.392319	-0.251885	0.578380
C24	C	0.365024	-0.285362	0.655001
O25	O	0.393269	-0.313834	0.720148
C26	C	0.310421	-0.285364	0.655021
C27	C	0.283111	-0.251891	0.578415
C28	C	0.283093	-0.184945	0.425204
C29	C	0.228492	-0.184951	0.425218
C30	C	0.201201	-0.218427	0.501831
C31	C	0.228511	-0.251897	0.578429
C32	C	0.283127	-0.318839	0.731647
C33	C	0.228520	-0.318837	0.731662
C34	C	0.201210	-0.285365	0.655056
C35	C	0.146619	-0.285379	0.655056
N36	N	0.119307	-0.251905	0.578464
C37	C	0.146598	-0.218429	0.501851
C38	C	0.479695	-0.285355	0.654953
C39	C	0.534297	-0.285357	0.654928
C40	C	0.534276	-0.218404	0.501716
C41	C	0.479673	-0.218406	0.501736
C42	C	0.452382	-0.251881	0.578361
C43	C	0.031933	-0.218443	0.501886
C44	C	-0.022672	-0.218453	0.501903
C45	C	-0.022647	-0.285404	0.655118
C46	C	0.031954	-0.285396	0.655097
C47	C	0.059242	-0.251911	0.578477
O48	O	0.118345	-0.313845	0.720151
O49	O	0.118346	-0.189957	0.436726
C50	C	0.755476	-0.387740	0.578308
C51	C	0.755492	-0.445854	0.578308
C52	C	0.789016	-0.806170	0.655322
C53	C	0.789032	-0.860774	0.655347
O54	O	0.817447	-0.888971	0.720730
N55	N	0.755622	-0.888136	0.578518
C56	C	0.722191	-0.860892	0.501669
O57	O	0.693775	-0.889179	0.436324
C58	C	0.722173	-0.806288	0.501652
C59	C	0.755589	-0.778929	0.578477
C60	C	0.822429	-0.778810	0.732141
C61	C	0.822414	-0.724210	0.732115
C62	C	0.788986	-0.696969	0.655270
C63	C	0.755574	-0.724328	0.578450
C64	C	0.688740	-0.779044	0.424810
C65	C	0.688725	-0.724437	0.424800
C66	C	0.722141	-0.697078	0.501624
C67	C	0.722132	-0.642487	0.501578
N68	N	0.755542	-0.615124	0.578407
C69	C	0.788969	-0.642365	0.655252
C70	C	0.722230	-0.975562	0.501713
C71	C	0.722250	-1.030164	0.501724
C72	C	0.789090	-1.030043	0.655403
C73	C	0.789072	-0.975440	0.655386
C74	C	0.755640	-0.948200	0.578542
C75	C	0.788935	-0.527700	0.655190
C76	C	0.788919	-0.473095	0.655154
C77	C	0.722077	-0.473221	0.501480
C78	C	0.722095	-0.527822	0.501511
C79	C	0.755526	-0.555060	0.578376
O80	O	0.693729	-0.614255	0.436232
O81	O	0.817376	-0.614071	0.720598
C82	C	0.891922	-0.251920	0.578482
C83	C	0.950036	-0.251929	0.578515
C84	C	0.755590	-0.251839	0.891445
C85	C	0.755607	-0.251815	1.024845
C86	C	0.755638	-0.115524	0.578523
C87	C	0.755676	-0.057410	0.578574
C88	C	0.755540	-0.251917	0.266578
C89	C	0.755624	-0.251795	0.133178
H90	H	-0.044877	-0.312661	0.717490
C91	C	0.825676	-0.443000	0.739664
H92	H	0.820885	-0.406578	0.728641
H93	H	0.818008	-0.451920	0.820288
H94	H	0.860813	-0.451932	0.722180
C95	C	0.825820	-0.945349	0.739912
H96	H	0.845725	-0.969398	0.785685
H97	H	0.848607	-0.924044	0.694071
H98	H	0.805793	-0.924049	0.792156
C99	C	0.685496	-1.060254	0.417210
H100	H	0.665585	-1.036205	0.371450
H101	H	0.705511	-1.081564	0.364971
H102	H	0.662707	-1.081550	0.463080
C103	C	-0.052710	-0.181629	0.417639
H104	H	-0.028633	-0.161688	0.372021
H105	H	-0.074034	-0.201603	0.365259
H106	H	-0.073987	-0.158871	0.463666
C107	C	0.564303	-0.181575	0.417454
H108	H	0.600733	-0.186367	0.428430
H109	H	0.555332	-0.189182	0.336779
H110	H	0.555375	-0.146454	0.435194
H111	H	0.457478	-0.312619	0.717348
H112	H	0.206262	-0.157694	0.362838
C113	C	0.564331	-0.322180	0.739186
H114	H	0.540253	-0.342113	0.784817
H115	H	0.585611	-0.344938	0.693176
H116	H	0.585653	-0.302201	0.791572
C117	C	0.313155	-0.355655	0.815925
H118	H	0.289074	-0.375584	0.861560
H119	H	0.334435	-0.378417	0.769928
H120	H	0.334476	-0.335673	0.868307
C121	C	0.685340	-0.557918	0.417005
H122	H	0.665429	-0.533872	0.371240
H123	H	0.705354	-0.579231	0.364771
H124	H	0.662552	-0.579211	0.462885
H125	H	0.457441	-0.191147	0.439361
H126	H	0.054145	-0.191174	0.439499
C127	C	0.198504	-0.355642	0.815996
H128	H	0.222592	-0.375570	0.861620
H129	H	0.177236	-0.335650	0.868368
H130	H	0.177171	-0.378413	0.770032
H131	H	0.054190	-0.312656	0.717467
H132	H	0.816154	-0.549871	0.717789
C133	C	0.859165	-0.694119	0.816632
H134	H	0.854375	-0.657696	0.805620
H135	H	0.851495	-0.703044	0.897251
H136	H	0.894303	-0.703049	0.799152
H137	H	0.694863	-0.451033	0.438909
C138	C	0.313105	-0.148121	0.340917
H139	H	0.289013	-0.128193	0.295302
H140	H	0.334432	-0.125357	0.386903
H141	H	0.334377	-0.168098	0.288517
H142	H	0.695007	-0.953386	0.439128
C143	C	0.859205	-0.808767	0.816672
H144	H	0.879101	-0.784645	0.862406
H145	H	0.839208	-0.830065	0.868934
H146	H	0.882007	-0.830065	0.770814
H147	H	0.816308	-1.052233	0.717977
C148	C	0.651978	-0.809128	0.340310
H149	H	0.632066	-0.785076	0.294561
H150	H	0.671988	-0.830438	0.288062
H151	H	0.629191	-0.830423	0.386185
H152	H	0.661498	-0.702261	0.362225
