data_functionalizedCrystal
_audit_creation_method	'MofGen! by Chris Wilmer'
_symmetry_space_group_name_H-M	'P1'
_symmetry_Int_Tables_number	1
_symmetry_cell_setting	triclinic
loop_
_symmetry_equiv_pos_as_xyz
  x,y,z
_cell_length_a	27.732064
_cell_length_b	26.809956
_cell_length_c	23.532407
_cell_angle_alpha	89.999665
_cell_angle_beta	97.250949
_cell_angle_gamma	90.001122
loop_
_atom_site_label
_atom_site_type_symbol
_atom_site_fract_x
_atom_site_fract_y
_atom_site_fract_z
O1	O	0.641030	0.041396	-0.067803
O2	O	0.500254	0.041417	-0.078097
O3	O	0.574887	0.041396	0.009991
O4	O	0.566397	0.041416	-0.155890
O5	O	0.574873	-0.041563	0.009977
O6	O	0.500239	-0.041542	-0.078110
O7	O	0.641016	-0.041564	-0.067816
Zn8	Zn	0.570625	-0.054725	-0.072965
Zn9	Zn	0.570644	0.054578	-0.072948
O10	O	0.566383	-0.041543	-0.155904
C11	C	0.482239	-0.000060	-0.077886
C12	C	0.428584	-0.000053	-0.077231
C13	C	0.051424	-0.000088	-0.020717
C14	C	0.253088	-0.000074	-0.023127
O15	O	0.284273	-0.000098	0.020726
N16	N	0.272296	-0.000066	-0.075362
C17	C	0.241084	-0.000064	-0.126997
O18	O	0.262049	-0.000062	-0.171481
C19	C	0.039421	-0.000081	-0.124585
C20	C	0.020217	-0.000084	-0.072348
C21	C	0.032219	-0.000091	0.031517
C22	C	-0.018194	-0.000092	0.032119
C23	C	-0.049402	-0.000089	-0.019512
C24	C	-0.030196	-0.000085	-0.071746
C25	C	0.008211	-0.000083	-0.176220
C26	C	-0.042208	-0.000088	-0.175612
C27	C	-0.061413	-0.000092	-0.123375
C28	C	-0.111817	-0.000082	-0.122775
N29	N	-0.131025	-0.000091	-0.070540
C30	C	-0.099817	-0.000094	-0.018909
C31	C	0.346961	-0.000054	-0.128259
C32	C	0.397376	-0.000049	-0.128862
C33	C	0.409377	-0.000060	-0.024993
C34	C	0.358960	-0.000062	-0.024390
C35	C	0.327753	-0.000063	-0.076025
C36	C	-0.205689	-0.000095	-0.017649
C37	C	-0.256107	-0.000093	-0.017051
C38	C	-0.268103	-0.000085	-0.120920
C39	C	-0.217689	-0.000084	-0.121518
C40	C	-0.186483	-0.000090	-0.069878
O41	O	-0.143031	-0.000064	-0.166605
O42	O	-0.120792	-0.000107	0.025568
C43	C	0.101837	-0.000087	-0.021319
C44	C	0.121043	-0.000083	-0.073552
C45	C	0.089835	-0.000080	-0.125183
C46	C	0.171458	-0.000078	-0.074155
C47	C	0.202666	-0.000081	-0.022524
C48	C	0.183458	-0.000090	0.029710
C49	C	0.133045	-0.000090	0.030313
C50	C	0.109043	-0.000071	-0.177418
C51	C	0.159456	-0.000070	-0.178015
C52	C	0.190664	-0.000074	-0.126384
N53	N	0.570616	-0.129321	-0.072977
C54	C	0.603687	-0.473956	-0.033952
C55	C	0.603699	-0.682833	-0.033943
O56	O	0.631797	-0.709845	-0.000767
N57	N	0.570647	-0.708948	-0.072935
C58	C	0.537587	-0.682839	-0.111929
O59	O	0.509471	-0.709844	-0.145090
C60	C	0.537574	-0.473963	-0.111935
C61	C	0.570631	-0.447851	-0.072945
C62	C	0.636742	-0.447844	0.005035
C63	C	0.636741	-0.395628	0.005031
C64	C	0.603685	-0.369523	-0.033962
C65	C	0.570630	-0.395635	-0.072949
C66	C	0.504512	-0.447855	-0.150926
C67	C	0.504511	-0.395633	-0.150923
C68	C	0.537569	-0.369521	-0.111933
C69	C	0.537572	-0.317314	-0.111946
N70	N	0.570625	-0.291199	-0.072954
C71	C	0.603681	-0.317304	-0.033962
C72	C	0.537597	-0.792503	-0.111924
C73	C	0.537601	-0.844722	-0.111924
C74	C	0.603712	-0.844712	-0.033937
C75	C	0.603710	-0.792492	-0.033941
C76	C	0.570649	-0.766388	-0.072933
C77	C	0.603675	-0.207646	-0.033975
C78	C	0.603672	-0.155425	-0.033985
C79	C	0.537560	-0.155439	-0.111969
C80	C	0.537564	-0.207656	-0.111962
C81	C	0.570624	-0.233758	-0.072960
O82	O	0.509485	-0.290270	-0.145101
O83	O	0.631785	-0.290290	-0.000798
C84	C	0.603689	-0.526172	-0.033948
C85	C	0.570634	-0.552284	-0.072935
C86	C	0.537578	-0.526179	-0.111928
C87	C	0.570638	-0.604503	-0.072935
C88	C	0.603694	-0.630607	-0.033942
C89	C	0.636746	-0.604493	0.005049
C90	C	0.636745	-0.552277	0.005045
C91	C	0.504526	-0.552293	-0.150919
C92	C	0.504531	-0.604510	-0.150912
C93	C	0.537587	-0.630614	-0.111920
C94	C	0.659030	-0.000086	-0.068027
C95	C	0.712686	-0.000090	-0.068682
C96	C	0.574664	-0.000084	0.031199
C97	C	0.574014	-0.000088	0.094415
N98	N	0.570657	0.129174	-0.072931
C99	C	0.566606	-0.000061	-0.177113
C100	C	0.567256	-0.000054	-0.240328
C101	C	0.614103	-0.000067	0.493601
C102	C	0.613499	-0.000063	0.553000
O103	O	0.650662	-0.000050	0.589821
N104	N	0.569130	-0.000057	0.575535
C105	C	0.525361	-0.000049	0.538667
O106	O	0.487566	-0.000043	0.563288
C107	C	0.525966	-0.000049	0.479269
C108	C	0.570338	-0.000061	0.456738
C109	C	0.658472	-0.000078	0.471069
C110	C	0.659075	-0.000083	0.411674
C111	C	0.615310	-0.000076	0.374811
C112	C	0.570942	-0.000066	0.397343
C113	C	0.482198	-0.000038	0.442402
C114	C	0.482806	-0.000038	0.383001
C115	C	0.527178	-0.000050	0.360470
C116	C	0.527780	-0.000064	0.301085
N117	N	0.572150	-0.000071	0.278550
C118	C	0.615915	-0.000077	0.315413
C119	C	0.524095	-0.000048	0.663406
C120	C	0.523490	-0.000051	0.722803
C121	C	0.611629	-0.000064	0.737133
C122	C	0.612233	-0.000064	0.677735
C123	C	0.568465	-0.000054	0.640872
C124	C	0.617179	-0.000087	0.190679
C125	C	0.617779	-0.000094	0.131278
C126	C	0.529641	-0.000079	0.116954
C127	C	0.529041	-0.000074	0.176350
C128	C	0.572814	-0.000077	0.213211
O129	O	0.490636	-0.000075	0.264229
O130	O	0.653704	-0.000076	0.290784
H131	H	0.057624	-0.000096	0.073564
C132	C	0.111927	-0.000101	0.087778
N133	N	0.096024	-0.000111	0.131065
C134	C	0.673107	-0.633218	0.047942
N135	N	0.700490	-0.654856	0.080250
C136	C	0.706621	-0.000090	0.511611
N137	N	0.742891	-0.000104	0.542143
C138	C	0.029324	-0.000087	-0.233686
N139	N	0.045226	-0.000094	-0.276974
H140	H	0.492909	-0.000079	0.194695
C141	C	0.217796	-0.000096	0.086505
N142	N	0.243662	-0.000105	0.129280
H143	H	0.477612	-0.625766	-0.182668
C144	C	0.312638	-0.000057	-0.185066
N145	N	0.286789	-0.000058	-0.227853
H146	H	0.083638	-0.000069	-0.219463
H147	H	0.652823	-0.000088	0.220686
H148	H	0.494008	-0.000075	0.086930
H149	H	-0.067615	-0.000091	-0.217661
H150	H	0.477607	-0.531043	-0.182671
C151	C	-0.277228	-0.000101	0.040417
N152	N	-0.293136	-0.000110	0.083700
H153	H	-0.180286	-0.000100	0.024402
H154	H	0.630629	-0.865975	-0.002189
C155	C	0.501238	-0.873439	-0.154820
N156	N	0.473846	-0.895066	-0.187129
C157	C	0.640073	-0.763774	0.008955
N158	N	0.667461	-0.742146	0.041268
H159	H	0.488452	-0.000044	0.633395
C160	C	-0.039312	-0.000108	0.089585
N161	N	-0.055215	-0.000124	0.132871
H162	H	-0.202052	-0.000080	-0.164054
C163	C	0.501261	-0.763795	-0.154864
N164	N	0.473907	-0.742175	-0.187224
C165	C	0.707889	-0.000090	0.386899
N166	N	0.744658	-0.000093	0.368242
H167	H	-0.293521	-0.000080	-0.162957
H168	H	0.630594	-0.134167	-0.002234
C169	C	0.474677	-0.000045	0.747580
N170	N	0.437910	-0.000037	0.766240
H171	H	0.647265	-0.000067	0.767158
C172	C	0.661045	-0.000072	0.652957
N173	N	0.697813	-0.000077	0.634297
H174	H	0.653914	-0.000105	0.112937
H175	H	0.175088	-0.000064	-0.220557
C176	C	0.640044	-0.236351	0.008927
N177	N	0.667439	-0.257971	0.041239
H178	H	0.446065	-0.000026	0.460736
H179	H	0.663657	-0.374371	0.036782
C180	C	0.434656	-0.000029	0.342455
N181	N	0.398389	-0.000024	0.311916
C182	C	0.337840	-0.000071	0.033075
N183	N	0.321935	-0.000081	0.076360
C184	C	0.673106	-0.476551	0.047938
N185	N	0.700499	-0.498169	0.080254
C186	C	0.468145	-0.366922	-0.193824
N187	N	0.440757	-0.345298	-0.226140
C188	C	0.468142	-0.476566	-0.193815
N189	N	0.440744	-0.498191	-0.226120
H190	H	0.510650	-0.228916	-0.143717
H191	H	0.434795	-0.000061	0.017048
H192	H	0.510647	-0.134177	-0.143718
H193	H	0.413008	-0.000040	-0.171399
H194	H	0.663663	-0.531020	0.036794
