data_functionalizedCrystal
_audit_creation_method	'MofGen! by Chris Wilmer'
_symmetry_space_group_name_H-M	'P1'
_symmetry_Int_Tables_number	1
_symmetry_cell_setting	triclinic
loop_
_symmetry_equiv_pos_as_xyz
  x,y,z
_cell_length_a	16.109301
_cell_length_b	10.654550
_cell_length_c	9.130313
_cell_angle_alpha	90.004369
_cell_angle_beta	89.999196
_cell_angle_gamma	96.026794
loop_
_atom_site_label
_atom_site_type_symbol
_atom_site_fract_x
_atom_site_fract_y
_atom_site_fract_z
O1	O	1.104090	-0.161420	-0.121706
O2	O	0.862148	-0.181509	-0.121729
O3	O	0.988682	0.011350	-0.121708
O4	O	0.977556	-0.354279	-0.121728
O5	O	0.988673	0.011356	0.121891
O6	O	0.862139	-0.181503	0.121869
O7	O	1.104082	-0.161415	0.121893
Cu8	Cu	0.983110	-0.171458	0.144123
Cu9	Cu	0.983120	-0.171465	-0.143960
O10	O	0.977548	-0.354274	0.121871
C11	C	0.831164	-0.180692	0.000067
C12	C	0.738854	-0.178253	0.000058
C13	C	0.987861	0.058140	0.000090
C14	C	0.985417	0.197550	0.000088
N15	N	0.983108	-0.171453	0.346746
C16	C	0.517228	-0.287019	0.000070
C17	C	0.430494	-0.284717	0.000079
C18	C	0.449008	-0.055896	0.000085
C19	C	0.535741	-0.058199	0.000086
C20	C	0.569848	-0.173764	0.000071
C21	C	0.396382	-0.169159	0.000079
C22	C	0.302341	-0.166662	0.000090
C23	C	0.663895	-0.176262	0.000063
C24	C	1.135066	-0.162231	0.000093
C25	C	1.227376	-0.164671	0.000092
C26	C	0.978369	-0.401063	0.000069
C27	C	0.980813	-0.540473	0.000062
C28	C	1.059918	0.278046	0.000095
C29	C	1.057616	0.409036	0.000076
C30	C	0.906306	0.379020	0.000051
C31	C	0.908608	0.248033	0.000059
N32	N	0.983128	-0.171460	-0.346583
C33	C	1.039157	-0.086091	0.423407
C34	C	1.039165	-0.086091	0.576744
C35	C	0.927073	-0.256827	0.576745
C36	C	0.927062	-0.256820	0.423411
H37	H	0.544996	-0.381119	0.000068
H38	H	1.084803	-0.016580	0.639158
C39	C	0.593626	0.066386	0.000081
H40	H	0.560892	0.135542	0.000068
H41	H	0.627846	0.070248	0.085028
H42	H	0.627844	0.070233	-0.084879
H43	H	0.387654	-0.376940	0.000081
H44	H	1.084792	-0.016578	0.360991
H45	H	0.847937	0.182489	0.000049
C46	C	0.865407	-0.350696	0.661074
H47	H	0.832013	-0.401515	0.593452
H48	H	0.895591	-0.403007	0.720896
H49	H	0.830553	-0.305461	0.720882
C50	C	0.411486	0.071215	0.000083
H51	H	0.352295	0.056368	0.000066
H52	H	0.429501	0.117855	0.085029
H53	H	0.429507	0.117834	-0.084878
C54	C	1.144403	0.222518	0.000110
H55	H	1.188442	0.289224	0.000098
H56	H	1.148445	0.172052	0.085060
H57	H	1.148448	0.172038	-0.084847
H58	H	0.843771	0.420140	0.000031
C59	C	0.865408	-0.350726	0.339078
H60	H	0.832039	-0.401580	0.406695
H61	H	0.830540	-0.305528	0.279277
H62	H	0.895616	-0.403018	0.279247
H63	H	1.118283	0.474572	0.000079
