data_functionalizedCrystal
_audit_creation_method	'MofGen! by Chris Wilmer'
_symmetry_space_group_name_H-M	'P1'
_symmetry_Int_Tables_number	1
_symmetry_cell_setting	triclinic
loop_
_symmetry_equiv_pos_as_xyz
  x,y,z
_cell_length_a	10.654553
_cell_length_b	16.109301
_cell_length_c	14.586319
_cell_angle_alpha	89.998857
_cell_angle_beta	90.000403
_cell_angle_gamma	96.024960
loop_
_atom_site_label
_atom_site_type_symbol
_atom_site_fract_x
_atom_site_fract_y
_atom_site_fract_z
O1	O	-0.161420	1.104094	-0.076183
O2	O	0.338580	1.604094	0.423817
O3	O	-0.181508	0.862152	-0.076195
O4	O	0.318492	1.362152	0.423805
O5	O	0.011350	0.988682	-0.076191
O6	O	0.511350	1.488682	0.423809
O7	O	-0.354278	0.977564	-0.076188
O8	O	0.145722	1.477564	0.423812
O9	O	0.011353	0.988673	0.076290
O10	O	0.511353	1.488673	0.576290
O11	O	-0.181505	0.862143	0.076286
O12	O	0.318495	1.362143	0.576286
O13	O	-0.161417	1.104085	0.076298
O14	O	0.338583	1.604085	0.576298
Cu15	Cu	-0.171461	0.983113	0.090214
Cu16	Cu	0.328539	1.483113	0.590214
Cu17	Cu	-0.171464	0.983124	-0.090112
Cu18	Cu	0.328536	1.483124	0.409888
O19	O	-0.354275	0.977555	0.076293
O20	O	0.145725	1.477555	0.576293
C21	C	-0.180693	0.831167	0.000044
C22	C	0.319307	1.331167	0.500044
C23	C	-0.178253	0.738858	0.000039
C24	C	0.321747	1.238858	0.500039
C25	C	-0.284716	0.430495	0.000056
C26	C	0.215284	0.930495	0.500056
C27	C	-0.287020	0.517229	0.000050
C28	C	0.212980	1.017229	0.500050
C29	C	-0.058200	0.535737	0.000036
C30	C	0.441800	1.035737	0.500036
C31	C	-0.055897	0.449004	0.000035
C32	C	0.444103	0.949004	0.500035
C33	C	-0.169159	0.396385	0.000049
C34	C	0.330841	0.896385	0.500049
C35	C	-0.173766	0.569852	0.000045
C36	C	0.326234	1.069852	0.500045
C37	C	-0.176263	0.663892	0.000040
C38	C	0.323737	1.163892	0.500040
C39	C	-0.166662	0.302338	0.000053
C40	C	0.333338	0.802338	0.500053
C41	C	-0.401063	0.978377	0.000053
C42	C	0.098937	1.478377	0.500053
C43	C	-0.540473	0.980824	0.000055
C44	C	-0.040473	1.480824	0.500055
C45	C	-0.540490	0.980825	0.166294
C46	C	-0.040490	1.480825	0.666294
C47	C	-0.605992	0.981977	0.249411
C48	C	-0.105992	1.481977	0.749411
C49	C	-0.736979	0.984276	0.249407
C50	C	-0.236979	1.484276	0.749407
C51	C	-0.802468	0.985419	0.166277
C52	C	-0.302468	1.485419	0.666277
C53	C	-0.736966	0.984267	0.083161
C54	C	-0.236966	1.484267	0.583161
C55	C	-0.605976	0.981971	0.083173
C56	C	-0.105976	1.481971	0.583173
C57	C	-0.736950	0.984260	-0.083077
C58	C	-0.236950	1.484260	0.416923
C59	C	-0.605962	0.981967	-0.083075
C60	C	-0.105962	1.481967	0.416925
C61	C	-0.802440	0.985403	-0.166206
C62	C	-0.302440	1.485403	0.333794
C63	C	-0.736937	0.984257	-0.249325
C64	C	-0.236937	1.484257	0.250675
C65	C	-0.605941	0.981959	-0.249318
C66	C	-0.105941	1.481959	0.250682
C67	C	-0.540460	0.980815	-0.166192
C68	C	-0.040460	1.480815	0.333808
C69	C	0.058138	0.987859	0.000047
C70	C	0.558138	1.487859	0.500047
C71	C	0.197548	0.985412	0.000040
C72	C	0.697548	1.485412	0.500040
C73	C	-0.162232	1.135069	0.000057
C74	C	0.337768	1.635069	0.500057
C75	C	-0.164672	1.227379	0.000056
C76	C	0.335328	1.727379	0.500056
N77	N	-0.171458	0.983112	0.217046
N78	N	0.328542	1.483112	0.717046
N79	N	-0.171457	0.983131	-0.216943
N80	N	0.328543	1.483131	0.283057
C81	C	-0.086089	1.039158	0.452055
C82	C	0.413911	1.539158	0.952055
C83	C	-0.086086	1.039160	0.548036
C84	C	0.413914	1.539160	1.048036
C85	C	-0.256830	0.927079	0.548041
C86	C	0.243170	1.427079	1.048041
C87	C	-0.256826	0.927073	0.452062
C88	C	0.243174	1.427073	0.952062
C89	C	-0.171457	0.983117	0.404071
C90	C	0.328543	1.483117	0.904071
C91	C	-0.171458	0.983126	0.596032
C92	C	0.328542	1.483126	1.096032
C93	C	-0.171455	0.983128	0.700099
C94	C	0.328545	1.483128	1.200099
C95	C	-0.171458	0.983114	0.299997
C96	C	0.328542	1.483114	0.799997
H97	H	0.038208	0.421233	0.000027
H98	H	0.538208	0.921233	0.500027
H99	H	-0.433831	0.978962	0.166305
H100	H	0.066169	1.478962	0.666305
H101	H	0.034013	0.578589	0.000027
H102	H	0.534013	1.078589	0.500027
H103	H	-0.433803	0.978948	-0.166178
H104	H	0.066197	1.478948	0.333822
H105	H	-0.552656	0.981044	0.317093
H106	H	-0.052656	1.481044	0.817093
H107	H	-0.790313	0.985199	0.317088
H108	H	-0.290313	1.485199	0.817088
H109	H	-0.016570	1.084793	0.587102
H110	H	0.483430	1.584793	1.087102
H111	H	-0.326338	0.881450	0.587125
H112	H	0.173662	1.381450	1.087125
H113	H	-0.552619	0.981014	-0.317002
H114	H	-0.052619	1.481014	0.182998
H115	H	-0.909097	0.987270	-0.166203
H116	H	-0.409097	1.487270	0.333797
H117	H	-0.909127	0.987281	0.166282
H118	H	-0.409127	1.487281	0.666282
H119	H	-0.790269	0.985182	-0.317002
H120	H	-0.290269	1.485182	0.182998
H121	H	-0.016574	1.084791	0.412983
H122	H	0.483426	1.584791	0.912983
H123	H	-0.376941	0.387654	0.000067
H124	H	0.123059	0.887654	0.500067
H125	H	-0.381117	0.544996	0.000055
H126	H	0.118883	1.044996	0.500055
H127	H	-0.326344	0.881434	0.412991
H128	H	0.173656	1.381434	0.912991
