data_functionalizedCrystal
_audit_creation_method	'MofGen! by Chris Wilmer'
_symmetry_space_group_name_H-M	'P1'
_symmetry_Int_Tables_number	1
_symmetry_cell_setting	triclinic
loop_
_symmetry_equiv_pos_as_xyz
  x,y,z
_cell_length_a	14.853568
_cell_length_b	16.098538
_cell_length_c	17.019361
_cell_angle_alpha	96.591607
_cell_angle_beta	83.514432
_cell_angle_gamma	87.260287
loop_
_atom_site_label
_atom_site_type_symbol
_atom_site_fract_x
_atom_site_fract_y
_atom_site_fract_z
O1	O	-1.199704	0.062046	-0.099836
O2	O	-0.699704	0.562046	0.400164
O3	O	-0.937161	0.061177	-0.112149
O4	O	-0.437161	0.561177	0.387851
O5	O	-1.076238	0.069866	0.009250
O6	O	-0.576238	0.569866	0.509250
O7	O	-1.060628	0.053356	-0.221235
O8	O	-0.560628	0.553356	0.278765
O9	O	-1.068114	-0.069153	0.002186
O10	O	-0.568114	0.430847	0.502186
O11	O	-0.929037	-0.077842	-0.119212
O12	O	-0.429037	0.422158	0.380788
O13	O	-1.191580	-0.076973	-0.106900
O14	O	-0.691580	0.423027	0.393100
Zn15	Zn	-1.059019	-0.099480	-0.114178
Zn16	Zn	-0.559019	0.400520	0.385822
Zn17	Zn	-1.069723	0.083683	-0.104871
Zn18	Zn	-0.569723	0.583683	0.395129
O19	O	-1.052504	-0.085662	-0.228299
O20	O	-0.552504	0.414338	0.271701
C21	C	-0.899514	-0.008291	-0.115122
C22	C	-0.399514	0.491709	0.384878
C23	C	-0.799442	-0.008166	-0.113450
C24	C	-0.299442	0.491834	0.386550
N25	N	-1.051720	-0.224483	-0.120529
N26	N	-0.551720	0.275517	0.379471
C27	C	-0.387453	-0.002514	-0.034269
C28	C	0.112547	0.497486	0.465731
C29	C	-0.365178	-0.012844	-0.178494
C30	C	0.134822	0.487156	0.321506
C31	C	-0.459201	-0.012954	-0.180066
C32	C	0.040799	0.487046	0.319934
C33	C	-0.517355	-0.007842	-0.108738
C34	C	-0.017355	0.492158	0.391262
C35	C	-0.481485	-0.002621	-0.035839
C36	C	0.018515	0.497379	0.464161
C37	C	-0.495078	-0.018166	-0.252964
C38	C	0.004922	0.481834	0.247036
C39	C	-0.589107	-0.018275	-0.254539
C40	C	-0.089107	0.481725	0.245461
C41	C	-0.647262	-0.013170	-0.183211
C42	C	-0.147262	0.486830	0.316789
C43	C	-0.611387	-0.007949	-0.110308
C44	C	-0.111387	0.492051	0.389692
C45	C	-0.669541	-0.002838	-0.038981
C46	C	-0.169541	0.497162	0.461019
C47	C	-0.633667	0.002377	0.033923
C48	C	-0.133667	0.502377	0.533923
C49	C	-0.539641	0.002484	0.035489
C50	C	-0.039641	0.502484	0.535489
C51	C	-0.741289	-0.013277	-0.184778
C52	C	-0.241289	0.486723	0.315222
C53	C	-0.763573	-0.002945	-0.040550
C54	C	-0.263573	0.497055	0.459450
C55	C	-1.110771	-0.264382	-0.069021
C56	C	-0.610771	0.235618	0.430979
C57	C	-1.105674	-0.351889	-0.073471
C58	C	-0.605674	0.148111	0.426529
C59	C	-1.041529	-0.399497	-0.129434
C60	C	-0.541529	0.100503	0.370566
C61	C	-0.982472	-0.359593	-0.180944
C62	C	-0.482472	0.140407	0.319056
C63	C	-0.987566	-0.272087	-0.176490
C64	C	-0.487566	0.227913	0.323510
C65	C	-1.023064	-0.663902	-0.145569
C66	C	-0.523064	-0.163902	0.354431
C67	C	-1.017977	-0.751414	-0.150022
C68	C	-0.517977	-0.251414	0.349978
C69	C	-1.141179	-0.743704	-0.042547
C70	C	-0.641179	-0.243704	0.457453
C71	C	-1.146270	-0.656197	-0.038100
C72	C	-0.646270	-0.156197	0.461900
C73	C	-1.087210	-0.616300	-0.089608
C74	C	-0.587210	-0.116300	0.410392
C75	C	-1.036320	-0.488944	-0.133986
C76	C	-0.536320	0.011056	0.366014
C77	C	-1.092416	-0.526855	-0.085052
C78	C	-0.592416	-0.026855	0.414948
C79	C	-0.229227	-0.007504	-0.103926
C80	C	0.270773	0.492496	0.396074
C81	C	-0.329300	-0.007626	-0.105597
C82	C	0.170700	0.492374	0.394403
C83	C	-1.071744	0.002471	0.035215
C84	C	-0.571744	0.502471	0.535215
C85	C	-1.070446	0.008773	0.123106
C86	C	-0.570446	0.508773	0.623106
N87	N	-1.077028	0.208687	-0.098514
N88	N	-0.577028	0.708687	0.401486
C89	C	-1.065406	-0.064042	0.160555
C90	C	-0.565406	0.435958	0.660555
C91	C	-1.064193	-0.058114	0.243139
C92	C	-0.564193	0.441886	0.743139
C93	C	-1.068014	0.020629	0.288272
C94	C	-0.568014	0.520629	0.788272
C95	C	-1.073057	0.093450	0.250819
C96	C	-0.573057	0.593450	0.750819
C97	C	-1.074276	0.087521	0.168237
C98	C	-0.574276	0.587521	0.668237
C99	C	-1.064559	0.042322	0.537810
C100	C	-0.564559	0.542322	1.037810
C101	C	-1.063337	0.048245	0.620397
C102	C	-0.563337	0.548245	1.120397
C103	C	-1.054475	-0.103320	0.612711
C104	C	-0.554475	0.396680	1.112711
C105	C	-1.055689	-0.109242	0.530127
C106	C	-0.555689	0.390758	1.030127
C107	C	-1.060737	-0.036421	0.492681
C108	C	-0.560737	0.463579	0.992681
C109	C	-1.066771	0.026691	0.372687
C110	C	-0.566771	0.526691	0.872687
C111	C	-1.061986	-0.042483	0.408270
C112	C	-0.561986	0.457517	0.908270
C113	C	-1.056998	-0.018268	0.745736
C114	C	-0.556998	0.481732	1.245736
C115	C	-1.058297	-0.024570	0.657845
C116	C	-0.558297	0.475430	1.157845
H117	H	-0.810916	0.001214	0.017534
H118	H	-0.310916	0.501214	0.517534
H119	H	-1.076173	0.157565	0.287574
H120	H	-0.576173	0.657565	0.787574
H121	H	-1.198502	-0.617436	0.007469
H122	H	-0.698502	-0.117436	0.507469
F123	F	-0.433184	-0.023594	-0.328869
F124	F	0.066816	0.476406	0.171131
H125	H	-1.189262	-0.776197	-0.000611
H126	H	-0.689262	-0.276197	0.499389
H127	H	-0.317825	-0.016999	-0.236565
H128	H	0.182175	0.483001	0.263435
F129	F	-0.949702	-0.802077	-0.209590
F130	F	-0.449702	-0.302077	0.290410
F131	F	-0.924712	-0.229625	-0.231310
F132	F	-0.424712	0.270375	0.268690
H133	H	-0.618306	-0.022521	-0.313901
H134	H	-0.118306	0.477479	0.186099
H135	H	-0.984093	-0.527714	-0.179554
H136	H	-0.484093	-0.027714	0.320446
F137	F	-0.779465	-0.018821	-0.262360
F138	F	-0.279465	0.481179	0.237640
F139	F	-1.067399	0.132058	0.668430
F140	F	-0.567399	0.632058	1.168430
F141	F	-1.179048	-0.213722	-0.009460
F142	F	-0.679048	0.286278	0.490540
F143	F	-1.069928	0.119824	0.497967
F144	F	-0.569928	0.619824	0.997967
H145	H	-1.153758	-0.384374	-0.031529
H146	H	-0.653758	0.115626	0.468471
F147	F	-1.079644	0.165021	0.128383
F148	F	-0.579644	0.665021	0.628383
F149	F	-0.695569	0.007822	0.109832
F150	F	-0.195569	0.507822	0.609832
H151	H	-0.510422	0.006710	0.094842
H152	H	-0.010422	0.506710	0.594842
H153	H	-0.358241	0.001728	0.025087
H154	H	0.141759	0.501728	0.525087
H155	H	-1.144640	-0.488090	-0.039484
H156	H	-0.644640	0.011910	0.460516
H157	H	-1.062280	-0.128164	0.123810
H158	H	-0.562280	0.371836	0.623810
F159	F	-0.960211	-0.621448	-0.200389
F160	F	-0.460211	-0.121448	0.299611
F161	F	-1.058828	-0.135615	0.282990
F162	F	-0.558828	0.364385	0.782990
H163	H	-1.052598	-0.173363	0.493387
H164	H	-0.552598	0.326637	0.993387
F165	F	-0.914199	-0.410261	-0.240501
F166	F	-0.414199	0.089739	0.259499
F167	F	-1.049104	-0.180815	0.652570
F168	F	-0.549104	0.319185	1.152570
F169	F	-1.057925	-0.126285	0.360234
F170	F	-0.557925	0.373715	0.860234
F171	F	-1.070842	0.110493	0.420729
F172	F	-0.570842	0.610493	0.920729
