data_functionalizedCrystal
_audit_creation_method	'MofGen! by Chris Wilmer'
_symmetry_space_group_name_H-M	'P1'
_symmetry_Int_Tables_number	1
_symmetry_cell_setting	triclinic
loop_
_symmetry_equiv_pos_as_xyz
  x,y,z
_cell_length_a	10.967926
_cell_length_b	19.188930
_cell_length_c	10.066280
_cell_angle_alpha	99.850730
_cell_angle_beta	111.730639
_cell_angle_gamma	83.946584
loop_
_atom_site_label
_atom_site_type_symbol
_atom_site_fract_x
_atom_site_fract_y
_atom_site_fract_z
O1	O	1.696072	0.121082	0.285373
O2	O	2.196072	0.621082	0.785373
O3	O	1.320042	0.123278	0.196936
O4	O	1.820042	0.623278	0.696936
O5	O	1.518913	0.020802	0.243734
O6	O	2.018913	0.520802	0.743734
O7	O	1.497202	0.223558	0.238575
O8	O	1.997202	0.723558	0.738575
O9	O	1.552603	0.039868	0.478627
O10	O	2.052603	0.539868	0.978627
O11	O	1.353733	0.142344	0.431828
O12	O	1.853733	0.642344	0.931828
O13	O	1.729763	0.140148	0.520266
O14	O	2.229763	0.640148	1.020266
Zn15	Zn	1.547097	0.144273	0.513341
Zn16	Zn	2.047097	0.644273	1.013341
Zn17	Zn	1.502708	0.119153	0.203860
Zn18	Zn	2.002708	0.619153	0.703860
O19	O	1.530893	0.242624	0.473468
O20	O	2.030893	0.742624	0.973468
C21	C	1.288780	0.131210	0.303068
C22	C	1.788780	0.631210	0.803068
C23	C	1.145433	0.126433	0.269356
C24	C	1.645433	0.626433	0.769356
C25	C	1.098977	0.134180	0.376007
C26	C	1.598977	0.634180	0.876007
C27	C	0.950821	0.129243	0.341167
C28	C	1.450821	0.629243	0.841167
C29	C	1.535056	0.004306	0.361019
C30	C	2.035056	0.504306	0.861019
C31	C	1.532948	-0.073251	0.360535
C32	C	2.032948	0.426749	0.860535
C33	C	1.649637	-0.115214	0.387986
C34	C	2.149637	0.384786	0.887986
C35	C	1.647652	-0.188090	0.387497
C36	C	2.147652	0.311910	0.887497
C37	C	1.528975	-0.218997	0.359585
C38	C	2.028975	0.281003	0.859585
C39	C	1.412269	-0.177025	0.332123
C40	C	1.912269	0.322975	0.832123
C41	C	1.414255	-0.104152	0.332598
C42	C	1.914255	0.395848	0.832598
N43	N	1.449726	-0.322815	0.418188
N44	N	1.949726	0.177185	0.918188
N45	N	1.447847	-0.392041	0.417741
N46	N	1.947847	0.107959	0.917741
C47	C	1.522981	-0.438560	0.358147
C48	C	2.022981	0.061440	0.858147
N49	N	1.600088	-0.413236	0.299039
N50	N	2.100088	0.086764	0.799039
N51	N	1.601972	-0.344003	0.299493
N52	N	2.101972	0.155997	0.799493
C53	C	1.526807	-0.298015	0.359065
C54	C	2.026807	0.201985	0.859065
C55	C	1.637526	-0.559544	0.385068
C56	C	2.137526	-0.059544	0.885068
C57	C	1.635534	-0.632422	0.384569
C58	C	2.135534	-0.132422	0.884569
C59	C	1.400150	-0.621354	0.329208
C60	C	1.900150	-0.121354	0.829208
C61	C	1.402143	-0.548479	0.329693
C62	C	1.902143	-0.048479	0.829693
C63	C	1.520835	-0.517578	0.357631
C64	C	2.020835	-0.017578	0.857631
C65	C	1.761025	0.132215	0.414131
C66	C	2.261025	0.632215	0.914131
C67	C	1.904371	0.136992	0.447833
C68	C	2.404371	0.636992	0.947833
C69	C	1.514749	0.259119	0.356179
C70	C	2.014749	0.759119	0.856179
C71	C	1.516856	0.336676	0.356654
C72	C	2.016856	0.836676	0.856654
N73	N	1.577401	0.161417	0.724556
N74	N	2.077401	0.661417	1.224556
N75	N	1.472415	0.102004	-0.007352
N76	N	1.972415	0.602004	0.492648
C77	C	1.536581	0.138308	0.939922
C78	C	2.036581	0.638308	1.439922
C79	C	1.513226	0.125108	0.777276
C80	C	2.013226	0.625108	1.277276
H81	H	1.168890	0.144464	0.493109
H82	H	1.668890	0.644464	0.993109
H83	H	1.734171	-0.534384	0.407809
H84	H	2.234171	-0.034384	0.907809
Br85	Br	1.810713	-0.073283	0.425861
Br86	Br	2.310713	0.426717	0.925861
H87	H	1.075522	0.116144	0.152255
H88	H	1.575522	0.616144	0.652255
Br89	Br	1.656948	0.206409	1.065363
Br90	Br	2.156948	0.706409	1.565363
H91	H	1.742676	-0.222263	0.409845
H92	H	2.242676	0.277737	0.909845
H93	H	0.880914	0.118954	0.224058
H94	H	1.380914	0.618954	0.724058
Br95	Br	1.251203	-0.218970	0.294223
Br96	Br	1.751203	0.281030	0.794223
Br97	Br	1.255878	-0.047198	0.295337
Br98	Br	1.755878	0.452802	0.795337
H99	H	1.730560	-0.666589	0.406916
H100	H	2.230560	-0.166589	0.906916
H101	H	0.974278	0.147277	0.564944
H102	H	1.474278	0.647277	1.064944
Br103	Br	1.239083	-0.663293	0.291312
Br104	Br	1.739083	-0.163293	0.791312
H105	H	1.307123	-0.514311	0.307348
H106	H	1.807123	-0.014311	0.807348
Br107	Br	1.392824	0.057018	0.651833
Br108	Br	1.892824	0.557018	1.151833
Br109	Br	1.697785	0.229516	0.849991
Br110	Br	2.197785	0.729516	1.349991
H111	H	1.400183	0.061155	0.917375
H112	H	1.900183	0.561155	1.417375
