data_functionalizedCrystal
_audit_creation_method	'MofGen! by Chris Wilmer'
_symmetry_space_group_name_H-M	'P1'
_symmetry_Int_Tables_number	1
_symmetry_cell_setting	triclinic
loop_
_symmetry_equiv_pos_as_xyz
  x,y,z
_cell_length_a	15.995350
_cell_length_b	15.995350
_cell_length_c	14.472310
_cell_angle_alpha	89.998838
_cell_angle_beta	89.990621
_cell_angle_gamma	96.507625
loop_
_atom_site_label
_atom_site_type_symbol
_atom_site_fract_x
_atom_site_fract_y
_atom_site_fract_z
O1	O	1.110997	-0.107921	-0.076758
O2	O	0.867221	-0.121248	-0.076776
O3	O	0.995773	0.007303	-0.076766
O4	O	0.982445	-0.236472	-0.076769
O5	O	0.995740	0.007296	0.076916
O6	O	0.867188	-0.121256	0.076906
O7	O	1.110963	-0.107928	0.076924
Cu8	Cu	0.989073	-0.114593	0.090947
Cu9	Cu	0.989112	-0.114584	-0.090800
O10	O	0.982412	-0.236480	0.076913
C11	C	0.836010	-0.120701	0.000062
C12	C	0.743060	-0.119049	0.000055
C13	C	0.405312	-0.113117	0.000074
C14	C	0.452746	-0.021565	0.000418
C15	C	0.549436	-0.023217	0.000065
C16	C	0.572873	-0.116060	0.000065
C17	C	0.531804	-0.161212	-0.087692
C18	C	0.435169	-0.158912	-0.087759
C19	C	0.434792	-0.160812	0.087007
C20	C	0.531737	-0.160790	0.088160
C21	C	0.667570	-0.117727	0.000057
C22	C	0.310614	-0.111452	0.000076
C23	C	0.995205	0.038494	0.000073
C24	C	0.993553	0.131444	0.000068
C25	C	1.142175	-0.108476	0.000083
C26	C	1.235125	-0.110127	0.000084
C27	C	0.982980	-0.267671	0.000072
C28	C	0.984631	-0.360621	0.000071
N29	N	0.989051	-0.114598	0.218778
C30	C	0.987621	0.469192	0.000071
C31	C	0.896069	0.421758	-0.000281
C32	C	0.897721	0.325068	0.000066
C33	C	0.990564	0.301631	0.000069
C34	C	1.035701	0.342705	0.087831
C35	C	1.033401	0.439340	0.087904
C36	C	1.035330	0.439707	-0.086861
C37	C	1.035309	0.342762	-0.088021
C38	C	0.992231	0.206934	0.000071
C39	C	0.985956	0.563890	0.000075
N40	N	0.989140	-0.114572	-0.218631
C41	C	0.989111	-0.114581	0.592869
C42	C	0.920095	-0.183135	0.553698
C43	C	0.920254	-0.183385	0.446610
C44	C	0.989081	-0.114590	0.407278
C45	C	1.076445	-0.133671	0.446122
C46	C	1.076057	-0.134159	0.553243
C47	C	0.971542	-0.026741	0.553398
C48	C	0.969538	-0.027327	0.446270
C49	C	0.989069	-0.114593	0.302390
C50	C	0.989128	-0.114579	0.697757
H51	H	0.577852	0.012275	0.062973
H52	H	0.403031	-0.228313	0.087600
C53	C	0.994909	0.467455	-0.176725
N54	N	0.964454	0.488353	-0.244405
H55	H	1.002307	0.315516	-0.152945
H56	H	1.100617	0.471588	0.091888
C57	C	0.832519	-0.168041	0.411130
N58	N	0.766431	-0.156489	0.384412
C59	C	0.427696	0.027871	0.085437
N60	N	0.408822	0.065108	0.149475
H61	H	1.129018	-0.086196	0.579154
H62	H	0.559040	-0.127830	0.153082
C63	C	1.127842	0.323605	0.092258
N64	N	1.197241	0.309212	0.095595
H65	H	1.091540	-0.198219	0.578220
H66	H	1.004324	0.314320	0.153137
H67	H	0.931159	-0.247952	0.580608
H68	H	1.103014	0.327400	-0.093317
C69	C	0.887327	-0.001971	0.589925
N70	N	0.823892	0.016677	0.617436
C71	C	0.426282	0.027658	-0.084122
N72	N	0.406346	0.064732	-0.147797
C73	C	1.147487	-0.068013	0.411700
N74	N	1.200995	-0.018558	0.385771
C75	C	0.391602	-0.249715	-0.093159
N76	N	0.358791	-0.318106	-0.097236
C77	C	1.126519	0.482619	-0.087659
N78	N	1.195199	0.514946	-0.088254
H79	H	0.862239	0.296649	-0.062846
C80	C	0.550891	-0.253358	-0.092107
N81	N	0.565270	-0.322762	-0.095431
H82	H	1.092297	-0.197002	0.419285
C83	C	0.832080	-0.168045	0.588550
N84	N	0.765786	-0.156682	0.614814
H85	H	0.931473	-0.248569	0.420976
H86	H	0.905272	-0.012845	0.420883
H87	H	1.016541	0.026079	0.419500
H88	H	1.021872	0.024275	0.578728
H89	H	1.000459	0.457639	0.153505
H90	H	0.577308	0.012521	-0.062951
C91	C	0.846844	0.448198	0.084281
N92	N	0.809773	0.468105	0.147981
C93	C	0.570148	-0.118833	-0.175925
N94	N	0.599027	-0.086907	-0.242380
C95	C	0.410453	-0.114412	-0.176376
N96	N	0.391842	-0.080889	-0.243123
C97	C	0.407039	-0.120375	0.176870
N98	N	0.386137	-0.089909	0.244550
H99	H	0.547101	-0.228494	0.093461
H100	H	0.859490	0.440293	-0.063217
H101	H	0.861973	0.297200	0.063079
