data_functionalizedCrystal
_audit_creation_method	'MofGen! by Chris Wilmer'
_symmetry_space_group_name_H-M	'P1'
_symmetry_Int_Tables_number	1
_symmetry_cell_setting	triclinic
loop_
_symmetry_equiv_pos_as_xyz
  x,y,z
_cell_length_a	27.354012
_cell_length_b	27.353283
_cell_length_c	27.349551
_cell_angle_alpha	60.005606
_cell_angle_beta	60.011434
_cell_angle_gamma	59.993282
loop_
_atom_site_label
_atom_site_type_symbol
_atom_site_fract_x
_atom_site_fract_y
_atom_site_fract_z
O1	O	0.067635	-0.714267	0.597330
O2	O	0.567635	-0.214267	1.097330
O3	O	0.025429	-0.556105	0.481282
O4	O	0.525429	-0.056105	0.981282
O5	O	0.125575	-0.656186	0.481214
O6	O	0.625575	-0.156186	0.981214
O7	O	-0.032512	-0.614186	0.597397
O8	O	0.467488	-0.114186	1.097397
O9	O	0.158797	-0.622968	0.514367
O10	O	0.658797	-0.122968	1.014367
O11	O	0.058650	-0.522887	0.514434
O12	O	0.558650	-0.022887	1.014434
O13	O	0.100856	-0.681048	0.630482
O14	O	0.600856	-0.181048	1.130482
Zn15	Zn	0.085028	-0.596693	0.577722
Zn16	Zn	0.585028	-0.096693	1.077722
Zn17	Zn	0.041257	-0.640460	0.534042
Zn18	Zn	0.541257	-0.140460	1.034042
O19	O	0.000709	-0.580967	0.630549
O20	O	0.500709	-0.080967	1.130549
N21	N	0.114901	-0.566828	0.607534
N22	N	0.614901	-0.066828	1.107534
N23	N	0.011389	-0.670331	0.504229
N24	N	0.511389	-0.170331	1.004229
C25	C	0.179404	-0.338196	0.672015
C26	C	0.679404	0.161804	1.172015
C27	C	0.179501	-0.502386	0.836160
C28	C	0.679501	-0.002386	1.336160
C29	C	0.179415	-0.502363	0.671996
C30	C	0.679415	-0.002363	1.171996
C31	C	0.343611	-0.502373	0.671960
C32	C	0.843611	-0.002373	1.171960
C33	C	0.197478	-0.392371	0.690061
C34	C	0.697478	0.107629	1.190061
C35	C	0.197534	-0.484321	0.781984
C36	C	0.697534	0.015679	1.281984
C37	C	0.289434	-0.484312	0.690032
C38	C	0.789434	0.015688	1.190032
C39	C	0.197486	-0.484308	0.690051
C40	C	0.697486	0.015692	1.190051
C41	C	0.156398	-0.269238	0.649045
C42	C	0.656398	0.230762	1.149045
C43	C	0.156418	-0.525342	0.649015
C44	C	0.656418	-0.025342	1.149015
C45	C	0.220484	-0.461329	0.713032
C46	C	0.720484	0.038671	1.213032
C47	C	0.443889	-0.485097	0.619172
C48	C	0.943889	0.014903	1.119172
C49	C	0.506571	-0.505993	0.598266
C50	C	1.006571	-0.005993	1.098266
C51	C	0.506589	-0.607412	0.636940
C52	C	1.006589	-0.107412	1.136940
C53	C	0.443909	-0.586515	0.657848
C54	C	0.943909	-0.086515	1.157848
C55	C	0.171510	-0.237888	0.587422
C56	C	0.671510	0.262112	1.087422
C57	C	0.150593	-0.175201	0.566543
C58	C	0.650593	0.324799	1.066543
C59	C	0.099458	-0.175218	0.668913
C60	C	0.599458	0.324782	1.168913
C61	C	0.120375	-0.237905	0.689792
C62	C	0.620375	0.262095	1.189792
C63	C	0.094789	-0.510201	0.664176
C64	C	0.594789	-0.010201	1.164176
C65	C	0.073888	-0.531091	0.643278
C66	C	0.573888	-0.031091	1.143278
C67	C	0.176239	-0.582263	0.592072
C68	C	0.676239	-0.082263	1.092072
C69	C	0.197142	-0.561373	0.612963
C70	C	0.697142	-0.061373	1.112963
C71	C	0.094933	-0.510244	0.936476
C72	C	0.594933	-0.010244	1.436476
C73	C	0.074073	-0.531151	0.999161
C74	C	0.574073	-0.031151	1.499161
C75	C	0.176453	-0.582335	0.999126
C76	C	0.676453	-0.082335	1.499126
C77	C	0.197312	-0.561429	0.936439
C78	C	0.697312	-0.061429	1.436439
C79	C	0.156551	-0.525382	0.905116
C80	C	0.656551	-0.025382	1.405116
C81	C	0.412561	-0.525357	0.648961
C82	C	0.912561	-0.025357	1.148961
C83	C	-0.098513	-0.688235	0.485867
C84	C	0.401487	-0.188235	0.985867
C85	C	-0.006461	-0.688368	0.394066
C86	C	0.493539	-0.188368	0.894066
C87	C	-0.006645	-0.780264	0.486040
C88	C	0.493355	-0.280264	0.986040
C89	C	-0.006630	-0.688361	0.486097
C90	C	0.493370	-0.188361	0.986097
C91	C	-0.029562	-0.711308	0.463018
C92	C	0.470438	-0.211308	0.963018
N93	N	0.537030	-0.566846	0.607436
N94	N	1.037030	-0.066846	1.107436
O95	O	0.741877	-0.576849	0.459995
O96	O	1.241877	-0.076849	0.959995
O97	O	0.742050	-0.693241	0.618010
O98	O	1.242050	-0.193241	1.118010
O99	O	0.741986	-0.692977	0.517791
O100	O	1.241986	-0.192977	1.017791
O101	O	0.741941	-0.577114	0.560214
O102	O	1.241941	-0.077114	1.060214
O103	O	0.642405	-0.659839	0.551046
O104	O	1.142405	-0.159839	1.051046
O105	O	0.642469	-0.660104	0.651265
O106	O	1.142469	-0.160104	1.151265
O107	O	0.642296	-0.543712	0.493251
O108	O	1.142296	-0.043712	0.993251
Zn109	Zn	0.626572	-0.596646	0.577538
Zn110	Zn	1.126572	-0.096646	1.077538
Zn111	Zn	0.757774	-0.640307	0.533723
Zn112	Zn	1.257774	-0.140307	1.033723
O113	O	0.642360	-0.543976	0.593469
O114	O	1.142360	-0.043976	1.093469
N115	N	0.847316	-0.670107	0.503818
N116	N	1.347316	-0.170107	1.003818
N117	N	0.114877	-0.144758	0.607577
N118	N	0.614877	0.355242	1.107577
O119	O	-0.032498	0.060193	0.597441
O120	O	0.467502	0.560193	1.097441
O121	O	0.125523	0.060193	0.481067
O122	O	0.625523	0.560193	0.981067
O123	O	0.025289	0.060179	0.481345
O124	O	0.525289	0.560179	0.981345
O125	O	0.067736	0.060207	0.597163
O126	O	0.567736	0.560207	1.097163
O127	O	0.058511	-0.039410	0.514543
O128	O	0.558511	0.460590	1.014543
O129	O	0.158745	-0.039397	0.514265
O130	O	0.658745	0.460603	1.014265
O131	O	0.000724	-0.039396	0.630638
O132	O	0.500724	0.460604	1.130638
Zn133	Zn	0.085009	-0.055208	0.577722
Zn134	Zn	0.585009	0.444792	1.077722
Zn135	Zn	0.041238	0.076005	0.533983
Zn136	Zn	0.541238	0.576005	1.033983
O137	O	0.100958	-0.039382	0.630360
O138	O	0.600958	0.460618	1.130360
N139	N	0.011362	0.165555	0.504130
N140	N	0.511362	0.665555	1.004130
N141	N	0.115121	-0.566884	1.029592
N142	N	0.615121	-0.066884	1.529592
O143	O	0.104990	-0.714248	1.234528
O144	O	0.604990	-0.214248	1.734528
O145	O	-0.011371	-0.556177	1.234539
O146	O	0.488629	-0.056177	1.734539
O147	O	-0.011103	-0.656395	1.234497
O148	O	0.488897	-0.156395	1.734497
O149	O	0.104722	-0.614030	1.234569
O150	O	0.604722	-0.114030	1.734569
O151	O	0.022090	-0.623190	1.134913
O152	O	0.522090	-0.123190	1.634913
O153	O	0.021822	-0.522972	1.134954
O154	O	0.521822	-0.022972	1.634954
O155	O	0.138182	-0.681044	1.134943
O156	O	0.638182	-0.181044	1.634943
Zn157	Zn	0.085272	-0.596736	1.119137
Zn158	Zn	0.585272	-0.096736	1.619137
Zn159	Zn	0.041539	-0.640484	1.250344
Zn160	Zn	0.541539	-0.140484	1.750344
O161	O	0.137914	-0.580826	1.134984
O162	O	0.637914	-0.080826	1.634984
N163	N	0.011689	-0.670343	1.339890
N164	N	0.511689	-0.170343	1.839890
C165	C	0.038085	-0.519567	0.481870
C166	C	0.538085	-0.019567	0.981870
C167	C	0.162104	-0.643505	0.481786
C168	C	0.662104	-0.143505	0.981786
C169	C	0.088200	-0.717587	0.629893
C170	C	0.588200	-0.217587	1.129893
C171	C	-0.035819	-0.593649	0.629977
C172	C	0.464181	-0.093649	1.129977
C173	C	0.692280	-0.692701	0.654545
C174	C	1.192280	-0.192701	1.154545
C175	C	0.692203	-0.692374	0.530435
C176	C	1.192203	-0.192374	1.030435
C177	C	0.692063	-0.544251	0.456717
C178	C	1.192063	-0.044251	0.956717
C179	C	0.692144	-0.544580	0.580825
C180	C	1.192144	-0.044580	1.080825
C181	C	0.162000	0.010521	0.481600
C182	C	0.662000	0.510521	0.981600
C183	C	0.037914	0.010381	0.481984
C184	C	0.537914	0.510381	0.981984
C185	C	-0.035795	0.010399	0.630065
C186	C	0.464205	0.510399	1.130065
C187	C	0.088333	0.010415	0.629722
C188	C	0.588333	0.510415	1.129722
C189	C	-0.010799	-0.519660	1.184747
C190	C	0.489201	-0.019660	1.684747
C191	C	-0.010461	-0.643761	1.184677
C192	C	0.489539	-0.143761	1.684677
C193	C	0.137610	-0.717561	1.184734
C194	C	0.637610	-0.217561	1.684734
C195	C	0.137280	-0.593452	1.184783
C196	C	0.637280	-0.093452	1.684783
H197	H	0.061737	-0.480889	0.910978
H198	H	0.561737	0.019111	1.410978
O199	O	-0.054440	-0.465526	1.184722
O200	O	0.445560	0.034474	1.684722
C201	C	-0.155392	-0.404162	1.184734
C202	C	0.344608	0.095838	1.684734
C203	C	-0.106018	-0.465491	1.184751
C204	C	0.393982	0.034509	1.684751
H205	H	-0.197109	-0.404117	1.184770
H206	H	0.302891	0.095883	1.684770
H207	H	-0.138961	-0.367584	1.143058
H208	H	0.361039	0.132416	1.643058
H209	H	-0.166670	-0.395395	1.226410
H210	H	0.333330	0.104605	1.726410
H211	H	-0.094718	-0.474315	1.143103
H212	H	0.405282	0.025685	1.643103
H213	H	-0.122475	-0.502035	1.226455
H214	H	0.377525	-0.002035	1.726455
H215	H	0.692134	-0.508185	0.589902
H216	H	1.192134	-0.008185	1.089902
O217	O	-0.090011	-0.582864	0.673449
O218	O	0.409989	-0.082864	1.173449
C219	C	-0.188623	-0.511919	0.701110
C220	C	0.311377	-0.011919	1.201110
C221	C	-0.127275	-0.524049	0.651829
C222	C	0.372725	-0.024049	1.151829
H223	H	-0.218772	-0.464373	0.683644
H224	H	0.281228	0.035627	1.183644
H225	H	-0.182389	-0.517278	0.741947
H226	H	0.317611	-0.017278	1.241947
H227	H	-0.210138	-0.545151	0.714211
H228	H	0.289862	-0.045151	1.214211
H229	H	-0.105726	-0.490828	0.638677
H230	H	0.394274	0.009172	1.138677
H231	H	-0.133548	-0.518711	0.611024
H232	H	0.366452	-0.018711	1.111024
H233	H	0.028825	0.010378	0.445599
H234	H	0.528825	0.510378	0.945599
H235	H	0.174144	-0.762957	1.184724
H236	H	0.674144	-0.262957	1.684724
O237	O	0.692362	-0.736238	0.708708
O238	O	1.192362	-0.236238	1.208708
C239	C	0.692396	-0.764063	0.807352
C240	C	1.192396	-0.264063	1.307352
C241	C	0.692317	-0.714710	0.746035
C242	C	1.192317	-0.214710	1.246035
H243	H	0.692346	-0.746671	0.837552
H244	H	1.192346	-0.246671	1.337552
H245	H	0.734100	-0.804891	0.801075
H246	H	1.234100	-0.304891	1.301075
H247	H	0.650751	-0.777156	0.828838
H248	H	1.150751	-0.277156	1.328838
H249	H	0.733933	-0.701567	0.724516
H250	H	1.233933	-0.201567	1.224516
H251	H	0.650584	-0.673915	0.752352
H252	H	1.150584	-0.173915	1.252352
H253	H	0.097420	0.010424	0.666105
H254	H	0.597420	0.510424	1.166105
O255	O	-0.089891	0.010298	0.673705
O256	O	0.410109	0.510298	1.173705
C257	C	-0.143339	-0.041262	0.773583
C258	C	0.356661	0.458738	1.273583
C259	C	-0.082037	-0.041231	0.724211
C260	C	0.417963	0.458769	1.224211
H261	H	-0.137008	-0.082913	0.814434
H262	H	0.362992	0.417087	1.314434
H263	H	-0.173553	-0.041307	0.756278
H264	H	0.326447	0.458693	1.256278
H265	H	-0.164837	0.000441	0.786601
H266	H	0.335163	0.500441	1.286601
H267	H	-0.060487	-0.082927	0.711171
H268	H	0.439513	0.417073	1.211171
H269	H	-0.051865	-0.041155	0.741543
H270	H	0.448135	0.458845	1.241543
H271	H	-0.046832	-0.652809	1.184615
H272	H	0.453168	-0.152809	1.684615
H273	H	0.173667	-0.584388	1.184797
H274	H	0.673667	-0.084388	1.684797
H275	H	0.692221	-0.728771	0.521355
H276	H	1.192221	-0.228771	1.021355
H277	H	0.023897	-0.518815	1.024687
H278	H	0.523897	-0.018815	1.524687
O279	O	0.413409	-0.425679	0.610465
O280	O	0.913409	0.074321	1.110465
C281	C	0.342583	-0.336628	0.566620
C282	C	0.842583	0.163372	1.066620
C283	C	0.377072	-0.403913	0.576426
C284	C	0.877072	0.096087	1.076426
H285	H	0.313187	-0.319013	0.539109
H286	H	0.813187	0.180987	1.039109
H287	H	0.375718	-0.311409	0.541705
H288	H	0.875718	0.188591	1.041705
H289	H	0.313280	-0.329662	0.611828
H290	H	0.813280	0.170338	1.111828
H291	H	0.406376	-0.410935	0.531244
H292	H	0.906376	0.089065	1.031244
H293	H	0.343905	-0.429098	0.601368
H294	H	0.843905	0.070902	1.101368
O295	O	0.691972	-0.500579	0.402623
O296	O	1.191972	-0.000579	0.902623
C297	C	0.691904	-0.399620	0.341287
C298	C	1.191904	0.100380	0.841287
C299	C	0.691993	-0.449020	0.402578
C300	C	1.191993	0.050980	0.902578
H301	H	0.691933	-0.357927	0.341226
H302	H	1.191933	0.142073	0.841226
H303	H	0.650206	-0.388286	0.332528
H304	H	1.150206	0.111714	0.832528
H305	H	0.733555	-0.416095	0.304712
H306	H	1.233555	0.083905	0.804712
H307	H	0.650370	-0.432585	0.439192
H308	H	1.150370	0.067415	0.939192
H309	H	0.733718	-0.460346	0.411285
H310	H	1.233718	0.039654	0.911285
O311	O	0.216052	0.010880	0.437957
O312	O	0.716052	0.510880	0.937957
C313	C	0.314538	0.011343	0.409962
C314	C	0.814538	0.511343	0.909962
C315	C	0.253348	0.010951	0.459435
C316	C	0.753348	0.510951	0.959435
H317	H	0.344714	0.011388	0.427312
H318	H	0.844714	0.511388	0.927312
H319	H	0.308033	0.053120	0.369253
H320	H	0.808033	0.553120	0.869253
H321	H	0.336182	-0.030235	0.396705
H322	H	0.836182	0.469765	0.896705
H323	H	0.231672	0.052500	0.472742
H324	H	0.731672	0.552500	0.972742
H325	H	0.259893	-0.030854	0.500111
H326	H	0.759893	0.469146	1.000111
H327	H	0.247489	-0.573760	0.910909
H328	H	0.747489	-0.073760	1.410909
O329	O	0.216130	-0.617363	1.029460
O330	O	0.716130	-0.117363	1.529460
C331	C	0.319879	-0.665901	1.022809
C332	C	0.819879	-0.165901	1.522809
C333	C	0.275012	-0.626230	0.988381
C334	C	0.775012	-0.126230	1.488381
H335	H	0.367495	-0.673072	0.989612
H336	H	0.867495	-0.173072	1.489612
H337	H	0.312717	-0.711017	1.052130
H338	H	0.812717	-0.211017	1.552130
H339	H	0.312636	-0.642944	1.052181
H340	H	0.812636	-0.142944	1.552181
H341	H	0.282228	-0.649134	0.958977
H342	H	0.782228	-0.149134	1.458977
H343	H	0.282185	-0.581116	0.959099
H344	H	0.782185	-0.081116	1.459099
O345	O	0.099038	-0.771830	0.673302
O346	O	0.599038	-0.271830	1.173302
C347	C	0.170092	-0.870399	0.700868
C348	C	0.670092	-0.370399	1.200868
C349	C	0.157893	-0.809002	0.651652
C350	C	0.657893	-0.309002	1.151652
H351	H	0.217679	-0.900465	0.683387
H352	H	0.717679	-0.400465	1.183387
H353	H	0.136949	-0.892015	0.713958
H354	H	0.636949	-0.392015	1.213958
H355	H	0.164686	-0.864153	0.741718
H356	H	0.664686	-0.364153	1.241718
H357	H	0.163307	-0.815195	0.610770
H358	H	0.663307	-0.315195	1.110770
H359	H	0.191033	-0.787407	0.638613
H360	H	0.691033	-0.287407	1.138613
O361	O	0.055204	-0.475111	0.699101
O362	O	0.555204	0.024889	1.199101
C363	C	-0.025927	-0.382863	0.707145
C364	C	0.474073	0.117137	1.207145
C365	C	0.018881	-0.422537	0.667523
C366	C	0.518881	0.077463	1.167523
H367	H	-0.055315	-0.340354	0.681635
H368	H	0.444685	0.159646	1.181635
H369	H	-0.000436	-0.370481	0.719466
H370	H	0.499564	0.129519	1.219466
H371	H	-0.055232	-0.408408	0.749690
H372	H	0.444768	0.091592	1.249690
H373	H	0.048197	-0.397029	0.624953
H374	H	0.548197	0.102971	1.124953
H375	H	-0.006648	-0.434922	0.655250
H376	H	0.493352	0.065078	1.155250
O377	O	0.014017	-0.516461	0.658106
O378	O	0.514017	-0.016461	1.158106
C379	C	-0.079835	-0.521238	0.737601
C380	C	0.420165	-0.021238	1.237601
C381	C	-0.012039	-0.537853	0.720891
C382	C	0.487961	-0.037853	1.220891
H383	H	-0.100923	-0.538515	0.788363
H384	H	0.399077	-0.038515	1.288363
H385	H	-0.087809	-0.542375	0.716515
H386	H	0.412191	-0.042375	1.216515
H387	H	-0.100969	-0.470479	0.720290
H388	H	0.399031	0.029521	1.220290
H389	H	0.009140	-0.588604	0.738198
H390	H	0.509140	-0.088604	1.238198
H391	H	-0.004108	-0.516674	0.741968
H392	H	0.495892	-0.016674	1.241968
H393	H	0.247325	-0.573698	0.600612
H394	H	0.747325	-0.073698	1.100612
O395	O	0.215884	-0.617241	0.557038
O396	O	0.715884	-0.117241	1.057038
C397	C	0.319611	-0.665827	0.508486
C398	C	0.819611	-0.165827	1.008486
C399	C	0.274783	-0.626202	0.548154
C400	C	0.774783	-0.126202	1.048154
H401	H	0.367240	-0.673095	0.501302
H402	H	0.867240	-0.173095	1.001302
H403	H	0.312410	-0.642860	0.463378
H404	H	0.812410	-0.142860	0.963378
H405	H	0.312365	-0.710902	0.531449
H406	H	0.812365	-0.210902	1.031449
H407	H	0.282002	-0.581121	0.525244
H408	H	0.782002	-0.081121	1.025244
H409	H	0.281995	-0.649216	0.593260
H410	H	0.781995	-0.149216	1.093260
H411	H	0.029071	-0.474132	0.445424
H412	H	0.529071	0.025868	0.945424
H413	H	0.418403	-0.619300	0.682106
H414	H	0.918403	-0.119300	1.182106
O415	O	0.216267	-0.654279	0.438277
O416	O	0.716267	-0.154279	0.938277
C417	C	0.288346	-0.714829	0.375089
C418	C	0.788346	-0.214829	0.875089
C419	C	0.227002	-0.702701	0.424374
C420	C	0.727002	-0.202701	0.924374
H421	H	0.297039	-0.753970	0.363824
H422	H	0.797039	-0.253970	0.863824
H423	H	0.324924	-0.726243	0.391575
H424	H	0.824924	-0.226243	0.891575
H425	H	0.288471	-0.673217	0.333347
H426	H	0.788471	-0.173217	0.833347
H427	H	0.226818	-0.744292	0.466133
H428	H	0.726818	-0.244292	0.966133
H429	H	0.190451	-0.691262	0.407838
H430	H	0.690451	-0.191262	0.907838
O431	O	0.536949	-0.666842	0.645641
O432	O	1.036949	-0.166842	1.145641
C433	C	0.530357	-0.765227	0.686170
C434	C	1.030357	-0.265227	1.186170
C435	C	0.495897	-0.697940	0.676371
C436	C	0.995897	-0.197940	1.176371
H437	H	0.497182	-0.790388	0.711004
H438	H	0.997182	-0.290388	1.211004
H439	H	0.559705	-0.782915	0.713754
H440	H	1.059705	-0.282915	1.213754
H441	H	0.559701	-0.772184	0.640961
H442	H	1.059701	-0.272184	1.140961
H443	H	0.466520	-0.690931	0.721551
H444	H	0.966520	-0.190931	1.221551
H445	H	0.466586	-0.680284	0.648759
H446	H	0.966586	-0.180284	1.148759
H447	H	0.532080	-0.473208	0.574011
H448	H	1.032080	0.026792	1.074011
H449	H	0.200842	-0.263395	0.554238
H450	H	0.700842	0.236605	1.054238
H451	H	0.162897	-0.149674	0.516363
H452	H	0.662897	0.350326	1.016363
H453	H	0.108067	-0.263426	0.739970
H454	H	0.608067	0.236574	1.239970
O455	O	0.064454	-0.144871	0.708574
O456	O	0.564454	0.355129	1.208574
C457	C	0.015986	-0.151505	0.812317
C458	C	0.515986	0.348495	1.312317
C459	C	0.055621	-0.185944	0.767466
C460	C	0.555621	0.314056	1.267466
H461	H	0.008843	-0.184697	0.859941
H462	H	0.508843	0.315303	1.359941
H463	H	-0.029140	-0.122175	0.805159
H464	H	0.470860	0.377825	1.305159
H465	H	0.038951	-0.122138	0.805050
H466	H	0.538951	0.377862	1.305050
H467	H	0.032709	-0.215343	0.774706
H468	H	0.532709	0.284657	1.274706
H469	H	0.100746	-0.215235	0.774635
H470	H	0.600746	0.284765	1.274635
