data_functionalizedCrystal
_audit_creation_method	'MofGen! by Chris Wilmer'
_symmetry_space_group_name_H-M	'P1'
_symmetry_Int_Tables_number	1
_symmetry_cell_setting	triclinic
loop_
_symmetry_equiv_pos_as_xyz
  x,y,z
_cell_length_a	16.959455
_cell_length_b	19.121063
_cell_length_c	16.959447
_cell_angle_alpha	87.593376
_cell_angle_beta	90.014322
_cell_angle_gamma	92.465894
loop_
_atom_site_label
_atom_site_type_symbol
_atom_site_fract_x
_atom_site_fract_y
_atom_site_fract_z
Zn1	Zn	1.194915	-0.279656	0.460312
Zn2	Zn	1.189180	-0.397117	0.333763
Zn3	Zn	1.062742	-0.279678	0.328150
Zn4	Zn	1.057053	-0.397064	0.465899
O5	O	1.125973	-0.338379	0.397031
O6	O	1.304764	-0.295250	0.443535
O7	O	1.172389	-0.381570	0.222409
O8	O	1.085056	-0.181391	0.340995
O9	O	1.300551	-0.381548	0.350560
O10	O	1.182163	-0.181375	0.438093
O11	O	1.079495	-0.295288	0.218285
O12	O	0.951377	-0.295237	0.346412
O13	O	1.075360	-0.381459	0.575767
O14	O	0.947198	-0.381480	0.447615
O15	O	1.176646	-0.295199	0.571662
O16	O	1.166873	-0.495394	0.355978
O17	O	1.069800	-0.495356	0.453058
C18	C	0.920608	-0.338356	0.397012
C19	C	0.832751	-0.338363	0.397023
C20	C	1.117118	-0.520859	0.405750
C21	C	1.113402	-0.598924	0.409507
C22	C	0.463428	-0.293435	0.344438
C23	C	0.459118	-0.383380	0.449672
C24	C	0.541664	-0.383370	0.449666
C25	C	0.585096	-0.338393	0.397045
C26	C	0.545982	-0.293425	0.344430
C27	C	0.580784	-0.428342	0.502276
C28	C	0.663336	-0.428334	0.502272
C29	C	0.706770	-0.383353	0.449654
C30	C	0.667650	-0.338383	0.397037
C31	C	0.711082	-0.293405	0.344416
C32	C	0.671965	-0.248431	0.291802
C33	C	0.589416	-0.248444	0.291812
C34	C	0.789319	-0.383340	0.449644
C35	C	0.793636	-0.293395	0.344407
C36	C	1.162236	-0.635597	0.360769
C37	C	1.158746	-0.708948	0.364307
C38	C	1.106417	-0.745625	0.416579
C39	C	1.057581	-0.708948	0.465322
C40	C	1.061076	-0.635598	0.461787
C41	C	1.093339	-0.967094	0.429780
C42	C	1.089847	-1.040449	0.433309
C43	C	1.191013	-1.040443	0.332295
C44	C	1.194500	-0.967092	0.328762
C45	C	1.145667	-0.930421	0.377508
C46	C	1.102847	-0.820602	0.420195
C47	C	1.149242	-0.855446	0.373896
C48	C	1.332140	-0.338403	0.397051
C49	C	1.419996	-0.338413	0.397059
C50	C	1.126008	-0.338321	0.603196
C51	C	1.126024	-0.338296	0.691052
C52	C	1.134884	-0.155186	0.388295
C53	C	1.138681	-0.077121	0.384572
C54	C	1.125985	-0.338386	0.191665
C55	C	1.126133	-0.338213	0.103800
C56	C	1.073386	-0.383133	1.064664
C57	C	1.178857	-0.293311	1.060384
C58	C	1.178835	-0.293326	0.977839
C59	C	1.126089	-0.338246	0.938703
C60	C	1.073365	-0.383151	0.982111
C61	C	1.231564	-0.248426	0.934425
C62	C	1.231545	-0.248440	0.851875
C63	C	1.178794	-0.293357	0.812736
C64	C	1.126067	-0.338263	0.856150
C65	C	1.073321	-0.383183	0.817013
C66	C	1.020590	-0.428087	0.860425
C67	C	1.020614	-0.428068	0.942973
C68	C	1.178770	-0.293376	0.730189
C69	C	1.073299	-0.383201	0.734460
H70	H	0.828993	-0.256764	0.301561
Br71	Br	1.250445	-0.232358	1.113499
Br72	Br	1.031832	-0.870384	0.491134
Br73	Br	1.303151	-0.187474	0.987542
H74	H	0.707338	-0.211814	0.248954
Br75	Br	1.303105	-0.187500	0.792965
Br76	Br	0.949060	-0.489005	1.001893
Br77	Br	1.018811	-1.090225	0.504241
H78	H	0.557559	-0.211829	0.248975
Br79	Br	0.410344	-0.232397	0.273043
Br80	Br	0.400174	-0.444436	0.521063
H81	H	0.821164	-0.419959	0.492479
H82	H	1.030340	-0.419775	0.702601
Br83	Br	0.716417	-0.489368	0.573675
Br84	Br	0.521837	-0.489405	0.573657
H85	H	1.237110	-0.937231	0.286199
H86	H	1.204845	-0.605739	0.318201
H87	H	1.221705	-0.256818	0.694846
H88	H	1.198512	-0.738803	0.324619
H89	H	1.014977	-0.738816	0.507886
H90	H	1.230772	-1.070309	0.292611
H91	H	1.053576	-0.937242	0.469470
Br92	Br	1.220262	-0.805669	0.302963
Br93	Br	0.949015	-0.489053	0.807301
Br94	Br	0.994803	-0.585828	0.527939
Br95	Br	1.001822	-0.444067	1.123576
