data_functionalizedCrystal
_audit_creation_method	'MofGen! by Chris Wilmer'
_symmetry_space_group_name_H-M	'P1'
_symmetry_Int_Tables_number	1
_symmetry_cell_setting	triclinic
loop_
_symmetry_equiv_pos_as_xyz
  x,y,z
_cell_length_a	16.120297
_cell_length_b	15.297475
_cell_length_c	15.297327
_cell_angle_alpha	88.374454
_cell_angle_beta	101.993655
_cell_angle_gamma	96.324991
loop_
_atom_site_label
_atom_site_type_symbol
_atom_site_fract_x
_atom_site_fract_y
_atom_site_fract_z
Zn1	Zn	-0.766103	-1.230793	-0.614568
Zn2	Zn	-0.646387	-1.212813	-0.755751
Zn3	Zn	-0.599757	-1.094713	-0.581877
Zn4	Zn	-0.757990	-1.059443	-0.735243
O5	O	-0.692560	-1.149440	-0.671860
O6	O	-0.773133	-1.349544	-0.655560
O7	O	-0.523879	-1.204382	-0.727587
O8	O	-0.605704	-1.135050	-0.462944
O9	O	-0.685178	-1.336333	-0.759286
O10	O	-0.727917	-1.235027	-0.486961
O11	O	-0.489620	-1.117615	-0.599843
O12	O	-0.597837	-0.968898	-0.579958
O13	O	-0.875389	-1.074937	-0.724334
O14	O	-0.714090	-0.942986	-0.692635
O15	O	-0.881349	-1.200827	-0.635674
O16	O	-0.677312	-1.170182	-0.876300
O17	O	-0.759306	-1.057502	-0.861233
C18	C	-0.650024	-0.924533	-0.630524
C19	C	-0.631850	-0.828311	-0.612863
C20	C	-0.909374	-1.135953	-0.681363
C21	C	-1.001767	-1.130206	-0.685413
C22	C	-0.722511	-1.108086	-0.900734
C23	C	-0.735367	-1.090472	-0.998664
C24	C	-1.170923	-1.119685	-0.692781
C25	C	-1.215046	-1.179414	-0.650706
C26	C	-1.309170	-1.173560	-0.654805
C27	C	-1.076790	-1.125537	-0.688682
C28	C	-0.476590	-1.162936	-0.662339
C29	C	-0.384196	-1.168896	-0.658072
C30	C	-0.735262	-1.375226	-0.713357
C31	C	-0.753459	-1.471442	-0.731041
C32	C	-0.822458	-0.503166	-0.798095
C33	C	-0.839532	-0.593570	-0.814695
C34	C	-0.787613	-0.652259	-0.764238
C35	C	-0.718616	-0.620537	-0.697179
C36	C	-0.701537	-0.530123	-0.680582
C37	C	-0.666692	-0.679217	-0.646725
C38	C	-0.597695	-0.647494	-0.579665
C39	C	-0.580619	-0.557089	-0.563071
C40	C	-0.632538	-0.498400	-0.613528
C41	C	-0.683772	-0.769630	-0.663322
C42	C	-0.562851	-0.796588	-0.545809
C43	C	-0.545777	-0.706184	-0.529209
C44	C	-0.601026	-1.275670	-1.306005
C45	C	-0.588943	-1.292219	-1.213995
C46	C	-0.625548	-1.241784	-1.160158
C47	C	-0.674238	-1.174796	-1.198339
C48	C	-0.686317	-1.158241	-1.290357
C49	C	-0.710839	-1.124355	-1.144510
C50	C	-0.759529	-1.057368	-1.182691
C51	C	-0.771606	-1.040816	-1.274700
C52	C	-0.735001	-1.091251	-1.328537
C53	C	-0.698760	-1.140910	-1.052492
C54	C	-0.784051	-1.023482	-1.036844
C55	C	-0.796134	-1.006932	-1.128854
C56	C	-0.662514	-1.190979	-0.442096
C57	C	-0.649710	-1.208680	-0.344185
H58	H	-1.203835	-1.064157	-0.731880
C59	C	-0.825159	-0.967124	-1.316696
C60	C	-0.798043	-0.871410	-1.285746
C61	C	-0.851596	-0.797717	-1.327739
C62	C	-0.932265	-0.819739	-1.400682
C63	C	-0.959385	-0.915458	-1.431637
C64	C	-0.905832	-0.989151	-1.389644
H65	H	-0.738324	-0.855103	-1.231745
H66	H	-0.831519	-0.726860	-1.304824
H67	H	-0.971908	-0.765188	-1.431768
H68	H	-1.019105	-0.931765	-1.485637
H69	H	-0.925909	-1.060008	-1.412559
H70	H	-0.524430	-0.531263	-0.508475
C71	C	-0.824324	-0.968000	-0.977632
C72	C	-0.921803	-0.966838	-0.995665
C73	C	-0.962069	-0.911361	-0.936447
C74	C	-0.904858	-0.857044	-0.859195
C75	C	-0.807373	-0.858204	-0.841159
C76	C	-0.767106	-0.913682	-0.900377
H77	H	-0.964159	-1.007048	-1.052855
H78	H	-1.034234	-0.910502	-0.949799
H79	H	-0.934666	-0.815976	-0.815359
H80	H	-0.765016	-0.817994	-0.783969
H81	H	-0.694941	-0.914540	-0.887025
H82	H	-0.571221	-1.316722	-1.349845
C83	C	-1.170589	-1.254441	-0.597886
C84	C	-1.075100	-1.260269	-0.593810
C85	C	-1.030640	-1.335294	-0.540995
C86	C	-1.081670	-1.404492	-0.492256
C87	C	-1.177165	-1.398666	-0.496329
C88	C	-1.221625	-1.323641	-0.549144
H89	H	-1.037319	-1.209042	-0.629892
H90	H	-0.959948	-1.339606	-0.537980
H91	H	-1.048758	-1.460030	-0.453159
H92	H	-1.214945	-1.449893	-0.460248
H93	H	-1.292317	-1.319330	-0.552160
H94	H	-0.739950	-0.795450	-0.717922
C95	C	-0.645209	-1.214597	-1.010500
C96	C	-0.685813	-1.291682	-0.961236
C97	C	-0.632261	-1.365375	-0.919246
C98	C	-0.538105	-1.361985	-0.926520
C99	C	-0.497496	-1.284897	-0.975786
C100	C	-0.551048	-1.211204	-1.017776
H101	H	-0.755518	-1.294194	-0.955849
H102	H	-0.662323	-1.422440	-0.882776
H103	H	-0.498462	-1.416537	-0.895436
H104	H	-0.427791	-1.282385	-0.981172
H105	H	-0.520986	-1.154139	-1.054246
C106	C	-0.469879	-0.671280	-0.455449
C107	C	-0.485231	-0.619361	-0.376529
C108	C	-0.409335	-0.584455	-0.302770
C109	C	-0.318087	-0.601468	-0.307931
C110	C	-0.302732	-0.653389	-0.386854
C111	C	-0.378628	-0.688295	-0.460613
H112	H	-0.552781	-0.606765	-0.372706
H113	H	-0.420702	-0.546020	-0.244346
H114	H	-0.261905	-0.575629	-0.253330
H115	H	-0.235182	-0.665986	-0.390677
H116	H	-0.367261	-0.726731	-0.519037
C117	C	-0.915428	-0.628464	-0.888450
C118	C	-0.972542	-0.563914	-0.943947
C119	C	-1.048445	-0.598809	-1.017704
C120	C	-1.067233	-0.698254	-1.035963
C121	C	-1.010117	-0.762810	-0.980464
C122	C	-0.934215	-0.727915	-0.906707
H123	H	-0.958635	-0.490294	-0.930432
H124	H	-1.090726	-0.551020	-1.058788
H125	H	-1.123421	-0.724085	-1.090563
H126	H	-1.024024	-0.836430	-0.993980
H127	H	-0.891934	-0.775704	-0.865623
C128	C	-0.535390	-1.365904	-1.172003
C129	C	-0.441234	-1.362511	-1.179280
C130	C	-0.387678	-1.436202	-1.137290
C131	C	-0.428278	-1.513286	-1.088023
C132	C	-0.522438	-1.516683	-1.080743
C133	C	-0.575994	-1.442992	-1.122733
H134	H	-0.411175	-1.305445	-1.215753
H135	H	-0.317974	-1.433687	-1.142680
H136	H	-0.388632	-1.567836	-1.056939
H137	H	-0.552497	-1.573748	-1.044270
H138	H	-0.645698	-1.445506	-1.117344
C139	C	-0.879560	-0.438607	-0.853591
C140	C	-0.840725	-0.366215	-0.909692
C141	C	-0.897832	-0.301653	-0.965192
C142	C	-0.993772	-0.309484	-0.964592
C143	C	-1.032611	-0.381880	-0.908489
C144	C	-0.975505	-0.446441	-0.852988
H145	H	-0.769700	-0.360415	-0.910138
H146	H	-0.869080	-0.248062	-1.006723
H147	H	-1.036045	-0.261692	-1.005677
H148	H	-1.103637	-0.387679	-0.908043
H149	H	-1.004257	-0.500033	-0.811457
C150	C	-0.849687	-0.933244	-1.170859
C151	C	-0.822573	-0.837525	-1.139921
C152	C	-0.876125	-0.763838	-1.181927
C153	C	-0.956791	-0.785868	-1.254873
C154	C	-0.983909	-0.881591	-1.285816
C155	C	-0.930357	-0.955279	-1.243809
H156	H	-0.762856	-0.821213	-1.085918
H157	H	-0.856051	-0.692977	-1.159021
H158	H	-0.996433	-0.731320	-1.285969
H159	H	-1.043626	-0.897903	-1.339818
H160	H	-0.950431	-1.026139	-1.266715
H161	H	-0.801519	-0.725870	-0.777758
H162	H	-0.618641	-0.424784	-0.600014
H163	H	-0.520573	-0.844373	-0.504724
H164	H	-0.615706	-1.255262	-1.085239
H165	H	-0.744839	-1.077782	-1.403460
