data_functionalizedCrystal
_audit_creation_method	'MofGen! by Chris Wilmer'
_symmetry_space_group_name_H-M	'P1'
_symmetry_Int_Tables_number	1
_symmetry_cell_setting	triclinic
loop_
_symmetry_equiv_pos_as_xyz
  x,y,z
_cell_length_a	15.625204
_cell_length_b	15.625711
_cell_length_c	14.749926
_cell_angle_alpha	86.562238
_cell_angle_beta	86.556993
_cell_angle_gamma	78.673031
loop_
_atom_site_label
_atom_site_type_symbol
_atom_site_fract_x
_atom_site_fract_y
_atom_site_fract_z
O1	O	-0.046042	-1.124497	0.327486
O2	O	-0.076478	-0.878493	0.252480
O3	O	0.061745	-1.016729	0.252458
O4	O	-0.184265	-0.986261	0.327508
O5	O	0.092110	-0.986382	0.390999
O6	O	-0.046112	-0.848147	0.391021
O7	O	-0.015677	-1.094150	0.466026
Zn8	Zn	-0.026074	-0.966330	0.450520
Zn9	Zn	-0.066081	-1.006313	0.267987
O10	O	-0.153900	-0.955914	0.466049
C11	C	-0.062921	-0.831998	0.311418
C12	C	-0.067756	-0.738670	0.280625
C13	C	-0.000967	-0.348941	0.556860
C14	C	-0.005536	-0.261249	0.527892
C15	C	-0.038637	-0.294376	0.376874
C16	C	-0.034075	-0.382071	0.405831
C17	C	-0.015239	-0.409346	0.495824
C18	C	-0.048347	-0.442476	0.344795
C19	C	-0.043781	-0.530164	0.373748
C20	C	-0.024943	-0.557447	0.463737
C21	C	-0.010673	-0.497034	0.524777
C22	C	-0.067176	-0.415200	0.254801
C23	C	-0.081448	-0.475605	0.193765
C24	C	-0.076888	-0.563294	0.222719
C25	C	-0.058051	-0.590577	0.312708
C26	C	-0.091158	-0.623707	0.161679
C27	C	-0.086593	-0.711395	0.190632
C28	C	-0.053485	-0.678265	0.341661
C29	C	0.108250	-1.003186	0.311388
C30	C	0.201581	-1.008035	0.280575
C31	C	0.316573	-1.031410	0.161633
C32	C	0.228876	-1.026852	0.190596
C33	C	0.261979	-0.993765	0.341626
C34	C	0.349679	-0.998316	0.312675
C35	C	0.376969	-1.017140	0.222678
C36	C	0.410075	-0.984046	0.373720
C37	C	0.497769	-0.988602	0.344772
C38	C	0.525066	-1.007427	0.254779
C39	C	0.464662	-1.021695	0.193730
C40	C	0.382785	-0.965229	0.463718
C41	C	0.443181	-0.950959	0.524763
C42	C	0.530875	-0.955508	0.495814
C43	C	0.558173	-0.974333	0.405821
C44	C	0.591279	-0.941240	0.556863
C45	C	0.678972	-0.945795	0.527915
C46	C	0.645866	-0.978889	0.376873
C47	C	0.799594	-0.969460	0.407115
C48	C	0.706262	-0.964619	0.437918
N49	N	0.001231	-0.939049	0.575096
C50	C	-0.029225	-0.140644	0.407098
C51	C	-0.024365	-0.233969	0.437916
C52	C	0.077441	-0.862933	0.672857
C53	C	0.058318	-0.882025	0.585645
C54	C	-0.036759	-0.977000	0.651764
C55	C	-0.017648	-0.957913	0.738983
C56	C	0.039454	-0.900880	0.749522
C57	C	-0.055635	-0.995860	0.815648
C58	C	-0.036521	-0.976778	0.902859
C59	C	0.020580	-0.919749	0.913407
C60	C	0.058567	-0.881798	0.836734
C61	C	-0.112731	-1.052898	0.805107
C62	C	-0.150718	-1.090844	0.881771
C63	C	-0.131610	-1.071758	0.968985
C64	C	-0.074509	-1.014729	0.979532
C65	C	-0.169597	-1.109709	1.045658
C66	C	-0.150484	-1.090626	1.132870
C67	C	-0.055395	-0.995647	1.066744
N68	N	-0.093382	-1.033593	1.143409
H69	H	0.006067	-0.212064	0.577607
O70	O	-0.098354	-1.038503	0.640389
H71	H	-0.063599	-1.095248	0.602226
O72	O	-0.020028	-0.652023	0.494971
H73	H	0.031882	-0.693786	0.453857
H74	H	-0.098218	-0.760578	0.140932
O75	O	-0.033180	-0.707686	0.438731
H76	H	-0.032410	-0.778808	0.448607
O77	O	0.019339	-0.378371	0.653927
H78	H	0.084261	-0.365092	0.668438
O79	O	0.561844	-0.920950	0.653932
H80	H	0.511195	-0.860225	0.654607
H81	H	-0.053969	-0.272156	0.303600
H82	H	0.420950	-0.935637	0.598040
O83	O	-0.133443	-1.073488	0.711079
H84	H	-0.072265	-1.103810	0.673725
O85	O	0.494099	-1.041987	0.096656
H86	H	0.565223	-1.042749	0.086785
O87	O	0.139022	-0.801410	0.684236
H88	H	0.195747	-0.836222	0.722388
H89	H	-0.197208	-1.137284	0.873177
O90	O	0.346019	-1.051708	0.064563
H91	H	0.289290	-1.060868	0.026973
H92	H	-0.008906	-0.949196	1.075324
O93	O	0.744128	-0.930418	0.593751
H94	H	0.773397	-0.873854	0.568037
H95	H	0.004652	-0.519239	0.598062
O96	O	-0.072092	-0.320633	0.223530
H97	H	-0.124016	-0.278850	0.264610
H98	H	0.311379	-0.961524	0.487286
O99	O	0.163728	-1.042236	0.124749
H100	H	0.197440	-1.056082	0.057306
H101	H	0.596473	-1.011138	0.231212
H102	H	-0.096780	-0.453386	0.120491
O103	O	-0.111472	-0.594286	0.064617
H104	H	-0.112251	-0.523162	0.054740
O105	O	0.232541	-0.973469	0.438693
H106	H	0.245825	-0.908554	0.453216
O107	O	0.099360	-0.841117	0.502980
H108	H	0.138688	-0.893345	0.461702
H109	H	0.036146	-0.904218	0.984422
H110	H	0.105056	-0.835347	0.845313
H111	H	0.668083	-0.994201	0.303584
H112	H	-0.216083	-1.156152	1.037063
O113	O	-0.191457	-1.131545	1.215567
H114	H	-0.234382	-1.174401	1.193587
