data_functionalizedCrystal
_audit_creation_method	'MofGen! by Chris Wilmer'
_symmetry_space_group_name_H-M	'P1'
_symmetry_Int_Tables_number	1
_symmetry_cell_setting	triclinic
loop_
_symmetry_equiv_pos_as_xyz
  x,y,z
_cell_length_a	19.121063
_cell_length_b	19.121102
_cell_length_c	16.959447
_cell_angle_alpha	87.545711
_cell_angle_beta	92.406624
_cell_angle_gamma	90.126902
loop_
_atom_site_label
_atom_site_type_symbol
_atom_site_fract_x
_atom_site_fract_y
_atom_site_fract_z
Zn1	Zn	-0.324882	1.059819	-0.513323
Zn2	Zn	0.008451	1.393152	-0.179989
Zn3	Zn	0.341785	1.726486	0.153344
Zn4	Zn	-0.442126	1.054733	-0.386519
Zn5	Zn	-0.108792	1.388066	-0.053186
Zn6	Zn	0.224541	1.721399	0.280147
Zn7	Zn	-0.319902	0.942590	-0.375298
Zn8	Zn	0.013432	1.275923	-0.041964
Zn9	Zn	0.346765	1.609256	0.291369
Zn10	Zn	-0.437072	0.937544	-0.512794
Zn11	Zn	-0.103739	1.270877	-0.179460
Zn12	Zn	0.229594	1.604211	0.153873
O13	O	-0.380995	0.998671	-0.446983
O14	O	-0.047662	1.332005	-0.113650
O15	O	0.285671	1.665338	0.219683
O16	O	-0.344634	1.157249	-0.501420
O17	O	-0.011301	1.490582	-0.168086
O18	O	0.322033	1.823916	0.165247
O19	O	-0.425943	1.039840	-0.274420
O20	O	-0.092610	1.373173	0.058913
O21	O	0.240724	1.706506	0.392246
O22	O	-0.222459	0.962381	-0.389132
O23	O	0.110874	1.295714	-0.055799
O24	O	0.444208	1.629047	0.277535
O25	O	-0.430772	1.153512	-0.408258
O26	O	-0.097439	1.486845	-0.074924
O27	O	0.235894	1.820179	0.258409
O28	O	-0.226118	1.048509	-0.490538
O29	O	0.107215	1.381842	-0.157205
O30	O	0.440548	1.715175	0.176128
O31	O	-0.336145	0.957449	-0.266176
O32	O	-0.002812	1.290782	0.067157
O33	O	0.330521	1.624115	0.400491
O34	O	-0.331245	0.843816	-0.388619
O35	O	0.002088	1.177149	-0.055286
O36	O	0.335421	1.510482	0.278048
O37	O	-0.422160	0.953781	-0.623474
O38	O	-0.088826	1.287114	-0.290141
O39	O	0.244507	1.620448	0.043193
O40	O	-0.417330	0.840109	-0.489637
O41	O	-0.083997	1.173442	-0.156303
O42	O	0.249336	1.506775	0.177030
O43	O	-0.339734	1.043616	-0.623863
O44	O	-0.006401	1.376949	-0.290530
O45	O	0.326933	1.710283	0.042804
O46	O	-0.539559	1.034947	-0.407745
O47	O	-0.206225	1.368280	-0.074411
O48	O	0.127108	1.701614	0.258922
O49	O	-0.535846	0.948849	-0.500518
O50	O	-0.202513	1.282182	-0.167185
O51	O	0.130821	1.615516	0.166149
C52	C	-0.373199	0.816525	-0.437853
C53	C	-0.039866	1.149858	-0.104520
C54	C	0.293467	1.483191	0.228813
C55	C	-0.369881	0.738601	-0.433967
C56	C	-0.036548	1.071934	-0.100634
C57	C	0.296785	1.405267	0.232700
C58	C	-0.563140	0.990818	-0.455310
C59	C	-0.229807	1.324151	-0.121977
C60	C	0.103526	1.657484	0.211357
C61	C	-0.641065	0.987522	-0.458902
C62	C	-0.307732	1.320855	-0.125568
C63	C	0.025601	1.654189	0.207765
C64	C	-0.413210	0.700077	-0.484659
C65	C	-0.079876	1.033411	-0.151326
C66	C	0.253457	1.366744	0.182007
C67	C	-0.410083	0.626860	-0.481011
C68	C	-0.076749	0.960193	-0.147678
C69	C	0.256584	1.293527	0.185656
C70	C	-0.363630	0.592167	-0.426666
C71	C	-0.030297	0.925500	-0.093333
C72	C	0.303037	1.258834	0.240001
C73	C	-0.320297	0.630696	-0.375971
C74	C	0.013036	0.964029	-0.042638
C75	C	0.346370	1.297362	0.290695
C76	C	-0.323421	0.703912	-0.379624
C77	C	0.009912	1.037245	-0.046291
C78	C	0.343246	1.370579	0.287043
C79	C	-0.351949	0.371197	-0.413014
C80	C	-0.018615	0.704531	-0.079680
C81	C	0.314718	1.037864	0.253653
C82	C	-0.348829	0.297976	-0.409363
C83	C	-0.015496	0.631309	-0.076030
C84	C	0.317837	0.964643	0.257304
C85	C	-0.438614	0.294145	-0.514404
C86	C	-0.105281	0.627478	-0.181071
C87	C	0.228052	0.960812	0.152262
C88	C	-0.441737	0.367363	-0.518049
C89	C	-0.108404	0.700696	-0.184716
C90	C	0.224929	1.034029	0.148618
C91	C	-0.398402	0.405885	-0.467357
C92	C	-0.065068	0.739218	-0.134024
C93	C	0.268265	1.072552	0.199310
C94	C	-0.360434	0.517327	-0.422934
C95	C	-0.027101	0.850660	-0.089601
C96	C	0.306233	1.183994	0.243733
C97	C	-0.401594	0.480724	-0.471094
C98	C	-0.068261	0.814057	-0.137760
C99	C	0.265072	1.147391	0.195573
C100	C	-0.679586	1.030835	-0.412331
C101	C	-0.346252	1.364168	-0.078997
C102	C	-0.012919	1.697502	0.254336
C103	C	-0.752805	1.027740	-0.415714
C104	C	-0.419471	1.361073	-0.082380
C105	C	-0.086138	1.694406	0.250953
C106	C	-0.787501	0.981327	-0.465664
C107	C	-0.454168	1.314660	-0.132330
C108	C	-0.120835	1.647994	0.201003
C109	C	-0.748976	0.938012	-0.512240
C110	C	-0.415642	1.271345	-0.178907
C111	C	-0.082309	1.604679	0.154427
C112	C	-0.675758	0.941111	-0.508861
C113	C	-0.342425	1.274445	-0.175527
C114	C	-0.009092	1.607778	0.157806
C115	C	-1.008475	0.969727	-0.478285
C116	C	-0.675142	1.303061	-0.144952
C117	C	-0.341809	1.636394	0.188381
C118	C	-1.081698	0.966630	-0.481659
C119	C	-0.748364	1.299963	-0.148326
C120	C	-0.415031	1.633296	0.185007
C121	C	-1.085522	1.056359	-0.385133
C122	C	-0.752188	1.389692	-0.051800
C123	C	-0.418855	1.723025	0.281533
C124	C	-1.012303	1.059451	-0.381755
C125	C	-0.678969	1.392784	-0.048422
C126	C	-0.345636	1.726118	0.284912
C127	C	-0.973783	1.016139	-0.428334
C128	C	-0.640450	1.349472	-0.095001
C129	C	-0.307117	1.682805	0.238332
C130	C	-0.862343	0.978160	-0.469121
C131	C	-0.529010	1.311494	-0.135788
C132	C	-0.195676	1.644827	0.197546
C133	C	-0.898943	1.019309	-0.424881
C134	C	-0.565610	1.352643	-0.091547
C135	C	-0.232277	1.685976	0.241786
C136	C	-0.198140	1.006575	-0.438643
C137	C	0.135193	1.339908	-0.105309
C138	C	0.468526	1.673241	0.228024
C139	C	-0.120218	1.009943	-0.435088
C140	C	0.213115	1.343276	-0.101755
C141	C	0.546448	1.676609	0.231579
C142	C	-0.380939	0.998703	-0.653150
C143	C	-0.047605	1.332036	-0.319817
C144	C	0.285728	1.665370	0.013516
C145	C	-0.380914	0.998716	-0.741007
C146	C	-0.047581	1.332050	-0.407673
C147	C	0.285752	1.665383	-0.074340
C148	C	-0.388822	1.181529	-0.456149
C149	C	-0.055489	1.514863	-0.122816
C150	C	0.277844	1.848196	0.210517
C151	C	-0.392158	1.259452	-0.460056
C152	C	-0.058824	1.592786	-0.126722
C153	C	0.274509	1.926119	0.206611
C154	C	-0.423759	0.952030	-1.112283
C155	C	-0.090426	1.285364	-0.778950
C156	C	0.242907	1.618697	-0.445617
C157	C	-0.337929	1.045576	-1.112683
C158	C	-0.004596	1.378910	-0.779350
C159	C	0.328738	1.712243	-0.446016
C160	C	-0.337943	1.045557	-1.030137
C161	C	-0.004610	1.378890	-0.696804
C162	C	0.328724	1.712224	-0.363470
C163	C	-0.380867	0.998774	-0.988660
C164	C	-0.047533	1.332108	-0.655327
C165	C	0.285800	1.665441	-0.321993
C166	C	-0.423776	0.952011	-1.029730
C167	C	-0.090443	1.285344	-0.696396
C168	C	0.242890	1.618678	-0.363063
C169	C	-0.295039	1.092324	-0.989062
C170	C	0.038294	1.425658	-0.655728
C171	C	0.371627	1.758991	-0.322395
C172	C	-0.295052	1.092307	-0.906511
C173	C	0.038281	1.425641	-0.573177
C174	C	0.371614	1.758974	-0.239844
C175	C	-0.337973	1.045521	-0.865032
C176	C	-0.004639	1.378854	-0.531699
C177	C	0.328694	1.712188	-0.198365
C178	C	-0.380884	0.998755	-0.906106
C179	C	-0.047550	1.332088	-0.572773
C180	C	0.285783	1.665422	-0.239440
C181	C	-0.423807	0.951972	-0.864630
C182	C	-0.090474	1.285306	-0.531296
C183	C	0.242859	1.618639	-0.197963
C184	C	-0.466715	0.905203	-0.905702
C185	C	-0.133382	1.238536	-0.572369
C186	C	0.199952	1.571869	-0.239036
C187	C	-0.466697	0.905224	-0.988251
C188	C	-0.133363	1.238558	-0.654918
C189	C	0.199970	1.571891	-0.321584
C190	C	-0.337991	1.045499	-0.782483
C191	C	-0.004657	1.378832	-0.449150
C192	C	0.328676	1.712166	-0.115817
C193	C	-0.423824	0.951953	-0.782076
C194	C	-0.090491	1.285286	-0.448743
C195	C	0.242843	1.618620	-0.115409
C196	C	-0.381003	0.998682	-0.241618
C197	C	-0.047670	1.332016	0.091715
C198	C	0.285664	1.665349	0.425049
C199	C	-0.380836	0.998813	-0.153760
C200	C	-0.047502	1.332146	0.179573
C201	C	0.285831	1.665480	0.512907
H202	H	-0.451039	0.728319	-0.528911
H203	H	-0.117705	1.061652	-0.195577
H204	H	0.215628	1.394985	0.137756
H205	H	-0.302986	1.083668	-1.146459
H206	H	0.030347	1.417002	-0.813125
H207	H	0.363680	1.750335	-0.479792
F208	F	-0.512399	0.855418	-0.861551
F209	F	-0.179066	1.188752	-0.528217
F210	F	0.154267	1.522085	-0.194884
F211	F	-0.484733	0.253142	-0.568349
F212	F	-0.151400	0.586475	-0.235016
F213	F	0.181933	0.919808	0.098318
H214	H	-0.310994	0.269732	-0.365113
H215	H	0.022339	0.603065	-0.031780
H216	H	0.355673	0.936398	0.301553
F217	F	-0.292333	1.095275	-0.738775
F218	F	0.041000	1.428608	-0.405442
F219	F	0.374333	1.761942	-0.072108
H220	H	-0.870691	1.057101	-0.384214
H221	H	-0.537358	1.390435	-0.050881
H222	H	-0.204025	1.723768	0.282453
H223	H	-0.501632	0.867149	-1.021700
H224	H	-0.168299	1.200483	-0.688367
H225	H	0.165034	1.533816	-0.355033
F226	F	-0.249365	1.142115	-1.033208
F227	F	0.083968	1.475448	-0.699875
F228	F	0.417301	1.808781	-0.366542
F229	F	-0.456199	0.585863	-0.534966
F230	F	-0.122866	0.919197	-0.201632
F231	F	0.210468	1.252530	0.131701
H232	H	-0.458692	0.913950	-1.145728
H233	H	-0.125358	1.247283	-0.812395
H234	H	0.207975	1.580617	-0.479061
H235	H	-0.316667	0.402553	-0.371731
H236	H	0.016667	0.735887	-0.038398
H237	H	0.350000	1.069220	0.294936
H238	H	-0.260114	1.130390	-0.873076
H239	H	0.073220	1.463723	-0.539743
H240	H	0.406553	1.797056	-0.206410
F241	F	-0.310997	0.480398	-0.365098
F242	F	0.022336	0.813731	-0.031764
F243	F	0.355670	1.147065	0.301569
F244	F	-0.975381	1.108857	-0.328600
F245	F	-0.642048	1.442191	0.004733
F246	F	-0.308715	1.775524	0.338067
H247	H	-0.644396	0.905842	-0.546785
H248	H	-0.311062	1.239176	-0.213452
H249	H	0.022271	1.572509	0.119882
F250	F	-0.491180	0.404280	-0.575889
F251	F	-0.157847	0.737613	-0.242555
F252	F	0.175487	1.070947	0.090778
H253	H	-0.282471	0.602443	-0.331726
H254	H	0.050862	0.935777	0.001608
H255	H	0.384196	1.269110	0.334941
F256	F	-0.277303	0.744911	-0.325672
F257	F	0.056030	1.078245	0.007662
F258	F	0.389363	1.411578	0.340995
H259	H	-0.890601	0.940370	-0.509789
H260	H	-0.557268	1.273703	-0.176456
H261	H	-0.223934	1.607036	0.156878
H262	H	-0.651340	1.068626	-0.371652
H263	H	-0.318007	1.401959	-0.038319
H264	H	0.015326	1.735293	0.295014
F265	F	-0.451030	0.517648	-0.528931
F266	F	-0.117697	0.850981	-0.195597
F267	F	0.215637	1.184315	0.137736
H268	H	-0.784165	1.063009	-0.377790
H269	H	-0.450832	1.396343	-0.044456
H270	H	-0.117498	1.729676	0.288877
H271	H	-1.109946	0.928843	-0.522349
H272	H	-0.776613	1.262177	-0.189016
H273	H	-0.443279	1.595510	0.144318
F274	F	-1.126522	1.102454	-0.335568
F275	F	-0.793188	1.435788	-0.002234
F276	F	-0.459855	1.769121	0.331099
F277	F	-0.967489	0.923629	-0.527859
F278	F	-0.634156	1.256963	-0.194525
F279	F	-0.300823	1.590296	0.138808
H280	H	-0.777232	0.900225	-0.552914
H281	H	-0.443899	1.233558	-0.219581
H282	H	-0.110565	1.566892	0.113752
H283	H	-0.458772	0.913850	-0.748311
H284	H	-0.125438	1.247184	-0.414977
H285	H	0.207895	1.580517	-0.081644
