data_functionalizedCrystal
_audit_creation_method	'MofGen! by Chris Wilmer'
_symmetry_space_group_name_H-M	'P1'
_symmetry_Int_Tables_number	1
_symmetry_cell_setting	triclinic
loop_
_symmetry_equiv_pos_as_xyz
  x,y,z
_cell_length_a	19.288864
_cell_length_b	19.288857
_cell_length_c	17.766277
_cell_angle_alpha	89.991474
_cell_angle_beta	89.976791
_cell_angle_gamma	83.134677
loop_
_atom_site_label
_atom_site_type_symbol
_atom_site_fract_x
_atom_site_fract_y
_atom_site_fract_z
O1	O	0.921351	0.086649	-0.062839
O2	O	0.719090	0.098338	-0.062788
O3	O	0.826067	-0.008637	-0.062806
O4	O	0.814373	0.193624	-0.062821
O5	O	0.826049	-0.008643	0.062382
O6	O	0.719071	0.098332	0.062400
O7	O	0.921332	0.086644	0.062349
Cu8	Cu	0.820200	0.092488	0.073806
Cu9	Cu	0.820222	0.092494	-0.074244
O10	O	0.814354	0.193619	0.062367
C11	C	0.693204	0.097959	-0.000187
C12	C	0.616100	0.096830	-0.000167
C13	C	0.825683	-0.034516	-0.000211
C14	C	0.824556	-0.111620	-0.000209
C15	C	0.571402	0.159598	-0.000184
C16	C	0.498955	0.158537	-0.000192
C17	C	0.471210	0.094705	-0.000199
C18	C	0.515917	0.031929	-0.000178
C19	C	0.588363	0.032991	-0.000162
C20	C	0.362955	0.044528	-0.044080
C21	C	0.290511	0.043468	-0.044100
C22	C	0.247764	0.091425	-0.000244
C23	C	0.277469	0.140455	0.043622
C24	C	0.349914	0.141517	0.043638
C25	C	0.392656	0.093546	-0.000216
C26	C	0.124510	0.153048	-0.000269
C27	C	0.052062	0.151984	-0.000272
C28	C	0.069026	0.025374	-0.000266
C29	C	0.141472	0.026439	-0.000255
C30	C	0.169210	0.090278	-0.000260
C31	C	0.824040	-0.147828	-0.068449
C32	C	0.822971	-0.220274	-0.068454
C33	C	0.822432	-0.256511	-0.000215
C34	C	0.822944	-0.220295	0.068034
C35	C	0.824006	-0.147849	0.068037
C36	C	0.861426	-0.376745	0.052050
C37	C	0.860369	-0.449190	0.052044
C38	C	0.819155	-0.479957	-0.000223
C39	C	0.779007	-0.438272	-0.052496
C40	C	0.780069	-0.365827	-0.052493
C41	C	0.821281	-0.335066	-0.000211
C42	C	0.817479	-0.594719	-0.068474
C43	C	0.816406	-0.667166	-0.068476
C44	C	0.816386	-0.667186	0.068014
C45	C	0.817452	-0.594740	0.068014
C46	C	0.818002	-0.558511	-0.000232
C47	C	0.947218	0.087022	-0.000253
C48	C	1.024321	0.088151	-0.000278
C49	C	0.814739	0.219498	-0.000229
C50	C	0.815866	0.296602	-0.000237
N51	N	0.820189	0.092483	0.177936
N52	N	0.820238	0.092493	-0.178375
C53	C	0.867574	0.045137	0.217315
C54	C	0.867578	0.045134	0.296117
C55	C	0.820204	0.092488	0.335537
C56	C	0.772810	0.139837	0.296148
C57	C	0.772803	0.139834	0.217348
C58	C	0.810903	0.155776	0.460371
C59	C	0.810915	0.155780	0.539170
C60	C	0.820222	0.092496	0.578583
C61	C	0.829532	0.029207	0.539187
C62	C	0.829525	0.029204	0.460387
C63	C	0.820206	0.092496	0.420982
C64	C	0.867614	0.045144	0.703408
C65	C	0.867614	0.045139	0.782211
C66	C	0.772849	0.139849	0.782241
C67	C	0.772846	0.139847	0.703439
C68	C	0.820233	0.092495	0.664027
H69	H	0.593981	0.211581	-0.000189
O70	O	0.721698	0.190907	0.174867
H71	H	0.688757	0.223839	0.215513
O72	O	0.636575	-0.034714	-0.000149
H73	H	0.669956	-0.037261	0.050886
H74	H	0.815942	-0.696689	0.123575
H75	H	0.894987	-0.351701	0.094617
O76	O	0.824572	-0.108798	0.141646
H77	H	0.777723	-0.069452	0.144930
O78	O	0.918697	-0.005930	0.338598
H79	H	0.889578	-0.039621	0.374521
H80	H	0.147095	0.205029	-0.000262
O81	O	0.734546	-0.471449	-0.108867
H82	H	0.678981	-0.450065	-0.101121
H83	H	0.893062	-0.483125	0.094605
O84	O	0.822375	-0.259374	0.141637
H85	H	0.821562	-0.315836	0.130171
H86	H	0.734264	0.178403	0.671375
O87	O	0.918706	-0.005952	0.660906
H88	H	0.889559	-0.039630	0.625034
O89	O	0.409062	-0.007206	-0.091377
H90	H	0.438332	0.021383	-0.132552
O91	O	0.839552	-0.039051	0.417892
H92	H	0.846020	-0.083059	0.458530
H93	H	0.906157	0.006579	0.185228
O94	O	0.003846	0.219687	-0.000287
H95	H	0.035308	0.264253	-0.000294
O96	O	0.039112	-0.043477	-0.000273
H97	H	-0.018773	-0.033672	-0.000291
H98	H	0.177867	-0.024674	-0.000245
O99	O	0.839565	-0.039057	0.581682
H100	H	0.837997	-0.028426	0.643095
O101	O	0.485998	-0.036922	-0.000186
H102	H	0.428113	-0.027116	-0.000207
H103	H	0.803340	0.207314	0.571240
O104	O	0.918731	-0.005921	0.824690
H105	H	0.951685	-0.038838	0.784043
O106	O	0.450731	0.226239	-0.000218
H107	H	0.482190	0.270808	-0.000224
H108	H	0.374097	0.181436	0.079358
O109	O	0.721770	0.190934	0.824761
H110	H	0.730459	0.245054	0.809613
O111	O	0.800862	0.224031	0.417855
H112	H	0.843226	0.255690	0.432938
H113	H	0.824486	-0.118335	-0.124020
O114	O	0.818026	-0.555682	0.141616
H115	H	0.817480	-0.593050	0.189068
O116	O	0.721718	0.190923	0.338655
H117	H	0.688059	0.161779	0.374591
O118	O	0.231376	0.192183	0.090934
H119	H	0.176011	0.183204	0.083564
H120	H	0.822547	-0.249759	-0.124025
O121	O	0.258474	-0.009417	-0.091400
H122	H	0.300369	-0.042599	-0.121878
O123	O	0.736759	-0.320862	-0.108856
H124	H	0.707914	-0.354420	-0.145198
H125	H	0.817923	-0.565220	-0.124044
O126	O	0.815823	-0.706221	-0.142081
H127	H	0.816380	-0.668854	-0.189533
