data_functionalizedCrystal
_audit_creation_method	'MofGen! by Chris Wilmer'
_symmetry_space_group_name_H-M	'P1'
_symmetry_Int_Tables_number	1
_symmetry_cell_setting	triclinic
loop_
_symmetry_equiv_pos_as_xyz
  x,y,z
_cell_length_a	16.109301
_cell_length_b	16.109304
_cell_length_c	14.586319
_cell_angle_alpha	89.999019
_cell_angle_beta	89.998857
_cell_angle_gamma	83.462111
loop_
_atom_site_label
_atom_site_type_symbol
_atom_site_fract_x
_atom_site_fract_y
_atom_site_fract_z
O1	O	1.103132	0.106867	-0.076184
O2	O	1.436465	0.440200	0.257149
O3	O	1.769798	0.773534	0.590483
O4	O	0.861070	0.120166	-0.076196
O5	O	1.194403	0.453499	0.257137
O6	O	1.527737	0.786833	0.590470
O7	O	0.988749	-0.007514	-0.076190
O8	O	1.322083	0.325819	0.257143
O9	O	1.655416	0.659152	0.590476
O10	O	0.975452	0.234547	-0.076190
O11	O	1.308786	0.567881	0.257143
O12	O	1.642119	0.901214	0.590477
O13	O	0.988740	-0.007516	0.076290
O14	O	1.322074	0.325817	0.409624
O15	O	1.655407	0.659150	0.742957
O16	O	0.861061	0.120164	0.076284
O17	O	1.194394	0.453497	0.409618
O18	O	1.527728	0.786831	0.742951
O19	O	1.103123	0.106865	0.076297
O20	O	1.436456	0.440198	0.409630
O21	O	1.769790	0.773532	0.742963
Cu22	Cu	0.982091	0.113514	0.090213
Cu23	Cu	1.315425	0.446848	0.423547
Cu24	Cu	1.648758	0.780181	0.756880
Cu25	Cu	0.982102	0.113517	-0.090113
Cu26	Cu	1.315435	0.446850	0.243220
Cu27	Cu	1.648768	0.780183	0.576554
O28	O	0.975444	0.234545	0.076291
O29	O	1.308777	0.567879	0.409624
O30	O	1.642110	0.901212	0.742957
C31	C	0.830091	0.119626	0.000042
C32	C	1.163424	0.452960	0.333376
C33	C	1.496757	0.786293	0.666709
C34	C	0.737795	0.118011	0.000038
C35	C	1.071129	0.451344	0.333371
C36	C	1.404462	0.784678	0.666704
C37	C	0.428798	0.188494	0.000054
C38	C	0.762131	0.521827	0.333387
C39	C	1.095464	0.855161	0.666720
C40	C	0.515518	0.190020	0.000048
C41	C	0.848851	0.523353	0.333382
C42	C	1.182185	0.856686	0.666715
C43	C	0.535390	0.038531	0.000036
C44	C	0.868723	0.371864	0.333369
C45	C	1.202056	0.705198	0.666703
C46	C	0.448671	0.037007	0.000035
C47	C	0.782004	0.370340	0.333368
C48	C	1.115338	0.703673	0.666701
C49	C	0.395377	0.111991	0.000048
C50	C	0.728710	0.445324	0.333381
C51	C	1.062044	0.778657	0.666715
C52	C	0.568816	0.115040	0.000044
C53	C	0.902149	0.448374	0.333377
C54	C	1.235483	0.781707	0.666711
C55	C	0.662842	0.116694	0.000038
C56	C	0.996175	0.450027	0.333372
C57	C	1.329509	0.783360	0.666705
C58	C	0.301345	0.110338	0.000052
C59	C	0.634678	0.443671	0.333386
C60	C	0.968012	0.777004	0.666719
C61	C	0.988206	-0.038490	0.000048
C62	C	1.321539	0.294843	0.333381
C63	C	1.654872	0.628177	0.666715
C64	C	0.986590	-0.130785	0.000042
C65	C	1.319923	0.202548	0.333375
C66	C	1.653256	0.535881	0.666708
C67	C	0.982861	-0.343122	-0.083073
C68	C	1.316194	-0.009788	0.250261
C69	C	1.649528	0.323545	0.583594
C70	C	0.981335	-0.429842	-0.083072
C71	C	1.314668	-0.096508	0.250262
C72	C	1.648002	0.236825	0.583595
C73	C	0.981329	-0.429841	0.083171
C74	C	1.314663	-0.096508	0.416505
C75	C	1.647996	0.236826	0.749838
C76	C	0.982850	-0.343122	0.083169
C77	C	1.316183	-0.009788	0.416503
C78	C	1.649516	0.323545	0.749836
C79	C	0.983620	-0.299765	0.000045
C80	C	1.316953	0.033569	0.333378
C81	C	1.650286	0.366902	0.666712
C82	C	0.980573	-0.473204	0.000047
C83	C	1.313907	-0.139871	0.333381
C84	C	1.647240	0.193462	0.666714
C85	C	0.978919	-0.567230	0.000049
C86	C	1.312252	-0.233897	0.333382
C87	C	1.645585	0.099437	0.666716
C88	C	0.985273	-0.205733	0.000043
C89	C	1.318606	0.127601	0.333376
C90	C	1.651939	0.460934	0.666710
C91	C	1.134102	0.107405	0.000056
C92	C	1.467436	0.440738	0.333389
C93	C	1.800769	0.774071	0.666723
C94	C	1.226398	0.109020	0.000055
C95	C	1.559731	0.442353	0.333388
C96	C	1.893064	0.775687	0.666721
C97	C	0.975987	0.265521	0.000050
C98	C	1.309320	0.598855	0.333384
C99	C	1.642654	0.932188	0.666717
C100	C	0.977603	0.357816	0.000051
C101	C	1.310936	0.691150	0.333384
C102	C	1.644270	1.024483	0.666717
N103	N	0.982090	0.113512	0.217045
N104	N	1.315423	0.446846	0.550378
N105	N	1.648757	0.780179	0.883712
N106	N	0.982110	0.113512	-0.216945
N107	N	1.315443	0.446845	0.116389
N108	N	1.648776	0.780179	0.449722
C109	C	1.038645	0.056994	0.452054
C110	C	1.371978	0.390328	0.785387
C111	C	1.705312	0.723661	1.118721
C112	C	1.038647	0.056992	0.548035
C113	C	1.371981	0.390326	0.881369
C114	C	1.705314	0.723659	1.214702
C115	C	0.925548	0.170033	0.548040
C116	C	1.258882	0.503366	0.881373
C117	C	1.592215	0.836699	1.214706
C118	C	0.925543	0.170030	0.452060
C119	C	1.258876	0.503363	0.785393
C120	C	1.592209	0.836697	1.118727
C121	C	0.982096	0.113512	0.404070
C122	C	1.315429	0.446845	0.737403
C123	C	1.648762	0.780179	1.070736
C124	C	0.982104	0.113513	0.596031
C125	C	1.315437	0.446846	0.929364
C126	C	1.648770	0.780179	1.262697
C127	C	0.982106	0.113511	0.700098
C128	C	1.315439	0.446844	1.033431
C129	C	1.648773	0.780177	1.366764
C130	C	0.982093	0.113512	0.299996
C131	C	1.315426	0.446846	0.633329
C132	C	1.648759	0.780179	0.966663
H133	H	0.578792	-0.022518	0.000027
H134	H	0.912125	0.310815	0.333360
H135	H	1.245459	0.644149	0.666694
F136	F	0.865349	0.230183	0.400988
F137	F	1.198682	0.563517	0.734321
F138	F	1.532016	0.896850	1.067654
F139	F	0.372081	0.268299	0.000065
F140	F	0.705414	0.601632	0.333399
F141	F	1.038748	0.934965	0.666732
H142	H	1.084693	0.010973	0.412983
H143	H	1.418026	0.344306	0.746316
H144	H	1.751359	0.677639	1.079649
H145	H	0.879505	0.216050	0.587123
H146	H	1.212839	0.549383	0.920456
H147	H	1.546172	0.882717	1.253789
H148	H	0.983462	-0.307819	0.150858
H149	H	1.316796	0.025515	0.484191
H150	H	1.650129	0.358848	0.817524
F151	F	0.551083	0.271445	0.000051
F152	F	0.884416	0.604778	0.333384
F153	F	1.217749	0.938112	0.666717
H154	H	1.084694	0.010970	0.587102
H155	H	1.418027	0.344303	0.920435
H156	H	1.751361	0.677636	1.253768
H157	H	0.421460	-0.025296	0.000027
H158	H	0.754794	0.308038	0.333360
H159	H	1.088127	0.641371	0.666694
H160	H	0.983486	-0.307823	-0.150758
H161	H	1.316819	0.025511	0.182575
H162	H	1.650152	0.358844	0.515909
H163	H	0.980715	-0.465139	-0.150754
H164	H	1.314049	-0.131806	0.182579
H165	H	1.647382	0.201528	0.515912
F166	F	0.980510	-0.475991	0.171633
F167	F	1.313843	-0.142658	0.504967
F168	F	1.647176	0.190675	0.838300
