data_functionalizedCrystal
_audit_creation_method	'MofGen! by Chris Wilmer'
_symmetry_space_group_name_H-M	'P1'
_symmetry_Int_Tables_number	1
_symmetry_cell_setting	triclinic
loop_
_symmetry_equiv_pos_as_xyz
  x,y,z
_cell_length_a	21.295420
_cell_length_b	21.295417
_cell_length_c	21.295411
_cell_angle_alpha	90.021644
_cell_angle_beta	89.975307
_cell_angle_gamma	89.971243
loop_
_atom_site_label
_atom_site_type_symbol
_atom_site_fract_x
_atom_site_fract_y
_atom_site_fract_z
Zn1	Zn	0.962355	0.250710	-0.355914
Zn2	Zn	1.295689	0.584044	-0.022580
Zn3	Zn	1.629022	0.917377	0.310753
Zn4	Zn	0.962258	0.355962	-0.250639
Zn5	Zn	1.295591	0.689295	0.082694
Zn6	Zn	1.628924	1.022629	0.416028
Zn7	Zn	0.857079	0.250708	-0.250658
Zn8	Zn	1.190412	0.584041	0.082675
Zn9	Zn	1.523745	0.917374	0.416008
Zn10	Zn	0.857048	0.355942	-0.355870
Zn11	Zn	1.190381	0.689276	-0.022537
Zn12	Zn	1.523715	1.022609	0.310796
O13	O	0.909685	0.303331	-0.303270
O14	O	1.243018	0.636664	0.030063
O15	O	1.576352	0.969997	0.363396
O16	O	1.050432	0.264682	-0.341959
O17	O	1.383765	0.598015	-0.008625
O18	O	1.717098	0.931348	0.324708
O19	O	0.948277	0.342007	-0.162552
O20	O	1.281611	0.675340	0.170781
O21	O	1.614944	1.008674	0.504114
O22	O	0.871097	0.162619	-0.264647
O23	O	1.204431	0.495952	0.068686
O24	O	1.537764	0.829285	0.402020
O25	O	1.050360	0.342010	-0.264614
O26	O	1.383693	0.675343	0.068719
O27	O	1.717027	1.008676	0.402053
O28	O	0.948444	0.162621	-0.341977
O29	O	1.281777	0.495954	-0.008644
O30	O	1.615110	0.829287	0.324689
O31	O	0.871003	0.264677	-0.162566
O32	O	1.204336	0.598010	0.170767
O33	O	1.537669	0.931344	0.504100
O34	O	0.768985	0.264658	-0.264605
O35	O	1.102318	0.597991	0.068728
O36	O	1.435652	0.931324	0.402062
O37	O	0.871045	0.341976	-0.443966
O38	O	1.204379	0.675309	-0.110632
O39	O	1.537712	1.008643	0.222701
O40	O	0.768963	0.341973	-0.341904
O41	O	1.102296	0.675307	-0.008571
O42	O	1.435629	1.008640	0.324763
O43	O	0.948414	0.264662	-0.443997
O44	O	1.281747	0.597996	-0.110664
O45	O	1.615081	0.931329	0.222669
O46	O	0.948248	0.444049	-0.264572
O47	O	1.281581	0.777382	0.068761
O48	O	1.614914	1.110716	0.402095
O49	O	0.870951	0.444034	-0.341885
O50	O	1.204284	0.777368	-0.008552
O51	O	1.537617	1.110701	0.324782
C52	C	0.746133	0.303314	-0.303252
C53	C	1.079467	0.636647	0.030081
C54	C	1.412800	0.969980	0.363414
C55	C	0.676165	0.303321	-0.303260
C56	C	1.009499	0.636655	0.030074
C57	C	1.342832	0.969988	0.363407
C58	C	0.176712	0.343663	-0.343481
C59	C	0.510045	0.676996	-0.010148
C60	C	0.843379	1.010330	0.323186
C61	C	0.242454	0.343663	-0.343474
C62	C	0.575788	0.676996	-0.010141
C63	C	0.909121	1.010330	0.323192
C64	C	0.275326	0.303345	-0.303290
C65	C	0.608659	0.636678	0.030043
C66	C	0.941992	0.970012	0.363377
C67	C	0.242449	0.263035	-0.263098
C68	C	0.575782	0.596368	0.070235
C69	C	0.909116	0.929701	0.403568
C70	C	0.176708	0.263040	-0.263102
C71	C	0.510041	0.596374	0.070232
C72	C	0.843374	0.929707	0.403565
N73	N	0.378566	0.248227	-0.298558
N74	N	0.711900	0.581561	0.034776
N75	N	1.045233	0.914894	0.368109
N76	N	0.441018	0.248224	-0.298558
N77	N	0.774351	0.581557	0.034775
N78	N	1.107685	0.914891	0.368109
C79	C	0.473400	0.303327	-0.303277
C80	C	0.806734	0.636660	0.030057
C81	C	1.140067	0.969994	0.363390
N82	N	0.440972	0.358435	-0.308007
N83	N	0.774306	0.691768	0.025326
N84	N	1.107639	1.025102	0.358659
N85	N	0.378515	0.358438	-0.308010
N86	N	0.711848	0.691771	0.025323
N87	N	1.045182	1.025104	0.358657
C88	C	0.346611	0.303335	-0.303282
C89	C	0.679944	0.636668	0.030052
C90	C	1.013278	0.970001	0.363385
C91	C	0.577555	0.343638	-0.343456
C92	C	0.910888	0.676971	-0.010122
C93	C	1.244221	1.010305	0.323211
C94	C	0.643298	0.343639	-0.343445
C95	C	0.976632	0.676973	-0.010111
C96	C	1.309965	1.010306	0.323222
C97	C	0.643292	0.263005	-0.263072
C98	C	0.976625	0.596339	0.070261
C99	C	1.309958	0.929672	0.403595
C100	C	0.577549	0.263010	-0.263080
C101	C	0.910883	0.596343	0.070253
C102	C	1.244216	0.929676	0.403587
C103	C	0.544685	0.303325	-0.303275
C104	C	0.878018	0.636659	0.030058
C105	C	1.211351	0.969992	0.363392
C106	C	0.909602	0.466882	-0.303236
C107	C	1.242936	0.800216	0.030098
C108	C	1.576269	1.133549	0.363431
C109	C	0.909625	0.536850	-0.303242
C110	C	1.242958	0.870184	0.030092
C111	C	1.576291	1.203517	0.363425
C112	C	0.909737	0.303317	-0.467461
C113	C	1.243070	0.636651	-0.134127
C114	C	1.576404	0.969984	0.199206
C115	C	0.909759	0.303312	-0.537429
C116	C	1.243093	0.636645	-0.204096
C117	C	1.576426	0.969978	0.129238
C118	C	1.073875	0.303348	-0.303289
C119	C	1.407208	0.636681	0.030044
C120	C	1.740542	0.970015	0.363378
C121	C	1.143843	0.303356	-0.303297
C122	C	1.477177	0.636689	0.030037
C123	C	1.810510	0.970022	0.363370
C124	C	0.909785	0.139140	-0.303319
C125	C	1.243118	0.472474	0.030014
C126	C	1.576452	0.805807	0.363348
C127	C	0.909827	0.069172	-0.303340
C128	C	1.243161	0.402506	0.029993
C129	C	1.576494	0.735839	0.363327
C130	C	0.949909	0.569704	-0.263026
C131	C	1.283242	0.903037	0.070307
C132	C	1.616576	1.236370	0.403641
C133	C	0.949939	0.635446	-0.263040
C134	C	1.283272	0.968779	0.070293
C135	C	1.616605	1.302113	0.403627
C136	C	0.909672	0.668333	-0.303263
C137	C	1.243006	1.001666	0.030070
C138	C	1.576339	1.334999	0.363403
C139	C	0.869385	0.635472	-0.343487
C140	C	1.202719	0.968805	-0.010154
C141	C	1.536052	1.302138	0.323180
C142	C	0.869361	0.569730	-0.343476
C143	C	1.202695	0.903064	-0.010143
C144	C	1.536028	1.236397	0.323191
N145	N	0.854605	0.771598	-0.308056
N146	N	1.187939	1.104931	0.025277
N147	N	1.521272	1.438264	0.358610
N148	N	0.854630	0.834049	-0.308063
N149	N	1.187963	1.167383	0.025270
N150	N	1.521297	1.500716	0.358604
C151	C	0.909743	0.866407	-0.303299
C152	C	1.243076	1.199741	0.030034
C153	C	1.576410	1.533074	0.363367
N154	N	0.964832	0.833955	-0.298517
N155	N	1.298165	1.167288	0.034816
N156	N	1.631498	1.500622	0.368150
N157	N	0.964807	0.771498	-0.298507
N158	N	1.298140	1.104831	0.034826
N159	N	1.631473	1.438165	0.368160
C160	C	0.909694	0.739618	-0.303280
C161	C	1.243027	1.072952	0.030053
C162	C	1.576361	1.406285	0.363387
C163	C	0.950063	0.970546	-0.263097
C164	C	1.283396	1.303880	0.070236
C165	C	1.616729	1.637213	0.403570
C166	C	0.950093	1.036290	-0.263116
C167	C	1.283427	1.369623	0.070218
C168	C	1.616760	1.702957	0.403551
C169	C	0.869534	1.036314	-0.343559
C170	C	1.202868	1.369648	-0.010226
C171	C	1.536201	1.702981	0.323108
C172	C	0.869509	0.970572	-0.343544
C173	C	1.202843	1.303905	-0.010210
C174	C	1.536176	1.637238	0.323123
C175	C	0.909773	0.937692	-0.303309
C176	C	1.243106	1.271025	0.030024
C177	C	1.576439	1.604358	0.363357
C178	C	0.950044	0.263053	-0.570313
C179	C	1.283377	0.596386	-0.236980
C180	C	1.616710	0.929719	0.096354
C181	C	0.950043	0.263025	-0.636056
C182	C	1.283376	0.596359	-0.302722
C183	C	1.616709	0.929692	0.030611
C184	C	0.909764	0.303268	-0.668911
C185	C	1.243098	0.636602	-0.335578
C186	C	1.576431	0.969935	-0.002245
C187	C	0.869472	0.343530	-0.636019
C188	C	1.202806	0.676863	-0.302686
C189	C	1.536139	1.010197	0.030647
C190	C	0.869470	0.343552	-0.570278
C191	C	1.202803	0.676885	-0.236945
C192	C	1.536136	1.010218	0.096389
N193	N	0.904908	0.358336	-0.772127
N194	N	1.238241	0.691669	-0.438793
N195	N	1.571574	1.025003	-0.105460
N196	N	0.904914	0.358314	-0.834578
N197	N	1.238247	0.691647	-0.501245
N198	N	1.571580	1.024980	-0.167912
C199	C	0.909768	0.303204	-0.866986
C200	C	1.243102	0.636538	-0.533653
C201	C	1.576435	0.969871	-0.200320
N202	N	0.914629	0.248117	-0.834584
N203	N	1.247962	0.581451	-0.501250
N204	N	1.581296	0.914784	-0.167917
N205	N	0.914626	0.248141	-0.772126
N206	N	1.247960	0.581474	-0.438793
N207	N	1.581293	0.914807	-0.105460
C208	C	0.909762	0.303249	-0.740197
C209	C	1.243095	0.636582	-0.406864
C210	C	1.576429	0.969916	-0.073530
C211	C	0.950054	0.262913	-0.971156
C212	C	1.283387	0.596246	-0.637823
C213	C	1.616720	0.929579	-0.304489
C214	C	0.950048	0.262884	-1.036900
C215	C	1.283382	0.596218	-0.703566
C216	C	1.616715	0.929551	-0.370233
C217	C	0.869481	0.343395	-1.036862
C218	C	1.202815	0.676728	-0.703529
C219	C	1.536148	1.010061	-0.370196
C220	C	0.869483	0.343417	-0.971120
C221	C	1.202816	0.676751	-0.637786
C222	C	1.536150	1.010084	-0.304453
C223	C	0.909773	0.303177	-0.938271
C224	C	1.243106	0.636510	-0.604937
C225	C	1.576439	0.969844	-0.271604
C226	C	0.909669	0.303298	-0.139719
C227	C	1.243002	0.636632	0.193615
C228	C	1.576336	0.969965	0.526948
C229	C	0.909769	0.303127	-0.069751
C230	C	1.243102	0.636460	0.263582
C231	C	1.576435	0.969793	0.596916
H232	H	0.149946	0.230215	-0.230379
H233	H	0.483280	0.563549	0.102955
H234	H	0.816613	0.896882	0.436288
O235	O	0.993343	0.534245	-0.219636
O236	O	1.326676	0.867579	0.113697
O237	O	1.660010	1.200912	0.447030
H238	H	0.965176	0.504338	-0.187574
H239	H	1.298509	0.837672	0.145760
H240	H	1.631842	1.171005	0.479093
O241	O	0.826005	0.386962	-0.534804
O242	O	1.159338	0.720295	-0.201470
O243	O	1.492672	1.053628	0.131863
H244	H	0.797991	0.414937	-0.568692
H245	H	1.131324	0.748271	-0.235359
H246	H	1.464657	1.081604	0.097975
H247	H	0.269221	0.376486	-0.376199
H248	H	0.602555	0.709819	-0.042866
H249	H	0.935888	1.043153	0.290468
H250	H	0.982852	0.230097	-1.063673
H251	H	1.316185	0.563430	-0.730340
H252	H	1.649518	0.896763	-0.397006
O253	O	0.993489	0.219604	-0.671545
O254	O	1.326822	0.552938	-0.338211
O255	O	1.660155	0.886271	-0.004878
H256	H	1.042889	0.230414	-0.658958
H257	H	1.376222	0.563748	-0.325625
H258	H	1.709556	0.897081	0.007709
H259	H	0.836752	1.063090	-0.376312
H260	H	1.170085	1.396423	-0.042979
H261	H	1.503418	1.729757	0.290354
O262	O	0.826043	0.935130	-0.386903
O263	O	1.159377	1.268464	-0.053570
O264	O	1.492710	1.601797	0.279764
H265	H	0.798041	0.969041	-0.414869
H266	H	1.131374	1.302374	-0.081536
H267	H	1.464707	1.635708	0.251798
O268	O	0.993384	0.670893	-0.219658
O269	O	1.326717	1.004227	0.113675
O270	O	1.660051	1.337560	0.447009
H271	H	1.021374	0.636985	-0.191676
H272	H	1.354707	0.970318	0.141657
H273	H	1.688040	1.303652	0.474991
H274	H	0.149958	0.376493	-0.376209
H275	H	0.483291	0.709826	-0.042875
H276	H	0.816624	1.043160	0.290458
O277	O	0.542100	0.387142	-0.386781
O278	O	0.875434	0.720476	-0.053448
O279	O	1.208767	1.053809	0.279885
H280	H	0.576004	0.415186	-0.414710
H281	H	0.909337	0.748519	-0.081376
H282	H	1.242671	1.081853	0.251957
H283	H	0.982850	0.230285	-0.543571
H284	H	1.316183	0.563619	-0.210238
H285	H	1.649517	0.896952	0.123095
O286	O	0.277897	0.219545	-0.219758
O287	O	0.611230	0.552878	0.113576
O288	O	0.944564	0.886211	0.446909
H289	H	0.329134	0.226307	-0.226511
H290	H	0.662467	0.559640	0.106822
H291	H	0.995801	0.892974	0.440156
O292	O	0.826026	0.386935	-0.671451
O293	O	1.159359	0.720268	-0.338118
O294	O	1.492692	1.053602	-0.004784
H295	H	0.832799	0.380161	-0.722690
H296	H	1.166132	0.713494	-0.389357
H297	H	1.499465	1.046827	-0.056024
H298	H	0.982902	1.063038	-0.230368
H299	H	1.316235	1.396371	0.102965
H300	H	1.649568	1.729705	0.436298
H301	H	0.982856	0.230143	-0.944409
H302	H	1.316190	0.563476	-0.611075
H303	H	1.649523	0.896810	-0.277742
O304	O	0.678755	0.387113	-0.386790
O305	O	1.012088	0.720447	-0.053457
O306	O	1.345422	1.053780	0.279876
H307	H	0.644855	0.415141	-0.414744
H308	H	0.978188	0.748474	-0.081411
H309	H	1.311521	1.081807	0.251923
O310	O	0.826035	0.386801	-1.072289
O311	O	1.159368	0.720134	-0.738955
O312	O	1.492702	1.053468	-0.405622
H313	H	0.832806	0.380025	-1.123528
H314	H	1.166139	0.713359	-0.790195
H315	H	1.499472	1.046692	-0.456862
H316	H	0.836601	0.662252	-0.376238
H317	H	1.169935	0.995585	-0.042905
H318	H	1.503268	1.328919	0.290429
H319	H	0.836556	0.542981	-0.376225
H320	H	1.169890	0.876314	-0.042892
H321	H	1.503223	1.209647	0.290441
O322	O	0.993495	0.935075	-0.219713
O323	O	1.326828	1.268409	0.113620
O324	O	1.660161	1.601742	0.446954
H325	H	1.021521	0.968968	-0.191758
H326	H	1.354855	1.302301	0.141575
H327	H	1.688188	1.635635	0.474909
O328	O	0.542099	0.219528	-0.219739
O329	O	0.875432	0.552862	0.113594
O330	O	1.208766	0.886195	0.446928
H331	H	0.512126	0.247661	-0.187659
H332	H	0.845459	0.580994	0.145675
H333	H	1.178793	0.914328	0.479008
O334	O	0.678735	0.219516	-0.219729
O335	O	1.012068	0.552849	0.113604
O336	O	1.345401	0.886183	0.446937
H337	H	0.729972	0.226281	-0.226480
H338	H	1.063305	0.559614	0.106854
H339	H	1.396638	0.892947	0.440187
O340	O	0.826017	0.386823	-0.935645
O341	O	1.159350	0.720156	-0.602312
O342	O	1.492683	1.053489	-0.268978
H343	H	0.798003	0.414798	-0.969534
H344	H	1.131336	0.748131	-0.636201
H345	H	1.464669	1.081464	-0.302868
