data_functionalizedCrystal
_audit_creation_method	'MofGen! by Chris Wilmer'
_symmetry_space_group_name_H-M	'P1'
_symmetry_Int_Tables_number	1
_symmetry_cell_setting	triclinic
loop_
_symmetry_equiv_pos_as_xyz
  x,y,z
_cell_length_a	10.540510
_cell_length_b	10.540539
_cell_length_c	7.540329
_cell_angle_alpha	89.998539
_cell_angle_beta	89.996792
_cell_angle_gamma	84.519401
loop_
_atom_site_label
_atom_site_type_symbol
_atom_site_fract_x
_atom_site_fract_y
_atom_site_fract_z
O1	O	1.685907	0.178719	-0.147484
O2	O	1.316489	0.195614	-0.147485
O3	O	1.509626	0.002459	-0.147482
O4	O	1.492770	0.371874	-0.147487
O5	O	1.509614	0.002456	0.147483
O6	O	1.316477	0.195611	0.147480
O7	O	1.685895	0.178716	0.147481
Cu8	Cu	1.501185	0.187164	0.174413
Cu9	Cu	1.501199	0.187166	-0.174417
O10	O	1.492758	0.371871	0.147478
C11	C	1.269179	0.194354	-0.000002
C12	C	1.128229	0.190587	-0.000003
C13	C	0.910774	0.324771	-0.000682
C14	C	1.057370	0.328789	-0.000006
C15	C	1.083463	0.119839	0.168434
C16	C	0.936702	0.116800	0.168564
C17	C	0.936909	0.113925	-0.166866
C18	C	1.083250	0.120480	-0.169082
C19	C	1.508356	-0.044845	-0.000003
C20	C	1.504574	-0.185793	-0.000013
C21	C	1.359655	-0.369204	-0.000675
C22	C	1.363489	-0.222587	-0.000011
C23	C	1.572464	-0.247459	0.168427
C24	C	1.567649	-0.394003	0.168569
C25	C	1.570531	-0.394519	-0.166861
C26	C	1.571831	-0.247537	-0.169089
C27	C	1.733204	0.179976	-0.000006
C28	C	1.874154	0.183743	-0.000017
C29	C	1.494028	0.419175	-0.000005
C30	C	1.497810	0.560123	-0.000007
N31	N	1.501185	0.187161	0.419762
N32	N	1.501209	0.187159	-0.419766
H33	H	0.914755	0.010163	-0.168004
H34	H	1.086720	0.384136	-0.120753
Cl35	Cl	0.874597	0.191450	0.362949
H36	H	0.913706	0.013434	0.176217
H37	H	1.085769	0.384470	0.120937
H38	H	0.867262	0.378302	0.119427
Cl39	Cl	1.280416	-0.158101	0.186717
H40	H	1.524874	-0.426066	-0.294528
H41	H	1.672437	-0.441756	-0.167994
H42	H	1.517465	-0.422198	0.294481
H43	H	1.310069	-0.179977	-0.120755
Cl44	Cl	0.871245	0.181231	-0.363976
Cl45	Cl	1.127500	0.199911	-0.361476
H46	H	1.130853	0.018098	0.174699
Cl47	Cl	1.131085	0.195691	0.361969
Cl48	Cl	0.846008	0.407909	-0.187181
H49	H	1.674693	-0.223327	-0.179260
Cl50	Cl	1.158995	-0.035307	-0.184781
H51	H	1.303928	-0.397797	-0.121465
Cl52	Cl	1.495779	-0.183697	-0.361505
H53	H	1.304145	-0.399407	0.119439
H54	H	1.525294	-0.204856	0.293774
H55	H	1.669115	-0.441983	0.176211
Cl56	Cl	1.732429	-0.212967	0.178107
