data_functionalizedCrystal
_audit_creation_method	'MofGen! by Chris Wilmer'
_symmetry_space_group_name_H-M	'P1'
_symmetry_Int_Tables_number	1
_symmetry_cell_setting	triclinic
loop_
_symmetry_equiv_pos_as_xyz
  x,y,z
_cell_length_a	9.198806
_cell_length_b	10.723023
_cell_length_c	10.654550
_cell_angle_alpha	95.523775
_cell_angle_beta	90.001674
_cell_angle_gamma	89.995851
loop_
_atom_site_label
_atom_site_type_symbol
_atom_site_fract_x
_atom_site_fract_y
_atom_site_fract_z
O1	O	-0.120884	1.657215	-0.176141
O2	O	-0.120888	1.294065	-0.193003
O3	O	-0.120881	1.483990	-0.001832
O4	O	-0.120892	1.467291	-0.367313
O5	O	0.120904	1.483973	-0.001833
O6	O	0.120897	1.294049	-0.193004
O7	O	0.120901	1.657199	-0.176142
Cu8	Cu	0.142976	1.475622	-0.184573
Cu9	Cu	-0.142963	1.475642	-0.184572
O10	O	0.120893	1.467274	-0.367314
C11	C	0.000004	1.247557	-0.191777
C12	C	0.000003	1.109002	-0.188106
C13	C	-0.125249	1.047239	-0.186469
C14	C	-0.125254	0.904035	-0.182675
N15	N	0.344090	1.475618	-0.184573
C16	C	0.583694	1.555556	-0.104134
C17	C	0.416281	1.555541	-0.104134
N18	N	0.655923	1.475646	-0.184572
C19	C	0.000010	1.482755	0.044966
C20	C	0.000005	1.479087	0.184408
C21	C	0.000005	1.703707	-0.177369
C22	C	-0.000003	1.842262	-0.181039
C23	C	-0.000001	1.468508	-0.414111
C24	C	-0.000005	1.472177	-0.553554
C25	C	0.000010	1.590911	0.263911
C26	C	0.000000	1.587457	0.394931
C27	C	-0.000015	1.360344	0.366933
C28	C	-0.000015	1.363800	0.235915
C29	C	0.000025	1.722034	0.280077
C30	C	0.000015	1.718579	0.411097
H31	H	0.107236	0.895369	-0.182441
Cl32	Cl	0.165567	1.026968	-0.185943
H33	H	0.104424	1.763780	0.244456
H34	H	-0.104381	1.758213	0.456747
Cl35	Cl	0.320388	1.661166	0.002203
Cl36	Cl	0.439974	1.369976	-0.290900
H37	H	0.593823	1.407226	-0.253443
Cl38	Cl	0.156233	1.794839	0.475592
H39	H	-0.232479	1.100378	-0.187883
H40	H	-0.000040	1.272741	0.171188
H41	H	-0.232487	0.850921	-0.181264
H42	H	-0.101154	1.773327	0.250727
H43	H	0.645792	1.623986	-0.035271
H44	H	-0.000032	1.266480	0.408887
