data_functionalizedCrystal
_audit_creation_method	'MofGen! by Chris Wilmer'
_symmetry_space_group_name_H-M	'P1'
_symmetry_Int_Tables_number	1
_symmetry_cell_setting	triclinic
loop_
_symmetry_equiv_pos_as_xyz
  x,y,z
_cell_length_a	11.792254
_cell_length_b	23.532357
_cell_length_c	22.610064
_cell_angle_alpha	90.003876
_cell_angle_beta	90.014024
_cell_angle_gamma	83.513444
loop_
_atom_site_label
_atom_site_type_symbol
_atom_site_fract_x
_atom_site_fract_y
_atom_site_fract_z
O1	O	1.505051	0.078084	0.049192
O2	O	1.174520	0.086121	0.049194
O3	O	1.349782	-0.000771	0.049181
O4	O	1.329789	0.164977	0.049205
O5	O	1.349733	-0.000762	-0.049188
O6	O	1.174471	0.086131	-0.049175
O7	O	1.505002	0.078094	-0.049177
Zn8	Zn	1.339729	0.082114	-0.064794
Zn9	Zn	1.339794	0.082101	0.064811
O10	O	1.329740	0.164987	-0.049164
C11	C	1.132217	0.085620	0.000009
C12	C	1.006240	0.084105	0.000010
C13	C	0.903933	0.082873	0.000012
C14	C	0.775583	0.081334	0.000012
C15	C	1.349258	-0.021986	-0.000006
C16	C	1.347754	-0.085214	-0.000011
C17	C	1.338342	-0.477286	0.053642
C18	C	1.336913	-0.536694	0.053645
O19	O	1.336158	-0.567420	0.099248
N20	N	1.336177	-0.566404	0.000025
C21	C	1.336859	-0.536703	-0.053602
O22	O	1.336101	-0.567428	-0.099210
C23	C	1.338280	-0.477295	-0.053605
C24	C	1.339027	-0.447589	0.000019
C25	C	1.339088	-0.447580	0.107261
C26	C	1.340519	-0.388176	0.107258
C27	C	1.341205	-0.358479	0.053635
C28	C	1.340459	-0.388185	0.000015
C29	C	1.338954	-0.447594	-0.107232
C30	C	1.340374	-0.388183	-0.107230
C31	C	1.341122	-0.358476	-0.053606
C32	C	1.342575	-0.299084	-0.053612
N33	N	1.343311	-0.269374	0.000009
C34	C	1.342626	-0.299072	0.053632
C35	C	1.333873	-0.661462	-0.053592
C36	C	1.332460	-0.720869	-0.053590
C37	C	1.332511	-0.720856	0.053657
C38	C	1.333932	-0.661449	0.053655
C39	C	1.334608	-0.631752	0.000028
C40	C	1.345633	-0.174320	0.053620
C41	C	1.347069	-0.114911	0.053612
C42	C	1.347011	-0.114928	-0.053636
C43	C	1.345581	-0.174332	-0.053628
C44	C	1.344888	-0.204026	0.000005
O45	O	1.343326	-0.268321	-0.099191
O46	O	1.343369	-0.268338	0.099232
C47	C	1.547305	0.078596	0.000009
C48	C	1.673282	0.080111	0.000012
C49	C	1.330264	0.186202	0.000024
C50	C	1.331768	0.249429	0.000033
N51	N	1.339692	0.082123	-0.153247
C52	C	1.271338	0.047323	-0.438093
C53	C	1.271327	0.047325	-0.376173
O54	O	1.213163	0.017739	-0.344153
N55	N	1.339740	0.082105	-0.345199
C56	C	1.408177	0.116879	-0.376148
O57	O	1.466367	0.146461	-0.344117
C58	C	1.408193	0.116873	-0.438067
C59	C	1.339767	0.082096	-0.469038
C60	C	1.202918	0.012548	-0.469064
C61	C	1.202928	0.012546	-0.530980
C62	C	1.271357	0.047319	-0.561924
C63	C	1.339776	0.082094	-0.530954
C64	C	1.476635	0.151644	-0.469015
C65	C	1.476646	0.151634	-0.530938
C66	C	1.408220	0.116857	-0.561909
C67	C	1.408215	0.116865	-0.623814
N68	N	1.339802	0.082086	-0.654788
C69	C	1.271373	0.047313	-0.623843
C70	C	1.408139	0.116888	-0.246115
C71	C	1.408117	0.116898	-0.184197
C72	C	1.271269	0.047344	-0.184226
C73	C	1.271285	0.047337	-0.246145
C74	C	1.339726	0.082109	-0.277089
C75	C	1.271398	0.047312	-0.753870
C76	C	1.271410	0.047315	-0.815792
C77	C	1.408262	0.116867	-0.815757
C78	C	1.408246	0.116867	-0.753841
C79	C	1.339811	0.082085	-0.722900
O80	O	1.466353	0.146435	-0.655874
O81	O	1.213204	0.017730	-0.655882
N82	N	1.339839	0.082088	0.153264
H83	H	1.345063	-0.198489	0.097293
H84	H	1.331949	-0.745046	0.097320
N85	N	1.331722	-0.751202	-0.108371
N86	N	1.332340	-0.724673	-0.156242
H87	H	1.331815	-0.746093	-0.194934
H88	H	1.347574	-0.090738	-0.097294
H89	H	1.463823	0.145224	-0.158986
H90	H	1.341123	-0.363994	0.150924
N91	N	1.338380	-0.477900	0.162046
N92	N	1.339043	-0.451357	0.209912
H93	H	1.338550	-0.472767	0.248608
N94	N	1.334700	-0.631116	0.108435
N95	N	1.334097	-0.657647	0.156306
H96	H	1.334639	-0.636227	0.194997
N97	N	1.334568	-0.631139	-0.108380
N98	N	1.333909	-0.657678	-0.156248
H99	H	1.334397	-0.636265	-0.194942
H100	H	1.338347	-0.471771	-0.150898
N101	N	1.201392	0.011811	-0.152611
N102	N	1.215613	-0.041218	-0.159520
H103	H	1.166265	-0.066312	-0.137190
H104	H	1.340908	-0.364006	-0.150900
H105	H	1.532382	0.179950	-0.556129
H106	H	1.215671	0.018990	-0.728685
N107	N	1.133028	-0.022983	-0.562601
N108	N	1.071944	-0.054026	-0.534955
H109	H	1.022575	-0.079122	-0.557283
H110	H	1.463948	0.145193	-0.728624
H111	H	1.532357	0.179962	-0.443809
H112	H	1.344983	-0.198521	-0.097292
N113	N	1.478039	0.152426	-0.277709
N114	N	1.463814	0.205452	-0.270786
H115	H	1.513182	0.230552	-0.293096
H116	H	1.463973	0.145180	-0.840964
N117	N	1.133011	-0.022981	-0.437470
N118	N	1.071936	-0.054025	-0.465142
H119	H	1.022554	-0.079117	-0.442833
H120	H	1.215567	0.019019	-0.271357
N121	N	1.347841	-0.084577	0.108395
N122	N	1.347228	-0.111104	0.156268
H123	H	1.347773	-0.089683	0.194958
N124	N	1.201497	0.011790	-0.847417
N125	N	1.140407	-0.019255	-0.819776
H126	H	1.091032	-0.044344	-0.842109
