data_functionalizedCrystal
_audit_creation_method	'MofGen! by Chris Wilmer'
_symmetry_space_group_name_H-M	'P1'
_symmetry_Int_Tables_number	1
_symmetry_cell_setting	triclinic
loop_
_symmetry_equiv_pos_as_xyz
  x,y,z
_cell_length_a	21.295420
_cell_length_b	21.295417
_cell_length_c	18.101390
_cell_angle_alpha	89.962939
_cell_angle_beta	89.980592
_cell_angle_gamma	90.026289
loop_
_atom_site_label
_atom_site_type_symbol
_atom_site_fract_x
_atom_site_fract_y
_atom_site_fract_z
Zn1	Zn	0.962323	-0.250656	-0.418713
Zn2	Zn	0.962235	-0.355936	-0.294863
Zn3	Zn	0.857056	-0.250677	-0.294886
Zn4	Zn	0.857016	-0.355884	-0.418663
O5	O	0.909657	-0.303288	-0.356781
O6	O	1.050401	-0.264635	-0.402296
O7	O	0.948263	-0.342004	-0.191233
O8	O	0.871073	-0.162585	-0.311343
O9	O	1.050336	-0.341984	-0.311303
O10	O	0.948413	-0.162569	-0.402318
O11	O	0.870988	-0.264671	-0.191250
O12	O	0.768961	-0.264620	-0.311294
O13	O	0.871005	-0.341894	-0.522302
O14	O	0.768932	-0.341914	-0.402232
O15	O	0.948374	-0.264584	-0.522339
O16	O	0.948224	-0.444019	-0.311254
O17	O	0.870920	-0.443980	-0.402210
C18	C	0.746106	-0.303264	-0.356760
C19	C	0.676138	-0.303269	-0.356769
C20	C	0.176713	-0.263108	-0.404249
C21	C	0.242455	-0.263103	-0.404249
C22	C	0.275298	-0.303307	-0.356798
C23	C	0.242393	-0.343531	-0.309358
C24	C	0.176652	-0.343539	-0.309364
N25	N	0.378493	-0.308058	-0.291953
N26	N	0.440945	-0.308047	-0.291948
C27	C	0.473373	-0.303287	-0.356777
N28	N	0.440991	-0.298526	-0.421610
N29	N	0.378534	-0.298534	-0.421614
C30	C	0.346584	-0.303303	-0.356786
C31	C	0.577556	-0.263064	-0.404218
C32	C	0.643299	-0.263063	-0.404219
C33	C	0.643236	-0.343488	-0.309321
C34	C	0.577494	-0.343492	-0.309327
C35	C	0.544657	-0.303276	-0.356774
C36	C	0.909575	-0.466840	-0.356740
C37	C	0.909597	-0.536808	-0.356747
C38	C	0.949885	-0.569674	-0.309435
C39	C	0.949915	-0.635416	-0.309452
C40	C	0.909645	-0.668290	-0.356773
C41	C	0.869354	-0.635417	-0.404094
C42	C	0.869330	-0.569675	-0.404081
N43	N	0.854578	-0.771552	-0.362411
N44	N	0.854602	-0.834003	-0.362419
C45	C	0.909716	-0.866365	-0.356815
N46	N	0.964805	-0.833916	-0.351189
N47	N	0.964780	-0.771459	-0.351177
C48	C	0.909667	-0.739576	-0.356792
C49	C	0.950039	-0.970517	-0.309519
C50	C	0.950070	-1.036260	-0.309541
C51	C	0.869503	-1.036259	-0.404179
C52	C	0.869478	-0.970517	-0.404161
C53	C	0.909745	-0.937649	-0.356827
C54	C	1.073848	-0.303313	-0.356803
C55	C	1.143816	-0.303323	-0.356812
C56	C	0.909695	-0.303231	-0.549943
C57	C	0.909711	-0.303206	-0.632257
C58	C	0.909757	-0.139098	-0.356838
C59	C	0.909800	-0.069130	-0.356863
C60	C	0.909745	-0.303167	-0.931348
C61	C	0.958583	-0.254697	-0.900046
C62	C	0.958431	-0.254517	-0.814428
C63	C	0.909728	-0.303186	-0.782966
C64	C	0.843413	-0.285159	-0.814041
C65	C	0.843705	-0.284795	-0.899686
C66	C	0.926638	-0.369790	-0.899755
C67	C	0.928093	-0.369450	-0.814105
C68	C	0.909715	-0.303199	-0.699106
C69	C	0.909754	-0.303153	-1.015208
C70	C	0.909656	-0.303300	-0.164371
C71	C	0.909762	-0.303147	-0.082057
H72	H	0.269245	-0.230352	-0.442877
H73	H	0.806079	-0.318563	-0.920391
F74	F	0.141770	-0.220310	-0.454751
F75	F	1.023070	-0.269268	-0.926976
H76	H	0.149868	-0.376289	-0.270734
H77	H	0.947249	-0.205161	-0.793960
H78	H	0.550819	-0.230318	-0.442852
F79	F	0.678311	-0.220262	-0.454716
H80	H	0.982675	-0.542915	-0.270895
F81	F	1.022707	-0.269266	-0.786965
H82	H	0.982881	-1.063018	-0.271015
H83	H	0.829385	-0.236094	-0.919681
F84	F	0.542481	-0.386288	-0.258827
F85	F	0.826595	-0.935537	-0.454514
H86	H	0.806037	-0.319375	-0.793659
H87	H	0.828832	-0.236999	-0.792607
H88	H	0.669976	-0.376228	-0.270692
F89	F	0.944156	-0.190545	-0.928203
F90	F	0.988760	-0.391222	-0.927993
H91	H	0.891069	-0.405906	-0.920002
F92	F	0.991883	-0.387218	-0.787563
F93	F	0.884976	-0.419192	-0.786113
F94	F	0.826499	-0.670404	-0.454459
H95	H	0.836522	-0.542915	-0.442609
H96	H	0.982724	-0.662181	-0.270925
F97	F	0.992894	-0.935534	-0.259142
F98	F	0.277348	-0.386321	-0.258860
H99	H	0.836718	-1.063025	-0.442712
