data_functionalizedCrystal
_audit_creation_method	'MofGen! by Chris Wilmer'
_symmetry_space_group_name_H-M	'P1'
_symmetry_Int_Tables_number	1
_symmetry_cell_setting	triclinic
loop_
_symmetry_equiv_pos_as_xyz
  x,y,z
_cell_length_a	23.532407
_cell_length_b	17.699104
_cell_length_c	16.776229
_cell_angle_alpha	90.004353
_cell_angle_beta	90.003071
_cell_angle_gamma	83.070132
loop_
_atom_site_label
_atom_site_type_symbol
_atom_site_fract_x
_atom_site_fract_y
_atom_site_fract_z
O1	O	0.755530	0.091875	0.066240
O2	O	0.589705	0.105169	0.066252
O3	O	0.677296	-0.011690	0.066239
O4	O	0.667939	0.208734	0.066254
O5	O	0.677286	-0.011690	-0.066338
O6	O	0.589695	0.105169	-0.066324
O7	O	0.755520	0.091875	-0.066337
Zn8	Zn	0.672606	0.098522	-0.087380
Zn9	Zn	0.672619	0.098522	0.087295
O10	O	0.667929	0.208734	-0.066323
C11	C	0.568483	0.104830	-0.000034
C12	C	0.505263	0.103813	-0.000030
C13	C	0.238881	0.030461	-0.000056
C14	C	0.298284	0.031406	-0.000056
O15	O	0.334858	-0.026783	-0.000088
N16	N	0.321114	0.100879	-0.000046
C17	C	0.284537	0.169410	-0.000044
O18	O	0.309410	0.228589	-0.000036
C19	C	0.225135	0.168464	-0.000050
C20	C	0.202309	0.098987	-0.000052
C21	C	0.216054	-0.039011	-0.000059
C22	C	0.156655	-0.039956	-0.000058
C23	C	0.120083	0.028571	-0.000054
C24	C	0.142910	0.098042	-0.000051
C25	C	0.188559	0.236995	-0.000054
C26	C	0.129154	0.236042	-0.000061
C27	C	0.106328	0.166565	-0.000063
C28	C	0.046939	0.165623	-0.000045
N29	N	0.024109	0.096150	-0.000056
C30	C	0.060681	0.027624	-0.000060
C31	C	0.409285	0.171392	-0.000033
C32	C	0.468686	0.172339	-0.000021
C33	C	0.482429	0.034335	-0.000035
C34	C	0.423027	0.033389	-0.000041
C35	C	0.386456	0.101920	-0.000043
C36	C	-0.064061	0.025645	-0.000057
C37	C	-0.123466	0.024706	-0.000052
C38	C	-0.137204	0.162709	-0.000043
C39	C	-0.077804	0.163649	-0.000043
C40	C	-0.041234	0.095110	-0.000053
O41	O	0.010330	0.223781	-0.000017
O42	O	0.035800	-0.031545	-0.000078
C43	C	0.676954	-0.039885	-0.000050
C44	C	0.675942	-0.123897	-0.000050
C45	C	0.721649	-0.649000	-0.000031
C46	C	0.722597	-0.570061	-0.000038
C47	C	0.671177	-0.521182	-0.000036
C48	C	0.618807	-0.551246	-0.000035
C49	C	0.617860	-0.630184	-0.000033
C50	C	0.622625	-0.232900	-0.000042
C51	C	0.623575	-0.153957	-0.000041
C52	C	0.727361	-0.172776	-0.000047
C53	C	0.726414	-0.251714	-0.000045
C54	C	0.674044	-0.281771	-0.000048
C55	C	0.673018	-0.367366	-0.000042
C56	C	0.672203	-0.435589	-0.000036
C57	C	0.776742	0.092214	-0.000048
C58	C	0.839962	0.093232	-0.000048
C59	C	0.668271	0.236929	-0.000033
C60	C	0.669283	0.320941	-0.000027
N61	N	0.672601	0.098521	-0.206591
C62	C	0.707078	0.144195	-0.248304
C63	C	0.707084	0.144192	-0.331756
C64	C	0.672611	0.098519	-0.373494
C65	C	0.638133	0.052840	-0.331775
C66	C	0.638130	0.052840	-0.248324
C67	C	0.638144	0.052841	-0.668322
C68	C	0.638149	0.052847	-0.751779
C69	C	0.707098	0.144193	-0.751754
C70	C	0.707096	0.144193	-0.668304
C71	C	0.672620	0.098511	-0.626592
C72	C	0.672615	0.098514	-0.536104
C73	C	0.672613	0.098520	-0.463981
N74	N	0.672628	0.098517	0.206507
H75	H	0.207134	0.293570	-0.000049
C76	C	0.569984	-0.037443	-0.676740
C77	C	0.600244	0.002637	-0.622480
H78	H	0.546582	-0.068434	-0.648435
H79	H	0.596235	-0.068632	-0.709287
H80	H	0.546605	-0.002443	-0.709290
H81	H	0.623626	-0.032364	-0.589934
H82	H	0.573989	0.033828	-0.589920
H83	H	0.610056	0.015648	-0.214362
H84	H	0.735171	0.181387	-0.785726
C85	C	-0.103905	-0.111614	-0.000069
C86	C	-0.148555	-0.051669	-0.000060
H87	H	-0.119394	-0.158762	-0.000080
H88	H	-0.081022	-0.108375	0.046160
H89	H	-0.081024	-0.108365	-0.046305
H90	H	-0.171434	-0.054915	0.046179
H91	H	-0.171448	-0.054909	-0.046294
C92	C	0.010703	-0.053381	-0.068213
C93	C	-0.023870	-0.049694	-0.000061
H94	H	0.035512	-0.099894	-0.068213
H95	H	0.032805	-0.011883	-0.068207
H96	H	-0.012763	-0.050878	-0.114441
H97	H	-0.000404	-0.052191	0.046167
H98	H	-0.045974	-0.091204	-0.000061
H99	H	0.735147	0.181391	-0.214327
C100	C	0.575083	-0.345541	-0.000035
C101	C	0.565061	-0.265933	-0.000032
H102	H	0.539543	-0.365934	-0.000031
H103	H	0.596251	-0.362336	0.046191
H104	H	0.596243	-0.362340	-0.046274
H105	H	0.543904	-0.249133	0.046211
H106	H	0.543883	-0.249131	-0.046262
C107	C	0.520884	-0.143278	-0.000054
C108	C	0.567051	-0.100228	-0.000046
H109	H	0.485991	-0.110107	-0.000061
H110	H	0.522670	-0.174453	0.046175
H111	H	0.522676	-0.174463	-0.046290
H112	H	0.565261	-0.069047	0.046193
H113	H	0.565264	-0.069040	-0.046280
C114	C	-0.234369	0.222521	-0.000054
C115	C	-0.177412	0.238031	-0.000045
H116	H	-0.259191	0.269022	-0.000065
H117	H	-0.241275	0.194025	0.046177
H118	H	-0.241269	0.194005	-0.046288
H119	H	-0.170510	0.266542	0.046192
H120	H	-0.170502	0.266539	-0.046281
C121	C	0.031993	0.295882	-0.000065
C122	C	0.088955	0.311375	-0.000062
H123	H	0.007178	0.342390	-0.000069
H124	H	0.025085	0.267385	0.046164
H125	H	0.025085	0.267374	-0.046301
H126	H	0.095864	0.339879	0.046178
H127	H	0.095866	0.339885	-0.046295
H128	H	0.770003	-0.148295	-0.000034
C129	C	0.783672	0.148406	-0.574435
C130	C	0.744987	0.194398	-0.622422
H131	H	0.807062	0.179402	-0.546106
H132	H	0.807057	0.113427	-0.606989
H133	H	0.763130	0.121206	-0.537654
H134	H	0.765529	0.221593	-0.659207
H135	H	0.721599	0.229390	-0.589864
H136	H	0.610067	0.015649	-0.365764
H137	H	-0.059218	0.220223	-0.000041
H138	H	0.765238	-0.545591	-0.000042
H139	H	0.138076	-0.096531	-0.000063
H140	H	0.610075	0.015652	-0.785759
H141	H	0.245826	-0.094816	-0.000065
H142	H	0.512217	-0.021463	-0.000038
C143	C	0.364205	-0.047746	0.068101
C144	C	0.397940	-0.042982	-0.000047
H145	H	0.348724	-0.094899	0.068097
H146	H	0.333921	-0.007080	0.068094
H147	H	0.387097	-0.044504	0.114331
H148	H	0.375048	-0.046219	-0.046278
H149	H	0.428229	-0.083660	-0.000047
C150	C	0.449120	0.308653	-0.000009
C151	C	0.493772	0.248710	-0.000012
H152	H	0.464607	0.355802	-0.000012
H153	H	0.426242	0.305410	0.046221
H154	H	0.426235	0.305404	-0.046245
H155	H	0.516655	0.251956	0.046227
H156	H	0.516660	0.251954	-0.046247
C157	C	0.334513	0.250397	0.068130
C158	C	0.369086	0.246728	-0.000020
H159	H	0.309696	0.296904	0.068134
H160	H	0.357973	0.247892	0.114354
H161	H	0.312413	0.208888	0.068113
H162	H	0.391189	0.288234	-0.000000
H163	H	0.345623	0.249240	-0.046256
H164	H	0.768285	-0.291508	-0.000043
H165	H	0.735159	0.181382	-0.365716
H166	H	0.576941	-0.511443	-0.000038
C167	C	0.824335	-0.659665	-0.000043
C168	C	0.778172	-0.702723	-0.000034
H169	H	0.859230	-0.692832	-0.000052
H170	H	0.822549	-0.628484	0.046186
H171	H	0.822536	-0.628486	-0.046279
H172	H	0.779968	-0.733898	0.046205
H173	H	0.779958	-0.733918	-0.046268
C174	C	0.529112	-0.638454	0.068133
C175	C	0.560299	-0.663231	-0.000023
H176	H	0.493577	-0.658860	0.068138
H177	H	0.522316	-0.584454	0.068127
H178	H	0.550289	-0.655257	0.114358
H179	H	0.539124	-0.646423	-0.046248
H180	H	0.567093	-0.717242	-0.000025
