data_functionalizedCrystal
_audit_creation_method	'MofGen! by Chris Wilmer'
_symmetry_space_group_name_H-M	'P1'
_symmetry_Int_Tables_number	1
_symmetry_cell_setting	triclinic
loop_
_symmetry_equiv_pos_as_xyz
  x,y,z
_cell_length_a	10.654549
_cell_length_b	10.654548
_cell_length_c	9.130313
_cell_angle_alpha	90.001198
_cell_angle_beta	89.997287
_cell_angle_gamma	84.484575
loop_
_atom_site_label
_atom_site_type_symbol
_atom_site_fract_x
_atom_site_fract_y
_atom_site_fract_z
O1	O	-1.667840	-0.176394	0.121751
O2	O	-1.302361	-0.193200	0.121760
O3	O	-1.493504	-0.002058	0.121761
O4	O	-1.476696	-0.367536	0.121750
O5	O	-1.493490	-0.002058	-0.121838
O6	O	-1.302346	-0.193200	-0.121839
O7	O	-1.667825	-0.176394	-0.121848
Cu8	Cu	-1.485084	-0.184797	-0.144086
Cu9	Cu	-1.485102	-0.184797	0.143998
O10	O	-1.476682	-0.367537	-0.121849
C11	C	-1.255556	-0.191967	-0.000038
C12	C	-1.116112	-0.188275	-0.000034
C13	C	-1.492263	0.044740	-0.000034
C14	C	-1.488572	0.184184	-0.000020
C15	C	-1.714630	-0.177628	-0.000047
C16	C	-1.854073	-0.181320	-0.000041
N17	N	-1.485081	-0.184796	-0.346709
C18	C	-0.905597	-0.297338	-0.000044
C19	C	-1.036618	-0.300817	-0.000035
C20	C	-1.064581	-0.072247	-0.000028
C21	C	-0.933562	-0.068770	-0.000026
C22	C	-1.483364	0.380724	0.132760
C23	C	-1.486845	0.249704	0.132765
C24	C	-1.486830	0.249692	-0.132820
C25	C	-1.483358	0.380711	-0.132824
C26	C	-1.477924	0.585666	-0.000045
C27	C	-1.481619	0.446223	-0.000030
C28	C	-1.561912	-0.261678	-0.423360
C29	C	-1.561933	-0.261671	-0.576697
C30	C	-1.408280	-0.107897	-0.576718
C31	C	-1.408268	-0.107899	-0.423384
N32	N	-1.485114	-0.184788	0.346620
H33	H	-1.078561	-0.395290	-0.000036
H34	H	-1.624459	-0.324294	-0.360935
C35	C	-1.324709	-0.024381	-0.340416
C36	C	-1.257409	0.042931	-0.440380
C37	C	-1.180419	0.119867	-0.364003
H38	H	-1.375538	0.033044	-0.280586
H39	H	-1.267286	-0.075286	-0.280641
H40	H	-1.314825	0.093833	-0.500129
H41	H	-1.206556	-0.014461	-0.500213
H42	H	-1.122996	0.068961	-0.304228
H43	H	-1.231257	0.177283	-0.304176
H44	H	-1.134738	0.165538	-0.431816
C45	C	-0.877856	0.057327	-0.000098
C46	C	-0.975508	0.155149	-0.000136
C47	C	-0.924238	0.271320	-0.000216
H48	H	-0.827349	0.063610	0.084829
H49	H	-0.827356	0.063500	-0.085079
H50	H	-1.025986	0.148980	0.084836
H51	H	-1.026022	0.148908	-0.085057
H52	H	-0.873738	0.277493	-0.085196
H53	H	-0.873731	0.277590	0.084713
H54	H	-0.990486	0.337706	-0.000255
H55	H	-0.840880	-0.388984	-0.000055
C56	C	-1.481404	0.451600	-0.277158
C57	C	-1.483627	0.366182	-0.393452
C58	C	-1.481816	0.431438	-0.526425
H59	H	-1.553139	0.511653	-0.282885
H60	H	-1.406913	0.493740	-0.282754
H61	H	-1.558110	0.324063	-0.387859
H62	H	-1.411897	0.306127	-0.387773
H63	H	-1.407325	0.473578	-0.532022
H64	H	-1.553553	0.491489	-0.532138
H65	H	-1.483312	0.373491	-0.605347
H66	H	-1.129316	0.019386	-0.000018
C67	C	-1.645556	-0.345066	-0.659728
C68	C	-1.771800	-0.311627	-0.622369
C69	C	-1.848874	-0.388435	-0.698812
H70	H	-1.634738	-0.334126	-0.762053
H71	H	-1.623030	-0.430799	-0.634574
H72	H	-1.794319	-0.225914	-0.647533
H73	H	-1.782657	-0.322572	-0.520057
H74	H	-1.826348	-0.474168	-0.673658
H75	H	-1.838045	-0.377489	-0.801133
H76	H	-1.934538	-0.365765	-0.673465
C77	C	-1.488917	0.178507	0.276868
C78	C	-1.598754	0.116461	0.284699
C79	C	-1.600681	0.050855	0.417426
H80	H	-1.417228	0.118385	0.282443
H81	H	-1.487430	0.236226	0.356023
H82	H	-1.600230	0.058747	0.205565
H83	H	-1.670461	0.176554	0.279149
H84	H	-1.599193	0.108573	0.496582
H85	H	-1.528987	-0.009261	0.422990
H86	H	-1.675209	0.008758	0.422763
H87	H	-1.481946	0.434060	0.240889
H88	H	-1.488244	0.196336	-0.240936
H89	H	-1.345740	-0.045291	-0.639166
