data_functionalizedCrystal
_audit_creation_method	'MofGen! by Chris Wilmer'
_symmetry_space_group_name_H-M	'P1'
_symmetry_Int_Tables_number	1
_symmetry_cell_setting	triclinic
loop_
_symmetry_equiv_pos_as_xyz
  x,y,z
_cell_length_a	15.944545
_cell_length_b	14.421503
_cell_length_c	15.944551
_cell_angle_alpha	90.000609
_cell_angle_beta	96.502545
_cell_angle_gamma	89.990135
loop_
_atom_site_label
_atom_site_type_symbol
_atom_site_fract_x
_atom_site_fract_y
_atom_site_fract_z
O1	O	1.114514	0.077054	-0.108301
O2	O	1.447847	0.410387	0.225033
O3	O	1.781181	0.743720	0.558366
O4	O	0.869964	0.077069	-0.121663
O5	O	1.203297	0.410402	0.211671
O6	O	1.536630	0.743736	0.545004
O7	O	0.998917	0.077053	0.007293
O8	O	1.332250	0.410386	0.340627
O9	O	1.665584	0.743719	0.673960
O10	O	0.985561	0.077070	-0.237257
O11	O	1.318894	0.410403	0.096077
O12	O	1.652227	0.743737	0.429410
O13	O	0.998933	-0.077171	0.007285
O14	O	1.332266	0.256162	0.340618
O15	O	1.665599	0.589496	0.673952
O16	O	0.869979	-0.077154	-0.121671
O17	O	1.203313	0.256179	0.211662
O18	O	1.536646	0.589512	0.544996
O19	O	1.114530	-0.077170	-0.108309
O20	O	1.447863	0.256164	0.225024
O21	O	1.781196	0.589497	0.558358
Cu22	Cu	0.992256	-0.091244	-0.114991
Cu23	Cu	1.325589	0.242089	0.218343
Cu24	Cu	1.658923	0.575423	0.551676
Cu25	Cu	0.992237	0.091143	-0.114981
Cu26	Cu	1.325571	0.424476	0.218352
Cu27	Cu	1.658904	0.757810	0.551686
O28	O	0.985576	-0.077153	-0.237265
O29	O	1.318910	0.256180	0.096068
O30	O	1.652243	0.589513	0.429402
C31	C	0.838677	-0.000041	-0.121113
C32	C	1.172011	0.333292	0.212220
C33	C	1.505344	0.666626	0.545554
C34	C	0.745431	-0.000035	-0.119453
C35	C	1.078764	0.333298	0.213881
C36	C	1.412098	0.666631	0.547214
C37	C	0.474798	-0.000051	-0.034559
C38	C	0.808132	0.333282	0.298774
C39	C	1.141465	0.666615	0.632108
C40	C	0.525388	-0.076091	-0.075492
C41	C	0.858721	0.257243	0.257841
C42	C	1.192054	0.590576	0.591175
C43	C	0.409787	-0.000052	-0.113532
C44	C	0.743121	0.333282	0.219801
C45	C	1.076454	0.666615	0.553135
C46	C	0.525353	0.075961	-0.075505
C47	C	0.858686	0.409295	0.257828
C48	C	1.192020	0.742628	0.591162
C49	C	0.574701	-0.000042	-0.116437
C50	C	0.908034	0.333291	0.216897
C51	C	1.241368	0.666625	0.550230
C52	C	0.459148	-0.076154	-0.154444
C53	C	0.792482	0.257179	0.178889
C54	C	1.125815	0.590513	0.512223
C55	C	0.459110	0.075967	-0.154445
C56	C	0.792443	0.409300	0.178888
C57	C	1.125777	0.742633	0.512221
C58	C	0.509667	-0.000092	-0.195436
C59	C	0.843000	0.333242	0.137897
C60	C	1.176333	0.666575	0.471230
C61	C	0.314785	-0.000058	-0.111856
C62	C	0.648119	0.333275	0.221477
C63	C	0.981452	0.666609	0.554810
C64	C	0.669700	-0.000042	-0.118119
C65	C	1.003034	0.333291	0.215215
C66	C	1.336367	0.666624	0.548548
N67	N	0.992275	-0.219525	-0.114997
N68	N	1.325608	0.113808	0.218336
N69	N	1.658942	0.447141	0.551670
C70	C	1.051916	-0.469162	-0.055355
C71	C	1.385249	-0.135828	0.277978
C72	C	1.718583	0.197505	0.611312
C73	C	0.976016	-0.530955	-0.039039
C74	C	1.309350	-0.197622	0.294294
C75	C	1.642683	0.135712	0.627627
C76	C	0.992256	-0.408687	-0.114987
C77	C	1.325590	-0.075353	0.218346
C78	C	1.658923	0.257980	0.551680
C79	C	1.068138	-0.530987	-0.131253
C80	C	1.401472	-0.197654	0.202080
C81	C	1.734805	0.135680	0.535413
C82	C	0.992245	-0.591408	-0.114975
C83	C	1.325578	-0.258075	0.218358
C84	C	1.658912	0.075259	0.551691
C85	C	0.916318	-0.469119	-0.098634
C86	C	1.249652	-0.135786	0.234699
C87	C	1.582985	0.197547	0.568033
C88	C	1.008490	-0.469146	-0.190881
C89	C	1.341824	-0.135812	0.142452
C90	C	1.675157	0.197521	0.475786
C91	C	0.932536	-0.530911	-0.174598
C92	C	1.265869	-0.197578	0.158736
C93	C	1.599202	0.135755	0.492069
C94	C	0.992264	-0.303426	-0.114992
C95	C	1.325597	0.029908	0.218342
C96	C	1.658931	0.363241	0.551675
C97	C	0.992229	-0.696667	-0.114971
C98	C	1.325562	-0.363334	0.218362
C99	C	1.658895	-0.030000	0.551695
C100	C	1.145816	-0.000058	-0.108859
C101	C	1.479149	0.333275	0.224475
C102	C	1.812483	0.666609	0.557808
C103	C	1.239062	-0.000057	-0.110519
C104	C	1.572396	0.333276	0.222814
C105	C	1.905729	0.666609	0.556148
C106	C	0.998370	-0.000059	0.038583
C107	C	1.331704	0.333274	0.371916
C108	C	1.665037	0.666607	0.705250
C109	C	0.996708	-0.000060	0.131829
C110	C	1.330041	0.333274	0.465162
C111	C	1.663375	0.666607	0.798496
N112	N	0.992225	0.219424	-0.114968
N113	N	1.325558	0.552758	0.218366
N114	N	1.658892	0.886091	0.551699
C115	C	0.986123	-0.000039	-0.268555
C116	C	1.319456	0.333294	0.064779
C117	C	1.652790	0.666627	0.398112
C118	C	0.987785	-0.000033	-0.361801
C119	C	1.321119	0.333300	-0.028467
C120	C	1.654452	0.666634	0.304866
C121	C	0.912803	-0.000042	0.346684
C122	C	1.246137	0.333292	0.680017
C123	C	1.579470	0.666625	1.013351
C124	C	0.951774	-0.076086	0.407698
C125	C	1.285107	0.257248	0.741031
C126	C	1.618440	0.590581	1.074365
C127	C	0.993701	-0.000052	0.302555
C128	C	1.327034	0.333281	0.635888
C129	C	1.660367	0.666614	0.969222
C130	C	0.951777	0.075967	0.407690
C131	C	1.285111	0.409300	0.741023
C132	C	1.618444	0.742633	1.074356
C133	C	0.990790	-0.000041	0.467468
C134	C	1.324123	0.333292	0.800801
C135	C	1.657457	0.666625	1.134134
C136	C	1.032693	-0.076159	0.362341
C137	C	1.366027	0.257174	0.695674
C138	C	1.699360	0.590508	1.029007
C139	C	1.032686	0.075961	0.362326
C140	C	1.366019	0.409295	0.695659
C141	C	1.699352	0.742628	1.028993
C142	C	1.071715	-0.000101	0.423322
C143	C	1.405048	0.333232	0.756656
C144	C	1.738381	0.666566	1.089989
C145	C	0.995375	-0.000060	0.207553
C146	C	1.328709	0.333274	0.540886
C147	C	1.662042	0.666607	0.874219
C148	C	0.989122	-0.000041	0.562469
C149	C	1.322455	0.333293	0.895802
C150	C	1.655788	0.666626	1.229135
H151	H	0.554325	-0.140381	-0.042143
H152	H	0.887658	0.192952	0.291190
H153	H	1.220992	0.526286	0.624524
H154	H	1.102315	-0.442048	-0.004898
H155	H	1.435648	-0.108714	0.328436
H156	H	1.768982	0.224619	0.661769
O157	O	0.421010	-0.161414	-0.198578
O158	O	0.754343	0.171919	0.134755
O159	O	1.087677	0.505253	0.468088
H160	H	0.351600	-0.160770	-0.196969
H161	H	0.684934	0.172563	0.136364
H162	H	1.018267	0.505896	0.469697
H163	H	1.138922	-0.000148	0.456483
H164	H	1.472255	0.333185	0.789816
H165	H	1.805589	0.666518	1.123149
H166	H	0.525159	-0.000131	-0.263501
H167	H	0.858492	0.333202	0.069832
H168	H	1.191825	0.666536	0.403165
O169	O	1.153147	-0.566981	-0.149490
O170	O	1.486480	-0.233648	0.183844
O171	O	1.819813	0.099686	0.517177
H172	H	1.145301	-0.609321	-0.207985
H173	H	1.478634	-0.275988	0.125348
H174	H	1.811968	0.057345	0.458682
H175	H	0.962274	-0.558106	0.025147
H176	H	1.295608	-0.224772	0.358480
H177	H	1.628941	0.108561	0.691814
O178	O	1.026723	-0.433152	-0.275877
O179	O	1.360056	-0.099819	0.057456
O180	O	1.693390	0.233515	0.390789
H181	H	0.972582	-0.390817	-0.304072
H182	H	1.305915	-0.057484	0.029261
H183	H	1.639249	0.275850	0.362595
H184	H	0.917564	-0.140370	0.427802
H185	H	1.250897	0.192963	0.761135
H186	H	1.584230	0.526296	1.094469
H187	H	0.554264	0.140243	-0.042136
H188	H	0.887597	0.473576	0.291198
H189	H	1.220930	0.806910	0.624531
H190	H	1.066866	0.140250	0.342200
H191	H	1.400199	0.473583	0.675533
H192	H	1.733533	0.806916	1.008867
O193	O	0.831295	-0.433287	-0.080276
O194	O	1.164628	-0.099954	0.253058
O195	O	1.497962	0.233380	0.586391
H196	H	0.831981	-0.356327	-0.080383
H197	H	1.165314	-0.022993	0.252950
H198	H	1.498648	0.310340	0.586284
O199	O	0.420742	0.161129	-0.198571
O200	O	0.754076	0.494462	0.134763
O201	O	1.087409	0.827796	0.468096
H202	H	0.471453	0.203930	-0.221254
H203	H	0.804786	0.537263	0.112080
H204	H	1.138119	0.870596	0.445413
O205	O	0.454048	-0.000150	0.055525
O206	O	0.787381	0.333184	0.388858
O207	O	1.120715	0.666517	0.722191
H208	H	0.480719	-0.063372	0.088114
H209	H	0.814052	0.269962	0.421448
H210	H	1.147385	0.603295	0.754781
O211	O	0.865634	-0.566626	-0.241387
O212	O	1.198967	-0.233293	0.091946
O213	O	1.532300	0.100041	0.425279
H214	H	0.802742	-0.541718	-0.227673
H215	H	1.136075	-0.208385	0.105661
H216	H	1.469408	0.124949	0.438994
O217	O	0.823864	-0.000130	0.302549
O218	O	1.157197	0.333204	0.635883
O219	O	1.490530	0.666537	0.969216
H220	H	0.790490	-0.063348	0.320594
H221	H	1.123823	0.269986	0.653927
H222	H	1.457157	0.603319	0.987260
O223	O	1.077984	-0.161418	0.335869
O224	O	1.411317	0.171916	0.669203
O225	O	1.744651	0.505249	1.002536
H226	H	1.078828	-0.160772	0.266360
H227	H	1.412162	0.172561	0.599693
H228	H	1.745495	0.505895	0.933026
O229	O	0.906437	0.161127	0.434303
O230	O	1.239770	0.494460	0.767636
O231	O	1.573104	0.827794	1.100969
H232	H	0.840500	0.160964	0.403299
H233	H	1.173833	0.494298	0.736632
H234	H	1.507167	0.827631	1.069965
