data_functionalizedCrystal
_audit_creation_method	'MofGen! by Chris Wilmer'
_symmetry_space_group_name_H-M	'P1'
_symmetry_Int_Tables_number	1
_symmetry_cell_setting	triclinic
loop_
_symmetry_equiv_pos_as_xyz
  x,y,z
_cell_length_a	17.052832
_cell_length_b	21.606444
_cell_length_c	21.606444
_cell_angle_alpha	59.998659
_cell_angle_beta	102.317002
_cell_angle_gamma	67.553517
loop_
_atom_site_label
_atom_site_type_symbol
_atom_site_fract_x
_atom_site_fract_y
_atom_site_fract_z
Zr1	Zr	0.773279	0.677437	0.048952
O2	O	0.645114	0.806561	-0.071451
O3	O	0.812564	0.548318	0.085862
O4	O	0.812562	0.677441	-0.043261
O5	O	0.645122	0.677433	0.159528
O6	O	0.944652	0.677439	-0.021024
O7	O	0.645116	0.677438	0.057672
O8	O	0.944656	0.446462	0.209954
O9	O	0.645118	0.908411	-0.071451
O10	O	0.927902	0.601424	0.118199
O11	O	0.829329	0.601422	0.177618
O12	O	0.829326	0.753448	0.025591
O13	O	0.730753	0.753446	0.085009
Zr14	Zr	0.983959	0.677428	0.246865
Zr15	Zr	0.983948	0.677435	0.084418
Zr16	Zr	0.773289	0.677430	0.211400
Zr17	Zr	0.773287	0.839877	0.048953
Zr18	Zr	0.983951	0.514988	0.246865
O19	O	0.944674	0.806547	0.209955
O20	O	0.944659	0.806557	-0.021024
O21	O	0.645129	0.806551	0.159528
O22	O	1.112124	0.548304	0.367269
O23	O	1.112109	0.548314	0.136290
O24	O	0.812579	0.548308	0.316841
O25	O	1.112115	0.677432	0.136290
O26	O	0.944676	0.677424	0.339079
O27	O	0.812585	0.677426	0.316842
O28	O	1.112122	0.677427	0.238145
O29	O	0.812573	0.908409	-0.043261
O30	O	0.944665	0.446456	0.339078
O31	O	1.112119	0.446454	0.367269
O32	O	1.112111	0.446459	0.238145
O33	O	0.645127	0.908406	0.057673
O34	O	0.812581	0.908404	0.085863
O35	O	0.927912	0.601417	0.270226
O36	O	1.026485	0.601419	0.210808
O37	O	0.927909	0.753443	0.118200
O38	O	0.829336	0.753441	0.177618
C39	C	0.878609	0.474246	0.147908
C40	C	0.878606	0.405286	0.147908
C41	C	0.930087	-0.018022	0.116896
C42	C	0.930080	0.046779	0.116891
C43	C	0.878623	0.079175	0.147907
C44	C	0.827161	0.046773	0.178921
C45	C	0.827163	-0.018022	0.178919
C46	C	0.827151	0.308084	0.178926
C47	C	0.827155	0.372881	0.178928
C48	C	0.930068	0.372884	0.116898
C49	C	0.930070	0.308089	0.116897
C50	C	0.878605	0.275697	0.147907
C51	C	0.878611	0.205434	0.147910
C52	C	0.878621	0.149432	0.147910
C53	C	0.615103	0.677436	0.103547
C54	C	0.525668	0.677437	0.088491
C55	C	0.273590	0.677423	0.270518
C56	C	0.357622	0.677416	0.284668
C57	C	0.399637	0.677422	0.235625
C58	C	0.357613	0.677433	0.172429
C59	C	0.273577	0.677433	0.158281
C60	C	0.399625	0.677432	0.123389
C61	C	0.357600	0.677444	0.060193
C62	C	0.273572	0.677444	0.046047
C63	C	0.231557	0.677438	0.095090
C64	C	0.483661	0.677432	0.137536
C65	C	0.483648	0.677443	0.025300
C66	C	0.399616	0.677449	0.011149
C67	C	1.142135	0.677429	0.192271
C68	C	1.231569	0.677428	0.207327
C69	C	0.878606	0.677441	-0.055288
C70	C	0.878601	0.677444	-0.124251
C71	C	0.878629	0.880620	0.147909
C72	C	0.878632	0.949579	0.147910
C73	C	0.827145	0.756799	-0.204991
C74	C	0.827154	0.756796	-0.269784
C75	C	0.878613	0.677439	-0.253837
C76	C	0.930075	0.598078	-0.173089
C77	C	0.930072	0.598081	-0.108297
C78	C	0.930091	0.598063	-0.434390
C79	C	0.930088	0.598066	-0.499191
C80	C	0.827172	0.756778	-0.595877
C81	C	0.827169	0.756781	-0.531084
C82	C	0.878635	0.677421	-0.450342
C83	C	0.878627	0.677425	-0.380086
C84	C	0.878616	0.677434	-0.324093
C85	C	0.878632	0.677424	0.351106
C86	C	0.878637	0.677421	0.420069
C87	C	1.142125	0.474242	0.192270
C88	C	1.231556	0.405281	0.207326
C89	C	0.878622	0.474237	0.351105
C90	C	0.878624	0.405274	0.420068
C91	C	1.142138	0.474233	0.395467
C92	C	1.231574	0.405270	0.479486
C93	C	0.615100	0.880632	-0.099649
C94	C	0.525664	0.949596	-0.183668
C95	C	0.615113	0.880623	0.103547
C96	C	0.525682	0.949584	0.088492
C97	C	0.878615	0.880628	-0.055288
C98	C	0.878614	0.949591	-0.124250
C99	C	1.222095	0.372899	0.166049
C100	C	1.306117	0.308112	0.180179
C101	C	1.399600	0.275704	0.235591
C102	C	1.409059	0.308093	0.276869
C103	C	1.325038	0.372883	0.262734
C104	C	0.930083	0.372886	0.500801
C105	C	0.930081	0.308097	0.565605
C106	C	0.878623	0.275693	0.549674
C107	C	0.827157	0.308088	0.468932
C108	C	0.827155	0.372880	0.404130
C109	C	1.325037	0.372884	0.487928
C110	C	1.409080	0.308095	0.566868
C111	C	1.399657	0.275687	0.637365
C112	C	1.306184	0.308078	0.628920
C113	C	1.222144	0.372871	0.549981
C114	C	0.432201	0.981989	-0.192110
C115	C	0.348158	1.046799	-0.271050
C116	C	0.357580	1.079210	-0.341547
C117	C	0.451053	1.046814	-0.333102
C118	C	0.535094	0.982010	-0.254163
C119	C	0.535143	0.981973	0.129762
C120	C	0.451121	1.046778	0.115614
C121	C	0.357638	1.079188	0.060200
C122	C	0.348178	1.046797	0.018925
C123	C	0.432200	0.981997	0.033069
C124	C	0.930082	0.981975	-0.108294
C125	C	0.930100	1.046764	-0.173083
C126	C	0.878644	1.079173	-0.253828
C127	C	0.827175	1.046783	-0.269783
C128	C	0.827163	0.981990	-0.204994
H129	H	0.971970	0.399268	0.091645
O130	O	0.421991	0.947060	-0.011443
H131	H	0.381186	0.917544	0.004628
H132	H	0.272057	1.073164	-0.277911
H133	H	0.785247	0.399259	0.204183
H134	H	0.878661	1.131931	-0.306576
O135	O	1.121276	0.407850	0.106271
H136	H	1.064428	0.458343	0.103370
O137	O	0.635901	0.947062	-0.245061
H138	H	0.628324	0.980484	-0.307347
H139	H	0.785281	1.073180	-0.335535
H140	H	1.298396	0.281749	0.146562
O141	O	0.266933	1.149116	-0.426688
H142	H	0.200363	1.166189	-0.420706
O143	O	0.490263	0.677430	0.250886
H144	H	0.550905	0.618098	0.266542
O145	O	0.985599	0.947018	-0.021207
H146	H	0.955885	1.001407	-0.019617
H147	H	0.971986	0.399262	0.513788
O148	O	0.771635	0.947075	-0.222211
H149	H	0.735851	0.980509	-0.289245
O150	O	1.490221	0.205815	0.250840
H151	H	1.467927	0.188741	0.212831
H152	H	1.146045	0.399231	0.543118
O153	O	0.985583	-0.052959	0.083438
H154	H	1.021351	-0.019533	0.061863
O155	O	0.402952	0.677399	0.352827
H156	H	0.359618	0.677400	0.384550
H157	H	0.517858	0.677445	-0.014634
H158	H	0.971995	0.533439	-0.486197
O159	O	0.985611	0.273150	0.652689
H160	H	1.021407	0.306557	0.652875
O161	O	0.635966	0.947036	0.189519
H162	H	0.628413	0.980465	0.215823
H163	H	1.485184	0.281696	0.321985
H164	H	0.785248	0.281715	0.204180
H165	H	1.332755	0.399240	0.296353
H166	H	0.272054	1.073195	-0.026194
H167	H	0.365390	0.677458	-0.040305
H168	H	0.458842	1.073141	0.149231
H169	H	0.972010	1.073129	-0.160076
O170	O	0.985576	0.081727	0.083439
H171	H	1.021366	0.048308	0.061881
O172	O	0.771710	0.081695	0.212408
H173	H	0.714844	0.153178	0.162799
O174	O	0.461211	1.081769	-0.409140
H175	H	0.387065	1.132264	-0.465444
H176	H	0.163129	0.677447	0.083568
O177	O	0.985585	0.512467	-0.347315
H178	H	0.933628	0.508679	-0.324648
H179	H	0.971975	0.281712	0.091645
H180	H	0.785261	-0.044398	0.204172
H181	H	0.785253	0.399242	0.338395
H182	H	0.878633	0.222936	0.602449
H183	H	0.289230	1.131952	0.048691
O184	O	0.528984	0.677419	0.205693
H185	H	0.474386	0.736755	0.193741
H186	H	0.239362	0.677443	-0.005405
O187	O	0.228278	0.677414	0.323411
H188	H	0.162785	0.677420	0.302953
H189	H	0.971979	0.533464	-0.160109
H190	H	1.468097	0.222928	0.701637
O191	O	0.985604	0.512504	-0.021196
H192	H	0.933681	0.508693	0.001507
H193	H	0.785262	0.281695	0.455973
O194	O	1.335212	0.407842	0.411898
H195	H	1.414328	0.374439	0.431044
H196	H	0.785255	0.821415	-0.335524
O197	O	0.771637	0.842392	-0.222191
H198	H	0.801380	0.880442	-0.248641
O199	O	0.771666	0.842373	-0.548282
H200	H	0.735892	0.897554	-0.615311
O201	O	0.771679	0.842379	-0.682962
H202	H	0.780336	0.829050	-0.725339
H203	H	1.298527	0.281682	0.686329
O204	O	1.509890	0.273155	0.575968
H205	H	1.502314	0.306566	0.513682
H206	H	0.424510	0.955603	-0.134717
