data_functionalizedCrystal
_audit_creation_method	'MofGen! by Chris Wilmer'
_symmetry_space_group_name_H-M	'P1'
_symmetry_Int_Tables_number	1
_symmetry_cell_setting	triclinic
loop_
_symmetry_equiv_pos_as_xyz
  x,y,z
_cell_length_a	10.967926
_cell_length_b	14.519731
_cell_length_c	10.065875
_cell_angle_alpha	98.805316
_cell_angle_beta	93.120479
_cell_angle_gamma	84.211611
loop_
_atom_site_label
_atom_site_type_symbol
_atom_site_fract_x
_atom_site_fract_y
_atom_site_fract_z
O1	O	1.613252	0.160830	0.265929
O2	O	1.263214	0.163463	0.183600
O3	O	1.447499	0.028218	0.226956
O4	O	1.428968	0.296075	0.222573
O5	O	1.412359	0.054116	0.445678
O6	O	1.228074	0.189361	0.402321
O7	O	1.578112	0.186728	0.484651
Zn8	Zn	1.397514	0.192156	0.478213
Zn9	Zn	1.443813	0.158035	0.190038
O10	O	1.393828	0.321973	0.441294
C11	C	1.200846	0.174264	0.282424
C12	C	1.067361	0.167851	0.251028
C13	C	0.989646	0.178408	0.350335
C14	C	0.851682	0.171780	0.317889
C15	C	1.429060	0.006779	0.336113
C16	C	1.426458	-0.095688	0.335502
C17	C	1.424344	-0.178902	0.335001
C18	C	1.421703	-0.283300	0.334370
C19	C	1.419607	-0.366509	0.333868
C20	C	1.416966	-0.470913	0.333239
C21	C	1.640481	0.175927	0.385824
C22	C	1.773967	0.182339	0.417210
C23	C	1.412267	0.343412	0.332135
C24	C	1.414871	0.445877	0.332737
N25	N	1.365925	0.215443	0.674886
N26	N	1.475411	0.134741	-0.006634
C27	C	1.432814	0.166131	0.758402
C28	C	1.408512	0.184060	0.909852
H29	H	1.508069	0.110635	0.717783
O30	O	1.318564	0.250162	0.958195
C31	C	1.102989	0.302378	0.951461
C32	C	1.204728	0.227445	0.896620
H33	H	1.010933	0.284048	0.901680
H34	H	1.099278	0.305041	1.064963
H35	H	1.123461	0.373565	0.928271
H36	H	1.184328	0.156219	0.919712
H37	H	1.208415	0.224864	0.783131
O38	O	1.032276	0.194917	0.480376
C39	C	1.165227	0.138681	0.655100
C40	C	1.117076	0.119878	0.507793
H41	H	1.233776	0.078015	0.677321
H42	H	1.212239	0.206284	0.672268
H43	H	1.085231	0.145641	0.724797
H44	H	1.197002	0.112872	0.438002
H45	H	1.070026	0.052293	0.490735
H46	H	0.816085	0.157832	0.208841
H47	H	1.550670	0.079242	0.952752
O48	O	1.276211	0.281755	0.723199
C49	C	1.199939	0.444789	0.749316
C50	C	1.301609	0.369781	0.694515
H51	H	1.220451	0.515977	0.726171
H52	H	1.107824	0.426518	0.699629
H53	H	1.196318	0.447405	0.862817
H54	H	1.305344	0.367125	0.581023
H55	H	1.393675	0.388081	0.744304
O56	O	0.816585	0.198847	0.547261
C57	C	0.949522	0.142607	0.721992
C58	C	0.901382	0.123807	0.574681
H59	H	1.018070	0.081940	0.744216
H60	H	0.996534	0.210210	0.739169
H61	H	0.869521	0.149565	0.791682
H62	H	0.981315	0.116803	0.504898
H63	H	0.854333	0.056222	0.557614
O64	O	1.024688	0.151261	0.121012
C65	C	0.848291	0.129434	-0.029868
C66	C	0.896445	0.148248	0.117436
H67	H	0.744605	0.126973	-0.032807
H68	H	0.871385	0.187784	-0.085514
H69	H	0.893261	0.059544	-0.080340
H70	H	0.851502	0.218109	0.168025
H71	H	0.873368	0.089844	0.172983
