data_functionalizedCrystal
_audit_creation_method	'MofGen! by Chris Wilmer'
_symmetry_space_group_name_H-M	'P1'
_symmetry_Int_Tables_number	1
_symmetry_cell_setting	triclinic
loop_
_symmetry_equiv_pos_as_xyz
  x,y,z
_cell_length_a	18.101398
_cell_length_b	18.101397
_cell_length_c	18.101389
_cell_angle_alpha	90.022030
_cell_angle_beta	90.008593
_cell_angle_gamma	90.018533
loop_
_atom_site_label
_atom_site_type_symbol
_atom_site_fract_x
_atom_site_fract_y
_atom_site_fract_z
Zn1	Zn	-1.132159	0.295010	-0.418509
Zn2	Zn	-0.882159	0.545010	-0.168509
Zn3	Zn	-0.632159	0.795010	0.081491
Zn4	Zn	-0.382159	1.045010	0.331491
Zn5	Zn	-1.132071	0.418836	-0.294660
Zn6	Zn	-0.882071	0.668836	-0.044660
Zn7	Zn	-0.632071	0.918836	0.205340
Zn8	Zn	-0.382071	1.168836	0.455340
Zn9	Zn	-1.008318	0.295001	-0.294704
Zn10	Zn	-0.758318	0.545001	-0.044704
Zn11	Zn	-0.508318	0.795001	0.205296
Zn12	Zn	-0.258318	1.045001	0.455296
Zn13	Zn	-1.008284	0.418803	-0.418482
Zn14	Zn	-0.758284	0.668803	-0.168482
Zn15	Zn	-0.508284	0.918803	0.081518
Zn16	Zn	-0.258284	1.168803	0.331518
O17	O	-1.070208	0.356912	-0.356589
O18	O	-0.820208	0.606912	-0.106589
O19	O	-0.570208	0.856912	0.143411
O20	O	-0.320208	1.106912	0.393411
O21	O	-1.235780	0.311453	-0.402073
O22	O	-0.985780	0.561453	-0.152073
O23	O	-0.735780	0.811453	0.097927
O24	O	-0.485780	1.061453	0.347927
O25	O	-1.115632	0.402419	-0.191033
O26	O	-0.865632	0.652419	0.058967
O27	O	-0.615632	0.902419	0.308967
O28	O	-0.365632	1.152419	0.558967
O29	O	-1.024796	0.191370	-0.311157
O30	O	-0.774796	0.441370	-0.061157
O31	O	-0.524796	0.691370	0.188843
O32	O	-0.274796	0.941370	0.438843
O33	O	-1.235715	0.402427	-0.311081
O34	O	-0.985715	0.652427	-0.061081
O35	O	-0.735715	0.902427	0.188919
O36	O	-0.485715	1.152427	0.438919
O37	O	-1.115782	0.191376	-0.402116
O38	O	-0.865782	0.441376	-0.152116
O39	O	-0.615782	0.691376	0.097884
O40	O	-0.365782	0.941376	0.347884
O41	O	-1.024711	0.311438	-0.191066
O42	O	-0.774711	0.561438	0.058934
O43	O	-0.524711	0.811438	0.308934
O44	O	-0.274711	1.061438	0.558934
O45	O	-0.904681	0.311406	-0.311131
O46	O	-0.654681	0.561406	-0.061131
O47	O	-0.404681	0.811406	0.188869
O48	O	-0.154681	1.061406	0.438869
O49	O	-1.024740	0.402371	-0.522119
O50	O	-0.774740	0.652371	-0.272119
O51	O	-0.524740	0.902371	-0.022119
O52	O	-0.274740	1.152371	0.227881
O53	O	-0.904656	0.402363	-0.402070
O54	O	-0.654656	0.652363	-0.152070
O55	O	-0.404656	0.902363	0.097930
O56	O	-0.154656	1.152363	0.347930
O57	O	-1.115750	0.311421	-0.522139
O58	O	-0.865750	0.561421	-0.272139
O59	O	-0.615750	0.811421	-0.022139
O60	O	-0.365750	1.061421	0.227861
O61	O	-1.115599	0.522464	-0.311055
O62	O	-0.865599	0.772464	-0.061055
O63	O	-0.615599	1.022464	0.188945
O64	O	-0.365599	1.272464	0.438945
O65	O	-1.024654	0.522440	-0.402027
O66	O	-0.774654	0.772440	-0.152027
O67	O	-0.524654	1.022440	0.097973
O68	O	-0.274654	1.272440	0.347973
C69	C	-0.877797	0.356881	-0.356603
C70	C	-0.627797	0.606881	-0.106603
C71	C	-0.377797	0.856881	0.143397
C72	C	-0.127797	1.106881	0.393397
C73	C	-0.795483	0.356885	-0.356627
C74	C	-0.545483	0.606885	-0.106627
C75	C	-0.295483	0.856885	0.143373
C76	C	-0.045483	1.106885	0.393373
C77	C	-0.496392	0.356925	-0.356602
C78	C	-0.246392	0.606925	-0.106602
C79	C	0.003608	0.856925	0.143398
C80	C	0.253608	1.106925	0.393398
C81	C	-0.527727	0.414429	-0.413535
C82	C	-0.277727	0.664429	-0.163535
C83	C	-0.027727	0.914429	0.086465
C84	C	0.222273	1.164429	0.336465
C85	C	-0.613345	0.414250	-0.413768
C86	C	-0.363345	0.664250	-0.163768
C87	C	-0.113345	0.914250	0.086232
C88	C	0.136655	1.164250	0.336232
C89	C	-0.644775	0.356906	-0.356614
C90	C	-0.394775	0.606906	-0.106614
C91	C	-0.144775	0.856906	0.143386
C92	C	0.105225	1.106906	0.393386
C93	C	-0.613710	0.278907	-0.377948
C94	C	-0.363710	0.528907	-0.127948
C95	C	-0.113710	0.778907	0.122052
C96	C	0.136290	1.028907	0.372052
C97	C	-0.528065	0.279251	-0.378354
C98	C	-0.278065	0.529251	-0.128354
C99	C	-0.028065	0.779251	0.121646
C100	C	0.221935	1.029251	0.371646
C101	C	-0.527942	0.376732	-0.278197
C102	C	-0.277942	0.626732	-0.028197
C103	C	-0.027942	0.876732	0.221803
C104	C	0.222058	1.126732	0.471803
C105	C	-0.613593	0.378445	-0.278614
C106	C	-0.363593	0.628445	-0.028614
C107	C	-0.113593	0.878445	0.221386
C108	C	0.136407	1.128445	0.471386
C109	C	-0.728634	0.356890	-0.356620
C110	C	-0.478634	0.606890	-0.106620
C111	C	-0.228634	0.856890	0.143380
C112	C	0.021366	1.106890	0.393380
C113	C	-0.412533	0.356935	-0.356598
C114	C	-0.162533	0.606935	-0.106598
C115	C	0.087467	0.856935	0.143402
C116	C	0.337467	1.106935	0.393402
C117	C	-1.070134	0.549323	-0.356550
C118	C	-0.820134	0.799323	-0.106550
C119	C	-0.570134	1.049323	0.143450
C120	C	-0.320134	1.299323	0.393450
C121	C	-1.070170	0.631637	-0.356558
C122	C	-0.820170	0.881637	-0.106558
C123	C	-0.570170	1.131637	0.143442
C124	C	-0.320170	1.381637	0.393442
C125	C	-1.070251	0.356894	-0.549751
C126	C	-0.820251	0.606894	-0.299751
C127	C	-0.570251	0.856894	-0.049751
C128	C	-0.320251	1.106894	0.200249
C129	C	-1.070269	0.356886	-0.632065
C130	C	-0.820269	0.606886	-0.382065
C131	C	-0.570269	0.856886	-0.132065
C132	C	-0.320269	1.106886	0.117935
C133	C	-0.263370	0.356941	-0.356580
C134	C	-0.013370	0.606941	-0.106580
C135	C	0.236630	0.856941	0.143420
C136	C	0.486630	1.106941	0.393420
C137	C	-0.345684	0.356945	-0.356589
C138	C	-0.095684	0.606945	-0.106589
C139	C	0.154316	0.856945	0.143411
C140	C	0.404316	1.106945	0.393411
C141	C	-1.070204	0.782345	-0.356573
C142	C	-0.820204	1.032345	-0.106573
C143	C	-0.570204	1.282345	0.143427
C144	C	-0.320204	1.532345	0.393427
C145	C	-1.127479	0.813683	-0.299390
C146	C	-0.877479	1.063683	-0.049390
C147	C	-0.627479	1.313683	0.200610
C148	C	-0.377479	1.563683	0.450610
C149	C	-1.127330	0.899302	-0.299174
C150	C	-0.877330	1.149302	-0.049174
C151	C	-0.627330	1.399302	0.200826
C152	C	-0.377330	1.649302	0.450826
C153	C	-1.070239	0.930728	-0.356589
C154	C	-0.820239	1.180728	-0.106589
C155	C	-0.570239	1.430728	0.143411
C156	C	-0.320239	1.680728	0.393411
C157	C	-0.992140	0.899701	-0.335598
C158	C	-0.742140	1.149701	-0.085598
C159	C	-0.492140	1.399701	0.164402
C160	C	-0.242140	1.649701	0.414402
C161	C	-0.992451	0.814056	-0.335174
C162	C	-0.742451	1.064056	-0.085174
C163	C	-0.492451	1.314056	0.164826
C164	C	-0.242451	1.564056	0.414826
C165	C	-1.090354	0.813855	-0.434895
C166	C	-0.840354	1.063855	-0.184895
C167	C	-0.590354	1.313855	0.065105
C168	C	-0.340354	1.563855	0.315105
C169	C	-1.092097	0.899505	-0.434486
C170	C	-0.842097	1.149505	-0.184486
C171	C	-0.592097	1.399505	0.065514
C172	C	-0.342097	1.649505	0.315514
C173	C	-1.070255	1.014588	-0.356598
C174	C	-0.820255	1.264588	-0.106598
C175	C	-0.570255	1.514588	0.143402
C176	C	-0.320255	1.764588	0.393402
C177	C	-1.070184	0.698486	-0.356562
C178	C	-0.820184	0.948486	-0.106562
C179	C	-0.570184	1.198486	0.143438
C180	C	-0.320184	1.448486	0.393438
C181	C	-1.070285	1.163751	-0.356628
C182	C	-0.820285	1.413751	-0.106628
C183	C	-0.570285	1.663751	0.143372
C184	C	-0.320285	1.913751	0.393372
C185	C	-1.070274	1.081436	-0.356604
C186	C	-0.820274	1.331436	-0.106604
C187	C	-0.570274	1.581436	0.143396
C188	C	-0.320274	1.831436	0.393396
C189	C	-1.070312	0.356747	-0.931156
C190	C	-0.820312	0.606747	-0.681156
C191	C	-0.570312	0.856747	-0.431156
C192	C	-0.320312	1.106747	-0.181156
C193	C	-1.012854	0.413788	-0.899819
C194	C	-0.762854	0.663788	-0.649819
C195	C	-0.512854	0.913788	-0.399819
C196	C	-0.262854	1.163788	-0.149819
C197	C	-1.013009	0.414053	-0.814200
C198	C	-0.763009	0.664053	-0.564200
C199	C	-0.513009	0.914053	-0.314200
C200	C	-0.263009	1.164053	-0.064200
C201	C	-1.070290	0.356816	-0.782774
C202	C	-0.820290	0.606816	-0.532774
C203	C	-0.570290	0.856816	-0.282774
C204	C	-0.320290	1.106816	-0.032774
C205	C	-1.148318	0.378007	-0.813857
C206	C	-0.898318	0.628007	-0.563857
C207	C	-0.648318	0.878007	-0.313857
C208	C	-0.398318	1.128007	-0.063857
C209	C	-1.147998	0.378381	-0.899502
C210	C	-0.897998	0.628381	-0.649502
C211	C	-0.647998	0.878381	-0.399502
C212	C	-0.397998	1.128381	-0.149502
C213	C	-1.050421	0.278388	-0.899591
C214	C	-0.800421	0.528388	-0.649591
C215	C	-0.550421	0.778388	-0.399591
C216	C	-0.300421	1.028388	-0.149591
C217	C	-1.048685	0.278840	-0.813940
C218	C	-0.798685	0.528840	-0.563940
C219	C	-0.548685	0.778840	-0.313940
C220	C	-0.298685	1.028840	-0.063940
C221	C	-1.070282	0.356853	-0.698914
C222	C	-0.820282	0.606853	-0.448914
C223	C	-0.570282	0.856853	-0.198914
C224	C	-0.320282	1.106853	0.051086
C225	C	-1.070325	0.356711	-1.015016
C226	C	-0.820325	0.606711	-0.765016
C227	C	-0.570325	0.856711	-0.515016
C228	C	-0.320325	1.106711	-0.265016
C229	C	-1.070208	0.356878	-0.164179
C230	C	-0.820208	0.606878	0.085821
C231	C	-0.570208	0.856878	0.335821
C232	C	-0.320208	1.106878	0.585821
C233	C	-1.070333	0.356677	-0.081865
C234	C	-0.820333	0.606677	0.168135
C235	C	-0.570333	0.856677	0.418135
C236	C	-0.320333	1.106677	0.668135
H237	H	-0.507119	0.472458	-0.400314
H238	H	-0.257119	0.722458	-0.150314
H239	H	-0.007119	0.972458	0.099686
H240	H	0.242881	1.222458	0.349686
F241	F	-0.934852	0.926308	-0.388368
F242	F	-0.684852	1.176308	-0.138368
F243	F	-0.434852	1.426308	0.111632
F244	F	-0.184852	1.676308	0.361632
F245	F	-0.969478	0.927790	-0.261600
F246	F	-0.719478	1.177790	-0.011600
F247	F	-0.469478	1.427790	0.238400
F248	F	-0.219478	1.677790	0.488400
F249	F	-0.936995	0.396629	-0.926741
F250	F	-0.686995	0.646629	-0.676741
F251	F	-0.436995	0.896629	-0.426741
F252	F	-0.186995	1.146629	-0.176741
H253	H	-0.506215	0.401491	-0.471292
H254	H	-0.256215	0.651491	-0.221292
H255	H	-0.006215	0.901491	0.028708
H256	H	0.243785	1.151491	0.278708
F257	F	-0.640145	0.397122	-0.489698
F258	F	-0.390145	0.647122	-0.239698
F259	F	-0.140145	0.897122	0.010302
F260	F	0.109855	1.147122	0.260302
H261	H	-1.146324	0.792208	-0.454033
H262	H	-0.896324	1.042208	-0.204033
H263	H	-0.646324	1.292208	0.045967
H264	H	-0.396324	1.542208	0.295967
H265	H	-1.192279	0.337766	-0.793501
H266	H	-0.942279	0.587766	-0.543501
H267	H	-0.692279	0.837766	-0.293501
H268	H	-0.442279	1.087766	-0.043501
F269	F	-0.501970	0.257292	-0.453272
F270	F	-0.251970	0.507292	-0.203272
F271	F	-0.001970	0.757292	0.046728
F272	F	0.248030	1.007292	0.296728
H273	H	-1.053450	0.920894	-0.479362
H274	H	-0.803450	1.170894	-0.229362
H275	H	-0.553450	1.420894	0.020638
H276	H	-0.303450	1.670894	0.270638
F277	F	-1.170741	0.452083	-0.785821
F278	F	-0.920741	0.702083	-0.535821
F279	F	-0.670741	0.952083	-0.285821
F280	F	-0.420741	1.202083	-0.035821
H281	H	-0.633904	0.435840	-0.262525
H282	H	-0.383904	0.685840	-0.012525
H283	H	-0.133904	0.935840	0.237475
H284	H	0.116096	1.185840	0.487475
H285	H	-0.634988	0.339602	-0.233915
H286	H	-0.384988	0.589602	0.016085
H287	H	-0.134988	0.839602	0.266085
H288	H	0.115012	1.089602	0.516085
F289	F	-0.640799	0.489858	-0.396315
F290	F	-0.390799	0.739858	-0.146315
F291	F	-0.140799	0.989858	0.103685
F292	F	0.109201	1.239858	0.353685
H293	H	-1.025857	0.471516	-0.921337
H294	H	-0.775857	0.721516	-0.671337
H295	H	-0.525857	0.971516	-0.421337
H296	H	-0.275857	1.221516	-0.171337
F297	F	-1.030210	0.489963	-0.787415
F298	F	-0.780210	0.739963	-0.537415
F299	F	-0.530210	0.989963	-0.287415
F300	F	-0.280210	1.239963	-0.037415
H301	H	-0.507338	0.234871	-0.338788
H302	H	-0.257338	0.484871	-0.088788
H303	H	-0.007338	0.734871	0.161212
H304	H	0.242662	0.984871	0.411212
H305	H	-0.991263	0.262860	-0.793625
H306	H	-0.741263	0.512860	-0.543625
H307	H	-0.491263	0.762860	-0.293625
H308	H	-0.241263	1.012860	-0.043625
F309	F	-1.170036	0.453253	-0.925613
F310	F	-0.920036	0.703253	-0.675613
F311	F	-0.670036	0.953253	-0.425613
F312	F	-0.420036	1.203253	-0.175613
F313	F	-1.105121	0.222838	-0.926080
F314	F	-0.855121	0.472838	-0.676080
F315	F	-0.605121	0.722838	-0.426080
F316	F	-0.355121	0.972838	-0.176080
F317	F	-0.977341	0.253154	-0.927824
F318	F	-0.727341	0.503154	-0.677824
F319	F	-0.477341	0.753154	-0.427824
F320	F	-0.227341	1.003154	-0.177824
H321	H	-1.185237	0.920278	-0.312284
H322	H	-0.935237	1.170278	-0.062284
H323	H	-0.685237	1.420278	0.187716
H324	H	-0.435237	1.670278	0.437716
H325	H	-0.955149	0.400791	-0.793185
H326	H	-0.705149	0.650791	-0.543185
H327	H	-0.455149	0.900791	-0.293185
H328	H	-0.205149	1.150791	-0.043185
H329	H	-1.113987	0.919832	-0.241145
H330	H	-0.863987	1.169832	0.008855
H331	H	-0.613987	1.419832	0.258855
H332	H	-0.363987	1.669832	0.508855
H333	H	-1.087480	0.234085	-0.792548
H334	H	-0.837480	0.484085	-0.542548
H335	H	-0.587480	0.734085	-0.292548
H336	H	-0.337480	0.984085	-0.042548
H337	H	-1.149572	0.919779	-0.450318
H338	H	-0.899572	1.169779	-0.200318
H339	H	-0.649572	1.419779	0.049682
H340	H	-0.399572	1.669779	0.299682
H341	H	-0.634069	0.234901	-0.337773
H342	H	-0.384069	0.484901	-0.087773
H343	H	-0.134069	0.734901	0.162227
H344	H	0.115931	0.984901	0.412227
H345	H	-1.114291	0.792198	-0.241688
H346	H	-0.864291	1.042198	0.008312
H347	H	-0.614291	1.292198	0.258312
H348	H	-0.364291	1.542198	0.508312
H349	H	-0.635173	0.261802	-0.434641
H350	H	-0.385173	0.511802	-0.184641
H351	H	-0.135173	0.761802	0.065359
H352	H	0.114827	1.011802	0.315359
F353	F	-1.035842	0.787353	-0.490584
F354	F	-0.785842	1.037353	-0.240584
F355	F	-0.535842	1.287353	0.009416
F356	F	-0.285842	1.537353	0.259416
F357	F	-1.205821	0.326402	-0.926601
F358	F	-0.955821	0.576402	-0.676601
F359	F	-0.705821	0.826402	-0.426601
F360	F	-0.455821	1.076402	-0.176601
F361	F	-0.499691	0.449795	-0.252853
F362	F	-0.249691	0.699795	-0.002853
F363	F	0.000309	0.949795	0.247147
F364	F	0.250309	1.199795	0.497147
F365	F	-0.934758	0.786960	-0.387257
F366	F	-0.684758	1.036960	-0.137257
F367	F	-0.434758	1.286960	0.112743
F368	F	-0.184758	1.536960	0.362743
F369	F	-1.203392	0.786713	-0.316325
F370	F	-0.953392	1.036713	-0.066325
F371	F	-0.703392	1.286713	0.183675
F372	F	-0.453392	1.536713	0.433675
F373	F	-0.970161	0.788000	-0.260351
F374	F	-0.720161	1.038000	-0.010351
F375	F	-0.470161	1.288000	0.239649
F376	F	-0.220161	1.538000	0.489649
F377	F	-0.501455	0.321986	-0.222749
F378	F	-0.251455	0.571986	0.027251
F379	F	-0.001455	0.821986	0.277251
F380	F	0.248545	1.071986	0.527251
