data_functionalizedCrystal
_audit_creation_method	'MofGen! by Chris Wilmer'
_symmetry_space_group_name_H-M	'P1'
_symmetry_Int_Tables_number	1
_symmetry_cell_setting	triclinic
loop_
_symmetry_equiv_pos_as_xyz
  x,y,z
_cell_length_a	20.919309
_cell_length_b	14.395555
_cell_length_c	20.919292
_cell_angle_alpha	61.852100
_cell_angle_beta	93.149542
_cell_angle_gamma	57.442980
loop_
_atom_site_label
_atom_site_type_symbol
_atom_site_fract_x
_atom_site_fract_y
_atom_site_fract_z
Zr1	Zr	0.638391	0.944594	-0.059158
O2	O	0.525907	1.151114	-0.165769
O3	O	0.672870	0.746898	-0.026475
O4	O	0.665194	0.941565	-0.160341
O5	O	0.539641	0.955759	0.073691
O6	O	0.775069	0.929139	-0.156060
O7	O	0.533583	0.956447	-0.031903
O8	O	0.788800	0.580915	0.083401
O9	O	0.525910	1.303983	-0.165770
O10	O	0.769577	0.815672	-0.009343
O11	O	0.692099	0.824432	0.066266
O12	O	0.683062	1.053628	-0.091344
O13	O	0.605585	1.062388	-0.015734
Zr14	Zr	0.823291	0.923678	0.116079
Zr15	Zr	0.813628	0.924775	-0.052332
Zr16	Zr	0.648053	0.943497	0.109252
Zr17	Zr	0.638396	1.188403	-0.059161
Zr18	Zr	0.823285	0.679870	0.116081
O19	O	0.788811	1.121374	0.083396
O20	O	0.775073	1.122934	-0.156062
O21	O	0.539645	1.149554	0.073689
O22	O	0.935774	0.717158	0.222690
O23	O	0.922036	0.718718	-0.016768
O24	O	0.686608	0.745338	0.212983
O25	O	0.922040	0.912514	-0.016770
O26	O	0.796487	0.926707	0.217262
O27	O	0.686612	0.939133	0.212981
O28	O	0.928098	0.911826	0.088824
O29	O	0.665201	1.288230	-0.160344
O30	O	0.796480	0.580042	0.217265
O31	O	0.935771	0.564289	0.222691
O32	O	0.928091	0.565161	0.088827
O33	O	0.533591	1.303111	-0.031906
O34	O	0.672881	1.287358	-0.026480
O35	O	0.778619	0.814645	0.148264
O36	O	0.856096	0.805884	0.072655
O37	O	0.769582	1.043841	-0.009345
O38	O	0.692104	1.052601	0.066264
C39	C	0.730834	0.629169	0.028463
C40	C	0.730832	0.525666	0.028464
C41	C	0.688591	0.469849	0.069693
C42	C	0.651937	0.488253	-0.005671
C43	C	0.767464	0.322868	0.103804
C44	C	0.694131	0.545501	-0.046944
C45	C	0.809704	0.380048	0.062586
C46	C	0.773067	0.398496	-0.012821
C47	C	0.511645	0.958927	0.019921
C48	C	0.437252	0.967340	0.017023
C49	C	0.447459	0.847086	0.058461
C50	C	0.377556	0.854999	0.055736
C51	C	0.297446	0.983169	0.011568
C52	C	0.287240	1.103432	-0.029870
C53	C	0.357143	1.095518	-0.027141
C54	C	0.084126	1.013281	0.001189
C55	C	0.014222	1.021187	-0.001540
C56	C	0.104543	0.772753	0.084068
C57	C	0.174443	0.764849	0.086790
C58	C	0.164231	0.885112	0.045355
C59	C	0.225992	0.991261	0.008780
C60	C	0.235684	0.877019	0.048148
C61	C	0.950036	0.909346	0.037000
C62	C	1.024429	0.900932	0.039898
C63	C	0.718755	0.935509	-0.182196
C64	C	0.714653	0.935974	-0.253690
C65	C	0.730847	1.239104	0.028457
C66	C	0.730849	1.342607	0.028456
C67	C	0.773257	0.929349	-0.284920
C68	C	0.769405	0.929774	-0.352093
C69	C	0.706945	0.936836	-0.388038
C70	C	0.648339	0.943458	-0.356802
C71	C	0.652195	0.943022	-0.289627
C72	C	0.692278	0.938485	-0.590978
C73	C	0.688425	0.938924	-0.658159
C74	C	0.809492	0.925238	-0.653445
C75	C	0.813339	0.924811	-0.586271
C76	C	0.754736	0.931426	-0.555039
C77	C	0.703005	0.937275	-0.456701
C78	C	0.758680	0.930976	-0.486374
C79	C	0.742926	0.932764	0.239116
C80	C	0.747028	0.932298	0.310611
C81	C	0.950030	0.604378	0.037002
C82	C	1.024421	0.492462	0.039902
C83	C	0.742920	0.627796	0.239119
C84	C	0.747020	0.523828	0.310615
C85	C	0.962116	0.603006	0.247658
C86	C	1.040608	0.490624	0.322052
C87	C	0.499565	1.265266	-0.190738
C88	C	0.421073	1.377649	-0.265131
C89	C	0.511651	1.263894	0.019918
C90	C	0.437260	1.375811	0.017019
C91	C	0.718761	1.240476	-0.182198
C92	C	0.714662	1.344445	-0.253694
C93	C	1.014193	0.445013	-0.001546
C94	C	1.084083	0.339870	0.001162
C95	C	1.164201	0.282170	0.045323
C96	C	1.174428	0.329628	0.086772
C97	C	1.104538	0.434777	0.084058
C98	C	0.794107	0.469894	0.386999
C99	C	0.797957	0.372218	0.454183
C100	C	0.754722	0.328470	0.444982
C101	C	0.707629	0.382414	0.368589
C102	C	0.703775	0.480096	0.301407
C103	C	1.117919	0.433274	0.317521
C104	C	1.191678	0.327691	0.387416
C105	C	1.188124	0.279454	0.461841
C106	C	1.110805	0.336814	0.466370
C107	C	1.037048	0.442401	0.396476
C108	C	0.343762	1.435010	-0.260600
C109	C	0.270003	1.540623	-0.330495
C110	C	0.273557	1.588866	-0.404920
C111	C	0.350876	1.531499	-0.409449
C112	C	0.424633	1.425895	-0.339555
C113	C	0.447488	1.423269	0.058460
C114	C	0.377596	1.528440	0.055734
C115	C	0.297478	1.586143	0.011570
C116	C	0.287252	1.538680	-0.029876
C117	C	0.357142	1.433518	-0.027153
C118	C	0.757906	1.388161	-0.244467
C119	C	0.754070	1.485836	-0.311638
C120	C	0.706985	1.539800	-0.388035
C121	C	0.663739	1.496075	-0.397261
C122	C	0.667580	1.398395	-0.330091
H123	H	0.663080	0.640580	-0.110694
H124	H	0.385875	0.757075	0.089480
H125	H	0.948962	0.491991	-0.037516
Br126	Br	1.259045	0.139468	0.048996
H127	H	1.075741	0.301243	-0.032591
H128	H	0.974101	0.489083	0.400176
H129	H	0.796247	1.344237	-0.182266
Br130	Br	0.202634	1.728864	0.007884
H131	H	0.652148	0.943028	-0.485974
Br132	Br	0.628979	0.521900	0.127738
H133	H	0.808785	0.367515	-0.047741
Br134	Br	1.283166	0.251303	0.146703
Br135	Br	1.118434	0.499151	0.140320
H136	H	0.222010	1.585678	-0.065832
H137	H	1.254627	0.280999	0.383714
Br138	Br	0.283161	0.590898	0.146732
Br139	Br	1.288231	0.136154	0.556691
H140	H	0.665434	0.523996	0.239213
H141	H	0.353760	1.570792	-0.470054
Br142	Br	0.852796	0.529236	0.399510
Br143	Br	0.529551	1.348053	-0.345719
Br144	Br	0.343247	1.369117	-0.083396
H145	H	0.703864	1.619338	-0.442723
Br146	Br	1.105996	0.271334	0.567382
Br147	Br	0.648958	0.323027	0.356115
Br148	Br	0.759961	0.195901	0.536168
Br149	Br	0.344404	0.703080	0.108098
Br150	Br	0.819090	0.164339	0.210002
H151	H	0.340852	1.395738	-0.200007
Br152	Br	0.861875	0.299027	0.557849
Br153	Br	1.122766	0.498722	0.216525
H154	H	0.512718	1.376295	0.094428
H155	H	0.876385	0.335339	0.091471
Br156	Br	0.812762	1.545161	-0.299098
Br157	Br	0.603647	0.948517	-0.706940
Br158	Br	0.165082	1.618453	-0.324330
Br159	Br	0.173450	1.732189	-0.499770
H160	H	0.824115	0.923607	-0.255661
H161	H	0.385939	1.567066	0.089487
Br162	Br	0.843449	0.921382	-0.437587
Br163	Br	0.612745	0.947466	-0.548595
H164	H	0.625403	1.540029	-0.459473
H165	H	0.632362	1.362813	-0.337615
H166	H	0.585242	0.532982	-0.034538
H167	H	0.512685	0.742716	0.094430
Br168	Br	-0.094504	1.195143	-0.061498
Br169	Br	0.118395	0.609547	0.140301
H170	H	0.075800	1.111208	-0.032565
H171	H	0.348827	1.193442	-0.060874
Br172	Br	0.117268	1.165201	-0.051158
Br173	Br	0.178520	1.277380	-0.089805
H174	H	0.864199	0.919061	-0.557006
Br175	Br	0.889023	0.916257	-0.695833
H176	H	0.817125	0.924378	-0.377520
H177	H	0.604474	0.948415	-0.264199
Br178	Br	0.563575	0.953026	-0.405576
