data_functionalizedCrystal
_audit_creation_method	'MofGen! by Chris Wilmer'
_symmetry_space_group_name_H-M	'P1'
_symmetry_Int_Tables_number	1
_symmetry_cell_setting	triclinic
loop_
_symmetry_equiv_pos_as_xyz
  x,y,z
_cell_length_a	12.759401
_cell_length_b	16.959454
_cell_length_c	12.759393
_cell_angle_alpha	89.970403
_cell_angle_beta	89.981708
_cell_angle_gamma	90.020236
loop_
_atom_site_label
_atom_site_type_symbol
_atom_site_fract_x
_atom_site_fract_y
_atom_site_fract_z
Zn1	Zn	1.606214	-0.314640	-0.593988
Zn2	Zn	1.606093	-0.446839	-0.418310
Zn3	Zn	1.430517	-0.314679	-0.418327
Zn4	Zn	1.430488	-0.446781	-0.593952
O5	O	1.518328	-0.380735	-0.506144
O6	O	1.753219	-0.332185	-0.570692
O7	O	1.582763	-0.429349	-0.271291
O8	O	1.453886	-0.204063	-0.441651
O9	O	1.753130	-0.429311	-0.441622
O10	O	1.582970	-0.204035	-0.570708
O11	O	1.453768	-0.332251	-0.271304
O12	O	1.283492	-0.332195	-0.441616
O13	O	1.453838	-0.429212	-0.740978
O14	O	1.283471	-0.429249	-0.570647
O15	O	1.582943	-0.332128	-0.741004
O16	O	1.582735	-0.557442	-0.441588
O17	O	1.453720	-0.557400	-0.570631
C18	C	1.245360	-0.380720	-0.506130
C19	C	1.128584	-0.380733	-0.506149
C20	C	1.073738	-0.431350	-0.573224
C21	C	0.964014	-0.431360	-0.573235
C22	C	0.963991	-0.330134	-0.439087
C23	C	1.073713	-0.330120	-0.439082
C24	C	1.128609	-0.481963	-0.640291
C25	C	1.073764	-0.532585	-0.707370
C26	C	0.964040	-0.532595	-0.707382
C27	C	0.909161	-0.481983	-0.640313
C28	C	1.518240	-0.586101	-0.506126
C29	C	1.518298	-0.673958	-0.506154
C30	C	1.451247	-1.045441	-0.573330
C31	C	1.585701	-1.045426	-0.439066
C32	C	1.585665	-0.962880	-0.439056
C33	C	1.518417	-0.921611	-0.506183
C34	C	1.451206	-0.962887	-0.573320
C35	C	1.652867	-0.921597	-0.371913
C36	C	1.652832	-0.839046	-0.371900
C37	C	1.585589	-0.797775	-0.439033
C38	C	1.518376	-0.839057	-0.506173
C39	C	1.451128	-0.797788	-0.573300
C40	C	1.383920	-0.839068	-0.640447
C41	C	1.383962	-0.921617	-0.640453
C42	C	1.585546	-0.715227	-0.439027
C43	C	1.451087	-0.715235	-0.573291
C44	C	1.792361	-0.380750	-0.506159
C45	C	1.909138	-0.380757	-0.506165
C46	C	1.518400	-0.380659	-0.780178
C47	C	1.518431	-0.380627	-0.896954
C48	C	1.518445	-0.174567	-0.506185
C49	C	1.518495	-0.086710	-0.506203
C50	C	1.585602	-0.431166	-0.951807
C51	C	1.585634	-0.431133	-1.061532
C52	C	1.451315	-0.330018	-1.061540
C53	C	1.451289	-0.330048	-0.951818
C54	C	1.652744	-0.481745	-0.896944
C55	C	1.719920	-0.532289	-0.951797
C56	C	1.719952	-0.532256	-1.061521
C57	C	1.652808	-0.481678	-1.116392
C58	C	1.518316	-0.380753	-0.233177
C59	C	1.518489	-0.380563	-0.116401
H60	H	0.919388	-0.573809	-0.762009
C61	C	1.793773	-0.587919	-0.891444
H62	H	1.784128	-0.580707	-0.818241
H63	H	1.864376	-0.576354	-0.909429
H64	H	1.778360	-0.641023	-0.909419
H65	H	1.652723	-0.481780	-0.807601
H66	H	1.329161	-0.805458	-0.695097
H67	H	1.652847	-0.481648	-1.205737
H68	H	1.396329	-0.681638	-0.627958
H69	H	1.707558	-0.805440	-0.317227
C70	C	1.310031	-0.967026	-0.714294
H71	H	1.319678	-1.022099	-0.704673
H72	H	1.325352	-0.953463	-0.784900
H73	H	1.239440	-0.953540	-0.698842
C74	C	0.903627	-0.274471	-0.365313
H75	H	0.830425	-0.281734	-0.374917
H76	H	0.921626	-0.221374	-0.380806
H77	H	0.921580	-0.285979	-0.294691
H78	H	0.819816	-0.481989	-0.640337
C79	C	1.377320	-1.090844	-0.647182
H80	H	1.386968	-1.145918	-0.637574
H81	H	1.392647	-1.077272	-0.717783
H82	H	1.306728	-1.077361	-0.631733
H83	H	1.774656	-0.573405	-1.106180
C84	C	1.377450	-0.274399	-1.121895
H85	H	1.387077	-0.281626	-1.195098
H86	H	1.392843	-0.221293	-1.103932
H87	H	1.306847	-0.285978	-1.103901
C88	C	1.659673	-1.090819	-0.365238
H89	H	1.650077	-1.145894	-0.374865
H90	H	1.644341	-1.077333	-0.294630
H91	H	1.730251	-1.077245	-0.380690
C92	C	1.134047	-0.274439	-0.365306
H93	H	1.085655	-0.244304	-0.325356
H94	H	1.176870	-0.240034	-0.405581
H95	H	1.176828	-0.304629	-0.319452
H96	H	1.707609	-0.955204	-0.317254
H97	H	1.640261	-0.681620	-0.384352
H98	H	1.396596	-0.288892	-0.907155
H99	H	1.217952	-0.481962	-0.640287
H100	H	1.118453	-0.573787	-0.761982
