data_functionalizedCrystal
_audit_creation_method	'MofGen! by Chris Wilmer'
_symmetry_space_group_name_H-M	'P1'
_symmetry_Int_Tables_number	1
_symmetry_cell_setting	triclinic
loop_
_symmetry_equiv_pos_as_xyz
  x,y,z
_cell_length_a	15.944499
_cell_length_b	15.944493
_cell_length_c	15.021413
_cell_angle_alpha	90.009890
_cell_angle_beta	89.990095
_cell_angle_gamma	83.476327
loop_
_atom_site_label
_atom_site_type_symbol
_atom_site_fract_x
_atom_site_fract_y
_atom_site_fract_z
O1	O	1.114533	0.108117	-0.074074
O2	O	1.614533	0.608117	0.425926
O3	O	0.869975	0.121519	-0.074062
O4	O	1.369975	0.621519	0.425938
O5	O	0.998958	-0.007461	-0.074076
O6	O	1.498958	0.492539	0.425924
O7	O	0.985551	0.237097	-0.074060
O8	O	1.485551	0.737097	0.425940
O9	O	0.998937	-0.007443	0.073989
O10	O	1.498937	0.492557	0.573989
O11	O	0.869955	0.121537	0.074002
O12	O	1.369955	0.621537	0.574002
O13	O	1.114513	0.108135	0.073991
O14	O	1.614513	0.608135	0.573991
Zn15	Zn	0.992230	0.114839	0.097505
Zn16	Zn	1.492230	0.614839	0.597505
Zn17	Zn	0.992257	0.114815	-0.097576
Zn18	Zn	1.492257	0.614815	0.402424
O19	O	0.985530	0.237116	0.074004
O20	O	1.485530	0.737116	0.574004
C21	C	0.838670	0.120979	-0.000029
C22	C	1.338670	0.620979	0.499971
C23	C	0.745422	0.119334	-0.000025
C24	C	1.245422	0.619334	0.499975
C25	C	0.453871	0.194269	-0.000034
C26	C	0.953871	0.694269	0.499966
C27	C	0.514918	0.155307	-0.073041
C28	C	1.014918	0.655307	0.426959
C29	C	0.409787	0.113358	-0.000046
C30	C	0.909787	0.613358	0.499954
C31	C	0.514884	0.155303	0.072939
C32	C	1.014884	0.655303	0.572939
C33	C	0.574695	0.116299	-0.000034
C34	C	1.074695	0.616299	0.499966
C35	C	0.469606	0.074374	-0.073114
C36	C	0.969606	0.574374	0.426886
C37	C	0.469565	0.074382	0.072931
C38	C	0.969565	0.574382	0.572931
C39	C	0.530595	0.035361	-0.000094
C40	C	1.030595	0.535361	0.499906
C41	C	0.314787	0.111666	-0.000054
C42	C	0.814787	0.611666	0.499946
C43	C	0.669694	0.117984	-0.000033
C44	C	1.169694	0.617984	0.499967
C45	C	0.998400	-0.038747	-0.000047
C46	C	1.498400	0.461253	0.499953
C47	C	0.996757	-0.131995	-0.000059
C48	C	1.496757	0.368005	0.499941
C49	C	1.072679	-0.367769	-0.000045
C50	C	1.572679	0.132231	0.499955
C51	C	1.031747	-0.418339	-0.073046
C52	C	1.531747	0.081661	0.426954
C53	C	0.993713	-0.302716	-0.000048
C54	C	1.493713	0.197284	0.499952
C55	C	1.031709	-0.418297	0.072933
C56	C	1.531709	0.081703	0.572933
C57	C	0.990778	-0.467625	-0.000033
C58	C	1.490778	0.032375	0.499967
C59	C	0.952802	-0.352057	-0.073109
C60	C	1.452802	0.147943	0.426891
C61	C	0.952775	-0.352012	0.072936
C62	C	1.452775	0.147988	0.572936
C63	C	0.911785	-0.402548	-0.000082
C64	C	1.411785	0.097452	0.499918
C65	C	0.995405	-0.207716	-0.000057
C66	C	1.495405	0.292284	0.499943
C67	C	0.989079	-0.562622	-0.000030
C68	C	1.489079	-0.062622	0.499970
C69	C	1.145818	0.108675	-0.000045
C70	C	1.645818	0.608675	0.499955
C71	C	1.239066	0.110320	-0.000054
C72	C	1.739066	0.610320	0.499946
C73	C	0.986088	0.268401	-0.000026
C74	C	1.486088	0.768401	0.499974
C75	C	0.987731	0.361650	-0.000021
C76	C	1.487731	0.861650	0.499979
N77	N	0.992218	0.114855	0.230642
N78	N	1.492218	0.614855	0.730642
N79	N	0.992276	0.114792	-0.230714
N80	N	1.492276	0.614792	0.269286
C81	C	0.932567	0.174468	0.470332
C82	C	1.432567	0.674468	0.970332
C83	C	1.008466	0.190761	0.529664
C84	C	1.508466	0.690761	1.029664
C85	C	0.992240	0.114834	0.412249
C86	C	1.492240	0.614834	0.912249
C87	C	0.916361	0.098560	0.529659
C88	C	1.416361	0.598560	1.029659
C89	C	0.992254	0.114816	0.587673
C90	C	1.492254	0.614816	1.087673
C91	C	1.068177	0.131165	0.470275
C92	C	1.568177	0.631165	0.970275
C93	C	0.976022	0.038931	0.470264
C94	C	1.476022	0.538931	0.970264
C95	C	1.051976	0.055192	0.529570
C96	C	1.551976	0.555192	1.029570
C97	C	0.992230	0.114847	0.311192
C98	C	1.492230	0.614847	0.811192
C99	C	0.992272	0.114803	0.688728
C100	C	1.492272	0.614803	1.188728
H101	H	0.534943	0.189546	0.134658
H102	H	1.034943	0.689546	0.634658
H103	H	1.140699	-0.352153	-0.000122
H104	H	1.640699	0.147847	0.499878
H105	H	0.852187	0.084803	0.555746
H106	H	1.352187	0.584803	1.055746
H107	H	0.420527	0.261416	-0.000100
H108	H	0.920527	0.761416	0.499900
O109	O	1.112309	-0.004996	0.560264
O110	O	1.612309	0.495004	1.060264
C111	C	1.223158	-0.114812	0.522560
C112	C	1.723158	0.385188	1.022560
C113	C	1.154873	-0.046673	0.487677
C114	C	1.654873	0.453327	0.987677
H115	H	1.257577	-0.148539	0.463891
H116	H	1.757577	0.351461	0.963891
H117	H	1.270188	-0.083949	0.565254
H118	H	1.770188	0.416051	1.065254
H119	H	1.192213	-0.162436	0.564369
H120	H	1.692213	0.337564	1.064369
H121	H	1.185744	0.000972	0.445830
H122	H	1.685744	0.500972	0.945830
H123	H	1.107850	-0.077595	0.445031
H124	H	1.607850	0.422405	0.945031
H125	H	0.449643	0.040176	-0.134905
H126	H	0.949643	0.540176	0.365095
H127	H	0.919446	-0.323037	0.134660
H128	H	1.419446	0.176963	0.634660
H129	H	0.843713	-0.418002	-0.000119
H130	H	1.343713	0.081998	0.499881
O131	O	1.071600	-0.452760	-0.146704
O132	O	1.571600	0.047240	0.353296
C133	C	1.146844	-0.427592	-0.281457
C134	C	1.646844	0.072408	0.218543
C135	C	1.101745	-0.388506	-0.198072
C136	C	1.601745	0.111494	0.301928
H137	H	1.171214	-0.375659	-0.323021
H138	H	1.671214	0.124341	0.176979
H139	H	1.202116	-0.475155	-0.260449
H140	H	1.702116	0.024845	0.239551
H141	H	1.100531	-0.460899	-0.322666
H142	H	1.600531	0.039101	0.177334
H143	H	1.147993	-0.355155	-0.156827
H144	H	1.647993	0.144845	0.343173
H145	H	1.046461	-0.340987	-0.219142
H146	H	1.546461	0.159013	0.280858
O147	O	0.445225	0.033669	0.146461
O148	O	0.945225	0.533669	0.646461
C149	C	0.377916	-0.083013	0.203712
C150	C	0.877916	0.416987	0.703712
C151	C	0.405660	-0.037139	0.120362
C152	C	0.905660	0.462861	0.620362
H153	H	0.345906	-0.140260	0.182641
H154	H	0.845906	0.359740	0.682641
H155	H	0.435547	-0.104549	0.246277
H156	H	0.935547	0.395451	0.746277
H157	H	0.331700	-0.038146	0.243930
H158	H	0.831700	0.461854	0.743930
H159	H	0.451857	-0.081956	0.080075
H160	H	0.951857	0.418044	0.580075
H161	H	0.347989	-0.015588	0.077862
H162	H	0.847989	0.484412	0.577862
H163	H	0.563787	-0.031847	-0.000137
H164	H	1.063787	0.468153	0.499863
H165	H	0.535018	0.189524	-0.134755
H166	H	1.035018	0.689524	0.365245
H167	H	1.132365	0.144999	0.444300
H168	H	1.632365	0.644999	0.944300
H169	H	0.962269	-0.025230	0.444153
H170	H	1.462269	0.474770	0.944153
H171	H	0.919481	-0.323239	-0.134892
H172	H	1.419481	0.176761	0.365108
O173	O	1.071612	-0.452721	0.146535
O174	O	1.571612	0.047279	0.646535
C175	C	1.201506	-0.474509	0.229654
C176	C	1.701506	0.025491	0.729654
C177	C	1.156405	-0.435467	0.146281
C178	C	1.656405	0.064533	0.646281
H179	H	1.270073	-0.460589	0.229467
H180	H	1.770073	0.039411	0.729467
H181	H	1.168580	-0.446185	0.291902
H182	H	1.668580	0.053815	0.791902
H183	H	1.199262	-0.545718	0.229284
H184	H	1.699262	-0.045718	0.729284
H185	H	1.158636	-0.364259	0.146565
H186	H	1.658636	0.135741	0.646565
H187	H	1.189343	-0.463856	0.084071
H188	H	1.689343	0.036144	0.584071
O189	O	0.872517	0.234784	0.439332
O190	O	1.372517	0.734784	0.939332
C191	C	0.821780	0.382948	0.434474
C192	C	1.321780	0.882948	0.934474
C193	C	0.889846	0.314728	0.469625
C194	C	1.389846	0.814728	0.969625
H195	H	0.835757	0.447597	0.458967
H196	H	1.335757	0.947597	0.958967
H197	H	0.821931	0.382063	0.358585
H198	H	1.321931	0.882063	0.858585
H199	H	0.757221	0.369675	0.459899
H200	H	1.257221	0.869675	0.959899
H201	H	0.954439	0.327955	0.444266
H202	H	1.454439	0.827955	0.944266
H203	H	0.889621	0.315630	0.545512
H204	H	1.389621	0.815630	1.045512
O205	O	1.024869	0.267264	0.560950
O206	O	1.524869	0.767264	1.060950
C207	C	1.043900	0.352725	0.690114
C208	C	1.543900	0.852725	1.190114
C209	C	1.025348	0.266038	0.654805
C210	C	1.525348	0.766038	1.154805
H211	H	1.044276	0.351768	0.766000
H212	H	1.544276	0.851768	1.266000
H213	H	1.108122	0.367110	0.664739
H214	H	1.608122	0.867110	1.164739
H215	H	0.992974	0.403497	0.665734
H216	H	1.492974	0.903497	1.165734
H217	H	1.076220	0.215210	0.679171
H218	H	1.576220	0.715210	1.179171
H219	H	0.961101	0.251725	0.680174
H220	H	1.461101	0.751725	1.180174
