data_functionalizedCrystal
_audit_creation_method	'MofGen! by Chris Wilmer'
_symmetry_space_group_name_H-M	'P1'
_symmetry_Int_Tables_number	1
_symmetry_cell_setting	triclinic
loop_
_symmetry_equiv_pos_as_xyz
  x,y,z
_cell_length_a	17.699097
_cell_length_b	10.489741
_cell_length_c	16.776229
_cell_angle_alpha	90.006341
_cell_angle_beta	90.010738
_cell_angle_gamma	83.913802
loop_
_atom_site_label
_atom_site_type_symbol
_atom_site_fract_x
_atom_site_fract_y
_atom_site_fract_z
O1	O	1.005128	0.161376	0.066354
O2	O	0.784888	0.182343	0.066341
O3	O	0.900019	-0.013831	0.066343
O4	O	0.889996	0.357550	0.066352
O5	O	0.900004	-0.013843	-0.066233
O6	O	0.784872	0.182331	-0.066235
O7	O	1.005112	0.161364	-0.066222
Zn8	Zn	0.894990	0.171846	-0.087278
Zn9	Zn	0.895010	0.171862	0.087397
O10	O	0.889981	0.357538	-0.066225
C11	C	0.756678	0.181583	0.000051
C12	C	0.672646	0.179321	0.000046
C13	C	0.156846	0.165459	0.072345
C14	C	0.235804	0.167576	0.072341
C15	C	0.275268	0.168630	0.000071
C16	C	0.235771	0.167554	-0.072201
C17	C	0.156815	0.165428	-0.072196
C18	C	0.554192	0.176127	-0.072221
C19	C	0.633153	0.178258	-0.072221
C20	C	0.633180	0.178276	0.072316
C21	C	0.554224	0.176150	0.072321
C22	C	0.514734	0.175067	0.000050
C23	C	0.429119	0.172769	0.000055
C24	C	0.360881	0.170938	0.000065
C25	C	0.899255	-0.061354	0.000055
C26	C	0.896990	-0.202942	0.000057
C27	C	0.823735	-0.269727	0.000058
C28	C	0.858332	-0.362495	-0.065307
C29	C	0.858365	-0.362459	0.065403
C30	C	0.931617	-0.293846	-0.065362
C31	C	0.931640	-0.293799	0.065406
C32	C	0.966290	-0.386541	0.000025
C33	C	1.033322	0.162124	0.000069
C34	C	1.117354	0.164387	0.000080
C35	C	0.890746	0.405062	0.000065
C36	C	0.893011	0.546650	0.000069
N37	N	0.894982	0.171834	-0.206490
C38	C	0.945978	0.085004	-0.248206
C39	C	0.945982	0.085003	-0.331658
C40	C	0.894993	0.171839	-0.373392
C41	C	0.843991	0.258674	-0.331670
C42	C	0.843984	0.258668	-0.248220
C43	C	0.844019	0.258699	-0.668218
C44	C	0.844032	0.258701	-0.751674
C45	C	0.946017	0.085034	-0.751656
C46	C	0.946009	0.085028	-0.668205
C47	C	0.895005	0.171857	-0.626490
C48	C	0.895001	0.171856	-0.536002
C49	C	0.895001	0.171848	-0.463879
N50	N	0.895025	0.171863	0.206608
H51	H	0.522095	0.175298	0.131171
H52	H	0.802457	0.329372	-0.214255
Cl53	Cl	0.810501	-0.409404	0.150717
H54	H	0.522050	0.175227	-0.131069
H55	H	0.124719	0.164610	0.131197
H56	H	0.987502	0.014297	-0.214231
H57	H	0.124662	0.164568	-0.131042
Cl58	Cl	1.010134	-0.024130	-0.804102
H59	H	0.802508	0.329416	-0.785653
Cl60	Cl	0.979465	-0.246739	0.150736
H61	H	0.665342	0.179152	0.131163
Cl62	Cl	0.730746	-0.191348	-0.000044
H63	H	0.802491	0.329401	-0.634260
H64	H	0.802472	0.329373	-0.365655
Cl65	Cl	0.682764	0.179580	-0.163082
Cl66	Cl	0.979423	-0.247144	-0.150777
H67	H	0.987506	0.014298	-0.365623
H68	H	0.267910	0.168404	-0.131045
Cl69	Cl	0.810470	-0.409499	-0.150632
H70	H	0.267955	0.168441	0.131188
Cl71	Cl	1.010114	-0.024137	-0.615742
H72	H	1.026574	-0.437080	-0.000007
