data_functionalizedCrystal
_audit_creation_method	'MofGen! by Chris Wilmer'
_symmetry_space_group_name_H-M	'P1'
_symmetry_Int_Tables_number	1
_symmetry_cell_setting	triclinic
loop_
_symmetry_equiv_pos_as_xyz
  x,y,z
_cell_length_a	25.639242
_cell_length_b	25.639240
_cell_length_c	16.625539
_cell_angle_alpha	89.961562
_cell_angle_beta	89.978462
_cell_angle_gamma	90.025061
loop_
_atom_site_label
_atom_site_type_symbol
_atom_site_fract_x
_atom_site_fract_y
_atom_site_fract_z
Zn1	Zn	0.799284	-0.208257	-0.455873
Zn2	Zn	0.799205	-0.295695	-0.321017
Zn3	Zn	0.711849	-0.208264	-0.321052
Zn4	Zn	0.711814	-0.295652	-0.455804
O5	O	0.755538	-0.251967	-0.388436
O6	O	0.872438	-0.219871	-0.437999
O7	O	0.787599	-0.284118	-0.208189
O8	O	0.723495	-0.135098	-0.338979
O9	O	0.872381	-0.284112	-0.338920
O10	O	0.787733	-0.135093	-0.438032
O11	O	0.723419	-0.219883	-0.208214
O12	O	0.638679	-0.219841	-0.338913
O13	O	0.723435	-0.284038	-0.568646
O14	O	0.638654	-0.284044	-0.437915
O15	O	0.787699	-0.219829	-0.568697
O16	O	0.787565	-0.368855	-0.338853
O17	O	0.723359	-0.368823	-0.437881
C18	C	0.619695	-0.251939	-0.388410
C19	C	0.561581	-0.251939	-0.388418
C20	C	0.310426	-0.218576	-0.440121
C21	C	0.365030	-0.218571	-0.440116
O22	O	0.393299	-0.190182	-0.484070
N23	N	0.392308	-0.251961	-0.388446
C24	C	0.364978	-0.285362	-0.336782
O25	O	0.393193	-0.313762	-0.292833
C26	C	0.310374	-0.285369	-0.336791
C27	C	0.283100	-0.251973	-0.388460
C28	C	0.283152	-0.185184	-0.491785
C29	C	0.228551	-0.185189	-0.491789
C30	C	0.201225	-0.218586	-0.440127
C31	C	0.228499	-0.251978	-0.388463
C32	C	0.283045	-0.318772	-0.285133
C33	C	0.228438	-0.318777	-0.285147
C34	C	0.201164	-0.285381	-0.336815
C35	C	0.146573	-0.285380	-0.336805
N36	N	0.119295	-0.251990	-0.388475
C37	C	0.146622	-0.218593	-0.440137
C38	C	0.479648	-0.285344	-0.336768
C39	C	0.534251	-0.285334	-0.336754
C40	C	0.534300	-0.218545	-0.440089
C41	C	0.479696	-0.218552	-0.440098
C42	C	0.452371	-0.251955	-0.388438
C43	C	0.031957	-0.218605	-0.440139
C44	C	-0.022649	-0.218611	-0.440136
C45	C	-0.022693	-0.285402	-0.336804
C46	C	0.031907	-0.285395	-0.336804
C47	C	0.059231	-0.251994	-0.388478
O48	O	0.118269	-0.313756	-0.292876
O49	O	0.118400	-0.190202	-0.484086
C50	C	0.755464	-0.387810	-0.388373
C51	C	0.755480	-0.445924	-0.388373
C52	C	0.789003	-0.806246	-0.440106
C53	C	0.789019	-0.860850	-0.440123
O54	O	0.817433	-0.889052	-0.484043
N55	N	0.755611	-0.888206	-0.388514
C56	C	0.722181	-0.860955	-0.336892
O57	O	0.693766	-0.889237	-0.292997
C58	C	0.722163	-0.806352	-0.336880
C59	C	0.755577	-0.778998	-0.388486
C60	C	0.822414	-0.778892	-0.491709
C61	C	0.822399	-0.724292	-0.491691
C62	C	0.788974	-0.697045	-0.440071
C63	C	0.755563	-0.724398	-0.388469
C64	C	0.688732	-0.779102	-0.285263
C65	C	0.688717	-0.724495	-0.285256
C66	C	0.722131	-0.697141	-0.336862
C67	C	0.722122	-0.642550	-0.336831
N68	N	0.755530	-0.615194	-0.388439
C69	C	0.788956	-0.642441	-0.440059
C70	C	0.722220	-0.975626	-0.336922
C71	C	0.722240	-1.030228	-0.336929
C72	C	0.789077	-1.030119	-0.440161
C73	C	0.789059	-0.975516	-0.440149
C74	C	0.755628	-0.948269	-0.388530
C75	C	0.788922	-0.527776	-0.440018
C76	C	0.788906	-0.473171	-0.439993
C77	C	0.722067	-0.473284	-0.336765
C78	C	0.722085	-0.527885	-0.336786
C79	C	0.755515	-0.555130	-0.388419
O80	O	0.693720	-0.614313	-0.292935
O81	O	0.817361	-0.614152	-0.483954
C82	C	0.891911	-0.251996	-0.388463
C83	C	0.950025	-0.252008	-0.388474
C84	C	0.755572	-0.251928	-0.598745
C85	C	0.755586	-0.251911	-0.688367
C86	C	0.755626	-0.115594	-0.388518
C87	C	0.755664	-0.057480	-0.388552
C88	C	0.755611	-0.251853	-1.016543
C89	C	0.755602	-0.251871	-0.925234
C90	C	0.755599	-0.251883	-0.852457
C91	C	0.755590	-0.251900	-0.761143
C92	C	0.755534	-0.251968	-0.178946
C93	C	0.755621	-0.251837	-0.089325
H94	H	0.556558	-0.191351	-0.482155
O95	O	0.656186	-0.698004	-0.235226
C96	C	0.585601	-0.636391	-0.224258
C97	C	0.622399	-0.666367	-0.281009
H98	H	0.558283	-0.610797	-0.261250
H99	H	0.561686	-0.665300	-0.187394
H100	H	0.609622	-0.610857	-0.182106
H101	H	0.598418	-0.691902	-0.323210
H102	H	0.646316	-0.637430	-0.317816
H103	H	0.695036	-1.052494	-0.294897
H104	H	0.305395	-0.157988	-0.533858
H105	H	0.457493	-0.191358	-0.482170
O106	O	0.689675	-0.949218	-0.286807
C107	C	0.600746	-0.932586	-0.247555
C108	C	0.637544	-0.962530	-0.304345
H109	H	0.558590	-0.943329	-0.261726
H110	H	0.609915	-0.943364	-0.182545
H111	H	0.606495	-0.888862	-0.256390
H112	H	0.631816	-1.006260	-0.295583
H113	H	0.628366	-0.951709	-0.369335
H114	H	0.206193	-0.345979	-0.243080
O115	O	0.560661	-0.317820	-0.286531
C116	C	0.554834	-0.384045	-0.184005
C117	C	0.524862	-0.347286	-0.240852
H118	H	0.525904	-0.407870	-0.147046
H119	H	0.580384	-0.411449	-0.220898
H120	H	0.580409	-0.359997	-0.141946
H121	H	0.499259	-0.371292	-0.282922
H122	H	0.499346	-0.319880	-0.203909
O123	O	0.821470	-1.056616	-0.490397
C124	C	0.828472	-1.118229	-0.599247
C125	C	0.791730	-1.088244	-0.542422
H126	H	0.804443	-1.143816	-0.641311
H127	H	0.852341	-1.089326	-0.636193
H128	H	0.855841	-1.143771	-0.562258
H129	H	0.764330	-1.062701	-0.579348
H130	H	0.767898	-1.117175	-0.505473
H131	H	0.661522	-0.801363	-0.243239
O132	O	0.453083	-0.317844	-0.286688
C133	C	0.391394	-0.388419	-0.275619
C134	C	0.421451	-0.351653	-0.332423
H135	H	0.365804	-0.415755	-0.312572
H136	H	0.420251	-0.412317	-0.238705
H137	H	0.365849	-0.364373	-0.233516
H138	H	0.446997	-0.375658	-0.374576
H139	H	0.392566	-0.327753	-0.369280
O140	O	0.821457	-0.948970	-0.490399
C141	C	0.846800	-0.932206	-0.627589
C142	C	0.810069	-0.962289	-0.570768
H143	H	0.837613	-0.942972	-0.692578
H144	H	0.841046	-0.888492	-0.618792
H145	H	0.888964	-0.942911	-0.613452
H146	H	0.767890	-0.951627	-0.584870
H147	H	0.815868	-1.005996	-0.579576
O148	O	0.689581	-0.554378	-0.286627
C149	C	0.623306	-0.548717	-0.184204
C150	C	0.660087	-0.518653	-0.240974
H151	H	0.599458	-0.519846	-0.147267
H152	H	0.595924	-0.574261	-0.221156
H153	H	0.647338	-0.574305	-0.142122
H154	H	0.636097	-0.493036	-0.283067
H155	H	0.687470	-0.493142	-0.203972
O156	O	0.309450	-0.351264	-0.234918
C157	C	0.303615	-0.417496	-0.132404
C158	C	0.273648	-0.380731	-0.189247
H159	H	0.274682	-0.441322	-0.095453
H160	H	0.329165	-0.444899	-0.169298
H161	H	0.329189	-0.393452	-0.090338
H162	H	0.248045	-0.404732	-0.231325
H163	H	0.248131	-0.353326	-0.152303
H164	H	0.849606	-0.702024	-0.533715
O165	O	0.689615	-0.446730	-0.286700
C166	C	0.659994	-0.362652	-0.240913
C167	C	0.696767	-0.392661	-0.297659
H168	H	0.665771	-0.318932	-0.249741
H169	H	0.617821	-0.373370	-0.255020
H170	H	0.669191	-0.373444	-0.175918
H171	H	0.687617	-0.381885	-0.362672
H172	H	0.738929	-0.381940	-0.283482
O173	O	0.058324	-0.317883	-0.286588
C174	C	0.052506	-0.384114	-0.184072
C175	C	0.022530	-0.347350	-0.240904
H176	H	0.023579	-0.407941	-0.147110
H177	H	0.078050	-0.411517	-0.220975
H178	H	0.078086	-0.360071	-0.142016
H179	H	-0.003079	-0.371352	-0.282972
H180	H	-0.002982	-0.319946	-0.203951
H181	H	-0.044853	-0.191414	-0.482210
O182	O	0.058550	-0.186133	-0.490221
C183	C	0.120190	-0.115515	-0.501277
C184	C	0.090116	-0.152267	-0.444476
H185	H	0.145710	-0.088118	-0.464314
H186	H	0.145793	-0.139517	-0.543358
H187	H	0.091299	-0.091676	-0.538215
H188	H	0.118969	-0.176114	-0.407485
H189	H	0.064505	-0.128235	-0.402447
H190	H	-0.044952	-0.312591	-0.294739
O191	O	0.821381	-0.446681	-0.490204
C192	C	0.887697	-0.452346	-0.592565
C193	C	0.850940	-0.482408	-0.535757
H194	H	0.911612	-0.481218	-0.629397
H195	H	0.863695	-0.426790	-0.634738
H196	H	0.915021	-0.426770	-0.555568
H197	H	0.823608	-0.508013	-0.572688
H198	H	0.874974	-0.507931	-0.493581
H199	H	0.816140	-0.549952	-0.482068
O200	O	0.202141	-0.152735	-0.542061
C201	C	0.207974	-0.086470	-0.644524
C202	C	0.237942	-0.123206	-0.587640
H203	H	0.236905	-0.062578	-0.681377
H204	H	0.182430	-0.110486	-0.686674
H205	H	0.182393	-0.059122	-0.607586
H206	H	0.263552	-0.150561	-0.624512
H207	H	0.263452	-0.099157	-0.545488
H208	H	0.849633	-0.801071	-0.533749
