data_functionalizedCrystal
_audit_creation_method	'MofGen! by Chris Wilmer'
_symmetry_space_group_name_H-M	'P1'
_symmetry_Int_Tables_number	1
_symmetry_cell_setting	triclinic
loop_
_symmetry_equiv_pos_as_xyz
  x,y,z
_cell_length_a	10.686220
_cell_length_b	18.050589
_cell_length_c	10.686551
_cell_angle_alpha	85.596139
_cell_angle_beta	90.308082
_cell_angle_gamma	94.409750
loop_
_atom_site_label
_atom_site_type_symbol
_atom_site_fract_x
_atom_site_fract_y
_atom_site_fract_z
Zn1	Zn	1.972217	-0.181059	-0.562396
Zn2	Zn	1.955936	-0.315479	-0.352644
Zn3	Zn	1.746328	-0.200057	-0.368714
Zn4	Zn	1.762366	-0.313974	-0.578422
O5	O	1.859212	-0.252642	-0.465544
O6	O	2.145602	-0.191569	-0.521139
O7	O	1.914605	-0.308749	-0.179231
O8	O	1.776395	-0.093607	-0.394425
O9	O	2.133640	-0.290327	-0.367036
O10	O	1.942354	-0.079649	-0.536722
O11	O	1.760607	-0.223949	-0.191038
O12	O	1.572911	-0.222489	-0.409965
O13	O	1.803729	-0.287762	-0.751841
O14	O	1.584694	-0.306184	-0.564036
O15	O	1.957906	-0.190110	-0.740067
O16	O	1.930156	-0.419209	-0.382576
O17	O	1.787942	-0.418104	-0.548454
C18	C	1.533286	-0.266235	-0.490484
C19	C	1.393856	-0.272067	-0.501183
C20	C	1.859059	-0.445602	-0.465535
C21	C	1.859111	-0.528144	-0.465564
C22	C	1.781855	-0.727018	-0.555733
C23	C	1.742482	-0.783311	-0.443604
C24	C	1.859236	-0.679268	-0.465571
C25	C	1.898671	-0.770054	-0.577708
C26	C	1.859354	-0.825247	-0.465588
C27	C	1.819798	-0.734480	-0.353387
C28	C	1.976046	-0.721212	-0.487563
C29	C	1.936711	-0.777484	-0.375352
C30	C	1.859164	-0.595174	-0.465563
C31	C	1.859425	-0.909341	-0.465583
C32	C	2.186411	-0.238997	-0.440508
C33	C	2.325843	-0.233182	-0.429838
C34	C	1.884423	-0.236649	-0.792743
C35	C	1.895166	-0.229833	-0.932176
C36	C	1.859402	-0.058926	-0.465578
C37	C	1.859483	0.023624	-0.465593
C38	C	1.834171	-0.268517	-0.139612
C39	C	1.823671	-0.275113	-0.000161
H40	H	1.374283	-0.195430	-0.360571
H41	H	2.074755	-0.694126	-0.506203
C42	C	1.729870	-0.334529	-0.934698
C43	C	1.624552	-0.310807	-0.852129
C44	C	1.530750	-0.370224	-0.786657
C45	C	1.542266	-0.453363	-0.803752
C46	C	1.647589	-0.477089	-0.886324
C47	C	1.741391	-0.417672	-0.951797
H48	H	1.616023	-0.249259	-0.839471
H49	H	1.452783	-0.352661	-0.725531
H50	H	1.472828	-0.497347	-0.755285
H51	H	1.656117	-0.538637	-0.898983
H52	H	1.819358	-0.435236	-1.012922
C53	C	1.328421	-0.323076	-0.594763
C54	C	1.234069	-0.387726	-0.547074
C55	C	1.168634	-0.438733	-0.640652
C56	C	1.197551	-0.425091	-0.781918
C57	C	1.291908	-0.360438	-0.829614
C58	C	1.357342	-0.309430	-0.736036
H59	H	1.212659	-0.397827	-0.442494
H60	H	1.098786	-0.486594	-0.605344
H61	H	1.149113	-0.462850	-0.851190
H62	H	1.313318	-0.350337	-0.934194
H63	H	1.427191	-0.261570	-0.771344
C64	C	1.988972	-0.170414	-0.997645
C65	C	1.999956	-0.163448	-1.141759
C66	C	2.093759	-0.104030	-1.207228
C67	C	2.176579	-0.051578	-1.128582
C68	C	2.165598	-0.058543	-0.984459
C69	C	2.071794	-0.117961	-0.918991
H70	H	1.938645	-0.202277	-1.199985
H71	H	2.101887	-0.098874	-1.313918
H72	H	2.246018	-0.007593	-1.177046
H73	H	2.226909	-0.019713	-0.926233
H74	H	2.063666	-0.123116	-0.812301
H75	H	1.716305	-0.704886	-0.631887
H76	H	1.931977	-0.785908	-0.672534
C77	C	1.609106	-0.819887	-0.418469
C78	C	1.501473	-0.801222	-0.509070
C79	C	1.368095	-0.837795	-0.483945
C80	C	1.342349	-0.893032	-0.368220
C81	C	1.449985	-0.911700	-0.277612
C82	C	1.583363	-0.875127	-0.302736
H83	H	1.520528	-0.760329	-0.594744
H84	H	1.288416	-0.823975	-0.551020
H85	H	1.243615	-0.920106	-0.349621
H86	H	1.430930	-0.952593	-0.191938
H87	H	1.663042	-0.888947	-0.235661
C88	C	1.774657	-0.713197	-0.225252
C89	C	1.766207	-0.630645	-0.201581
C90	C	1.721070	-0.609361	-0.073450
C91	C	1.684381	-0.670629	0.031011
C92	C	1.692830	-0.753186	0.007344
C93	C	1.737968	-0.774470	-0.120788
H94	H	1.793367	-0.585287	-0.278912
H95	H	1.714815	-0.548247	-0.055930
H96	H	1.650968	-0.654874	0.125862
H97	H	1.665671	-0.798545	0.084674
H98	H	1.744222	-0.835585	-0.138308
H99	H	2.002194	-0.799490	-0.299031
