data_functionalizedCrystal
_audit_creation_method	'MofGen! by Chris Wilmer'
_symmetry_space_group_name_H-M	'P1'
_symmetry_Int_Tables_number	1
_symmetry_cell_setting	triclinic
loop_
_symmetry_equiv_pos_as_xyz
  x,y,z
_cell_length_a	14.809374
_cell_length_b	31.640172
_cell_length_c	14.809374
_cell_angle_alpha	98.956242
_cell_angle_beta	73.428020
_cell_angle_gamma	52.844670
loop_
_atom_site_label
_atom_site_type_symbol
_atom_site_fract_x
_atom_site_fract_y
_atom_site_fract_z
Zr1	Zr	1.000479	0.355039	-0.008414
O2	O	1.191207	0.268640	-0.133154
O3	O	0.809765	0.387264	0.015096
O4	O	1.000476	0.365097	-0.154372
O5	O	1.000493	0.301764	0.186748
O6	O	1.000457	0.434657	-0.154354
O7	O	1.000496	0.290807	0.036314
O8	O	0.659310	0.474308	0.148793
O9	O	1.341641	0.262113	-0.116399
O10	O	0.888189	0.445985	0.042931
O11	O	0.888201	0.402252	0.155186
O12	O	1.112738	0.376153	-0.044341
O13	O	1.112750	0.332420	0.067913
Zr14	Zr	1.000444	0.483455	0.231539
Zr15	Zr	1.000449	0.465978	-0.008386
Zr16	Zr	1.000474	0.372516	0.231511
Zr17	Zr	1.240402	0.344629	0.018308
Zr18	Zr	0.760520	0.493866	0.204817
O19	O	1.191158	0.451230	0.208029
O20	O	1.191164	0.426381	-0.133114
O21	O	1.191201	0.293489	0.207989
O22	O	0.809715	0.569854	0.356279
O23	O	0.809722	0.545005	0.015137
O24	O	0.809758	0.412113	0.356239
O25	O	1.000429	0.536730	0.036377
O26	O	1.000447	0.473397	0.377497
O27	O	1.000466	0.403837	0.377479
O28	O	1.000426	0.547687	0.186811
O29	O	1.341617	0.350294	-0.116377
O30	O	0.659306	0.488200	0.339502
O31	O	0.659282	0.576381	0.339525
O32	O	0.659286	0.562490	0.148816
O33	O	1.341637	0.276004	0.074309
O34	O	1.341613	0.364186	0.074332
O35	O	0.888184	0.462341	0.267466
O36	O	0.888172	0.506074	0.155212
O37	O	1.112722	0.436242	0.067940
O38	O	1.112734	0.392509	0.180194
C39	C	1.000499	0.280479	0.111527
C40	C	1.000512	0.233383	0.111515
C41	C	0.700353	0.432269	0.078137
C42	C	0.598500	0.436689	0.066793
C43	C	0.553096	0.416965	0.117421
C44	C	0.447824	0.421532	0.105697
C45	C	0.883237	-0.022164	0.157139
C46	C	0.883214	-0.199146	0.157159
O47	O	0.783528	-0.191028	0.195943
N48	N	1.000426	-0.257727	0.111602
C49	C	1.117652	-0.272063	0.066043
O50	O	1.217347	-0.325950	0.027303
C51	C	1.117673	-0.095080	0.066030
C52	C	1.000453	-0.036499	0.111581
C53	C	0.766027	0.036414	0.202687
C54	C	0.766033	0.080657	0.202677
C55	C	0.883250	0.066321	0.157119
C56	C	1.000460	0.007743	0.111570
C57	C	1.234897	-0.109415	0.020478
C58	C	1.234892	-0.065163	0.020481
C59	C	1.117672	-0.006583	0.066032
C60	C	1.117683	0.037650	0.066002
N61	N	1.000472	0.096231	0.111559
C62	C	0.883255	0.110567	0.157117
C63	C	1.117632	-0.364979	0.066051
C64	C	1.117627	-0.409224	0.066052
C65	C	0.883189	-0.336304	0.157170
C66	C	0.883196	-0.292059	0.157162
C67	C	1.000420	-0.306397	0.111608
C68	C	0.883278	0.203476	0.157091
C69	C	0.883295	0.247718	0.157073
C70	C	1.117732	0.174795	0.065960
C71	C	1.117716	0.130556	0.065973
C72	C	1.000478	0.144901	0.111546
O73	O	1.217317	0.029576	0.027248
O74	O	0.783575	0.164458	0.195871
C75	C	0.883230	-0.066406	0.157150
C76	C	1.000440	-0.124984	0.111602
C77	C	1.117656	-0.139319	0.066043
C78	C	1.000435	-0.169229	0.111603
C79	C	0.883218	-0.154894	0.157161
C80	C	0.766006	-0.096312	0.202718
C81	C	0.766013	-0.052070	0.202708
C82	C	1.234868	-0.197901	0.020486
C83	C	1.234852	-0.242140	0.020499
C84	C	1.117635	-0.227804	0.066057
C85	C	1.300569	0.406225	0.144988
C86	C	1.402423	0.401805	0.156332
C87	C	1.000467	0.397387	-0.188547
C88	C	1.000469	0.389968	-0.290402
C89	C	1.000423	0.558015	0.111598
C90	C	1.000411	0.605111	0.111610
C91	C	1.000460	0.423078	-0.335803
C92	C	1.000462	0.415411	-0.441075
C93	C	1.000455	0.441107	0.411673
C94	C	1.000453	0.448526	0.513527
C95	C	0.700316	0.571037	0.078173
C96	C	0.598449	0.622554	0.066841
C97	C	0.700347	0.454129	0.378247
C98	C	0.598492	0.465968	0.468757
C99	C	0.700310	0.592897	0.378283
C100	C	0.598441	0.651833	0.468805
C101	C	1.300613	0.245597	-0.155158
C102	C	1.402482	0.186661	-0.245680
C103	C	1.300607	0.267457	0.144952
C104	C	1.402474	0.215940	0.156284
C105	C	1.300575	0.384365	-0.155122
C106	C	1.402431	0.372526	-0.245632
C107	C	0.550620	0.615380	0.002900
C108	C	0.454918	0.663778	-0.007769
C109	C	0.407041	0.719351	0.045510
C110	C	0.454880	0.726523	0.109454
C111	C	0.550586	0.678125	0.120116
C112	C	0.550650	0.502894	0.569882
C113	C	0.454959	0.514016	0.654936
C114	C	0.407105	0.488215	0.638864
C115	C	0.454955	0.451284	0.537730
C116	C	0.550651	0.440159	0.452678
C117	C	0.550596	0.702343	0.452720
C118	C	0.454893	0.757722	0.537768
C119	C	0.407030	0.762590	0.638899
C120	C	0.454884	0.712074	0.654983
C121	C	0.550592	0.656696	0.569937
C122	C	1.450338	0.136151	-0.229594
C123	C	1.546071	0.080771	-0.314638
C124	C	1.593939	0.075902	-0.415769
C125	C	1.546079	0.126418	-0.431854
C126	C	1.450354	0.181797	-0.346810
C127	C	1.450313	0.223113	0.220216
C128	C	1.546041	0.174712	0.230862
C129	C	1.593921	0.119139	0.177580
C130	C	1.546078	0.111966	0.113640
C131	C	1.450358	0.160367	0.102989
C132	C	1.450255	0.398336	-0.229528
C133	C	1.545947	0.387224	-0.314564
C134	C	1.593819	0.350297	-0.415703
C135	C	1.545986	0.324486	-0.431807
C136	C	1.450289	0.335602	-0.346772
H137	H	0.408770	0.441799	0.053665
C138	C	0.402196	0.787656	0.168064
H139	H	0.338336	0.815450	0.152560
H140	H	0.470880	0.786461	0.146792
H141	H	0.364836	0.798777	0.241011
H142	H	0.441488	0.381532	0.208355
C143	C	1.397708	0.307200	-0.364499
H144	H	1.439941	0.283612	-0.436913
H145	H	1.307348	0.337041	-0.339665
H146	H	1.413425	0.283410	-0.327871
C147	C	1.397714	0.141494	-0.118359
H148	H	1.439951	0.103475	-0.120972
H149	H	1.307358	0.164443	-0.088638
H150	H	1.413404	0.159848	-0.076847
H151	H	0.415980	0.657927	-0.059838
H152	H	1.000437	0.482554	-0.447408
C153	C	0.301755	0.823506	0.732444
H154	H	0.280103	0.819175	0.794984
H155	H	0.227087	0.846766	0.724132
H156	H	0.333146	0.842155	0.735933
H157	H	0.589516	0.683975	0.172189
C158	C	0.402305	0.422908	0.520058
H159	H	0.444502	0.399318	0.447651
H160	H	0.311944	0.452766	0.544911
H161	H	0.418006	0.399126	0.556699
H162	H	0.787747	-0.324639	0.194259
C163	C	1.598746	0.050836	0.055044
H164	H	1.662592	0.023044	0.070560
H165	H	1.636089	0.039707	-0.017901
H166	H	1.530041	0.052042	0.076347
H167	H	0.592164	0.396694	0.169440
H168	H	1.411293	0.428404	-0.147181
C169	C	0.402258	0.813280	0.520056
H170	H	0.444459	0.802446	0.447643
H171	H	0.417943	0.833534	0.556688
H172	H	0.311894	0.838132	0.544896
H173	H	0.559442	0.456955	0.014764
C174	C	0.603290	0.531272	0.587583
H175	H	0.561095	0.554849	0.659997
H176	H	0.587604	0.555057	0.550955
H177	H	0.693655	0.501411	0.562739
C178	C	1.397727	0.152474	0.032675
H179	H	1.333865	0.189255	0.033952
H180	H	1.360412	0.137811	0.057462
H181	H	1.466444	0.125489	-0.036782
C182	C	0.301833	0.500460	0.732427
H183	H	0.280192	0.526153	0.794951
H184	H	0.333198	0.464580	0.735930
H185	H	0.227147	0.518217	0.724129
C186	C	0.754349	0.312157	0.207188
H187	H	0.684541	0.314355	0.234332
H188	H	0.749470	0.327071	0.156065
H189	H	0.749480	0.334796	0.262106
H190	H	0.787812	0.215164	0.194202
C191	C	0.402230	0.717433	0.766228
H192	H	0.444433	0.679421	0.763639
H193	H	0.311870	0.740393	0.795933
H194	H	0.417923	0.735786	0.807739
C195	C	1.598561	0.415613	-0.296836
H196	H	1.662401	0.403713	-0.361961
H197	H	1.635900	0.403502	-0.252921
H198	H	1.529833	0.457143	-0.264703
C199	C	0.402330	0.554645	0.766170
H200	H	0.444524	0.568424	0.763550
H201	H	0.418027	0.533478	0.807691
H202	H	0.311964	0.587107	0.795883
C203	C	1.000485	0.344003	-0.343170
H204	H	1.000493	0.344877	-0.407006
H205	H	0.925506	0.352704	-0.298392
H206	H	1.075487	0.306066	-0.356683
H207	H	0.589535	0.615572	0.583048
C208	C	1.598689	0.025213	-0.296929
H209	H	1.556449	0.036049	-0.224520
H210	H	1.689044	0.000359	-0.321748
H211	H	1.583008	0.004961	-0.333581
H212	H	1.213166	0.082854	0.028867
H213	H	1.671884	0.030806	-0.485009
C214	C	0.603260	0.399546	0.341443
H215	H	0.667112	0.396609	0.293083
H216	H	0.534537	0.415302	0.325419
H217	H	0.640608	0.361662	0.337201
C218	C	1.246588	-0.380760	0.015926
H219	H	1.316384	-0.421987	-0.011212
H220	H	1.251481	-0.361156	0.067041
H221	H	1.251464	-0.368881	-0.038997
C222	C	0.637077	0.052193	0.252799
H223	H	0.567284	0.093419	0.279914
H224	H	0.632178	0.040317	0.307718
H225	H	0.632202	0.032588	0.201664
C226	C	0.754256	-0.227623	0.207281
H227	H	0.684452	-0.225428	0.234417
H228	H	0.749374	-0.212705	0.156163
H229	H	0.749384	-0.204986	0.262204
H230	H	0.589600	0.570132	-0.040501
H231	H	0.589552	0.698390	0.370381
H232	H	1.585066	0.122447	-0.514205
H233	H	1.000465	0.381387	-0.480134
H234	H	1.411390	0.222923	-0.359921
C235	C	1.397660	0.284238	0.278835
H236	H	1.439881	0.281568	0.318424
H237	H	1.307304	0.310587	0.324238
H238	H	1.413345	0.298262	0.229998
H239	H	0.670581	0.128353	0.239764
C240	C	1.699093	0.338070	-0.509231
H241	H	1.720722	0.358728	-0.485144
H242	H	1.667737	0.350784	-0.556023
H243	H	1.773785	0.297151	-0.544213
H244	H	1.671862	0.079733	0.186261
H245	H	0.329110	0.758755	0.036820
C246	C	1.598665	0.283864	-0.543061
H247	H	1.662518	0.280938	-0.591388
H248	H	1.529977	0.299604	-0.559127
H249	H	1.636031	0.245977	-0.547309
C250	C	1.598638	0.182613	0.301207
H251	H	1.556391	0.222645	0.331426
H252	H	1.688993	0.158881	0.260696
H253	H	1.582951	0.171197	0.354916
C254	C	0.637068	-0.080547	0.252835
H255	H	0.567251	-0.039323	0.279962
H256	H	0.632204	-0.092430	0.307746
H257	H	0.632200	-0.100158	0.201703
C258	C	1.246568	-0.473659	0.015939
H259	H	1.316372	-0.475853	-0.011183
H260	H	1.251453	-0.496303	-0.038976
H261	H	1.251438	-0.488568	0.067074
H262	H	1.330353	-0.076844	-0.016601
C263	C	1.363841	-0.173844	-0.029620
H264	H	1.433639	-0.176035	-0.056736
H265	H	1.368737	-0.196494	-0.084538
H266	H	1.368708	-0.188751	0.021519
C267	C	1.000445	0.469043	-0.283035
H268	H	1.000453	0.468164	-0.219205
H269	H	0.925457	0.506978	-0.269529
H270	H	1.075437	0.460336	-0.327816
H271	H	1.213167	0.163132	0.028863
H272	H	0.670561	-0.004374	0.239803
H273	H	1.330322	-0.209583	-0.016616
H274	H	1.330313	-0.289840	-0.016604
