data_functionalizedCrystal
_audit_creation_method	'MofGen! by Chris Wilmer'
_symmetry_space_group_name_H-M	'P1'
_symmetry_Int_Tables_number	1
_symmetry_cell_setting	triclinic
loop_
_symmetry_equiv_pos_as_xyz
  x,y,z
_cell_length_a	8.497374
_cell_length_b	8.497374
_cell_length_c	21.295418
_cell_angle_alpha	89.983088
_cell_angle_beta	90.023166
_cell_angle_gamma	90.004389
loop_
_atom_site_label
_atom_site_type_symbol
_atom_site_fract_x
_atom_site_fract_y
_atom_site_fract_z
Zn1	Zn	0.892992	0.627650	0.962356
Zn2	Zn	1.392992	1.127650	1.462356
Zn3	Zn	0.629257	0.891400	0.962351
Zn4	Zn	1.129257	1.391400	1.462351
Zn5	Zn	0.629122	0.627701	0.857117
Zn6	Zn	1.129122	1.127701	1.357117
Zn7	Zn	0.892892	0.891455	0.857103
Zn8	Zn	1.392892	1.391455	1.357103
O9	O	0.761066	0.759552	0.909732
O10	O	1.261066	1.259552	1.409732
O11	O	0.858105	0.662593	1.050445
O12	O	1.358105	1.162593	1.550445
O13	O	0.408477	0.856418	0.948395
O14	O	0.908477	1.356418	1.448395
O15	O	0.664110	0.406932	0.871086
O16	O	1.164110	0.906932	1.371086
O17	O	0.664340	0.856369	1.050441
O18	O	1.164340	1.356369	1.550441
O19	O	0.857974	0.406895	0.948405
O20	O	1.357974	0.906895	1.448405
O21	O	0.408378	0.662679	0.871080
O22	O	0.908378	1.162679	1.371080
O23	O	0.664013	0.662732	0.769026
O24	O	1.164013	1.162732	1.269026
O25	O	1.113667	0.856463	0.871062
O26	O	1.613667	1.356463	1.371062
O27	O	0.857804	0.856512	0.769016
O28	O	1.357804	1.356512	1.269016
O29	O	1.113741	0.662647	0.948391
O30	O	1.613741	1.162647	1.448391
O31	O	0.664244	1.112170	0.948381
O32	O	1.164244	1.612170	1.448381
O33	O	0.857935	1.112210	0.871056
O34	O	1.357935	1.612210	1.371056
C35	C	0.760884	0.759635	0.746180
C36	C	1.260884	1.259635	1.246180
C37	C	0.760844	0.759708	0.676212
C38	C	1.260844	1.259708	1.176212
C39	C	1.351186	0.759577	0.909736
C40	C	1.851186	1.259577	1.409736
C41	C	1.172542	0.759570	0.909729
C42	C	1.672542	1.259570	1.409729
C43	C	0.761088	1.169431	0.909724
C44	C	1.261088	1.669431	1.409724
C45	C	0.761063	1.348075	0.909741
C46	C	1.261063	1.848075	1.409741
C47	C	0.861600	0.860742	0.643357
C48	C	1.361600	1.360742	1.143357
C49	C	0.861671	0.860704	0.577614
C50	C	1.361671	1.360704	1.077614
C51	C	0.760957	0.759647	0.544730
C52	C	1.260957	1.259647	1.044730
C53	C	0.660194	0.658593	0.577593
C54	C	1.160194	1.158593	1.077593
C55	C	0.660138	0.658623	0.643334
C56	C	1.160138	1.158623	1.143334
N57	N	0.622972	0.747287	0.441471
N58	N	1.122972	1.247287	0.941471
N59	N	0.623030	0.747267	0.379019
N60	N	1.123030	1.247267	0.879019
C61	C	0.761125	0.759546	0.346655
C62	C	1.261125	1.259546	0.846655
N63	N	0.899161	0.771877	0.379101
N64	N	1.399161	1.271877	0.879101
N65	N	0.899101	0.771905	0.441558
N66	N	1.399101	1.271905	0.941558
C67	C	0.761008	0.759602	0.473444
C68	C	1.261008	1.259602	0.973444
C69	C	0.861966	0.860544	0.242514
C70	C	1.361966	1.360544	0.742514
C71	C	0.862039	0.860494	0.176770
C72	C	1.362039	1.360494	0.676770
C73	C	0.660549	0.658392	0.176751
C74	C	1.160549	1.158392	0.676751
C75	C	0.660490	0.658433	0.242493
C76	C	1.160490	1.158433	0.742493
C77	C	0.761196	0.759518	0.275371
C78	C	1.261196	1.259518	0.775371
C79	C	0.761249	0.759469	1.073922
C80	C	1.261249	1.259469	1.573922
C81	C	0.761327	0.759434	1.143890
C82	C	1.261327	1.259434	1.643890
H83	H	0.943605	0.943051	0.670121
H84	H	1.443605	1.443051	1.170121
H85	H	0.578196	0.576309	0.550815
H86	H	1.078196	1.076309	1.050815
F87	F	0.969292	0.968026	0.141803
F88	F	1.469292	1.468026	0.641803
F89	F	0.968914	0.968242	0.542639
F90	F	1.468914	1.468242	1.042639
H91	H	0.578435	0.576168	0.269244
H92	H	1.078435	1.076168	0.769244
F93	F	0.553369	0.550830	0.141757
F94	F	1.053369	1.050830	0.641757
H95	H	0.578090	0.576344	0.670085
H96	H	1.078090	1.076344	1.170085
H97	H	0.943975	0.942845	0.269284
H98	H	1.443975	1.442845	0.769284
