data_functionalizedCrystal
_audit_creation_method	'MofGen! by Chris Wilmer'
_symmetry_space_group_name_H-M	'P1'
_symmetry_Int_Tables_number	1
_symmetry_cell_setting	triclinic
loop_
_symmetry_equiv_pos_as_xyz
  x,y,z
_cell_length_a	12.645331
_cell_length_b	12.645330
_cell_length_c	18.215399
_cell_angle_alpha	89.976970
_cell_angle_beta	89.984786
_cell_angle_gamma	90.018103
loop_
_atom_site_label
_atom_site_type_symbol
_atom_site_fract_x
_atom_site_fract_y
_atom_site_fract_z
Zn1	Zn	1.620702	-0.422039	-0.416050
Zn2	Zn	1.620592	-0.599321	-0.292995
Zn3	Zn	1.443425	-0.422073	-0.293008
Zn4	Zn	1.443398	-0.599262	-0.416029
O5	O	1.532029	-0.510674	-0.354521
O6	O	1.769035	-0.445566	-0.399730
O7	O	1.597056	-0.575848	-0.190012
O8	O	1.466998	-0.273721	-0.309344
O9	O	1.768954	-0.575814	-0.309322
O10	O	1.597243	-0.273696	-0.399743
O11	O	1.466892	-0.445625	-0.190022
O12	O	1.295074	-0.445567	-0.309323
O13	O	1.466953	-0.575714	-0.519017
O14	O	1.295055	-0.575747	-0.399707
O15	O	1.597217	-0.445508	-0.519032
O16	O	1.597030	-0.747660	-0.309301
O17	O	1.466846	-0.747617	-0.399694
C18	C	1.256600	-0.510655	-0.354515
C19	C	1.138770	-0.510673	-0.354530
C20	C	1.093911	-0.592709	-0.411307
C21	C	0.971351	-0.593046	-0.411138
C22	C	0.970822	-0.540508	-0.276878
C23	C	1.093420	-0.541087	-0.277207
C24	C	1.093622	-0.398629	-0.374726
C25	C	0.971017	-0.399248	-0.376436
C26	C	1.531952	-0.786103	-0.354510
C27	C	1.532016	-0.903933	-0.354530
C28	C	1.450455	-1.071514	-0.411572
C29	C	1.450038	-0.948955	-0.411389
C30	C	1.501776	-0.948524	-0.276974
C31	C	1.501278	-1.071123	-0.277320
C32	C	1.644316	-1.071023	-0.374417
C33	C	1.643627	-0.948416	-0.376113
C34	C	1.808535	-0.510693	-0.354527
C35	C	1.926365	-0.510701	-0.354529
C36	C	1.532094	-0.510601	-0.546473
C37	C	1.532122	-0.510569	-0.628272
C38	C	1.532136	-0.234168	-0.354547
C39	C	1.532181	-0.116338	-0.354558
C40	C	1.599974	-0.442708	-0.816476
C41	C	1.599987	-0.442677	-0.893334
C42	C	1.464344	-0.578267	-0.893307
C43	C	1.464326	-0.578291	-0.816450
C44	C	1.532148	-0.510514	-0.778036
C45	C	1.532178	-0.510458	-0.931752
C46	C	1.532191	-0.510425	-1.015086
C47	C	1.532133	-0.510545	-0.694697
C48	C	1.532026	-0.510670	-0.163314
C49	C	1.532204	-0.510402	-0.081516
H50	H	0.941682	-0.482591	-0.233413
H51	H	1.367843	-1.102415	-0.398584
O52	O	1.475400	-1.110750	-0.487914
H53	H	1.491261	-1.042307	-0.524467
O54	O	1.673117	-0.369607	-0.775039
H55	H	1.654960	-0.286400	-0.789793
H56	H	1.409086	-0.633506	-0.785151
H57	H	0.941964	-0.376762	-0.433583
O58	O	0.931523	-0.568407	-0.487389
H59	H	0.999830	-0.556150	-0.524718
H60	H	0.941993	-0.676079	-0.397739
H61	H	1.123425	-0.574329	-0.469054
O62	O	0.930121	-0.647796	-0.253870
H63	H	0.878245	-0.680060	-0.297611
H64	H	1.655217	-0.387462	-0.924629
H65	H	1.366907	-0.919720	-0.398233
H66	H	1.409128	-0.633451	-0.924593
H67	H	1.124689	-0.675263	-0.398070
O68	O	1.576709	-1.110408	-0.219137
H69	H	1.576929	-1.198183	-0.218955
O70	O	1.132078	-0.317674	-0.319965
H71	H	1.178190	-0.255759	-0.349002
H72	H	1.559415	-0.919363	-0.233333
O73	O	1.131272	-0.649556	-0.254602
H74	H	1.062013	-0.701105	-0.243543
H75	H	1.123093	-0.483889	-0.233452
H76	H	1.707724	-0.917763	-0.337610
O77	O	1.134619	-0.362537	-0.448463
H78	H	1.187635	-0.424066	-0.471542
O79	O	1.392700	-1.109141	-0.255042
H80	H	1.341041	-1.039961	-0.244127
O81	O	0.930485	-0.314008	-0.325688
H82	H	0.877651	-0.349911	-0.283870
O83	O	1.673850	-0.909788	-0.451712
H84	H	1.614343	-0.937408	-0.492182
O85	O	1.394325	-0.907991	-0.254280
H86	H	1.362287	-0.856102	-0.298109
H87	H	1.468957	-0.918803	-0.468897
H88	H	1.671902	-1.101869	-0.430009
O89	O	1.725031	-1.109653	-0.319536
H90	H	1.685536	-1.160848	-0.278298
