data_functionalizedCrystal
_audit_creation_method	'MofGen! by Chris Wilmer'
_symmetry_space_group_name_H-M	'P1'
_symmetry_Int_Tables_number	1
_symmetry_cell_setting	triclinic
loop_
_symmetry_equiv_pos_as_xyz
  x,y,z
_cell_length_a	18.215407
_cell_length_b	12.827892
_cell_length_c	18.215399
_cell_angle_alpha	89.973753
_cell_angle_beta	89.983176
_cell_angle_gamma	90.015840
loop_
_atom_site_label
_atom_site_type_symbol
_atom_site_fract_x
_atom_site_fract_y
_atom_site_fract_z
Zn1	Zn	1.125099	-0.416006	-0.416137
Zn2	Zn	1.625099	0.083994	0.083863
Zn3	Zn	1.125034	-0.590773	-0.293079
Zn4	Zn	1.625034	-0.090773	0.206921
Zn5	Zn	1.002038	-0.416048	-0.293084
Zn6	Zn	1.502038	0.083952	0.206916
Zn7	Zn	1.002017	-0.590707	-0.416104
Zn8	Zn	1.502017	-0.090707	0.083896
O9	O	1.063547	-0.503384	-0.354601
O10	O	1.563547	-0.003384	0.145399
O11	O	1.228074	-0.439200	-0.399825
O12	O	1.728074	0.060800	0.100175
O13	O	1.108700	-0.567640	-0.190096
O14	O	1.608700	-0.067640	0.309904
O15	O	1.018398	-0.269806	-0.309423
O16	O	1.518398	0.230194	0.190577
O17	O	1.228027	-0.567600	-0.309415
O18	O	1.728027	-0.067600	0.190585
O19	O	1.108810	-0.269776	-0.399829
O20	O	1.608810	0.230224	0.100171
O21	O	1.018335	-0.439270	-0.190099
O22	O	1.518335	0.060730	0.309901
O23	O	0.899051	-0.439207	-0.309392
O24	O	1.399051	0.060793	0.190608
O25	O	1.018363	-0.567488	-0.519093
O26	O	1.518363	-0.067488	-0.019093
O27	O	0.899036	-0.567528	-0.399774
O28	O	1.399036	-0.067528	0.100226
O29	O	1.108790	-0.439136	-0.519117
O30	O	1.608790	0.060864	-0.019117
O31	O	1.108680	-0.737000	-0.309383
O32	O	1.608680	-0.237000	0.190617
O33	O	1.018300	-0.736952	-0.399769
O34	O	1.518300	-0.236952	0.100231
C35	C	0.872341	-0.503366	-0.354580
C36	C	1.372341	-0.003366	0.145420
C37	C	0.790542	-0.503383	-0.354589
C38	C	1.290542	-0.003383	0.145411
C39	C	1.063501	-0.774894	-0.354588
C40	C	1.563501	-0.274894	0.145412
C41	C	1.063549	-0.891047	-0.354607
C42	C	1.563549	-0.391047	0.145393
C43	C	0.602359	-0.570305	-0.401592
C44	C	1.102359	-0.070305	0.098408
C45	C	0.525501	-0.570309	-0.401601
C46	C	1.025501	-0.070309	0.098399
C47	C	0.525486	-0.436481	-0.307627
C48	C	1.025486	0.063519	0.192373
C49	C	0.602344	-0.436473	-0.307622
C50	C	1.102344	0.063527	0.192378
C51	C	0.640778	-0.503391	-0.354603
C52	C	1.140778	-0.003391	0.145397
C53	C	0.487062	-0.503402	-0.354617
C54	C	0.987062	-0.003402	0.145383
C55	C	0.403729	-0.503405	-0.354627
C56	C	0.903729	-0.003405	0.145373
C57	C	0.724117	-0.503387	-0.354595
C58	C	1.224117	-0.003387	0.145405
C59	C	1.108324	-0.942821	-0.309931
C60	C	1.608324	-0.442821	0.190069
C61	C	1.108375	-1.062871	-0.309950
C62	C	1.608375	-0.562871	0.190050
C63	C	1.255500	-0.503402	-0.354623
C64	C	1.755500	-0.003402	0.145377
C65	C	1.337299	-0.503410	-0.354632
C66	C	1.837299	-0.003410	0.145368
C67	C	1.063582	-0.503300	-0.546554
C68	C	1.563582	-0.003300	-0.046554
C69	C	1.063596	-0.503265	-0.628353
C70	C	1.563596	-0.003265	-0.128353
C71	C	1.063613	-0.230814	-0.354630
C72	C	1.563613	0.269186	0.145370
C73	C	1.063641	-0.114660	-0.354643
C74	C	1.563641	0.385340	0.145357
C75	C	1.016583	-0.436377	-0.816550
C76	C	1.516583	0.063623	-0.316550
C77	C	1.016596	-0.436356	-0.893409
C78	C	1.516596	0.063644	-0.393409
C79	C	1.110698	-0.570027	-0.893394
C80	C	1.610698	-0.070027	-0.393394
C81	C	1.110681	-0.570053	-0.816537
C82	C	1.610681	-0.070053	-0.316537
C83	C	1.063625	-0.503222	-0.778117
C84	C	1.563625	-0.003222	-0.278117
C85	C	1.063654	-0.503175	-0.931833
C86	C	1.563654	-0.003175	-0.431833
C87	C	1.063669	-0.503153	-1.015167
C88	C	1.563669	-0.003153	-0.515167
C89	C	1.063609	-0.503245	-0.694778
C90	C	1.563609	-0.003245	-0.194778
C91	C	1.063555	-0.503391	-0.163395
C92	C	1.563555	-0.003391	0.336605
C93	C	1.063682	-0.503133	-0.081597
C94	C	1.563682	-0.003133	0.418403
H95	H	0.633650	-0.624792	-0.439849
H96	H	1.133650	-0.124792	0.060151
H97	H	0.978290	-0.381926	-0.924698
H98	H	1.478290	0.118074	-0.424698
H99	H	0.633625	-0.381977	-0.269358
H100	H	1.133625	0.118023	0.230642
C101	C	1.159347	-0.883559	-0.258788
C102	C	1.659347	-0.383559	0.241212
C103	C	1.143406	-0.910142	-0.185947
C104	C	1.643406	-0.410142	0.314053
C105	C	1.190399	-0.855583	-0.138812
C106	C	1.690399	-0.355583	0.361188
H107	H	1.152571	-0.810750	-0.265457
H108	H	1.652571	-0.310750	0.234543
H109	H	1.208820	-0.901344	-0.269548
H110	H	1.708820	-0.401344	0.230452
H111	H	1.093945	-0.892350	-0.175190
H112	H	1.593945	-0.392350	0.324810
H113	H	1.150186	-0.982941	-0.179255
H114	H	1.650186	-0.482941	0.320745
H115	H	1.239872	-0.873368	-0.149573
H116	H	1.739872	-0.373368	0.350427
H117	H	1.183620	-0.782777	-0.145489
H118	H	1.683620	-0.282777	0.354511
H119	H	1.179594	-0.873619	-0.089386
H120	H	1.679594	-0.373619	0.410614
C121	C	1.161635	-0.642761	-0.774765
C122	C	1.661635	-0.142761	-0.274765
C123	C	1.119936	-0.709769	-0.730644
C124	C	1.619936	-0.209769	-0.230644
C125	C	1.166844	-0.776771	-0.692160
C126	C	1.666844	-0.276771	-0.192160
H127	H	1.193716	-0.602920	-0.744730
H128	H	1.693716	-0.102920	-0.244730
H129	H	1.189653	-0.682616	-0.808630
H130	H	1.689653	-0.182616	-0.308630
H131	H	1.091931	-0.669919	-0.696783
H132	H	1.591931	-0.169919	-0.196783
H133	H	1.087857	-0.749633	-0.760661
H134	H	1.587857	-0.249633	-0.260661
H135	H	1.194862	-0.816625	-0.726025
H136	H	1.694862	-0.316625	-0.226025
H137	H	1.198923	-0.736921	-0.662129
H138	H	1.698923	-0.236921	-0.162129
H139	H	1.138559	-0.822249	-0.662225
H140	H	1.638559	-0.322249	-0.162225
H141	H	1.025302	-1.070144	-0.392891
H142	H	1.525302	-0.570144	0.107109
C143	C	0.483921	-0.643076	-0.452644
C144	C	0.983921	-0.143076	0.047356
C145	C	0.534034	-0.701692	-0.493771
C146	C	1.034034	-0.201692	0.006229
C147	C	0.495759	-0.768747	-0.540795
C148	C	0.995759	-0.268747	-0.040795
H149	H	0.453956	-0.603277	-0.484825
H150	H	0.953956	-0.103277	0.015175
H151	H	0.453937	-0.688618	-0.424457
H152	H	0.953937	-0.188618	0.075543
H153	H	0.564006	-0.656156	-0.521956
H154	H	1.064006	-0.156156	-0.021956
H155	H	0.564001	-0.741512	-0.461609
H156	H	1.064001	-0.241512	0.038391
H157	H	0.465774	-0.814289	-0.512608
H158	H	0.965774	-0.314289	-0.012608
H159	H	0.465794	-0.728940	-0.572972
H160	H	0.965794	-0.228940	-0.072972
H161	H	0.529754	-0.808533	-0.568701
H162	H	1.029754	-0.308533	-0.068701
C163	C	0.483623	-0.363946	-0.256647
C164	C	0.983623	0.136054	0.243353
C165	C	0.408091	-0.378292	-0.266694
C166	C	0.908091	0.121708	0.233306
C167	C	0.369506	-0.311499	-0.219736
C168	C	0.869506	0.188501	0.280264
H169	H	0.496145	-0.293708	-0.267455
H170	H	0.996145	0.206292	0.232545
H171	H	0.496156	-0.379160	-0.207165
H172	H	0.996156	0.120840	0.292835
H173	H	0.395563	-0.363070	-0.316165
H174	H	0.895563	0.136930	0.183835
H175	H	0.395547	-0.448516	-0.255881
H176	H	0.895547	0.051484	0.244119
H177	H	0.382039	-0.326713	-0.170254
H178	H	0.882039	0.173287	0.329746
H179	H	0.382033	-0.241265	-0.230548
H180	H	0.882033	0.258735	0.269452
H181	H	0.318254	-0.321230	-0.226542
H182	H	0.818254	0.178770	0.273458
C183	C	1.159491	-1.122418	-0.259052
C184	C	1.659491	-0.622418	0.240948
C185	C	1.149413	-1.229651	-0.269225
C186	C	1.649413	-0.729651	0.230775
C187	C	1.196509	-1.284539	-0.222368
C188	C	1.696509	-0.784539	0.277632
H189	H	1.148829	-1.104788	-0.209542
H190	H	1.648829	-0.604788	0.290458
H191	H	1.208942	-1.104551	-0.269889
H192	H	1.708942	-0.604551	0.230111
H193	H	1.099973	-1.247510	-0.258383
H194	H	1.599973	-0.747510	0.241617
H195	H	1.160080	-1.247312	-0.318725
H196	H	1.660080	-0.747312	0.181275
H197	H	1.245959	-1.266673	-0.233204
H198	H	1.745959	-0.766673	0.266796
H199	H	1.185843	-1.266901	-0.172861
H200	H	1.685843	-0.766901	0.327139
H201	H	1.189682	-1.357302	-0.229268
H202	H	1.689682	-0.857302	0.270732
H203	H	1.025255	-0.935598	-0.392873
H204	H	1.525255	-0.435598	0.107127
H205	H	0.978267	-0.381960	-0.785270
H206	H	1.478267	0.118040	-0.285270
C207	C	1.161700	-0.642750	-0.935070
C208	C	1.661700	-0.142750	-0.435070
C209	C	1.145637	-0.746153	-0.916372
C210	C	1.645637	-0.246153	-0.416372
C211	C	1.192602	-0.813173	-0.954754
C212	C	1.692602	-0.313173	-0.454754
H213	H	1.211173	-0.627600	-0.922509
H214	H	1.711173	-0.127600	-0.422509
H215	H	1.154970	-0.633232	-0.986355
H216	H	1.654970	-0.133232	-0.486355
H217	H	1.152373	-0.755666	-0.865098
H218	H	1.652373	-0.255666	-0.365098
H219	H	1.096173	-0.761335	-0.928935
H220	H	1.596173	-0.261335	-0.428935
H221	H	1.185872	-0.803655	-1.006040
H222	H	1.685872	-0.303655	-0.506040
H223	H	1.242072	-0.798014	-0.942191
H224	H	1.742072	-0.298014	-0.442191
H225	H	1.181705	-0.883339	-0.942079
H226	H	1.681705	-0.383339	-0.442079
