data_functionalizedCrystal
_audit_creation_method	'MofGen! by Chris Wilmer'
_symmetry_space_group_name_H-M	'P1'
_symmetry_Int_Tables_number	1
_symmetry_cell_setting	triclinic
loop_
_symmetry_equiv_pos_as_xyz
  x,y,z
_cell_length_a	10.908878
_cell_length_b	19.188930
_cell_length_c	10.065918
_cell_angle_alpha	99.848379
_cell_angle_beta	101.450495
_cell_angle_gamma	71.614786
loop_
_atom_site_label
_atom_site_type_symbol
_atom_site_fract_x
_atom_site_fract_y
_atom_site_fract_z
O1	O	1.721264	-0.100752	0.113449
O2	O	1.347096	-0.046193	0.113468
O3	O	1.544974	-0.176366	0.113431
O4	O	1.523386	0.029421	0.113486
O5	O	1.511336	-0.190685	-0.113560
O6	O	1.313458	-0.060512	-0.113524
O7	O	1.687626	-0.115071	-0.113542
Zn8	Zn	1.495201	-0.090065	-0.149573
Zn9	Zn	1.539521	-0.071199	0.149498
O10	O	1.489748	0.015101	-0.113506
C11	C	1.282407	-0.048254	-0.000026
C12	C	1.139770	-0.033069	-0.000020
C13	C	1.091071	-0.088474	-0.000034
C14	C	0.943648	-0.072782	-0.000028
C15	C	1.527455	-0.209457	-0.000068
C16	C	1.525354	-0.286722	-0.000080
C17	C	1.641463	-0.344935	-0.000092
C18	C	1.639494	-0.417532	-0.000070
C19	C	1.521405	-0.431913	-0.000063
C20	C	1.405281	-0.373687	-0.000044
C21	C	1.407256	-0.301091	-0.000052
N22	N	1.419692	-0.534459	-0.077309
N23	N	1.417824	-0.603424	-0.077304
C24	C	1.515450	-0.650637	-0.000036
N25	N	1.615031	-0.626286	0.077210
N26	N	1.616902	-0.557316	0.077199
C27	C	1.519251	-0.510628	-0.000054
C28	C	1.629433	-0.787570	-0.000022
C29	C	1.627460	-0.860167	0.000008
C30	C	1.393242	-0.816320	0.000021
C31	C	1.395220	-0.743725	0.000005
C32	C	1.513318	-0.729355	-0.000024
C33	C	1.752315	-0.113011	-0.000045
C34	C	1.894954	-0.128195	-0.000042
C35	C	1.507268	0.048192	-0.000003
C36	C	1.509370	0.125458	0.000017
N37	N	1.464964	-0.102943	-0.353681
C38	C	1.528992	-0.075678	-0.421454
C39	C	1.505731	-0.085597	-0.578624
N40	N	1.569769	-0.058329	0.353607
H41	H	1.737628	-0.333241	-0.000110
H42	H	0.962397	-0.187250	-0.000048
C43	C	1.626307	-0.034223	-0.342664
H44	H	1.629166	-0.032990	-0.247364
H45	H	1.710821	-0.058971	-0.366002
H46	H	1.598950	0.014878	-0.366004
H47	H	1.433693	-0.116286	-0.636953
H48	H	1.641814	-0.027643	-0.588066
H49	H	1.072323	0.025983	0.000002
C50	C	1.182174	-0.168250	-0.000060
H51	H	1.269306	-0.168333	-0.000071
H52	H	1.178446	-0.187827	0.079087
H53	H	1.154982	-0.197808	-0.079237
H54	H	1.722015	-0.907566	0.000006
H55	H	1.734048	-0.464938	-0.000075
H56	H	1.309133	-0.385400	-0.000035
C57	C	0.852548	0.006998	-0.000007
H58	H	0.765413	0.007079	-0.000015
H59	H	0.879737	0.036560	0.079154
H60	H	0.856274	0.026569	-0.079170
C61	C	1.279528	-0.237054	-0.000051
H62	H	1.208912	-0.256013	-0.000050
H63	H	1.287159	-0.202819	0.079097
H64	H	1.263701	-0.212831	-0.079227
C65	C	1.759334	-0.771758	-0.000037
H66	H	1.828208	-0.816827	-0.000021
H67	H	1.753244	-0.749353	-0.079200
H68	H	1.776701	-0.739346	0.079124
C69	C	1.263346	-0.832131	0.000033
H70	H	1.278797	-0.883704	0.000030
H71	H	1.227284	-0.806223	0.079191
H72	H	1.203823	-0.816230	-0.079133
H73	H	1.300670	-0.696325	0.000007
H74	H	1.392930	-0.133630	-0.412015
