data_functionalizedCrystal
_audit_creation_method	'MofGen! by Chris Wilmer'
_symmetry_space_group_name_H-M	'P1'
_symmetry_Int_Tables_number	1
_symmetry_cell_setting	triclinic
loop_
_symmetry_equiv_pos_as_xyz
  x,y,z
_cell_length_a	12.827893
_cell_length_b	19.121063
_cell_length_c	19.121595
_cell_angle_alpha	90.075983
_cell_angle_beta	87.545467
_cell_angle_gamma	92.468878
loop_
_atom_site_label
_atom_site_type_symbol
_atom_site_fract_x
_atom_site_fract_y
_atom_site_fract_z
Zn1	Zn	1.606808	-0.262217	-0.408258
Zn2	Zn	2.106808	0.237783	0.091742
Zn3	Zn	1.591793	-0.384457	-0.296015
Zn4	Zn	2.091793	0.115543	0.203985
Zn5	Zn	1.424303	-0.267236	-0.291039
Zn6	Zn	1.924303	0.232764	0.208961
Zn7	Zn	1.424873	-0.379421	-0.413216
Zn8	Zn	1.924873	0.120579	0.086784
O9	O	1.511944	-0.323333	-0.352132
O10	O	2.011944	0.176667	0.147868
O11	O	1.751052	-0.278440	-0.393377
O12	O	2.251052	0.221560	0.106623
O13	O	1.563053	-0.373116	-0.197249
O14	O	2.063053	0.126884	0.302751
O15	O	1.454558	-0.168463	-0.302431
O16	O	1.954558	0.331537	0.197569
O17	O	1.740021	-0.368249	-0.310912
O18	O	2.240021	0.131751	0.189088
O19	O	1.588644	-0.164776	-0.388552
O20	O	2.088644	0.335224	0.111448
O21	O	1.439999	-0.286994	-0.193593
O22	O	1.939999	0.213006	0.306407
O23	O	1.278142	-0.282111	-0.307238
O24	O	1.778142	0.217889	0.192762
O25	O	1.455529	-0.359665	-0.510664
O26	O	1.955529	0.140335	-0.010664
O27	O	1.278561	-0.364532	-0.397001
O28	O	1.778561	0.135468	0.102999
O29	O	1.589196	-0.273556	-0.507022
O30	O	2.089196	0.226444	-0.007022
O31	O	1.563606	-0.481897	-0.315719
O32	O	2.063606	0.018103	0.184281
O33	O	1.440970	-0.478196	-0.401826
O34	O	1.940970	0.021804	0.098174
C35	C	1.240434	-0.323320	-0.352118
C36	C	1.740434	0.176680	0.147882
C37	C	1.124281	-0.323331	-0.352130
C38	C	1.624281	0.176669	0.147870
C39	C	1.072723	-0.364185	-0.396484
C40	C	1.572723	0.135815	0.103516
C41	C	0.952673	-0.364197	-0.396497
C42	C	1.452673	0.135803	0.103503
C43	C	1.500750	-0.505484	-0.359866
C44	C	2.000750	-0.005484	0.140134
C45	C	1.496058	-0.583408	-0.363198
C46	C	1.996058	-0.083408	0.136802
C47	C	1.557758	-0.621918	-0.319969
C48	C	2.057758	-0.121918	0.180031
C49	C	1.553351	-0.695136	-0.323107
C50	C	2.053351	-0.195136	0.176893
C51	C	1.487239	-0.729842	-0.369471
C52	C	1.987239	-0.229842	0.130529
C53	C	1.425536	-0.691326	-0.412704
C54	C	1.925536	-0.191326	0.087296
C55	C	1.429949	-0.618110	-0.409569
C56	C	1.929949	-0.118110	0.090431
C57	C	1.470724	-0.950812	-0.381180
C58	C	1.970724	-0.450812	0.118820
C59	C	1.466314	-1.024034	-0.384310
C60	C	1.966314	-0.524034	0.115690
C61	C	1.594131	-1.027839	-0.294713
C62	C	2.094131	-0.527839	0.205287
C63	C	1.598533	-0.954621	-0.291580
C64	C	2.098533	-0.454621	0.208420
C65	C	1.536834	-0.916112	-0.334816
C66	C	2.036834	-0.416112	0.165184
C67	C	1.482731	-0.804682	-0.372678
C68	C	1.982731	-0.304682	0.127322
C69	C	1.541349	-0.841273	-0.331612
C70	C	2.041349	-0.341273	0.168388
C71	C	1.784514	-0.323346	-0.352146
C72	C	2.284514	0.176654	0.147854
C73	C	1.900668	-0.323352	-0.352153
C74	C	2.400668	0.176648	0.147847
C75	C	1.524101	-0.315489	-0.534992
C76	C	2.024101	0.184511	-0.034992
C77	C	1.529281	-0.312146	-0.612916
C78	C	2.029281	0.187854	-0.112916
C79	C	1.523212	-0.140470	-0.344383
C80	C	2.023212	0.359530	0.155617
C81	C	1.528014	-0.062545	-0.341081
C82	C	2.028014	0.437455	0.158919
C83	C	1.462123	-0.355405	-0.651422
C84	C	1.962123	0.144595	-0.151422
C85	C	1.466999	-0.352264	-0.724640
C86	C	1.966999	0.147736	-0.224640
C87	C	1.539029	-0.305861	-0.759350
C88	C	2.039029	0.194139	-0.259350
C89	C	1.606195	-0.262600	-0.720839
C90	C	2.106195	0.237400	-0.220839
C91	C	1.601323	-0.265745	-0.647622
C92	C	2.101323	0.234255	-0.147622
C93	C	1.557226	-0.294126	-0.980322
C94	C	2.057226	0.205874	-0.480322
C95	C	1.562090	-0.290982	-1.053543
C96	C	2.062090	0.209018	-0.553543
C97	C	1.422896	-0.380647	-1.057339
C98	C	1.922896	0.119353	-0.557339
C99	C	1.418026	-0.383785	-0.984121
C100	C	1.918026	0.116215	-0.484121
C101	C	1.485195	-0.340528	-0.945616
C102	C	1.985195	0.159472	-0.445616
C103	C	1.544013	-0.302647	-0.834191
C104	C	2.044013	0.197353	-0.334191
C105	C	1.480216	-0.343745	-0.870778
C106	C	1.980216	0.156255	-0.370778
C107	C	1.499898	-0.331096	-0.169981
C108	C	1.999898	0.168904	0.330019
C109	C	1.494932	-0.334241	-0.092049
C110	C	1.994932	0.165759	0.407951
H111	H	1.611589	-0.593666	-0.282212
H112	H	2.111589	-0.093666	0.217788
H113	H	0.908332	-0.399175	-0.434469
H114	H	1.408332	0.100825	0.065531
Br115	Br	0.974555	-0.265056	-0.288849
Br116	Br	1.474555	0.234944	0.211151
H117	H	1.611920	-0.258902	-0.948980
H118	H	2.111920	0.241098	-0.448980
H119	H	1.079546	-0.288360	-0.314168
H120	H	1.579546	0.211640	0.185832
H121	H	1.603594	-0.726488	-0.287905
H122	H	2.103594	-0.226488	0.212095
H123	H	1.428900	-0.832948	-0.410426
H124	H	1.928900	-0.332948	0.089574
H125	H	1.421573	-0.381529	-0.842514
H126	H	1.921573	0.118471	-0.342514
Br127	Br	1.688275	-0.907525	-0.228664
Br128	Br	2.188275	-0.407525	0.271336
H129	H	1.644364	-1.059201	-0.259514
H130	H	2.144364	-0.559201	0.240486
Br131	Br	1.331746	-0.439353	-1.109599
Br132	Br	1.831746	0.060647	-0.609599
H133	H	1.602659	-0.264865	-0.862460
H134	H	2.102659	0.235135	-0.362460
H135	H	1.412490	-1.052289	-0.422077
H136	H	1.912490	-0.552289	0.077923
H137	H	1.420484	-0.919464	-0.416383
H138	H	1.920484	-0.419464	0.083617
Br139	Br	1.335820	-0.738425	-0.475633
Br140	Br	1.835820	-0.238425	0.024367
Br141	Br	1.659801	-0.227967	-1.100648
Br142	Br	2.159801	0.272033	-0.600648
H143	H	1.595182	-0.813013	-0.293865
H144	H	2.095182	-0.313013	0.206135
H145	H	1.379708	-0.586755	-0.444772
H146	H	1.879708	-0.086755	0.055228
H147	H	1.664847	-0.224821	-0.749106
H148	H	2.164847	0.275179	-0.249106
H149	H	1.117459	-0.399150	-0.434451
H150	H	1.617459	0.100850	0.065549
Br151	Br	1.375864	-0.410983	-0.776897
Br152	Br	1.875864	0.089017	-0.276897
H153	H	1.403457	-0.393183	-0.623166
H154	H	1.903457	0.106817	-0.123166
H155	H	1.359388	-0.421583	-0.955866
H156	H	1.859388	0.078417	-0.455866
H157	H	1.656010	-0.230519	-0.616271
H158	H	2.156010	0.269481	-0.116271
