data_functionalizedCrystal
_audit_creation_method	'MofGen! by Chris Wilmer'
_symmetry_space_group_name_H-M	'P1'
_symmetry_Int_Tables_number	1
_symmetry_cell_setting	triclinic
loop_
_symmetry_equiv_pos_as_xyz
  x,y,z
_cell_length_a	9.065215
_cell_length_b	14.853567
_cell_length_c	7.540329
_cell_angle_alpha	89.999797
_cell_angle_beta	90.002426
_cell_angle_gamma	84.324814
loop_
_atom_site_label
_atom_site_type_symbol
_atom_site_fract_x
_atom_site_fract_y
_atom_site_fract_z
O1	O	1.957781	0.132179	0.147445
O2	O	2.457781	0.632179	0.647445
O3	O	1.528281	0.143024	0.147451
O4	O	2.028281	0.643024	0.647451
O5	O	1.754503	0.006456	0.147453
O6	O	2.254503	0.506456	0.647453
O7	O	1.731558	0.268746	0.147443
O8	O	2.231558	0.768746	0.647443
O9	O	1.754490	0.006455	-0.147512
O10	O	2.254490	0.506455	0.352488
O11	O	1.528267	0.143022	-0.147514
O12	O	2.028267	0.643022	0.352486
O13	O	1.957768	0.132177	-0.147520
O14	O	2.457768	0.632177	0.352480
Cu15	Cu	1.743016	0.137599	-0.174450
Cu16	Cu	2.243016	0.637599	0.325550
Cu17	Cu	1.743032	0.137602	0.174381
Cu18	Cu	2.243032	0.637602	0.674381
O19	O	1.731545	0.268745	-0.147522
O20	O	2.231545	0.768745	0.352478
C21	C	1.473308	0.141982	-0.000030
C22	C	1.973308	0.641982	0.499970
C23	C	1.309527	0.138867	-0.000027
C24	C	1.809527	0.638867	0.499973
C25	C	1.753457	-0.027141	-0.000024
C26	C	2.253457	0.472859	0.499976
C27	C	1.750342	-0.127248	-0.000009
C28	C	2.250342	0.372752	0.499991
C29	C	1.602790	-0.540872	-0.000040
C30	C	2.102790	-0.040872	0.499960
C31	C	1.871548	-0.560166	-0.000044
C32	C	2.371548	-0.060166	0.499956
C33	C	1.874478	-0.466111	-0.000034
C34	C	2.374478	0.033889	0.499966
C35	C	1.741561	-0.409432	-0.000029
C36	C	2.241561	0.090568	0.499971
C37	C	1.605716	-0.446808	-0.000035
C38	C	2.105716	0.053192	0.499965
C39	C	2.010321	-0.428727	-0.000046
C40	C	2.510321	0.071273	0.499954
C41	C	2.013256	-0.334666	-0.000037
C42	C	2.513256	0.165334	0.499963
C43	C	1.880338	-0.277986	-0.000020
C44	C	2.380338	0.222014	0.499980
C45	C	1.744487	-0.315367	-0.000024
C46	C	2.244487	0.184633	0.499976
C47	C	1.611571	-0.258688	-0.000020
C48	C	2.111571	0.241312	0.499980
C49	C	1.475718	-0.296068	-0.000011
C50	C	1.975718	0.203932	0.499989
C51	C	1.472798	-0.390127	-0.000018
C52	C	1.972798	0.109873	0.499982
C53	C	1.883258	-0.183927	-0.000013
C54	C	2.383258	0.316073	0.499987
C55	C	1.614496	-0.164624	-0.000014
C56	C	2.114496	0.335376	0.499986
C57	C	2.012740	0.133219	-0.000035
C58	C	2.512740	0.633219	0.499965
C59	C	2.176522	0.136334	-0.000026
C60	C	2.676522	0.636334	0.499974
C61	C	1.732591	0.302342	-0.000041
C62	C	2.232591	0.802342	0.499959
C63	C	1.735707	0.402449	-0.000045
C64	C	2.235707	0.902449	0.499955
N65	N	1.743016	0.137598	-0.419798
N66	N	2.243016	0.637598	0.080202
N67	N	1.743044	0.137596	0.419729
N68	N	2.243044	0.637596	0.919729
H69	H	1.506258	-0.118481	-0.000003
H70	H	2.006258	0.381519	0.499997
C71	C	1.329519	-0.233716	-0.000003
C72	C	1.829519	0.266284	0.499997
H73	H	1.350728	-0.172346	0.000005
H74	H	1.850728	0.327654	0.500005
H75	H	1.273811	-0.245162	-0.102856
H76	H	1.773811	0.254838	0.397144
H77	H	1.273837	-0.245161	0.102879
H78	H	1.773837	0.254839	0.602879
H79	H	1.362194	-0.420571	-0.000012
H80	H	1.862194	0.079429	0.499988
C81	C	1.453364	-0.581985	-0.000038
C82	C	1.953364	-0.081985	0.499962
H83	H	1.470650	-0.646121	-0.000050
H84	H	1.970650	-0.146121	0.499950
H85	H	1.398632	-0.562604	0.102820
H86	H	1.898632	-0.062604	0.602820
H87	H	1.398632	-0.562604	-0.102914
H88	H	1.898632	-0.062604	0.397086
H89	H	2.118534	-0.474882	-0.000066
H90	H	2.618534	0.025118	0.499934
H91	H	1.979762	-0.606319	-0.000062
H92	H	2.479762	-0.106319	0.499938
H93	H	2.123875	-0.304240	-0.000042
H94	H	2.623875	0.195760	0.499958
C95	C	2.032675	-0.142811	-0.000027
C96	C	2.532675	0.357189	0.499973
H97	H	2.111415	-0.190039	-0.000028
H98	H	2.611415	0.309961	0.499972
H99	H	2.039392	-0.106515	-0.102883
H100	H	2.539392	0.393485	0.397117
H101	H	2.039414	-0.106526	0.102852
H102	H	2.539414	0.393474	0.602852
