data_functionalizedCrystal
_audit_creation_method	'MofGen! by Chris Wilmer'
_symmetry_space_group_name_H-M	'P1'
_symmetry_Int_Tables_number	1
_symmetry_cell_setting	triclinic
loop_
_symmetry_equiv_pos_as_xyz
  x,y,z
_cell_length_a	10.686220
_cell_length_b	13.032721
_cell_length_c	10.685986
_cell_angle_alpha	92.237678
_cell_angle_beta	99.031303
_cell_angle_gamma	100.973619
loop_
_atom_site_label
_atom_site_type_symbol
_atom_site_fract_x
_atom_site_fract_y
_atom_site_fract_z
Zn1	Zn	1.842335	-0.259867	-0.612164
Zn2	Zn	1.827348	-0.447119	-0.431010
Zn3	Zn	1.642183	-0.284848	-0.420340
Zn4	Zn	1.598957	-0.447044	-0.659442
O5	O	1.727706	-0.359719	-0.530739
O6	O	2.019693	-0.274284	-0.572812
O7	O	1.814604	-0.436078	-0.253716
O8	O	1.693096	-0.135289	-0.421535
O9	O	2.008682	-0.411856	-0.439719
O10	O	1.840147	-0.116936	-0.562467
O11	O	1.678564	-0.316859	-0.245877
O12	O	1.457103	-0.316787	-0.467378
O13	O	1.619424	-0.411730	-0.829048
O14	O	1.425345	-0.435952	-0.643045
O15	O	1.798232	-0.274212	-0.794313
O16	O	1.772689	-0.593354	-0.485563
O17	O	1.604892	-0.593299	-0.653391
C18	C	1.394721	-0.379072	-0.559185
C19	C	1.252263	-0.387375	-0.571388
C20	C	1.682506	-0.631243	-0.575789
C21	C	1.663284	-0.747392	-0.595094
C22	C	1.737802	-0.799160	-0.520714
C23	C	1.717937	-0.919207	-0.540665
C24	C	2.061991	-0.340292	-0.502182
C25	C	2.204443	-0.332013	-0.490013
C26	C	1.705678	-0.340176	-0.858559
C27	C	1.696291	-0.331847	-0.998257
C28	C	1.773115	-0.087132	-0.485537
C29	C	1.792466	0.029028	-0.466274
C30	C	1.749734	-0.379107	-0.204175
C31	C	1.759418	-0.387127	-0.064408
H32	H	1.816312	-0.754609	-0.442268
H33	H	1.272487	-0.278264	-0.411008
H34	H	1.184211	-0.441135	-0.650392
C35	C	1.611871	-0.979387	-0.646653
N36	N	1.531981	-1.024717	-0.726480
C37	C	1.898531	-0.910794	-0.360283
N38	N	1.978416	-0.865467	-0.280450
C39	C	1.613575	-0.259307	-1.066125
N40	N	1.551270	-0.204669	-1.117252
H41	H	1.584785	-0.791945	-0.673548
H42	H	1.820655	-0.440820	-1.014162
