data_functionalizedCrystal
_audit_creation_method	'MofGen! by Chris Wilmer'
_symmetry_space_group_name_H-M	'P1'
_symmetry_Int_Tables_number	1
_symmetry_cell_setting	triclinic
loop_
_symmetry_equiv_pos_as_xyz
  x,y,z
_cell_length_a	14.560438
_cell_length_b	14.560438
_cell_length_c	14.560438
_cell_angle_alpha	90.001334
_cell_angle_beta	59.996693
_cell_angle_gamma	60.001327
loop_
_atom_site_label
_atom_site_type_symbol
_atom_site_fract_x
_atom_site_fract_y
_atom_site_fract_z
Zr1	Zr	1.005307	0.884769	-0.120581
O2	O	1.196919	0.738118	-0.267244
O3	O	0.813698	0.929724	-0.075612
O4	O	1.005310	0.929720	-0.267229
O5	O	1.005306	0.738126	0.075514
O6	O	1.005308	1.080861	-0.267227
O7	O	1.005308	0.738122	-0.075627
O8	O	0.662550	1.080867	0.075540
O9	O	1.348063	0.738119	-0.267253
O10	O	0.892508	1.061692	-0.056443
O11	O	0.892507	0.948901	0.056350
O12	O	1.118105	0.948897	-0.169253
O13	O	1.118104	0.836105	-0.056460
Zr14	Zr	1.005301	1.125826	0.120474
Zr15	Zr	1.005305	1.125820	-0.120578
Zr16	Zr	1.005303	0.884775	0.120471
Zr17	Zr	1.246364	0.884770	-0.120596
Zr18	Zr	0.764244	1.125824	0.120489
O19	O	1.196910	1.080871	0.075505
O20	O	1.196916	1.080862	-0.267240
O21	O	1.196914	0.738127	0.075502
O22	O	0.813689	1.272476	0.267136
O23	O	0.813695	1.272468	-0.075609
O24	O	0.813692	0.929733	0.267133
O25	O	1.005303	1.272469	-0.075621
O26	O	1.005299	1.080874	0.267122
O27	O	1.005301	0.929734	0.267120
O28	O	1.005301	1.272473	0.075520
O29	O	1.348061	0.929723	-0.267251
O30	O	0.662547	1.080872	0.267144
O31	O	0.662545	1.272475	0.267146
O32	O	0.662549	1.272470	0.075542
O33	O	1.348060	0.738124	-0.075649
O34	O	1.348058	0.929728	-0.075647
O35	O	0.892504	1.061698	0.169146
O36	O	0.892505	1.174489	0.056353
O37	O	1.118102	1.061694	-0.056458
O38	O	1.118101	0.948903	0.056336
C39	C	0.703779	1.005295	-0.000034
C40	C	0.601444	1.005294	-0.000028
C41	C	1.005307	0.703779	-0.000057
C42	C	1.005308	0.601446	-0.000058
C43	C	0.636660	0.922026	-0.083311
C44	C	0.540520	0.922031	-0.083340
C45	C	0.373949	1.088577	0.083208
C46	C	0.470088	1.088576	0.083231
C47	C	0.509203	0.859832	-0.221259
C48	C	0.544421	0.776548	-0.304535
C49	C	0.649141	0.665180	-0.340200
C50	C	0.718647	0.637077	-0.292575
C51	C	0.683423	0.720357	-0.209292
C52	C	0.578707	0.831736	-0.173645
C53	C	0.501412	1.150764	0.221150
C54	C	0.466189	1.234040	0.304439
C55	C	0.361463	1.345411	0.340116
C56	C	0.291946	1.373514	0.292510
C57	C	0.327169	1.290238	0.209221
C58	C	0.431902	1.178867	0.173543
C59	C	1.005312	0.553368	-0.083325
C60	C	1.005304	0.457220	-0.083318
C61	C	1.005292	0.457235	0.083226
C62	C	1.005292	0.553386	0.083223
C63	C	1.306830	1.005300	-0.000073
C64	C	1.409165	1.005300	-0.000080
C65	C	1.005309	1.005290	-0.301573
C66	C	1.005311	1.005287	-0.403906
C67	C	1.005301	1.306816	-0.000050
C68	C	1.005301	1.409148	-0.000049
C69	C	1.123068	0.946410	-0.510868
C70	C	1.123062	0.946423	-0.607017
C71	C	0.887531	1.064192	-0.489228
C72	C	0.887539	1.064185	-0.393081
C73	C	1.005299	1.005305	0.301466
C74	C	1.005298	1.005308	0.403799
C75	C	0.703776	1.306814	-0.000031
C76	C	0.601440	1.409145	-0.000023
C77	C	0.703774	1.005303	0.301485
C78	C	0.601437	1.005305	0.403825
C79	C	0.703771	1.306821	0.301489
C80	C	0.601433	1.409156	0.403829
C81	C	1.306838	0.703774	-0.301596
C82	C	1.409175	0.601439	-0.403936
C83	C	1.306833	0.703781	-0.000076
C84	C	1.409169	0.601449	-0.000084
C85	C	1.306835	1.005292	-0.301592
C86	C	1.409172	1.005290	-0.403932
C87	C	0.553361	1.398345	-0.058895
C88	C	0.457214	1.494501	-0.058892
C89	C	0.457228	1.612253	0.058865
C90	C	0.553380	1.516099	0.058854
C91	C	0.553356	1.064183	0.510782
C92	C	0.457208	1.064172	0.606937
C93	C	0.457229	0.946402	0.489163
C94	C	0.553381	0.946407	0.393011
C95	C	0.553353	1.516108	0.393035
C96	C	0.457204	1.612259	0.489199
C97	C	0.457221	1.494489	0.606948
C98	C	0.553374	1.398342	0.510785
H99	H	0.743612	0.854206	-0.151100
Br100	Br	0.777741	0.682229	-0.144661
Br101	Br	0.727714	1.144095	-0.247906
H102	H	1.005282	0.418094	0.151030
Br103	Br	0.367092	1.010984	-0.172877
H104	H	0.592500	1.311262	-0.106849
H105	H	0.418066	1.112116	0.694024
Br106	Br	0.391973	1.479836	-0.138799
H107	H	0.418084	1.699344	0.106802
Br108	Br	0.391961	1.757409	0.474543
Br109	Br	0.727705	1.144112	-0.474547
Br110	Br	0.391992	1.479823	0.752104
H111	H	0.677812	0.597369	-0.408007
Br112	Br	0.313648	1.458427	0.453166
H113	H	0.592525	1.311250	0.519583
Br114	Br	0.618573	1.144114	0.525460
Br115	Br	1.005271	0.618651	0.196243
Br116	Br	0.618646	1.530756	0.138748
Br117	Br	0.618580	1.530786	0.247884
H118	H	0.803902	0.546385	-0.321610
Br119	Br	1.282901	0.866487	-0.525560
Br120	Br	0.450091	0.814684	-0.369161
H121	H	1.218952	0.898481	-0.694107
Br122	Br	0.392003	0.866476	0.474497
H123	H	0.592532	0.898456	0.305915
Br124	Br	0.560549	1.195904	0.369036
H125	H	0.266990	1.156381	0.150996
H126	H	1.005323	0.592498	-0.151136
H127	H	0.270558	1.313127	0.170460
H128	H	0.586698	1.060077	0.192099
Br129	Br	0.149804	1.524663	0.340932
H130	H	1.005305	0.418079	-0.151120
