data_functionalizedCrystal
_audit_creation_method	'MofGen! by Chris Wilmer'
_symmetry_space_group_name_H-M	'P1'
_symmetry_Int_Tables_number	1
_symmetry_cell_setting	triclinic
loop_
_symmetry_equiv_pos_as_xyz
  x,y,z
_cell_length_a	16.974829
_cell_length_b	19.188940
_cell_length_c	15.455313
_cell_angle_alpha	92.655652
_cell_angle_beta	83.671566
_cell_angle_gamma	83.273674
loop_
_atom_site_label
_atom_site_type_symbol
_atom_site_fract_x
_atom_site_fract_y
_atom_site_fract_z
O1	O	1.055889	0.082815	-0.146249
O2	O	0.824863	0.094831	-0.130034
O3	O	0.947039	-0.012840	-0.138603
O4	O	0.933714	0.190486	-0.137681
O5	O	0.940052	-0.006708	0.006150
O6	O	0.817877	0.100963	0.014718
O7	O	1.048903	0.088947	-0.001497
Cu8	Cu	0.932752	0.095515	0.019828
Cu9	Cu	0.941014	0.088263	-0.151359
O10	O	0.926727	0.196618	0.007071
C11	C	0.791813	0.097553	-0.055584
C12	C	0.703743	0.096520	-0.049402
C13	C	0.207589	0.091086	-0.006137
C14	C	0.290340	0.092057	-0.011947
C15	C	0.335525	0.089194	-0.093757
C16	C	0.297954	0.085368	-0.169763
C17	C	0.215203	0.084402	-0.163952
C18	C	0.583421	0.091728	-0.119597
C19	C	0.666177	0.092692	-0.125402
C20	C	0.658558	0.099382	0.032415
C21	C	0.575807	0.098412	0.038219
C22	C	0.538242	0.094589	-0.037787
N23	N	0.420111	0.090184	-0.099698
N24	N	0.453657	0.093604	-0.031845
C25	C	0.943113	-0.035784	-0.066196
C26	C	0.941814	-0.113287	-0.066106
C27	C	0.928763	-0.663193	0.013427
C28	C	0.929975	-0.590370	0.013347
C29	C	0.934393	-0.557294	-0.065599
C30	C	0.937579	-0.597044	-0.144470
C31	C	0.936359	-0.669865	-0.144387
N32	N	0.984289	-0.450815	-0.127632
N33	N	0.985450	-0.381638	-0.127706
C34	C	0.938067	-0.337889	-0.065854
N35	N	0.889489	-0.365930	-0.003914
N36	N	0.888332	-0.435113	-0.003838
C37	C	0.935716	-0.478332	-0.065698
C38	C	0.936190	-0.219183	0.012925
C39	C	0.937397	-0.146358	0.012841
C40	C	0.945009	-0.153035	-0.144978
C41	C	0.943794	-0.225858	-0.144892
C42	C	0.939388	-0.258928	-0.065939
C43	C	1.081953	0.086225	-0.075949
C44	C	1.170023	0.087258	-0.082137
C45	C	0.930653	0.219562	-0.065337
C46	C	0.931953	0.297065	-0.065433
N47	N	0.926946	0.100615	0.140230
N48	N	0.946826	0.083158	-0.271762
C49	C	0.978869	0.054889	0.181983
C50	C	0.974486	0.058752	0.273098
C51	C	0.918183	0.108345	0.322459
C52	C	0.866255	0.154073	0.280700
C53	C	0.870635	0.150206	0.189587
C54	C	0.899278	0.125019	0.595366
C55	C	0.894903	0.128884	0.686486
C56	C	1.003133	0.033562	0.678877
C57	C	1.007512	0.029702	0.587762
C58	C	0.955581	0.075427	0.546012
N59	N	0.913703	0.112297	0.415593
N60	N	0.960058	0.071472	0.452879
H61	H	0.184619	0.081287	-0.225840
C62	C	0.950133	-0.044360	-0.215171
C63	C	0.949777	-0.116675	-0.231752
H64	H	0.953053	-0.021909	-0.268743
H65	H	0.902541	-0.025585	-0.179461
H66	H	0.995058	-0.036542	-0.186076
H67	H	0.904848	-0.124493	-0.260842
H68	H	0.997374	-0.135456	-0.267477
H69	H	0.941173	-0.570109	-0.208748
H70	H	1.024719	0.014508	0.141799
C71	C	0.668417	0.165398	0.165773
C72	C	0.699847	0.103589	0.115959
H73	H	0.693904	0.167993	0.217354
H74	H	0.677364	0.204886	0.132829
H75	H	0.612667	0.165224	0.180931
H76	H	0.755596	0.103765	0.100795
H77	H	0.690906	0.064091	0.148910
C78	C	0.921359	-0.649273	0.169415
C79	C	0.923907	-0.699541	0.100213
H80	H	0.918355	-0.671715	0.222992
H81	H	0.968247	-0.626518	0.162852
H82	H	0.875737	-0.615502	0.169340
H83	H	0.969533	-0.733310	0.100284
H84	H	0.877014	-0.722308	0.106777
C85	C	0.881737	-0.245851	-0.274602
C86	C	0.947318	-0.269545	-0.231583
H87	H	0.883917	-0.272819	-0.328126
H88	H	0.833725	-0.250919	-0.238926
H89	H	0.883101	-0.197747	-0.285940
H90	H	0.945951	-0.317648	-0.220239
H91	H	0.995342	-0.264484	-0.267266
H92	H	0.932595	-0.246110	0.077214
H93	H	1.016764	0.021519	0.307093
H94	H	1.053357	-0.010681	0.547574
H95	H	0.934797	-0.114001	0.077062
C96	C	1.139268	-0.006724	0.697253
C97	C	1.060205	-0.016706	0.724770
H98	H	1.174500	-0.037759	0.725589
H99	H	1.149927	-0.016123	0.635933
H100	H	1.147000	0.040478	0.711590
H101	H	1.052472	-0.063908	0.710427
H102	H	1.049543	-0.007313	0.786104
H103	H	0.849053	0.169271	0.726672
H104	H	0.702964	0.090367	-0.192026
H105	H	0.856995	0.162251	0.561380
C106	C	0.871214	-0.747517	-0.231054
C107	C	0.939868	-0.713556	-0.231075
H108	H	0.873381	-0.774487	-0.284575
H109	H	0.868419	-0.777632	-0.184028
H110	H	0.825281	-0.713460	-0.224558
H111	H	0.985801	-0.747613	-0.237565
H112	H	0.942671	-0.683438	-0.278114
H113	H	0.552846	0.088613	-0.181486
H114	H	0.320922	0.095172	0.049941
H115	H	0.820409	0.194451	0.320895
C116	C	0.763223	0.244822	0.206253
C117	C	0.813564	0.200473	0.143689
H118	H	0.727991	0.275856	0.177916
H119	H	0.733080	0.217364	0.243798
H120	H	0.794460	0.271331	0.239465
H121	H	0.782328	0.173959	0.110480
H122	H	0.843710	0.227933	0.106129
H123	H	0.539024	0.100728	0.104837
C124	C	0.208377	0.097803	0.149273
C125	C	0.157925	0.094234	0.083794
H126	H	0.177715	0.099753	0.204793
H127	H	0.246994	0.057330	0.143297
H128	H	0.234627	0.138756	0.144144
H129	H	0.131680	0.053278	0.088919
H130	H	0.119294	0.134712	0.089772
C131	C	0.858751	-0.496481	0.109587
C132	C	0.926468	-0.546668	0.100032
H133	H	0.856584	-0.469505	0.163104
H134	H	0.861558	-0.466373	0.062555
H135	H	0.812182	-0.519531	0.109597
H136	H	0.973036	-0.523617	0.100015
H137	H	0.923667	-0.576780	0.147076
H138	H	0.334749	0.083042	-0.236375
