data_functionalizedCrystal
_audit_creation_method	'MofGen! by Chris Wilmer'
_symmetry_space_group_name_H-M	'P1'
_symmetry_Int_Tables_number	1
_symmetry_cell_setting	triclinic
loop_
_symmetry_equiv_pos_as_xyz
  x,y,z
_cell_length_a	10.686285
_cell_length_b	19.805407
_cell_length_c	19.805399
_cell_angle_alpha	90.019197
_cell_angle_beta	85.610534
_cell_angle_gamma	94.372303
loop_
_atom_site_label
_atom_site_type_symbol
_atom_site_fract_x
_atom_site_fract_y
_atom_site_fract_z
Zn1	Zn	-0.502507	-1.055505	-0.362098
Zn2	Zn	-0.002507	-0.555505	0.137902
Zn3	Zn	-0.713518	-1.064142	-0.240253
Zn4	Zn	-0.213518	-0.564142	0.259747
Zn5	Zn	-0.502527	-0.942321	-0.248923
Zn6	Zn	-0.002527	-0.442321	0.251077
Zn7	Zn	-0.713437	-0.951002	-0.353404
Zn8	Zn	-0.213437	-0.451002	0.146596
O9	O	-0.607997	-1.003242	-0.301169
O10	O	-0.107997	-0.503242	0.198831
O11	O	-0.530523	-1.151369	-0.345945
O12	O	-0.030523	-0.651369	0.154055
O13	O	-0.685573	-1.047963	-0.146685
O14	O	-0.185573	-0.547963	0.353315
O15	O	-0.325949	-0.950088	-0.271202
O16	O	0.174051	-0.450088	0.228798
O17	O	-0.685553	-1.157714	-0.256427
O18	O	-0.185553	-0.657714	0.243573
O19	O	-0.325934	-1.033244	-0.354352
O20	O	0.174066	-0.533244	0.145648
O21	O	-0.530558	-0.958462	-0.153054
O22	O	-0.030558	-0.458462	0.346946
O23	O	-0.530479	-0.848755	-0.262772
O24	O	-0.030479	-0.348755	0.237228
O25	O	-0.685414	-0.964883	-0.449276
O26	O	-0.185414	-0.464883	0.050724
O27	O	-0.685434	-0.855133	-0.339534
O28	O	-0.185434	-0.355133	0.160466
O29	O	-0.530444	-1.041661	-0.455663
O30	O	-0.030444	-0.541661	0.044337
O31	O	-0.890083	-1.056381	-0.247996
O32	O	-0.390083	-0.556381	0.252004
O33	O	-0.890024	-0.973257	-0.331128
O34	O	-0.390024	-0.473257	0.168872
C35	C	-0.607951	-0.827385	-0.301151
C36	C	-0.107951	-0.327385	0.198849
C37	C	-0.607962	-0.752153	-0.301157
C38	C	-0.107962	-0.252153	0.198843
C39	C	-0.527379	-0.713511	-0.347829
C40	C	-0.027379	-0.213511	0.152171
C41	C	-0.527383	-0.642823	-0.347830
C42	C	-0.027383	-0.142823	0.152170
C43	C	-0.607977	-0.610778	-0.301162
C44	C	-0.107977	-0.110778	0.198838
C45	C	-0.688563	-0.649425	-0.254485
C46	C	-0.188563	-0.149425	0.245515
C47	C	-0.688552	-0.720111	-0.254482
C48	C	-0.188552	-0.220111	0.245518
C49	C	-0.688609	-0.364353	-0.254497
C50	C	-0.188609	0.135647	0.245503
C51	C	-0.688617	-0.293662	-0.254505
C52	C	-0.188617	0.206338	0.245495
C53	C	-0.527440	-0.287065	-0.347845
C54	C	-0.027440	0.212935	0.152155
C55	C	-0.527429	-0.357752	-0.347842
C56	C	-0.027429	0.142248	0.152158
C57	C	-0.608010	-0.396392	-0.301163
C58	C	-0.108010	0.103608	0.198837
C59	C	-0.608003	-0.473040	-0.301162
C60	C	-0.108003	0.026960	0.198838
C61	C	-0.607991	-0.534131	-0.301165
C62	C	-0.107991	-0.034131	0.198835
C63	C	-0.935838	-1.016717	-0.287693
C64	C	-0.435838	-0.516717	0.212307
C65	C	-1.076089	-1.022543	-0.281950
C66	C	-0.576089	-0.522543	0.218050
C67	C	-0.278877	-0.989734	-0.314714
C68	C	0.221123	-0.489734	0.185286
C69	C	-0.138625	-0.983978	-0.320485
C70	C	0.361375	-0.483978	0.179515
C71	C	-0.607918	-1.003277	-0.477716
C72	C	-0.107918	-0.503277	0.022284
C73	C	-0.607884	-1.003292	-0.552949
C74	C	-0.107884	-0.503292	-0.052949
C75	C	-0.608035	-0.179787	-0.301183
C76	C	-0.108035	0.320213	0.198817
C77	C	-0.608027	-0.255018	-0.301174
C78	C	-0.108027	0.244982	0.198826
C79	C	-0.527187	-1.043271	-0.591620
C80	C	-0.027187	-0.543271	-0.091620
C81	C	-0.527151	-1.043277	-0.662310
C82	C	-0.027151	-0.543277	-0.162310
C83	C	-0.607818	-1.003306	-0.694327
C84	C	-0.107818	-0.503306	-0.194327
C85	C	-0.688518	-0.963322	-0.655651
C86	C	-0.188518	-0.463322	-0.155651
C87	C	-0.688548	-0.963313	-0.584963
C88	C	-0.188548	-0.463313	-0.084963
C89	C	-0.688401	-0.963355	-0.940729
C90	C	-0.188401	-0.463355	-0.440729
C91	C	-0.688368	-0.963369	-1.011423
C92	C	-0.188368	-0.463369	-0.511423
C93	C	-0.527004	-1.043319	-1.018077
C94	C	-0.027004	-0.543319	-0.518077
C95	C	-0.527033	-1.043310	-0.947389
C96	C	-0.027033	-0.543310	-0.447389
C97	C	-0.607728	-1.003324	-0.908719
C98	C	-0.107728	-0.503324	-0.408719
C99	C	-0.607765	-1.003317	-0.832069
C100	C	-0.107765	-0.503317	-0.332069
C101	C	-0.607788	-1.003316	-0.770976
C102	C	-0.107788	-0.503316	-0.270976
C103	C	-0.607985	-1.003243	-0.125314
C104	C	-0.107985	-0.503243	0.374686
C105	C	-0.607664	-1.003345	-0.050096
C106	C	-0.107664	-0.503345	0.449904
H107	H	-0.461767	-0.611364	-0.385836
H108	H	0.038233	-0.111364	0.114164
F109	F	-0.774366	-0.920779	-0.689728
F110	F	-0.274366	-0.420779	-0.189728
F111	F	-0.441675	-0.245935	-0.397523
F112	F	0.058325	0.254065	0.102477
H113	H	-0.754249	-0.267573	-0.216500
H114	H	-0.254249	0.232427	0.283500
F115	F	-0.774229	-0.920824	-1.045496
F116	F	-0.274229	-0.420824	-0.545496
F117	F	-0.774284	-0.920798	-0.899583
F118	F	-0.274284	-0.420798	-0.399583
F119	F	-0.774348	-0.405467	-0.204807
F120	F	-0.274348	0.094533	0.295193
H121	H	-0.754178	-0.623328	-0.216484
H122	H	-0.254178	-0.123328	0.283516
H123	H	-1.084870	-0.946503	-0.357872
H124	H	-0.584870	-0.446503	0.142128
F125	F	-1.146356	-1.071521	-0.233073
F126	F	-0.646356	-0.571521	0.266927
F127	F	-0.774319	-0.761237	-0.204808
F128	F	-0.274319	-0.261237	0.295192
H129	H	-0.461502	-1.075822	-0.565557
H130	H	0.038498	-0.575822	-0.065557
F131	F	-0.441305	-1.085853	-0.703463
F132	F	0.058695	-0.585853	-0.203463
F133	F	-0.441180	-1.085855	-0.913317
F134	F	0.058820	-0.585855	-0.413317
H135	H	-0.461293	-1.075875	-1.049571
H136	H	0.038707	-0.575875	-0.549571
H137	H	-0.461754	-0.739597	-0.385834
H138	H	0.038246	-0.239597	0.114166
F139	F	-0.441656	-0.391853	-0.397515
F140	F	0.058344	0.108147	0.102485
H141	H	-0.754247	-0.930751	-0.553477
H142	H	-0.254247	-0.430751	-0.053477
