data_functionalizedCrystal
_audit_creation_method	'MofGen! by Chris Wilmer'
_symmetry_space_group_name_H-M	'P1'
_symmetry_Int_Tables_number	1
_symmetry_cell_setting	triclinic
loop_
_symmetry_equiv_pos_as_xyz
  x,y,z
_cell_length_a	15.944551
_cell_length_b	15.944493
_cell_length_c	15.021413
_cell_angle_alpha	90.009890
_cell_angle_beta	89.997174
_cell_angle_gamma	83.486891
loop_
_atom_site_label
_atom_site_type_symbol
_atom_site_fract_x
_atom_site_fract_y
_atom_site_fract_z
O1	O	1.114506	0.108324	-0.073927
O2	O	0.869954	0.121680	-0.073948
O3	O	0.998934	-0.007276	-0.073945
O4	O	0.985527	0.237280	-0.073931
O5	O	0.998913	-0.007258	0.074120
O6	O	0.869933	0.121699	0.074116
O7	O	1.114486	0.108342	0.074137
Zn8	Zn	0.992206	0.115023	0.097635
Zn9	Zn	0.992233	0.114999	-0.097446
O10	O	0.985506	0.237299	0.074133
C11	C	0.838650	0.121135	0.000081
C12	C	0.745404	0.119473	0.000073
C13	C	0.998375	-0.038562	0.000084
C14	C	0.996733	-0.131810	0.000072
C15	C	0.530565	0.035566	0.000085
C16	C	0.469547	0.074520	-0.072916
C17	C	0.574679	0.116465	0.000083
C18	C	0.469549	0.074558	0.073064
C19	C	0.409767	0.113555	0.000097
C20	C	0.514889	0.155442	-0.072979
C21	C	0.514897	0.155468	0.073067
C22	C	0.453897	0.194481	0.000048
C23	C	0.669681	0.118140	0.000074
C24	C	0.314766	0.111886	0.000099
C25	C	1.072653	-0.367570	0.000095
C26	C	1.031722	-0.418147	-0.072911
C27	C	0.993688	-0.302531	0.000083
C28	C	1.031683	-0.418105	0.073069
C29	C	0.990754	-0.467441	0.000097
C30	C	0.952779	-0.351880	-0.072984
C31	C	0.952752	-0.351835	0.073061
C32	C	0.911763	-0.402379	0.000037
C33	C	0.995381	-0.207531	0.000074
C34	C	0.989055	-0.562438	0.000100
C35	C	1.145790	0.108888	0.000106
C36	C	1.239036	0.110550	0.000108
C37	C	0.986064	0.268584	0.000103
C38	C	0.987707	0.361833	0.000109
N39	N	0.992194	0.115039	0.230772
N40	N	0.992252	0.114976	-0.230584
C41	C	0.932545	0.174641	0.470454
C42	C	1.008442	0.190948	0.529796
C43	C	0.992215	0.115018	0.412379
C44	C	0.916339	0.098730	0.529779
C45	C	0.992229	0.115000	0.587803
C46	C	1.068151	0.131364	0.470415
C47	C	0.975998	0.039112	0.470392
C48	C	1.051950	0.055387	0.529708
C49	C	0.992206	0.115031	0.311322
C50	C	0.992247	0.114987	0.688859
H51	H	0.449452	0.040296	-0.134637
O52	O	0.959743	-0.037465	0.439188
C53	C	1.009951	-0.159932	0.352176
C54	C	1.028489	-0.073233	0.387477
H55	H	1.065512	-0.188869	0.310345
H56	H	1.000042	-0.203353	0.410608
H57	H	0.950536	-0.151730	0.309388
H58	H	1.087911	-0.081355	0.430251
H59	H	1.038346	-0.029844	0.329004
H60	H	1.065078	-0.447101	-0.134628
O61	O	0.913104	-0.317384	-0.146679
C62	C	0.870128	-0.190246	-0.229341
C63	C	0.915090	-0.229204	-0.145852
H64	H	0.871703	-0.118945	-0.228690
H65	H	0.903566	-0.218121	-0.291501
H66	H	0.801768	-0.204833	-0.229609
H67	H	0.983451	-0.214632	-0.145498
H68	H	0.881586	-0.201328	-0.083730
O69	O	0.570361	-0.044525	0.000156
C70	C	0.665790	-0.148040	0.077107
C71	C	0.620758	-0.057327	0.077153
H72	H	0.706560	-0.158414	0.139342
H73	H	0.616809	-0.194865	0.076478
H74	H	0.707386	-0.157980	0.015420
H75	H	0.579164	-0.047305	0.138829
H76	H	0.669783	-0.010549	0.077736
O77	O	0.445611	0.033856	0.146784
C78	C	0.442747	0.029519	0.307095
C79	C	0.469882	0.075713	0.223689
H80	H	0.462375	0.063331	0.369293
H81	H	0.371283	0.029208	0.306798
H82	H	0.474549	-0.038227	0.306934
H83	H	0.438139	0.143478	0.223795
H84	H	0.541353	0.075956	0.224017
H85	H	1.102473	0.004956	0.555562
O86	O	1.024703	0.267516	0.561040
C87	C	0.975050	0.389354	0.649251
C88	C	0.956547	0.302644	0.613951
H89	H	0.919951	0.417789	0.692021
H90	H	1.035103	0.381422	0.691051
H91	H	0.983777	0.433072	0.590752
H92	H	0.947779	0.258880	0.672396
H93	H	0.896513	0.310641	0.572124
H94	H	0.843692	-0.417845	-0.000009
H95	H	0.882134	0.225102	0.444437
O96	O	1.144730	0.148018	0.439576
C97	C	1.248580	0.246597	0.435516
C98	C	1.161852	0.227822	0.470504
H99	H	1.262443	0.311125	0.460491
H100	H	1.299517	0.196119	0.460466
H101	H	1.247958	0.246466	0.359626
H102	H	1.162391	0.227966	0.546391
H103	H	1.110953	0.278302	0.445486
H104	H	0.534878	0.189626	-0.134763
H105	H	0.420724	0.261690	0.000011
O106	O	0.913114	-0.317323	0.146781
C107	C	0.909903	-0.312106	0.307079
C108	C	0.954875	-0.351242	0.223658
H109	H	0.943638	-0.339527	0.369256
H110	H	0.911051	-0.240751	0.306075
H111	H	0.841679	-0.327110	0.307659
H112	H	1.023117	-0.336303	0.223024
H113	H	0.953659	-0.422587	0.224695
H114	H	0.852166	0.084961	0.555857
H115	H	0.535013	0.189664	0.134791
H116	H	1.140671	-0.351942	0.000028
H117	H	1.065039	-0.447029	0.134786
