data_functionalizedCrystal
_audit_creation_method	'MofGen! by Chris Wilmer'
_symmetry_space_group_name_H-M	'P1'
_symmetry_Int_Tables_number	1
_symmetry_cell_setting	triclinic
loop_
_symmetry_equiv_pos_as_xyz
  x,y,z
_cell_length_a	15.995292
_cell_length_b	15.072220
_cell_length_c	12.837942
_cell_angle_alpha	90.000314
_cell_angle_beta	90.851222
_cell_angle_gamma	90.013670
loop_
_atom_site_label
_atom_site_type_symbol
_atom_site_fract_x
_atom_site_fract_y
_atom_site_fract_z
O1	O	1.121664	0.073806	-0.133322
O2	O	0.879203	0.073803	-0.149884
O3	O	0.995057	0.073799	0.009298
O4	O	1.005810	0.073810	-0.292504
O5	O	0.995026	-0.073766	0.009289
O6	O	0.879172	-0.073762	-0.149893
O7	O	1.121633	-0.073759	-0.133331
Zn8	Zn	1.000398	-0.097190	-0.141613
Zn9	Zn	1.000439	0.097234	-0.141602
O10	O	1.005779	-0.073755	-0.292513
C11	C	0.847938	0.000020	-0.149215
C12	C	0.754824	0.000018	-0.147194
C13	C	0.416493	0.000028	-0.139764
C14	C	0.448973	0.000362	-0.254658
C15	C	0.545822	0.000025	-0.256842
C16	C	0.584343	0.000024	-0.143451
C17	C	0.550640	-0.084242	-0.086014
C18	C	0.453739	-0.084309	-0.084631
C19	C	0.453732	0.083500	-0.082275
C20	C	0.550565	0.084610	-0.086533
C21	C	0.679205	0.000018	-0.145528
C22	C	0.321631	0.000028	-0.137683
N23	N	1.000376	-0.229878	-0.141621
C24	C	1.000436	-0.589080	-0.141598
C25	C	0.938192	-0.551471	-0.226488
C26	C	0.938375	-0.448645	-0.226797
C27	C	1.000406	-0.410876	-0.141609
C28	C	1.089656	-0.448165	-0.165210
C29	C	1.089317	-0.551023	-0.165813
C30	C	0.974190	-0.551185	-0.032855
C31	C	0.972243	-0.448321	-0.033581
C32	C	1.000394	-0.310163	-0.141613
C33	C	1.000455	-0.689793	-0.141595
C34	C	1.152898	0.000026	-0.134000
C35	C	1.246012	0.000033	-0.136021
C36	C	0.991409	0.000017	0.047914
C37	C	0.980576	0.000018	0.162988
N38	N	1.000466	0.229923	-0.141586
C39	C	1.009427	0.000029	-0.331129
C40	C	1.020260	0.000034	-0.446203
C41	C	1.110814	0.000039	0.403980
C42	C	1.100639	0.000040	0.512103
C43	C	0.950051	0.000029	0.487360
C44	C	0.960226	0.000027	0.379236
C45	C	1.040610	0.000031	0.337551
C46	C	1.050785	0.000023	0.229425
C47	C	0.900198	0.000018	0.204684
C48	C	0.890022	0.000020	0.312807
H49	H	0.568450	0.060433	-0.301818
Br50	Br	1.125670	-0.590993	-0.297992
Br51	Br	0.419171	0.084444	0.058682
H52	H	1.157807	0.000049	0.566187
Br53	Br	0.418278	-0.090747	0.055767
Br54	Br	1.041800	-0.405489	0.076643
H55	H	1.176266	0.000033	0.370039
H56	H	1.116238	0.000023	0.195487
Br57	Br	0.589353	-0.188766	-0.152501
Br58	Br	0.828254	-0.406623	-0.203439
H59	H	1.019481	-0.575505	0.030317
H60	H	0.843032	0.000005	0.150585
H61	H	0.428284	0.147369	-0.118183
Br62	Br	1.169302	-0.407393	-0.064896
H63	H	0.906546	-0.423951	-0.015669
Br64	Br	0.840967	0.000056	0.543952
Br65	Br	0.594504	0.093091	0.051420
Br66	Br	0.827752	-0.592718	-0.203427
Br67	Br	0.967313	-0.594510	-0.360237
H68	H	0.956033	-0.424028	-0.307494
H69	H	1.137541	-0.575899	-0.106420
Br70	Br	0.587136	0.188518	-0.156197
Br71	Br	0.780935	0.000026	0.369391
Br72	Br	1.126510	-0.405211	-0.295882
H73	H	0.423455	-0.059727	-0.298701
Br74	Br	0.408224	0.101087	-0.328472
H75	H	0.430083	-0.147298	-0.124417
Br76	Br	0.582501	-0.100824	-0.332274
Br77	Br	0.592644	-0.089465	0.053066
H78	H	0.910054	-0.577177	-0.010155
