data_functionalizedCrystal
_audit_creation_method	'MofGen! by Chris Wilmer'
_symmetry_space_group_name_H-M	'P1'
_symmetry_Int_Tables_number	1
_symmetry_cell_setting	triclinic
loop_
_symmetry_equiv_pos_as_xyz
  x,y,z
_cell_length_a	12.759400
_cell_length_b	17.077404
_cell_length_c	17.077396
_cell_angle_alpha	89.982756
_cell_angle_beta	89.974265
_cell_angle_gamma	90.014870
loop_
_atom_site_label
_atom_site_type_symbol
_atom_site_fract_x
_atom_site_fract_y
_atom_site_fract_z
Zn1	Zn	-0.418251	1.200082	-0.443862
Zn2	Zn	-0.593954	1.200013	-0.312604
Zn3	Zn	-0.418291	1.068819	-0.312610
Zn4	Zn	-0.593890	1.068801	-0.443828
O5	O	-0.506097	1.134429	-0.378226
O6	O	-0.441569	1.309920	-0.426463
O7	O	-0.570696	1.182589	-0.202758
O8	O	-0.271264	1.086268	-0.330038
O9	O	-0.570658	1.309869	-0.330028
O10	O	-0.271236	1.182706	-0.426468
O11	O	-0.441637	1.086201	-0.202762
O12	O	-0.441574	0.958970	-0.330005
O13	O	-0.570547	1.086237	-0.553680
O14	O	-0.570585	0.958956	-0.426410
O15	O	-0.441506	1.182689	-0.553705
O16	O	-0.740967	1.182571	-0.329995
O17	O	-0.740919	1.086170	-0.426404
C18	C	-0.506077	0.930481	-0.378205
C19	C	-0.506095	0.843231	-0.378214
C20	C	-0.573372	0.802255	-0.428332
C21	C	-0.573375	0.720274	-0.428344
C22	C	-0.506104	0.679272	-0.378234
C23	C	-0.438819	0.720254	-0.328115
C24	C	-0.438812	0.802233	-0.328107
C25	C	-0.438839	0.549384	-0.328133
C26	C	-0.438847	0.467399	-0.328140
C27	C	-0.573402	0.467425	-0.428371
C28	C	-0.573395	0.549404	-0.428363
C29	C	-0.506111	0.590381	-0.378242
C30	C	-0.779064	1.134382	-0.378212
C31	C	-0.895840	1.134434	-0.378233
C32	C	-0.950597	1.184628	-0.428487
C33	C	-1.060322	1.184672	-0.428508
C34	C	-1.060522	1.084327	-0.328014
C35	C	-0.950800	1.084279	-0.327998
C36	C	-1.210159	1.212727	-0.521132
C37	C	-1.264920	1.262933	-0.571379
C38	C	-1.229213	1.339504	-0.583495
C39	C	-1.138746	1.365885	-0.545352
C40	C	-1.083991	1.315683	-0.495099
C41	C	-1.119697	1.239101	-0.482999
C42	C	-0.800960	1.056232	-0.235372
C43	C	-0.746203	1.006034	-0.185115
C44	C	-0.781908	0.929461	-0.172991
C45	C	-0.872378	0.903083	-0.211120
C46	C	-0.927135	0.953282	-0.261377
C47	C	-0.891422	1.029853	-0.273502
C48	C	-0.232063	1.134497	-0.378257
C49	C	-0.115287	1.134526	-0.378271
C50	C	-0.506015	1.134468	-0.582971
C51	C	-0.505980	1.134485	-0.670220
C52	C	-0.506116	1.339173	-0.378248
C53	C	-0.506125	1.426423	-0.378258
C54	C	-0.438771	1.084311	-0.711212
C55	C	-0.438747	1.084324	-0.793193
C56	C	-0.505928	1.134515	-0.834180
C57	C	-0.573145	1.184691	-0.793182
C58	C	-0.573173	1.184674	-0.711203
C59	C	-0.573079	1.184725	-0.964053
C60	C	-0.573050	1.184744	-1.046037
C61	C	-0.438653	1.084375	-1.046042
C62	C	-0.438682	1.084358	-0.964063
C63	C	-0.505897	1.134535	-0.923071
C64	C	-0.506102	1.134435	-0.174278
C65	C	-0.505840	1.134570	-0.087029
H66	H	-1.010337	1.337163	-0.464043
C67	C	-0.890141	1.239789	-0.483746
H68	H	-0.816951	1.232579	-0.476535
H69	H	-0.908089	1.228277	-0.536480
H70	H	-0.908075	1.292548	-0.472303
H71	H	-0.384059	1.043444	-0.677846
C72	C	-0.647017	1.239918	-0.918963
H73	H	-0.687017	1.269818	-0.955113
H74	H	-0.692801	1.209872	-0.886974
H75	H	-0.606835	1.274126	-0.886993
C76	C	-0.364718	1.029178	-1.091125
H77	H	-0.324702	0.999292	-1.054974
H78	H	-0.404888	0.994969	-1.123096
H79	H	-0.318932	1.059231	-1.123114
C80	C	-0.647103	1.239865	-0.666112
H81	H	-0.687105	1.269764	-0.702263
H82	H	-0.692886	1.209816	-0.634124
H83	H	-0.606926	1.274074	-0.634141
H84	H	-0.628179	0.582786	-0.469162
H85	H	-0.627850	1.225554	-0.826561
C86	C	-0.364862	0.422294	-0.273016
H87	H	-0.374518	0.367602	-0.280192
H88	H	-0.294285	0.435734	-0.284587
H89	H	-0.380160	0.435711	-0.220253
C90	C	-1.249429	1.128494	-0.507813
H91	H	-1.203856	1.102368	-0.472432
H92	H	-1.318177	1.129880	-0.486489
H93	H	-1.250464	1.101263	-0.556307
C94	C	-0.647407	0.422355	-0.483508
H95	H	-0.637769	0.367659	-0.476345
H96	H	-0.717977	0.435772	-0.471927
H97	H	-0.632114	0.435817	-0.536270
C98	C	-0.646951	1.239946	-1.091126
H99	H	-0.637297	1.232774	-1.145820
H100	H	-0.717545	1.228432	-1.077683
H101	H	-0.631589	1.292694	-1.077699
C102	C	-0.721676	0.874244	-0.117707
H103	H	-0.662680	0.900917	-0.096733
H104	H	-0.766443	0.858189	-0.076240
H105	H	-0.698728	0.829564	-0.146054
H106	H	-0.384040	0.582745	-0.287327
C107	C	-1.289446	1.394732	-0.638762
H108	H	-1.255231	1.444119	-0.640509
H109	H	-1.291284	1.372770	-0.689842
H110	H	-1.358987	1.401389	-0.620020
C111	C	-0.364818	0.675157	-0.272995
H112	H	-0.324741	0.711305	-0.243151
H113	H	-0.404950	0.643158	-0.238744
H114	H	-0.319091	0.643197	-0.303090
H115	H	-0.384022	0.835595	-0.287300
C116	C	-1.099476	1.450116	-0.558678
H117	H	-1.145037	1.476234	-0.594075
H118	H	-1.098435	1.477355	-0.510193
H119	H	-1.030723	1.448723	-0.580006
C120	C	-1.026676	0.924281	-0.303296
H121	H	-1.054184	0.965150	-0.334949
H122	H	-1.009814	0.880582	-0.335312
H123	H	-1.077459	0.909238	-0.265473
H124	H	-1.338578	1.241447	-0.602435
C125	C	-0.364811	1.029138	-0.838280
H126	H	-0.324795	0.999251	-0.802129
H127	H	-0.404979	0.994928	-0.870252
H128	H	-0.319026	1.059192	-0.870269
H129	H	-0.901452	0.840733	-0.201247
C130	C	-0.647370	0.847350	-0.483454
H131	H	-0.687431	0.811201	-0.513309
H132	H	-0.693095	0.879313	-0.453369
H133	H	-0.607227	0.879347	-0.517707
C134	C	-1.120980	1.029169	-0.272753
H135	H	-1.194170	1.036391	-0.279953
H136	H	-1.103051	0.976411	-0.284186
H137	H	-1.103028	1.040689	-0.220017
C138	C	-0.646684	1.035047	-0.143176
H139	H	-0.633249	1.087837	-0.157603
H140	H	-0.656545	1.031925	-0.088125
H141	H	-0.588852	1.003281	-0.157944
C142	C	-0.761688	1.140465	-0.248707
H143	H	-0.807250	1.166580	-0.284104
H144	H	-0.760652	1.167703	-0.200222
H145	H	-0.692935	1.139075	-0.270033
H146	H	-0.383972	1.043491	-0.930693
C147	C	-0.647444	0.675203	-0.483425
H148	H	-0.687535	0.711364	-0.513246
H149	H	-0.607377	0.643220	-0.517701
H150	H	-0.693153	0.643228	-0.453293
