data_functionalizedCrystal
_audit_creation_method	'MofGen! by Chris Wilmer'
_symmetry_space_group_name_H-M	'P1'
_symmetry_Int_Tables_number	1
_symmetry_cell_setting	triclinic
loop_
_symmetry_equiv_pos_as_xyz
  x,y,z
_cell_length_a	10.489741
_cell_length_b	17.666332
_cell_length_c	10.489741
_cell_angle_alpha	90.006142
_cell_angle_beta	84.539174
_cell_angle_gamma	90.006642
loop_
_atom_site_label
_atom_site_type_symbol
_atom_site_fract_x
_atom_site_fract_y
_atom_site_fract_z
O1	O	1.694062	0.062901	0.179970
O2	O	2.194062	0.562901	0.679970
O3	O	1.322867	0.062913	0.196863
O4	O	1.822867	0.562913	0.696863
O5	O	1.516911	0.062902	0.002819
O6	O	2.016911	0.562902	0.502819
O7	O	1.500018	0.062912	0.374014
O8	O	2.000018	0.562912	0.874014
O9	O	1.516877	-0.062995	0.002808
O10	O	2.016877	0.437005	0.502808
O11	O	1.322832	-0.062984	0.196852
O12	O	1.822832	0.437016	0.696852
O13	O	1.694028	-0.062996	0.179959
O14	O	2.194028	0.437004	0.679959
Cu15	Cu	1.508427	-0.074485	0.188405
Cu16	Cu	2.008427	0.425515	0.688405
Cu17	Cu	1.508468	0.074402	0.188418
Cu18	Cu	2.008468	0.574402	0.688418
O19	O	1.499984	-0.062985	0.374004
O20	O	1.999984	0.437015	0.874004
C21	C	1.275318	-0.000034	0.195582
C22	C	1.775318	0.499966	0.695582
C23	C	1.133688	-0.000030	0.191765
C24	C	1.633688	0.499970	0.691765
N25	N	1.508408	-0.179205	0.188395
N26	N	2.008408	0.320795	0.688395
C27	C	1.065548	-0.000040	0.068300
C28	C	1.565548	0.499960	0.568300
C29	C	0.973438	0.062034	0.126629
C30	C	1.473438	0.562034	0.626629
C31	C	0.973438	-0.062091	0.126647
C32	C	1.473438	0.437909	0.626647
C33	C	1.043444	0.062095	0.250144
C34	C	1.543444	0.562095	0.750144
C35	C	1.043454	-0.062085	0.250146
C36	C	1.543454	0.437915	0.750146
C37	C	0.951371	0.000004	0.308564
C38	C	1.451371	0.500004	0.808564
C39	C	1.594359	-0.218819	0.102515
C40	C	2.094359	0.281181	0.602515
C41	C	1.594366	-0.298067	0.102509
C42	C	2.094366	0.201933	0.602509
C43	C	1.508435	-0.337697	0.188405
C44	C	2.008435	0.162303	0.688405
C45	C	1.422467	-0.298073	0.274292
C46	C	1.922467	0.201927	0.774292
C47	C	1.422454	-0.218827	0.274287
C48	C	1.922454	0.281173	0.774287
N49	N	1.493234	-0.462112	0.301127
N50	N	1.993234	0.037888	0.801127
N51	N	1.493255	-0.537393	0.301127
N52	N	1.993255	-0.037393	0.801127
C53	C	1.508469	-0.576461	0.188423
C54	C	2.008469	-0.076461	0.688423
N55	N	1.523686	-0.537405	0.075715
N56	N	2.023686	-0.037405	0.575715
N57	N	1.523672	-0.462117	0.075715
N58	N	2.023672	0.037883	0.575715
C59	C	1.508439	-0.423626	0.188420
C60	C	2.008439	0.076374	0.688420
C61	C	1.594433	-0.702005	0.102530
C62	C	2.094433	-0.202005	0.602530
C63	C	1.594431	-0.781254	0.102522
C64	C	2.094431	-0.281254	0.602522
C65	C	1.422538	-0.781258	0.274315
C66	C	1.922538	-0.281258	0.774315
C67	C	1.422533	-0.702011	0.274312
C68	C	1.922533	-0.202011	0.774312
C69	C	1.508487	-0.662389	0.188421
C70	C	2.008487	-0.162389	0.688421
C71	C	1.741577	-0.000047	0.181241
C72	C	2.241577	0.499953	0.681241
C73	C	1.883206	-0.000047	0.185058
C74	C	2.383206	0.499953	0.685058
C75	C	1.515618	-0.000046	-0.044718
C76	C	2.015618	0.499954	0.455282
C77	C	1.511801	-0.000044	-0.186348
C78	C	2.011801	0.499956	0.313652
N79	N	1.508497	0.179122	0.188417
N80	N	2.008497	0.679122	0.688417
C81	C	1.388336	-0.000035	-0.254488
C82	C	1.888336	0.499965	0.245512
C83	C	1.446643	-0.062110	-0.346616
C84	C	1.946643	0.437890	0.153384
C85	C	1.446706	0.062014	-0.346580
C86	C	1.946706	0.562014	0.153420
C87	C	1.570158	-0.062171	-0.276610
C88	C	2.070158	0.437829	0.223390
C89	C	1.570204	0.062009	-0.276565
C90	C	2.070204	0.562009	0.223435
C91	C	1.628600	-0.000081	-0.368665
C92	C	2.128600	0.499919	0.131335
C93	C	1.501277	-0.000035	0.421541
C94	C	2.001277	0.499965	0.921541
C95	C	1.505094	-0.000032	0.563170
C96	C	2.005094	0.499968	1.063170
H97	H	1.115238	0.000035	-0.033196
H98	H	1.615238	0.500035	0.466804
F99	F	0.932921	0.130626	0.058356
F100	F	1.432921	0.630626	0.558356
H101	H	1.664419	-0.813508	0.032581
H102	H	2.164419	-0.313508	0.532581
F103	F	1.761401	-0.000128	-0.433269
F104	F	2.261401	0.499872	0.066731
F105	F	1.331075	-0.823432	0.365725
F106	F	1.831075	-0.323432	0.865725
F107	F	1.331058	-0.659847	0.365723
F108	F	1.831058	-0.159847	0.865723
F109	F	1.083752	0.130767	0.318379
F110	F	1.583752	0.630767	0.818379
F111	F	1.685833	-0.176652	0.011099
F112	F	2.185833	0.323348	0.511099
F113	F	0.886766	0.000050	0.441365
F114	F	1.386766	0.500050	0.941365
F115	F	1.330969	-0.176664	0.365696
F116	F	1.830969	0.323336	0.865696
F117	F	1.638449	0.130604	-0.235978
F118	F	2.138449	0.630604	0.264022
H119	H	1.394464	0.114499	-0.377539
H120	H	1.894464	0.614499	0.122461
H121	H	1.286824	-0.000094	-0.204837
H122	H	1.786824	0.499906	0.295163
F123	F	1.638367	-0.130842	-0.236322
F124	F	2.138367	0.369158	0.263678
F125	F	1.084018	-0.130679	0.318367
F126	F	1.584018	0.369321	0.818367
H127	H	0.942446	-0.114569	0.074380
H128	H	1.442446	0.385431	0.574380
H129	H	1.664360	-0.330327	0.032572
H130	H	2.164360	0.169673	0.532572
F131	F	1.331008	-0.340250	0.365705
F132	F	1.831008	0.159750	0.865705
F133	F	1.685907	-0.659835	0.011111
F134	F	2.185907	-0.159835	0.511111
H135	H	1.394388	-0.114587	-0.377632
H136	H	1.894388	0.385413	0.122368
