data_functionalizedCrystal
_audit_creation_method	'MofGen! by Chris Wilmer'
_symmetry_space_group_name_H-M	'P1'
_symmetry_Int_Tables_number	1
_symmetry_cell_setting	triclinic
loop_
_symmetry_equiv_pos_as_xyz
  x,y,z
_cell_length_a	14.519709
_cell_length_b	14.044220
_cell_length_c	12.996460
_cell_angle_alpha	90.001035
_cell_angle_beta	90.000602
_cell_angle_gamma	88.434511
loop_
_atom_site_label
_atom_site_type_symbol
_atom_site_fract_x
_atom_site_fract_y
_atom_site_fract_z
O1	O	1.233894	0.124265	0.085435
O2	O	1.483894	0.374265	0.335435
O3	O	1.733894	0.624265	0.585435
O4	O	1.983894	0.874265	0.835435
O5	O	0.966597	0.138899	0.085466
O6	O	1.216597	0.388899	0.335466
O7	O	1.466597	0.638899	0.585466
O8	O	1.716597	0.888899	0.835466
O9	O	1.096233	-0.006410	0.085441
O10	O	1.346233	0.243590	0.335441
O11	O	1.596233	0.493590	0.585441
O12	O	1.846233	0.743590	0.835441
O13	O	1.104258	0.269573	0.085460
O14	O	1.354258	0.519573	0.335460
O15	O	1.604258	0.769573	0.585460
O16	O	1.854258	1.019573	0.835460
O17	O	1.096216	-0.006401	-0.085693
O18	O	1.346216	0.243599	0.164307
O19	O	1.596216	0.493599	0.414307
O20	O	1.846216	0.743599	0.664307
O21	O	0.966580	0.138908	-0.085667
O22	O	1.216580	0.388908	0.164333
O23	O	1.466580	0.638908	0.414333
O24	O	1.716580	0.888908	0.664333
O25	O	1.233876	0.124273	-0.085699
O26	O	1.483876	0.374273	0.164301
O27	O	1.733876	0.624273	0.414301
O28	O	1.983876	0.874273	0.664301
Cu29	Cu	1.100226	0.131591	-0.101309
Cu30	Cu	1.350226	0.381591	0.148691
Cu31	Cu	1.600226	0.631591	0.398691
Cu32	Cu	1.850226	0.881591	0.648691
Cu33	Cu	1.100247	0.131581	0.101076
Cu34	Cu	1.350247	0.381581	0.351076
Cu35	Cu	1.600247	0.631581	0.601076
Cu36	Cu	1.850247	0.881581	0.851076
O37	O	1.104240	0.269582	-0.085674
O38	O	1.354240	0.519582	0.164326
O39	O	1.604240	0.769582	0.414326
O40	O	1.854240	1.019582	0.664326
C41	C	0.932174	0.138221	-0.000097
C42	C	1.182174	0.388221	0.249903
C43	C	1.432174	0.638221	0.499903
C44	C	1.682174	0.888221	0.749903
C45	C	0.829628	0.136177	-0.000085
C46	C	1.079628	0.386177	0.249915
C47	C	1.329628	0.636177	0.499915
C48	C	1.579628	0.886177	0.749915
C49	C	0.454125	0.128653	-0.000132
C50	C	0.704125	0.378653	0.249868
C51	C	0.954125	0.628653	0.499868
C52	C	1.204125	0.878653	0.749868
C53	C	0.558601	0.130743	-0.000119
C54	C	0.808601	0.380743	0.249881
C55	C	1.058601	0.630743	0.499881
C56	C	1.308601	0.880743	0.749881
C57	C	0.641873	0.132415	-0.000107
C58	C	0.891873	0.382415	0.249893
C59	C	1.141873	0.632415	0.499893
C60	C	1.391873	0.882415	0.749893
C61	C	0.746356	0.134505	-0.000096
C62	C	0.996356	0.384505	0.249904
C63	C	1.246356	0.634505	0.499904
C64	C	1.496356	0.884505	0.749904
C65	C	1.092712	-0.041726	-0.000126
C66	C	1.342712	0.208274	0.249874
C67	C	1.592712	0.458274	0.499874
C68	C	1.842712	0.708274	0.749874
C69	C	1.082235	-0.146969	-0.000126
C70	C	1.332235	0.103031	0.249874
C71	C	1.582235	0.353031	0.499874
C72	C	1.832235	0.603031	0.749874
C73	C	1.063081	-0.339663	-0.000109
C74	C	1.313081	-0.089663	0.249891
C75	C	1.563081	0.160337	0.499891
C76	C	1.813081	0.410337	0.749891
C77	C	1.137389	-0.397170	-0.000115
C78	C	1.387389	-0.147170	0.249885
C79	C	1.637389	0.102830	0.499885
C80	C	1.887389	0.352830	0.749885
C81	C	1.126731	-0.504392	-0.000105
C82	C	1.376731	-0.254392	0.249895
C83	C	1.626731	-0.004392	0.499895
C84	C	1.876731	0.245608	0.749895
C85	C	1.073737	-0.232432	-0.000118
C86	C	1.323737	0.017568	0.249882
C87	C	1.573737	0.267568	0.499882
C88	C	1.823737	0.517568	0.749882
C89	C	1.268300	0.124951	-0.000134
C90	C	1.518300	0.374951	0.249866
C91	C	1.768300	0.624951	0.499866
C92	C	2.018300	0.874951	0.749866
C93	C	1.370846	0.126995	-0.000139
C94	C	1.620846	0.376995	0.249861
C95	C	1.870846	0.626995	0.499861
C96	C	2.120846	0.876995	0.749861
C97	C	1.107761	0.304898	-0.000104
C98	C	1.357761	0.554898	0.249896
C99	C	1.607761	0.804898	0.499896
C100	C	1.857761	1.054898	0.749896
C101	C	1.118238	0.410141	-0.000098
C102	C	1.368238	0.660141	0.249902
C103	C	1.618238	0.910141	0.499902
C104	C	1.868238	1.160141	0.749902
N105	N	1.100218	0.131597	-0.243656
N106	N	1.350218	0.381597	0.006344
N107	N	1.600218	0.631597	0.256344
N108	N	1.850218	0.881597	0.506344
C109	C	1.100223	0.131600	-0.336762
C110	C	1.350223	0.381600	-0.086762
C111	C	1.600223	0.631600	0.163238
C112	C	1.850223	0.881600	0.413238
C113	C	1.100231	0.131593	-0.453567
C114	C	1.350231	0.381593	-0.203567
C115	C	1.600231	0.631593	0.046433
C116	C	1.850231	0.881593	0.296433
C117	C	1.100241	0.131583	-0.546666
C118	C	1.350241	0.381583	-0.296666
C119	C	1.600241	0.631583	-0.046666
C120	C	1.850241	0.881583	0.203334
C121	C	1.100251	0.131578	-0.663478
C122	C	1.350251	0.381578	-0.413478
C123	C	1.600251	0.631578	-0.163478
C124	C	1.850251	0.881578	0.086522
N125	N	1.100262	0.131567	0.243424
N126	N	1.350262	0.381567	0.493424
N127	N	1.600262	0.631567	0.743424
N128	N	1.850262	0.881567	0.993424
H129	H	1.209010	-0.365878	-0.000054
H130	H	1.459010	-0.115878	0.249946
H131	H	1.709010	0.134122	0.499946
H132	H	1.959010	0.384122	0.749946
O133	O	0.977708	-0.377143	-0.000149
O134	O	1.227708	-0.127143	0.249851
O135	O	1.477708	0.122857	0.499851
O136	O	1.727708	0.372857	0.749851
C137	C	0.985941	-0.477407	-0.000119
C138	C	1.235941	-0.227407	0.249881
C139	C	1.485941	0.022593	0.499881
C140	C	1.735941	0.272593	0.749881
H141	H	1.056044	-0.500385	-0.032516
H142	H	1.306044	-0.250385	0.217484
H143	H	1.556044	-0.000385	0.467484
H144	H	1.806044	0.249615	0.717484
H145	H	0.979253	-0.504949	0.081984
H146	H	1.229253	-0.254949	0.331984
H147	H	1.479253	-0.004949	0.581984
H148	H	1.729253	0.245051	0.831984
C149	C	0.823167	-0.490466	-0.027439
C150	C	1.073167	-0.240466	0.222561
C151	C	1.323167	0.009534	0.472561
C152	C	1.573167	0.259534	0.722561
C153	C	0.909266	-0.518688	-0.067239
C154	C	1.159266	-0.268688	0.182761
C155	C	1.409266	-0.018688	0.432761
C156	C	1.659266	0.231312	0.682761
H157	H	0.775868	-0.515931	-0.068837
H158	H	1.025868	-0.265931	0.181163
H159	H	1.275868	-0.015931	0.431163
H160	H	1.525868	0.234069	0.681163
H161	H	0.817619	-0.422917	-0.027455
H162	H	1.067619	-0.172917	0.222545
H163	H	1.317619	0.077083	0.472545
H164	H	1.567619	0.327083	0.722545
H165	H	0.817606	-0.513419	0.040979
H166	H	1.067606	-0.263419	0.290979
H167	H	1.317606	-0.013419	0.540979
H168	H	1.567606	0.236581	0.790979
H169	H	0.914830	-0.495725	-0.135650
H170	H	1.164830	-0.245725	0.114350
H171	H	1.414830	0.004275	0.364350
H172	H	1.664830	0.254275	0.614350
H173	H	0.914813	-0.586235	-0.067235
H174	H	1.164813	-0.336235	0.182765
H175	H	1.414813	-0.086235	0.432765
H176	H	1.664813	0.163765	0.682765
