data_functionalizedCrystal
_audit_creation_method	'MofGen! by Chris Wilmer'
_symmetry_space_group_name_H-M	'P1'
_symmetry_Int_Tables_number	1
_symmetry_cell_setting	triclinic
loop_
_symmetry_equiv_pos_as_xyz
  x,y,z
_cell_length_a	10.723024
_cell_length_b	10.723024
_cell_length_c	9.198806
_cell_angle_alpha	89.997988
_cell_angle_beta	89.996352
_cell_angle_gamma	84.467869
loop_
_atom_site_label
_atom_site_type_symbol
_atom_site_fract_x
_atom_site_fract_y
_atom_site_fract_z
O1	O	1.657188	0.175024	-0.120879
O2	O	1.294035	0.191778	-0.120884
O3	O	1.483988	0.001825	-0.120876
O4	O	1.467235	0.364977	-0.120887
O5	O	1.483973	0.001824	0.120909
O6	O	1.294020	0.191777	0.120901
O7	O	1.657173	0.175024	0.120906
Cu8	Cu	1.475595	0.183401	0.142981
Cu9	Cu	1.475613	0.183401	-0.142958
O10	O	1.467220	0.364977	0.120898
C11	C	1.247528	0.190558	0.000008
C12	C	1.108974	0.186911	0.000007
C13	C	1.033991	0.293198	0.000002
C14	C	0.890788	0.289431	0.000001
C15	C	1.482762	-0.044675	0.000015
C16	C	1.479114	-0.183229	0.000010
C17	C	1.585401	-0.258212	0.000009
C18	C	1.581634	-0.401415	0.000004
C19	C	1.703680	0.176243	0.000011
C20	C	1.842234	0.179891	0.000003
C21	C	1.468447	0.411477	0.000004
C22	C	1.472094	0.550031	-0.000000
N23	N	1.475592	0.183399	0.344095
N24	N	1.475626	0.183393	-0.344072
C25	C	1.555347	0.103292	0.416295
C26	C	1.555367	0.103288	0.583707
H27	H	0.826355	0.380421	-0.000009
O28	O	1.636774	0.021291	0.657610
C29	C	1.615085	-0.102365	0.620560
H30	H	1.567052	-0.102603	0.510020
H31	H	1.708216	-0.163218	0.615491
H32	H	1.552452	-0.141266	0.706207
O33	O	1.690309	-0.478094	0.000065
C34	C	1.792889	-0.405134	0.000029
H35	H	1.762159	-0.308233	0.045807
H36	H	1.871267	-0.452568	0.070223
H37	H	1.828190	-0.395604	-0.115968
H38	H	1.623611	0.034707	0.354171
H39	H	1.075814	0.386984	0.000008
O40	O	1.394331	0.265275	0.581717
C41	C	1.462113	0.342618	0.493688
H42	H	1.559241	0.293531	0.471013
H43	H	1.410313	0.361942	0.386606
H44	H	1.471596	0.434920	0.552259
H45	H	1.381099	-0.385544	0.000010
O46	O	1.367298	-0.233257	-0.000190
C47	C	1.358613	-0.307715	-0.125436
H48	H	1.456725	-0.339160	-0.167184
H49	H	1.308259	-0.393456	-0.097279
H50	H	1.303833	-0.250740	-0.213119
H51	H	0.906659	0.088896	-0.000003
O52	O	1.059240	0.074942	-0.000186
C53	C	1.099406	0.006669	-0.125427
H54	H	1.190034	0.041324	-0.167176
H55	H	1.116443	-0.097108	-0.097263
H56	H	1.024223	0.020580	-0.213112
O57	O	1.697186	-0.208125	0.000077
C58	C	1.676062	-0.076294	0.000042
H59	H	1.578908	-0.046690	0.045814
H60	H	1.749820	-0.035596	0.070241
H61	H	1.682378	-0.039992	-0.115954
H62	H	1.407319	0.251975	0.406220
