data_functionalizedCrystal
_audit_creation_method	'MofGen! by Chris Wilmer'
_symmetry_space_group_name_H-M	'P1'
_symmetry_Int_Tables_number	1
_symmetry_cell_setting	triclinic
loop_
_symmetry_equiv_pos_as_xyz
  x,y,z
_cell_length_a	12.645331
_cell_length_b	19.121063
_cell_length_c	12.645323
_cell_angle_alpha	92.408124
_cell_angle_beta	89.977324
_cell_angle_gamma	92.467980
loop_
_atom_site_label
_atom_site_type_symbol
_atom_site_fract_x
_atom_site_fract_y
_atom_site_fract_z
Zn1	Zn	1.602654	-0.279627	-0.617388
Zn2	Zn	1.935987	0.053706	-0.284055
Zn3	Zn	2.269321	0.387040	0.049278
Zn4	Zn	1.594942	-0.397086	-0.447665
Zn5	Zn	1.928275	-0.063752	-0.114332
Zn6	Zn	2.261609	0.269581	0.219002
Zn7	Zn	1.425367	-0.279651	-0.440134
Zn8	Zn	1.758700	0.053683	-0.106801
Zn9	Zn	2.092034	0.387016	0.226532
Zn10	Zn	1.417760	-0.397040	-0.624877
Zn11	Zn	1.751093	-0.063706	-0.291544
Zn12	Zn	2.084426	0.269627	0.041789
O13	O	1.510181	-0.338351	-0.532516
O14	O	1.843514	-0.005017	-0.199183
O15	O	2.176847	0.328316	0.134150
O16	O	1.749978	-0.295217	-0.594892
O17	O	2.083311	0.038116	-0.261558
O18	O	2.416644	0.371449	0.071775
O19	O	1.572404	-0.381537	-0.298321
O20	O	1.905737	-0.048203	0.035013
O21	O	2.239070	0.285130	0.368346
O22	O	1.455295	-0.181363	-0.457361
O23	O	1.788629	0.151970	-0.124028
O24	O	2.121962	0.485303	0.209305
O25	O	1.744312	-0.381514	-0.470197
O26	O	2.077645	-0.048180	-0.136863
O27	O	2.410978	0.285153	0.196470
O28	O	1.585547	-0.181346	-0.587589
O29	O	1.918881	0.151988	-0.254256
O30	O	2.252214	0.485321	0.079077
O31	O	1.447818	-0.295258	-0.292788
O32	O	1.781151	0.038075	0.040546
O33	O	2.114484	0.371409	0.373879
O34	O	1.276011	-0.295213	-0.464623
O35	O	1.609344	0.038120	-0.131290
O36	O	1.942678	0.371453	0.202043
O37	O	1.442330	-0.381436	-0.772230
O38	O	1.775663	-0.048102	-0.438896
O39	O	2.108997	0.285231	-0.105563
O40	O	1.270422	-0.381459	-0.600353
O41	O	1.603755	-0.048125	-0.267020
O42	O	1.937089	0.285208	0.066313
O43	O	1.578171	-0.295173	-0.766727
O44	O	1.911504	0.038160	-0.433394
O45	O	2.244838	0.371494	-0.100061
O46	O	1.565027	-0.495364	-0.477459
O47	O	1.898361	-0.162031	-0.144125
O48	O	2.231694	0.171303	0.189208
O49	O	1.434852	-0.495330	-0.607656
O50	O	1.768186	-0.161997	-0.274322
O51	O	2.101519	0.171336	0.059011
C52	C	1.234752	-0.338334	-0.532485
C53	C	1.568085	-0.005001	-0.199151
C54	C	1.901419	0.328333	0.134182
C55	C	1.116921	-0.338344	-0.532497
C56	C	1.450255	-0.005011	-0.199164
C57	C	1.783588	0.328323	0.134169
C58	C	0.952854	-0.283838	-0.447545
C59	C	1.286187	0.049496	-0.114212
C60	C	1.619521	0.382829	0.219121
C61	C	1.075405	-0.283979	-0.447195
C62	C	1.408738	0.049355	-0.113862
C63	C	1.742071	0.382688	0.219471
C64	C	1.067618	-0.412331	-0.506730
C65	C	1.400951	-0.078998	-0.173396
C66	C	1.734285	0.254335	0.159937
C67	C	0.945039	-0.412033	-0.506155
C68	C	1.278372	-0.078700	-0.172822
C69	C	1.611705	0.254633	0.160512
C70	C	0.950986	-0.319567	-0.643576
C71	C	1.284319	0.013766	-0.310243
C72	C	1.617652	0.347100	0.023090
C73	C	1.073698	-0.317914	-0.642847
C74	C	1.407032	0.015419	-0.309513
C75	C	1.740365	0.348752	0.023820
C76	C	1.498306	-0.520831	-0.544210
C77	C	1.831640	-0.187498	-0.210877
C78	C	2.164973	0.145836	0.122457
C79	C	1.493323	-0.598897	-0.549248
C80	C	1.826657	-0.265564	-0.215915
C81	C	2.159990	0.067770	0.117418
C82	C	1.558810	-0.635567	-0.483885
C83	C	1.892144	-0.302233	-0.150551
C84	C	2.225477	0.031100	0.182782
C85	C	1.554130	-0.708918	-0.488629
C86	C	1.887463	-0.375585	-0.155296
C87	C	2.220797	-0.042251	0.178037
C88	C	1.483957	-0.745598	-0.558733
C89	C	1.817290	-0.412265	-0.225399
C90	C	2.150624	-0.078931	0.107934
C91	C	1.418467	-0.708923	-0.624104
C92	C	1.751801	-0.375590	-0.290770
C93	C	2.085134	-0.042256	0.042563
C94	C	1.423154	-0.635573	-0.619364
C95	C	1.756487	-0.302240	-0.286030
C96	C	2.089820	0.031093	0.047303
C97	C	1.466419	-0.967067	-0.576438
C98	C	1.799752	-0.633734	-0.243105
C99	C	2.133086	-0.300401	0.090229
C100	C	1.461736	-1.040422	-0.581171
C101	C	1.795069	-0.707089	-0.247837
C102	C	2.128402	-0.373756	0.085496
C103	C	1.597400	-1.040412	-0.445697
C104	C	1.930734	-0.707079	-0.112364
C105	C	2.264067	-0.373745	0.220969
C106	C	1.602076	-0.967061	-0.440959
C107	C	1.935409	-0.633727	-0.107626
C108	C	2.268742	-0.300394	0.225708
C109	C	1.536590	-0.930392	-0.506334
C110	C	1.869924	-0.597059	-0.173000
C111	C	2.203257	-0.263726	0.160333
C112	C	1.479169	-0.820575	-0.563582
C113	C	1.812502	-0.487241	-0.230249
C114	C	2.145836	-0.153908	0.103085
C115	C	1.541384	-0.855417	-0.501489
C116	C	1.874717	-0.522084	-0.168156
C117	C	2.208051	-0.188750	0.165178
C118	C	1.786685	-0.338368	-0.532549
C119	C	2.120018	-0.005035	-0.199215
C120	C	2.453351	0.328299	0.134118
C121	C	1.904514	-0.338375	-0.532563
C122	C	2.237848	-0.005042	-0.199229
C123	C	2.571181	0.328291	0.134104
C124	C	1.510262	-0.338296	-0.809018
C125	C	1.843596	-0.004963	-0.475685
C126	C	2.176929	0.328370	-0.142352
C127	C	1.510297	-0.338273	-0.926847
C128	C	1.843630	-0.004940	-0.593514
C129	C	2.176964	0.328393	-0.260180
C130	C	1.522130	-0.155158	-0.520800
C131	C	1.855464	0.178175	-0.187467
C132	C	2.188797	0.511509	0.145867
C133	C	1.527222	-0.077092	-0.515807
C134	C	1.860556	0.256241	-0.182474
C135	C	2.193889	0.589575	0.150860
C136	C	1.424603	-0.392285	-1.097856
C137	C	1.757936	-0.058952	-0.764523
C138	C	2.091270	0.274381	-0.431189
C139	C	1.424801	-0.392553	-0.975313
C140	C	1.758134	-0.059219	-0.641980
C141	C	2.091468	0.274114	-0.308647
C142	C	1.620698	-0.358362	-0.972656
C143	C	1.954031	-0.025028	-0.639322
C144	C	2.287365	0.308305	-0.305989
C145	C	1.620225	-0.358700	-1.095276
C146	C	1.953558	-0.025367	-0.761942
C147	C	2.286892	0.307966	-0.428609
C148	C	1.486666	-0.263871	-1.089271
C149	C	1.819999	0.069462	-0.755937
C150	C	2.153332	0.402796	-0.422604
C151	C	1.484145	-0.264317	-0.966693
C152	C	1.817478	0.069016	-0.633360
C153	C	2.150811	0.402350	-0.300026
C154	C	1.510164	-0.338354	-0.257087
C155	C	1.843497	-0.005021	0.076247
C156	C	2.176830	0.328312	0.409580
C157	C	1.510347	-0.338179	-0.139246
C158	C	1.843680	-0.004846	0.194087
C159	C	2.177014	0.328487	0.527421
H160	H	1.101976	-0.354739	-0.709195
H161	H	1.435309	-0.021406	-0.375861
H162	H	1.768642	0.311927	-0.042528
H163	H	0.919439	-0.359290	-0.706863
H164	H	1.252772	-0.025957	-0.373530
H165	H	1.586106	0.307376	-0.040197
F166	F	1.706180	-0.309396	-1.130908
F167	F	2.039514	0.023937	-0.797574
F168	F	2.372847	0.357270	-0.464241
H169	H	1.369829	-0.605717	-0.672591
H170	H	1.703162	-0.272384	-0.339258
H171	H	2.036495	0.060949	-0.005924
F172	F	1.623834	-0.747941	-0.419063
F173	F	1.957167	-0.414608	-0.085730
F174	F	2.290500	-0.081275	0.247604
H175	H	1.615948	-0.605707	-0.426794
H176	H	1.949281	-0.272373	-0.093461
H177	H	2.282615	0.060960	0.239872
H178	H	1.659216	-0.937197	-0.383875
H179	H	1.992550	-0.603864	-0.050542
H180	H	2.325883	-0.270531	0.282792
H181	H	0.915362	-0.427984	-0.425139
H182	H	1.248695	-0.094650	-0.091806
H183	H	1.582028	0.238683	0.241527
H184	H	0.921211	-0.296131	-0.365663
H185	H	1.254545	0.037202	-0.032330
H186	H	1.587878	0.370536	0.301004
F187	F	1.343789	-0.747963	-0.698720
F188	F	1.677123	-0.414629	-0.365386
F189	F	2.010456	-0.081296	-0.032053
H190	H	1.440044	-0.447641	-0.949534
H191	H	1.773378	-0.114308	-0.616200
H192	H	2.106711	0.219026	-0.282867
H193	H	0.926948	-0.228808	-0.462935
H194	H	1.260281	0.104525	-0.129602
H195	H	1.593614	0.437859	0.203731
F196	F	1.667094	-1.079442	-0.376131
F197	F	2.000428	-0.746109	-0.042797
F198	F	2.333761	-0.412776	0.290536
F199	F	1.616069	-0.816378	-0.426887
F200	F	1.949403	-0.483045	-0.093553
F201	F	2.282736	-0.149711	0.239780
H202	H	1.422032	-0.850448	-0.620658
H203	H	1.755365	-0.517114	-0.287325
H204	H	2.088698	-0.183781	0.046008
F205	F	1.387033	-1.079459	-0.655777
F206	F	1.720367	-0.746125	-0.322444
F207	F	2.053700	-0.412792	0.010890
H208	H	1.402923	-0.249167	-0.936622
H209	H	1.736256	0.084166	-0.603288
H210	H	2.069590	0.417499	-0.269955
F211	F	1.396722	-0.928051	-0.646015
F212	F	1.730055	-0.594718	-0.312682
F213	F	2.063388	-0.261385	0.020652
F214	F	1.317601	-0.376118	-0.934910
F215	F	1.650935	-0.042785	-0.601577
F216	F	1.984268	0.290548	-0.268243
F217	F	1.317066	-0.376010	-1.135325
F218	F	1.650399	-0.042676	-0.801992
F219	F	1.983732	0.290657	-0.468659
H220	H	1.103879	-0.296410	-0.364833
H221	H	1.437212	0.036924	-0.031500
H222	H	1.770546	0.370257	0.301834
H223	H	1.686088	-0.320200	-0.941072
H224	H	2.019421	0.013133	-0.607738
H225	H	2.352754	0.346467	-0.274405
F226	F	1.444267	-0.463832	-1.142791
F227	F	1.777600	-0.130499	-0.809457
F228	F	2.110933	0.202835	-0.476124
F229	F	1.648259	-0.428619	-0.937054
F230	F	1.981592	-0.095285	-0.603720
F231	F	2.314926	0.238048	-0.270387
H232	H	1.407816	-0.245560	-1.119000
H233	H	1.741150	0.087773	-0.785667
H234	H	2.074483	0.421106	-0.452333
F235	F	1.560318	-0.208840	-0.923122
F236	F	1.893651	0.124494	-0.589788
F237	F	2.226984	0.457827	-0.256455
F238	F	1.568370	-0.211181	-1.123811
F239	F	1.901703	0.122152	-0.790478
F240	F	2.235037	0.455485	-0.457144
F241	F	0.902738	-0.466946	-0.583894
F242	F	1.236071	-0.133613	-0.250561
F243	F	1.569404	0.199721	0.082773
H244	H	1.109052	-0.229114	-0.462801
H245	H	1.442386	0.104219	-0.129468
H246	H	1.775719	0.437553	0.203865
F247	F	1.102207	-0.466864	-0.585404
F248	F	1.435540	-0.133531	-0.252071
F249	F	1.768873	0.199802	0.081263
F250	F	1.647192	-0.429701	-1.137231
F251	F	1.980526	-0.096368	-0.803898
F252	F	2.313859	0.236965	-0.470564
H253	H	0.923516	-0.266557	-0.667927
H254	H	1.256849	0.066776	-0.334593
H255	H	1.590183	0.400109	-0.001260
F256	F	1.116353	-0.246754	-0.668367
F257	F	1.449686	0.086580	-0.335034
F258	F	1.783020	0.419913	-0.001701
F259	F	1.106311	-0.433539	-0.402010
F260	F	1.439645	-0.100205	-0.068676
F261	F	1.772978	0.233128	0.264657
