data_functionalizedCrystal
_audit_creation_method	'MofGen! by Chris Wilmer'
_symmetry_space_group_name_H-M	'P1'
_symmetry_Int_Tables_number	1
_symmetry_cell_setting	triclinic
loop_
_symmetry_equiv_pos_as_xyz
  x,y,z
_cell_length_a	18.215407
_cell_length_b	11.169416
_cell_length_c	11.169409
_cell_angle_alpha	89.969126
_cell_angle_beta	90.023316
_cell_angle_gamma	89.989212
loop_
_atom_site_label
_atom_site_type_symbol
_atom_site_fract_x
_atom_site_fract_y
_atom_site_fract_z
Zn1	Zn	1.125172	0.477696	0.678667
Zn2	Zn	1.125104	0.678436	0.477989
Zn3	Zn	1.002097	0.477767	0.477989
Zn4	Zn	1.002101	0.678337	0.678621
O5	O	1.063618	0.578059	0.578316
O6	O	1.228147	0.504336	0.652065
O7	O	1.108756	0.651888	0.310039
O8	O	1.018449	0.309808	0.504628
O9	O	1.228097	0.651819	0.504628
O10	O	1.108872	0.309755	0.652065
O11	O	1.018384	0.504458	0.310039
O12	O	0.899113	0.504362	0.504584
O13	O	1.018457	0.651650	0.846577
O14	O	0.899116	0.651719	0.651988
O15	O	1.108876	0.504240	0.846611
O16	O	1.108761	0.846373	0.504584
O17	O	1.018391	0.846300	0.651988
C18	C	1.063589	0.889884	0.578307
C19	C	1.063644	1.023284	0.578344
C20	C	0.872412	0.578038	0.578282
C21	C	0.790613	0.578059	0.578296
C22	C	1.063675	0.577926	0.891359
C23	C	1.063699	0.577869	1.024759
C24	C	0.602440	0.654908	0.654953
C25	C	0.525582	0.654912	0.654968
C26	C	0.525548	0.501231	0.501707
C27	C	0.602406	0.501222	0.501698
C28	C	0.640850	0.578068	0.578320
C29	C	0.487134	0.578080	0.578343
C30	C	0.403800	0.578084	0.578358
C31	C	0.724189	0.578063	0.578306
C32	C	1.255571	0.578080	0.578352
C33	C	1.337370	0.578090	0.578367
C34	C	1.063668	0.265017	0.578352
C35	C	1.063689	0.131617	0.578367
C36	C	1.063604	0.578105	0.266492
C37	C	1.063723	0.577824	0.133092
H38	H	0.494312	0.717482	0.717372
Cl39	Cl	0.650767	0.751509	0.751281
Cl40	Cl	0.477214	0.404634	0.405385
Cl41	Cl	0.650696	0.404607	0.405360
