data_functionalizedCrystal
_audit_creation_method	'MofGen! by Chris Wilmer'
_symmetry_space_group_name_H-M	'P1'
_symmetry_Int_Tables_number	1
_symmetry_cell_setting	triclinic
loop_
_symmetry_equiv_pos_as_xyz
  x,y,z
_cell_length_a	23.532407
_cell_length_b	10.967829
_cell_length_c	10.066323
_cell_angle_alpha	110.797195
_cell_angle_beta	98.711928
_cell_angle_gamma	96.198300
loop_
_atom_site_label
_atom_site_type_symbol
_atom_site_fract_x
_atom_site_fract_y
_atom_site_fract_z
O1	O	-0.744952	0.176574	0.154809
O2	O	-0.578836	0.199367	0.160216
O3	O	-0.668956	-0.000933	0.113080
O4	O	-0.654832	0.376873	0.201945
O5	O	-0.686161	-0.039205	-0.122900
O6	O	-0.596041	0.161094	-0.075764
O7	O	-0.762156	0.138301	-0.081172
Zn8	Zn	-0.681830	0.143621	-0.115935
Zn9	Zn	-0.659163	0.194047	0.194979
O10	O	-0.672036	0.338601	-0.034035
C11	C	-0.566228	0.179651	0.042096
C12	C	-0.503029	0.177910	0.041704
C13	C	-0.102756	0.285492	0.066965
C14	C	-0.043374	0.283870	0.066578
O15	O	-0.005545	0.383598	0.089987
N16	N	-0.022046	0.164795	0.038573
C17	C	-0.060105	0.047331	0.010940
O18	O	-0.036512	-0.054101	-0.012917
C19	C	-0.119487	0.048952	0.011317
C20	C	-0.140810	0.168038	0.039338
C21	C	-0.124079	0.404567	0.094982
C22	C	-0.183457	0.406189	0.095372
C23	C	-0.221511	0.288735	0.067744
C24	C	-0.200188	0.169659	0.039727
C25	C	-0.157546	-0.068512	-0.016327
C26	C	-0.216931	-0.066880	-0.015948
C27	C	-0.238254	0.052205	0.012073
C28	C	-0.297620	0.053827	0.012489
N29	N	-0.318947	0.172902	0.040494
C30	C	-0.280893	0.290356	0.068121
C31	C	0.064601	0.043935	0.010147
C32	C	0.123982	0.042314	0.009780
C33	C	0.140709	0.278853	0.065415
C34	C	0.081328	0.280475	0.065793
C35	C	0.043273	0.163010	0.038152
C36	C	-0.405591	0.293752	0.068939
C37	C	-0.464975	0.295364	0.069332
C38	C	-0.481698	0.058824	0.013689
C39	C	-0.422319	0.057213	0.013303
C40	C	-0.384267	0.174687	0.040926
O41	O	-0.335483	-0.045850	-0.010913
O42	O	-0.304496	0.391768	0.091956
C43	C	-0.677831	-0.068395	-0.016274
C44	C	-0.678635	-0.212390	-0.050133
C45	C	0.225237	0.158019	0.036964
C46	C	0.162041	0.159768	0.037400
C47	C	-0.670081	-0.256755	0.057017
C48	C	-0.670912	-0.405581	0.022024
C49	C	-0.663162	0.406063	0.095321
C50	C	-0.662357	0.550060	0.129190
N51	N	-0.697305	0.109206	-0.328126
C52	C	-0.676459	0.155584	-0.542173
C53	C	-0.664534	0.182084	-0.378779
N54	N	-0.643693	0.228452	0.407168
H55	H	-0.093101	0.500217	0.117476
N56	N	-0.486744	0.417026	0.097968
N57	N	-0.452756	0.521883	0.122631
H58	H	-0.468129	0.607805	0.142855
H59	H	-0.686570	-0.284587	-0.167775
H60	H	-0.662140	-0.184556	0.174659
H61	H	0.063971	0.377443	0.088602
N62	N	-0.366726	0.413753	0.097191
N63	N	-0.324469	0.455376	0.202663
H64	H	-0.297019	0.540128	0.222626
N65	N	-0.680859	-0.496133	-0.125568
N66	N	-0.643076	-0.563818	-0.168973
H67	H	-0.650100	-0.627771	-0.273209
N68	N	-0.618258	0.284949	-0.281460
N69	N	-0.566828	0.281189	-0.298199
H70	H	-0.534145	0.353834	-0.229466
N71	N	-0.597420	0.331325	-0.495528
N72	N	-0.566607	0.399842	-0.543073
H73	H	-0.533925	0.472499	-0.474356
H74	H	-0.654411	-0.377745	0.246841
N75	N	-0.743574	0.006323	-0.425443
N76	N	-0.795007	0.010058	-0.408723
H77	H	-0.827683	-0.062604	-0.477460
N78	N	-0.722733	0.052711	-0.639470
N79	N	-0.774160	0.056471	-0.622713
H80	H	-0.806844	-0.016185	-0.691424
N81	N	-0.205224	0.527841	0.123967
N82	N	-0.200237	0.590703	0.043069
H83	H	-0.215605	0.676628	0.063261
N84	N	0.179594	0.398820	0.093620
N85	N	0.232610	0.397339	0.093259
H86	H	0.260074	0.482058	0.113172
H87	H	0.033620	-0.051722	-0.012351
N88	N	0.145751	-0.079335	-0.018814
N89	N	0.111762	-0.184188	-0.043470
H90	H	0.127133	-0.270109	-0.063671
N91	N	-0.135782	-0.190168	-0.045000
N92	N	-0.111781	-0.233595	-0.150912
H93	H	-0.096412	-0.319525	-0.171175
N94	N	-0.255805	-0.186874	-0.044211
N95	N	-0.262031	-0.282367	-0.162362
H96	H	-0.289485	-0.367113	-0.182324
N97	N	-0.400543	-0.064437	-0.015325
N98	N	-0.420041	-0.159573	-0.133382
H99	H	-0.404667	-0.245494	-0.153615
N100	N	-0.520582	-0.061133	-0.014515
N101	N	-0.573598	-0.059653	-0.014164
H102	H	-0.601063	-0.144374	-0.034090
