data_functionalizedCrystal
_audit_creation_method	'MofGen! by Chris Wilmer'
_symmetry_space_group_name_H-M	'P1'
_symmetry_Int_Tables_number	1
_symmetry_cell_setting	triclinic
loop_
_symmetry_equiv_pos_as_xyz
  x,y,z
_cell_length_a	21.606444
_cell_length_b	18.878441
_cell_length_c	21.606444
_cell_angle_alpha	60.000897
_cell_angle_beta	90.000833
_cell_angle_gamma	59.999929
loop_
_atom_site_label
_atom_site_type_symbol
_atom_site_fract_x
_atom_site_fract_y
_atom_site_fract_z
Zr1	Zr	0.596208	0.775379	-0.081229
O2	O	0.497379	0.923156	-0.180049
O3	O	0.626506	0.627602	-0.050937
O4	O	0.626498	0.775385	-0.180057
O5	O	0.497393	0.775368	0.050925
O6	O	0.728348	0.775390	-0.180060
O7	O	0.497387	0.775373	-0.050929
O8	O	0.728362	0.511032	0.050911
O9	O	0.497378	1.039725	-0.180047
O10	O	0.715436	0.688388	-0.038018
O11	O	0.639430	0.688381	0.037997
O12	O	0.639420	0.862377	-0.114025
O13	O	0.563415	0.862370	-0.038009
Zr14	Zr	0.758655	0.775379	0.081211
Zr15	Zr	0.758647	0.775387	-0.081235
Zr16	Zr	0.596217	0.775371	0.081217
Zr17	Zr	0.596206	0.961294	-0.081225
Zr18	Zr	0.758657	0.589464	0.081207
O19	O	0.728358	0.923156	0.050919
O20	O	0.728346	0.923168	-0.180057
O21	O	0.497391	0.923145	0.050928
O22	O	0.857484	0.627602	0.180031
O23	O	0.857473	0.627613	-0.050945
O24	O	0.626518	0.627590	0.180040
O25	O	0.857471	0.775390	-0.050943
O26	O	0.728366	0.775373	0.180039
O27	O	0.626516	0.775368	0.180043
O28	O	0.857476	0.775385	0.050912
O29	O	0.626495	1.039732	-0.180051
O30	O	0.728369	0.511026	0.180033
O31	O	0.857486	0.511032	0.180029
O32	O	0.857479	0.511039	0.050906
O33	O	0.497385	1.039719	-0.050924
O34	O	0.626502	1.039725	-0.050929
O35	O	0.715443	0.688381	0.114007
O36	O	0.791449	0.688388	0.037991
O37	O	0.715434	0.862377	-0.038015
O38	O	0.639428	0.862370	0.038000
C39	C	0.677434	0.542828	-0.000014
C40	C	0.677435	0.463903	-0.000015
C41	C	0.474246	0.775369	-0.000002
C42	C	0.405287	0.775366	0.000001
C43	C	0.717108	0.426827	-0.039695
C44	C	0.717111	0.352663	-0.039689
C45	C	0.677436	0.315581	-0.000008
C46	C	0.637762	0.352659	0.039677
C47	C	0.637764	0.426817	0.039675
C48	C	0.637759	0.198092	0.039677
C49	C	0.637756	0.123931	0.039677
C50	C	0.717105	0.123938	-0.039688
C51	C	0.717108	0.198096	-0.039690
C52	C	0.677433	0.235171	-0.000006
C53	C	0.412566	0.684546	0.039673
C54	C	0.347769	0.684549	0.039673
C55	C	0.275693	0.775372	-0.000003
C56	C	0.268414	0.866199	-0.039676
C57	C	0.333211	0.866195	-0.039671
C58	C	0.007096	0.866216	-0.039693
C59	C	-0.057702	0.866213	-0.039696
C60	C	0.021654	0.684570	0.039652
C61	C	0.086451	0.684566	0.039657
C62	C	0.079167	0.775392	-0.000013
C63	C	0.149428	0.775388	-0.000012
C64	C	0.205432	0.775377	-0.000008
C65	C	0.880618	0.775389	-0.000016
C66	C	0.949577	0.775392	-0.000019
C67	C	0.677422	0.775389	-0.203204
C68	C	0.677418	0.775392	-0.272166
C69	C	0.677429	1.007930	-0.000004
C70	C	0.677428	1.086855	-0.000003
C71	C	0.637739	0.866212	-0.344239
C72	C	0.637745	0.866209	-0.409034
C73	C	0.677427	0.775386	-0.401754
C74	C	0.717112	0.684559	-0.329673
C75	C	0.717109	0.684563	-0.264880
C76	C	0.717124	0.684542	-0.590976
C77	C	0.717121	0.684545	-0.655777
C78	C	0.637760	0.866188	-0.735130
C79	C	0.637757	0.866192	-0.670337
C80	C	0.677444	0.775366	-0.598262
C81	C	0.677438	0.775370	-0.528005
C82	C	0.677430	0.775381	-0.472010
C83	C	0.677442	0.775369	0.203186
C84	C	0.677446	0.775366	0.272148
C85	C	0.880620	0.542838	-0.000021
C86	C	0.949581	0.463916	-0.000025
C87	C	0.677445	0.542818	0.203181
C88	C	0.677449	0.463889	0.272142
C89	C	0.880631	0.542828	0.203174
C90	C	0.949594	0.463903	0.272132
C91	C	0.474233	1.007930	-0.203192
C92	C	0.405269	1.086855	-0.272150
C93	C	0.474243	1.007920	0.000003
C94	C	0.405283	1.086842	0.000007
C95	C	0.677419	1.007940	-0.203199
C96	C	0.677415	1.086869	-0.272160
C97	C	0.942287	0.426853	-0.039710
C98	C	1.007076	0.352708	-0.039729
C99	C	1.079159	0.315621	-0.000058
C100	C	1.086451	0.352691	0.039628
C101	C	1.021662	0.426841	0.039642
C102	C	0.717129	0.426823	0.344210
C103	C	0.717130	0.352672	0.409012
C104	C	0.677456	0.315582	0.401745
C105	C	0.637771	0.352655	0.329669
C106	C	0.637765	0.426811	0.264869
C107	C	1.021661	0.426842	0.264836
C108	C	1.086466	0.352694	0.329624
C109	C	1.079203	0.315602	0.401706
C110	C	1.007128	0.352669	0.409000
C111	C	0.942325	0.426822	0.344214
C112	C	0.333202	1.123925	-0.264854
C113	C	0.268397	1.198096	-0.329642
C114	C	0.275661	1.235192	-0.401724
C115	C	0.347736	1.198120	-0.409018
C116	C	0.412539	1.123955	-0.344231
C117	C	0.412577	1.123912	0.039685
C118	C	0.347787	1.198078	0.039687
C119	C	0.275705	1.235168	0.000013
C120	C	0.268413	1.198094	-0.039670
C121	C	0.333202	1.123934	-0.039675
C122	C	0.717097	1.123935	-0.264868
C123	C	0.717108	1.198087	-0.329658
C124	C	0.677431	1.235177	-0.401739
C125	C	0.637747	1.198104	-0.409029
C126	C	0.637741	1.123948	-0.344240
H127	H	0.749411	0.457019	-0.072012
C128	C	0.594135	0.311849	0.321681
H129	H	0.570494	0.344544	0.269479
H130	H	0.628391	0.241835	0.345315
H131	H	0.556588	0.324008	0.345312
H132	H	0.749410	0.093748	-0.072000
H133	H	0.145136	0.610608	0.071962
H134	H	0.883600	0.457048	-0.072024
H135	H	0.222888	1.295582	-0.454471
C136	C	1.165741	0.311877	0.083277
H137	H	1.160814	0.344565	0.106918
H138	H	1.192655	0.241863	0.120812
H139	H	1.192669	0.324033	0.049028
C140	C	0.594077	1.083195	-0.352270
H141	H	0.570444	1.115918	-0.404479
H142	H	0.628312	1.013181	-0.328649
H143	H	0.556523	1.095366	-0.328649
H144	H	0.749415	0.322476	-0.071999
H145	H	0.749426	0.610609	-0.323750
H146	H	0.677466	0.255200	0.454516
H147	H	0.353703	0.610594	0.071979
H148	H	0.027579	0.610615	0.071955
H149	H	1.131976	0.255222	0.454453
C150	C	0.594122	0.467604	0.083320
H151	H	0.570486	0.434906	0.106948
H152	H	0.628371	0.455450	0.120864
H153	H	0.556570	0.537621	0.049068
H154	H	0.327274	1.093725	-0.206167
C155	C	1.165738	0.311923	0.321587
H156	H	1.160777	0.344624	0.269377
H157	H	1.192672	0.324081	0.345201
H158	H	1.192666	0.241905	0.345213
H159	H	0.749422	1.228264	-0.323707
H160	H	0.222956	1.295553	0.000024
H161	H	0.353641	1.228333	-0.467715
C162	C	0.594111	0.966096	-0.814414
H163	H	0.599801	0.953092	-0.851962
H164	H	0.541911	1.003411	-0.820099
H165	H	0.613707	1.003416	-0.820096
C166	C	0.491810	1.083147	-0.352262
H167	H	0.529371	1.033658	-0.303358
H168	H	0.497458	1.054234	-0.379191
H169	H	0.497510	1.136374	-0.379186
C170	C	0.189123	1.238889	-0.083302
H171	H	0.194050	1.206198	-0.106940
H172	H	0.162207	1.226731	-0.049044
H173	H	0.162197	1.308907	-0.120849
C174	C	0.760748	0.238886	-0.083339
H175	H	0.784382	0.206180	-0.106967
H176	H	0.726500	0.308900	-0.120883
H177	H	0.798300	0.226724	-0.049086
H178	H	0.471264	1.093720	0.071997
H179	H	0.749438	0.610581	-0.649841
C180	C	1.029694	0.467590	0.083309
H181	H	1.081904	0.434870	0.106937
H182	H	1.006069	0.537604	0.049077
H183	H	1.006078	0.455413	0.120867
H184	H	0.209717	1.228268	-0.323688
C185	C	0.677439	1.316749	-0.473002
H186	H	0.648131	1.333530	-0.516979
H187	H	0.656202	1.374602	-0.472997
H188	H	0.727997	1.292427	-0.472999
H189	H	0.605449	0.093741	0.071989
C190	C	0.325169	1.083152	-0.083313
H191	H	0.272959	1.115859	-0.106930
H192	H	0.348790	1.095298	-0.120865
H193	H	0.348790	1.013137	-0.049058
C194	C	0.594114	0.238877	0.083325
H195	H	0.570478	0.206181	0.106951
H196	H	0.628360	0.226727	0.120870
H197	H	0.556564	0.308894	0.049069
C198	C	0.594052	1.238967	-0.488318
H199	H	0.570402	1.206289	-0.483389
H200	H	0.556520	1.308977	-0.515194
H201	H	0.628268	1.226847	-0.515283
H202	H	0.353740	1.228251	0.072004
C203	C	0.760748	1.083146	-0.185588
H204	H	0.784387	1.115842	-0.190535
H205	H	0.726507	1.095299	-0.158656
H206	H	0.798298	1.013128	-0.158667
C207	C	-0.136989	0.966121	-0.083334
H208	H	-0.174534	0.953111	-0.077660
H209	H	-0.142674	1.003432	-0.063734
H210	H	-0.142675	1.003445	-0.135538
C211	C	0.491847	0.584641	0.083315
H212	H	0.529397	0.597643	0.077631
H213	H	0.497531	0.547322	0.135514
H214	H	0.497528	0.547329	0.063713
H215	H	0.001156	0.940172	-0.072008
C216	C	0.189133	0.966103	-0.083320
H217	H	0.151584	0.953099	-0.077648
H218	H	0.183446	1.003421	-0.063726
H219	H	0.183454	1.003417	-0.135523
H220	H	0.327279	0.940150	-0.071967
C221	C	0.594094	0.966111	-0.488312
H222	H	0.570453	1.020202	-0.483367
H223	H	0.628339	0.969894	-0.515240
H224	H	0.556547	0.969878	-0.515235
C225	C	0.999042	0.311934	-0.083376
H226	H	0.946832	0.344631	-0.106987
H227	H	1.022654	0.324095	-0.120935
H228	H	1.022672	0.241915	-0.049126
H229	H	0.749440	0.610586	-0.532298
H230	H	0.605463	0.322456	0.071991
H231	H	1.027590	0.457032	0.206149
C232	C	0.594110	0.966097	-0.678348
H233	H	0.570485	1.020187	-0.730553
H234	H	0.556563	0.969876	-0.654721
H235	H	0.628365	0.969869	-0.654721
H236	H	0.605420	0.940171	-0.350176
H237	H	1.131907	0.255243	-0.000075
C238	C	0.760750	0.584664	-0.185598
H239	H	0.755071	0.597674	-0.148052
H240	H	0.741159	0.547344	-0.179913
H241	H	0.812955	0.547349	-0.179913
C242	C	0.760770	0.467615	0.352215
H243	H	0.755095	0.517085	0.303304
H244	H	0.741173	0.496547	0.379135
H245	H	0.812975	0.414374	0.379139
C246	C	0.999148	0.311852	0.488293
H247	H	1.048068	0.262374	0.525826
H248	H	0.972227	0.365073	0.493995
H249	H	0.972237	0.282903	0.493980
C250	C	0.863055	0.467569	0.352248
H251	H	0.868018	0.434845	0.404458
H252	H	0.836113	0.537583	0.328627
H253	H	0.836135	0.455395	0.328630
H254	H	0.749449	0.322495	0.467692
H255	H	0.605456	0.456980	0.206190
