data_functionalizedCrystal
_audit_creation_method	'MofGen! by Chris Wilmer'
_symmetry_space_group_name_H-M	'P1'
_symmetry_Int_Tables_number	1
_symmetry_cell_setting	triclinic
loop_
_symmetry_equiv_pos_as_xyz
  x,y,z
_cell_length_a	11.792254
_cell_length_b	15.500227
_cell_length_c	11.792240
_cell_angle_alpha	92.838258
_cell_angle_beta	95.803993
_cell_angle_gamma	92.863989
loop_
_atom_site_label
_atom_site_type_symbol
_atom_site_fract_x
_atom_site_fract_y
_atom_site_fract_z
O1	O	1.512149	0.071962	-0.150399
O2	O	1.845482	0.405295	0.182935
O3	O	2.178815	0.738629	0.516268
O4	O	1.181810	0.071966	-0.166416
O5	O	1.515143	0.405299	0.166917
O6	O	1.848477	0.738633	0.500250
O7	O	1.354994	0.071938	0.006761
O8	O	1.688327	0.405271	0.340094
O9	O	2.021660	0.738604	0.673428
O10	O	1.338965	0.071990	-0.323576
O11	O	1.672298	0.405324	0.009758
O12	O	2.005631	0.738657	0.343091
O13	O	1.344484	-0.071949	-0.003706
O14	O	1.677818	0.261384	0.329627
O15	O	2.011151	0.594717	0.662960
O16	O	1.171300	-0.071921	-0.176884
O17	O	1.504634	0.261412	0.156450
O18	O	1.837967	0.594746	0.489783
O19	O	1.501639	-0.071925	-0.160866
O20	O	1.834973	0.261408	0.172467
O21	O	2.168306	0.594742	0.505801
Cu22	Cu	1.335510	-0.085061	-0.169830
Cu23	Cu	1.668844	0.248272	0.163503
Cu24	Cu	2.002177	0.581606	0.496836
Cu25	Cu	1.347939	0.085102	-0.157452
Cu26	Cu	1.681272	0.418435	0.175882
Cu27	Cu	2.014606	0.751769	0.509215
O28	O	1.328455	-0.071897	-0.334043
O29	O	1.661789	0.261437	-0.000710
O30	O	1.995122	0.594770	0.332624
C31	C	1.134264	0.000023	-0.170641
C32	C	1.467598	0.333356	0.162692
C33	C	1.800931	0.666689	0.496026
C34	C	1.008251	0.000023	-0.167621
C35	C	1.341585	0.333356	0.165713
C36	C	1.674918	0.666690	0.499046
N37	N	1.326777	-0.204744	-0.178536
N38	N	1.660110	0.128589	0.154797
N39	N	1.993443	0.461922	0.488130
C40	C	0.905915	0.000026	-0.165167
C41	C	1.239248	0.333359	0.168167
C42	C	1.572582	0.666693	0.501500
C43	C	0.777528	0.000026	-0.162098
C44	C	1.110862	0.333360	0.171235
C45	C	1.444195	0.666693	0.504569
C46	C	1.400187	-0.250033	-0.105183
C47	C	1.733520	0.083300	0.228151
C48	C	2.066853	0.416634	0.561484
C49	C	1.393592	-0.340605	-0.111777
C50	C	1.726926	-0.007271	0.221556
C51	C	2.060259	0.326062	0.554889
C52	C	1.313593	-0.385886	-0.191732
C53	C	1.646926	-0.052553	0.141601
C54	C	1.980259	0.280780	0.474935
C55	C	1.240175	-0.340591	-0.265089
C56	C	1.573508	-0.007258	0.068244
C57	C	1.906842	0.326075	0.401578
C58	C	1.246765	-0.250021	-0.258488
C59	C	1.580098	0.083312	0.074845
C60	C	1.913431	0.416645	0.408179
C61	C	1.289853	-0.659349	-0.215493
C62	C	1.623187	-0.326016	0.117841
C63	C	1.956520	0.007317	0.451174
C64	C	1.283271	-0.749926	-0.222091
C65	C	1.616605	-0.416592	0.111243
C66	C	1.949938	-0.083259	0.444576
C67	C	1.436688	-0.749933	-0.068777
C68	C	1.770021	-0.416600	0.264557
C69	C	2.103355	-0.083266	0.597890
C70	C	1.443275	-0.659361	-0.062187
C71	C	1.776609	-0.326028	0.271146
C72	C	2.109942	0.007306	0.604480
C73	C	1.369854	-0.614074	-0.135540
C74	C	1.703187	-0.280741	0.197793
C75	C	2.036520	0.052593	0.531127
C76	C	1.306853	-0.478465	-0.198477
C77	C	1.640186	-0.145132	0.134856
C78	C	1.973519	0.188201	0.468189
C79	C	1.376589	-0.521497	-0.128789
C80	C	1.709922	-0.188164	0.204545
C81	C	2.043256	0.145170	0.537878
C82	C	1.549185	0.000020	-0.156641
C83	C	1.882518	0.333354	0.176692
C84	C	2.215852	0.666687	0.510026
C85	C	1.675198	0.000026	-0.159661
C86	C	2.008532	0.333359	0.173672
C87	C	2.341865	0.666693	0.507006
C88	C	1.348732	-0.000011	0.043818
C89	C	1.682065	0.333323	0.377151
C90	C	2.015398	0.666656	0.710485
C91	C	1.345716	-0.000025	0.169831
C92	C	1.679049	0.333308	0.503164
C93	C	2.012383	0.666641	0.836497
N94	N	1.356681	0.204786	-0.148737
N95	N	1.690015	0.538119	0.184597
N96	N	2.023348	0.871452	0.517930
C97	C	1.340172	-0.000039	0.400542
C98	C	1.673506	0.333294	0.733875
C99	C	2.006839	0.666628	1.067209
C100	C	1.343253	-0.000031	0.272157
C101	C	1.676586	0.333302	0.605491
C102	C	2.009919	0.666636	0.938824
C103	C	1.334715	0.000023	0.628898
C104	C	1.668049	0.333356	0.962231
C105	C	2.001382	0.666690	1.295565
C106	C	1.337725	-0.000049	0.502879
C107	C	1.671058	0.333285	0.836212
C108	C	2.004391	0.666618	1.169546
H109	H	1.465335	-0.213171	-0.040080
H110	H	1.798669	0.120163	0.293254
H111	H	2.132002	0.453496	0.626587
H112	H	1.508417	-0.622495	0.002918
H113	H	1.841751	-0.289161	0.336252
H114	H	2.175084	0.044172	0.669585
H115	H	1.441721	-0.484626	-0.063685
H116	H	1.775054	-0.151293	0.269648
H117	H	2.108388	0.182041	0.602982
H118	H	1.241717	-0.515341	-0.263580
H119	H	1.575050	-0.182007	0.069753
H120	H	1.908384	0.151326	0.403086
H121	H	1.453368	-0.377478	-0.052046
H122	H	1.786701	-0.044145	0.281287
H123	H	2.120034	0.289188	0.614621
H124	H	1.218123	-0.786790	-0.287204
H125	H	1.551456	-0.453456	0.046129
H126	H	1.884789	-0.120123	0.379463
H127	H	1.496463	-0.786814	-0.009055
H128	H	1.829797	-0.453481	0.324279
H129	H	2.163130	-0.120147	0.657612
H130	H	1.230072	-0.622484	-0.275222
H131	H	1.563406	-0.289150	0.058111
H132	H	1.896739	0.044183	0.391445
H133	H	1.175032	-0.377465	-0.330186
H134	H	1.508365	-0.044131	0.003147
H135	H	1.841698	0.289202	0.336480
H136	H	1.186985	-0.213148	-0.318219
H137	H	1.520318	0.120185	0.015114
H138	H	1.853652	0.453519	0.348447
