data_functionalizedCrystal
_audit_creation_method	'MofGen! by Chris Wilmer'
_symmetry_space_group_name_H-M	'P1'
_symmetry_Int_Tables_number	1
_symmetry_cell_setting	triclinic
loop_
_symmetry_equiv_pos_as_xyz
  x,y,z
_cell_length_a	16.109302
_cell_length_b	10.654551
_cell_length_c	15.186229
_cell_angle_alpha	89.998019
_cell_angle_beta	89.994701
_cell_angle_gamma	83.973605
loop_
_atom_site_label
_atom_site_type_symbol
_atom_site_fract_x
_atom_site_fract_y
_atom_site_fract_z
O1	O	1.104090	0.161423	-0.073265
O2	O	0.862148	0.181511	-0.073257
O3	O	0.988681	-0.011348	-0.073259
O4	O	0.977557	0.354281	-0.073263
O5	O	0.988673	-0.011350	0.073198
O6	O	0.862140	0.181508	0.073200
O7	O	1.104082	0.161420	0.073193
Zn8	Zn	0.983109	0.171464	0.096449
Zn9	Zn	0.983121	0.171467	-0.096514
O10	O	0.977549	0.354279	0.073194
C11	C	0.831164	0.180695	-0.000028
C12	C	0.738854	0.178255	-0.000025
C13	C	0.526475	0.172612	0.079800
C14	C	0.439741	0.170306	0.079797
C15	C	0.439761	0.170315	-0.079879
C16	C	0.526494	0.172612	-0.079875
C17	C	0.569848	0.173767	-0.000033
C18	C	0.396382	0.169164	-0.000040
C19	C	0.302341	0.166664	-0.000044
C20	C	0.663895	0.176265	-0.000029
C21	C	0.987860	-0.058136	-0.000032
C22	C	0.985416	-0.197546	-0.000036
C23	C	0.984273	-0.263033	-0.079871
C24	C	0.981969	-0.394022	-0.079871
C25	C	0.981955	-0.394027	0.079804
C26	C	0.984252	-0.263039	0.079804
C27	C	0.930213	-0.563390	-0.175786
C28	C	0.929085	-0.628884	-0.255624
C29	C	0.978469	-0.596012	-0.326113
C30	C	1.029001	-0.497652	-0.316765
C31	C	1.030137	-0.432166	-0.236925
C32	C	0.980734	-0.465033	-0.166440
C33	C	1.036015	-0.093669	0.175713
C34	C	1.037157	-0.028182	0.255554
C35	C	0.987778	-0.061053	0.326049
C36	C	0.937258	-0.159419	0.316711
C37	C	0.936117	-0.224906	0.236870
C38	C	0.985494	-0.192027	0.166374
C39	C	1.135066	0.162236	-0.000039
C40	C	1.227376	0.164676	-0.000047
C41	C	0.978370	0.401067	-0.000035
C42	C	0.980814	0.540477	-0.000036
N43	N	0.983108	0.171460	0.228142
N44	N	0.983129	0.171461	-0.228207
C45	C	1.039156	0.086092	0.453864
C46	C	1.039159	0.086089	0.546054
C47	C	0.927074	0.256834	0.546065
C48	C	0.927068	0.256829	0.453877
C49	C	0.983114	0.171460	0.407779
C50	C	0.983123	0.171461	0.592156
C51	C	0.983125	0.171458	0.692113
C52	C	0.983111	0.171461	0.307816
H53	H	0.985218	-0.209712	-0.144882
H54	H	1.084791	0.016577	0.416333
H55	H	1.084792	0.016573	0.583574
O56	O	0.872523	0.339635	0.590809
C57	C	0.790106	0.319202	0.568283
H58	H	0.789121	0.218655	0.542944
H59	H	0.766082	0.388798	0.514774
C60	C	0.735073	0.462183	0.681309
C61	C	0.733862	0.338686	0.650194
H62	H	0.700378	0.474207	0.731833
H63	H	0.790599	0.475954	0.696483
H64	H	0.715055	0.520166	0.636710
H65	H	0.753890	0.280706	0.694788
H66	H	0.678339	0.324906	0.635029
O67	O	0.568467	0.173661	0.157434
C68	C	0.511579	0.172175	0.227895
H69	H	0.452969	0.130808	0.204483
H70	H	0.494209	0.272616	0.252448
C71	C	0.624061	0.141559	0.332075
C72	C	0.552078	0.090741	0.303322
H73	H	0.649042	0.091332	0.378604
H74	H	0.662388	0.142565	0.284605
H75	H	0.609575	0.225258	0.352530
H76	H	0.566565	0.007050	0.282857
H77	H	0.513754	0.089720	0.350790
O78	O	0.397592	0.168958	0.157325
C79	C	0.356202	0.058941	0.162092
H80	H	0.388490	-0.016333	0.116784
H81	H	0.288482	0.081770	0.140646
C82	C	0.319197	0.102062	0.313121
C83	C	0.358858	0.009606	0.257478
H84	H	0.320831	0.071631	0.371959
H85	H	0.347079	0.176185	0.309909
H86	H	0.262767	0.121077	0.295238
H87	H	0.415289	-0.009397	0.275354
H88	H	0.330985	-0.064523	0.260695
O89	O	0.872710	0.339938	0.409144
C90	C	0.886927	0.464263	0.431676
H91	H	0.953493	0.464908	0.457008
H92	H	0.841062	0.501134	0.485192
C93	C	0.792736	0.548598	0.318666
C94	C	0.874496	0.549392	0.349772
H95	H	0.785065	0.601112	0.268146
H96	H	0.783155	0.464838	0.303488
H97	H	0.754524	0.579321	0.363271
H98	H	0.912706	0.518655	0.305172
H99	H	0.884084	0.633149	0.364941
O100	O	0.397511	0.169257	-0.157354
C101	C	0.311660	0.166954	-0.140241
H102	H	0.296592	0.206369	-0.071628
H103	H	0.295188	0.065614	-0.144030
C104	C	0.278989	0.199680	-0.293388
C105	C	0.260482	0.248100	-0.209119
H106	H	0.247420	0.249729	-0.335876
H107	H	0.336830	0.201227	-0.304919
H108	H	0.265263	0.115231	-0.296532
H109	H	0.274218	0.332541	-0.205972
H110	H	0.202643	0.246569	-0.197589
H111	H	0.561810	0.173550	-0.144888
H112	H	0.977549	-0.649347	-0.391119
O113	O	1.079237	-0.336624	-0.227998
C114	C	1.122609	-0.321678	-0.307324
H115	H	1.087419	-0.361673	-0.364191
H116	H	1.187873	-0.374161	-0.302622
C117	C	1.172582	-0.131309	-0.253666
C118	C	1.129357	-0.180421	-0.323512
H119	H	1.176748	-0.044176	-0.263650
H120	H	1.143364	-0.141379	-0.200221
H121	H	1.226964	-0.175057	-0.249755
H122	H	1.074973	-0.136684	-0.327415
H123	H	1.158566	-0.170340	-0.376958
H124	H	1.069220	-0.470907	-0.374164
O125	O	0.882137	-0.595130	-0.107341
C126	C	0.825808	-0.490258	-0.083698
H127	H	0.816068	-0.423189	-0.142147
H128	H	0.852292	-0.439031	-0.025887
C129	C	0.753618	-0.617875	0.014778
C130	C	0.741651	-0.535505	-0.057013
H131	H	0.701707	-0.645784	0.031242
H132	H	0.791570	-0.688529	-0.001148
H133	H	0.775691	-0.575174	0.062945
H134	H	0.719589	-0.578211	-0.105182
H135	H	0.703693	-0.464859	-0.041095
O136	O	0.879920	-0.724353	-0.264572
C137	C	0.836576	-0.739335	-0.185233
H138	H	0.832288	-0.647494	-0.146197
H139	H	0.871353	-0.818240	-0.144751
C140	C	0.753310	-0.885979	-0.253930
C141	C	0.748038	-0.773174	-0.205988
H142	H	0.698697	-0.906858	-0.266731
H143	H	0.782514	-0.875889	-0.307381
H144	H	0.782294	-0.951719	-0.220188
H145	H	0.719064	-0.707433	-0.239735
H146	H	0.718828	-0.783253	-0.152543
H147	H	0.894975	-0.304999	0.229269
O148	O	0.980722	-0.457769	0.157300
C149	C	0.907508	-0.519268	0.162092
H150	H	0.883202	-0.534136	0.092777
H151	H	0.858059	-0.458814	0.201495
C152	C	0.957017	-0.629764	0.292866
C153	C	0.927168	-0.648035	0.207732
H154	H	0.969142	-0.709192	0.321022
H155	H	1.006342	-0.588328	0.289640
H156	H	0.915805	-0.579382	0.325691
H157	H	0.968384	-0.698403	0.174905
H158	H	0.877851	-0.689483	0.210953
H159	H	0.897032	-0.186159	0.374106
O160	O	1.086263	0.067362	0.264472
C161	C	1.129620	0.082317	0.185138
H162	H	1.094415	0.042342	0.128276
H163	H	1.194882	0.029822	0.189822
C164	C	1.179619	0.272664	0.238803
C165	C	1.136376	0.223575	0.168962
H166	H	1.183790	0.359797	0.228826
H167	H	1.150412	0.262587	0.292254
H168	H	1.233999	0.228906	0.242699
H169	H	1.081994	0.267322	0.165075
H170	H	1.165574	0.233663	0.115511
H171	H	0.988719	-0.007729	0.391063
O172	O	1.084032	-0.061959	0.107206
C173	C	1.140380	-0.166820	0.083584
H174	H	1.114841	-0.257243	0.106294
H175	H	1.203288	-0.158864	0.116335
C176	C	1.182818	-0.058904	-0.045035
C177	C	1.151447	-0.169964	-0.017148
H178	H	1.189649	-0.060842	-0.107170
H179	H	1.144858	0.011745	-0.029119
H180	H	1.235238	-0.052287	-0.017734
H181	H	1.099024	-0.176572	-0.044440
H182	H	1.189399	-0.240615	-0.033071
