data_functionalizedCrystal
_audit_creation_method	'MofGen! by Chris Wilmer'
_symmetry_space_group_name_H-M	'P1'
_symmetry_Int_Tables_number	1
_symmetry_cell_setting	triclinic
loop_
_symmetry_equiv_pos_as_xyz
  x,y,z
_cell_length_a	12.759401
_cell_length_b	12.759394
_cell_length_c	12.759393
_cell_angle_alpha	89.967706
_cell_angle_beta	89.981504
_cell_angle_gamma	90.014998
loop_
_atom_site_label
_atom_site_type_symbol
_atom_site_fract_x
_atom_site_fract_y
_atom_site_fract_z
Zn1	Zn	1.606254	-0.418200	-0.593976
Zn2	Zn	2.106254	0.081800	-0.093976
Zn3	Zn	1.606148	-0.593919	-0.418294
Zn4	Zn	2.106148	-0.093919	0.081706
Zn5	Zn	1.430556	-0.418255	-0.418315
Zn6	Zn	1.930556	0.081745	0.081685
Zn7	Zn	1.430545	-0.593838	-0.593935
Zn8	Zn	1.930545	-0.093838	-0.093935
O9	O	1.518376	-0.506053	-0.506130
O10	O	2.018376	-0.006053	-0.006130
O11	O	1.753261	-0.441520	-0.570679
O12	O	2.253261	0.058480	-0.070679
O13	O	1.582816	-0.570674	-0.271276
O14	O	2.082816	-0.070674	0.228724
O15	O	1.453912	-0.271227	-0.441643
O16	O	1.953912	0.228773	0.058357
O17	O	1.753183	-0.570620	-0.441607
O18	O	2.253183	-0.070620	0.058393
O19	O	1.582997	-0.271186	-0.570700
O20	O	2.082997	0.228814	-0.070700
O21	O	1.453810	-0.441614	-0.271291
O22	O	1.953810	0.058386	0.228709
O23	O	1.283534	-0.441536	-0.441604
O24	O	1.783534	0.058464	0.058396
O25	O	1.453892	-0.570482	-0.740962
O26	O	1.953892	-0.070482	-0.240962
O27	O	1.283525	-0.570536	-0.570631
O28	O	1.783525	-0.070536	-0.070631
O29	O	1.582986	-0.441442	-0.740992
O30	O	2.082986	0.058558	-0.240992
O31	O	1.582805	-0.740929	-0.441567
O32	O	2.082805	-0.240929	0.058433
O33	O	1.453789	-0.740870	-0.570610
O34	O	1.953789	-0.240870	-0.070610
C35	C	1.245409	-0.506034	-0.506116
C36	C	1.745409	-0.006034	-0.006116
C37	C	1.128632	-0.506051	-0.506135
C38	C	1.628632	-0.006051	-0.006135
C39	C	1.073793	-0.573329	-0.573208
C40	C	1.573793	-0.073329	-0.073208
C41	C	0.964069	-0.573342	-0.573219
C42	C	1.464069	-0.073342	-0.073219
C43	C	0.964032	-0.438796	-0.439075
C44	C	1.464032	0.061204	0.060925
C45	C	1.073755	-0.438779	-0.439070
C46	C	1.573755	0.061221	0.060930
C47	C	1.128670	-0.640601	-0.640273
C48	C	1.628670	-0.140601	-0.140273
C49	C	1.073831	-0.707885	-0.707351
C50	C	1.573831	-0.207885	-0.207351
C51	C	0.964107	-0.707898	-0.707362
C52	C	1.464107	-0.207898	-0.207362
C53	C	0.909222	-0.640627	-0.640296
C54	C	1.409222	-0.140627	-0.140296
C55	C	1.518313	-0.779021	-0.506105
C56	C	2.018313	-0.279021	-0.006105
C57	C	1.518382	-0.895797	-0.506129
C58	C	2.018382	-0.395797	-0.006129
C59	C	1.652826	-0.895806	-0.371857
C60	C	2.152826	-0.395806	0.128143
C61	C	1.720076	-0.950671	-0.304734
C62	C	2.220076	-0.450671	0.195266
C63	C	1.720138	-1.060392	-0.304762
C64	C	2.220138	-0.560392	0.195238
C65	C	1.652945	-1.115251	-0.371924
C66	C	2.152945	-0.615251	0.128076
C67	C	1.585695	-1.060386	-0.439047
C68	C	2.085695	-0.560386	0.060953
C69	C	1.585638	-0.950662	-0.439009
C70	C	2.085638	-0.450662	0.060991
C71	C	1.451257	-1.060378	-0.573323
C72	C	1.951257	-0.560378	-0.073323
C73	C	1.451189	-0.950656	-0.573291
C74	C	1.951189	-0.450656	-0.073291
C75	C	1.384064	-1.115237	-0.640484
C76	C	1.884064	-0.615237	-0.140484
C77	C	1.316808	-1.060372	-0.707604
C78	C	1.816808	-0.560372	-0.207604
C79	C	1.316748	-0.950644	-0.707572
C80	C	1.816748	-0.450644	-0.207572
C81	C	1.383939	-0.895791	-0.640414
C82	C	1.883939	-0.395791	-0.140414
C83	C	1.792409	-0.506073	-0.506145
C84	C	2.292409	-0.006073	-0.006145
C85	C	1.909186	-0.506082	-0.506151
C86	C	2.409186	-0.006082	-0.006151
C87	C	1.518449	-0.505947	-0.780164
C88	C	2.018449	-0.005947	-0.280164
C89	C	1.518481	-0.505902	-0.896940
C90	C	2.018481	-0.005902	-0.396940
C91	C	1.518468	-0.232020	-0.506179
C92	C	2.018468	0.267980	-0.006179
C93	C	1.518507	-0.115243	-0.506199
C94	C	2.018507	0.384757	-0.006199
C95	C	1.585709	-0.438704	-0.951820
C96	C	2.085709	0.061296	-0.451820
C97	C	1.585734	-0.438666	-1.061544
C98	C	2.085734	0.061334	-0.561544
C99	C	1.451300	-0.573033	-1.061500
C100	C	1.951300	-0.073033	-0.561500
C101	C	1.451270	-0.573065	-0.951778
C102	C	1.951270	-0.073065	-0.451778
C103	C	1.652919	-0.371541	-0.896982
C104	C	2.152919	0.128459	-0.396982
C105	C	1.720154	-0.304339	-0.951862
C106	C	2.220154	0.195661	-0.451862
C107	C	1.720179	-0.304301	-1.061586
C108	C	2.220179	0.195699	-0.561586
C109	C	1.652969	-0.371465	-1.116431
C110	C	2.152969	0.128535	-0.616431
C111	C	1.518363	-0.506083	-0.233163
C112	C	2.018363	-0.006083	0.266837
C113	C	1.518535	-0.505832	-0.116387
C114	C	2.018535	-0.005832	0.383613
H115	H	0.819877	-0.640635	-0.640319
H116	H	1.319877	-0.140635	-0.140319
H117	H	1.262110	-1.105047	-0.762287
H118	H	1.762110	-0.605047	-0.262287
C119	C	1.652755	-0.775109	-0.371810
C120	C	2.152755	-0.275109	0.128190
N121	N	1.652703	-0.684199	-0.371772
N122	N	2.152703	-0.184199	0.128228
H123	H	1.653010	-1.204592	-0.371950
H124	H	2.153010	-0.704592	0.128050
H125	H	1.774903	-1.105063	-0.250110
H126	H	2.274903	-0.605063	0.249890
H127	H	1.261990	-0.905978	-0.762236
H128	H	1.761990	-0.405978	-0.262236
C129	C	1.134081	-0.364773	-0.365282
C130	C	1.634081	0.135227	0.134718
N131	N	1.179519	-0.309028	-0.309705
N132	N	1.679519	0.190972	0.190295
H133	H	1.396581	-0.627714	-1.106163
H134	H	1.896581	-0.127714	-0.606163
H135	H	0.919336	-0.384029	-0.384472
H136	H	1.419336	0.115971	0.115528
H137	H	1.652909	-0.371567	-0.807640
H138	H	2.152909	0.128433	-0.307640
H139	H	1.118526	-0.762648	-0.761961
H140	H	1.618526	-0.262648	-0.261961
C141	C	1.793982	-0.890318	-0.230856
C142	C	2.293982	-0.390318	0.269144
N143	N	1.849648	-0.844863	-0.175212
N144	N	2.349648	-0.344863	0.324788
H145	H	1.384124	-1.204578	-0.640507
H146	H	1.884124	-0.704578	-0.140507
H147	H	1.774917	-0.249574	-1.106266
H148	H	2.274917	0.250426	-0.606266
C149	C	1.383885	-0.775094	-0.640378
C150	C	1.883885	-0.275094	-0.140378
N151	N	1.383852	-0.684184	-0.640352
N152	N	1.883852	-0.184184	-0.140352
H153	H	1.396511	-0.627767	-0.907094
H154	H	1.896511	-0.127767	-0.407094
C155	C	0.903787	-0.781915	-0.781145
C156	C	1.403787	-0.281915	-0.281145
N157	N	0.858356	-0.837673	-0.836714
N158	N	1.358356	-0.337673	-0.336714
C159	C	1.794075	-0.230457	-0.891531
C160	C	2.294075	0.269543	-0.391531
N161	N	1.849754	-0.174808	-0.846090
N162	N	2.349754	0.325192	-0.346090
C163	C	1.652996	-0.371414	-1.237131
C164	C	2.152996	0.128586	-0.737131
N165	N	1.653020	-0.371378	-1.328042
N166	N	2.153020	0.128622	-0.828042
H167	H	1.218013	-0.640599	-0.640269
H168	H	1.718013	-0.140599	-0.140269
