data_functionalizedCrystal
_audit_creation_method	'MofGen! by Chris Wilmer'
_symmetry_space_group_name_H-M	'P1'
_symmetry_Int_Tables_number	1
_symmetry_cell_setting	triclinic
loop_
_symmetry_equiv_pos_as_xyz
  x,y,z
_cell_length_a	12.645331
_cell_length_b	12.645330
_cell_length_c	19.076919
_cell_angle_alpha	92.274320
_cell_angle_beta	92.280814
_cell_angle_gamma	90.011625
loop_
_atom_site_label
_atom_site_type_symbol
_atom_site_fract_x
_atom_site_fract_y
_atom_site_fract_z
Zn1	Zn	1.596633	-0.446173	-0.397967
Zn2	Zn	1.929966	-0.112839	-0.064634
Zn3	Zn	2.263300	0.220494	0.268699
Zn4	Zn	1.603668	-0.616330	-0.280279
Zn5	Zn	1.937001	-0.282997	0.053055
Zn6	Zn	2.270334	0.050337	0.386388
Zn7	Zn	1.426485	-0.439078	-0.280286
Zn8	Zn	1.759818	-0.105745	0.053047
Zn9	Zn	2.093151	0.227588	0.386381
Zn10	Zn	1.419347	-0.623389	-0.397934
Zn11	Zn	1.752680	-0.290056	-0.064600
Zn12	Zn	2.086014	0.043277	0.268733
O13	O	1.511533	-0.531242	-0.339116
O14	O	1.844866	-0.197909	-0.005783
O15	O	2.178200	0.135424	0.327550
O16	O	1.745913	-0.468759	-0.382367
O17	O	2.079246	-0.135426	-0.049034
O18	O	2.412579	0.197908	0.284300
O19	O	1.586095	-0.586894	-0.181790
O20	O	1.919428	-0.253560	0.151543
O21	O	2.252762	0.079773	0.484876
O22	O	1.449098	-0.291673	-0.295914
O23	O	1.782431	0.041660	0.037420
O24	O	2.115765	0.374994	0.370753
O25	O	1.751081	-0.593773	-0.295901
O26	O	2.084414	-0.260439	0.037432
O27	O	2.417748	0.072894	0.370765
O28	O	1.574105	-0.296885	-0.382374
O29	O	1.907439	0.036448	-0.049041
O30	O	2.240772	0.369781	0.284293
O31	O	1.455919	-0.456668	-0.181796
O32	O	1.789253	-0.123334	0.151538
O33	O	2.122586	0.209999	0.484871
O34	O	1.277191	-0.463513	-0.295881
O35	O	1.610524	-0.130179	0.037452
O36	O	1.943858	0.203154	0.370786
O37	O	1.436933	-0.605805	-0.496427
O38	O	1.770266	-0.272471	-0.163094
O39	O	2.103600	0.060862	0.170239
O40	O	1.271947	-0.598925	-0.382316
O41	O	1.605280	-0.265592	-0.048983
O42	O	1.938614	0.067741	0.284351
O43	O	1.567184	-0.475604	-0.496452
O44	O	1.900518	-0.142271	-0.163119
O45	O	2.233851	0.191062	0.170214
O46	O	1.579174	-0.765613	-0.295869
O47	O	1.912507	-0.432279	0.037465
O48	O	2.245841	-0.098946	0.370798
O49	O	1.443754	-0.770799	-0.382309
O50	O	1.777088	-0.437466	-0.048976
O51	O	2.110421	-0.104132	0.284358
C52	C	1.236104	-0.531216	-0.339096
C53	C	1.569438	-0.197883	-0.005763
C54	C	1.902771	0.135451	0.327571
C55	C	1.118274	-0.531231	-0.339104
C56	C	1.451607	-0.197898	-0.005771
C57	C	1.784941	0.135435	0.327563
C58	C	0.953955	-0.445685	-0.285028
C59	C	1.287289	-0.112351	0.048306
C60	C	1.620622	0.220982	0.381639
C61	C	1.076529	-0.445883	-0.284789
C62	C	1.409863	-0.112550	0.048544
C63	C	1.743196	0.220783	0.381877
C64	C	1.074992	-0.641678	-0.318842
C65	C	1.408326	-0.308344	0.014491
C66	C	1.741659	0.024989	0.347824
C67	C	0.952416	-0.641206	-0.318473
C68	C	1.285750	-0.307873	0.014860
C69	C	1.619083	0.025461	0.348193
C70	C	0.946601	-0.507407	-0.413651
C71	C	1.279934	-0.174074	-0.080318
C72	C	1.613268	0.159260	0.253016
C73	C	1.069232	-0.504887	-0.413237
C74	C	1.402565	-0.171554	-0.079904
C75	C	1.735898	0.161779	0.253430
C76	C	1.511481	-0.806671	-0.339100
C77	C	1.844814	-0.473338	-0.005766
C78	C	2.178148	-0.140005	0.327567
C79	C	1.511554	-0.924502	-0.339116
C80	C	1.844887	-0.591169	-0.005783
C81	C	2.178221	-0.257836	0.327551
C82	C	1.596622	-1.088753	-0.284626
C83	C	1.929955	-0.755419	0.048707
C84	C	2.263289	-0.422086	0.382041
C85	C	1.596880	-0.966200	-0.284759
C86	C	1.930213	-0.632867	0.048574
C87	C	2.263547	-0.299534	0.381907
C88	C	1.537355	-0.973380	-0.413305
C89	C	1.870688	-0.640047	-0.079971
C90	C	2.204022	-0.306713	0.253362
C91	C	1.538021	-1.095961	-0.413015
C92	C	1.871355	-0.762627	-0.079682
C93	C	2.204688	-0.429294	0.253651
C94	C	1.400609	-1.090678	-0.320149
C95	C	1.733943	-0.757345	0.013184
C96	C	2.067276	-0.424012	0.346518
C97	C	1.401247	-0.967973	-0.318485
C98	C	1.734581	-0.634640	0.014848
C99	C	2.067914	-0.301307	0.348181
C100	C	1.788037	-0.531270	-0.339137
C101	C	2.121370	-0.197936	-0.005804
C102	C	2.454704	0.135397	0.327529
C103	C	1.905866	-0.531281	-0.339146
C104	C	2.239200	-0.197948	-0.005813
C105	C	2.572533	0.135385	0.327521
C106	C	1.500478	-0.542283	-0.522691
C107	C	1.833811	-0.208950	-0.189358
C108	C	2.167144	0.124383	0.143976
C109	C	1.495767	-0.546988	-0.600919
C110	C	1.829100	-0.213655	-0.267586
C111	C	2.162433	0.119678	0.065747
C112	C	1.511613	-0.254739	-0.339148
C113	C	1.844947	0.078594	-0.005815
C114	C	2.178280	0.411927	0.327518
C115	C	1.511647	-0.136910	-0.339162
C116	C	1.844981	0.196423	-0.005829
C117	C	2.178314	0.529757	0.327504
C118	C	1.561365	-0.481413	-0.637685
C119	C	1.894698	-0.148080	-0.304352
C120	C	2.228032	0.185253	0.028981
C121	C	1.556925	-0.485830	-0.711189
C122	C	1.890259	-0.152497	-0.377856
C123	C	2.223592	0.180837	-0.044523
C124	C	1.486892	-0.555828	-0.747926
C125	C	1.820226	-0.222494	-0.414593
C126	C	2.153559	0.110839	-0.081259
C127	C	1.421287	-0.621405	-0.711155
C128	C	1.754620	-0.288072	-0.377822
C129	C	2.087954	0.045261	-0.044488
C130	C	1.425722	-0.616983	-0.637652
C131	C	1.759055	-0.283649	-0.304319
C132	C	2.092389	0.049684	0.029014
C133	C	1.466352	-0.576319	-0.967754
C134	C	1.799685	-0.242986	-0.634421
C135	C	2.133019	0.090347	-0.301087
C136	C	1.461924	-0.580739	-1.041262
C137	C	1.795258	-0.247406	-0.707929
C138	C	2.128591	0.085927	-0.374595
C139	C	1.597562	-0.445162	-1.041291
C140	C	1.930895	-0.111829	-0.707958
C141	C	2.264228	0.221504	-0.374625
C142	C	1.601995	-0.440750	-0.967787
C143	C	1.935328	-0.107417	-0.634454
C144	C	2.268662	0.225916	-0.301121
C145	C	1.536386	-0.506324	-0.931023
C146	C	1.869719	-0.172990	-0.597689
C147	C	2.203052	0.160343	-0.264356
N148	N	1.482355	-0.560347	-0.823059
N149	N	1.815689	-0.227013	-0.489726
N150	N	2.149022	0.106320	-0.156392
N151	N	1.540918	-0.501799	-0.855891
N152	N	1.874252	-0.168466	-0.522558
N153	N	2.207585	0.164868	-0.189224
C154	C	1.522606	-0.520168	-0.156256
C155	C	1.855939	-0.186835	0.177077
C156	C	2.189273	0.146499	0.510411
C157	C	1.527523	-0.515165	-0.078028
C158	C	1.860856	-0.181831	0.255305
C159	C	2.194189	0.151502	0.588639
H160	H	1.105853	-0.363842	-0.297490
H161	H	1.439186	-0.030509	0.035844
H162	H	1.772519	0.302825	0.369177
H163	H	1.477153	-0.946761	-0.455027
H164	H	1.810486	-0.613428	-0.121694
H165	H	2.143820	-0.280094	0.211640
F166	F	1.643933	-1.134509	-0.434065
F167	F	1.977266	-0.801176	-0.100731
F168	F	2.310599	-0.467842	0.232602
F169	F	1.110087	-0.727012	-0.368750
F170	F	1.443420	-0.393678	-0.035416
F171	F	1.776754	-0.060345	0.297917
H172	H	0.923722	-0.363386	-0.297591
H173	H	1.257055	-0.030053	0.035742
H174	H	1.590389	0.303280	0.369075
F175	F	1.368807	-1.126999	-0.250671
F176	F	1.702140	-0.793666	0.082663
F177	F	2.035473	-0.460333	0.415996
H178	H	1.659026	-0.383753	-0.937881
H179	H	1.992359	-0.050420	-0.604548
H180	H	2.325693	0.282913	-0.271215
F181	F	1.667380	-0.375377	-1.080424
F182	F	2.000714	-0.042044	-0.747091
F183	F	2.334047	0.291290	-0.413758
F184	F	1.460311	-1.138068	-0.467932
F185	F	1.793644	-0.804734	-0.134598
F186	F	2.126977	-0.471401	0.198735
F187	F	1.704495	-0.928755	-0.301200
F188	F	2.037828	-0.595422	0.032133
F189	F	2.371161	-0.262088	0.365466
F190	F	1.576405	-0.922624	-0.212866
F191	F	1.909739	-0.589291	0.120467
F192	F	2.243072	-0.255958	0.453800
F193	F	1.317926	-1.131739	-0.372065
F194	F	1.651259	-0.798406	-0.038732
F195	F	1.984592	-0.465073	0.294602
F196	F	1.119331	-0.669420	-0.248413
F197	F	1.452664	-0.336087	0.084920
F198	F	1.785998	-0.002754	0.418253
H199	H	1.109158	-0.461301	-0.229578
H200	H	1.442491	-0.127968	0.103755
H201	H	1.775824	0.205365	0.437089
F202	F	0.905534	-0.588966	-0.466357
F203	F	1.238868	-0.255633	-0.133024
F204	F	1.572201	0.077700	0.200310
F205	F	1.626781	-0.416072	-0.750315
F206	F	1.960114	-0.082739	-0.416982
F207	F	2.293447	0.250594	-0.083649
F208	F	1.635910	-0.406917	-0.598594
F209	F	1.969243	-0.073584	-0.265261
F210	F	2.302576	0.259750	0.068073
F211	F	1.346748	-0.695898	-0.750255
F212	F	1.680082	-0.362565	-0.416921
F213	F	2.013415	-0.029232	-0.083588
F214	F	1.387378	-0.655240	-1.080358
F215	F	1.720711	-0.321906	-0.747025
F216	F	2.054045	0.011427	-0.413692
H217	H	1.617442	-0.943585	-0.429678
H218	H	1.950775	-0.610252	-0.096345
H219	H	2.284109	-0.276919	0.236988
F220	F	1.375707	-0.925744	-0.247125
F221	F	1.709040	-0.592410	0.086208
F222	F	2.042373	-0.259077	0.419541
H223	H	1.412944	-0.629729	-0.937829
H224	H	1.746277	-0.296396	-0.604496
H225	H	2.079611	0.036937	-0.271162
F226	F	1.106065	-0.398690	-0.433215
F227	F	1.439398	-0.065357	-0.099881
F228	F	1.772732	0.267976	0.233452
H229	H	1.372294	-0.670370	-0.607718
H230	H	1.705628	-0.337037	-0.274385
H231	H	2.038961	-0.003703	0.058948
H232	H	0.926438	-0.460914	-0.230141
H233	H	1.259771	-0.127581	0.103192
H234	H	1.593104	0.205752	0.436526
H235	H	0.927076	-0.661980	-0.264006
H236	H	1.260409	-0.328647	0.069327
H237	H	1.593743	0.004686	0.402660
F238	F	1.576533	-1.123015	-0.212513
F239	F	1.909866	-0.789682	0.120821
F240	F	2.243200	-0.456348	0.454154
H241	H	0.920491	-0.706899	-0.356172
H242	H	1.253824	-0.373566	-0.022838
H243	H	1.587158	-0.040233	0.310495
H244	H	0.914580	-0.428512	-0.432078
H245	H	1.247913	-0.095179	-0.098744
H246	H	1.581246	0.238154	0.234589
H247	H	1.097318	-0.563044	-0.455716
H248	H	1.430651	-0.229710	-0.122383
H249	H	1.763985	0.103623	0.210951
H250	H	1.334884	-0.939588	-0.355294
H251	H	1.668217	-0.606255	-0.021961
H252	H	2.001551	-0.272921	0.311373
F253	F	1.703668	-1.129901	-0.300879
F254	F	2.037002	-0.796568	0.032454
F255	F	2.370335	-0.463234	0.365788
