data_functionalizedCrystal
_audit_creation_method	'MofGen! by Chris Wilmer'
_symmetry_space_group_name_H-M	'P1'
_symmetry_Int_Tables_number	1
_symmetry_cell_setting	triclinic
loop_
_symmetry_equiv_pos_as_xyz
  x,y,z
_cell_length_a	10.654546
_cell_length_b	10.065922
_cell_length_c	10.908937
_cell_angle_alpha	101.416340
_cell_angle_beta	107.715280
_cell_angle_gamma	80.214756
loop_
_atom_site_label
_atom_site_type_symbol
_atom_site_fract_x
_atom_site_fract_y
_atom_site_fract_z
O1	O	1.641677	-0.113520	-0.196877
O2	O	1.272469	-0.113515	-0.214033
O3	O	1.506014	-0.113514	-0.018959
O4	O	1.408132	-0.113521	-0.391951
O5	O	1.480083	0.113476	0.014788
O6	O	1.246538	0.113474	-0.180286
O7	O	1.615747	0.113470	-0.163130
Zn8	Zn	1.427025	0.149511	-0.166350
Zn9	Zn	1.461190	-0.149557	-0.210813
O10	O	1.382202	0.113468	-0.358203
C11	C	1.212979	-0.000020	-0.195900
C12	C	1.074354	-0.000019	-0.192134
N13	N	1.403718	0.353618	-0.136004
C14	C	1.023382	-0.123757	-0.208748
C15	C	0.893134	-0.123768	-0.205201
C16	C	0.864842	0.123709	-0.168419
C17	C	0.995084	0.123718	-0.171975
C18	C	1.102651	-0.247493	-0.228907
C19	C	1.051681	-0.371242	-0.245521
C20	C	0.921433	-0.371253	-0.241974
C21	C	0.842155	-0.247515	-0.221813
C22	C	1.453065	0.421395	-0.200260
C23	C	1.435141	0.578563	-0.176893
C24	C	1.675237	-0.000028	-0.181263
C25	C	1.813863	-0.000039	-0.185030
C26	C	1.502196	-0.000021	0.045674
C27	C	1.529438	-0.000027	0.187982
N28	N	1.484495	0.646337	-0.241159
C29	C	1.386020	-0.000028	-0.422837
C30	C	1.358779	-0.000031	-0.565147
C31	C	1.458181	-0.000030	0.384957
C32	C	1.430022	-0.000027	0.237873
H33	H	1.208708	-0.247498	-0.231795
Cl34	Cl	1.570226	0.556302	-0.352803
Cl35	Cl	1.693028	-0.000026	0.290131
H36	H	1.252829	-0.000019	0.368682
Cl37	Cl	1.151336	-0.526788	-0.270880
Cl38	Cl	0.857353	-0.526818	-0.262875
Cl39	Cl	1.349429	0.668602	-0.065234
Cl40	Cl	1.538791	0.331351	-0.311900
H41	H	0.736095	-0.247534	-0.218940
Cl42	Cl	1.266432	-0.000013	0.135724
H43	H	1.348205	0.411947	-0.063690
H44	H	0.800285	0.224450	-0.152002
H45	H	1.036584	0.224477	-0.158453
H46	H	1.564128	-0.000025	0.451131
