data_functionalizedCrystal
_audit_creation_method	'MofGen! by Chris Wilmer'
_symmetry_space_group_name_H-M	'P1'
_symmetry_Int_Tables_number	1
_symmetry_cell_setting	triclinic
loop_
_symmetry_equiv_pos_as_xyz
  x,y,z
_cell_length_a	19.188905
_cell_length_b	19.188930
_cell_length_c	18.266242
_cell_angle_alpha	89.993204
_cell_angle_beta	89.986531
_cell_angle_gamma	83.139668
loop_
_atom_site_label
_atom_site_type_symbol
_atom_site_fract_x
_atom_site_fract_y
_atom_site_fract_z
O1	O	0.926158	0.087081	-0.061010
O2	O	1.176158	0.337081	0.188990
O3	O	1.426158	0.587081	0.438990
O4	O	1.676158	0.837081	0.688990
O5	O	0.722844	0.098834	-0.060986
O6	O	0.972844	0.348834	0.189014
O7	O	1.222844	0.598834	0.439014
O8	O	1.472844	0.848834	0.689014
O9	O	0.830369	-0.008699	-0.060984
O10	O	1.080369	0.241301	0.189016
O11	O	1.330369	0.491301	0.439016
O12	O	1.580369	0.741301	0.689016
O13	O	0.818634	0.194613	-0.061011
O14	O	1.068634	0.444613	0.188989
O15	O	1.318634	0.694613	0.438989
O16	O	1.568634	0.944613	0.688989
O17	O	0.830355	-0.008695	0.060778
O18	O	1.080355	0.241305	0.310778
O19	O	1.330355	0.491305	0.560778
O20	O	1.580355	0.741305	0.810778
O21	O	0.722831	0.098837	0.060776
O22	O	0.972831	0.348837	0.310776
O23	O	1.222831	0.598837	0.560776
O24	O	1.472831	0.848837	0.810776
O25	O	0.926144	0.087084	0.060752
O26	O	1.176144	0.337084	0.310752
O27	O	1.426144	0.587084	0.560752
O28	O	1.676144	0.837084	0.810752
Zn29	Zn	0.824485	0.092961	0.080097
Zn30	Zn	1.074485	0.342961	0.330097
Zn31	Zn	1.324485	0.592961	0.580097
Zn32	Zn	1.574485	0.842961	0.830097
Zn33	Zn	0.824504	0.092957	-0.080330
Zn34	Zn	1.074504	0.342957	0.169670
Zn35	Zn	1.324504	0.592957	0.419670
Zn36	Zn	1.574504	0.842957	0.669670
O37	O	0.818620	0.194617	0.060751
O38	O	1.068620	0.444617	0.310751
O39	O	1.318620	0.694617	0.560751
O40	O	1.568620	0.944617	0.810751
C41	C	0.696826	0.098458	-0.000102
C42	C	0.946826	0.348458	0.249898
C43	C	1.196826	0.598458	0.499898
C44	C	1.446826	0.848458	0.749898
C45	C	0.619321	0.097324	-0.000092
C46	C	0.869321	0.347324	0.249908
C47	C	1.119321	0.597324	0.499908
C48	C	1.369321	0.847324	0.749908
C49	C	0.582937	0.096777	-0.066466
C50	C	0.832937	0.346777	0.183534
C51	C	1.082937	0.596777	0.433534
C52	C	1.332937	0.846777	0.683534
C53	C	0.510113	0.095704	-0.066475
C54	C	0.760113	0.345704	0.183525
C55	C	1.010113	0.595704	0.433525
C56	C	1.260113	0.845704	0.683525
C57	C	0.473678	0.095164	-0.000106
C58	C	0.723678	0.345164	0.249894
C59	C	0.973678	0.595164	0.499894
C60	C	1.223678	0.845164	0.749894
C61	C	0.510071	0.095714	0.066277
C62	C	0.760071	0.345714	0.316277
C63	C	1.010071	0.595714	0.566277
C64	C	1.260071	0.845714	0.816277
C65	C	0.582892	0.096794	0.066284
C66	C	0.832892	0.346794	0.316284
C67	C	1.082892	0.596794	0.566284
C68	C	1.332892	0.846794	0.816284
N69	N	0.364652	0.053737	0.049292
N70	N	0.614652	0.303737	0.299292
N71	N	0.864652	0.553737	0.549292
N72	N	1.114652	0.803737	0.799292
N73	N	0.295475	0.052709	0.049280
N74	N	0.545475	0.302709	0.299280
N75	N	0.795475	0.552709	0.549280
N76	N	1.045475	0.802709	0.799280
C77	C	0.254272	0.091911	-0.000123
C78	C	0.504272	0.341911	0.249877
C79	C	0.754272	0.591911	0.499877
C80	C	1.004272	0.841911	0.749877
N81	N	0.284859	0.132171	-0.049526
N82	N	0.534859	0.382171	0.200474
N83	N	0.784859	0.632171	0.450474
N84	N	1.034859	0.882171	0.700474
N85	N	0.354043	0.133195	-0.049517
N86	N	0.604043	0.383195	0.200483
N87	N	0.854043	0.633195	0.450483
N88	N	1.104043	0.883195	0.700483
C89	C	0.394716	0.093993	-0.000106
C90	C	0.644716	0.343993	0.249894
C91	C	0.894716	0.593993	0.499894
C92	C	1.144716	0.843993	0.749894
C93	C	0.138923	0.090202	-0.066512
C94	C	0.388923	0.340202	0.183488
C95	C	0.638923	0.590202	0.433488
C96	C	0.888923	0.840202	0.683488
C97	C	0.066098	0.089133	-0.066518
C98	C	0.316098	0.339133	0.183482
C99	C	0.566098	0.589133	0.433482
C100	C	0.816098	0.839133	0.683482
C101	C	0.066058	0.089136	0.066236
C102	C	0.316058	0.339136	0.316236
C103	C	0.566058	0.589136	0.566236
C104	C	0.816058	0.839136	0.816236
C105	C	0.138881	0.090212	0.066240
C106	C	0.388881	0.340212	0.316240
C107	C	0.638881	0.590212	0.566240
C108	C	0.888881	0.840212	0.816240
C109	C	0.175310	0.090742	-0.000136
C110	C	0.425310	0.340742	0.249864
C111	C	0.675310	0.590742	0.499864
C112	C	0.925310	0.840742	0.749864
C113	C	0.829982	-0.034708	-0.000101
C114	C	1.079982	0.215292	0.249899
C115	C	1.329982	0.465292	0.499899
C116	C	1.579982	0.715292	0.749899
C117	C	0.828841	-0.112213	-0.000095
C118	C	1.078841	0.137787	0.249905
C119	C	1.328841	0.387787	0.499905
C120	C	1.578841	0.637787	0.749905
C121	C	0.891933	-0.157142	-0.000099
C122	C	1.141933	0.092858	0.249901
C123	C	1.391933	0.342858	0.499901
C124	C	1.641933	0.592858	0.749901
C125	C	0.890861	-0.229966	-0.000110
C126	C	1.140861	0.020034	0.249890
C127	C	1.390861	0.270034	0.499890
C128	C	1.640861	0.520034	0.749890
C129	C	0.826694	-0.257857	-0.000103
C130	C	1.076694	-0.007857	0.249897
C131	C	1.326694	0.242143	0.499897
C132	C	1.576694	0.492143	0.749897
C133	C	0.763594	-0.212917	-0.000103
C134	C	1.013594	0.037083	0.249897
C135	C	1.263594	0.287083	0.499897
C136	C	1.513594	0.537083	0.749897
C137	C	0.764668	-0.140095	-0.000099
C138	C	1.014668	0.109905	0.249901
C139	C	1.264668	0.359905	0.499901
C140	C	1.514668	0.609905	0.749901
N141	N	0.777641	-0.365856	0.041341
N142	N	1.027641	-0.115856	0.291341
N143	N	1.277641	0.134144	0.541341
N144	N	1.527641	0.384144	0.791341
N145	N	0.776626	-0.435035	0.041338
N146	N	1.026626	-0.185035	0.291338
N147	N	1.276626	0.064965	0.541338
N148	N	1.526626	0.314965	0.791338
C149	C	0.823456	-0.477265	-0.000118
C150	C	1.073456	-0.227265	0.249882
C151	C	1.323456	0.022735	0.499882
C152	C	1.573456	0.272735	0.749882
N153	N	0.871350	-0.447705	-0.041561
N154	N	1.121350	-0.197705	0.208439
N155	N	1.371350	0.052295	0.458439
N156	N	1.621350	0.302295	0.708439
N157	N	0.872368	-0.378520	-0.041556
N158	N	1.122368	-0.128520	0.208444
N159	N	1.372368	0.121480	0.458444
N160	N	1.622368	0.371480	0.708444
C161	C	0.825523	-0.336819	-0.000108
C162	C	1.075523	-0.086819	0.249892
C163	C	1.325523	0.163181	0.499892
C164	C	1.575523	0.413181	0.749892
C165	C	0.885390	-0.601159	-0.000135
C166	C	1.135390	-0.351159	0.249865
C167	C	1.385390	-0.101159	0.499865
C168	C	1.635390	0.148841	0.749865
C169	C	0.884315	-0.673984	-0.000151
C170	C	1.134315	-0.423984	0.249849
C171	C	1.384315	-0.173984	0.499849
C172	C	1.634315	0.076016	0.749849
C173	C	0.757047	-0.656933	-0.000137
C174	C	1.007047	-0.406933	0.249863
C175	C	1.257047	-0.156933	0.499863
C176	C	1.507047	0.093067	0.749863
C177	C	0.758123	-0.584110	-0.000128
C178	C	1.008123	-0.334110	0.249872
C179	C	1.258123	-0.084110	0.499872
C180	C	1.508123	0.165890	0.749872
C181	C	0.822296	-0.556228	-0.000124
C182	C	1.072296	-0.306228	0.249876
C183	C	1.322296	-0.056228	0.499876
C184	C	1.572296	0.193772	0.749876
C185	C	0.952163	0.087460	-0.000134
C186	C	1.202163	0.337460	0.249866
C187	C	1.452163	0.587460	0.499866
C188	C	1.702163	0.837460	0.749866
C189	C	1.029668	0.088594	-0.000148
C190	C	1.279668	0.338594	0.249852
C191	C	1.529668	0.588594	0.499852
C192	C	1.779668	0.838594	0.749852
C193	C	0.819007	0.220626	-0.000134
C194	C	1.069007	0.470626	0.249866
C195	C	1.319007	0.720626	0.499866
C196	C	1.569007	0.970626	0.749866
C197	C	0.820148	0.298131	-0.000145
C198	C	1.070148	0.548131	0.249855
C199	C	1.320148	0.798131	0.499855
C200	C	1.570148	1.048131	0.749855
N201	N	0.824478	0.092964	0.189583
N202	N	1.074478	0.342964	0.439583
N203	N	1.324478	0.592964	0.689583
N204	N	1.574478	0.842964	0.939583
N205	N	0.824516	0.092948	-0.189817
N206	N	1.074516	0.342948	0.060183
N207	N	1.324516	0.592948	0.310183
N208	N	1.574516	0.842948	0.560183
C209	C	0.866731	0.135180	0.771849
C210	C	1.116731	0.385180	1.021849
C211	C	1.366731	0.635180	1.271849
C212	C	1.616731	0.885180	1.521849
C213	C	0.866724	0.135187	0.695204
C214	C	1.116724	0.385187	0.945204
C215	C	1.366724	0.635187	1.195204
C216	C	1.616724	0.885187	1.445204
C217	C	0.824510	0.092950	0.656896
C218	C	1.074510	0.342950	0.906896
C219	C	1.324510	0.592950	1.156896
C220	C	1.574510	0.842950	1.406896
C221	C	0.782287	0.050715	0.695240
C222	C	1.032287	0.300715	0.945240
C223	C	1.282287	0.550715	1.195240
C224	C	1.532287	0.800715	1.445240
C225	C	0.782290	0.050715	0.771883
C226	C	1.032290	0.300715	1.021883
C227	C	1.282290	0.550715	1.271883
C228	C	1.532290	0.800715	1.521883
N229	N	0.822819	0.031789	0.536567
N230	N	1.072819	0.281789	0.786567
N231	N	1.322819	0.531789	1.036567
N232	N	1.572819	0.781789	1.286567
N233	N	0.822820	0.031792	0.463759
N234	N	1.072820	0.281792	0.713759
N235	N	1.322820	0.531792	0.963759
N236	N	1.572820	0.781792	1.213759
C237	C	0.824497	0.092950	0.425974
C238	C	1.074497	0.342950	0.675974
C239	C	1.324497	0.592950	0.925974
C240	C	1.574497	0.842950	1.175974
N241	N	0.826186	0.154106	0.463747
N242	N	1.076186	0.404106	0.713747
N243	N	1.326186	0.654106	0.963747
N244	N	1.576186	0.904106	1.213747
N245	N	0.826189	0.154103	0.536562
N246	N	1.076189	0.404103	0.786562
N247	N	1.326189	0.654103	1.036562
N248	N	1.576189	0.904103	1.286562
C249	C	0.824501	0.092946	0.573789
C250	C	1.074501	0.342946	0.823789
C251	C	1.324501	0.592946	1.073789
C252	C	1.574501	0.842946	1.323789
C253	C	0.866705	0.135193	0.304532
C254	C	1.116705	0.385193	0.554532
C255	C	1.366705	0.635193	0.804532
C256	C	1.616705	0.885193	1.054532
C257	C	0.866693	0.135201	0.227886
C258	C	1.116693	0.385201	0.477886
C259	C	1.366693	0.635201	0.727886
C260	C	1.616693	0.885201	0.977886
C261	C	0.782260	0.050723	0.227923
C262	C	1.032260	0.300723	0.477923
C263	C	1.282260	0.550723	0.727923
C264	C	1.532260	0.800723	0.977923
C265	C	0.782269	0.050721	0.304568
C266	C	1.032269	0.300721	0.554568
C267	C	1.282269	0.550721	0.804568
C268	C	1.532269	0.800721	1.054568
C269	C	0.824495	0.092954	0.342868
C270	C	1.074495	0.342954	0.592868
C271	C	1.324495	0.592954	0.842868
C272	C	1.574495	0.842954	1.092868
H273	H	0.168506	0.090652	0.120290
H274	H	0.418506	0.340652	0.370290
H275	H	0.668506	0.590652	0.620290
H276	H	0.918506	0.840652	0.870290
H277	H	0.942239	-0.266555	-0.000116
H278	H	1.192239	-0.016555	0.249884
H279	H	1.442239	0.233445	0.499884
H280	H	1.692239	0.483445	0.749884
H281	H	0.747885	0.016336	0.196734
H282	H	0.997885	0.266336	0.446734
H283	H	1.247885	0.516336	0.696734
H284	H	1.497885	0.766336	0.946734
H285	H	0.480401	0.095276	0.120315
H286	H	0.730401	0.345276	0.370315
H287	H	0.980401	0.595276	0.620315
H288	H	1.230401	0.845276	0.870315
H289	H	0.704801	-0.679641	-0.000135
H290	H	0.954801	-0.429641	0.249865
H291	H	1.204801	-0.179641	0.499865
H292	H	1.454801	0.070359	0.749865
H293	H	0.901099	0.169581	0.663986
H294	H	1.151099	0.419581	0.913986
H295	H	1.401099	0.669581	1.163986
H296	H	1.651099	0.919581	1.413986
H297	H	0.711349	-0.235631	-0.000099
H298	H	0.961349	0.014369	0.249901
H299	H	1.211349	0.264369	0.499901
H300	H	1.461349	0.514369	0.749901
H301	H	0.747896	0.016327	0.335780
H302	H	0.997896	0.266327	0.585780
H303	H	1.247896	0.516327	0.835780
H304	H	1.497896	0.766327	1.085780
H305	H	0.713289	-0.103513	-0.000096
H306	H	0.963289	0.146487	0.249904
H307	H	1.213289	0.396487	0.499904
H308	H	1.463289	0.646487	0.749904
H309	H	0.944187	-0.134445	-0.000097
H310	H	1.194187	0.115555	0.249903
H311	H	1.444187	0.365555	0.499903
H312	H	1.694187	0.615555	0.749903
H313	H	0.901114	0.169572	0.803028
H314	H	1.151114	0.419572	1.053028
H315	H	1.401114	0.669572	1.303028
H316	H	1.651114	0.919572	1.553028
H317	H	0.937644	-0.578456	-0.000135
H318	H	1.187644	-0.328456	0.249865
H319	H	1.437644	-0.078456	0.499865
H320	H	1.687644	0.171544	0.749865
H321	H	0.935694	-0.710565	-0.000158
H322	H	1.185694	-0.460565	0.249842
H323	H	1.435694	-0.210565	0.499842
H324	H	1.685694	0.039435	0.749842
H325	H	0.612592	0.097209	-0.120515
H326	H	0.862592	0.347209	0.129485
H327	H	1.112592	0.597209	0.379485
H328	H	1.362592	0.847209	0.629485
H329	H	0.706747	-0.547527	-0.000121
H330	H	0.956747	-0.297527	0.249879
H331	H	1.206747	-0.047527	0.499879
H332	H	1.456747	0.202473	0.749879
H333	H	0.747915	0.016326	0.664044
H334	H	0.997915	0.266326	0.914044
H335	H	1.247915	0.516326	1.164044
H336	H	1.497915	0.766326	1.414044
H337	H	0.747912	0.016324	0.803094
H338	H	0.997912	0.266324	1.053094
H339	H	1.247912	0.516324	1.303094
H340	H	1.497912	0.766324	1.553094
H341	H	0.901085	0.169586	0.335718
H342	H	1.151085	0.419586	0.585718
H343	H	1.401085	0.669586	0.835718
H344	H	1.651085	0.919586	1.085718
H345	H	0.901068	0.169596	0.196675
H346	H	1.151068	0.419596	0.446675
H347	H	1.401068	0.669596	0.696675
H348	H	1.651068	0.919596	0.946675
H349	H	0.480483	0.095260	-0.120527
H350	H	0.730483	0.345260	0.129473
H351	H	0.980483	0.595260	0.379473
H352	H	1.230483	0.845260	0.629473
H353	H	0.168584	0.090641	-0.120559
H354	H	0.418584	0.340641	0.129441
H355	H	0.668584	0.590641	0.379441
H356	H	0.918584	0.840641	0.629441
H357	H	0.612516	0.097240	0.120336
H358	H	0.862516	0.347240	0.370336
H359	H	1.112516	0.597240	0.620336
H360	H	1.362516	0.847240	0.870336
H361	H	0.036474	0.088693	-0.120570
H362	H	0.286474	0.338693	0.129430
H363	H	0.536474	0.588693	0.379430
H364	H	0.786474	0.838693	0.629430
H365	H	0.036393	0.088701	0.120275
H366	H	0.286393	0.338701	0.370275
H367	H	0.536393	0.588701	0.620275
H368	H	0.786393	0.838701	0.870275
