data_functionalizedCrystal
_audit_creation_method	'MofGen! by Chris Wilmer'
_symmetry_space_group_name_H-M	'P1'
_symmetry_Int_Tables_number	1
_symmetry_cell_setting	triclinic
loop_
_symmetry_equiv_pos_as_xyz
  x,y,z
_cell_length_a	6.394989
_cell_length_b	10.723024
_cell_length_c	9.198806
_cell_angle_alpha	90.000000
_cell_angle_beta	89.996080
_cell_angle_gamma	85.482790
loop_
_atom_site_label
_atom_site_type_symbol
_atom_site_fract_x
_atom_site_fract_y
_atom_site_fract_z
O1	O	-0.293034	-1.660290	0.120873
O2	O	-0.321082	-1.297436	0.120877
O3	O	-0.003068	-1.484014	0.120876
O4	O	-0.611048	-1.473713	0.120874
O5	O	-0.003042	-1.484013	-0.120909
O6	O	-0.321057	-1.297435	-0.120908
O7	O	-0.293009	-1.660290	-0.120912
Cu8	Cu	-0.307030	-1.478862	-0.142987
Cu9	Cu	-0.307060	-1.478863	0.142952
O10	O	-0.611023	-1.473712	-0.120911
C11	C	-0.319028	-1.250914	-0.000015
C12	C	-0.312921	-1.112295	-0.000013
N13	N	-0.307066	-1.478864	0.344066
C14	C	-0.295062	-1.706811	-0.000017
C15	C	-0.301169	-1.845430	-0.000010
C16	C	0.074796	-1.481977	-0.000011
C17	C	0.311120	-1.475752	-0.000010
N18	N	-0.307008	-1.478871	-0.344101
C19	C	-0.490865	-1.039201	-0.000013
C20	C	-0.484558	-0.895931	-0.000011
C21	C	-0.173243	-1.557374	0.416262
C22	C	-0.173210	-1.557378	0.583674
H23	H	-0.636892	-0.833115	-0.000005
H24	H	-0.058631	-1.624589	0.645760
H25	H	-0.421578	-1.411647	0.593822
H26	H	-0.421621	-1.411657	0.406194
O27	O	-0.119556	-0.920480	0.000185
C28	C	-0.111648	-0.996505	0.125428
H29	H	-0.277611	-1.005571	0.167176
H30	H	-0.015523	-0.952249	0.213113
C31	C	0.195170	-1.115949	0.036116
C32	C	-0.008671	-1.127093	0.087385
H33	H	0.258699	-1.196500	0.012653
H34	H	0.189849	-1.064727	-0.048260
H35	H	0.275248	-1.079064	0.109195
H36	H	-0.088752	-1.163962	0.014299
H37	H	-0.003360	-1.178324	0.171748
O38	O	-0.036286	-1.637496	0.342309
C39	C	0.170881	-1.613921	0.379339
H40	H	0.171502	-1.565915	0.489894
H41	H	0.236255	-1.550686	0.293704
C42	C	0.307266	-1.797398	0.250339
C43	C	0.308031	-1.738446	0.386131
H44	H	0.391872	-1.874209	0.254522
H45	H	0.167695	-1.813279	0.225386
H46	H	0.361740	-1.744689	0.178991
H47	H	0.253535	-1.791148	0.457472
H48	H	0.447597	-1.722576	0.411096
H49	H	-0.647879	-1.082689	-0.000022
H50	H	-0.155907	-1.068806	0.000025
