data_functionalizedCrystal
_audit_creation_method	'MofGen! by Chris Wilmer'
_symmetry_space_group_name_H-M	'P1'
_symmetry_Int_Tables_number	1
_symmetry_cell_setting	triclinic
loop_
_symmetry_equiv_pos_as_xyz
  x,y,z
_cell_length_a	19.188905
_cell_length_b	19.188925
_cell_length_c	9.730223
_cell_angle_alpha	89.995959
_cell_angle_beta	89.989587
_cell_angle_gamma	83.138552
loop_
_atom_site_label
_atom_site_type_symbol
_atom_site_fract_x
_atom_site_fract_y
_atom_site_fract_z
O1	O	0.926153	0.087084	-0.114515
O2	O	0.722839	0.098837	-0.114468
O3	O	0.830365	-0.008696	-0.114485
O4	O	0.818627	0.194617	-0.114498
O5	O	0.830358	-0.008699	0.114095
O6	O	0.722832	0.098834	0.114112
O7	O	0.926146	0.087082	0.114065
Zn8	Zn	0.824488	0.092957	0.150380
Zn9	Zn	0.824497	0.092961	-0.150784
O10	O	0.818620	0.194614	0.114082
C11	C	0.696824	0.098458	-0.000172
C12	C	0.619319	0.097324	-0.000154
C13	C	0.582931	0.096781	-0.124757
C14	C	0.510107	0.095708	-0.124774
C15	C	0.473676	0.095164	-0.000181
C16	C	0.510073	0.095711	0.124438
C17	C	0.582894	0.096791	0.124451
N18	N	0.364654	0.053734	0.092544
N19	N	0.295477	0.052707	0.092523
C20	C	0.254270	0.091911	-0.000214
N21	N	0.284854	0.132174	-0.092949
N22	N	0.354038	0.133198	-0.092932
C23	C	0.394714	0.093993	-0.000182
C24	C	0.138918	0.090206	-0.124844
C25	C	0.066092	0.089137	-0.124855
C26	C	0.066060	0.089133	0.124360
C27	C	0.138883	0.090209	0.124368
C28	C	0.175308	0.090742	-0.000237
C29	C	0.829982	-0.034708	-0.000196
C30	C	0.828843	-0.112213	-0.000199
C31	C	0.884308	-0.673988	-0.000246
C32	C	0.885384	-0.601165	-0.000234
C33	C	0.822291	-0.556225	-0.000220
C34	C	0.758117	-0.584113	-0.000183
C35	C	0.757043	-0.656935	-0.000181
N36	N	0.776617	-0.435539	-0.078012
N37	N	0.777642	-0.366362	-0.078016
C38	C	0.825525	-0.336816	-0.000222
N39	N	0.872355	-0.379062	0.077561
N40	N	0.871332	-0.448246	0.077559
C41	C	0.823450	-0.477261	-0.000221
C42	C	0.890863	-0.229973	-0.000236
C43	C	0.891937	-0.157148	-0.000215
C44	C	0.764668	-0.140097	-0.000178
C45	C	0.763596	-0.212921	-0.000184
C46	C	0.826695	-0.257855	-0.000220
C47	C	0.952161	0.087461	-0.000234
C48	C	1.029666	0.088594	-0.000261
C49	C	0.819003	0.220627	-0.000210
C50	C	0.820142	0.298131	-0.000217
N51	N	0.824487	0.092954	0.355917
N52	N	0.824504	0.092959	-0.356320
C53	C	0.872116	0.045359	0.427835
C54	C	0.872123	0.045359	0.571718
C55	C	0.776870	0.140557	0.571752
C56	C	0.776860	0.140552	0.427871
H57	H	0.480406	0.095270	0.225882
Cl58	Cl	0.184631	0.090887	0.281021
Cl59	Cl	0.464353	0.095025	-0.281429
H60	H	0.168576	0.090647	-0.226305
H61	H	0.713296	-0.103508	-0.000154
Cl62	Cl	0.628718	0.097455	-0.281403
Cl63	Cl	0.963633	-0.730472	-0.000276
Cl64	Cl	0.716977	0.200388	0.337451
H65	H	0.738094	0.179311	0.630351
H66	H	0.612521	0.097234	0.225921
H67	H	0.036466	0.088699	-0.226326
H68	H	0.910895	0.006600	0.369253
H69	H	0.036398	0.088694	0.225806
Cl70	Cl	0.966056	-0.566106	-0.000256
Cl71	Cl	0.931999	-0.014480	0.662126
H72	H	0.706747	-0.547518	-0.000167
H73	H	0.704790	-0.679634	-0.000154
H74	H	0.942242	-0.266560	-0.000264
Cl75	Cl	0.972610	-0.122098	-0.000258
Cl76	Cl	0.682925	-0.247973	-0.000161
