data_functionalizedCrystal
_audit_creation_method	'MofGen! by Chris Wilmer'
_symmetry_space_group_name_H-M	'P1'
_symmetry_Int_Tables_number	1
_symmetry_cell_setting	triclinic
loop_
_symmetry_equiv_pos_as_xyz
  x,y,z
_cell_length_a	19.288859
_cell_length_b	14.971486
_cell_length_c	13.448316
_cell_angle_alpha	90.003552
_cell_angle_beta	90.007000
_cell_angle_gamma	96.626073
loop_
_atom_site_label
_atom_site_type_symbol
_atom_site_fract_x
_atom_site_fract_y
_atom_site_fract_z
O1	O	0.090519	-1.186448	0.082577
O2	O	0.423852	-0.853115	0.415910
O3	O	0.757186	-0.519782	0.749244
O4	O	0.101359	-0.925989	0.082604
O5	O	0.434692	-0.592656	0.415937
O6	O	0.768025	-0.259323	0.749271
O7	O	-0.005167	-1.063748	0.082584
O8	O	0.328166	-0.730414	0.415917
O9	O	0.661499	-0.397081	0.749250
O10	O	0.197045	-1.048690	0.082597
O11	O	0.530378	-0.715357	0.415930
O12	O	0.863712	-0.382023	0.749264
O13	O	-0.005176	-1.063745	-0.082800
O14	O	0.328157	-0.730411	0.250533
O15	O	0.661490	-0.397078	0.583867
O16	O	0.101349	-0.925986	-0.082780
O17	O	0.434683	-0.592653	0.250553
O18	O	0.768016	-0.259320	0.583887
O19	O	0.090510	-1.186445	-0.082807
O20	O	0.423843	-0.853112	0.250526
O21	O	0.757176	-0.519779	0.583860
Cu22	Cu	0.095929	-1.056216	-0.097894
Cu23	Cu	0.429262	-0.722882	0.235439
Cu24	Cu	0.762595	-0.389549	0.568772
Cu25	Cu	0.095940	-1.056219	0.097691
Cu26	Cu	0.429273	-0.722886	0.431025
Cu27	Cu	0.762606	-0.389552	0.764358
O28	O	0.197036	-1.048687	-0.082787
O29	O	0.530369	-0.715354	0.250547
O30	O	0.863702	-0.382020	0.583880
C31	C	0.100869	-0.892666	-0.000085
C32	C	0.434203	-0.559332	0.333249
C33	C	0.767536	-0.225999	0.666582
C34	C	0.099417	-0.793376	-0.000074
C35	C	0.432750	-0.460043	0.333259
C36	C	0.766083	-0.126710	0.666592
C37	C	-0.031050	-1.063263	-0.000107
C38	C	0.302283	-0.729929	0.333226
C39	C	0.635617	-0.396596	0.666559
C40	C	-0.108159	-1.061811	-0.000105
C41	C	0.225175	-0.728478	0.333228
C42	C	0.558508	-0.395144	0.666561
C43	C	0.090999	-1.219769	-0.000116
C44	C	0.424332	-0.886436	0.333217
C45	C	0.757666	-0.553102	0.666550
C46	C	0.092452	-1.319058	-0.000120
C47	C	0.425785	-0.985725	0.333213
C48	C	0.759119	-0.652391	0.666547
C49	C	-0.671968	-1.132821	-0.000087
C50	C	-0.338634	-0.799488	0.333247
C51	C	-0.005301	-0.466154	0.666580
C52	C	-0.599517	-1.134193	-0.000096
C53	C	-0.266183	-0.800860	0.333238
C54	C	0.067150	-0.467526	0.666571
C55	C	-0.555074	-1.053363	-0.000087
C56	C	-0.221740	-0.720029	0.333246
C57	C	0.111593	-0.386696	0.666580
C58	C	-0.583087	-0.971154	-0.000095
C59	C	-0.249753	-0.637821	0.333239
C60	C	0.083580	-0.304488	0.666572
C61	C	-0.655536	-0.969785	-0.000096
C62	C	-0.322203	-0.636451	0.333238
C63	C	0.011130	-0.303118	0.666571
C64	C	-0.433993	-0.993081	0.057859
C65	C	-0.100660	-0.659747	0.391192
C66	C	0.232674	-0.326414	0.724525
C67	C	-0.361545	-0.994454	0.057866
C68	C	-0.028212	-0.661120	0.391199
C69	C	0.305122	-0.327787	0.724533
C70	C	-0.331614	-1.057583	-0.000088
C71	C	0.001719	-0.724250	0.333245
C72	C	0.335053	-0.390916	0.666578
C73	C	-0.374141	-1.119355	-0.058037
C74	C	-0.040808	-0.786022	0.275296
C75	C	0.292525	-0.452688	0.608630
C76	C	-0.446591	-1.117985	-0.058038
C77	C	-0.113258	-0.784652	0.275295
C78	C	0.220076	-0.451319	0.608629
C79	C	-0.476513	-1.054838	-0.000086
C80	C	-0.143180	-0.721505	0.333247
C81	C	0.190154	-0.388172	0.666580
C82	C	-0.225049	-1.141274	-0.000097
C83	C	0.108284	-0.807940	0.333236
C84	C	0.441617	-0.474607	0.666569
C85	C	-0.152597	-1.142642	-0.000113
C86	C	0.180736	-0.809309	0.333221
C87	C	0.514070	-0.475976	0.666554
C88	C	-0.136168	-0.979601	-0.000102
C89	C	0.197166	-0.646268	0.333232
C90	C	0.530499	-0.312934	0.666565
C91	C	-0.208619	-0.978235	-0.000096
C92	C	0.124714	-0.644902	0.333237
C93	C	0.458047	-0.311568	0.666570
C94	C	-0.253056	-1.059074	-0.000090
C95	C	0.080277	-0.725741	0.333244
C96	C	0.413611	-0.392407	0.666577
C97	C	0.222918	-1.049172	-0.000093
C98	C	0.556252	-0.715839	0.333240
C99	C	0.889585	-0.382505	0.666573
C100	C	0.300027	-1.050624	-0.000089
C101	C	0.633360	-0.717290	0.333245
C102	C	0.966694	-0.383957	0.666578
N103	N	0.095942	-1.056222	0.235256
N104	N	0.429275	-0.722889	0.568589
N105	N	0.762609	-0.389555	0.901922
C106	C	0.161998	-0.735811	-0.000072
C107	C	0.495331	-0.402478	0.333262
C108	C	0.828664	-0.069144	0.666595
C109	C	0.160628	-0.642519	-0.000087
C110	C	0.493962	-0.309186	0.333247
C111	C	0.827295	0.024148	0.666580
C112	C	0.096678	-0.606794	-0.000097
C113	C	0.430011	-0.273461	0.333236
C114	C	0.763344	0.059872	0.666570
C115	C	0.034092	-0.664367	-0.000103
C116	C	0.367425	-0.331034	0.333231
C117	C	0.700758	0.002300	0.666564
C118	C	0.035462	-0.757657	-0.000095
C119	C	0.368795	-0.424324	0.333238
C120	C	0.702128	-0.090991	0.666572
C121	C	0.031241	-0.469920	-0.000117
C122	C	0.364574	-0.136587	0.333217
C123	C	0.697908	0.196747	0.666550
C124	C	0.029871	-0.376624	-0.000123
C125	C	0.363204	-0.043290	0.333211
C126	C	0.696537	0.290043	0.666544
C127	C	0.156408	-0.354782	-0.000108
C128	C	0.489741	-0.021449	0.333225
C129	C	0.823075	0.311885	0.666558
C130	C	0.157778	-0.448072	-0.000100
C131	C	0.491111	-0.114739	0.333233
C132	C	0.824444	0.218595	0.666566
C133	C	0.095192	-0.505638	-0.000104
C134	C	0.428525	-0.172305	0.333229
C135	C	0.761858	0.161028	0.666562
N136	N	0.095921	-1.056220	-0.235459
N137	N	0.429254	-0.722886	0.097875
N138	N	0.762587	-0.389553	0.431208
C139	C	0.048866	-1.117334	0.287287
C140	C	0.382199	-0.784001	0.620620
C141	C	0.715532	-0.450668	0.953954
C142	C	0.048864	-1.117338	0.391390
C143	C	0.382197	-0.784005	0.724724
C144	C	0.715530	-0.450672	1.058057
C145	C	0.095935	-1.056225	0.443460
C146	C	0.429269	-0.722891	0.776793
C147	C	0.762602	-0.389558	1.110127
C148	C	0.143017	-0.995109	0.391421
C149	C	0.476350	-0.661776	0.724755
C150	C	0.809684	-0.328443	1.058088
C151	C	0.143022	-0.995111	0.287320
C152	C	0.476355	-0.661777	0.620653
C153	C	0.809689	-0.328444	0.953987
C154	C	0.143003	-0.995110	0.608401
C155	C	0.476336	-0.661777	0.941735
C156	C	0.809669	-0.328443	1.275068
C157	C	0.142997	-0.995107	0.712510
C158	C	0.476331	-0.661774	1.045843
C159	C	0.809664	-0.328441	1.379177
C160	C	0.048844	-1.117337	0.712472
C161	C	0.382178	-0.784004	1.045805
C162	C	0.715511	-0.450671	1.379138
C163	C	0.048849	-1.117339	0.608370
C164	C	0.382183	-0.784005	0.941704
C165	C	0.715516	-0.450672	1.275037
C166	C	0.095930	-1.056222	0.556339
C167	C	0.429264	-0.722889	0.889672
C168	C	0.762597	-0.389555	1.223005
H169	H	-0.708144	-1.198647	-0.000087
H170	H	-0.374811	-0.865313	0.333247
H171	H	-0.041478	-0.531980	0.666580
Br172	Br	-0.504305	-1.201810	-0.136682
Br173	Br	-0.170971	-0.868476	0.196651
Br174	Br	0.162362	-0.535143	0.529984
H175	H	-0.261232	-1.207098	-0.000093
H176	H	0.072101	-0.873764	0.333241
H177	H	0.405435	-0.540431	0.666574
H178	H	0.010517	-1.167097	0.565975
H179	H	0.343850	-0.833764	0.899309
H180	H	0.677183	-0.500431	1.232642
H181	H	0.211588	-0.595652	-0.000083
H182	H	0.544922	-0.262319	0.333250
H183	H	0.878255	0.071014	0.666583
H184	H	0.010510	-1.167101	0.754842
H185	H	0.343843	-0.833767	1.088175
H186	H	0.677177	-0.500434	1.421509
H187	H	0.181343	-0.945345	0.566041
H188	H	0.514677	-0.612012	0.899374
H189	H	0.848010	-0.278678	1.232707
Br190	Br	0.248793	-0.784285	-0.000047
Br191	Br	0.582126	-0.450951	0.333286
Br192	Br	0.915460	-0.117618	0.666619
Br193	Br	-0.561499	-1.245755	-0.000109
Br194	Br	-0.228166	-0.912421	0.333225
Br195	Br	0.105168	-0.579088	0.666558
H196	H	-0.015499	-0.804527	-0.000097
H197	H	0.317835	-0.471194	0.333237
H198	H	0.651168	-0.137860	0.666570
Br199	Br	-0.333532	-1.205042	-0.136688
Br200	Br	-0.000198	-0.871709	0.196645
Br201	Br	0.333135	-0.538376	0.529978
H202	H	-0.129797	-1.209580	-0.000117
H203	H	0.203536	-0.876247	0.333216
H204	H	0.536869	-0.542913	0.666550
Br205	Br	-0.075860	-0.869900	-0.000108
Br206	Br	0.257474	-0.536567	0.333225
Br207	Br	0.590807	-0.203233	0.666558
Br208	Br	0.206919	-0.912174	0.216706
Br209	Br	0.540252	-0.578841	0.550039
Br210	Br	0.873586	-0.245508	0.883372
Br211	Br	0.244569	-0.496556	-0.000071
Br212	Br	0.577902	-0.163222	0.333262
Br213	Br	0.911236	0.170111	0.666596
H214	H	-0.231421	-0.911301	-0.000091
H215	H	0.101913	-0.577968	0.333242
H216	H	0.435246	-0.244634	0.666576
Br217	Br	0.206907	-0.912174	0.462084
Br218	Br	0.540241	-0.578840	0.795417
Br219	Br	0.873574	-0.245507	1.128750
Br220	Br	-0.015027	-1.200273	0.216632
Br221	Br	0.318307	-0.866939	0.549965
Br222	Br	0.651640	-0.533606	0.883298
Br223	Br	-0.693546	-0.858222	-0.000099
Br224	Br	-0.360213	-0.524889	0.333234
Br225	Br	-0.026880	-0.191555	0.666567
H226	H	-0.326925	-0.944160	0.105056
H227	H	0.006409	-0.610826	0.438390
H228	H	0.339742	-0.277493	0.771723
Br229	Br	-0.015024	-1.200281	0.462008
Br230	Br	0.318309	-0.866947	0.795341
Br231	Br	0.651642	-0.533614	1.128675
H232	H	0.181329	-0.945343	0.754900
H233	H	0.514662	-0.612010	1.088233
H234	H	0.847996	-0.278677	1.421567
Br235	Br	0.241347	-0.276658	-0.000102
Br236	Br	0.574680	0.056676	0.333232
Br237	Br	0.908013	0.390009	0.666565
Br238	Br	-0.053698	-0.548046	-0.000127
Br239	Br	0.279635	-0.214712	0.333207
Br240	Br	0.612968	0.118621	0.666540
Br241	Br	-0.056921	-0.328140	-0.000170
Br242	Br	0.276413	0.005193	0.333163
Br243	Br	0.609746	0.338527	0.666496
H244	H	-0.458355	-0.941661	0.105045
H245	H	-0.125022	-0.608328	0.438378
H246	H	0.208312	-0.274995	0.771712
H247	H	-0.546896	-0.905342	-0.000091
H248	H	-0.213563	-0.572008	0.333243
H249	H	0.119770	-0.238675	0.666576
H250	H	-0.017978	-0.635273	-0.000126
H251	H	0.315355	-0.301939	0.333208
H252	H	0.648688	0.031394	0.666541
