data_functionalizedCrystal
_audit_creation_method	'MofGen! by Chris Wilmer'
_symmetry_space_group_name_H-M	'P1'
_symmetry_Int_Tables_number	1
_symmetry_cell_setting	triclinic
loop_
_symmetry_equiv_pos_as_xyz
  x,y,z
_cell_length_a	6.817900
_cell_length_b	11.102183
_cell_length_c	10.943624
_cell_angle_alpha	91.861827
_cell_angle_beta	108.838799
_cell_angle_gamma	108.603876
loop_
_atom_site_label
_atom_site_type_symbol
_atom_site_fract_x
_atom_site_fract_y
_atom_site_fract_z
V1	V	-4.114272	-0.175805	-0.402549
O2	O	-4.073263	0.008482	-0.394888
O3	O	-4.091019	-0.348625	-0.399794
O4	O	-4.092253	-0.173086	-0.578115
O5	O	-4.072021	-0.168272	-0.215332
V6	V	-4.591222	-0.153764	-0.380157
O7	O	-4.389946	-0.224154	-0.451668
O8	O	-4.765745	-0.105415	-0.331037
O9	O	-4.391268	0.019056	-0.382912
O10	O	-4.749628	-0.338052	-0.387817
O11	O	-4.750870	-0.161297	-0.567373
O12	O	-4.390034	-0.156483	-0.204590
C13	C	-3.941284	-0.390755	-0.393443
C14	C	-4.003735	-0.532038	-0.392360
C15	C	-3.881762	-0.495780	-0.155883
C16	C	-3.850113	-0.544025	-0.037141
C17	C	-3.908799	-0.676773	-0.036131
C18	C	-3.999149	-0.761281	-0.153876
C19	C	-4.030799	-0.713036	-0.272618
C20	C	-3.972098	-0.580283	-0.273615
C21	C	-4.152784	-0.749294	-0.509093
C22	C	-4.094085	-0.616546	-0.510105
C23	C	-4.243134	-0.833803	-0.626838
C24	C	-4.274771	-0.785557	-0.745582
C25	C	-4.216076	-0.652800	-0.746588
C26	C	-4.125735	-0.568301	-0.628847
C27	C	-3.942856	-0.166836	-0.620908
C28	C	-4.006304	-0.165756	-0.764435
C29	C	-3.851184	-0.158485	-0.841582
C30	C	-4.039791	-0.266416	-0.947571
C31	C	-3.930775	-0.055914	-0.914187
C32	C	-4.194121	-0.273788	-0.868547
C33	C	-4.085025	-0.063191	-0.835139
C34	C	-4.273769	-0.171152	-0.941098
C35	C	-4.204346	0.061179	-0.389259
C36	C	-4.121135	0.202461	-0.390350
C37	C	-4.202773	-0.162737	-0.161790
C38	C	-4.118563	-0.163811	-0.018263
H39	H	-3.883032	-0.716053	0.060559
N40	N	-4.059126	-0.896878	-0.152824
N41	N	-4.030881	-0.939937	-0.046797
H42	H	-4.073245	-1.035704	-0.046054
N43	N	-3.757774	-0.457698	0.083128
N44	N	-3.581157	-0.455386	0.167375
H45	H	-3.515941	-0.394420	0.252315
N46	N	-4.303015	-0.969398	-0.625799
N47	N	-4.214084	-1.031725	-0.673161
H48	H	-4.256358	-1.127490	-0.672427
N49	N	-3.791857	0.059608	-0.940151
N50	N	-3.786016	0.166465	-0.896022
H51	H	-3.687881	0.248045	-0.914355
H52	H	-4.453046	-0.176534	-0.984343
N53	N	-4.367037	-0.871896	-0.865828
N54	N	-4.271077	-0.945027	-0.886661
H55	H	-4.336238	-1.006011	-0.971586
N56	N	-3.821751	-0.360180	-0.156915
N57	N	-3.625987	-0.287847	-0.099610
H58	H	-3.583595	-0.192077	-0.100338
N59	N	-4.248445	-0.603546	-0.867895
N60	N	-4.329122	-0.679017	-0.973004
H61	H	-4.351988	-0.644238	-1.058682
N62	N	-4.065746	-0.432698	-0.629849
N63	N	-3.985076	-0.357265	-0.524715
H64	H	-3.942706	-0.261492	-0.525415
H65	H	-3.672020	-0.153273	-0.798134
H66	H	-4.021332	-0.352331	-0.996519
N67	N	-4.333046	-0.389419	-0.842762
N68	N	-4.306341	-0.408950	-0.727631
H69	H	-4.404450	-0.490614	-0.709416
H70	H	-4.103401	0.022729	-0.786157
