data_functionalizedCrystal
_audit_creation_method	'MofGen! by Chris Wilmer'
_symmetry_space_group_name_H-M	'P1'
_symmetry_Int_Tables_number	1
_symmetry_cell_setting	triclinic
loop_
_symmetry_equiv_pos_as_xyz
  x,y,z
_cell_length_a	17.699083
_cell_length_b	9.616153
_cell_length_c	10.540539
_cell_angle_alpha	90.003589
_cell_angle_beta	83.904253
_cell_angle_gamma	89.996194
loop_
_atom_site_label
_atom_site_type_symbol
_atom_site_fract_x
_atom_site_fract_y
_atom_site_fract_z
O1	O	1.005117	0.115442	0.160521
O2	O	1.505117	0.615442	0.660521
O3	O	0.784874	0.115486	0.181405
O4	O	1.284874	0.615486	0.681405
O5	O	0.900020	0.115464	-0.013835
O6	O	1.400020	0.615464	0.486165
O7	O	0.889971	0.115464	0.355762
O8	O	1.389971	0.615464	0.855762
O9	O	0.900016	-0.115828	-0.013849
O10	O	1.400016	0.384172	0.486151
O11	O	0.784870	-0.115805	0.181392
O12	O	1.284870	0.384195	0.681392
O13	O	1.005112	-0.115850	0.160508
O14	O	1.505112	0.384150	0.660508
Zn15	Zn	0.894990	-0.152550	0.170947
Zn16	Zn	1.394990	0.347450	0.670947
Zn17	Zn	0.894996	0.152186	0.170965
Zn18	Zn	1.394996	0.652186	0.670965
O19	O	0.889966	-0.115828	0.355748
O20	O	1.389966	0.384172	0.855748
C21	C	0.756670	-0.000154	0.180650
C22	C	1.256670	0.499846	0.680650
C23	C	0.672637	-0.000137	0.178405
C24	C	1.172637	0.499863	0.678405
C25	C	0.624761	-0.000137	0.293007
C26	C	1.124761	0.499863	0.793007
C27	C	0.545804	-0.000155	0.290890
C28	C	1.045804	0.499845	0.790890
C29	C	0.514725	-0.000163	0.174170
C30	C	1.014725	0.499837	0.674170
C31	C	0.562607	-0.000166	0.059559
C32	C	1.062607	0.499834	0.559559
C33	C	0.641562	-0.000158	0.061677
C34	C	1.141562	0.499842	0.561677
C35	C	0.244188	-0.000201	0.051014
C36	C	0.744188	0.499799	0.551014
C37	C	0.165226	-0.000205	0.048904
C38	C	0.665226	0.499795	0.548904
C39	C	0.148430	-0.000198	0.280227
C40	C	0.648430	0.499802	0.780227
C41	C	0.227386	-0.000189	0.282345
C42	C	0.727386	0.499811	0.782345
C43	C	0.275261	-0.000200	0.167735
C44	C	0.775261	0.499800	0.667735
C45	C	0.360875	-0.000184	0.170032
C46	C	0.860875	0.499816	0.670032
C47	C	0.429112	-0.000170	0.171872
C48	C	0.929112	0.499830	0.671872
N49	N	0.894991	-0.360525	0.170934
N50	N	1.394991	0.139475	0.670934
C51	C	0.956817	-0.580863	0.066847
C52	C	1.456817	-0.080863	0.566847
C53	C	0.956650	-0.419696	0.066456
C54	C	1.456650	0.080304	0.566456
C55	C	0.815873	-0.419039	0.142251
C56	C	1.315873	0.080961	0.642251
C57	C	0.816241	-0.580257	0.141522
C58	C	1.316241	-0.080257	0.641522
C59	C	0.911591	-0.580403	0.304080
C60	C	1.411591	-0.080403	0.804080
C61	C	0.913377	-0.419175	0.303175
C62	C	1.413377	0.080825	0.803175
C63	C	1.033316	-0.000207	0.161263
C64	C	1.533316	0.499793	0.661263
C65	C	1.117349	-0.000215	0.163508
C66	C	1.617349	0.499785	0.663508
C67	C	0.899264	-0.000178	-0.061131
C68	C	1.399264	0.499822	0.438869
C69	C	0.897009	-0.000168	-0.202038
C70	C	1.397009	0.499832	0.297962
N71	N	0.895001	0.360161	0.170968
N72	N	1.395001	0.860161	0.670968
C73	C	0.890722	-0.000182	0.403044
C74	C	1.390722	0.499818	0.903044
C75	C	0.892977	-0.000183	0.543951
C76	C	1.392977	0.499817	1.043951
C77	C	0.979376	0.000334	0.725797
C78	C	1.479376	0.500334	1.225797
C79	C	0.977090	-0.000198	0.579221
C80	C	1.477090	0.499802	1.079221
C81	C	0.852495	-0.132250	0.606349
C82	C	1.352495	0.367750	1.106349
C83	C	0.855366	-0.132350	0.752841
C84	C	1.355366	0.367650	1.252841
C85	C	0.853660	0.130672	0.753390
C86	C	1.353660	0.630672	1.253390
C87	C	0.852885	0.132407	0.606422
C88	C	1.352885	0.632407	1.106422
H89	H	0.283159	-0.000211	-0.042309
H90	H	0.783159	0.499789	0.457691
H91	H	0.882467	0.230109	0.564945
H92	H	1.382467	0.730109	1.064945
H93	H	0.885281	-0.231083	0.780494
H94	H	1.385281	0.268917	1.280494
Cl95	Cl	0.758232	0.144835	0.570627
Cl96	Cl	1.258232	0.644835	1.070627
H97	H	1.012496	-0.093763	0.755517
H98	H	1.512496	0.406237	1.255517
H99	H	0.506826	-0.000154	0.384211
H100	H	1.006826	0.499846	0.884211
H101	H	0.650060	-0.000130	0.388054
H102	H	1.150060	0.499870	0.888054
Cl103	Cl	0.761973	-0.141614	0.828615
Cl104	Cl	1.261973	0.358386	1.328615
Cl105	Cl	1.026602	-0.146640	0.513840
Cl106	Cl	1.526602	0.353360	1.013840
H107	H	0.945975	-0.381139	-0.032336
H108	H	1.445975	0.118861	0.467664
Cl109	Cl	0.266453	-0.000172	0.429084
Cl110	Cl	0.766453	0.499828	0.929084
H111	H	0.801728	-0.617871	0.044452
H112	H	1.301728	-0.117871	0.544452
Cl113	Cl	1.047891	-0.640713	0.092738
Cl114	Cl	1.547891	-0.140713	0.592738
H115	H	0.109440	-0.000196	0.373548
H116	H	0.609440	0.499804	0.873548
H117	H	0.790725	-0.137150	0.585126
H118	H	1.290725	0.362850	1.085126
H119	H	0.880619	-0.230547	0.563248
H120	H	1.380619	0.269453	1.063248
H121	H	0.968091	-0.621063	0.331712
H122	H	1.468091	-0.121063	0.831712
H123	H	0.139925	-0.000213	-0.046149
H124	H	0.639925	0.499787	0.453851
H125	H	1.012600	0.095058	0.753774
H126	H	1.512600	0.595058	1.253774
Cl127	Cl	0.523535	-0.000185	-0.087176
Cl128	Cl	1.023535	0.499815	0.412824
Cl129	Cl	0.895688	0.285227	0.801348
Cl130	Cl	1.395688	0.785227	1.301348
Cl131	Cl	0.701750	-0.000164	-0.082400
Cl132	Cl	1.201750	0.499836	0.417600
Cl133	Cl	0.743030	-0.640498	0.254168
Cl134	Cl	1.243030	-0.140498	0.754168
Cl135	Cl	1.047413	-0.358608	0.092790
Cl136	Cl	1.547413	0.141392	0.592790
H137	H	0.768734	-0.380712	0.216075
H138	H	1.268734	0.119288	0.716075
Cl139	Cl	0.792940	-0.356725	-0.005916
Cl140	Cl	1.292940	0.143275	0.494084
Cl141	Cl	1.003238	-0.360117	0.336803
Cl142	Cl	1.503238	0.139883	0.836803
Cl143	Cl	0.848449	-0.356990	0.428375
Cl144	Cl	1.348449	0.143010	0.928375
Cl145	Cl	0.759859	0.132064	0.828011
Cl146	Cl	1.259859	0.632064	1.328011
Cl147	Cl	0.842008	-0.639294	0.423706
Cl148	Cl	1.342008	-0.139294	0.923706
Cl149	Cl	0.940570	-0.643420	-0.084815
Cl150	Cl	1.440570	-0.143420	0.415185
Cl151	Cl	1.026518	0.145679	0.512485
Cl152	Cl	1.526518	0.645679	1.012485
