data_functionalizedCrystal
_audit_creation_method	'MofGen! by Chris Wilmer'
_symmetry_space_group_name_H-M	'P1'
_symmetry_Int_Tables_number	1
_symmetry_cell_setting	triclinic
loop_
_symmetry_equiv_pos_as_xyz
  x,y,z
_cell_length_a	18.215407
_cell_length_b	16.625546
_cell_length_c	16.625525
_cell_angle_alpha	89.905447
_cell_angle_beta	89.938707
_cell_angle_gamma	90.022916
loop_
_atom_site_label
_atom_site_type_symbol
_atom_site_fract_x
_atom_site_fract_y
_atom_site_fract_z
Zn1	Zn	1.125386	-0.320480	-0.455902
Zn2	Zn	1.125210	-0.455474	-0.321064
Zn3	Zn	1.002229	-0.320660	-0.321082
Zn4	Zn	1.002289	-0.455275	-0.455854
O5	O	1.063778	-0.387972	-0.388476
O6	O	1.228347	-0.338395	-0.438028
O7	O	1.108798	-0.437749	-0.208234
O8	O	1.018614	-0.207804	-0.338994
O9	O	1.228218	-0.437575	-0.338964
O10	O	1.109097	-0.207671	-0.438046
O11	O	1.018444	-0.338702	-0.208247
O12	O	0.899253	-0.338509	-0.338947
O13	O	1.018717	-0.437236	-0.568693
O14	O	0.899297	-0.437411	-0.437964
O15	O	1.109155	-0.338202	-0.568729
O16	O	1.108856	-0.568280	-0.338917
O17	O	1.018547	-0.568134	-0.437946
C18	C	0.872572	-0.387959	-0.388453
C19	C	0.790773	-0.387972	-0.388462
C20	C	1.063709	-0.597463	-0.388442
C21	C	1.063746	-0.687084	-0.388454
C22	C	0.602622	-0.439551	-0.439955
C23	C	0.525763	-0.439554	-0.439965
C24	C	0.525687	-0.336408	-0.337014
C25	C	0.602545	-0.336402	-0.337009
C26	C	0.641010	-0.387978	-0.388478
C27	C	0.487294	-0.387987	-0.388493
C28	C	0.403960	-0.387989	-0.388504
C29	C	0.724349	-0.387975	-0.388469
C30	C	1.063875	-1.015260	-0.388538
C31	C	1.063837	-0.923951	-0.388517
C32	C	1.063810	-0.851175	-0.388496
C33	C	1.063773	-0.759861	-0.388476
C34	C	1.255731	-0.387987	-0.388499
C35	C	1.337530	-0.387993	-0.388510
C36	C	1.063962	-0.387677	-0.598785
C37	C	1.064041	-0.387551	-0.688407
C38	C	1.063868	-0.177663	-0.388527
C39	C	1.063907	-0.088042	-0.388549
C40	C	1.063638	-0.388209	-0.178984
C41	C	1.063702	-0.388107	-0.089363
C42	C	1.063766	-0.388013	-0.016581
C43	C	1.063845	-0.387887	0.074727
C44	C	1.063904	-0.387781	0.147503
C45	C	1.063982	-0.387656	0.238817
H46	H	0.494511	-0.481548	-0.481884
O47	O	0.488400	-0.286355	-0.286904
C48	C	0.507078	-0.303979	-0.206508
H49	H	0.562871	-0.334967	-0.204777
H50	H	0.509684	-0.245783	-0.170455
H51	H	0.463782	-0.345436	-0.179282
O52	O	0.639954	-0.286329	-0.287075
C53	C	0.716038	-0.297397	-0.298096
H54	H	0.726587	-0.323811	-0.360275
H55	H	0.745262	-0.237000	-0.292733
H56	H	0.737786	-0.340329	-0.250194
O57	O	0.639874	-0.489669	-0.490032
C58	C	0.589506	-0.535202	-0.535455
H59	H	0.534732	-0.502179	-0.538306
H60	H	0.611774	-0.543804	-0.598968
H61	H	0.581283	-0.596438	-0.505825
