data_functionalizedCrystal
_audit_creation_method	'MofGen! by Chris Wilmer'
_symmetry_space_group_name_H-M	'P1'
_symmetry_Int_Tables_number	1
_symmetry_cell_setting	triclinic
loop_
_symmetry_equiv_pos_as_xyz
  x,y,z
_cell_length_a	18.215407
_cell_length_b	18.215405
_cell_length_c	18.215399
_cell_angle_alpha	90.029420
_cell_angle_beta	90.017813
_cell_angle_gamma	90.018333
loop_
_atom_site_label
_atom_site_type_symbol
_atom_site_fract_x
_atom_site_fract_y
_atom_site_fract_z
Zn1	Zn	1.125077	-0.293100	0.416069
Zn2	Zn	1.458411	0.040234	0.749402
Zn3	Zn	1.791744	0.373567	1.082735
Zn4	Zn	1.124988	-0.416171	0.292999
Zn5	Zn	1.458321	-0.082838	0.626333
Zn6	Zn	1.791655	0.250496	0.959666
Zn7	Zn	1.002010	-0.293111	0.293020
Zn8	Zn	1.335343	0.040222	0.626354
Zn9	Zn	1.668677	0.373556	0.959687
Zn10	Zn	1.001978	-0.416117	0.416028
Zn11	Zn	1.335311	-0.082784	0.749362
Zn12	Zn	1.668645	0.250550	1.082695
O13	O	1.063513	-0.354625	0.354529
O14	O	1.396847	-0.021291	0.687862
O15	O	1.730180	0.312042	1.021196
O16	O	1.228050	-0.309443	0.399751
O17	O	1.561383	0.023890	0.733085
O18	O	1.894716	0.357224	1.066418
O19	O	1.108651	-0.399874	0.190018
O20	O	1.441984	-0.066541	0.523351
O21	O	1.775317	0.266793	0.856684
O22	O	1.018386	-0.190125	0.309369
O23	O	1.351719	0.143208	0.642702
O24	O	1.685052	0.476542	0.976035
O25	O	1.227984	-0.399863	0.309333
O26	O	1.561317	-0.066530	0.642666
O27	O	1.894651	0.266804	0.975999
O28	O	1.108803	-0.190117	0.399772
O29	O	1.442136	0.143217	0.733105
O30	O	1.775470	0.476550	1.066438
O31	O	1.018299	-0.309462	0.190033
O32	O	1.351633	0.023871	0.523367
O33	O	1.684966	0.357204	0.856700
O34	O	0.899021	-0.309410	0.309330
O35	O	1.232355	0.023923	0.642663
O36	O	1.565688	0.357256	0.975996
O37	O	1.018332	-0.399771	0.519018
O38	O	1.351665	-0.066438	0.852351
O39	O	1.684998	0.266895	1.185685
O40	O	0.898998	-0.399782	0.399703
O41	O	1.232331	-0.066449	0.733037
O42	O	1.565665	0.266884	1.066370
O43	O	1.108772	-0.309391	0.519048
O44	O	1.442105	0.023942	0.852381
O45	O	1.775439	0.357276	1.185714
O46	O	1.108620	-0.519148	0.309294
O47	O	1.441953	-0.185815	0.642627
O48	O	1.775286	0.147519	0.975960
O49	O	1.018245	-0.519109	0.399683
O50	O	1.351578	-0.185775	0.733016
O51	O	1.684912	0.147558	1.066349
C52	C	0.872307	-0.354592	0.354515
C53	C	1.205640	-0.021259	0.687848
C54	C	1.538974	0.312074	1.021181
C55	C	0.790508	-0.354596	0.354526
C56	C	1.123842	-0.021263	0.687859
C57	C	1.457175	0.312071	1.021193
C58	C	0.525479	-0.307634	0.401685
C59	C	0.858812	0.025700	0.735018
C60	C	1.192146	0.359033	1.068352
C61	C	0.602338	-0.307622	0.401683
C62	C	0.935671	0.025712	0.735016
C63	C	1.269005	0.359045	1.068349
C64	C	0.602289	-0.401639	0.307389
C65	C	0.935622	-0.068306	0.640723
C66	C	1.268955	0.265027	0.974056
C67	C	0.525431	-0.401654	0.307396
C68	C	0.858765	-0.068321	0.640729
C69	C	1.192098	0.265012	0.974062
C70	C	0.487029	-0.354647	0.354543
C71	C	0.820362	-0.021314	0.687876
C72	C	1.153695	0.312019	1.021209
C73	C	0.640745	-0.354620	0.354534
C74	C	0.974078	-0.021287	0.687867
C75	C	1.307411	0.312046	1.021200
C76	C	0.724078	-0.354608	0.354531
C77	C	1.057412	-0.021275	0.687864
C78	C	1.390745	0.312059	1.021198
C79	C	0.403690	-0.354661	0.354547
C80	C	0.737023	-0.021327	0.687880
C81	C	1.070356	0.312006	1.021213
C82	C	1.063439	-0.545831	0.354498
C83	C	1.396773	-0.212498	0.687831
C84	C	1.730106	0.120836	1.021164
C85	C	1.063475	-0.627630	0.354509
C86	C	1.396808	-0.294296	0.687842
C87	C	1.730141	0.039037	1.021175
C88	C	1.110671	-0.892683	0.307542
C89	C	1.444004	-0.559350	0.640876
C90	C	1.777337	-0.226017	0.974209
C91	C	1.110640	-0.815825	0.307526
C92	C	1.443974	-0.482491	0.640859
C93	C	1.777307	-0.149158	0.974192
C94	C	1.016447	-0.815825	0.401566
C95	C	1.349780	-0.482491	0.734899
C96	C	1.683114	-0.149158	1.068232
C97	C	1.016474	-0.892682	0.401578
C98	C	1.349807	-0.559349	0.734912
C99	C	1.683141	-0.226015	1.068245
C100	C	1.063590	-0.931109	0.354568
C101	C	1.396924	-0.597776	0.687901
C102	C	1.730257	-0.264443	1.021234
C103	C	1.063533	-0.777393	0.354538
C104	C	1.396866	-0.444060	0.687872
C105	C	1.730199	-0.110727	1.021205
C106	C	1.063500	-0.694060	0.354520
C107	C	1.396833	-0.360726	0.687854
C108	C	1.730166	-0.027393	1.021187
C109	C	1.063623	-1.014448	0.354584
C110	C	1.396956	-0.681115	0.687918
C111	C	1.730289	-0.347782	1.021251
C112	C	1.255466	-0.354658	0.354544
C113	C	1.588800	-0.021324	0.687877
C114	C	1.922133	0.312009	1.021211
C115	C	1.337265	-0.354672	0.354550
C116	C	1.670598	-0.021338	0.687884
C117	C	2.003932	0.311995	1.021217
C118	C	1.063558	-0.354574	0.546482
C119	C	1.396892	-0.021241	0.879815
C120	C	1.730225	0.312093	1.213149
C121	C	1.063577	-0.354552	0.628281
C122	C	1.396911	-0.021219	0.961614
C123	C	1.730244	0.312114	1.294948
C124	C	1.063608	-0.162672	0.354577
C125	C	1.396941	0.170662	0.687910
C126	C	1.730275	0.503995	1.021244
C127	C	1.063648	-0.080873	0.354597
C128	C	1.396981	0.252461	0.687931
C129	C	1.730315	0.585794	1.021264
C130	C	1.063511	-0.354622	0.163323
C131	C	1.396844	-0.021289	0.496656
C132	C	1.730178	0.312045	0.829990
C133	C	1.063635	-0.354436	0.081524
C134	C	1.396968	-0.021103	0.414858
C135	C	1.730301	0.312230	0.748191
C136	C	1.110687	-0.307447	0.816492
C137	C	1.444020	0.025886	1.149825
C138	C	1.777353	0.359220	1.483158
C139	C	1.110695	-0.307426	0.893350
C140	C	1.444029	0.025908	1.226684
C141	C	1.777362	0.359241	1.560017
C142	C	1.016520	-0.401544	0.893308
C143	C	1.349853	-0.068210	1.226642
C144	C	1.683187	0.265123	1.559975
C145	C	1.016508	-0.401561	0.816451
C146	C	1.349841	-0.068227	1.149784
C147	C	1.683175	0.265106	1.483118
C148	C	1.063596	-0.354514	0.778045
C149	C	1.396929	-0.021180	1.111378
C150	C	1.730262	0.312153	1.444711
C151	C	1.063616	-0.354475	0.931761
C152	C	1.396950	-0.021142	1.265094
C153	C	1.730283	0.312192	1.598428
C154	C	1.063625	-0.354452	1.015095
C155	C	1.396959	-0.021119	1.348428
C156	C	1.730292	0.312215	1.681761
C157	C	1.063586	-0.354535	0.694706
C158	C	1.396919	-0.021202	1.028039
C159	C	1.730252	0.312131	1.361372
H160	H	0.494124	-0.439943	0.269006
H161	H	0.827457	-0.106610	0.602340
H162	H	1.160791	0.226724	0.935673
H163	H	0.633641	-0.269339	0.440072
H164	H	0.966974	0.063994	0.773405
H165	H	1.300308	0.397328	1.106738
H166	H	1.149035	-0.923969	0.269263
H167	H	1.482369	-0.590635	0.602596
H168	H	1.815702	-0.257302	0.935930
C169	C	0.644539	-0.453336	0.255522
C170	C	0.977872	-0.120002	0.588855
C171	C	1.311206	0.213331	0.922188
N172	N	0.676361	-0.492271	0.216450
N173	N	1.009695	-0.158937	0.549784
N174	N	1.343028	0.174396	0.883117
C175	C	0.483239	-0.255931	0.453554
C176	C	0.816572	0.077403	0.786887
C177	C	1.149905	0.410736	1.120221
N178	N	0.451425	-0.216989	0.492626
N179	N	0.784759	0.116345	0.825959
N180	N	1.118092	0.449678	1.159292
H181	H	0.978087	-0.784529	0.439842
H182	H	1.311420	-0.451196	0.773175
H183	H	1.644754	-0.117863	1.106508
H184	H	1.149026	-0.269136	0.785223
H185	H	1.482360	0.064197	1.118557
H186	H	1.815693	0.397530	1.451890
H187	H	0.978185	-0.439849	0.924588
H188	H	1.311518	-0.106516	1.257922
H189	H	1.644851	0.226817	1.591255
C190	C	1.162428	-0.773560	0.255789
C191	C	1.495761	-0.440226	0.589122
C192	C	1.829095	-0.106893	0.922456
N193	N	1.201435	-0.741726	0.216816
N194	N	1.534768	-0.408393	0.550150
N195	N	1.868101	-0.075060	0.883483
C196	C	0.964699	-0.453338	0.774157
C197	C	1.298033	-0.120005	1.107490
C198	C	1.631366	0.213329	1.440824
N199	N	0.925677	-0.492333	0.742301
N200	N	1.259010	-0.159000	1.075634
N201	N	1.592343	0.174334	1.408967
C202	C	0.964678	-0.934953	0.453312
C203	C	1.298012	-0.601619	0.786645
C204	C	1.631345	-0.268286	1.119979
N205	N	0.925666	-0.966791	0.492275
N206	N	1.258999	-0.633458	0.825608
N207	N	1.592333	-0.300125	1.158941
H208	H	1.149040	-0.269098	0.924651
H209	H	1.482374	0.064235	1.257984
H210	H	1.815707	0.397568	1.591317
