data_functionalizedCrystal
_audit_creation_method	'MofGen! by Chris Wilmer'
_symmetry_space_group_name_H-M	'P1'
_symmetry_Int_Tables_number	1
_symmetry_cell_setting	triclinic
loop_
_symmetry_equiv_pos_as_xyz
  x,y,z
_cell_length_a	16.974800
_cell_length_b	8.597304
_cell_length_c	15.455313
_cell_angle_alpha	85.021039
_cell_angle_beta	90.973911
_cell_angle_gamma	84.857181
loop_
_atom_site_label
_atom_site_type_symbol
_atom_site_fract_x
_atom_site_fract_y
_atom_site_fract_z
O1	O	1.051316	0.198664	-0.013147
O2	O	1.551316	0.698664	0.486853
O3	O	0.822152	0.222464	-0.031020
O4	O	1.322152	0.722464	0.468980
O5	O	0.940446	-0.016274	-0.004869
O6	O	1.440446	0.483726	0.495131
O7	O	0.933023	0.437401	-0.039298
O8	O	1.433023	0.937401	0.460702
O9	O	0.933681	-0.002678	0.137902
O10	O	1.433681	0.497322	0.637902
O11	O	0.815387	0.236059	0.111751
O12	O	1.315387	0.736059	0.611751
O13	O	1.044551	0.212260	0.129624
O14	O	1.544551	0.712260	0.629624
Cu15	Cu	0.929351	0.225401	0.133724
Cu16	Cu	1.429351	0.725401	0.633724
Cu17	Cu	0.937352	0.209322	-0.035119
Cu18	Cu	1.437352	0.709322	0.464881
O19	O	0.926258	0.450997	0.103473
O20	O	1.426258	0.950997	0.603473
C21	C	0.789397	0.228107	0.038389
C22	C	1.289397	0.728107	0.538389
C23	C	0.701877	0.224649	0.032501
C24	C	1.201877	0.724649	0.532501
C25	C	0.657076	0.230432	0.107561
C26	C	1.157076	0.730432	0.607561
C27	C	0.574843	0.227158	0.102033
C28	C	1.074843	0.727158	0.602033
C29	C	0.537410	0.218112	0.021443
C30	C	1.037410	0.718112	0.521443
C31	C	0.582217	0.212325	-0.053623
C32	C	1.082217	0.712325	0.446377
C33	C	0.664450	0.215587	-0.048093
C34	C	1.164450	0.715587	0.451907
C35	C	0.291867	0.207549	-0.003440
C36	C	0.791867	0.707549	0.496560
C37	C	0.209628	0.204291	-0.008965
C38	C	0.709628	0.704291	0.491035
C39	C	0.202259	0.219121	0.146692
C40	C	0.702259	0.719121	0.646692
C41	C	0.284493	0.222393	0.152214
C42	C	0.784493	0.722393	0.652214
C43	C	0.329293	0.216597	0.077149
C44	C	0.829293	0.716597	0.577149
N45	N	0.453354	0.214771	0.015790
N46	N	0.953354	0.714771	0.515790
N47	N	0.413348	0.219927	0.082804
N48	N	0.913348	0.719927	0.582804
C49	C	0.935890	-0.067540	0.070772
C50	C	1.435890	0.432460	0.570772
C51	C	0.932383	-0.240552	0.083451
C52	C	1.432383	0.259448	0.583451
C53	C	1.077306	0.206616	0.060213
C54	C	1.577306	0.706616	0.560213
C55	C	1.164827	0.210074	0.066096
C56	C	1.664827	0.710074	0.566096
C57	C	0.930814	0.502263	0.027830
C58	C	1.430814	1.002263	0.527830
C59	C	0.934321	0.675275	0.015145
C60	C	1.434321	1.175275	0.515145
N61	N	0.923730	0.236709	0.252479
N62	N	1.423730	0.736709	0.752479
N63	N	0.942980	0.198002	-0.153874
N64	N	1.442980	0.698002	0.346126
C65	C	0.974004	0.135322	0.308982
C66	C	1.474004	0.635322	0.808982
C67	C	0.969760	0.143888	0.398851
C68	C	1.469760	0.643888	0.898851
C69	C	0.915246	0.253849	0.432216
C70	C	1.415246	0.753849	0.932216
C71	C	0.864967	0.355240	0.375707
C72	C	1.364967	0.855240	0.875707
C73	C	0.869207	0.346666	0.285839
C74	C	1.369207	0.846666	0.785839
C75	C	0.896941	0.290819	0.699749
C76	C	1.396941	0.790819	1.199749
C77	C	0.892706	0.299389	0.789624
C78	C	1.392706	0.799389	1.289624
C79	C	0.997499	0.088034	0.812762
C80	C	1.497499	0.588034	1.312762
C81	C	1.001738	0.079475	0.722892
C82	C	1.501738	0.579475	1.222892
C83	C	0.951456	0.180861	0.666390
C84	C	1.451456	0.680861	1.166390
N85	N	0.910908	0.262611	0.524077
N86	N	1.410908	0.762611	1.024077
N87	N	0.955790	0.172090	0.574532
N88	N	1.455790	0.672090	1.074532
H89	H	0.687547	0.237810	0.173186
H90	H	1.187547	0.737810	0.673186
H91	H	0.820576	0.444768	0.402878
H92	H	1.320576	0.944768	0.902878
H93	H	0.179153	0.196929	-0.074595
H94	H	0.679153	0.696929	0.425405
O95	O	0.335256	0.201978	-0.076446
O96	O	0.835256	0.701978	0.423554
C97	C	0.284583	0.193258	-0.148756
C98	C	0.784583	0.693258	0.351244
H99	H	0.222178	0.242411	-0.133754
H100	H	0.722178	0.742411	0.366246
H101	H	0.306768	0.264597	-0.207536
H102	H	0.806768	0.764597	0.292464
H103	H	0.283826	0.065719	-0.163451
H104	H	0.783826	0.565719	0.336549
O105	O	0.939360	-0.252864	-0.066237
O106	O	1.439360	0.247136	0.433763
C107	C	0.872795	-0.279697	-0.116771
C108	C	1.372795	0.220303	0.383229
H109	H	0.822200	-0.308010	-0.072214
H110	H	1.322200	0.191990	0.427786
H111	H	0.853800	-0.170260	-0.161893
H112	H	1.353800	0.329740	0.338107
H113	H	0.888559	-0.382516	-0.157068
H114	H	1.388559	0.117484	0.342932
H115	H	0.700925	0.210881	-0.109215
H116	H	1.200925	0.710881	0.390785
H117	H	0.828268	0.429223	0.239835
H118	H	1.328268	0.929223	0.739835
H119	H	1.010696	0.061330	0.444856
H120	H	1.510696	0.561330	0.944856
H121	H	1.018398	0.045787	0.281823
H122	H	1.518398	0.545787	0.781823
H123	H	0.928030	-0.300852	0.151640
H124	H	1.428030	0.199148	0.651640
H125	H	1.046127	-0.010064	0.695728
H126	H	1.546127	0.489936	1.195728
H127	H	0.551734	0.204948	-0.119240
H128	H	1.051734	0.704948	0.380760
O129	O	1.046299	-0.010682	0.867569
O130	O	1.546299	0.489318	1.367569
C131	C	1.032765	-0.167115	0.856148
C132	C	1.532765	0.332885	1.356148
H133	H	1.005473	-0.173306	0.788769
H134	H	1.505473	0.326694	1.288769
H135	H	1.091278	-0.243843	0.862878
H136	H	1.591278	0.256157	1.362878
H137	H	0.990604	-0.210693	0.907561
H138	H	1.490604	0.289307	1.407561
H139	H	0.848312	0.388939	0.816784
H140	H	1.348312	0.888939	1.316784
H141	H	0.856001	0.373374	0.653752
H142	H	1.356001	0.873374	1.153752
H143	H	0.538371	0.231841	0.163158
H144	H	1.038371	0.731841	0.663158
H145	H	0.314965	0.229751	0.217840
H146	H	0.814965	0.729751	0.717840
O147	O	0.158722	0.224456	0.219604
O148	O	0.658722	0.724456	0.719604
C149	C	0.118329	0.088181	0.231648
C150	C	0.618329	0.588181	0.731648
H151	H	0.150379	-0.009288	0.196555
H152	H	0.650379	0.490712	0.696555
H153	H	0.116625	0.049431	0.303977
H154	H	0.616625	0.549431	0.803977
H155	H	0.055321	0.114204	0.204156
H156	H	0.555321	0.614204	0.704156
