data_functionalizedCrystal
_audit_creation_method	'MofGen! by Chris Wilmer'
_symmetry_space_group_name_H-M	'P1'
_symmetry_Int_Tables_number	1
_symmetry_cell_setting	triclinic
loop_
_symmetry_equiv_pos_as_xyz
  x,y,z
_cell_length_a	14.853566
_cell_length_b	14.853567
_cell_length_c	9.730223
_cell_angle_alpha	90.002458
_cell_angle_beta	90.002641
_cell_angle_gamma	83.634672
loop_
_atom_site_label
_atom_site_type_symbol
_atom_site_fract_x
_atom_site_fract_y
_atom_site_fract_z
O1	O	1.196360	0.117695	-0.114187
O2	O	0.933901	0.131717	-0.114208
O3	O	1.072141	-0.006524	-0.114201
O4	O	1.058120	0.255936	-0.114194
O5	O	1.072140	-0.006520	0.114379
O6	O	0.933899	0.131721	0.114371
O7	O	1.196359	0.117698	0.114393
Zn8	Zn	1.065129	0.124710	0.150674
Zn9	Zn	1.065131	0.124706	-0.150490
O10	O	1.058118	0.255939	0.114386
C11	C	0.900311	0.131084	0.000079
C12	C	0.800227	0.129181	0.000070
C13	C	0.377043	0.121128	-0.124505
C14	C	0.377063	0.121132	0.124702
C15	C	0.471097	0.122920	0.124697
C16	C	0.518108	0.123813	0.000090
C17	C	0.471086	0.122918	-0.124513
C18	C	0.518126	0.123824	0.249298
C19	C	0.612165	0.125612	0.249299
C20	C	0.659179	0.126499	0.124690
C21	C	0.612151	0.125603	0.000082
C22	C	0.659162	0.126496	-0.124525
C23	C	0.612136	0.125594	-0.249135
C24	C	0.518100	0.123805	-0.249122
C25	C	0.753216	0.128288	0.124677
C26	C	0.753205	0.128286	-0.124533
C27	C	1.071505	-0.040111	0.000084
C28	C	1.069601	-0.140194	0.000072
C29	C	0.979435	-0.552728	0.000091
C30	C	1.143668	-0.574009	0.000104
C31	C	1.145458	-0.479976	0.000097
C32	C	1.064236	-0.422313	0.000088
C33	C	0.981223	-0.458685	0.000087
C34	C	1.228470	-0.443597	0.000111
C35	C	1.230263	-0.349558	0.000105
C36	C	1.149040	-0.291894	0.000086
C37	C	1.066023	-0.328271	0.000084
C38	C	0.984801	-0.270608	0.000076
C39	C	0.901784	-0.306984	0.000064
C40	C	0.899999	-0.401021	0.000069
C41	C	1.150824	-0.197856	0.000081
C42	C	0.986588	-0.176566	0.000072
C43	C	1.229948	0.118332	0.000103
C44	C	1.330032	0.120235	0.000102
C45	C	1.058754	0.289526	0.000097
C46	C	1.060658	0.389610	0.000100
N47	N	1.065134	0.124713	0.356210
N48	N	1.065133	0.124696	-0.356026
C49	C	1.126362	0.063520	0.428140
C50	C	1.126360	0.063509	0.572023
C51	C	1.003898	0.185891	0.572035
C52	C	1.003896	0.185897	0.428154
C53	C	1.187600	0.002336	0.356196
C54	C	1.248834	-0.058861	0.428125
C55	C	1.248831	-0.058872	0.572008
C56	C	1.187595	0.002314	0.643962
H57	H	0.338751	0.120390	-0.225959
H58	H	0.479841	0.123103	0.350747
H59	H	1.187592	0.002294	0.761121
C60	C	1.316177	-0.126201	0.651126
N61	N	1.366904	-0.176916	0.710715
C62	C	0.663886	0.126595	0.386371
N63	N	0.702844	0.127330	0.489615
C64	C	0.804910	0.129265	-0.261614
N65	N	0.843854	0.130002	-0.364865
C66	C	0.466364	0.122818	-0.386180
N67	N	0.427392	0.122079	-0.489411
C68	C	1.317808	-0.507030	0.000130
N69	N	1.385101	-0.554812	0.000143
C70	C	1.187606	0.002340	0.197922
N71	N	1.187610	0.002344	0.078710
H72	H	0.832411	-0.430646	0.000061
H73	H	1.298686	-0.108682	0.369533
H74	H	0.954042	0.235707	0.630629
C75	C	0.325347	0.120153	0.261762
N76	N	0.286391	0.119414	0.365001
H77	H	0.954038	0.235725	0.369589
C78	C	1.242137	-0.157848	0.000094
N79	N	1.310919	-0.127715	0.000100
C80	C	0.804940	0.129280	0.261739
N81	N	0.843898	0.130025	0.364982
C82	C	0.897235	-0.113144	0.000058
N83	N	0.829933	-0.065375	0.000049
H84	H	0.911845	-0.582349	0.000076
C85	C	1.233008	-0.637440	0.000121
N86	N	1.300302	-0.685221	0.000131
H87	H	0.650425	0.126327	-0.350590
H88	H	1.297861	-0.319950	0.000113
C89	C	0.812442	-0.243543	0.000054
N90	N	0.745152	-0.195757	0.000045
