data_functionalizedCrystal
_audit_creation_method	'MofGen! by Chris Wilmer'
_symmetry_space_group_name_H-M	'P1'
_symmetry_Int_Tables_number	1
_symmetry_cell_setting	triclinic
loop_
_symmetry_equiv_pos_as_xyz
  x,y,z
_cell_length_a	19.188930
_cell_length_b	23.532357
_cell_length_c	18.266242
_cell_angle_alpha	89.988103
_cell_angle_beta	89.977082
_cell_angle_gamma	82.986534
loop_
_atom_site_label
_atom_site_type_symbol
_atom_site_fract_x
_atom_site_fract_y
_atom_site_fract_z
O1	O	0.925907	0.071104	-0.061125
O2	O	1.425907	0.571104	0.438875
O3	O	0.722563	0.080675	-0.061076
O4	O	1.222563	0.580675	0.438924
O5	O	0.830385	-0.007031	-0.061087
O6	O	1.330385	0.492969	0.438913
O7	O	0.818085	0.158810	-0.061114
O8	O	1.318085	0.658810	0.438886
O9	O	0.830367	-0.007036	0.060675
O10	O	1.330367	0.492964	0.560675
O11	O	0.722545	0.080671	0.060686
O12	O	1.222545	0.580671	0.560686
O13	O	0.925889	0.071099	0.060637
O14	O	1.425889	0.571099	0.560637
Zn15	Zn	0.824214	0.075884	0.079994
Zn16	Zn	1.324214	0.575884	0.579994
Zn17	Zn	0.824238	0.075890	-0.080433
Zn18	Zn	1.324238	0.575890	0.419567
O19	O	0.818067	0.158806	0.060648
O20	O	1.318067	0.658806	0.560648
C21	C	0.696544	0.080363	-0.000189
C22	C	1.196544	0.580363	0.499811
C23	C	0.619042	0.079433	-0.000169
C24	C	1.119042	0.579433	0.499831
C25	C	0.830068	-0.028251	-0.000204
C26	C	1.330068	0.471749	0.499796
C27	C	0.829143	-0.091471	-0.000197
C28	C	1.329143	0.408529	0.499803
C29	C	0.573943	0.130896	-0.000189
C30	C	1.073943	0.630896	0.499811
C31	C	0.501122	0.130022	-0.000197
C32	C	1.001122	0.630022	0.499803
C33	C	0.473404	0.077681	-0.000200
C34	C	0.973404	0.577681	0.499800
C35	C	0.518513	0.026211	-0.000176
C36	C	1.018513	0.526211	0.499824
C37	C	0.591333	0.027087	-0.000160
C38	C	1.091333	0.527087	0.499840
N39	N	0.365567	0.037675	-0.041664
N40	N	0.865567	0.537675	0.458336
N41	N	0.296391	0.036847	-0.041680
N42	N	0.796391	0.536847	0.458320
C43	C	0.254004	0.075040	-0.000244
C44	C	0.754004	0.575040	0.499756
N45	N	0.283406	0.114101	0.041199
N46	N	0.783406	0.614101	0.541199
N47	N	0.352588	0.114931	0.041212
N48	N	0.852588	0.614931	0.541212
C49	C	0.394445	0.076726	-0.000216
C50	C	0.894445	0.576726	0.499784
C51	C	0.129944	0.125559	-0.000271
C52	C	0.629944	0.625559	0.499729
C53	C	0.057122	0.124683	-0.000275
C54	C	0.557122	0.624683	0.499725
C55	C	0.074515	0.020871	-0.000261
C56	C	0.574515	0.520871	0.499739
C57	C	0.147335	0.021749	-0.000250
C58	C	0.647335	0.521749	0.499750
C59	C	0.175045	0.074094	-0.000259
C60	C	0.675045	0.574094	0.499741
C61	C	0.823346	-0.483492	-0.066607
C62	C	1.323346	0.016508	0.433393
C63	C	0.822467	-0.542894	-0.066611
C64	C	1.322467	-0.042894	0.433389
O65	O	0.821997	-0.573609	-0.123058
O66	O	1.321997	-0.073609	0.376942
N67	N	0.822021	-0.572608	-0.000239
N68	N	1.322021	-0.072608	0.499761
C69	C	0.822447	-0.542918	0.066141
C70	C	1.322447	-0.042918	0.566141
O71	O	0.821986	-0.573647	0.122594
O72	O	1.321986	-0.073647	0.622594
C73	C	0.823321	-0.483517	0.066144
C74	C	1.323321	0.016483	0.566144
C75	C	0.823774	-0.453806	-0.000232
C76	C	1.323774	0.046194	0.499768
C77	C	0.823798	-0.453782	-0.132978
C78	C	1.323798	0.046218	0.367022
C79	C	0.824679	-0.394384	-0.132973
C80	C	1.324679	0.105616	0.367027
C81	C	0.825107	-0.364698	-0.066599
C82	C	1.325107	0.135302	0.433401
C83	C	0.824655	-0.394409	-0.000228
C84	C	1.324655	0.105591	0.499772
C85	C	0.823742	-0.453827	0.132523
C86	C	1.323742	0.046173	0.632523
C87	C	0.824616	-0.394422	0.132520
C88	C	1.324616	0.105578	0.632520
C89	C	0.825069	-0.364711	0.066144
C90	C	1.325069	0.135289	0.566144
C91	C	0.825964	-0.305326	0.066151
C92	C	1.325964	0.194674	0.566151
N93	N	0.826410	-0.275611	-0.000221
N94	N	1.326410	0.224389	0.499779
C95	C	0.825981	-0.305297	-0.066595
C96	C	1.325981	0.194703	0.433405
C97	C	0.820610	-0.667663	0.066129
C98	C	1.320610	-0.167663	0.566129
C99	C	0.819740	-0.727063	0.066126
C100	C	1.319740	-0.227063	0.566126
C101	C	0.819759	-0.727035	-0.066626
C102	C	1.319759	-0.227035	0.433374
C103	C	0.820633	-0.667634	-0.066622
C104	C	1.320633	-0.167634	0.433378
C105	C	0.821056	-0.637949	-0.000243
C106	C	1.321056	-0.137949	0.499757
C107	C	0.827831	-0.180559	-0.066581
C108	C	1.327831	0.319441	0.433419
C109	C	0.828715	-0.121157	-0.066571
C110	C	1.328715	0.378843	0.433429
C111	C	0.828693	-0.121190	0.066180
C112	C	1.328693	0.378810	0.566180
C113	C	0.827813	-0.180588	0.066170
C114	C	1.327813	0.319412	0.566170
C115	C	0.827380	-0.210270	-0.000216
C116	C	1.327380	0.289730	0.499784
O117	O	0.826431	-0.274572	0.122569
O118	O	1.326431	0.225428	0.622569
O119	O	0.826433	-0.274560	-0.123040
O120	O	1.326433	0.225440	0.376960
C121	C	0.951908	0.071411	-0.000252
C122	C	1.451908	0.571411	0.499748
C123	C	1.029409	0.072342	-0.000276
C124	C	1.529409	0.572342	0.499724
C125	C	0.818383	0.180025	-0.000237
C126	C	1.318383	0.680025	0.499763
C127	C	0.819308	0.243246	-0.000249
C128	C	1.319308	0.743246	0.499751
N129	N	0.824203	0.075880	0.189481
N130	N	1.324203	0.575880	0.689481
N131	N	0.824254	0.075890	-0.189920
N132	N	1.324254	0.575890	0.310080
C133	C	0.871962	0.037062	0.227785
C134	C	1.371962	0.537062	0.727785
C135	C	0.871966	0.037060	0.304430
C136	C	1.371966	0.537060	0.804430
C137	C	0.824218	0.075884	0.342768
C138	C	1.324218	0.575884	0.842768
C139	C	0.776450	0.114705	0.304454
C140	C	1.276450	0.614705	0.804454
C141	C	0.776442	0.114703	0.227811
C142	C	1.276442	0.614703	0.727811
N143	N	0.814970	0.126301	0.463093
N144	N	1.314970	0.626301	0.963093
N145	N	0.814982	0.126301	0.535901
N146	N	1.314982	0.626301	1.035901
C147	C	0.824238	0.075893	0.573690
C148	C	1.324238	0.575893	1.073690
N149	N	0.833495	0.025482	0.535920
N150	N	1.333495	0.525482	1.035920
N151	N	0.833487	0.025482	0.463105
N152	N	1.333487	0.525482	0.963105
C153	C	0.824221	0.075891	0.425875
C154	C	1.324221	0.575891	0.925875
C155	C	0.872004	0.037069	0.695101
C156	C	1.372004	0.537069	1.195101
C157	C	0.872004	0.037066	0.771748
C158	C	1.372004	0.537066	1.271748
C159	C	0.776491	0.114716	0.771771
C160	C	1.276491	0.614716	1.271771
C161	C	0.776488	0.114714	0.695126
C162	C	1.276488	0.614714	1.195126
C163	C	0.824248	0.075891	0.656796
C164	C	1.324248	0.575891	1.156796
H165	H	0.596499	0.173520	-0.000198
H166	H	1.096499	0.673520	0.499802
H167	H	0.464395	0.171931	-0.000211
H168	H	0.964395	0.671931	0.499789
N169	N	0.488616	-0.030239	-0.000173
N170	N	0.988616	0.469761	0.499827
H171	H	0.458817	-0.032917	-0.045316
H172	H	0.958817	0.467083	0.454684
H173	H	0.528275	-0.062679	-0.000128
H174	H	1.028275	0.437321	0.499872
N175	N	0.829150	-0.089159	0.137763
N176	N	1.329150	0.410841	0.637763
H177	H	0.785703	-0.094771	0.166787
H178	H	1.285703	0.405229	0.666787
H179	H	0.872307	-0.104239	0.166720
H180	H	1.372307	0.395761	0.666720
N181	N	0.923484	-0.004802	0.345760
N182	N	1.423484	0.495198	0.845760
H183	H	0.896994	-0.029966	0.377584
H184	H	1.396994	0.470034	0.877584
H185	H	0.953727	-0.029358	0.309804
H186	H	1.453727	0.470642	0.809804
H187	H	0.910849	0.005449	0.196579
H188	H	1.410849	0.505449	0.696579
N189	N	0.827342	-0.212639	0.137759
N190	N	1.327342	0.287361	0.637759
H191	H	0.783691	-0.232558	0.140732
H192	H	1.283691	0.267442	0.640732
H193	H	0.870295	-0.241984	0.140652
H194	H	1.370295	0.258016	0.640652
N195	N	0.724984	0.156587	0.813111
N196	N	1.224984	0.656587	1.313111
H197	H	0.751479	0.181754	0.844890
H198	H	1.251479	0.681754	1.344890
H199	H	0.694742	0.181139	0.777164
H200	H	1.194742	0.681139	1.277164
H201	H	0.628054	-0.014822	-0.000145
H202	H	1.128054	0.485178	0.499855
N203	N	0.821081	-0.635653	0.137732
N204	N	1.321081	-0.135653	0.637732
H205	H	0.864732	-0.615737	0.140683
H206	H	1.364732	-0.115737	0.640683
H207	H	0.778128	-0.606310	0.140670
H208	H	1.278128	-0.106310	0.640670
H209	H	0.152506	0.168182	-0.000268
H210	H	0.652506	0.668182	0.499732
H211	H	0.737572	0.146316	0.335673
H212	H	1.237572	0.646316	0.835673
N213	N	0.008474	0.180192	-0.000238
N214	N	0.508474	0.680192	0.499762
H215	H	0.037082	0.213483	-0.000225
H216	H	0.537082	0.713483	0.499775
H217	H	-0.022119	0.182117	-0.045364
H218	H	0.477881	0.682117	0.454636
N219	N	0.724926	0.156570	0.186492
N220	N	1.224926	0.656570	0.686492
H221	H	0.694675	0.181164	0.222406
H222	H	1.194675	0.681164	0.722406
H223	H	0.751468	0.181695	0.154670
H224	H	1.251468	0.681695	0.654670
H225	H	0.910891	0.005456	0.663891
H226	H	1.410891	0.505456	1.163891
H227	H	0.910893	0.005453	0.802935
H228	H	1.410893	0.505453	1.302935
H229	H	0.051948	-0.021746	-0.000308
H230	H	0.551948	0.478254	0.499692
H231	H	0.184056	-0.020159	-0.000238
H232	H	0.684056	0.479841	0.499762
H233	H	0.821001	-0.643448	-0.120672
H234	H	1.321001	-0.143448	0.379328
H235	H	0.737601	0.146325	0.663937
H236	H	1.237601	0.646325	1.163937
H237	H	0.829085	-0.096970	-0.120625
H238	H	1.329085	0.403030	0.379375
H239	H	0.827475	-0.204720	-0.120640
H240	H	1.327475	0.295280	0.379360
H241	H	0.823447	-0.477945	-0.187031
H242	H	1.323447	0.022055	0.312969
N243	N	0.825163	-0.362343	-0.204565
N244	N	1.325163	0.137657	0.295435
H245	H	0.824756	-0.390170	-0.246608
H246	H	1.324756	0.109830	0.253392
H247	H	0.782237	-0.332970	-0.207447
H248	H	1.282237	0.167030	0.292553
N249	N	0.819296	-0.759060	-0.138218
N250	N	1.319296	-0.259060	0.361782
H251	H	0.818672	-0.801197	-0.128143
H252	H	1.318672	-0.301197	0.371857
H253	H	0.776164	-0.743945	-0.167193
H254	H	1.276164	-0.243945	0.332807
H255	H	0.819382	-0.751250	0.120176
H256	H	1.319382	-0.251250	0.620176
N257	N	0.823255	-0.485862	0.204115
N258	N	1.323255	0.014138	0.704115
H259	H	0.823655	-0.458034	0.246157
H260	H	1.323655	0.041966	0.746157
H261	H	0.779601	-0.505779	0.207017
H262	H	1.279601	-0.005779	0.707017
N263	N	0.825069	-0.362404	0.204117
N264	N	1.325069	0.137596	0.704117
H265	H	0.824650	-0.390242	0.246160
H266	H	1.324650	0.109758	0.746160
H267	H	0.868723	-0.342488	0.207005
H268	H	1.368723	0.157512	0.707005
