data_functionalizedCrystal
_audit_creation_method	'MofGen! by Chris Wilmer'
_symmetry_space_group_name_H-M	'P1'
_symmetry_Int_Tables_number	1
_symmetry_cell_setting	triclinic
loop_
_symmetry_equiv_pos_as_xyz
  x,y,z
_cell_length_a	14.908520
_cell_length_b	14.908783
_cell_length_c	14.909227
_cell_angle_alpha	96.415836
_cell_angle_beta	89.839712
_cell_angle_gamma	96.791586
loop_
_atom_site_label
_atom_site_type_symbol
_atom_site_fract_x
_atom_site_fract_y
_atom_site_fract_z
Zn1	Zn	-0.243540	1.400126	0.605064
Zn2	Zn	-0.403661	1.382544	0.462421
Zn3	Zn	-0.262041	1.239004	0.445974
Zn4	Zn	-0.403589	1.239982	0.604993
O5	O	-0.328208	1.315414	0.529613
O6	O	-0.257067	1.524887	0.593056
O7	O	-0.392647	1.355735	0.333993
O8	O	-0.133337	1.267326	0.460224
O9	O	-0.374707	1.511969	0.488257
O10	O	-0.119744	1.385702	0.577107
O11	O	-0.288600	1.250277	0.321909
O12	O	-0.288531	1.112041	0.460154
O13	O	-0.374586	1.268993	0.731249
O14	O	-0.392526	1.112760	0.576985
O15	O	-0.256998	1.386651	0.731302
O16	O	-0.529901	1.356684	0.488187
O17	O	-0.529849	1.251944	0.592933
C18	C	-0.342529	1.079446	0.516778
C19	C	-0.348677	0.978498	0.511309
C20	C	-0.237876	0.802258	0.610346
C21	C	-0.243649	0.707409	0.605211
C22	C	-0.365989	0.693949	0.495899
C23	C	-0.360217	0.788798	0.501034
C24	C	-0.296159	0.842950	0.558261
C25	C	-0.290391	0.937801	0.563400
C26	C	-0.412727	0.924339	0.454084
C27	C	-0.418500	0.829490	0.448949
C28	C	-0.562607	1.302538	0.542358
C29	C	-0.662877	1.297115	0.547845
C30	C	-0.851276	1.396114	0.449183
C31	C	-0.945488	1.391021	0.454336
C32	C	-0.945516	1.281842	0.563308
C33	C	-0.851304	1.286934	0.558155
C34	C	-0.804187	1.344072	0.501090
C35	C	-0.709973	1.349159	0.495933
C36	C	-0.710002	1.239985	0.604909
C37	C	-0.804215	1.234892	0.610062
C38	C	-0.092890	1.328366	0.516839
C39	C	0.007388	1.333886	0.511396
C40	C	-0.313720	1.329892	0.764925
C41	C	-0.307546	1.336062	0.865201
C42	C	-0.313831	1.552303	0.542499
C43	C	-0.307704	1.653251	0.547990
C44	C	-0.342571	1.301048	0.295216
C45	C	-0.348480	1.295068	0.194936
C46	C	-0.237629	1.406009	1.006564
C47	C	-0.243427	1.400217	0.912346
C48	C	-0.365875	1.277697	0.912281
C49	C	-0.360078	1.283489	1.006499
C50	C	-0.295952	1.347646	1.053637
C51	C	-0.290151	1.353433	1.147856
C52	C	-0.412603	1.230919	1.147790
C53	C	-0.418400	1.225127	1.053572
H54	H	-0.460192	0.957480	0.411680
O55	O	-0.428294	0.641298	0.440442
C56	C	-0.557304	0.526706	0.428923
C57	C	-0.486813	0.586298	0.491833
H58	H	-0.604623	0.482210	0.470445
H59	H	-0.598042	0.572032	0.392588
H60	H	-0.521384	0.481713	0.377142
H61	H	-0.522660	0.631299	0.543665
H62	H	-0.446078	0.540920	0.528102
H63	H	-0.470612	1.172894	1.015179
O64	O	-0.805638	1.451682	0.393730
C65	C	-0.815556	1.559376	0.286128
C66	C	-0.867349	1.496501	0.348911
H67	H	-0.865428	1.595614	0.249861
H68	H	-0.765977	1.611828	0.327708
H69	H	-0.776916	1.517176	0.234286
H70	H	-0.906042	1.538626	0.400764
H71	H	-0.916875	1.444046	0.307272
O72	O	-0.175365	1.468246	1.052495
C73	C	-0.112203	1.531500	1.197678
C74	C	-0.182746	1.460960	1.145773
H75	H	-0.118159	1.525646	1.273104
H76	H	-0.041540	1.518415	1.174406
H77	H	-0.124730	1.602711	1.183945
H78	H	-0.170304	1.389721	1.159482
H79	H	-0.253385	1.474124	1.169053
O80	O	-0.175615	0.854958	0.665815
C81	C	-0.046520	0.969448	0.677327
C82	C	-0.116989	0.909837	0.614407
H83	H	0.000909	1.013819	0.635786
H84	H	-0.082360	1.014551	0.729078
H85	H	-0.005901	0.924051	0.713697
H86	H	-0.157630	0.955165	0.577975
H87	H	-0.081095	0.864728	0.562711
O88	O	-0.186733	1.456775	0.866512
C89	C	-0.070679	1.469149	0.754247
C90	C	-0.134857	1.404992	0.806070
H91	H	-0.028707	1.427309	0.705381
H92	H	-0.111876	1.511636	0.714900
H93	H	-0.023894	1.516011	0.804150
H94	H	-0.181656	1.358074	0.756230
H95	H	-0.093604	1.362568	0.845431
H96	H	-0.983824	1.433401	0.412070
O97	O	-0.186994	0.668028	0.655900
C98	C	-0.065005	0.691391	0.764826
C99	C	-0.129128	0.736108	0.707483
H100	H	-0.018191	0.746413	0.806531
H101	H	-0.106248	0.647652	0.811846
H102	H	-0.023060	0.646993	0.718494
H103	H	-0.171087	0.780550	0.753745
H104	H	-0.087832	0.779793	0.660454
O105	O	-0.991386	1.226470	0.618795
C106	C	-1.090937	1.215916	0.745763
C107	C	-1.039051	1.278723	0.682977
H108	H	-1.129472	1.258139	0.797681
H109	H	-1.140599	1.163545	0.704189
H110	H	-1.041091	1.179565	0.781938
H111	H	-1.088829	1.315134	0.646788
H112	H	-0.989375	1.331038	0.724599
H113	H	-0.470651	0.785387	0.402354
O114	O	-0.849898	1.179268	0.665436
C115	C	-0.885590	1.025853	0.702234
C116	C	-0.833795	1.088749	0.639472
H117	H	-0.872604	0.952653	0.681254
H118	H	-0.861564	1.047142	0.774851
H119	H	-0.961007	1.031200	0.697023
H120	H	-0.758368	1.083434	0.644605
H121	H	-0.857895	1.067441	0.566882
O122	O	-0.664116	1.189519	0.655305
C123	C	-0.518996	1.148927	0.695615
C124	C	-0.570846	1.206146	0.638515
H125	H	-0.443580	1.162336	0.682047
H126	H	-0.531963	1.168295	0.770267
H127	H	-0.543075	1.073733	0.676756
H128	H	-0.546798	1.281356	0.657296
H129	H	-0.557878	1.186702	0.563878
O130	O	-0.664310	1.404602	0.440380
C131	C	-0.642221	1.440912	0.287783
C132	C	-0.694012	1.378068	0.350595
H133	H	-0.666201	1.419470	0.215176
H134	H	-0.655266	1.514122	0.308611
H135	H	-0.566796	1.435630	0.293060
H136	H	-0.769451	1.383270	0.345349
H137	H	-0.680891	1.304884	0.329748
H138	H	-0.418089	1.225470	0.873885
H139	H	-0.237933	1.405669	1.186234
O140	O	-0.469358	1.174352	1.193565
C141	C	-0.585335	1.161977	1.305909
C142	C	-0.521122	1.226139	1.254122
H143	H	-0.627190	1.203821	1.354895
H144	H	-0.632222	1.115152	1.256069
H145	H	-0.544078	1.119452	1.345146
H146	H	-0.562307	1.268723	1.214883
H147	H	-0.474234	1.272904	1.304007
H148	H	-0.238233	0.981890	0.609998
