data_functionalizedCrystal
_audit_creation_method	'MofGen! by Chris Wilmer'
_symmetry_space_group_name_H-M	'P1'
_symmetry_Int_Tables_number	1
_symmetry_cell_setting	triclinic
loop_
_symmetry_equiv_pos_as_xyz
  x,y,z
_cell_length_a	16.109318
_cell_length_b	12.811415
_cell_length_c	14.586319
_cell_angle_alpha	84.565349
_cell_angle_beta	90.000075
_cell_angle_gamma	83.757608
loop_
_atom_site_label
_atom_site_type_symbol
_atom_site_fract_x
_atom_site_fract_y
_atom_site_fract_z
O1	O	1.103618	0.134999	-0.087386
O2	O	1.353618	0.384999	0.162614
O3	O	1.603618	0.634999	0.412614
O4	O	1.853618	0.884999	0.662614
O5	O	0.861620	0.151769	-0.088799
O6	O	1.111620	0.401769	0.161201
O7	O	1.361620	0.651769	0.411201
O8	O	1.611620	0.901769	0.661201
O9	O	0.988707	-0.009410	-0.075385
O10	O	1.238707	0.240590	0.174615
O11	O	1.488707	0.490590	0.424615
O12	O	1.738707	0.740590	0.674615
O13	O	0.976531	0.296178	-0.100801
O14	O	1.226531	0.546178	0.149199
O15	O	1.476531	0.796178	0.399199
O16	O	1.726531	1.046178	0.649199
O17	O	0.988698	-0.009412	0.077096
O18	O	1.238698	0.240588	0.327096
O19	O	1.488698	0.490588	0.577096
O20	O	1.738698	0.740588	0.827096
O21	O	0.861611	0.151767	0.063682
O22	O	1.111611	0.401767	0.313682
O23	O	1.361611	0.651767	0.563682
O24	O	1.611611	0.901767	0.813682
O25	O	1.103609	0.134996	0.065095
O26	O	1.353609	0.384996	0.315095
O27	O	1.603609	0.634996	0.565095
O28	O	1.853609	0.884996	0.815095
Cu29	Cu	0.982609	0.143382	0.078311
Cu30	Cu	1.232609	0.393382	0.328311
Cu31	Cu	1.482609	0.643382	0.578311
Cu32	Cu	1.732609	0.893382	0.828311
Cu33	Cu	0.982620	0.143384	-0.102015
Cu34	Cu	1.232620	0.393384	0.147985
Cu35	Cu	1.482620	0.643384	0.397985
Cu36	Cu	1.732620	0.893384	0.647985
O37	O	0.976522	0.296176	0.051680
O38	O	1.226522	0.546176	0.301680
O39	O	1.476522	0.796176	0.551680
O40	O	1.726522	1.046176	0.801680
C41	C	0.830638	0.151086	-0.012504
C42	C	1.080638	0.401086	0.237496
C43	C	1.330638	0.651086	0.487496
C44	C	1.580638	0.901086	0.737496
C45	C	0.738336	0.149040	-0.012341
C46	C	0.988336	0.399040	0.237659
C47	C	1.238336	0.649040	0.487659
C48	C	1.488336	0.899040	0.737659
C49	C	0.439243	0.142432	-0.094892
C50	C	0.689243	0.392432	0.155108
C51	C	0.939243	0.642432	0.405108
C52	C	1.189243	0.892432	0.655108
C53	C	0.525971	0.144348	-0.095057
C54	C	0.775971	0.394348	0.154943
C55	C	1.025971	0.644348	0.404943
C56	C	1.275971	0.894348	0.654943
C57	C	0.525980	0.144331	0.071187
C58	C	0.775980	0.394331	0.321187
C59	C	1.025980	0.644331	0.571187
C60	C	1.275980	0.894331	0.821187
C61	C	0.439254	0.142408	0.071352
C62	C	0.689254	0.392408	0.321352
C63	C	0.939254	0.642408	0.571352
C64	C	1.189254	0.892408	0.821352
C65	C	0.395887	0.141464	-0.011691
C66	C	0.645887	0.391464	0.238309
C67	C	0.895887	0.641464	0.488309
C68	C	1.145887	0.891464	0.738309
C69	C	0.569342	0.145302	-0.012021
C70	C	0.819342	0.395302	0.237979
C71	C	1.069342	0.645302	0.487979
C72	C	1.319342	0.895302	0.737979
C73	C	0.663376	0.147379	-0.012199
C74	C	0.913376	0.397379	0.237801
C75	C	1.163376	0.647379	0.487801
C76	C	1.413376	0.897379	0.737801
C77	C	0.301847	0.139384	-0.011513
C78	C	0.551847	0.389384	0.238487
C79	C	0.801847	0.639384	0.488487
C80	C	1.051847	0.889384	0.738487
C81	C	0.988020	-0.048515	0.004106
C82	C	1.238020	0.201485	0.254106
C83	C	1.488020	0.451485	0.504106
C84	C	1.738020	0.701485	0.754106
C85	C	0.985977	-0.165033	0.013791
C86	C	1.235977	0.084967	0.263791
C87	C	1.485977	0.334967	0.513791
C88	C	1.735977	0.584967	0.763791
C89	C	0.982131	-0.383968	-0.134265
C90	C	1.232131	-0.133968	0.115735
C91	C	1.482131	0.116032	0.365735
C92	C	1.732131	0.366032	0.615735
C93	C	0.980211	-0.493446	-0.125170
C94	C	1.230211	-0.243446	0.124830
C95	C	1.480211	0.006554	0.374830
C96	C	1.730211	0.256554	0.624830
C97	C	0.980211	-0.493470	0.041075
C98	C	1.230211	-0.243470	0.291075
C99	C	1.480211	0.006530	0.541075
C100	C	1.730211	0.256530	0.791075
C101	C	0.982131	-0.383991	0.031980
C102	C	1.232131	-0.133991	0.281980
C103	C	1.482131	0.116009	0.531980
C104	C	1.732131	0.366009	0.781980
C105	C	0.983092	-0.329244	-0.055693
C106	C	1.233092	-0.079244	0.194307
C107	C	1.483092	0.170756	0.444307
C108	C	1.733092	0.420756	0.694307
C109	C	0.985018	-0.219764	-0.064787
C110	C	1.235018	0.030236	0.185213
C111	C	1.485018	0.280236	0.435213
C112	C	1.735018	0.530236	0.685213
C113	C	0.985011	-0.219789	0.101457
C114	C	1.235011	0.030211	0.351457
C115	C	1.485011	0.280211	0.601457
C116	C	1.735011	0.530211	0.851457
C117	C	0.983091	-0.329268	0.110552
C118	C	1.233091	-0.079268	0.360552
C119	C	1.483091	0.170732	0.610552
C120	C	1.733091	0.420732	0.860552
C121	C	1.134591	0.135680	-0.011202
C122	C	1.384591	0.385680	0.238798
C123	C	1.634591	0.635680	0.488798
C124	C	1.884591	0.885680	0.738798
C125	C	1.226893	0.137726	-0.011371
C126	C	1.476893	0.387726	0.238629
C127	C	1.726893	0.637726	0.488629
C128	C	1.976893	0.887726	0.738629
C129	C	0.977209	0.335281	-0.027812
C130	C	1.227209	0.585281	0.222188
C131	C	1.477209	0.835281	0.472188
C132	C	1.727209	1.085281	0.722188
C133	C	0.979252	0.451799	-0.037503
C134	C	1.229252	0.701799	0.212497
C135	C	1.479252	0.951799	0.462497
C136	C	1.729252	1.201799	0.712497
N137	N	0.982608	0.143379	0.205143
N138	N	1.232608	0.393379	0.455143
N139	N	1.482608	0.643379	0.705143
N140	N	1.732608	0.893379	0.955143
N141	N	0.982628	0.143379	-0.228847
N142	N	1.232628	0.393379	0.021153
N143	N	1.482628	0.643379	0.271153
N144	N	1.732628	0.893379	0.521153
C145	C	1.038901	0.072033	0.446087
C146	C	1.288901	0.322033	0.696087
C147	C	1.538901	0.572033	0.946087
C148	C	1.788901	0.822033	1.196087
C149	C	1.038903	0.072030	0.542069
C150	C	1.288903	0.322030	0.792069
C151	C	1.538903	0.572030	1.042069
C152	C	1.788903	0.822030	1.292069
C153	C	0.926329	0.214728	0.530202
C154	C	1.176329	0.464728	0.780202
C155	C	1.426329	0.714728	1.030202
C156	C	1.676329	0.964728	1.280202
C157	C	0.926323	0.214725	0.434223
C158	C	1.176323	0.464725	0.684223
C159	C	1.426323	0.714725	0.934223
C160	C	1.676323	0.964725	1.184223
C161	C	0.982614	0.143378	0.392168
C162	C	1.232614	0.393378	0.642168
C163	C	1.482614	0.643378	0.892168
C164	C	1.732614	0.893378	1.142168
C165	C	0.982622	0.143379	0.584129
C166	C	1.232622	0.393379	0.834129
C167	C	1.482622	0.643379	1.084129
C168	C	1.732622	0.893379	1.334129
C169	C	0.982624	0.143377	0.688196
C170	C	1.232624	0.393377	0.938196
C171	C	1.482624	0.643377	1.188196
C172	C	1.732624	0.893377	1.438196
C173	C	0.982611	0.143379	0.288094
C174	C	1.232611	0.393379	0.538094
C175	C	1.482611	0.643379	0.788094
C176	C	1.732611	0.893379	1.038094
H177	H	0.403953	0.141618	0.139108
H178	H	0.653953	0.391618	0.389108
H179	H	0.903953	0.641618	0.639108
H180	H	1.153953	0.891618	0.889108
H181	H	0.403936	0.141662	-0.162511
H182	H	0.653936	0.391662	0.087489
H183	H	0.903936	0.641662	0.337489
H184	H	1.153936	0.891662	0.587489
H185	H	0.561268	0.145135	-0.162808
H186	H	0.811268	0.395135	0.087192
H187	H	1.061268	0.645135	0.337192
H188	H	1.311268	0.895135	0.587192
F189	F	0.572141	0.145344	0.159561
F190	F	0.822141	0.395344	0.409561
F191	F	1.072141	0.645344	0.659561
F192	F	1.322141	0.895344	0.909561
F193	F	0.986045	-0.161500	-0.158095
F194	F	1.236045	0.088500	0.091905
F195	F	1.486045	0.338500	0.341905
F196	F	1.736045	0.588500	0.591905
H197	H	0.982922	-0.339393	-0.205652
H198	H	1.232922	-0.089393	0.044348
H199	H	1.482922	0.160607	0.294348
H200	H	1.732922	0.410607	0.544348
H201	H	0.880483	0.272824	0.390318
H202	H	1.130483	0.522824	0.640318
H203	H	1.380483	0.772824	0.890318
H204	H	1.630483	1.022824	1.140318
H205	H	0.979426	-0.537997	-0.189152
H206	H	1.229426	-0.287997	0.060848
H207	H	1.479426	-0.037997	0.310848
H208	H	1.729426	0.212003	0.560848
H209	H	0.979421	-0.538063	0.112454
H210	H	1.229421	-0.288063	0.362454
H211	H	1.479421	-0.038063	0.612454
H212	H	1.729421	0.211937	0.862454
F213	F	0.982061	-0.387543	0.203854
F214	F	1.232061	-0.137543	0.453854
F215	F	1.482061	0.112457	0.703854
F216	F	1.732061	0.362457	0.953854
H217	H	1.084735	0.013936	0.411849
H218	H	1.334735	0.263936	0.661849
H219	H	1.584735	0.513936	0.911849
H220	H	1.834735	0.763936	1.161849
H221	H	0.985797	-0.175222	0.165436
H222	H	1.235797	0.074778	0.415436
H223	H	1.485797	0.324778	0.665436
H224	H	1.735797	0.574778	0.915436
H225	H	1.084736	0.013933	0.585968
H226	H	1.334736	0.263933	0.835968
H227	H	1.584736	0.513933	1.085968
H228	H	1.834736	0.763933	1.335968
F229	F	0.866425	0.290660	0.574966
F230	F	1.116425	0.540660	0.824966
F231	F	1.366425	0.790660	1.074966
F232	F	1.616425	1.040660	1.324966
