data_functionalizedCrystal
_audit_creation_method	'MofGen! by Chris Wilmer'
_symmetry_space_group_name_H-M	'P1'
_symmetry_Int_Tables_number	1
_symmetry_cell_setting	triclinic
loop_
_symmetry_equiv_pos_as_xyz
  x,y,z
_cell_length_a	15.944493
_cell_length_b	15.021413
_cell_length_c	27.731996
_cell_angle_alpha	89.998029
_cell_angle_beta	96.951784
_cell_angle_gamma	90.006749
loop_
_atom_site_label
_atom_site_type_symbol
_atom_site_fract_x
_atom_site_fract_y
_atom_site_fract_z
O1	O	1.113726	0.074032	-0.062202
O2	O	0.869066	0.074038	-0.069917
O3	O	0.999017	0.074016	0.004307
O4	O	0.983774	0.074054	-0.136426
O5	O	0.998996	-0.074049	0.004296
O6	O	0.869045	-0.074026	-0.069928
O7	O	1.113705	-0.074032	-0.062213
Zn8	Zn	0.991372	-0.097538	-0.066072
Zn9	Zn	0.991399	0.097543	-0.066058
O10	O	0.983754	-0.074010	-0.136437
C11	C	0.837765	0.000006	-0.069607
C12	C	0.744529	0.000008	-0.068662
C13	C	0.508183	0.000020	-0.112352
C14	C	0.457931	-0.072993	-0.088797
C15	C	0.573831	0.000005	-0.066910
C16	C	0.457956	0.072986	-0.088776
C17	C	0.408944	0.000007	-0.065222
C18	C	0.524807	-0.073068	-0.043367
C19	C	0.524835	0.072977	-0.043353
C20	C	0.474616	-0.000055	-0.019764
C21	C	0.668818	0.000004	-0.067884
C22	C	0.313960	0.000003	-0.064244
C23	C	0.998694	-0.000020	0.022310
C24	C	0.997750	-0.000029	0.075970
C25	C	1.145006	0.000002	-0.062523
C26	C	1.238242	0.000006	-0.063468
N27	N	0.991359	-0.230675	-0.066081
C28	C	0.931261	-0.470348	-0.100386
C29	C	1.007038	-0.529681	-0.109762
C30	C	0.991381	-0.412282	-0.066069
C31	C	0.915625	-0.529691	-0.056705
C32	C	0.991395	-0.587706	-0.066059
C33	C	1.067196	-0.470309	-0.075466
C34	C	0.975733	-0.470313	-0.022390
C35	C	1.051565	-0.529619	-0.031747
C36	C	0.991372	-0.311225	-0.066077
C37	C	0.991413	-0.688761	-0.066051
N38	N	0.991418	0.230681	-0.066045
C39	C	0.984077	0.000027	-0.154440
C40	C	0.985020	0.000042	-0.208100
C41	C	0.991828	0.080725	0.408717
C42	C	0.988247	0.080741	0.610391
O43	O	0.987757	0.149382	0.636468
N44	N	0.987790	0.000032	0.635604
C45	C	0.988224	-0.080687	0.610395
O46	O	0.987745	-0.149335	0.636468
C47	C	0.991800	-0.080702	0.408722
C48	C	0.992264	0.000012	0.383512
C49	C	0.992292	0.161433	0.383507
C50	C	0.993192	0.161428	0.333092
C51	C	0.993628	0.080715	0.307887
C52	C	0.993164	0.000008	0.333098
C53	C	0.992227	-0.161420	0.383514
C54	C	0.993119	-0.161416	0.333093
C55	C	0.993584	-0.080702	0.307883
C56	C	0.994500	-0.080710	0.257478
N57	N	0.994956	-0.000001	0.232264
C58	C	0.994520	0.080712	0.257469
C59	C	0.986349	-0.080674	0.716277
C60	C	0.985456	-0.080670	0.766695
C61	C	0.985477	0.080758	0.766686
C62	C	0.986376	0.080753	0.716268
C63	C	0.986805	0.000035	0.691063
C64	C	0.996411	0.080696	0.151594
C65	C	0.997314	0.080684	0.101175
C66	C	0.997289	-0.080744	0.101187
C67	C	0.996390	-0.080732	0.151603
C68	C	0.995948	-0.000005	0.176805
O69	O	0.994981	-0.149315	0.231368
O70	O	0.994980	0.149349	0.231387
C71	C	0.990928	0.080730	0.459132
C72	C	0.990464	0.000022	0.484342
C73	C	0.990901	-0.080691	0.459138
C74	C	0.989572	0.000025	0.534761
C75	C	0.989136	0.080738	0.559965
C76	C	0.989592	0.161447	0.534752
C77	C	0.990492	0.161442	0.484337
C78	C	0.990445	-0.161400	0.484351
C79	C	0.989546	-0.161388	0.534766
C80	C	0.989109	-0.080676	0.559971
H81	H	0.459675	-0.000108	0.019408
N82	N	1.024579	-0.564231	-0.158683
H83	H	1.024999	-0.631462	-0.158218
H84	H	1.081351	-0.541639	-0.165994
N85	N	0.993590	-0.248484	0.305914
H86	H	1.046053	-0.252090	0.288923
H87	H	0.941838	-0.252035	0.281093
N88	N	0.863982	-0.435857	-0.138852
H89	H	0.806857	-0.458387	-0.132120
H90	H	0.875993	-0.457458	-0.171815
H91	H	1.102468	-0.555480	-0.002720
H92	H	1.131281	-0.444334	-0.083426
H93	H	0.962461	-0.444215	0.014531
H94	H	0.851553	-0.555777	-0.048789
N95	N	0.995958	0.167763	0.178774
H96	H	0.996398	0.218883	0.155148
H97	H	1.047686	0.171264	0.203614
N98	N	0.993699	0.248490	0.305911
H99	H	1.046167	0.252088	0.288924
H100	H	0.993258	0.299555	0.329567
H101	H	0.554047	0.134696	-0.024172
N102	N	0.997819	0.167743	0.073985
H103	H	0.997404	0.218873	0.097605
H104	H	0.946102	0.171262	0.049138
N105	N	0.991879	0.248494	0.410692
H106	H	0.992327	0.299613	0.387065
H107	H	1.043623	0.251969	0.435522
N108	N	0.986877	0.167808	0.689079
H109	H	0.986467	0.218935	0.712701
H110	H	0.935155	0.171330	0.664236
N111	N	0.528207	-0.000049	-0.164196
H112	H	0.502816	0.054528	-0.181534
H113	H	0.503733	-0.055279	-0.181271
N114	N	0.419198	0.154682	-0.114214
H115	H	0.431071	0.154604	-0.149172
H116	H	0.444423	0.209832	-0.097401
N117	N	0.995911	-0.167785	0.178799
H118	H	0.943449	-0.171386	0.195792
H119	H	1.047665	-0.171317	0.203618
N120	N	0.419251	-0.154748	-0.114217
H121	H	0.431151	-0.154687	-0.149170
H122	H	0.356183	-0.154397	-0.113068
H123	H	0.553883	-0.134857	-0.024193
N124	N	0.985008	0.167814	0.793876
H125	H	0.984372	0.155561	0.829640
H126	H	0.933074	0.203057	0.781139
N127	N	0.984973	-0.167726	0.793884
H128	H	0.985384	-0.218853	0.770262
H129	H	0.932511	-0.171243	0.810878
H130	H	0.986702	-0.146408	0.695760
H131	H	0.991850	-0.227146	0.404032
H132	H	0.997648	-0.146458	0.080657
H133	H	0.990870	0.227168	0.463816
N134	N	0.989127	0.248503	0.561943
H135	H	0.988487	0.236249	0.597707
H136	H	0.937196	0.283751	0.549205
H137	H	0.989174	-0.227121	0.555288
H138	H	0.990801	-0.227127	0.463834
