data_functionalizedCrystal
_audit_creation_method	'MofGen! by Chris Wilmer'
_symmetry_space_group_name_H-M	'P1'
_symmetry_Int_Tables_number	1
_symmetry_cell_setting	triclinic
loop_
_symmetry_equiv_pos_as_xyz
  x,y,z
_cell_length_a	23.532407
_cell_length_b	19.188930
_cell_length_c	18.266242
_cell_angle_alpha	90.011475
_cell_angle_beta	90.003702
_cell_angle_gamma	82.996730
loop_
_atom_site_label
_atom_site_type_symbol
_atom_site_fract_x
_atom_site_fract_y
_atom_site_fract_z
O1	O	-0.755443	-0.084758	-0.060798
O2	O	-0.589606	-0.097021	-0.060820
O3	O	-0.677310	0.010782	-0.060794
O4	O	-0.667739	-0.192560	-0.060824
O5	O	-0.677295	0.010787	0.060968
O6	O	-0.589591	-0.097016	0.060942
O7	O	-0.755428	-0.084752	0.060964
Zn8	Zn	-0.672507	-0.090883	0.080285
Zn9	Zn	-0.672527	-0.090890	-0.080141
O10	O	-0.667724	-0.192555	0.060938
C11	C	-0.676993	0.036794	0.000089
C12	C	-0.676062	0.114296	0.000095
C13	C	-0.568382	-0.096706	0.000058
C14	C	-0.505163	-0.095767	0.000050
C15	C	-0.776652	-0.085067	0.000084
C16	C	-0.839871	-0.086006	0.000088
C17	C	-0.106183	-0.153674	0.000075
C18	C	-0.046780	-0.152801	0.000079
O19	O	-0.010150	-0.206481	0.000098
N20	N	-0.024018	-0.088713	0.000087
C21	C	-0.060662	-0.025492	0.000098
O22	O	-0.035846	0.029100	0.000107
C23	C	-0.120062	-0.026365	0.000099
C24	C	-0.142821	-0.090458	0.000083
C25	C	-0.128942	-0.217761	0.000060
C26	C	-0.188340	-0.218633	0.000054
C27	C	-0.224979	-0.155417	0.000063
C28	C	-0.202219	-0.091330	0.000078
C29	C	-0.156705	0.036855	0.000115
C30	C	-0.216109	0.035976	0.000117
C31	C	-0.238868	-0.028116	0.000101
C32	C	-0.298256	-0.028986	0.000080
N33	N	-0.321018	-0.093075	0.000072
C34	C	-0.284379	-0.156290	0.000063
C35	C	0.064085	-0.023664	0.000098
C36	C	0.123485	-0.022790	0.000093
C37	C	0.137362	-0.150099	0.000075
C38	C	0.077961	-0.150972	0.000075
C39	C	0.041323	-0.087752	0.000090
C40	C	-0.409120	-0.158117	0.000050
C41	C	-0.468524	-0.158983	0.000041
C42	C	-0.482396	-0.031674	0.000063
C43	C	-0.422997	-0.030807	0.000068
C44	C	-0.386360	-0.094034	0.000064
O45	O	-0.334921	0.024666	0.000065
O46	O	-0.309203	-0.210874	0.000065
C47	C	-0.668041	-0.218568	0.000053
C48	C	-0.668972	-0.296069	0.000042
N49	N	-0.672498	-0.090878	0.189772
C50	C	-0.727524	0.159384	0.000106
C51	C	-0.726650	0.232205	0.000094
C52	C	-0.674311	0.259935	0.000086
C53	C	-0.622842	0.214837	0.000072
C54	C	-0.623718	0.142017	0.000076
N55	N	-0.634299	0.367814	0.041519
N56	N	-0.633471	0.436990	0.041516
C57	C	-0.671670	0.479335	0.000071
N58	N	-0.710737	0.449892	-0.041362
N59	N	-0.711567	0.380710	-0.041356
C60	C	-0.673356	0.338894	0.000081
C61	C	-0.722188	0.603384	0.000068
C62	C	-0.721311	0.676206	0.000051
C63	C	-0.617502	0.658836	0.000036
C64	C	-0.618380	0.586016	0.000045
C65	C	-0.670724	0.558295	0.000064
N66	N	-0.672541	-0.090890	-0.189628
C67	C	-0.711346	-0.043166	0.228093
C68	C	-0.711350	-0.043163	0.304738
C69	C	-0.672511	-0.090883	0.343059
C70	C	-0.633655	-0.138599	0.304729
C71	C	-0.633649	-0.138596	0.228086
N72	N	-0.665108	-0.152714	0.463382
N73	N	-0.665117	-0.152715	0.536190
C74	C	-0.672527	-0.090893	0.573982
N75	N	-0.679937	-0.029069	0.536215
N76	N	-0.679931	-0.029069	0.463400
C77	C	-0.672513	-0.090891	0.426166
C78	C	-0.711381	-0.043174	0.695409
C79	C	-0.711381	-0.043170	0.772056
C80	C	-0.633689	-0.138612	0.772046
C81	C	-0.633686	-0.138610	0.695401
C82	C	-0.672536	-0.090892	0.657087
H83	H	-0.487050	-0.211177	0.000028
O84	O	-0.753243	0.008309	0.186775
H85	H	-0.780847	-0.020907	0.151845
O86	O	-0.591741	-0.190056	0.186753
H87	H	-0.598259	-0.182032	0.127021
H88	H	-0.602031	-0.177452	0.335935
O89	O	-0.753291	0.008289	0.813386
H90	H	-0.746185	0.062678	0.798685
H91	H	-0.138185	0.089046	0.000129
H92	H	-0.580227	0.237419	0.000064
O93	O	-0.561049	0.688734	0.000034
H94	H	-0.558172	0.721489	-0.049594
H95	H	-0.768558	0.268923	0.000100
H96	H	0.034257	0.027821	0.000104
H97	H	-0.245938	0.087459	0.000129
O98	O	-0.568211	0.093379	0.000077
H99	H	-0.531667	0.124891	0.000075
O100	O	-0.521923	0.036503	0.000079
H101	H	-0.513863	0.067199	-0.049543
H102	H	-0.404466	0.021383	0.000070
H103	H	-0.743013	-0.004317	0.664213
H104	H	-0.602055	-0.177464	0.664198
O105	O	-0.783979	0.129482	0.000106
H106	H	-0.819617	0.173074	0.000101
O107	O	-0.562871	0.537383	0.000042
H108	H	-0.572273	0.482089	0.000041
O109	O	0.176886	-0.218285	0.000071
H110	H	0.168812	-0.248972	0.049694
H111	H	-0.764810	0.580813	0.000080
H112	H	-0.763220	0.712917	0.000056
H113	H	-0.742986	-0.004308	0.335944
H114	H	-0.602063	-0.177464	0.803247
O115	O	-0.369607	-0.226308	0.000045
H116	H	-0.377681	-0.256994	-0.049594
O117	O	-0.212878	-0.287765	0.000058
H118	H	-0.198144	-0.318132	-0.049566
O119	O	-0.089428	-0.285949	0.000047
H120	H	-0.115244	-0.330653	0.000032
O121	O	0.148030	0.046338	0.000108
H122	H	0.112568	0.090145	0.000120
H123	H	0.059435	-0.203162	0.000067
