data_functionalizedCrystal
_audit_creation_method	'MofGen! by Chris Wilmer'
_symmetry_space_group_name_H-M	'P1'
_symmetry_Int_Tables_number	1
_symmetry_cell_setting	triclinic
loop_
_symmetry_equiv_pos_as_xyz
  x,y,z
_cell_length_a	14.519709
_cell_length_b	23.532407
_cell_length_c	13.596369
_cell_angle_alpha	89.989360
_cell_angle_beta	90.000291
_cell_angle_gamma	83.264412
loop_
_atom_site_label
_atom_site_type_symbol
_atom_site_fract_x
_atom_site_fract_y
_atom_site_fract_z
O1	O	1.222985	0.074654	-0.081674
O2	O	0.954404	0.083445	-0.081705
O3	O	1.096794	-0.003846	-0.081671
O4	O	1.080596	0.161945	-0.081708
O5	O	1.096780	-0.003850	0.081912
O6	O	0.954390	0.083441	0.081878
O7	O	1.222971	0.074649	0.081909
Zn8	Zn	1.088678	0.079044	0.107866
Zn9	Zn	1.088697	0.079050	-0.107662
O10	O	1.080582	0.161940	0.081874
C11	C	0.920042	0.083033	0.000083
C12	C	0.817676	0.081805	0.000071
C13	C	0.442833	0.077286	0.000117
C14	C	0.547126	0.078541	0.000104
C15	C	0.630251	0.079545	0.000093
C16	C	0.734551	0.080801	0.000082
C17	C	1.096374	-0.025066	0.000123
C18	C	1.095134	-0.088288	0.000131
C19	C	1.171619	-0.487046	0.000086
C20	C	1.170467	-0.546452	0.000078
O21	O	1.241369	-0.582876	0.000050
N22	N	1.085816	-0.569460	0.000069
C23	C	1.002312	-0.533059	0.000057
O24	O	0.930205	-0.558084	0.000048
C25	C	1.003465	-0.473655	0.000058
C26	C	1.088121	-0.450650	0.000077
C27	C	1.256268	-0.464041	0.000104
C28	C	1.257420	-0.404640	0.000113
C29	C	1.173922	-0.368244	0.000105
C30	C	1.089273	-0.391249	0.000087
C31	C	0.919962	-0.437255	0.000039
C32	C	0.921123	-0.377847	0.000039
C33	C	1.005779	-0.354843	0.000058
C34	C	1.006927	-0.295451	0.000087
N35	N	1.091578	-0.272443	0.000097
C36	C	1.175075	-0.308839	0.000105
C37	C	0.999897	-0.657813	0.000055
C38	C	0.998743	-0.717216	0.000061
C39	C	1.166898	-0.730604	0.000080
C40	C	1.168051	-0.671200	0.000080
C41	C	1.084548	-0.634804	0.000064
C42	C	1.177487	-0.184092	0.000126
C43	C	1.178632	-0.124685	0.000139
C44	C	1.010477	-0.111301	0.000115
C45	C	1.009332	-0.170703	0.000107
C46	C	1.092845	-0.207098	0.000109
O47	O	0.936062	-0.258992	0.000111
O48	O	1.247171	-0.283806	0.000102
C49	C	1.257333	0.075061	0.000119
C50	C	1.359700	0.076289	0.000124
C51	C	1.081001	0.183160	0.000078
C52	C	1.082241	0.246383	0.000064
N53	N	1.088673	0.079040	0.254958
N54	N	1.088710	0.079050	-0.254754
C55	C	1.088696	0.079051	0.656248
C56	C	1.088686	0.079050	0.544597
C57	C	1.088685	0.079046	0.455607
C58	C	1.088674	0.079044	0.343948
H59	H	1.247572	-0.105958	0.000158
H60	H	0.853122	-0.348216	0.000024
H61	H	1.236985	-0.652474	0.000095
H62	H	1.234886	-0.760249	0.000083
C63	C	1.268256	-0.223505	0.000183
C64	C	1.342625	-0.190633	0.000228
C65	C	1.426254	-0.226920	0.000300
H66	H	1.271449	-0.246963	-0.056848
H67	H	1.271350	-0.246956	0.057250
H68	H	1.339533	-0.167192	-0.056833
H69	H	1.339463	-0.167176	0.057254
H70	H	1.429348	-0.250371	0.057367
H71	H	1.429437	-0.250376	-0.056732
H72	H	1.476723	-0.204622	0.000339
C73	C	1.346833	-0.503646	0.000065
C74	C	1.327729	-0.560598	0.000038
C75	C	1.411141	-0.597094	-0.000004
H76	H	1.381624	-0.496736	0.057100
H77	H	1.381579	-0.496685	-0.056997
H78	H	1.292999	-0.567556	0.057094
H79	H	1.292952	-0.567527	-0.056993
H80	H	1.445887	-0.590133	-0.057066
H81	H	1.445926	-0.590179	0.057032
H82	H	1.398191	-0.635740	-0.000031
C83	C	0.906735	-0.742078	0.000002
C84	C	0.833865	-0.697482	-0.000028
C85	C	0.749092	-0.720360	-0.000102
H86	H	0.902648	-0.764973	0.057027
H87	H	0.902741	-0.764947	-0.057071
H88	H	0.837857	-0.674622	0.057039
H89	H	0.837921	-0.674583	-0.057049
H90	H	0.745097	-0.743230	-0.057175
H91	H	0.745014	-0.743255	0.056924
H92	H	0.699639	-0.690106	-0.000131
C93	C	0.909299	-0.618232	0.000205
C94	C	0.905047	-0.583736	0.084353
C95	C	0.821609	-0.547266	0.084516
H96	H	0.858648	-0.640375	0.000251
H97	H	0.906243	-0.594739	-0.056810
H98	H	0.908094	-0.607226	0.141353
H99	H	0.955679	-0.561581	0.084325
H100	H	0.818554	-0.523773	0.027501
H101	H	0.770965	-0.569414	0.084559
H102	H	0.818717	-0.523853	0.141604
H103	H	1.326355	-0.385915	0.000125
C104	C	0.827952	-0.462111	-0.000037
C105	C	0.755088	-0.417511	-0.000077
C106	C	0.670311	-0.440384	-0.000162
H107	H	0.823855	-0.485004	0.056988
H108	H	0.823962	-0.484981	-0.057109
H109	H	0.759077	-0.394651	0.056990
H110	H	0.759155	-0.394614	-0.057097
H111	H	0.666320	-0.463254	-0.057234
H112	H	0.666223	-0.463278	0.056864
H113	H	0.620862	-0.410128	-0.000198
C114	C	0.917327	-0.195573	0.000038
C115	C	0.844451	-0.150981	0.000011
C116	C	0.759682	-0.173864	-0.000079
H117	H	0.913239	-0.218473	0.057058
H118	H	0.913341	-0.218439	-0.057040
H119	H	0.848435	-0.128124	0.057083
H120	H	0.848509	-0.128078	-0.057004
H121	H	0.755696	-0.196730	-0.057157
H122	H	0.755603	-0.196764	0.056942
H123	H	0.710226	-0.143612	-0.000106
C124	C	0.919856	-0.071750	-0.000101
C125	C	0.915621	-0.037257	-0.084274
C126	C	0.832150	-0.000818	-0.084522
H127	H	0.916716	-0.048250	0.056876
H128	H	0.869242	-0.093934	-0.000167
H129	H	0.966222	-0.015074	-0.084199
H130	H	0.918746	-0.060741	-0.141265
H131	H	0.781536	-0.023002	-0.084588
H132	H	0.829017	0.022678	-0.027540
H133	H	0.829262	0.022586	-0.141636
