data_functionalizedCrystal
_audit_creation_method	'MofGen! by Chris Wilmer'
_symmetry_space_group_name_H-M	'P1'
_symmetry_Int_Tables_number	1
_symmetry_cell_setting	triclinic
loop_
_symmetry_equiv_pos_as_xyz
  x,y,z
_cell_length_a	16.625547
_cell_length_b	16.625546
_cell_length_c	15.296720
_cell_angle_alpha	99.642470
_cell_angle_beta	99.657115
_cell_angle_gamma	90.022405
loop_
_atom_site_label
_atom_site_type_symbol
_atom_site_fract_x
_atom_site_fract_y
_atom_site_fract_z
Zn1	Zn	1.153714	-0.399894	-0.510148
Zn2	Zn	1.653714	0.100106	-0.010148
Zn3	Zn	1.176968	-0.511408	-0.359295
Zn4	Zn	1.676968	-0.011408	0.140705
Zn5	Zn	1.042225	-0.376595	-0.359304
Zn6	Zn	1.542225	0.123405	0.140696
Zn7	Zn	1.018856	-0.534678	-0.510083
Zn8	Zn	1.518856	-0.034678	-0.010083
O9	O	1.097941	-0.455644	-0.434708
O10	O	1.597941	0.044356	0.065292
O11	O	1.269627	-0.414699	-0.490160
O12	O	1.769627	0.085301	0.009840
O13	O	1.178606	-0.474036	-0.233063
O14	O	1.678606	0.025964	0.266937
O15	O	1.057062	-0.266858	-0.379345
O16	O	1.557062	0.233142	0.120655
O17	O	1.286712	-0.496628	-0.379329
O18	O	1.786712	0.003372	0.120671
O19	O	1.138973	-0.283976	-0.490169
O20	O	1.638973	0.216024	0.009831
O21	O	1.079611	-0.374989	-0.233069
O22	O	1.579611	0.125011	0.266931
O23	O	0.926296	-0.397553	-0.379282
O24	O	1.426296	0.102447	0.120718
O25	O	1.017234	-0.536288	-0.636326
O26	O	1.517234	-0.036288	-0.136326
O27	O	0.909127	-0.513696	-0.490059
O28	O	1.409127	-0.013696	0.009941
O29	O	1.116313	-0.437263	-0.636373
O30	O	1.616313	0.062737	-0.136373
O31	O	1.155946	-0.627323	-0.379267
O32	O	1.655946	-0.127323	0.120733
O33	O	1.039782	-0.644419	-0.490050
O34	O	1.539782	-0.144419	0.009950
C35	C	0.888457	-0.455622	-0.434665
C36	C	1.388457	0.044378	0.065335
C37	C	0.798835	-0.455635	-0.434668
C38	C	1.298835	0.044365	0.065332
C39	C	0.726051	-0.455638	-0.434679
C40	C	1.226051	0.044362	0.065321
C41	C	0.634739	-0.455646	-0.434702
C42	C	1.134739	0.044354	0.065298
C43	C	0.561959	-0.455657	-0.434725
C44	C	1.061959	0.044343	0.065275
C45	C	0.470641	-0.455666	-0.434747
C46	C	0.970641	0.044334	0.065253
C47	C	1.097870	-0.665129	-0.434670
C48	C	1.597870	-0.165129	0.065330
C49	C	1.097909	-0.754752	-0.434684
C50	C	1.597909	-0.254752	0.065316
C51	C	1.098035	-1.082942	-0.434778
C52	C	1.598035	-0.582942	0.065222
C53	C	1.097997	-0.991630	-0.434754
C54	C	1.597997	-0.491630	0.065246
C55	C	1.097972	-0.918850	-0.434730
C56	C	1.597972	-0.418850	0.065270
C57	C	1.097935	-0.827532	-0.434708
C58	C	1.597935	-0.327532	0.065292
C59	C	1.308243	-0.455667	-0.434751
C60	C	1.808243	0.044333	0.065249
C61	C	1.397861	-0.455677	-0.434769
C62	C	1.897861	0.044323	0.065231
C63	C	1.061573	-0.491970	-0.669996
C64	C	1.561573	0.008030	-0.169996
C65	C	1.046075	-0.507450	-0.770261
C66	C	1.546075	-0.007450	-0.270261
C67	C	1.098030	-0.245344	-0.434765
C68	C	1.598030	0.254656	0.065235
C69	C	1.098069	-0.155727	-0.434790
C70	C	1.598069	0.344273	0.065210
C71	C	1.208737	-0.344864	-1.052993
C72	C	1.708737	0.155136	-0.552993
C73	C	1.223303	-0.330321	-0.958788
C74	C	1.723303	0.169679	-0.458788
C75	C	1.178997	-0.374602	-0.911652
C76	C	1.678997	0.125398	-0.411652
C77	C	1.120123	-0.433429	-0.958729
C78	C	1.620123	0.066571	-0.458729
C79	C	1.105560	-0.447977	-1.052943
C80	C	1.605560	0.052023	-0.552943
C81	C	1.075820	-0.477715	-0.911602
C82	C	1.575820	0.022285	-0.411602
C83	C	1.016946	-0.536542	-0.958680
C84	C	1.516946	-0.036542	-0.458680
C85	C	1.002385	-0.551088	-1.052884
C86	C	1.502385	-0.051088	-0.552884
C87	C	1.046691	-0.506807	-1.100020
C88	C	1.546691	-0.006807	-0.600020
C89	C	1.090383	-0.463166	-0.817388
C90	C	1.590383	0.036834	-0.317388
C91	C	0.987206	-0.566280	-0.817339
C92	C	1.487206	-0.066280	-0.317339
C93	C	0.972640	-0.580823	-0.911543
C94	C	1.472640	-0.080823	-0.411543
C95	C	1.134214	-0.419401	-0.200335
C96	C	1.634214	0.080599	0.299665
C97	C	1.149868	-0.403693	-0.100070
C98	C	1.649868	0.096307	0.399930
H99	H	1.138318	-0.415268	-0.779067
H100	H	1.638318	0.084732	-0.279067
H101	H	1.034834	-0.518645	-1.176730
H102	H	1.534834	-0.018645	-0.676730
F103	F	1.194500	-0.359121	-0.811390
F104	F	1.694500	0.140879	-0.311390
F105	F	0.909984	-0.643430	-0.961658
F106	F	1.409984	-0.143430	-0.461658
F107	F	0.939737	-0.613709	-1.102985
F108	F	1.439737	-0.113709	-0.602985
H109	H	1.244809	-0.308821	-1.091380
H110	H	1.744809	0.191179	-0.591380
F111	F	1.285959	-0.267716	-0.908692
F112	F	1.785959	0.232284	-0.408692
F113	F	0.940053	-0.613414	-0.767178
F114	F	1.440053	-0.113414	-0.267178
