data_functionalizedCrystal
_audit_creation_method	'MofGen! by Chris Wilmer'
_symmetry_space_group_name_H-M	'P1'
_symmetry_Int_Tables_number	1
_symmetry_cell_setting	triclinic
loop_
_symmetry_equiv_pos_as_xyz
  x,y,z
_cell_length_a	6.817900
_cell_length_b	17.982959
_cell_length_c	11.102193
_cell_angle_alpha	94.235331
_cell_angle_beta	108.604059
_cell_angle_gamma	102.451857
loop_
_atom_site_label
_atom_site_type_symbol
_atom_site_fract_x
_atom_site_fract_y
_atom_site_fract_z
V1	V	-4.080382	-0.105418	-0.396788
O2	O	-4.072042	0.005060	-0.388689
O3	O	-4.026563	-0.209021	-0.394600
O4	O	-4.057634	-0.103799	-0.569602
O5	O	-4.040755	-0.100890	-0.212475
V6	V	-4.561388	-0.092203	-0.374679
O7	O	-4.347161	-0.134406	-0.445286
O8	O	-4.744806	-0.063216	-0.326181
O9	O	-4.392001	0.011399	-0.376868
O10	O	-4.687125	-0.202681	-0.382778
O11	O	-4.718412	-0.096731	-0.558992
O12	O	-4.360929	-0.093822	-0.201866
C13	C	-3.869415	-0.234277	-0.388476
C14	C	-3.906869	-0.318973	-0.387838
C15	C	-4.107326	-0.362645	-0.393898
C16	C	-4.142510	-0.442227	-0.393306
C17	C	-3.977230	-0.478135	-0.386646
C18	C	-3.776759	-0.434458	-0.380590
C19	C	-3.741582	-0.354879	-0.381191
C20	C	-3.918620	-0.755394	-0.378169
C21	C	-3.953811	-0.834979	-0.377565
C22	C	-4.319548	-0.842742	-0.390285
C23	C	-4.284371	-0.763162	-0.390885
C24	C	-4.083907	-0.719493	-0.384836
C25	C	-4.045760	-0.633202	-0.385480
C26	C	-4.015370	-0.564424	-0.385993
C27	C	-3.909049	-0.100055	-0.611706
C28	C	-3.971698	-0.099417	-0.752986
C29	C	-4.050815	-0.238963	-0.790015
C30	C	-4.119798	-0.308434	-0.874901
C31	C	-4.178663	-0.307830	-1.007644
C32	C	-4.168547	-0.237748	-1.055502
C33	C	-4.099564	-0.168277	-0.970617
C34	C	-4.040696	-0.168889	-0.837873
C35	C	-4.020462	-0.028733	-0.933588
C36	C	-3.961582	-0.029335	-0.800844
C37	C	-4.010347	0.041349	-0.981446
C38	C	-3.941348	0.110821	-0.896560
C39	C	-3.882479	0.110214	-0.763809
C40	C	-3.892599	0.040135	-0.715958
C41	C	-4.212490	0.036652	-0.382988
C42	C	-4.154275	0.121347	-0.383634
C43	C	-4.172856	-0.097569	-0.159754
C44	C	-4.089445	-0.098203	-0.018474
H45	H	-4.241915	-0.333413	-0.399309
H46	H	-4.482780	-0.878307	-0.395212
H47	H	-4.418959	-0.733929	-0.396302
H48	H	-3.642191	-0.463702	-0.375175
H49	H	-3.819212	-0.864214	-0.372150
C50	C	-3.807540	0.185725	-0.671856
C51	C	-3.811241	0.247223	-0.742185
C52	C	-3.742197	0.316797	-0.657526
H53	H	-3.899836	0.186062	-0.623417
H54	H	-3.665867	0.190873	-0.615168
H55	H	-3.952892	0.242077	-0.798850
H56	H	-3.718941	0.246911	-0.790620
H57	H	-3.600524	0.321944	-0.600838
H58	H	-3.834501	0.317126	-0.609092
H59	H	-3.744680	0.358531	-0.705231
C60	C	-3.700796	-0.708005	-0.371318
C61	C	-3.545297	-0.714739	-0.257415
C62	C	-3.344604	-0.671086	-0.251048
H63	H	-3.667557	-0.726372	-0.442999
H64	H	-3.703369	-0.655451	-0.372560
H65	H	-3.542718	-0.767283	-0.256185
H66	H	-3.578465	-0.696368	-0.185714
H67	H	-3.347177	-0.618531	-0.252290
H68	H	-3.311387	-0.689456	-0.322734
H69	H	-3.239077	-0.675643	-0.173760
H70	H	-3.578354	-0.319323	-0.376262
C71	C	-3.987111	-0.239783	-0.645941
C72	C	-4.010788	-0.316024	-0.622198
C73	C	-3.952165	-0.316811	-0.489494
H74	H	-3.842179	-0.211766	-0.604769
H75	H	-4.076253	-0.216628	-0.613202
H76	H	-3.921646	-0.339169	-0.654922
H77	H	-4.155704	-0.344055	-0.663339
H78	H	-4.041307	-0.293656	-0.456755
H79	H	-3.807235	-0.288791	-0.448334
H80	H	-3.968241	-0.368539	-0.473368
C81	C	-4.130081	-0.384517	-0.822954
C82	C	-3.995452	-0.422753	-0.860316
C83	C	-4.004679	-0.492823	-0.812437
H84	H	-4.084931	-0.374954	-0.731745
H85	H	-4.272827	-0.415683	-0.856364
H86	H	-3.852736	-0.391593	-0.826900
H87	H	-4.040571	-0.432335	-0.951518
H88	H	-4.147425	-0.523989	-0.845847
H89	H	-3.959532	-0.483253	-0.721230
H90	H	-3.913352	-0.518778	-0.837790
C91	C	-4.074281	0.042166	-1.125528
C92	C	-4.050714	0.118405	-1.149270
C93	C	-4.109615	0.119190	-1.281984
H94	H	-3.985277	0.019025	-1.158395
H95	H	-4.219256	0.014131	-1.166582
H96	H	-3.905762	0.146429	-1.108233
H97	H	-4.139716	0.141560	-1.116435
H98	H	-4.254590	0.091155	-1.323038
H99	H	-4.020605	0.096046	-1.314838
H100	H	-4.093652	0.170916	-1.298111
C101	C	-4.253842	-0.383317	-1.099679
C102	C	-4.435978	-0.429163	-1.084669
C103	C	-4.505277	-0.498710	-1.169418
H104	H	-4.287620	-0.373026	-1.185639
H105	H	-4.143520	-0.409694	-1.081370
H106	H	-4.546276	-0.402791	-1.102987
H107	H	-4.402252	-0.439475	-0.998727
H108	H	-4.394955	-0.525087	-1.151109
H109	H	-4.539045	-0.488411	-1.255372
H110	H	-4.628851	-0.529828	-1.159237
H111	H	-4.305740	-0.477781	-0.398242
H112	H	-3.844657	0.039635	-0.607874
H113	H	-4.216508	-0.237263	-1.163591
H114	H	-3.933133	0.167876	-0.935538
