data_functionalizedCrystal
_audit_creation_method	'MofGen! by Chris Wilmer'
_symmetry_space_group_name_H-M	'P1'
_symmetry_Int_Tables_number	1
_symmetry_cell_setting	triclinic
loop_
_symmetry_equiv_pos_as_xyz
  x,y,z
_cell_length_a	19.188905
_cell_length_b	27.732048
_cell_length_c	18.266242
_cell_angle_alpha	89.988683
_cell_angle_beta	89.983837
_cell_angle_gamma	82.888605
loop_
_atom_site_label
_atom_site_type_symbol
_atom_site_fract_x
_atom_site_fract_y
_atom_site_fract_z
O1	O	0.925776	0.060290	-0.061009
O2	O	0.722410	0.068427	-0.060985
O3	O	0.830409	-0.006019	-0.060984
O4	O	0.817777	0.134736	-0.061011
O5	O	0.830391	-0.006023	0.060778
O6	O	0.722392	0.068423	0.060777
O7	O	0.925758	0.060287	0.060753
Zn8	Zn	0.824072	0.064354	0.080097
Zn9	Zn	0.824096	0.064359	-0.080330
O10	O	0.817759	0.134733	0.060751
C11	C	0.696391	0.068163	-0.000101
C12	C	0.618891	0.067379	-0.000091
C13	C	0.582512	0.067004	-0.066466
C14	C	0.509693	0.066261	-0.066475
C15	C	0.473258	0.065883	-0.000106
C16	C	0.509646	0.066261	0.066278
C17	C	0.582462	0.067009	0.066285
N18	N	0.364413	0.037200	0.049292
N19	N	0.295241	0.036489	0.049281
C20	C	0.253866	0.063631	-0.000123
N21	N	0.284277	0.091506	-0.049526
N22	N	0.353457	0.092215	-0.049517
C23	C	0.394301	0.065073	-0.000106
C24	C	0.138528	0.062451	-0.066511
C25	C	0.065707	0.061712	-0.066518
C26	C	0.065662	0.061707	0.066237
C27	C	0.138481	0.062452	0.066241
C28	C	0.174909	0.062822	-0.000135
C29	C	0.830135	-0.024029	-0.000101
C30	C	0.829336	-0.077686	-0.000095
C31	C	0.888130	-0.416325	-0.000140
C32	C	0.885167	-0.617994	-0.000149
O33	O	0.938930	-0.649088	-0.000188
N34	N	0.821129	-0.637309	-0.000141
C35	C	0.757826	-0.606204	-0.000135
O36	O	0.703289	-0.627261	-0.000136
C37	C	0.760789	-0.404537	-0.000131
C38	C	0.824832	-0.385224	-0.000131
C39	C	0.952168	-0.397012	-0.000141
C40	C	0.952908	-0.346598	-0.000135
C41	C	0.889610	-0.315497	-0.000127
C42	C	0.825572	-0.334810	-0.000125
C43	C	0.697487	-0.373432	-0.000130
C44	C	0.698234	-0.323013	-0.000131
C45	C	0.762277	-0.303700	-0.000132
C46	C	0.763014	-0.253295	-0.000110
N47	N	0.827053	-0.233979	-0.000119
C48	C	0.890351	-0.265080	-0.000127
C49	C	0.756275	-0.712083	-0.000136
C50	C	0.755534	-0.762499	-0.000136
C51	C	0.882876	-0.774286	-0.000152
C52	C	0.883616	-0.723868	-0.000147
C53	C	0.820313	-0.692767	-0.000145
C54	C	0.891900	-0.159206	-0.000113
C55	C	0.892634	-0.108787	-0.000103
C56	C	0.765293	-0.097006	-0.000091
C57	C	0.764558	-0.147420	-0.000097
C58	C	0.827867	-0.178520	-0.000110
O59	O	0.709280	-0.222172	-0.000080
O60	O	0.944880	-0.244014	-0.000142
C61	C	0.887390	-0.466739	-0.000146
C62	C	0.823352	-0.486052	-0.000144
C63	C	0.760054	-0.454951	-0.000136
C64	C	0.822611	-0.536469	-0.000144
C65	C	0.885909	-0.567570	-0.000152
C66	C	0.949948	-0.548255	-0.000161
C67	C	0.950688	-0.497840	-0.000154
C68	C	0.696015	-0.474267	-0.000128
C69	C	0.695281	-0.524681	-0.000134
C70	C	0.758579	-0.555783	-0.000142
C71	C	0.951776	0.060550	-0.000133
C72	C	1.029277	0.061335	-0.000148
C73	C	0.818033	0.152742	-0.000133
C74	C	0.818831	0.206399	-0.000144
N75	N	0.824061	0.064350	0.189584
N76	N	0.824113	0.064359	-0.189817
C77	C	0.871898	0.031402	0.227893
C78	C	0.871903	0.031400	0.304538
C79	C	0.824076	0.064354	0.342871
C80	C	0.776230	0.097305	0.304552
C81	C	0.776222	0.097303	0.227909
N82	N	0.814728	0.107145	0.463196
N83	N	0.814739	0.107145	0.536004
C84	C	0.824096	0.064361	0.573793
N85	N	0.833454	0.021576	0.536024
N86	N	0.833446	0.021576	0.463209
C87	C	0.824079	0.064360	0.425978
C88	C	0.871941	0.031407	0.695210
C89	C	0.871940	0.031405	0.771856
C90	C	0.776271	0.097315	0.771868
C91	C	0.776268	0.097313	0.695224
C92	C	0.824107	0.064360	0.656899
H93	H	0.612167	0.067305	-0.120514
Br94	Br	0.460309	0.065753	-0.156560
H95	H	0.644469	-0.448949	-0.000123
H96	H	0.646684	-0.297693	-0.000130
H97	H	0.703383	-0.778219	-0.000123
Br98	Br	0.977820	-0.201405	-0.000131
H99	H	0.910849	0.004568	0.196691
Br100	Br	0.936829	-0.013321	0.356539
H101	H	0.910892	0.004574	0.664004
H102	H	0.712409	-0.163145	-0.000076
Br103	Br	1.037608	-0.471639	-0.000160
Br104	Br	1.039828	-0.320396	-0.000157
Br105	Br	0.460200	0.065754	0.156351
H106	H	0.737288	0.124137	0.335766
Br107	Br	0.711295	0.142022	0.175913
H108	H	0.035997	0.061402	0.120276
Br109	Br	0.936861	-0.013319	0.823852
Br110	Br	0.187970	0.062957	-0.156590
H111	H	1.001487	-0.573586	-0.000164
Br112	Br	0.631838	0.067518	0.156371
Br113	Br	0.670355	-0.669881	-0.000135
Br114	Br	0.970534	-0.697664	-0.000146
Br115	Br	0.187857	0.062959	0.156325
H116	H	0.737317	0.124145	0.664030
H117	H	0.036087	0.061409	-0.120570
Br118	Br	0.979556	-0.082581	-0.000103
Br119	Br	0.679393	-0.054788	-0.000080
H120	H	0.737327	0.124145	0.803078
H121	H	1.003716	-0.422330	-0.000150
H122	H	0.643125	-0.540400	-0.000127
H123	H	0.934415	-0.799617	-0.000158
Br124	Br	0.610566	-0.399629	-0.000132
