data_functionalizedCrystal
_audit_creation_method	'MofGen! by Chris Wilmer'
_symmetry_space_group_name_H-M	'P1'
_symmetry_Int_Tables_number	1
_symmetry_cell_setting	triclinic
loop_
_symmetry_equiv_pos_as_xyz
  x,y,z
_cell_length_a	15.944551
_cell_length_b	11.792241
_cell_length_c	10.868271
_cell_angle_alpha	89.994719
_cell_angle_beta	90.000173
_cell_angle_gamma	83.846077
loop_
_atom_site_label
_atom_site_type_symbol
_atom_site_fract_x
_atom_site_fract_y
_atom_site_fract_z
O1	O	1.115184	0.146380	-0.102194
O2	O	0.870716	0.164428	-0.102225
O3	O	0.998883	-0.009815	-0.102200
O4	O	0.987018	0.320623	-0.102219
O5	O	0.998872	-0.009822	0.102444
O6	O	0.870706	0.164421	0.102420
O7	O	1.115174	0.146374	0.102450
Zn8	Zn	0.992938	0.155396	0.134927
Zn9	Zn	0.992952	0.155405	-0.134701
O10	O	0.987007	0.320617	0.102426
C11	C	0.998132	-0.052104	0.000122
C12	C	0.995901	-0.178099	0.000120
C13	C	0.839414	0.163675	0.000093
C14	C	0.746157	0.161429	0.000082
C15	C	0.991799	-0.408777	0.000099
C16	C	0.994079	-0.280411	0.000110
C17	C	0.530789	0.048056	0.000112
C18	C	0.470012	0.100706	-0.100791
C19	C	0.575413	0.157365	0.000097
C20	C	0.470024	0.100725	0.100972
C21	C	0.410483	0.153432	0.000116
C22	C	0.515864	0.210045	-0.100890
C23	C	0.515882	0.210049	0.100964
C24	C	0.455123	0.262778	0.000036
C25	C	0.670426	0.159628	0.000084
C26	C	0.315471	0.151178	0.000120
C27	C	1.146476	0.147126	0.000129
C28	C	1.239733	0.149372	0.000133
C29	C	0.987758	0.362905	0.000101
C30	C	0.989989	0.488900	0.000094
N31	N	0.992935	0.155389	0.318941
N32	N	0.992962	0.155403	-0.318716
C33	C	0.992948	0.155403	0.569947
C34	C	0.992938	0.155399	0.430269
H35	H	0.563713	-0.042662	-0.000007
C36	C	0.599748	0.198411	0.284912
C37	C	0.543350	0.272406	0.216117
H38	H	0.616710	0.236906	0.356004
H39	H	0.572917	0.133828	0.309136
H40	H	0.647872	0.174334	0.236251
H41	H	0.495222	0.296477	0.264775
H42	H	0.570180	0.337010	0.191895
C43	C	0.481137	-0.074119	-0.215754
C44	C	0.442578	0.038300	-0.215941
H45	H	0.464197	-0.112650	-0.286836
H46	H	0.540676	-0.073747	-0.216211
H47	H	0.464675	-0.112206	-0.144094
H48	H	0.459045	0.076391	-0.287597
H49	H	0.383025	0.037934	-0.215495
H50	H	0.536065	0.256247	-0.186289
H51	H	0.422374	0.353590	-0.000026
H52	H	0.449724	0.054469	0.186275
