data_functionalizedCrystal
_audit_creation_method	'MofGen! by Chris Wilmer'
_symmetry_space_group_name_H-M	'P1'
_symmetry_Int_Tables_number	1
_symmetry_cell_setting	triclinic
loop_
_symmetry_equiv_pos_as_xyz
  x,y,z
_cell_length_a	29.839135
_cell_length_b	29.839132
_cell_length_c	29.839125
_cell_angle_alpha	90.019925
_cell_angle_beta	89.984512
_cell_angle_gamma	89.952207
loop_
_atom_site_label
_atom_site_type_symbol
_atom_site_fract_x
_atom_site_fract_y
_atom_site_fract_z
Zn1	Zn	0.686708	0.178886	-0.254040
Zn2	Zn	1.186708	0.678886	0.245960
Zn3	Zn	0.686635	0.253998	-0.178907
Zn4	Zn	1.186635	0.753998	0.321093
Zn5	Zn	0.611590	0.178886	-0.178918
Zn6	Zn	1.111590	0.678886	0.321082
Zn7	Zn	0.611533	0.253993	-0.254004
Zn8	Zn	1.111533	0.753993	0.245996
O9	O	0.649116	0.216441	-0.216468
O10	O	1.149116	0.716441	0.283532
O11	O	0.749565	0.188852	-0.244084
O12	O	1.249565	0.688852	0.255916
O13	O	0.676673	0.244036	-0.116042
O14	O	1.176673	0.744036	0.383958
O15	O	0.621609	0.116019	-0.188903
O16	O	1.121609	0.616019	0.311097
O17	O	0.749512	0.244036	-0.188884
O18	O	1.249512	0.744036	0.311116
O19	O	0.676798	0.116019	-0.244095
O20	O	1.176798	0.616019	0.255905
O21	O	0.621539	0.188852	-0.116050
O22	O	1.121539	0.688852	0.383950
O23	O	0.548716	0.188847	-0.188868
O24	O	1.048716	0.688847	0.311132
O25	O	0.621512	0.244028	-0.316876
O26	O	1.121512	0.744028	0.183124
O27	O	0.548674	0.244028	-0.244033
O28	O	1.048674	0.744028	0.255967
O29	O	0.676742	0.188847	-0.316903
O30	O	1.176742	0.688847	0.183097
O31	O	0.676618	0.316865	-0.188849
O32	O	1.176618	0.816865	0.311151
O33	O	0.621441	0.316861	-0.244023
O34	O	1.121441	0.816861	0.255977
C35	C	0.532394	0.216437	-0.216448
C36	C	1.032394	0.716437	0.283552
C37	C	0.482459	0.216447	-0.216451
C38	C	0.982459	0.716447	0.283549
C39	C	0.649028	0.333163	-0.216441
C40	C	1.149028	0.833163	0.283559
C41	C	0.649031	0.383098	-0.216444
C42	C	1.149031	0.883098	0.283556
C43	C	0.172841	0.187750	-0.245252
C44	C	0.672841	0.687750	0.254748
C45	C	-0.014832	0.187753	-0.245265
C46	C	0.485168	0.687753	0.254735
O47	O	-0.039076	0.163344	-0.269732
O48	O	0.460924	0.663344	0.230268
N49	N	-0.038326	0.216441	-0.216484
N50	N	0.461674	0.716441	0.283516
C51	C	-0.014898	0.245129	-0.187696
C52	C	0.485102	0.745129	0.312304
O53	O	-0.039187	0.269527	-0.163212
O54	O	0.460813	0.769527	0.336788
C55	C	0.172774	0.245123	-0.187681
C56	C	0.672774	0.745123	0.312319
C57	C	0.196265	0.216436	-0.216467
C58	C	0.696265	0.716436	0.283533
C59	C	0.196332	0.159065	-0.274036
C60	C	0.696332	0.659065	0.225964
C61	C	0.243248	0.159066	-0.274034
C62	C	0.743248	0.659066	0.225966
C63	C	0.266672	0.187752	-0.245249
C64	C	0.766672	0.687752	0.254751
C65	C	0.243181	0.216437	-0.216465
C66	C	0.743181	0.716437	0.283535
C67	C	0.196201	0.273808	-0.158890
C68	C	0.696201	0.773808	0.341110
C69	C	0.243122	0.273803	-0.158888
C70	C	0.743122	0.773803	0.341112
C71	C	0.266613	0.245116	-0.187675
C72	C	0.766613	0.745116	0.312325
C73	C	0.313521	0.245125	-0.187678
C74	C	0.813521	0.745125	0.312322
N75	N	0.337014	0.216437	-0.216459
N76	N	0.837014	0.716437	0.283541
C77	C	0.313590	0.187750	-0.245245
C78	C	0.813590	0.687750	0.254755
C79	C	-0.113429	0.245130	-0.187706
C80	C	0.386571	0.745130	0.312294
C81	C	-0.160346	0.245133	-0.187710
C82	C	0.339654	0.745133	0.312290
C83	C	-0.160277	0.187756	-0.245279
C84	C	0.339723	0.687756	0.254721
C85	C	-0.113359	0.187756	-0.245277
C86	C	0.386641	0.687756	0.254723
C87	C	-0.089935	0.216442	-0.216487
C88	C	0.410065	0.716442	0.283513
C89	C	0.412116	0.187755	-0.245239
C90	C	0.912116	0.687755	0.254761
C91	C	0.459035	0.187760	-0.245236
C92	C	0.959035	0.687760	0.254764
C93	C	0.458962	0.245135	-0.187665
C94	C	0.958962	0.745135	0.312335
C95	C	0.412046	0.245132	-0.187670
C96	C	0.912046	0.745132	0.312330
C97	C	0.388624	0.216438	-0.216458
C98	C	0.888624	0.716438	0.283542
O99	O	0.337793	0.269518	-0.163221
O100	O	0.837793	0.769518	0.336779
O101	O	0.337887	0.163349	-0.269717
O102	O	0.837887	0.663349	0.230283
C103	C	0.125926	0.187749	-0.245254
C104	C	0.625926	0.687749	0.254746
C105	C	0.102434	0.216434	-0.216471
C106	C	0.602434	0.716434	0.283529
C107	C	0.125859	0.245120	-0.187685
C108	C	0.625859	0.745120	0.312315
C109	C	0.055517	0.216436	-0.216475
C110	C	0.555517	0.716436	0.283525
C111	C	0.032092	0.187749	-0.245260
C112	C	0.532092	0.687749	0.254740
C113	C	0.055586	0.159061	-0.274041
C114	C	0.555586	0.659061	0.225959
C115	C	0.102501	0.159062	-0.274040
C116	C	0.602501	0.659062	0.225960
C117	C	0.102365	0.273808	-0.158904
C118	C	0.602365	0.773808	0.341096
C119	C	0.055450	0.273805	-0.158909
C120	C	0.555450	0.773805	0.341091
C121	C	0.032025	0.245119	-0.187694
C122	C	0.532025	0.745119	0.312306
C123	C	0.677867	0.692730	-0.187762
C124	C	1.177867	1.192730	0.312238
C125	C	0.677910	0.880404	-0.187773
C126	C	1.177910	1.380404	0.312227
O127	O	0.702380	0.904659	-0.163378
O128	O	1.202380	1.404659	0.336622
N129	N	0.649164	0.903883	-0.216475
N130	N	1.149164	1.403883	0.283525
C131	C	0.620406	0.880441	-0.245179
C132	C	1.120406	1.380441	0.254821
O133	O	0.595960	0.904718	-0.269595
O134	O	1.095960	1.404718	0.230405
C135	C	0.620366	0.692769	-0.245171
C136	C	1.120366	1.192769	0.254829
C137	C	0.649111	0.669292	-0.216463
C138	C	1.149111	1.169292	0.283537
C139	C	0.706611	0.669254	-0.159058
C140	C	1.206611	1.169254	0.340942
C141	C	0.706598	0.622338	-0.159054
C142	C	1.206598	1.122338	0.340946
C143	C	0.677842	0.598900	-0.187754
C144	C	1.177842	1.098900	0.312246
C145	C	0.649098	0.622377	-0.216459
C146	C	1.149098	1.122377	0.283541
C147	C	0.591611	0.669328	-0.273876
C148	C	1.091611	1.169328	0.226124
C149	C	0.591604	0.622407	-0.273873
C150	C	1.091604	1.122407	0.226127
C151	C	0.620350	0.598930	-0.245165
C152	C	1.120350	1.098930	0.254835
C153	C	0.620330	0.552023	-0.245156
C154	C	1.120330	1.052023	0.254844
N155	N	0.649076	0.528543	-0.216454
N156	N	1.149076	1.028543	0.283546
C157	C	0.677832	0.551982	-0.187753
C158	C	1.177832	1.051982	0.312247
C159	C	0.620429	0.978972	-0.245180
C160	C	1.120429	1.478972	0.254820
C161	C	0.620438	1.025890	-0.245182
C162	C	1.120438	1.525890	0.254818
C163	C	0.677943	1.025849	-0.187776
C164	C	1.177943	1.525849	0.312224
C165	C	0.677931	0.978930	-0.187773
C166	C	1.177931	1.478930	0.312227
C167	C	0.649175	0.955492	-0.216478
C168	C	1.149175	1.455492	0.283522
C169	C	0.677803	0.453456	-0.187746
C170	C	1.177803	0.953456	0.312254
C171	C	0.677787	0.406536	-0.187744
C172	C	1.177787	0.906536	0.312256
C173	C	0.620284	0.406581	-0.245151
C174	C	1.120284	0.906581	0.254849
C175	C	0.620298	0.453497	-0.245152
C176	C	1.120298	0.953497	0.254848
C177	C	0.649062	0.476933	-0.216448
C178	C	1.149062	0.976933	0.283552
O179	O	0.595876	0.527738	-0.269541
O180	O	1.095876	1.027738	0.230459
O181	O	0.702282	0.527697	-0.163347
O182	O	1.202282	1.027697	0.336653
C183	C	0.677880	0.739646	-0.187766
C184	C	1.177880	1.239646	0.312234
C185	C	0.649137	0.763123	-0.216471
C186	C	1.149137	1.263123	0.283529
C187	C	0.620381	0.739684	-0.245172
C188	C	1.120381	1.239684	0.254828
C189	C	0.649146	0.810041	-0.216473
C190	C	1.149146	1.310041	0.283527
C191	C	0.677902	0.833479	-0.187772
C192	C	1.177902	1.333479	0.312228
C193	C	0.706649	0.810000	-0.159070
C194	C	1.206649	1.310000	0.340930
C195	C	0.706636	0.763084	-0.159066
C196	C	1.206636	1.263084	0.340934
C197	C	0.591634	0.763164	-0.273874
C198	C	1.091634	1.263164	0.226126
C199	C	0.591649	0.810079	-0.273875
C200	C	1.091649	1.310079	0.226125
C201	C	0.620405	0.833518	-0.245175
C202	C	1.120405	1.333518	0.254825
C203	C	0.766295	0.216445	-0.216487
C204	C	1.266295	0.716445	0.283513
C205	C	0.816229	0.216446	-0.216495
C206	C	1.316229	0.716446	0.283505
C207	C	0.649129	0.216437	-0.333646
C208	C	1.149129	0.716437	0.166354
C209	C	0.649134	0.216435	-0.383580
C210	C	1.149134	0.716435	0.116420
C211	C	0.649201	1.099262	-0.216495
C212	C	1.149201	1.599262	0.283505
C213	C	0.649194	1.049328	-0.216481
C214	C	1.149194	1.549328	0.283519
C215	C	0.677923	0.187627	-0.693241
C216	C	1.177923	0.687627	-0.193241
C217	C	0.677945	0.187589	-0.880914
C218	C	1.177945	0.687589	-0.380914
O219	O	0.702389	0.163138	-0.905193
O220	O	1.202389	0.663138	-0.405193
N221	N	0.649193	0.216315	-0.904366
N222	N	1.149193	0.716315	-0.404366
C223	C	0.620432	0.245050	-0.880896
C224	C	1.120432	0.745050	-0.380896
O225	O	0.595975	0.269479	-0.905150
O226	O	1.095975	0.769479	-0.405150
C227	C	0.620408	0.245086	-0.693224
C228	C	1.120408	0.745086	-0.193224
C229	C	0.649165	0.216361	-0.669775
C230	C	1.149165	0.716361	-0.169775
C231	C	0.706676	0.158905	-0.669791
C232	C	1.206676	0.658905	-0.169791
C233	C	0.706672	0.158916	-0.622876
C234	C	1.206672	0.658916	-0.122876
C235	C	0.677914	0.187650	-0.599410
C236	C	1.177914	0.687650	-0.099410
C237	C	0.649160	0.216373	-0.622859
C238	C	1.149160	0.716373	-0.122859
C239	C	0.591645	0.273819	-0.669756
C240	C	1.091645	0.773819	-0.169756
C241	C	0.591641	0.273824	-0.622835
C242	C	1.091641	0.773824	-0.122835
C243	C	0.620397	0.245100	-0.599385
C244	C	1.120397	0.745100	-0.099385
C245	C	0.620398	0.245119	-0.552478
C246	C	1.120398	0.745119	-0.052478
N247	N	0.649150	0.216393	-0.529026
N248	N	1.149150	0.716393	-0.029026
C249	C	0.677908	0.187659	-0.552492
C250	C	1.177908	0.687659	-0.052492
C251	C	0.620448	0.245030	-0.979427
C252	C	1.120448	0.745030	-0.479427
C253	C	0.620454	0.245022	-1.026345
C254	C	1.120454	0.745022	-0.526345
C255	C	0.677966	0.187560	-1.026359
C256	C	1.177966	0.687560	-0.526359
C257	C	0.677962	0.187571	-0.979440
C258	C	1.177962	0.687571	-0.479440
C259	C	0.649199	0.216304	-0.955975
C260	C	1.149199	0.716304	-0.455975
C261	C	0.677897	0.187685	-0.453966
C262	C	1.177897	0.687685	0.046034
C263	C	0.677892	0.187701	-0.407046
C264	C	1.177892	0.687701	0.092954
C265	C	0.620378	0.245161	-0.407036
C266	C	1.120378	0.745161	0.092964
C267	C	0.620385	0.245147	-0.453952
C268	C	1.120385	0.745147	0.046048
C269	C	0.649146	0.216406	-0.477416
C270	C	1.149146	0.716406	0.022584
O271	O	0.595964	0.269553	-0.528170
O272	O	1.095964	0.769553	-0.028170
O273	O	0.702355	0.163226	-0.528230
O274	O	1.202355	0.663226	-0.028230
C275	C	0.677927	0.187616	-0.740156
C276	C	1.177927	0.687616	-0.240156
C277	C	0.649173	0.216338	-0.763606
C278	C	1.149173	0.716338	-0.263606
C279	C	0.620415	0.245072	-0.740140
C280	C	1.120415	0.745072	-0.240140
C281	C	0.649179	0.216330	-0.810524
C282	C	1.149179	0.716330	-0.310524
C283	C	0.677937	0.187596	-0.833990
C284	C	1.177937	0.687596	-0.333990
C285	C	0.706689	0.158870	-0.810538
C286	C	1.206689	0.658870	-0.310538
C287	C	0.706685	0.158881	-0.763622
C288	C	1.206685	0.658881	-0.263622
C289	C	0.591664	0.273798	-0.763592
C290	C	1.091664	0.773798	-0.263592
C291	C	0.591670	0.273785	-0.810507
C292	C	1.091670	0.773785	-0.310507
C293	C	0.620428	0.245050	-0.833973
C294	C	1.120428	0.745050	-0.333973
C295	C	0.649130	0.216412	-0.099745
C296	C	1.149130	0.716412	0.400255
C297	C	0.649212	0.216288	-0.049811
C298	C	1.149212	0.716288	0.450189
H299	H	0.478160	0.164399	-0.268679
H300	H	0.978160	0.664399	0.231321
H301	H	0.730106	0.135475	-0.829652
H302	H	1.230106	0.635475	-0.329652
O303	O	0.268387	0.304742	-0.127835
O304	O	0.768387	0.804742	0.372165
H305	H	0.259357	0.340014	-0.135474
H306	H	0.759357	0.840014	0.364526
O307	O	-0.088023	0.156813	-0.276323
O308	O	0.411977	0.656813	0.223677
H309	H	-0.066636	0.133926	-0.256256
H310	H	0.433364	0.633926	0.243744
O311	O	0.589369	0.276130	-0.479244
O312	O	1.089369	0.776130	0.020756
H313	H	0.566533	0.256012	-0.500616
H314	H	1.066533	0.756012	-0.000616
H315	H	0.036505	0.135705	-0.297481
H316	H	0.536505	0.635705	0.202519
H317	H	0.036327	0.297170	-0.135468
H318	H	0.536327	0.797170	0.364532
H319	H	0.597011	0.959892	-0.268556
H320	H	1.097011	1.459892	0.231444
H321	H	-0.179357	0.164399	-0.268718
H322	H	0.320643	0.664399	0.231282
H323	H	0.701377	0.164180	-0.960351
H324	H	1.201377	0.664180	-0.460351
O325	O	0.737671	0.835290	-0.128123
O326	O	1.237671	1.335290	0.371877
H327	H	0.717589	0.856705	-0.105252
H328	H	1.217589	1.356705	0.394748
O329	O	0.127628	0.304749	-0.127855
O330	O	0.627628	0.804749	0.372145
H331	H	0.103405	0.324697	-0.107846
H332	H	0.603405	0.824697	0.392154
H333	H	0.597043	0.268417	-1.045434
H334	H	1.097043	0.768417	-0.545434
H335	H	-0.179469	0.268497	-0.164274
H336	H	0.320531	0.768497	0.335726
O337	O	0.560640	0.835395	-0.304842
O338	O	1.060640	1.335395	0.195158
H339	H	0.537797	0.856802	-0.284718
H340	H	1.037797	1.356802	0.215282
O341	O	0.589288	0.478824	-0.276105
O342	O	1.089288	0.978824	0.223895
H343	H	0.609383	0.500171	-0.298982
H344	H	1.109383	1.000171	0.201018
H345	H	-0.094361	0.268491	-0.164260
H346	H	0.405639	0.768491	0.335740
O347	O	0.170870	0.304743	-0.127836
O348	O	0.670870	0.804743	0.372164
H349	H	0.195048	0.324681	-0.107816
H350	H	0.695048	0.824681	0.392184
H351	H	0.701310	0.164310	-0.387956
H352	H	1.201310	0.664310	0.112044
H353	H	0.597026	0.268431	-0.960326
H354	H	1.097026	0.768431	-0.460326
O355	O	0.560623	0.304795	-0.695041
O356	O	1.060623	0.804795	-0.195041
H357	H	0.540622	0.324768	-0.670834
H358	H	1.040622	0.824768	-0.170834
O359	O	0.386705	0.276073	-0.156624
O360	O	0.886705	0.776073	0.343376
H361	H	0.410878	0.296019	-0.136607
H362	H	0.910878	0.796019	0.363393
O363	O	0.484230	0.276071	-0.156615
O364	O	0.984230	0.776071	0.343385
H365	H	0.520801	0.271244	-0.161447
H366	H	1.020801	0.771244	0.338553
H367	H	0.596966	0.268557	-0.387922
H368	H	1.096966	0.768557	0.112078
O369	O	0.560607	0.737886	-0.304822
O370	O	1.060607	1.237886	0.195178
H371	H	0.540618	0.762099	-0.324773
H372	H	1.040618	1.262099	0.175227
H373	H	0.121624	0.135702	-0.297480
H374	H	0.621624	0.635702	0.202520
H375	H	0.701195	0.387423	-0.164365
H376	H	1.201195	0.887423	0.335635
H377	H	0.701382	0.164164	-1.045473
H378	H	1.201382	0.664164	-0.545473
O379	O	0.560612	0.304810	-0.597525
O380	O	1.060612	0.804810	-0.097525
H381	H	0.540619	0.324780	-0.621716
H382	H	1.040619	0.824780	-0.121716
O383	O	0.708920	0.156691	-0.479271
O384	O	1.208920	0.656691	0.020729
H385	H	0.728915	0.136726	-0.455076
H386	H	1.228915	0.636726	0.044924
H387	H	0.701226	0.472532	-0.164374
H388	H	1.201226	0.972532	0.335626
O389	O	0.737608	0.597019	-0.128097
O390	O	1.237608	1.097019	0.371903
H391	H	0.757608	0.621205	-0.108148
H392	H	1.257608	1.121205	0.391852
H393	H	0.262370	0.135705	-0.297474
H394	H	0.762370	0.635705	0.202526
H395	H	0.730101	0.135491	-0.744534
H396	H	1.230101	0.635491	-0.244534
H397	H	0.701357	1.044940	-0.164407
H398	H	1.201357	1.544940	0.335593
O399	O	0.560650	0.304765	-0.835798
O400	O	1.060650	0.804765	-0.335798
H401	H	0.540650	0.324742	-0.811593
H402	H	1.040650	0.824742	-0.311593
O403	O	0.737688	0.127932	-0.597589
O404	O	1.237688	0.627932	-0.097589
H405	H	0.717600	0.105079	-0.576212
H406	H	1.217600	0.605079	-0.076212
O407	O	0.737626	0.694530	-0.128096
O408	O	1.237626	1.194530	0.371904
H409	H	0.757605	0.670316	-0.108137
H410	H	1.257605	1.170316	0.391863
H411	H	0.730095	0.135503	-0.688892
H412	H	1.230095	0.635503	-0.188892
O413	O	0.560630	0.304777	-0.738284
O414	O	1.060630	0.804777	-0.238284
H415	H	0.540637	0.324743	-0.762478
H416	H	1.040637	0.824743	-0.262478
H417	H	0.701338	0.959818	-0.164397
H418	H	1.201338	1.459818	0.335603
H419	H	0.177265	0.135702	-0.297477
H420	H	0.677265	0.635702	0.202523
O421	O	0.386856	0.156811	-0.276291
O422	O	0.886856	0.656811	0.223709
H423	H	0.411079	0.136870	-0.296306
H424	H	0.911079	0.636870	0.203694
O425	O	0.589430	1.051211	-0.276139
O426	O	1.089430	1.551211	0.223861
H427	H	0.597111	1.042186	-0.311405
H428	H	1.097111	1.542186	0.188595
O429	O	0.560610	0.694643	-0.304843
O430	O	1.060610	1.194643	0.195157
H431	H	0.540620	0.670455	-0.324801
H432	H	1.040620	1.170455	0.175199
O433	O	0.560582	0.597130	-0.304830
O434	O	1.060582	1.097130	0.195170
H435	H	0.568261	0.606116	-0.340097
H436	H	1.068261	1.106116	0.159903
O437	O	0.589271	0.381297	-0.276108
O438	O	1.089271	0.881297	0.223892
H439	H	0.594098	0.344729	-0.271284
H440	H	1.094098	0.844729	0.228716
O441	O	0.737645	0.737765	-0.128107
O442	O	1.237645	1.237765	0.371893
H443	H	0.757643	0.761952	-0.108157
H444	H	1.257643	1.261952	0.391843
