data_functionalizedCrystal
_audit_creation_method	'MofGen! by Chris Wilmer'
_symmetry_space_group_name_H-M	'P1'
_symmetry_Int_Tables_number	1
_symmetry_cell_setting	triclinic
loop_
_symmetry_equiv_pos_as_xyz
  x,y,z
_cell_length_a	10.723023
_cell_length_b	15.944545
_cell_length_c	9.798715
_cell_angle_alpha	89.994750
_cell_angle_beta	89.996449
_cell_angle_gamma	83.981860
loop_
_atom_site_label
_atom_site_type_symbol
_atom_site_fract_x
_atom_site_fract_y
_atom_site_fract_z
O1	O	1.655696	0.117805	-0.113494
O2	O	1.292400	0.129083	-0.113499
O3	O	1.483973	0.001226	-0.113480
O4	O	1.464123	0.245662	-0.113513
O5	O	1.483959	0.001225	0.113502
O6	O	1.292386	0.129082	0.113484
O7	O	1.655681	0.117805	0.113488
Zn8	Zn	1.474031	0.123444	0.149524
Zn9	Zn	1.474050	0.123444	-0.149535
O10	O	1.464109	0.245662	0.113469
C11	C	1.245904	0.128262	-0.000008
C12	C	1.107381	0.125807	-0.000009
C13	C	0.902451	0.122175	0.117570
C14	C	1.045622	0.124712	0.117574
C15	C	1.483143	-0.030073	0.000012
C16	C	1.480677	-0.123334	0.000016
C17	C	1.354562	-0.394688	-0.000013
C18	C	1.415371	-0.343755	-0.111927
C19	C	1.471881	-0.459028	-0.000023
C20	C	1.415388	-0.343782	0.111860
C21	C	1.476196	-0.294090	-0.000001
C22	C	1.532659	-0.409323	-0.112029
C23	C	1.532660	-0.409354	0.111858
C24	C	1.593555	-0.358452	-0.000083
C25	C	1.469392	-0.554044	-0.000036
C26	C	1.478695	-0.199076	0.000002
C27	C	1.702178	0.118626	-0.000006
C28	C	1.840701	0.121081	-0.000014
C29	C	1.464939	0.276961	-0.000026
C30	C	1.467405	0.370221	-0.000039
N31	N	1.474028	0.123443	0.353624
N32	N	1.474064	0.123438	-0.353634
C33	C	1.554467	0.069523	0.421408
C34	C	1.554487	0.069520	0.578571
H35	H	0.893827	0.122027	-0.100679
F36	F	1.644510	0.009183	0.654760
H37	H	1.253524	-0.410919	-0.000124
H38	H	1.365830	-0.315104	-0.206544
F39	F	1.597382	-0.446601	-0.235835
H40	H	1.098727	0.125650	0.218242
F41	F	1.725718	-0.337444	-0.000162
F42	F	1.597358	-0.446825	0.235534
F43	F	1.384049	0.183785	0.570186
H44	H	1.054285	0.124864	-0.100682
F45	F	1.350595	-0.306358	0.235523
H46	H	0.849324	0.121238	0.218235
F47	F	1.644243	0.009035	0.345189
F48	F	1.384024	0.183777	0.429844
