data_functionalizedCrystal
_audit_creation_method	'MofGen! by Chris Wilmer'
_symmetry_space_group_name_H-M	'P1'
_symmetry_Int_Tables_number	1
_symmetry_cell_setting	triclinic
loop_
_symmetry_equiv_pos_as_xyz
  x,y,z
_cell_length_a	10.654541
_cell_length_b	10.654551
_cell_length_c	9.730223
_cell_angle_alpha	89.997531
_cell_angle_beta	89.999332
_cell_angle_gamma	95.515355
loop_
_atom_site_label
_atom_site_type_symbol
_atom_site_fract_x
_atom_site_fract_y
_atom_site_fract_z
O1	O	1.667837	-0.176386	0.114238
O2	O	1.302358	-0.193195	0.114249
O3	O	1.493500	-0.002051	0.114244
O4	O	1.476696	-0.367530	0.114243
O5	O	1.493498	-0.002042	-0.114336
O6	O	1.302356	-0.193186	-0.114330
O7	O	1.667835	-0.176377	-0.114342
Zn8	Zn	1.485095	-0.184780	-0.150628
Zn9	Zn	1.485098	-0.184792	0.150536
O10	O	1.476693	-0.367520	-0.114336
C11	C	1.255559	-0.191957	-0.000039
C12	C	1.116116	-0.188266	-0.000034
C13	C	1.492265	0.044751	-0.000042
C14	C	1.488572	0.184194	-0.000033
N15	N	1.485102	-0.184770	-0.356164
C16	C	1.088146	-0.416831	-0.000018
C17	C	1.008652	-0.529374	-0.000004
C18	C	0.877634	-0.525898	-0.000003
C19	C	0.826108	-0.409867	-0.000019
C20	C	0.905602	-0.297324	-0.000033
C21	C	1.036621	-0.300812	-0.000030
C22	C	0.933572	-0.068762	-0.000060
C23	C	1.064590	-0.072235	-0.000051
C24	C	0.882046	0.047269	-0.000076
C25	C	0.961540	0.159814	-0.000080
C26	C	1.092566	0.156334	-0.000080
C27	C	1.144084	0.040308	-0.000065
C28	C	1.714634	-0.177615	-0.000050
C29	C	1.854078	-0.181306	-0.000046
C30	C	1.477929	-0.414323	-0.000047
C31	C	1.481621	-0.553766	-0.000047
C32	C	1.486842	0.249701	0.124563
C33	C	1.483361	0.380722	0.124557
C34	C	1.483348	0.380717	-0.124653
C35	C	1.486819	0.249698	-0.124645
C36	C	1.488595	0.184197	0.249176
C37	C	1.486865	0.249704	0.373783
C38	C	1.483385	0.380725	0.373776
C39	C	1.481634	0.446238	0.249163
N40	N	1.485101	-0.184792	0.356072
C41	C	1.569898	-0.100319	0.427996
C42	C	1.569902	-0.100311	0.571879
C43	C	1.400301	-0.269252	0.571902
C44	C	1.400305	-0.269265	0.428021
C45	C	1.654695	-0.015846	0.356047
C46	C	1.739497	0.068634	0.427971
C47	C	1.739501	0.068642	0.571854
C48	C	1.654703	-0.015830	0.643813
H49	H	1.194826	-0.419672	0.000011
C50	C	1.598477	0.115528	-0.269235
C51	C	1.488717	0.177692	-0.261609
H52	H	1.599636	0.071072	-0.353792
H53	H	1.670222	0.175576	-0.264073
H54	H	1.599999	0.057762	-0.195022
H55	H	1.487200	0.235466	-0.335816
H56	H	1.416954	0.117637	-0.266785
H57	H	1.331256	-0.338051	0.369460
C58	C	1.628556	0.102781	0.149927
C59	C	1.654697	-0.015853	0.197890
H60	H	1.628563	0.102777	0.052288
H61	H	1.548193	0.120849	0.182472
H62	H	1.691200	0.165171	0.182476
H63	H	1.592047	-0.078241	0.165349
H64	H	1.735071	-0.033936	0.165331
H65	H	1.481924	0.434069	-0.226107
H66	H	1.050619	-0.623844	0.000006
H67	H	1.808545	0.137401	0.369375
H68	H	1.250764	0.037463	-0.000049
C69	C	1.811633	0.285323	0.615852
C70	C	1.832711	0.161597	0.650792
H71	H	1.869171	0.342743	0.664554
H72	H	1.823699	0.297292	0.519853
H73	H	1.727738	0.299850	0.639478
H74	H	1.916604	0.147067	0.627157
H75	H	1.820656	0.149623	0.746813
H76	H	0.812909	-0.617541	-0.000001
C77	C	1.374554	0.407873	0.586202
C78	C	1.481477	0.452730	0.510740
H79	H	1.373387	0.452321	0.670763
H80	H	1.300885	0.420409	0.535013
H81	H	1.376890	0.320467	0.604025
H82	H	1.479137	0.540134	0.492907
H83	H	1.555165	0.440204	0.561939
C84	C	1.385795	-0.016672	0.181357
C85	C	1.492414	0.040178	0.249183
H86	H	1.388160	-0.105582	0.181354
H87	H	1.311919	0.004022	0.227391
H88	H	1.385012	0.012976	0.089316
H89	H	1.493192	0.010537	0.341228
H90	H	1.566309	0.019474	0.203151
C91	C	1.232661	-0.436246	0.557478
C92	C	1.307089	-0.362093	0.650995
H93	H	1.175119	-0.493566	0.606309
H94	H	1.187144	-0.383459	0.501353
H95	H	1.285248	-0.482018	0.501366
H96	H	1.254503	-0.316313	0.707101
H97	H	1.352610	-0.414887	0.707144
C98	C	1.368850	0.620709	0.181291
C99	C	1.477789	0.590256	0.249136
H100	H	1.366475	0.709617	0.181277
H101	H	1.369651	0.591059	0.089267
H102	H	1.296542	0.582116	0.227333
H103	H	1.550098	0.628841	0.203087
H104	H	1.476999	0.619920	0.341176
C105	C	0.630804	-0.467103	0.117478
C106	C	0.682091	-0.406045	-0.000028
H107	H	0.541895	-0.464733	0.117474
H108	H	0.650112	-0.552298	0.117475
H109	H	0.665612	-0.425669	0.197180
H110	H	0.647291	-0.447484	-0.079729
H111	H	0.662773	-0.320834	-0.000036
H112	H	1.654721	-0.015825	0.760972
C113	C	1.156739	0.350089	0.117407
C114	C	1.179945	0.280046	-0.000090
H115	H	1.210687	0.426460	0.117403
H116	H	1.071345	0.368760	0.117389
H117	H	1.172468	0.302553	0.197114
H118	H	1.164207	0.327578	-0.079798
H119	H	1.265359	0.261377	-0.000084
H120	H	0.775363	0.050090	-0.000083
H121	H	0.919576	0.254278	-0.000093
H122	H	1.488279	0.196353	0.475238
