data_functionalizedCrystal
_audit_creation_method	'MofGen! by Chris Wilmer'
_symmetry_space_group_name_H-M	'P1'
_symmetry_Int_Tables_number	1
_symmetry_cell_setting	triclinic
loop_
_symmetry_equiv_pos_as_xyz
  x,y,z
_cell_length_a	12.759401
_cell_length_b	12.645330
_cell_length_c	12.759393
_cell_angle_alpha	90.031109
_cell_angle_beta	90.019676
_cell_angle_gamma	90.013072
loop_
_atom_site_label
_atom_site_type_symbol
_atom_site_fract_x
_atom_site_fract_y
_atom_site_fract_z
Zn1	Zn	1.606281	-0.421976	0.593980
Zn2	Zn	1.606179	-0.599277	0.418298
Zn3	Zn	1.430580	-0.422029	0.418319
Zn4	Zn	1.430578	-0.599199	0.593940
O5	O	1.518405	-0.510620	0.506134
O6	O	1.753289	-0.445506	0.570684
O7	O	1.582843	-0.575819	0.271280
O8	O	1.453931	-0.273675	0.441647
O9	O	1.753213	-0.575768	0.441611
O10	O	1.583018	-0.273636	0.570704
O11	O	1.453831	-0.445596	0.271295
O12	O	1.283559	-0.445521	0.441607
O13	O	1.453928	-0.575636	0.740966
O14	O	1.283557	-0.575687	0.570635
O15	O	1.583016	-0.445430	0.740996
O16	O	1.582841	-0.747614	0.441572
O17	O	1.453828	-0.747557	0.570615
C18	C	1.245437	-0.510602	0.506120
C19	C	1.128661	-0.510620	0.506138
C20	C	1.073839	-0.442915	0.573450
C21	C	0.964114	-0.442926	0.573457
C22	C	0.964044	-0.578355	0.438837
C23	C	1.073766	-0.578338	0.438826
C24	C	0.814190	-0.317971	0.611227
C25	C	0.759365	-0.250276	0.678555
C26	C	0.795023	-0.234118	0.781093
C27	C	0.885505	-0.285672	0.816325
C28	C	0.940325	-0.353376	0.749002
C29	C	0.904668	-0.369513	0.646449
C30	C	1.223692	-0.703294	0.401067
C31	C	1.278514	-0.771004	0.333749
C32	C	1.242859	-0.787172	0.231208
C33	C	1.152373	-0.735637	0.195981
C34	C	1.097551	-0.667927	0.263299
C35	C	1.133214	-0.651757	0.365838
C36	C	1.518352	-0.786050	0.506110
C37	C	1.518426	-0.903880	0.506134
C38	C	1.599457	-1.071436	0.424788
C39	C	1.599721	-0.948875	0.424988
C40	C	1.548455	-0.948254	0.616878
C41	C	1.549098	-1.070852	0.616447
C42	C	1.407332	-1.071210	0.477827
C43	C	1.407865	-0.948606	0.475343
C44	C	1.792438	-0.510639	0.506150
C45	C	1.909214	-0.510647	0.506157
C46	C	1.518483	-0.510518	0.780168
C47	C	1.518517	-0.510475	0.896945
C48	C	1.518486	-0.234115	0.506182
C49	C	1.518521	-0.116285	0.506203
C50	C	1.518387	-0.510645	0.233167
C51	C	1.518557	-0.510390	0.116391
C52	C	1.585738	-0.442666	0.951824
C53	C	1.585756	-0.442621	1.061548
C54	C	1.451328	-0.578201	1.061504
C55	C	1.451306	-0.578241	0.951782
C56	C	1.623363	-0.317547	1.211527
C57	C	1.690601	-0.249747	1.266409
C58	C	1.793113	-0.233494	1.230816
C59	C	1.828409	-0.285054	1.140341
C60	C	1.761177	-0.352862	1.085464
C61	C	1.658650	-0.369095	1.121056
C62	C	1.413709	-0.703316	0.801801
C63	C	1.346481	-0.771130	0.746922
C64	C	1.243967	-0.787394	0.782513
C65	C	1.208676	-0.735852	0.872991
C66	C	1.275903	-0.668039	0.927871
C67	C	1.378416	-0.651773	0.892272
H68	H	0.914524	-0.272520	0.899826
C69	C	0.734715	-0.159643	0.855149
N70	N	0.689292	-0.103542	0.910921
H71	H	1.352203	-0.812952	0.362435
H72	H	1.539887	-0.330766	1.240510
H73	H	1.580903	-1.100994	0.342433
H74	H	1.123337	-0.748806	0.112486
H75	H	1.640463	-0.387484	0.907179
H76	H	1.628811	-0.917463	0.641316
C77	C	1.262922	-0.685513	0.513869
N78	N	1.292470	-0.672126	0.598832
H79	H	0.685694	-0.208300	0.649860
C80	C	1.574300	-0.908348	0.314062
N81	N	1.555142	-0.877828	0.230510
C82	C	1.095904	-0.753742	0.912145
N83	N	1.010962	-0.767221	0.941633
H84	H	1.681369	-1.102164	0.443347
C85	C	1.710980	-0.909139	0.450336
N86	N	1.794784	-0.879211	0.469428
H87	H	1.380025	-1.102225	0.398479
C88	C	1.867070	-0.158906	1.291187
N89	N	1.922767	-0.102720	1.336659
C90	C	0.903650	-0.652849	0.364805
N91	N	0.858163	-0.708961	0.309044
C92	C	0.774964	-0.335729	0.498424
N93	N	0.745413	-0.349106	0.413461
H94	H	1.344307	-0.917988	0.530294
H95	H	1.023872	-0.625965	0.234608
H96	H	1.189235	-0.842623	0.737826
C97	C	1.385309	-0.827833	0.647396
N98	N	1.414553	-0.870539	0.572433
H99	H	1.287485	-0.842337	0.176411
H100	H	1.911888	-0.271822	1.111374
H101	H	1.630372	-1.099362	0.640483
C102	C	1.472929	-1.110929	0.701199
N103	N	1.415567	-1.141110	0.765041
H104	H	1.247160	-0.626071	1.001543
C105	C	1.471247	-0.908868	0.701027
N106	N	1.413094	-0.879199	0.764407
C107	C	1.799993	-0.409571	0.985943
N108	N	1.829231	-0.452277	0.910978
H109	H	1.385222	-0.919615	0.393845
H110	H	1.661854	-0.207767	1.340074
C111	C	1.325862	-1.110398	0.557930
N112	N	1.264507	-1.139920	0.618267
H113	H	1.396610	-0.633376	1.106166
H114	H	1.497182	-0.690071	0.772808
H115	H	1.013997	-0.395345	0.777685
C116	C	1.134218	-0.368413	0.647486
N117	N	1.179694	-0.312292	0.703249
