data_functionalizedCrystal
_audit_creation_method	'MofGen! by Chris Wilmer'
_symmetry_space_group_name_H-M	'P1'
_symmetry_Int_Tables_number	1
_symmetry_cell_setting	triclinic
loop_
_symmetry_equiv_pos_as_xyz
  x,y,z
_cell_length_a	12.594517
_cell_length_b	29.839131
_cell_length_c	12.594517
_cell_angle_alpha	90.010103
_cell_angle_beta	89.992224
_cell_angle_gamma	90.037307
loop_
_atom_site_label
_atom_site_type_symbol
_atom_site_fract_x
_atom_site_fract_y
_atom_site_fract_z
Zn1	Zn	1.626877	-0.178999	0.601530
Zn2	Zn	2.126877	0.321001	1.101530
Zn3	Zn	1.626749	-0.254101	0.423531
Zn4	Zn	2.126749	0.245899	0.923531
Zn5	Zn	1.448941	-0.178981	0.423590
Zn6	Zn	1.948941	0.321019	0.923590
Zn7	Zn	1.448784	-0.254098	0.601491
Zn8	Zn	1.948784	0.245902	1.101491
O9	O	1.537838	-0.216545	0.512535
O10	O	2.037838	0.283455	1.012535
O11	O	1.775806	-0.188971	0.577910
O12	O	2.275806	0.311029	1.077910
O13	O	1.603174	-0.244130	0.274593
O14	O	2.103174	0.255870	0.774593
O15	O	1.472663	-0.116116	0.447235
O16	O	1.972663	0.383884	0.947235
O17	O	1.775712	-0.244148	0.447134
O18	O	2.275712	0.255852	0.947134
O19	O	1.603392	-0.116130	0.577967
O20	O	2.103392	0.383870	1.077967
O21	O	1.472539	-0.188940	0.274636
O22	O	1.972539	0.311060	0.774636
O23	O	1.299974	-0.188936	0.447197
O24	O	1.799974	0.311064	0.947197
O25	O	1.472397	-0.244142	0.750442
O26	O	1.972397	0.255858	1.250442
O27	O	1.299859	-0.244124	0.577900
O28	O	1.799859	0.255876	1.077900
O29	O	1.603241	-0.188968	0.750471
O30	O	2.103241	0.311032	1.250471
O31	O	1.603022	-0.316968	0.447097
O32	O	2.103022	0.183032	0.947097
O33	O	1.472273	-0.316965	0.577843
O34	O	1.972273	0.183035	1.077843
C35	C	1.261297	-0.216528	0.512551
C36	C	1.761297	0.283472	1.012551
C37	C	1.142991	-0.216531	0.512584
C38	C	1.642991	0.283469	1.012584
C39	C	1.073706	-0.246607	0.583536
C40	C	1.573706	0.253393	1.083536
C41	C	1.002932	-0.205651	0.609725
C42	C	1.502932	0.294349	1.109725
C43	C	1.002967	-0.257522	0.486371
C44	C	1.502967	0.242478	0.986371
C45	C	1.073775	-0.175553	0.538824
C46	C	1.573775	0.324447	1.038824
C47	C	1.073816	-0.227452	0.415424
C48	C	1.573816	0.272548	0.915424
C49	C	1.003073	-0.186467	0.441577
C50	C	1.503073	0.313533	0.941577
C51	C	1.537645	-0.333267	0.512483
C52	C	2.037645	0.166733	1.012483
C53	C	1.537661	-0.383202	0.512496
C54	C	2.037661	0.116798	1.012496
C55	C	1.606043	-0.692834	0.444555
C56	C	2.106043	-0.192834	0.944555
C57	C	1.606174	-0.880507	0.444596
C58	C	2.106174	-0.380507	0.944596
O59	O	1.664163	-0.904762	0.386790
O60	O	2.164163	-0.404762	0.886790
N61	N	1.538058	-0.903987	0.512616
N62	N	2.038058	-0.403987	1.012616
C63	C	1.469910	-0.880546	0.580634
C64	C	1.969910	-0.380546	1.080634
O65	O	1.411984	-0.904823	0.638498
O66	O	1.911984	-0.404823	1.138498
C67	C	1.469785	-0.692873	0.580598
C68	C	1.969785	-0.192873	1.080598
C69	C	1.537897	-0.669396	0.512566
C70	C	2.037897	-0.169396	1.012566
C71	C	1.674151	-0.669357	0.376530
C72	C	2.174151	-0.169357	0.876530
C73	C	1.674113	-0.622441	0.376516
C74	C	2.174113	-0.122441	0.876516
C75	C	1.605968	-0.599003	0.444527
C76	C	2.105968	-0.099003	0.944527
C77	C	1.537860	-0.622481	0.512552
C78	C	2.037860	-0.122481	1.012552
C79	C	1.401642	-0.669433	0.648621
C80	C	1.901642	-0.169433	1.148621
C81	C	1.401619	-0.622512	0.648608
C82	C	1.901619	-0.122512	1.148608
C83	C	1.469731	-0.599035	0.580576
C84	C	1.969731	-0.099035	1.080576
C85	C	1.469676	-0.552127	0.580550
C86	C	1.969676	-0.052127	1.080550
N87	N	1.537792	-0.528647	0.512531
N88	N	2.037792	-0.028647	1.012531
C89	C	1.605938	-0.552085	0.444519
C90	C	2.105938	-0.052085	0.944519
C91	C	1.469979	-0.979076	0.580647
C92	C	1.969979	-0.479076	1.080647
C93	C	1.470009	-1.025994	0.580655
C94	C	1.970009	-0.525994	1.080655
C95	C	1.606275	-1.025952	0.444618
C96	C	2.106275	-0.525952	0.944618
C97	C	1.606239	-0.979034	0.444606
C98	C	2.106239	-0.479034	0.944606
C99	C	1.538095	-0.955596	0.512628
C100	C	2.038095	-0.455596	1.012628
C101	C	1.605853	-0.453559	0.444495
C102	C	2.105853	0.046441	0.944495
C103	C	1.605806	-0.406640	0.444484
C104	C	2.105806	0.093360	0.944484
C105	C	1.469545	-0.406686	0.580525
C106	C	1.969545	0.093314	1.080525
C107	C	1.469587	-0.453601	0.580532
C108	C	1.969587	0.046399	1.080532
C109	C	1.537750	-0.477037	0.512514
C110	C	2.037750	0.022963	1.012514
O111	O	1.411727	-0.527843	0.638334
O112	O	1.911727	-0.027843	1.138334
O113	O	1.663872	-0.527800	0.386681
O114	O	2.163872	-0.027800	0.886681
C115	C	1.606080	-0.739749	0.444569
C116	C	2.106080	-0.239749	0.944569
C117	C	1.537972	-0.763227	0.512594
C118	C	2.037972	-0.263227	1.012594
C119	C	1.469827	-0.739789	0.580605
C120	C	1.969827	-0.239789	1.080605
C121	C	1.538002	-0.810145	0.512602
C122	C	2.038002	-0.310145	1.012602
C123	C	1.606148	-0.833583	0.444590
C124	C	2.106148	-0.333583	0.944590
C125	C	1.674264	-0.810103	0.376571
C126	C	2.174264	-0.310103	0.876571
C127	C	1.674226	-0.763187	0.376557
C128	C	2.174226	-0.263187	0.876557
C129	C	1.401711	-0.763269	0.648624
C130	C	1.901711	-0.263269	1.148624
C131	C	1.401753	-0.810184	0.648632
C132	C	1.901753	-0.310184	1.148632
C133	C	1.469899	-0.833622	0.580620
C134	C	1.969899	-0.333622	1.080620
C135	C	1.815458	-0.216562	0.512520
C136	C	2.315458	0.283438	1.012520
C137	C	1.933764	-0.216570	0.512513
C138	C	2.433764	0.283430	1.012513
C139	C	1.537816	-0.216556	0.790156
C140	C	2.037816	0.283444	1.290156
C141	C	1.537806	-0.216561	0.908462
C142	C	2.037806	0.283439	1.408462
C143	C	1.538060	-0.099366	0.512612
C144	C	2.038060	0.400634	1.012612
C145	C	1.538154	-0.049432	0.512644
C146	C	2.038154	0.450568	1.012644
C147	C	1.466639	-0.246566	0.977699
C148	C	1.966639	0.253434	1.477699
C149	C	1.563725	-0.257559	1.048470
C150	C	2.063725	0.242441	1.548470
C151	C	1.440726	-0.205580	1.048490
C152	C	1.940726	0.294420	1.548490
C153	C	1.634943	-0.227575	0.977674
C154	C	2.134943	0.272425	1.477674
C155	C	1.511879	-0.175577	0.977688
C156	C	2.011879	0.324423	1.477688
C157	C	1.609031	-0.186554	1.048426
C158	C	2.109031	0.313446	1.548426
C159	C	1.537836	-0.216547	1.235994
C160	C	2.037836	0.283453	1.735994
C161	C	1.537800	-0.216553	1.117689
C162	C	2.037800	0.283447	1.617689
H163	H	0.972254	-0.161020	0.381545
H164	H	1.472254	0.338980	0.881545
C165	C	1.115608	-0.280903	0.664696
C166	C	1.615608	0.219097	1.164696
N167	N	1.147168	-0.306733	0.725827
N168	N	1.647168	0.193267	1.225827
C169	C	1.482204	-0.128773	0.935644
C170	C	1.982204	0.371227	1.435644
N171	N	1.459841	-0.093521	0.903974
N172	N	1.959841	0.406479	1.403974
C173	C	0.960854	-0.193194	0.720683
C174	C	1.460854	0.306806	1.220683
N175	N	0.929160	-0.183816	0.804258
N176	N	1.429160	0.316184	1.304258
C177	C	1.326653	-0.596734	0.723440
C178	C	1.826653	-0.096734	1.223440
N179	N	1.270187	-0.577319	0.779802
N180	N	1.770187	-0.077319	1.279802
C181	C	1.690424	-0.152270	1.090119
C182	C	2.190424	0.347730	1.590119
N183	N	1.751732	-0.126448	1.121524
N184	N	2.251732	0.373552	1.621524
H185	H	1.585659	-0.292214	1.079561
H186	H	2.085659	0.207786	1.579561
C187	C	1.749223	-0.835894	0.301757
C188	C	2.249223	-0.335894	0.801757
N189	N	1.805683	-0.855322	0.245414
N190	N	2.305683	-0.355322	0.745414
C191	C	1.749117	-0.695131	0.301699
C192	C	2.249117	-0.195131	0.801699
N193	N	1.805580	-0.714541	0.245325
N194	N	2.305580	-0.214541	0.745325
C195	C	1.115614	-0.128731	0.568872
C196	C	1.615614	0.371269	1.068872
N197	N	1.147130	-0.093466	0.591509
N198	N	1.647130	0.406534	1.091509
H199	H	1.661272	-0.387526	0.389081
H200	H	2.161272	0.112474	0.889081
C201	C	1.329816	-0.193035	1.090508
C202	C	1.829816	0.306965	1.590508
N203	N	1.246276	-0.183589	1.122151
N204	N	1.746276	0.316411	1.622151
C205	C	1.115914	-0.239929	0.304494
C206	C	1.615914	0.260071	0.804494
N207	N	1.147625	-0.249332	0.220941
N208	N	1.647625	0.250668	0.720941
H209	H	1.414058	-0.387595	0.635896
H210	H	1.914058	0.112405	1.135896
C211	C	1.745883	-0.240175	0.935831
C212	C	2.245883	0.259825	1.435831
N213	N	1.829440	-0.249668	0.904312
N214	N	2.329440	0.250332	1.404312
H215	H	0.971859	-0.292170	0.464232
H216	H	1.471859	0.207830	0.964232
H217	H	1.406533	-0.271964	0.946645
H218	H	1.906533	0.228036	1.446645
H219	H	1.661762	-1.045043	0.389241
H220	H	2.161762	-0.545043	0.889241
C221	C	1.680829	-0.479332	0.369665
C222	C	2.180829	0.020668	0.869665
N223	N	1.737295	-0.498743	0.313297
N224	N	2.237295	0.001257	0.813297
H225	H	1.346278	-0.829296	0.704030
H226	H	1.846278	-0.329296	1.204030
H227	H	1.729579	-0.603329	0.321122
H228	H	2.229579	-0.103329	0.821122
C229	C	1.395069	-1.051814	0.655485
C230	C	1.895069	-0.551814	1.155485
N231	N	1.338626	-1.071260	0.711854
N232	N	1.838626	-0.571260	1.211854
C233	C	1.681171	-0.953213	0.369770
C234	C	2.181171	-0.453213	0.869770
N235	N	1.737614	-0.933767	0.313402
N236	N	2.237614	-0.433767	0.813402
C237	C	1.395038	-0.953301	0.655510
C238	C	1.895038	-0.453301	1.155510
N239	N	1.338600	-0.933889	0.711906
N240	N	1.838600	-0.433889	1.211906
H241	H	1.346220	-0.744189	0.704009
H242	H	1.846220	-0.244189	1.204009
H243	H	1.346172	-0.688540	0.704015
H244	H	1.846172	-0.188540	1.204015
H245	H	1.414127	-0.472718	0.635932
H246	H	1.914127	0.027282	1.135932
H247	H	1.729690	-0.744076	0.321160
H248	H	2.229690	-0.244076	0.821160
