data_functionalizedCrystal
_audit_creation_method	'MofGen! by Chris Wilmer'
_symmetry_space_group_name_H-M	'P1'
_symmetry_Int_Tables_number	1
_symmetry_cell_setting	triclinic
loop_
_symmetry_equiv_pos_as_xyz
  x,y,z
_cell_length_a	16.959455
_cell_length_b	12.594516
_cell_length_c	16.959447
_cell_angle_alpha	90.026821
_cell_angle_beta	90.014322
_cell_angle_gamma	90.008763
loop_
_atom_site_label
_atom_site_type_symbol
_atom_site_fract_x
_atom_site_fract_y
_atom_site_fract_z
Zn1	Zn	1.208429	-0.423808	0.446928
Zn2	Zn	1.708429	0.076192	0.946928
Zn3	Zn	1.208371	-0.601815	0.314757
Zn4	Zn	1.708371	-0.101815	0.814757
Zn5	Zn	1.076258	-0.423841	0.314765
Zn6	Zn	1.576258	0.076159	0.814765
Zn7	Zn	1.076241	-0.601735	0.446896
Zn8	Zn	1.576241	-0.101735	0.946896
O9	O	1.142325	-0.512800	0.380837
O10	O	1.642325	-0.012800	0.880837
O11	O	1.319032	-0.447440	0.429405
O12	O	1.819032	0.052560	0.929405
O13	O	1.190828	-0.578253	0.204148
O14	O	1.690828	-0.078253	0.704148
O15	O	1.093822	-0.274891	0.332314
O16	O	1.593822	0.225109	0.832314
O17	O	1.318989	-0.578221	0.332300
O18	O	1.818989	-0.078221	0.832300
O19	O	1.190928	-0.274866	0.429413
O20	O	1.690928	0.225134	0.929413
O21	O	1.093765	-0.447497	0.204153
O22	O	1.593765	0.052503	0.704153
O23	O	0.965645	-0.447420	0.332283
O24	O	1.465645	0.052580	0.832283
O25	O	1.093794	-0.578085	0.557511
O26	O	1.593794	-0.078085	1.057511
O27	O	0.965633	-0.578118	0.429359
O28	O	1.465633	-0.078118	0.929359
O29	O	1.190912	-0.447363	0.557535
O30	O	1.690912	0.052637	1.057535
O31	O	1.190812	-0.750750	0.332269
O32	O	1.690812	-0.250750	0.832269
O33	O	1.093737	-0.750692	0.429351
O34	O	1.593737	-0.250692	0.929351
C35	C	0.936958	-0.512765	0.380819
C36	C	1.436958	-0.012765	0.880819
C37	C	0.849102	-0.512775	0.380830
C38	C	1.349102	-0.012775	0.880830
C39	C	1.142288	-0.789341	0.380823
C40	C	1.642288	-0.289341	0.880823
C41	C	1.142345	-0.907646	0.380844
C42	C	1.642345	-0.407646	0.880844
C43	C	0.477608	-0.444690	0.330395
C44	C	0.977608	0.055310	0.830395
C45	C	0.477644	-0.580998	0.431324
C46	C	0.977644	-0.080998	0.931324
C47	C	0.560190	-0.580982	0.431319
C48	C	1.060190	-0.080982	0.931319
C49	C	0.601449	-0.512821	0.380850
C50	C	1.101449	-0.012821	0.880850
C51	C	0.560162	-0.444674	0.330387
C52	C	1.060162	0.055326	0.830387
C53	C	0.601484	-0.649135	0.481776
C54	C	1.101484	-0.149135	0.981776
C55	C	0.684035	-0.649123	0.481773
C56	C	1.184035	-0.149123	0.981773
C57	C	0.725295	-0.580955	0.431307
C58	C	1.225295	-0.080955	0.931307
C59	C	0.684002	-0.512806	0.380842
C60	C	1.184002	-0.012806	0.880842
C61	C	0.725261	-0.444644	0.330374
C62	C	1.225261	0.055356	0.830374
C63	C	0.683970	-0.376488	0.279912
C64	C	1.183970	0.123512	0.779912
C65	C	0.601422	-0.376507	0.279922
C66	C	1.101422	0.123493	0.779922
C67	C	0.807843	-0.580937	0.431298
C68	C	1.307843	-0.080937	0.931298
C69	C	0.807815	-0.444629	0.330366
C70	C	1.307815	0.055371	0.830366
C71	C	1.195205	-0.976892	0.328097
C72	C	1.695205	-0.476892	0.828097
C73	C	1.214514	-1.047592	0.400242
C74	C	1.714514	-0.547592	0.900242
C75	C	1.123134	-1.047745	0.308744
C76	C	1.623134	-0.547745	0.808744
C77	C	1.161691	-0.976787	0.453026
C78	C	1.661691	-0.476787	0.953026
C79	C	1.070277	-0.976935	0.361480
C80	C	1.570277	-0.476935	0.861480
C81	C	1.089559	-1.047602	0.433675
C82	C	1.589559	-0.547602	0.933675
C83	C	1.348493	-0.512836	0.380855
C84	C	1.848493	-0.012836	0.880855
C85	C	1.436349	-0.512851	0.380863
C86	C	1.936349	-0.012851	0.880863
C87	C	1.142358	-0.512712	0.587005
C88	C	1.642358	-0.012712	1.087005
C89	C	1.142372	-0.512674	0.674862
C90	C	1.642372	-0.012674	1.174862
C91	C	1.142383	-0.235179	0.380868
C92	C	1.642383	0.264821	0.880868
C93	C	1.142408	-0.116873	0.380881
C94	C	1.642408	0.383127	0.880881
C95	C	1.142337	-0.512811	0.175470
C96	C	1.642337	-0.012811	0.675470
C97	C	1.142477	-0.512548	0.087614
C98	C	1.642477	-0.012548	0.587614
C99	C	1.091901	-0.580623	1.046328
C100	C	1.591901	-0.080623	1.546328
C101	C	1.193031	-0.444501	1.046347
C102	C	1.693031	0.055499	1.546347
C103	C	1.193010	-0.444523	0.963801
C104	C	1.693010	0.055477	1.463801
C105	C	1.142435	-0.512598	0.922515
C106	C	1.642435	-0.012598	1.422515
C107	C	1.091880	-0.580650	0.963774
C108	C	1.591880	-0.080650	1.463774
C109	C	1.243569	-0.376480	0.922536
C110	C	1.743569	0.123520	1.422536
C111	C	1.243550	-0.376501	0.839985
C112	C	1.743550	0.123499	1.339985
C113	C	1.192970	-0.444571	0.798697
C114	C	1.692970	0.055429	1.298697
C115	C	1.142414	-0.512625	0.839961
C116	C	1.642414	-0.012625	1.339961
C117	C	1.091838	-0.580699	0.798675
C118	C	1.591838	-0.080699	1.298675
C119	C	1.041277	-0.648749	0.839938
C120	C	1.541277	-0.148749	1.339938
C121	C	1.041300	-0.648720	0.922486
C122	C	1.541300	-0.148720	1.422486
C123	C	1.192947	-0.444600	0.716148
C124	C	1.692947	0.055400	1.216148
C125	C	1.091817	-0.580726	0.716121
C126	C	1.591817	-0.080726	1.216121
H127	H	0.841401	-0.389116	0.289273
H128	H	1.341401	0.110884	0.789273
H129	H	1.234115	-0.389198	0.682556
H130	H	1.734115	0.110802	1.182556
H131	H	0.717574	-0.320996	0.238817
H132	H	1.217574	0.179004	0.738817
H133	H	0.841459	-0.636432	0.472381
H134	H	1.341459	-0.136432	0.972381
C135	C	1.183778	-0.934863	0.535443
C136	C	1.683778	-0.434863	1.035443
N137	N	1.200418	-0.903283	0.597517
N138	N	1.700418	-0.403283	1.097517
H139	H	0.443985	-0.389196	0.289312
H140	H	0.943985	0.110804	0.789312
H141	H	1.106860	-1.078913	0.247755
H142	H	1.606860	-0.578913	0.747755
C143	C	0.555996	-0.301546	0.224416
C144	C	1.055996	0.198454	0.724416
N145	N	0.521778	-0.245089	0.182607
N146	N	1.021778	0.254911	0.682607
H147	H	1.000138	-0.704125	0.956090
H148	H	1.500138	-0.204125	1.456090
H149	H	0.444047	-0.636498	0.472408
H150	H	0.944047	-0.136498	0.972408
H151	H	1.050733	-0.636024	1.079928
H152	H	1.550733	-0.136024	1.579928
H153	H	0.567885	-0.704636	0.522859
H154	H	1.067885	-0.204636	1.022859
C155	C	0.729447	-0.724092	0.537284
C156	C	1.229447	-0.224092	1.037284
N157	N	0.763652	-0.780557	0.579097
N158	N	1.263652	-0.280557	1.079097
C159	C	1.296884	-1.089533	0.422394
C160	C	1.796884	-0.589533	0.922394
N161	N	1.358927	-1.121121	0.439073
N162	N	1.858927	-0.621121	0.939073
H163	H	1.239914	-0.945844	0.283531
H164	H	1.739914	-0.445844	0.783531
H165	H	1.044884	-1.078454	0.478348
H166	H	1.544884	-0.578454	0.978348
C167	C	0.987933	-0.934956	0.339292
C168	C	1.487933	-0.434956	0.839292
N169	N	0.925912	-0.903333	0.322570
N170	N	1.425912	-0.403333	0.822570
H171	H	1.050625	-0.636152	0.682511
H172	H	1.550625	-0.136152	1.182511
H173	H	1.000102	-0.704180	0.806311
H174	H	1.500102	-0.204180	1.306311
H175	H	1.234211	-0.389083	1.079968
H176	H	1.734211	0.110917	1.579968
H177	H	1.284749	-0.321064	0.956157
H178	H	1.784749	0.178936	1.456157
C179	C	1.299160	-0.301635	0.794603
C180	C	1.799160	0.198365	1.294603
N181	N	1.341043	-0.245240	0.760421
N182	N	1.841043	0.254760	1.260421
