data_functionalizedCrystal
_audit_creation_method	'MofGen! by Chris Wilmer'
_symmetry_space_group_name_H-M	'P1'
_symmetry_Int_Tables_number	1
_symmetry_cell_setting	triclinic
loop_
_symmetry_equiv_pos_as_xyz
  x,y,z
_cell_length_a	27.732048
_cell_length_b	27.732046
_cell_length_c	26.809956
_cell_angle_alpha	89.963902
_cell_angle_beta	89.998605
_cell_angle_gamma	97.357683
loop_
_atom_site_label
_atom_site_type_symbol
_atom_site_fract_x
_atom_site_fract_y
_atom_site_fract_z
O1	O	0.640924	-0.057535	0.041422
O2	O	0.890924	0.192465	0.291422
O3	O	1.140924	0.442465	0.541422
O4	O	1.390924	0.692465	0.791422
O5	O	0.500131	-0.066280	0.041438
O6	O	0.750131	0.183720	0.291438
O7	O	1.000131	0.433720	0.541438
O8	O	1.250131	0.683720	0.791438
O9	O	0.574901	0.008489	0.041418
O10	O	0.824901	0.258489	0.291418
O11	O	1.074901	0.508489	0.541418
O12	O	1.324901	0.758489	0.791418
O13	O	0.566154	-0.132304	0.041442
O14	O	0.816154	0.117696	0.291442
O15	O	1.066154	0.367696	0.541442
O16	O	1.316154	0.617696	0.791442
O17	O	0.574899	0.008527	-0.041541
O18	O	0.824899	0.258527	0.208459
O19	O	1.074899	0.508527	0.458459
O20	O	1.324899	0.758527	0.708459
O21	O	0.500129	-0.066242	-0.041521
O22	O	0.750129	0.183758	0.208479
O23	O	1.000129	0.433758	0.458479
O24	O	1.250129	0.683758	0.708479
O25	O	0.640923	-0.057497	-0.041537
O26	O	0.890923	0.192503	0.208463
O27	O	1.140923	0.442503	0.458463
O28	O	1.390923	0.692503	0.708463
Zn29	Zn	0.570526	-0.061864	-0.054701
Zn30	Zn	0.820526	0.188136	0.195299
Zn31	Zn	1.070526	0.438136	0.445299
Zn32	Zn	1.320526	0.688136	0.695299
Zn33	Zn	0.570528	-0.061914	0.054602
Zn34	Zn	0.820528	0.188086	0.304602
Zn35	Zn	1.070528	0.438086	0.554602
Zn36	Zn	1.320528	0.688086	0.804602
O37	O	0.566153	-0.132266	-0.041517
O38	O	0.816153	0.117734	0.208483
O39	O	1.066153	0.367734	0.458483
O40	O	1.316153	0.617734	0.708483
C41	C	0.482123	-0.066078	-0.000040
C42	C	0.732123	0.183922	0.249960
C43	C	0.982123	0.433922	0.499960
C44	C	1.232123	0.683922	0.749960
C45	C	0.428468	-0.065525	-0.000034
C46	C	0.678468	0.184475	0.249966
C47	C	0.928468	0.434475	0.499966
C48	C	1.178468	0.684475	0.749966
C49	C	0.089653	-0.106229	-0.000049
C50	C	0.339653	0.143771	0.249951
C51	C	0.589653	0.393771	0.499951
C52	C	0.839653	0.643771	0.749951
C53	C	-0.112007	-0.104178	-0.000054
C54	C	0.137993	0.145822	0.249946
C55	C	0.387993	0.395822	0.499946
C56	C	0.637993	0.645822	0.749946
O57	O	-0.143262	-0.141399	-0.000069
O58	O	0.106738	0.108601	0.249931
O59	O	0.356738	0.358601	0.499931
O60	O	0.606738	0.608601	0.749931
N61	N	-0.131130	-0.059843	-0.000060
N62	N	0.118870	0.190157	0.249940
N63	N	0.368870	0.440157	0.499940
N64	N	0.618870	0.690157	0.749940
C65	C	-0.099835	-0.016017	-0.000069
C66	C	0.150165	0.233983	0.249931
C67	C	0.400165	0.483983	0.499931
C68	C	0.650165	0.733983	0.749931
O69	O	-0.120728	0.021740	-0.000079
O70	O	0.129272	0.271740	0.249921
O71	O	0.379272	0.521740	0.499921
O72	O	0.629272	0.771740	0.749921
C73	C	0.101823	-0.018068	-0.000067
C74	C	0.351823	0.231932	0.249933
C75	C	0.601823	0.481932	0.499933
C76	C	0.851823	0.731932	0.749933
C77	C	0.120944	-0.062407	-0.000056
C78	C	0.370944	0.187593	0.249944
C79	C	0.620944	0.437593	0.499944
C80	C	0.870944	0.687593	0.749944
C81	C	0.108774	-0.150563	-0.000038
C82	C	0.358774	0.099437	0.249962
C83	C	0.608774	0.349437	0.499962
C84	C	0.858774	0.599437	0.749962
C85	C	0.159186	-0.151076	-0.000034
C86	C	0.409186	0.098924	0.249966
C87	C	0.659186	0.348924	0.499966
C88	C	0.909186	0.598924	0.749966
C89	C	0.190477	-0.107253	-0.000041
C90	C	0.440477	0.142747	0.249959
C91	C	0.690477	0.392747	0.499959
C92	C	0.940477	0.642747	0.749959
C93	C	0.171356	-0.062919	-0.000052
C94	C	0.421356	0.187081	0.249948
C95	C	0.671356	0.437081	0.499948
C96	C	0.921356	0.687081	0.749948
C97	C	0.133117	0.025757	-0.000080
C98	C	0.383117	0.275757	0.249920
C99	C	0.633117	0.525757	0.499920
C100	C	0.883117	0.775757	0.749920
C101	C	0.183535	0.025240	-0.000081
C102	C	0.433535	0.275240	0.249919
C103	C	0.683535	0.525240	0.499919
C104	C	0.933535	0.775240	0.749919
C105	C	0.202655	-0.019098	-0.000069
C106	C	0.452655	0.230902	0.249931
C107	C	0.702655	0.480902	0.499931
C108	C	0.952655	0.730902	0.749931
C109	C	0.253059	-0.019609	-0.000055
C110	C	0.503059	0.230391	0.249945
C111	C	0.753059	0.480391	0.499945
C112	C	1.003059	0.730391	0.749945
N113	N	0.272182	-0.063944	-0.000049
N114	N	0.522182	0.186056	0.249951
N115	N	0.772182	0.436056	0.499951
N116	N	1.022182	0.686056	0.749951
C117	C	0.240891	-0.107766	-0.000042
C118	C	0.490891	0.142234	0.249958
C119	C	0.740891	0.392234	0.499958
C120	C	0.990891	0.642234	0.749958
C121	C	-0.205709	-0.014943	-0.000068
C122	C	0.044291	0.235057	0.249932
C123	C	0.294291	0.485057	0.499932
C124	C	0.544291	0.735057	0.749932
C125	C	-0.256124	-0.014430	-0.000068
C126	C	-0.006124	0.235570	0.249932
C127	C	0.243876	0.485570	0.499932
C128	C	0.493876	0.735570	0.749932
C129	C	-0.268292	-0.102591	-0.000054
C130	C	-0.018292	0.147409	0.249946
C131	C	0.231708	0.397409	0.499946
C132	C	0.481708	0.647409	0.749946
C133	C	-0.217876	-0.103104	-0.000051
C134	C	0.032124	0.146896	0.249949
C135	C	0.282124	0.396896	0.499949
C136	C	0.532124	0.646896	0.749949
C137	C	-0.186586	-0.059278	-0.000062
C138	C	0.063414	0.190722	0.249938
C139	C	0.313414	0.440722	0.499938
C140	C	0.563414	0.690722	0.749938
C141	C	0.346760	-0.108839	-0.000033
C142	C	0.596760	0.141161	0.249967
C143	C	0.846760	0.391161	0.499967
C144	C	1.096760	0.641161	0.749967
C145	C	0.397177	-0.109347	-0.000027
C146	C	0.647177	0.140653	0.249973
C147	C	0.897177	0.390653	0.499973
C148	C	1.147177	0.640653	0.749973
C149	C	0.409341	-0.021186	-0.000044
C150	C	0.659341	0.228814	0.249956
C151	C	0.909341	0.478814	0.499956
C152	C	1.159341	0.728814	0.749956
C153	C	0.358928	-0.020678	-0.000047
C154	C	0.608928	0.229322	0.249953
C155	C	0.858928	0.479322	0.499953
C156	C	1.108928	0.729322	0.749953
C157	C	0.327639	-0.064508	-0.000043
C158	C	0.577639	0.185492	0.249957
C159	C	0.827639	0.435492	0.499957
C160	C	1.077639	0.685492	0.749957
O161	O	0.284343	0.017592	-0.000045
O162	O	0.534343	0.267592	0.249955
O163	O	0.784343	0.517592	0.499955
O164	O	1.034343	0.767592	0.749955
O165	O	0.261794	-0.145518	-0.000042
O166	O	0.511794	0.104482	0.249958
O167	O	0.761794	0.354482	0.499958
O168	O	1.011794	0.604482	0.749958
C169	C	0.039241	-0.105717	-0.000053
C170	C	0.289241	0.144283	0.249947
C171	C	0.539241	0.394283	0.499947
C172	C	0.789241	0.644283	0.749947
C173	C	0.020120	-0.061382	-0.000064
C174	C	0.270120	0.188618	0.249936
C175	C	0.520120	0.438618	0.499936
C176	C	0.770120	0.688618	0.749936
C177	C	0.051411	-0.017560	-0.000071
C178	C	0.301411	0.232440	0.249929
C179	C	0.551411	0.482440	0.499929
C180	C	0.801411	0.732440	0.749929
C181	C	-0.030294	-0.060869	-0.000063
C182	C	0.219706	0.189131	0.249937
C183	C	0.469706	0.439131	0.499937
C184	C	0.719706	0.689131	0.749937
C185	C	-0.061585	-0.104691	-0.000056
C186	C	0.188415	0.145309	0.249944
C187	C	0.438415	0.395309	0.499944
C188	C	0.688415	0.645309	0.749944
C189	C	-0.042462	-0.149026	-0.000050
C190	C	0.207538	0.100974	0.249950
C191	C	0.457538	0.350974	0.499950
C192	C	0.707538	0.600974	0.749950
C193	C	0.007950	-0.149539	-0.000046
C194	C	0.257950	0.100461	0.249954
C195	C	0.507950	0.350461	0.499954
C196	C	0.757950	0.600461	0.749954
C197	C	0.032287	0.026775	-0.000077
C198	C	0.282287	0.276775	0.249923
C199	C	0.532287	0.526775	0.499923
C200	C	0.782287	0.776775	0.749923
C201	C	-0.018125	0.027284	-0.000081
C202	C	0.231875	0.277284	0.249919
C203	C	0.481875	0.527284	0.499919
C204	C	0.731875	0.777284	0.749919
C205	C	-0.049416	-0.016538	-0.000074
C206	C	0.200584	0.233462	0.249926
C207	C	0.450584	0.483462	0.499926
C208	C	0.700584	0.733462	0.749926
C209	C	0.574717	0.026515	-0.000063
C210	C	0.824717	0.276515	0.249937
C211	C	1.074717	0.526515	0.499937
C212	C	1.324717	0.776515	0.749937
C213	C	0.574164	0.080170	-0.000068
C214	C	0.824164	0.330170	0.249932
C215	C	1.074164	0.580170	0.499932
C216	C	1.324164	0.830170	0.749932
C217	C	0.614870	0.418985	-0.000056
C218	C	0.864870	0.668985	0.249944
C219	C	1.114870	0.918985	0.499944
C220	C	1.364870	1.168985	0.749944
C221	C	0.612820	0.620645	-0.000053
C222	C	0.862820	0.870645	0.249947
C223	C	1.112820	1.120645	0.499947
C224	C	1.362820	1.370645	0.749947
O225	O	0.650041	0.651901	-0.000037
O226	O	0.900041	0.901901	0.249963
O227	O	1.150041	1.151901	0.499963
O228	O	1.400041	1.401901	0.749963
N229	N	0.568485	0.639769	-0.000049
N230	N	0.818485	0.889769	0.249951
N231	N	1.068485	1.139769	0.499951
N232	N	1.318485	1.389769	0.749951
C233	C	0.524659	0.608474	-0.000043
C234	C	0.774659	0.858474	0.249957
C235	C	1.024659	1.108474	0.499957
C236	C	1.274659	1.358474	0.749957
O237	O	0.486902	0.629367	-0.000034
O238	O	0.736902	0.879367	0.249966
O239	O	0.986902	1.129367	0.499966
O240	O	1.236902	1.379367	0.749966
C241	C	0.526710	0.406815	-0.000041
C242	C	0.776710	0.656815	0.249959
C243	C	1.026710	0.906815	0.499959
C244	C	1.276710	1.156815	0.749959
C245	C	0.571047	0.387695	-0.000050
C246	C	0.821047	0.637695	0.249950
C247	C	1.071047	0.887695	0.499950
C248	C	1.321047	1.137695	0.749950
C249	C	0.659204	0.399864	-0.000064
C250	C	0.909204	0.649864	0.249936
C251	C	1.159204	0.899864	0.499936
C252	C	1.409204	1.149864	0.749936
C253	C	0.659716	0.349452	-0.000067
C254	C	0.909716	0.599452	0.249933
C255	C	1.159716	0.849452	0.499933
C256	C	1.409716	1.099452	0.749933
C257	C	0.615894	0.318161	-0.000062
C258	C	0.865894	0.568161	0.249938
C259	C	1.115894	0.818161	0.499938
C260	C	1.365894	1.068161	0.749938
C261	C	0.571559	0.337283	-0.000054
C262	C	0.821559	0.587283	0.249946
C263	C	1.071559	0.837283	0.499946
C264	C	1.321559	1.087283	0.749946
C265	C	0.482884	0.375522	-0.000031
C266	C	0.732884	0.625522	0.249969
C267	C	0.982884	0.875522	0.499969
C268	C	1.232884	1.125522	0.749969
C269	C	0.483401	0.325104	-0.000029
C270	C	0.733401	0.575104	0.249971
C271	C	0.983401	0.825104	0.499971
C272	C	1.233401	1.075104	0.749971
C273	C	0.527739	0.305984	-0.000038
C274	C	0.777739	0.555984	0.249962
C275	C	1.027739	0.805984	0.499962
C276	C	1.277739	1.055984	0.749962
C277	C	0.528249	0.255580	-0.000052
C278	C	0.778249	0.505580	0.249948
C279	C	1.028249	0.755580	0.499948
C280	C	1.278249	1.005580	0.749948
N281	N	0.572584	0.236456	-0.000056
N282	N	0.822584	0.486456	0.249944
N283	N	1.072584	0.736456	0.499944
N284	N	1.322584	0.986456	0.749944
C285	C	0.616407	0.267747	-0.000061
C286	C	0.866407	0.517747	0.249939
C287	C	1.116407	0.767747	0.499939
C288	C	1.366407	1.017747	0.749939
C289	C	0.523586	0.714348	-0.000044
C290	C	0.773586	0.964348	0.249956
C291	C	1.023586	1.214348	0.499956
C292	C	1.273586	1.464348	0.749956
C293	C	0.523073	0.764763	-0.000045
C294	C	0.773073	1.014763	0.249955
C295	C	1.023073	1.264763	0.499955
C296	C	1.273073	1.514763	0.749955
C297	C	0.611234	0.776930	-0.000055
C298	C	0.861234	1.026930	0.249945
C299	C	1.111234	1.276930	0.499945
C300	C	1.361234	1.526930	0.749945
C301	C	0.611746	0.726515	-0.000058
C302	C	0.861746	0.976515	0.249942
C303	C	1.111746	1.226515	0.499942
C304	C	1.361746	1.476515	0.749942
C305	C	0.567921	0.695225	-0.000048
C306	C	0.817921	0.945225	0.249952
C307	C	1.067921	1.195225	0.499952
C308	C	1.317921	1.445225	0.749952
C309	C	0.617478	0.161878	-0.000068
C310	C	0.867478	0.411878	0.249932
C311	C	1.117478	0.661878	0.499932
C312	C	1.367478	0.911878	0.749932
C313	C	0.617986	0.111461	-0.000074
C314	C	0.867986	0.361461	0.249926
C315	C	1.117986	0.611461	0.499926
C316	C	1.367986	0.861461	0.749926
C317	C	0.529826	0.099298	-0.000061
C318	C	0.779826	0.349298	0.249939
C319	C	1.029826	0.599298	0.499939
C320	C	1.279826	0.849298	0.749939
C321	C	0.529317	0.149710	-0.000058
C322	C	0.779317	0.399710	0.249942
C323	C	1.029317	0.649710	0.499942
C324	C	1.279317	0.899710	0.749942
C325	C	0.573148	0.181000	-0.000060
C326	C	0.823148	0.431000	0.249940
C327	C	1.073148	0.681000	0.499940
C328	C	1.323148	0.931000	0.749940
O329	O	0.491048	0.224296	-0.000063
O330	O	0.741048	0.474296	0.249937
O331	O	0.991048	0.724296	0.499937
O332	O	1.241048	0.974296	0.749937
O333	O	0.654158	0.246844	-0.000059
O334	O	0.904158	0.496844	0.249941
O335	O	1.154158	0.746844	0.499941
O336	O	1.404158	0.996844	0.749941
C337	C	0.614358	0.469397	-0.000052
C338	C	0.864358	0.719397	0.249948
C339	C	1.114358	0.969397	0.499948
C340	C	1.364358	1.219397	0.749948
C341	C	0.570024	0.488519	-0.000044
C342	C	0.820024	0.738519	0.249956
C343	C	1.070024	0.988519	0.499956
C344	C	1.320024	1.238519	0.749956
C345	C	0.526201	0.457228	-0.000039
C346	C	0.776201	0.707228	0.249961
C347	C	1.026201	0.957228	0.499961
C348	C	1.276201	1.207228	0.749961
C349	C	0.569511	0.538933	-0.000045
C350	C	0.819511	0.788933	0.249955
C351	C	1.069511	1.038933	0.499955
C352	C	1.319511	1.288933	0.749955
C353	C	0.613333	0.570224	-0.000050
C354	C	0.863333	0.820224	0.249950
C355	C	1.113333	1.070224	0.499950
C356	C	1.363333	1.320224	0.749950
C357	C	0.657668	0.551100	-0.000054
C358	C	0.907668	0.801100	0.249946
C359	C	1.157668	1.051100	0.499946
C360	C	1.407668	1.301100	0.749946
C361	C	0.658180	0.500688	-0.000058
C362	C	0.908180	0.750688	0.249942
C363	C	1.158180	1.000688	0.499942
C364	C	1.408180	1.250688	0.749942
C365	C	0.481866	0.476352	-0.000034
C366	C	0.731866	0.726352	0.249966
C367	C	0.981866	0.976352	0.499966
C368	C	1.231866	1.226352	0.749966
C369	C	0.481358	0.526764	-0.000032
C370	C	0.731358	0.776764	0.249968
C371	C	0.981358	1.026764	0.499968
C372	C	1.231358	1.276764	0.749968
C373	C	0.525180	0.558055	-0.000037
C374	C	0.775180	0.808055	0.249963
C375	C	1.025180	1.058055	0.499963
C376	C	1.275180	1.308055	0.749963
C377	C	0.658931	-0.057699	-0.000058
C378	C	0.908931	0.192301	0.249942
C379	C	1.158931	0.442301	0.499942
C380	C	1.408931	0.692301	0.749942
C381	C	0.712585	-0.058252	-0.000061
C382	C	0.962585	0.191748	0.249939
C383	C	1.212585	0.441748	0.499939
C384	C	1.462585	0.691748	0.749939
N385	N	0.570528	-0.061829	-0.129297
N386	N	0.820528	0.188171	0.120703
N387	N	1.070528	0.438171	0.370703
N388	N	1.320528	0.688171	0.620703
C389	C	0.566339	0.849708	-0.000041
C390	C	0.816339	1.099708	0.249959
C391	C	1.066339	1.349708	0.499959
C392	C	1.316339	1.599708	0.749959
C393	C	0.566896	0.796054	-0.000051
C394	C	0.816896	1.046054	0.249949
C395	C	1.066896	1.296054	0.499949
C396	C	1.316896	1.546054	0.749949
N397	N	0.570529	-0.061944	0.129198
N398	N	0.820529	0.188056	0.379198
N399	N	1.070529	0.438056	0.629198
N400	N	1.320529	0.688056	0.879198
C401	C	0.599571	-0.091059	0.526088
C402	C	0.849571	0.158941	0.776088
C403	C	1.099571	0.408941	1.026088
C404	C	1.349571	0.658941	1.276088
C405	C	0.599568	-0.091092	0.317211
C406	C	0.849568	0.158908	0.567211
C407	C	1.099568	0.408908	0.817211
C408	C	1.349568	0.658908	1.067211
O409	O	0.624272	-0.115896	0.290216
O410	O	0.874272	0.134104	0.540216
O411	O	1.124272	0.384104	0.790216
O412	O	1.374272	0.634104	1.040216
N413	N	0.570535	-0.061917	0.291076
N414	N	0.820535	0.188083	0.541076
N415	N	1.070535	0.438083	0.791076
N416	N	1.320535	0.688083	1.041076
C417	C	0.541502	-0.032730	0.317164
C418	C	0.791502	0.217270	0.567164
C419	C	1.041502	0.467270	0.817164
C420	C	1.291502	0.717270	1.067164
O421	O	0.516811	-0.007912	0.290143
O422	O	0.766811	0.242088	0.540143
O423	O	1.016811	0.492088	0.790143
O424	O	1.266811	0.742088	1.040143
C425	C	0.541509	-0.032695	0.526041
C426	C	0.791509	0.217305	0.776041
C427	C	1.041509	0.467305	1.026041
C428	C	1.291509	0.717305	1.276041
C429	C	0.570540	-0.061875	0.552173
C430	C	0.820540	0.188125	0.802173
C431	C	1.070540	0.438125	1.052173
C432	C	1.320540	0.688125	1.302173
C433	C	0.628601	-0.120236	0.552220
C434	C	0.878601	0.129764	0.802220
C435	C	1.128601	0.379764	1.052220
C436	C	1.378601	0.629764	1.302220
C437	C	0.628599	-0.120229	0.604436
C438	C	0.878599	0.129771	0.854436
C439	C	1.128599	0.379771	1.104436
C440	C	1.378599	0.629771	1.354436
C441	C	0.599568	-0.091046	0.630521
C442	C	0.849568	0.158954	0.880521
C443	C	1.099568	0.408954	1.130521
C444	C	1.349568	0.658954	1.380521
C445	C	0.570539	-0.061868	0.604389
C446	C	0.820539	0.188132	0.854389
C447	C	1.070539	0.438132	1.104389
C448	C	1.320539	0.688132	1.354389
C449	C	0.512479	-0.003505	0.552129
C450	C	0.762479	0.246495	0.802129
C451	C	1.012479	0.496495	1.052129
C452	C	1.262479	0.746495	1.302129
C453	C	0.512485	-0.003498	0.604351
C454	C	0.762485	0.246502	0.854351
C455	C	1.012485	0.496502	1.104351
C456	C	1.262485	0.746502	1.354351
C457	C	0.541516	-0.032678	0.630483
C458	C	0.791516	0.217322	0.880483
C459	C	1.041516	0.467322	1.130483
C460	C	1.291516	0.717322	1.380483
C461	C	0.541506	-0.032678	0.682690
C462	C	0.791506	0.217322	0.932690
C463	C	1.041506	0.467322	1.182690
C464	C	1.291506	0.717322	1.432690
N465	N	0.570540	-0.061852	0.708824
N466	N	0.820540	0.188148	0.958824
N467	N	1.070540	0.438148	1.208824
N468	N	1.320540	0.688148	1.458824
C469	C	0.599571	-0.091036	0.682740
C470	C	0.849571	0.158964	0.932740
C471	C	1.099571	0.408964	1.182740
C472	C	1.349571	0.658964	1.432740
C473	C	0.541500	-0.032751	0.207501
C474	C	0.791500	0.217249	0.457501
C475	C	1.041500	0.467249	0.707501
C476	C	1.291500	0.717249	0.957501
C477	C	0.541498	-0.032760	0.155282
C478	C	0.791498	0.217240	0.405282
C479	C	1.041498	0.467240	0.655282
C480	C	1.291498	0.717240	0.905282
C481	C	0.599564	-0.091122	0.155332
C482	C	0.849564	0.158878	0.405332
C483	C	1.099564	0.408878	0.655332
C484	C	1.349564	0.658878	0.905332
C485	C	0.599564	-0.091114	0.207552
C486	C	0.849564	0.158886	0.457552
C487	C	1.099564	0.408886	0.707552
C488	C	1.349564	0.658886	0.957552
C489	C	0.570534	-0.061926	0.233636
C490	C	0.820534	0.188074	0.483636
C491	C	1.070534	0.438074	0.733636
C492	C	1.320534	0.688074	0.983636
C493	C	0.599565	-0.091021	0.792398
C494	C	0.849565	0.158979	1.042398
C495	C	1.099565	0.408979	1.292398
C496	C	1.349565	0.658979	1.542398
C497	C	0.599559	-0.091013	0.844619
C498	C	0.849559	0.158987	1.094619
C499	C	1.099559	0.408987	1.344619
C500	C	1.349559	0.658987	1.594619
C501	C	0.541495	-0.032650	0.844564
C502	C	0.791495	0.217350	1.094564
C503	C	1.041495	0.467350	1.344564
C504	C	1.291495	0.717350	1.594564
C505	C	0.541499	-0.032659	0.792348
C506	C	0.791499	0.217341	1.042348
C507	C	1.041499	0.467341	1.292348
C508	C	1.291499	0.717341	1.542348
C509	C	0.570537	-0.061846	0.766266
C510	C	0.820537	0.188154	1.016266
C511	C	1.070537	0.438154	1.266266
C512	C	1.320537	0.688154	1.516266
O513	O	0.516819	-0.007883	0.709717
O514	O	0.766819	0.242117	0.959717
O515	O	1.016819	0.492117	1.209717
O516	O	1.266819	0.742117	1.459717
O517	O	0.624266	-0.115842	0.709770
O518	O	0.874266	0.134158	0.959770
O519	O	1.124266	0.384158	1.209770
O520	O	1.374266	0.634158	1.459770
C521	C	0.599573	-0.091065	0.473872
C522	C	0.849573	0.158935	0.723872
C523	C	1.099573	0.408935	0.973872
C524	C	1.349573	0.658935	1.223872
C525	C	0.570543	-0.061888	0.447740
C526	C	0.820543	0.188112	0.697740
C527	C	1.070543	0.438112	0.947740
C528	C	1.320543	0.688112	1.197740
C529	C	0.541512	-0.032704	0.473825
C530	C	0.791512	0.217296	0.723825
C531	C	1.041512	0.467296	0.973825
C532	C	1.291512	0.717296	1.223825
C533	C	0.570541	-0.061897	0.395521
C534	C	0.820541	0.188103	0.645521
C535	C	1.070541	0.438103	0.895521
C536	C	1.320541	0.688103	1.145521
C537	C	0.599572	-0.091081	0.369437
C538	C	0.849572	0.158919	0.619437
C539	C	1.099572	0.408919	0.869437
C540	C	1.349572	0.658919	1.119437
C541	C	0.628605	-0.120256	0.395571
C542	C	0.878605	0.129744	0.645571
C543	C	1.128605	0.379744	0.895571
C544	C	1.378605	0.629744	1.145571
C545	C	0.628604	-0.120249	0.447787
C546	C	0.878604	0.129751	0.697787
C547	C	1.128604	0.379751	0.947787
C548	C	1.378604	0.629751	1.197787
C549	C	0.512479	-0.003529	0.447691
C550	C	0.762479	0.246471	0.697691
C551	C	1.012479	0.496471	0.947691
C552	C	1.262479	0.746471	1.197691
C553	C	0.512482	-0.003539	0.395474
C554	C	0.762482	0.246461	0.645474
C555	C	1.012482	0.496461	0.895474
C556	C	1.262482	0.746461	1.145474
C557	C	0.541513	-0.032723	0.369390
C558	C	0.791513	0.217277	0.619390
C559	C	1.041513	0.467277	0.869390
C560	C	1.291513	0.717277	1.119390
H561	H	0.057760	0.062462	-0.000084
H562	H	0.307760	0.312462	0.249916
H563	H	0.557760	0.562462	0.499916
H564	H	0.807760	0.812462	0.749916
Br565	Br	-0.282066	0.045745	-0.000068
Br566	Br	-0.032066	0.295745	0.249932
Br567	Br	0.217934	0.545745	0.499932
Br568	Br	0.467934	0.795745	0.749932
Br569	Br	0.473075	0.036063	0.360016
Br570	Br	0.723075	0.286063	0.610016
Br571	Br	0.973075	0.536063	0.860016
Br572	Br	1.223075	0.786063	1.110016
Br573	Br	0.422386	0.433893	-0.000025
Br574	Br	0.672386	0.683893	0.249975
Br575	Br	0.922386	0.933893	0.499975
Br576	Br	1.172386	1.183893	0.749975
H577	H	0.494147	0.073812	-0.000059
H578	H	0.744147	0.323812	0.249941
H579	H	0.994147	0.573812	0.499941
H580	H	1.244147	0.823812	0.749941
H581	H	0.652241	-0.144021	0.374324
H582	H	0.902241	0.105979	0.624324
H583	H	1.152241	0.355979	0.874324
H584	H	1.402241	0.605979	1.124324
Br585	Br	-0.310767	-0.162064	-0.000045
Br586	Br	-0.060767	0.087936	0.249955
Br587	Br	0.189233	0.337936	0.499955
Br588	Br	0.439233	0.587936	0.749955
H589	H	0.694285	0.485125	-0.000065
H590	H	0.944285	0.735125	0.249935
H591	H	1.194285	0.985125	0.499935
H592	H	1.444285	1.235125	0.749935
Br593	Br	0.668006	-0.159848	0.516829
Br594	Br	0.918006	0.090152	0.766829
Br595	Br	1.168006	0.340152	1.016829
Br596	Br	1.418006	0.590152	1.266829
Br597	Br	0.033891	-0.209715	-0.000029
Br598	Br	0.283891	0.040285	0.249971
Br599	Br	0.533891	0.290285	0.499971
Br600	Br	0.783891	0.540285	0.749971
H601	H	0.653169	0.187348	-0.000068
H602	H	0.903169	0.437348	0.249932
H603	H	1.153169	0.687348	0.499932
H604	H	1.403169	0.937348	0.749932
Br605	Br	0.638975	-0.130631	0.757009
Br606	Br	0.888975	0.119369	1.007009
Br607	Br	1.138975	0.369369	1.257009
Br608	Br	1.388975	0.619369	1.507009
Br609	Br	0.423920	0.282641	-0.000014
Br610	Br	0.673920	0.532641	0.249986
Br611	Br	0.923920	0.782641	0.499986
Br612	Br	1.173920	1.032641	0.749986
H613	H	0.647850	0.710951	-0.000065
H614	H	0.897850	0.960951	0.249935
H615	H	1.147850	1.210951	0.499935
H616	H	1.397850	1.460951	0.749935
Br617	Br	0.638964	-0.130727	0.119921
Br618	Br	0.888964	0.119273	0.369921
Br619	Br	1.138964	0.369273	0.619921
Br620	Br	1.388964	0.619273	0.869921
Br621	Br	-0.084938	-0.208499	-0.000036
Br622	Br	0.165062	0.041501	0.249964
Br623	Br	0.415062	0.291501	0.499964
Br624	Br	0.665062	0.541501	0.749964
Br625	Br	-0.191933	-0.163279	-0.000035
Br626	Br	0.058067	0.086721	0.249965
Br627	Br	0.308067	0.336721	0.499965
Br628	Br	0.558067	0.586721	0.749965
H629	H	-0.033688	0.063392	-0.000086
H630	H	0.216312	0.313392	0.249914
H631	H	0.466312	0.563392	0.499914
H632	H	0.716312	0.813392	0.749914
H633	H	0.488845	0.020272	0.625586
H634	H	0.738845	0.270272	0.875586
H635	H	0.988845	0.520272	1.125586
H636	H	1.238845	0.770272	1.375586
H637	H	0.517859	-0.008981	0.228734
H638	H	0.767859	0.241019	0.478734
H639	H	1.017859	0.491019	0.728734
H640	H	1.267859	0.741019	0.978734
H641	H	0.693350	0.576586	-0.000061
H642	H	0.943350	0.826586	0.249939
H643	H	1.193350	1.076586	0.499939
H644	H	1.443350	1.326586	0.749939
H645	H	0.517853	-0.008905	0.771071
H646	H	0.767853	0.241095	1.021071
H647	H	1.017853	0.491095	1.271071
H648	H	1.267853	0.741095	1.521071
H649	H	0.654093	0.095896	-0.000082
H650	H	0.904093	0.345896	0.249918
H651	H	1.154093	0.595896	0.499918
H652	H	1.404093	0.845896	0.749918
H653	H	0.517858	-0.008891	0.865812
H654	H	0.767858	0.241109	1.115812
H655	H	1.017858	0.491109	1.365812
H656	H	1.267858	0.741109	1.615812
H657	H	0.623200	-0.114777	0.865893
H658	H	0.873200	0.135223	1.115893
H659	H	1.123200	0.385223	1.365893
H660	H	1.373200	0.635223	1.615893
Br661	Br	0.469144	0.175661	-0.000058
Br662	Br	0.719144	0.425661	0.249942
Br663	Br	0.969144	0.675661	0.499942
Br664	Br	1.219144	0.925661	0.749942
Br665	Br	0.421179	0.552707	-0.000023
Br666	Br	0.671179	0.802707	0.249977
Br667	Br	0.921179	1.052707	0.499977
Br668	Br	1.171179	1.302707	0.749977
H669	H	0.695821	0.333889	-0.000073
H670	H	0.945821	0.583889	0.249927
H671	H	1.195821	0.833889	0.499927
H672	H	1.445821	1.083889	0.749927
H673	H	0.209010	0.060929	-0.000090
H674	H	0.459010	0.310929	0.249910
H675	H	0.709010	0.560929	0.499910
H676	H	0.959010	0.810929	0.749910
Br677	Br	0.718686	0.442322	-0.000071
Br678	Br	0.968686	0.692322	0.249929
Br679	Br	1.218686	0.942322	0.499929
Br680	Br	1.468686	1.192322	0.749929
Br681	Br	0.473067	0.036074	0.483083
Br682	Br	0.723067	0.286074	0.733083
Br683	Br	0.973067	0.536074	0.983083
Br684	Br	1.223067	0.786074	1.233083
Br685	Br	0.462898	0.790706	-0.000045
Br686	Br	0.712898	1.040706	0.249955
Br687	Br	0.962898	1.290706	0.499955
Br688	Br	1.212898	1.540706	0.749955
Br689	Br	0.667992	-0.159843	0.639892
Br690	Br	0.917992	0.090157	0.889892
Br691	Br	1.167992	0.340157	1.139892
Br692	Br	1.417992	0.590157	1.389892
H693	H	0.623203	-0.114876	0.228825
H694	H	0.873203	0.135124	0.478825
H695	H	1.123203	0.385124	0.728825
H696	H	1.373203	0.635124	0.978825
Br697	Br	0.502087	0.006833	0.119824
Br698	Br	0.752087	0.256833	0.369824
Br699	Br	1.002087	0.506833	0.619824
Br700	Br	1.252087	0.756833	0.869824
H701	H	0.646916	0.802416	-0.000060
H702	H	0.896916	1.052416	0.249940
H703	H	1.146916	1.302416	0.499940
H704	H	1.396916	1.552416	0.749940
Br705	Br	0.107182	0.085934	-0.000084
Br706	Br	0.357182	0.335934	0.249916
Br707	Br	0.607182	0.585934	0.499916
Br708	Br	0.857182	0.835934	0.749916
H709	H	0.487896	0.688875	-0.000037
H710	H	0.737896	0.938875	0.249963
H711	H	0.987896	1.188875	0.499963
H712	H	1.237896	1.438875	0.749963
H713	H	0.652244	-0.144011	0.469059
H714	H	0.902244	0.105989	0.719059
H715	H	1.152244	0.355989	0.969059
H716	H	1.402244	0.605989	1.219059
Br717	Br	0.423123	-0.169524	-0.000008
Br718	Br	0.673123	0.080476	0.249992
Br719	Br	0.923123	0.330476	0.499992
Br720	Br	1.173123	0.580476	0.749992
Br721	Br	0.304304	-0.168323	-0.000029
Br722	Br	0.554304	0.081677	0.249971
Br723	Br	0.804304	0.331677	0.499971
Br724	Br	1.054304	0.581677	0.749971
H725	H	0.488840	0.020257	0.530861
H726	H	0.738840	0.270257	0.780861
H727	H	0.988840	0.520257	1.030861
H728	H	1.238840	0.770257	1.280861
Br729	Br	0.185127	-0.211252	-0.000021
Br730	Br	0.435127	0.038748	0.249979
Br731	Br	0.685127	0.288748	0.499979
Br732	Br	0.935127	0.538748	0.749979
H733	H	0.343360	0.015426	-0.000049
H734	H	0.593360	0.265426	0.249951
H735	H	0.843360	0.515426	0.499951
H736	H	1.093360	0.765426	0.749951
Br737	Br	-0.163250	0.044540	-0.000084
Br738	Br	0.086750	0.294540	0.249916
Br739	Br	0.336750	0.544540	0.499916
Br740	Br	0.586750	0.794540	0.749916
H741	H	0.446780	0.391081	-0.000020
H742	H	0.696780	0.641081	0.249980
H743	H	0.946780	0.891081	0.499980
H744	H	1.196780	1.141081	0.749980
Br745	Br	0.451816	0.038284	-0.000054
Br746	Br	0.701816	0.288284	0.249946
Br747	Br	0.951816	0.538284	0.499946
Br748	Br	1.201816	0.788284	0.749946
H749	H	0.083301	-0.186251	-0.000034
H750	H	0.333301	0.063749	0.249966
H751	H	0.583301	0.313749	0.499966
H752	H	0.833301	0.563749	0.749966
