data_functionalizedCrystal
_audit_creation_method	'MofGen! by Chris Wilmer'
_symmetry_space_group_name_H-M	'P1'
_symmetry_Int_Tables_number	1
_symmetry_cell_setting	triclinic
loop_
_symmetry_equiv_pos_as_xyz
  x,y,z
_cell_length_a	15.944551
_cell_length_b	9.730223
_cell_length_c	10.654550
_cell_angle_alpha	90.000193
_cell_angle_beta	96.008179
_cell_angle_gamma	90.004286
loop_
_atom_site_label
_atom_site_type_symbol
_atom_site_fract_x
_atom_site_fract_y
_atom_site_fract_z
O1	O	1.115457	-0.114143	-0.161961
O2	O	0.871023	-0.114177	-0.181930
O3	O	0.998860	-0.114154	0.010867
O4	O	0.987620	-0.114166	-0.354757
O5	O	0.998858	0.114426	0.010862
O6	O	0.871021	0.114403	-0.181934
O7	O	1.115455	0.114437	-0.161966
Zn8	Zn	0.993238	0.150712	-0.171951
Zn9	Zn	0.993240	-0.150452	-0.171944
O10	O	0.987618	0.114414	-0.354762
C11	C	0.839723	0.000109	-0.181103
C12	C	0.746463	0.000096	-0.178618
N13	N	0.993243	0.356249	-0.171954
N14	N	0.993242	-0.355988	-0.171931
C15	C	0.530880	0.000127	-0.053173
C16	C	0.470198	-0.112577	-0.111423
C17	C	0.575711	0.000112	-0.174122
C18	C	0.470219	0.112785	-0.111456
C19	C	0.410773	0.000134	-0.169770
C20	C	0.516257	-0.112684	-0.232405
C21	C	0.516284	0.112779	-0.232421
C22	C	0.455620	0.000047	-0.290759
C23	C	0.670728	0.000099	-0.176625
C24	C	0.315757	0.000138	-0.167276
C25	C	1.146755	0.000148	-0.162792
C26	C	1.240015	0.000152	-0.165278
C27	C	0.998034	0.000134	0.057652
C28	C	0.995565	0.000129	0.197063
C29	C	1.049864	0.428185	-0.086613
C30	C	1.049862	0.572068	-0.086598
C31	C	0.936615	0.572066	-0.257276
C32	C	0.936614	0.428185	-0.257285
C33	C	1.115248	0.428187	0.011924
C34	C	1.115246	0.572070	0.011939
C35	C	0.988444	0.000123	-0.401547
C36	C	0.990913	0.000119	-0.540958
C37	C	1.070833	0.000144	0.277522
C38	C	1.068508	0.000134	0.408513
C39	C	0.915639	0.000100	0.378572
C40	C	0.917965	0.000101	0.247584
C41	C	1.159090	0.000169	0.294810
C42	C	1.156765	0.000159	0.425801
H43	H	0.449792	-0.207857	-0.060265
H44	H	0.890501	0.369616	-0.326766
C45	C	0.626093	-0.116929	0.100566
C46	C	0.575076	-0.000012	0.082342
H47	H	0.653384	-0.117012	0.184221
H48	H	0.592232	-0.197014	0.087579
H49	H	0.667273	-0.116038	0.042265
H50	H	0.533893	-0.000909	0.140637
H51	H	0.608940	0.080094	0.095341
C52	C	0.824668	0.557611	-0.425975
C53	C	0.874369	0.651142	-0.351068
H54	H	0.786236	0.606430	-0.483872
H55	H	0.859890	0.501510	-0.471193
H56	H	0.794161	0.501475	-0.373657
H57	H	0.904881	0.707271	-0.403385
H58	H	0.839142	0.707266	-0.305847
H59	H	0.536711	0.208063	-0.283537
H60	H	1.094839	0.616685	0.102898
C61	C	1.193398	0.224219	-0.026380
C62	C	1.197554	0.367937	-0.028365
H63	H	1.244202	0.187025	-0.051282
H64	H	1.186078	0.194057	0.056556
H65	H	1.147101	0.194107	-0.083086
H66	H	1.243848	0.398049	0.028349
H67	H	1.204883	0.398111	-0.111313
C68	C	0.831905	-0.117449	0.082925
C69	C	0.835226	0.000062	0.159145
H70	H	0.780820	-0.117476	0.028335
H71	H	0.878442	-0.117420	0.034088
H72	H	0.834188	-0.197146	0.134666
H73	H	0.832950	0.079760	0.107404
H74	H	0.788677	0.000047	0.207987
H75	H	0.852460	0.000076	0.419722
H76	H	1.179794	0.611129	-0.008744
C77	C	0.504647	-0.241915	-0.425429
C78	C	0.543633	-0.241461	-0.301403
H79	H	0.521555	-0.321412	-0.468021
H80	H	0.445163	-0.242671	-0.424293
H81	H	0.520798	-0.161977	-0.468090
H82	H	0.527477	-0.321394	-0.258738
H83	H	0.603130	-0.240717	-0.302532
C84	C	0.324084	0.001090	-0.422983
C85	C	0.411632	-0.000034	-0.426398
H86	H	0.296928	0.001044	-0.506720
H87	H	0.307613	-0.078205	-0.379711
H88	H	0.308336	0.081212	-0.380219
H89	H	0.427380	-0.080161	-0.469154
H90	H	0.428109	0.079269	-0.469688
C91	C	1.231613	-0.207278	0.363105
C92	C	1.205683	-0.128955	0.255769
H93	H	1.260371	-0.286995	0.338998
H94	H	1.268369	-0.154127	0.419843
H95	H	1.183679	-0.233848	0.403256
H96	H	1.253618	-0.102377	0.215622
H97	H	1.168925	-0.182116	0.199010
H98	H	0.449836	0.208064	-0.060280
C99	C	1.219227	0.221161	0.349449
C100	C	1.196791	0.133580	0.247144
H101	H	1.242433	0.303573	0.320004
H102	H	1.170613	0.242233	0.390226
H103	H	1.259865	0.177079	0.407489
H104	H	1.156148	0.177658	0.189108
H105	H	1.245411	0.112511	0.206346
H106	H	1.100907	0.389134	0.108271
H107	H	1.183439	-0.098532	0.471791
H108	H	1.190019	0.095822	0.467989
