data_functionalizedCrystal
_audit_creation_method	'MofGen! by Chris Wilmer'
_symmetry_space_group_name_H-M	'P1'
_symmetry_Int_Tables_number	1
_symmetry_cell_setting	triclinic
loop_
_symmetry_equiv_pos_as_xyz
  x,y,z
_cell_length_a	10.654554
_cell_length_b	9.730223
_cell_length_c	10.654550
_cell_angle_alpha	89.999807
_cell_angle_beta	84.485873
_cell_angle_gamma	89.999030
loop_
_atom_site_label
_atom_site_type_symbol
_atom_site_fract_x
_atom_site_fract_y
_atom_site_fract_z
O1	O	1.667830	-0.114311	0.176422
O2	O	1.302353	-0.114308	0.193221
O3	O	1.493495	-0.114304	0.002082
O4	O	1.476689	-0.114314	0.367561
O5	O	1.493492	0.114276	0.002087
O6	O	1.302351	0.114272	0.193226
O7	O	1.667828	0.114269	0.176426
Zn8	Zn	1.485089	0.150563	0.184827
Zn9	Zn	1.485092	-0.150601	0.184821
O10	O	1.476686	0.114266	0.367565
C11	C	1.255554	-0.000017	0.191989
C12	C	1.116111	-0.000016	0.188295
C13	C	0.933549	-0.000031	0.068808
C14	C	1.064571	-0.000017	0.072279
C15	C	1.036622	-0.000015	0.300848
C16	C	0.905603	-0.000020	0.297376
C17	C	0.949686	-0.000038	-0.063154
C18	C	1.080708	-0.000024	-0.059684
C19	C	1.492260	-0.000016	-0.044713
C20	C	1.488568	-0.000021	-0.184156
C21	C	1.714627	-0.000024	0.177659
C22	C	1.854070	-0.000034	0.181353
N23	N	1.485096	0.356099	0.184831
N24	N	1.485095	-0.356138	0.184807
C25	C	1.569756	0.428027	0.100223
C26	C	1.569753	0.571910	0.100208
C27	C	1.400426	0.571925	0.269419
C28	C	1.400424	0.428044	0.269427
C29	C	1.667519	0.428019	0.002534
C30	C	1.667516	0.571902	0.002519
C31	C	1.601109	-0.000017	-0.263640
C32	C	1.597632	-0.000027	-0.394661
C33	C	1.369063	-0.000037	-0.366702
C34	C	1.372541	-0.000037	-0.235683
C35	C	1.733072	-0.000005	-0.279784
C36	C	1.729595	-0.000015	-0.410805
C37	C	1.477921	-0.000026	0.414361
C38	C	1.481613	-0.000030	0.553804
H39	H	1.122466	-0.095684	-0.109402
H40	H	1.126345	0.098677	-0.099559
C41	C	1.307292	0.348928	0.362487
H42	H	1.256876	0.412386	0.412873
H43	H	1.254629	0.292797	0.316819
H44	H	1.352921	0.292806	0.415204
H45	H	1.758703	0.383391	0.033124
H46	H	1.637003	0.616520	-0.088704
C47	C	1.093313	-0.000013	0.428463
H48	H	1.182726	-0.000017	0.414414
H49	H	1.066093	0.079693	0.474856
H50	H	1.066105	-0.079738	0.474845
H51	H	0.840895	-0.000006	0.389021
H52	H	1.779316	0.095643	-0.452562
C53	C	0.910006	0.129183	-0.132862
H54	H	0.982596	0.182338	-0.159164
H55	H	0.869221	0.102616	-0.204522
H56	H	0.853734	0.182331	-0.077885
C57	C	1.241442	-0.000055	-0.423380
H58	H	1.174914	-0.000068	-0.357274
H59	H	1.235324	0.079649	-0.473916
H60	H	1.235344	-0.079783	-0.473901
H61	H	1.646076	0.388968	-0.093999
H62	H	0.914059	-0.098734	-0.105177
H63	H	1.280899	-0.000059	-0.170971
C64	C	1.797885	0.624665	0.031593
H65	H	1.851499	0.548727	0.043574
H66	H	1.833624	0.678894	-0.036886
H67	H	1.788955	0.678911	0.106052
H68	H	1.784688	-0.095659	-0.250427
C69	C	1.307302	0.651069	0.362474
H70	H	1.319431	0.747061	0.350357
H71	H	1.223369	0.627487	0.348057
H72	H	1.321675	0.627497	0.446428
H73	H	1.775092	0.098691	-0.244154
H74	H	1.769477	-0.098710	-0.456449
