data_functionalizedCrystal
_audit_creation_method	'MofGen! by Chris Wilmer'
_symmetry_space_group_name_H-M	'P1'
_symmetry_Int_Tables_number	1
_symmetry_cell_setting	triclinic
loop_
_symmetry_equiv_pos_as_xyz
  x,y,z
_cell_length_a	11.792241
_cell_length_b	10.540539
_cell_length_c	10.268362
_cell_angle_alpha	89.996859
_cell_angle_beta	89.999626
_cell_angle_gamma	84.359454
loop_
_atom_site_label
_atom_site_type_symbol
_atom_site_fract_x
_atom_site_fract_y
_atom_site_fract_z
O1	O	1.507362	0.173992	-0.108167
O2	O	2.007362	0.673992	0.391833
O3	O	1.177067	0.191924	-0.108197
O4	O	1.677067	0.691924	0.391803
O5	O	1.349750	-0.001773	-0.108180
O6	O	1.849750	0.498227	0.391820
O7	O	1.334679	0.367689	-0.108184
O8	O	1.834679	0.867689	0.391816
O9	O	1.349735	-0.001781	0.108421
O10	O	1.849735	0.498219	0.608421
O11	O	1.177052	0.191916	0.108404
O12	O	1.677052	0.691916	0.608404
O13	O	1.507347	0.173984	0.108433
O14	O	2.007347	0.673984	0.608433
Cu15	Cu	1.342198	0.182949	0.128196
Cu16	Cu	1.842198	0.682949	0.628196
Cu17	Cu	1.342216	0.182959	-0.127959
Cu18	Cu	1.842216	0.682959	0.372041
O19	O	1.334664	0.367681	0.108416
O20	O	1.834664	0.867681	0.608416
C21	C	1.134766	0.190793	0.000100
C22	C	1.634766	0.690793	0.500100
C23	C	1.008743	0.187422	0.000088
C24	C	1.508743	0.687422	0.500088
C25	C	0.778015	0.181223	0.000126
C26	C	1.278015	0.681223	0.500126
C27	C	0.906409	0.184667	0.000105
C28	C	1.406409	0.684667	0.500105
C29	C	1.348612	-0.049076	0.000118
C30	C	1.848612	0.450924	0.500118
C31	C	1.345231	-0.190014	0.000111
C32	C	1.845231	0.309986	0.500111
C33	C	1.215660	-0.373018	-0.000387
C34	C	1.715660	0.126982	0.499613
C35	C	1.219087	-0.226411	0.000101
C36	C	1.719087	0.273589	0.500101
C37	C	1.405928	-0.251874	0.123806
C38	C	1.905928	0.248126	0.623806
C39	C	1.401623	-0.398404	0.123910
C40	C	1.901623	0.101596	0.623910
C41	C	1.404206	-0.398921	-0.122405
C42	C	1.904206	0.101079	0.377595
C43	C	1.405368	-0.251943	-0.124041
C44	C	1.905368	0.248057	0.375959
C45	C	1.549648	0.175114	0.000134
C46	C	2.049648	0.675114	0.500134
C47	C	1.675671	0.178486	0.000137
C48	C	2.175671	0.678486	0.500137
C49	C	1.335802	0.414984	0.000116
C50	C	1.835802	0.914984	0.500116
C51	C	1.339183	0.555921	0.000114
C52	C	1.839183	1.055921	0.500114
N53	N	1.342194	0.182942	0.308362
N54	N	1.842194	0.682942	0.808362
N55	N	1.342229	0.182956	-0.308125
N56	N	1.842229	0.682956	0.191875
C57	C	1.342210	0.182956	0.574032
C58	C	1.842210	0.682956	1.074032
C59	C	1.342197	0.182952	0.426195
C60	C	1.842197	0.682952	0.926195
H61	H	1.171327	-0.183649	-0.088569
H62	H	1.671327	0.316351	0.411431
H63	H	1.495319	-0.446444	-0.123229
H64	H	1.995319	0.053556	0.376771
H65	H	1.360956	-0.210937	-0.215547
H66	H	1.860956	0.289063	0.284453
O67	O	1.515017	-0.223154	-0.132881
O68	O	2.015017	0.276846	0.367119
C69	C	1.516729	-0.089803	-0.140589
C70	C	2.016729	0.410197	0.359411
H71	H	1.434922	-0.041007	-0.096829
H72	H	1.934922	0.458993	0.403171
H73	H	1.593165	-0.060224	-0.084247
H74	H	2.093165	0.439776	0.415753
H75	H	1.523486	-0.060348	-0.246920
H76	H	2.023486	0.439652	0.253080
H77	H	1.165836	-0.401453	-0.089091
H78	H	1.665836	0.098547	0.410909
H79	H	1.166026	-0.403067	0.087812
H80	H	1.666026	0.096933	0.587812
H81	H	1.170980	-0.184502	0.088910
H82	H	1.670980	0.315498	0.588910
H83	H	1.492343	-0.446668	0.129529
H84	H	1.992343	0.053332	0.629529
H85	H	1.356752	-0.426461	0.216366
H86	H	1.856752	0.073539	0.716366
H87	H	1.498564	-0.229821	0.128413
H88	H	1.998564	0.270179	0.628413
O89	O	1.355448	-0.201030	0.233579
O90	O	1.855448	0.298970	0.733579
C91	C	1.239752	-0.224351	0.234983
C92	C	1.739752	0.275649	0.734983
H93	H	1.227466	-0.310253	0.170909
H94	H	1.727466	0.189747	0.670909
H95	H	1.212899	-0.244527	0.339005
H96	H	1.712899	0.255473	0.839005
H97	H	1.185337	-0.137135	0.196173
H98	H	1.685337	0.362865	0.696173
H99	H	1.363386	-0.430338	-0.216158
H100	H	1.863386	0.069662	0.283842
