data_functionalizedCrystal
_audit_creation_method	'MofGen! by Chris Wilmer'
_symmetry_space_group_name_H-M	'P1'
_symmetry_Int_Tables_number	1
_symmetry_cell_setting	triclinic
loop_
_symmetry_equiv_pos_as_xyz
  x,y,z
_cell_length_a	21.395362
_cell_length_b	19.076808
_cell_length_c	21.395356
_cell_angle_alpha	87.675140
_cell_angle_beta	89.964230
_cell_angle_gamma	92.338508
loop_
_atom_site_label
_atom_site_type_symbol
_atom_site_fract_x
_atom_site_fract_y
_atom_site_fract_z
Zn1	Zn	0.947820	-0.279953	-0.344565
Zn2	Zn	1.447820	0.220047	0.155435
Zn3	Zn	0.943538	-0.397655	-0.235575
Zn4	Zn	1.443538	0.102345	0.264425
Zn5	Zn	0.843048	-0.280000	-0.239765
Zn6	Zn	1.343048	0.220000	0.260235
Zn7	Zn	0.838805	-0.397655	-0.340279
Zn8	Zn	1.338805	0.102345	0.159721
O9	O	0.893303	-0.338816	-0.290046
O10	O	1.393303	0.161184	0.209954
O11	O	1.034931	-0.295547	-0.330147
O12	O	1.534931	0.204453	0.169853
O13	O	0.930192	-0.382067	-0.148452
O14	O	1.430192	0.117933	0.351548
O15	O	0.860515	-0.181497	-0.257214
O16	O	1.360515	0.318503	0.242786
O17	O	1.031785	-0.382022	-0.250072
O18	O	1.531785	0.117978	0.249928
O19	O	0.937490	-0.181462	-0.334210
O20	O	1.437490	0.318538	0.165790
O21	O	0.856362	-0.295627	-0.151530
O22	O	1.356362	0.204373	0.348470
O23	O	0.754807	-0.295627	-0.253058
O24	O	1.254807	0.204373	0.246942
O25	O	0.853282	-0.382021	-0.428526
O26	O	1.353282	0.117979	0.071474
O27	O	0.751689	-0.382067	-0.326906
O28	O	1.251689	0.117933	0.173094
O29	O	0.933375	-0.295547	-0.431675
O30	O	1.433375	0.204453	0.068325
O31	O	0.926077	-0.496152	-0.245917
O32	O	1.426077	0.003848	0.254083
O33	O	0.849130	-0.496152	-0.322843
O34	O	1.349130	0.003848	0.177157
C35	C	0.730514	-0.338853	-0.289972
C36	C	1.230514	0.161147	0.210028
C37	C	0.660871	-0.338886	-0.289954
C38	C	1.160871	0.161114	0.210046
C39	C	0.626549	-0.383955	-0.328345
C40	C	1.126549	0.116045	0.171655
C41	C	0.561114	-0.383938	-0.328373
C42	C	1.061114	0.116062	0.171627
C43	C	0.530004	-0.338859	-0.290000
C44	C	1.030004	0.161141	0.210000
C45	C	0.564335	-0.293781	-0.251607
C46	C	1.064335	0.206219	0.248393
C47	C	0.629768	-0.293794	-0.251584
C48	C	1.129768	0.206206	0.248416
C49	C	0.426489	-0.333196	-0.233798
C50	C	0.926489	0.166804	0.266202
C51	C	0.361057	-0.333188	-0.233819
C52	C	0.861057	0.166812	0.266181
C53	C	0.328185	-0.338813	-0.290071
C54	C	0.828185	0.161187	0.209929
C55	C	0.360753	-0.344461	-0.346302
C56	C	0.860753	0.155539	0.153698
C57	C	0.426187	-0.344475	-0.346280
C58	C	0.926187	0.155525	0.153720
C59	C	0.459052	-0.338839	-0.290021
C60	C	0.959052	0.161161	0.209979
C61	C	0.222911	-0.383865	-0.328495
C62	C	0.722911	0.116135	0.171505
C63	C	0.157475	-0.383843	-0.328525
C64	C	0.657475	0.116157	0.171475
C65	C	0.160696	-0.293690	-0.251753
C66	C	0.660696	0.206310	0.248247
C67	C	0.226131	-0.293709	-0.251729
C68	C	0.726131	0.206291	0.248271
C69	C	0.257234	-0.338800	-0.290099
C70	C	0.757234	0.161200	0.209901
C71	C	0.886695	-0.521691	-0.283474
C72	C	1.386695	-0.021691	0.216526
C73	C	0.883926	-0.599926	-0.280683
C74	C	1.383926	-0.099926	0.219317
C75	C	0.922671	-0.636603	-0.319492
C76	C	1.422671	-0.136603	0.180508
C77	C	0.920067	-0.710113	-0.316871
C78	C	1.420067	-0.210113	0.183129
C79	C	0.878719	-0.746945	-0.275437
C80	C	1.378719	-0.246945	0.224563
C81	C	0.839969	-0.710263	-0.236627
C82	C	1.339969	-0.210263	0.263373
C83	C	0.842571	-0.636755	-0.239251
C84	C	1.342571	-0.136755	0.260749
C85	C	0.866639	-0.966801	-0.263289
C86	C	1.366639	-0.466801	0.236711
C87	C	0.864042	-1.040315	-0.260666
C88	C	1.364042	-0.540315	0.239334
C89	C	0.944139	-1.040159	-0.340912
C90	C	1.444139	-0.540159	0.159088
C91	C	0.946740	-0.966649	-0.343530
C92	C	1.446740	-0.466649	0.156470
C93	C	0.907988	-0.929974	-0.304721
C94	C	1.407988	-0.429974	0.195279
N95	N	0.876057	-0.822084	-0.272756
N96	N	1.376057	-0.322084	0.227244
N97	N	0.910647	-0.854836	-0.307406
N98	N	1.410647	-0.354836	0.192594
C99	C	1.056727	-0.338779	-0.290121
C100	C	1.556727	0.161221	0.209879
C101	C	1.126369	-0.338763	-0.290152
C102	C	1.626369	0.161237	0.209848
C103	C	0.893333	-0.338779	-0.453471
C104	C	1.393333	0.161221	0.046529
C105	C	0.893346	-0.338763	-0.523112
C106	C	1.393346	0.161237	-0.023112
C107	C	0.899953	-0.155226	-0.296657
C108	C	1.399953	0.344774	0.203343
C109	C	0.902788	-0.076991	-0.299475
C110	C	1.402788	0.423009	0.200525
C111	C	0.931864	-0.383625	-1.023312
C112	C	1.431864	0.116375	-0.523312
C113	C	0.931852	-0.383647	-0.957875
C114	C	1.431852	0.116353	-0.457875
C115	C	0.893409	-0.338651	-0.926755
C116	C	1.393409	0.161349	-0.426755
C117	C	0.854964	-0.293643	-0.961076
C118	C	1.354964	0.206357	-0.461076
C119	C	0.854973	-0.293627	-1.026510
C120	C	1.354973	0.206373	-0.526510
C121	C	0.890746	-0.275263	-0.825367
C122	C	1.390746	0.224737	-0.325367
C123	C	0.890741	-0.275278	-0.759933
C124	C	1.390741	0.224722	-0.259933
C125	C	0.893379	-0.338701	-0.724932
C126	C	1.393379	0.161299	-0.224932
C127	C	0.896035	-0.402112	-0.755373
C128	C	1.396035	0.097888	-0.255373
C129	C	0.896043	-0.402096	-0.820807
C130	C	1.396043	0.097904	-0.320807
C131	C	0.893396	-0.338664	-0.855802
C132	C	1.393396	0.161336	-0.355802
C133	C	0.931806	-0.383735	-0.619666
C134	C	1.431806	0.116265	-0.119666
C135	C	0.931790	-0.383758	-0.554228
C136	C	1.431790	0.116242	-0.054228
C137	C	0.854905	-0.293748	-0.557430
C138	C	1.354905	0.206252	-0.057430
C139	C	0.854918	-0.293730	-0.622866
C140	C	1.354918	0.206270	-0.122866
C141	C	0.893372	-0.338723	-0.653980
C142	C	1.393372	0.161277	-0.153980
C143	C	0.893311	-0.338802	-0.127259
C144	C	1.393311	0.161198	0.372741
C145	C	0.893426	-0.338619	-0.057624
C146	C	1.393426	0.161381	0.442376
H147	H	0.254077	-0.257012	-0.220464
H148	H	0.754077	0.242988	0.279536
H149	H	0.888583	-0.223645	-0.735154
H150	H	1.388583	0.276355	-0.235154
H151	H	0.823603	-0.257113	-0.532092
H152	H	1.323603	0.242887	-0.032092
H153	H	0.963116	-0.420372	-0.645000
H154	H	1.463116	0.079628	-0.145000
H155	H	0.823663	-0.257008	-0.935733
H156	H	1.323663	0.242992	-0.435733
H157	H	0.657713	-0.257092	-0.220322
H158	H	1.157713	0.242908	0.279678
H159	H	0.452702	-0.349072	-0.392065
H160	H	0.952702	0.150928	0.107935
H161	H	0.129531	-0.420543	-0.359791
H162	H	0.629531	0.079457	0.140209
H163	H	0.975688	-1.070027	-0.372508
H164	H	1.475688	-0.570027	0.127492
H165	H	0.963162	-0.420288	-0.929933
H166	H	1.463162	0.079712	-0.429933
H167	H	0.135367	-0.256983	-0.220512
H168	H	0.635367	0.243017	0.279488
H169	H	0.823620	-0.257079	-0.650804
H170	H	1.323620	0.242921	-0.150804
H171	H	0.898203	-0.453727	-0.845589
H172	H	1.398203	0.046273	-0.345589
H173	H	0.334544	-0.328593	-0.188032
H174	H	0.834544	0.171407	0.311968
H175	H	0.539000	-0.257076	-0.220365
H176	H	1.039000	0.242924	0.279635
H177	H	0.888639	-0.223608	-0.853860
H178	H	1.388639	0.276392	-0.353860
H179	H	0.898184	-0.453758	-0.726876
H180	H	1.398184	0.046242	-0.226876
H181	H	0.453248	-0.328613	-0.187988
H182	H	0.953248	0.171387	0.312012
H183	H	0.956344	-0.606618	-0.353229
H184	H	1.456344	-0.106618	0.146771
H185	H	0.823671	-0.256976	-1.054448
H186	H	1.323671	0.243024	-0.554448
H187	H	0.951622	-0.739971	-0.348469
H188	H	1.451622	-0.239971	0.151531
H189	H	0.248236	-0.420578	-0.359742
H190	H	0.748236	0.079422	0.140258
H191	H	0.980409	-0.936661	-0.377268
H192	H	1.480409	-0.436661	0.122732
H193	H	0.830368	-1.070302	-0.226925
H194	H	1.330368	-0.570302	0.273075
H195	H	0.835087	-0.936946	-0.231688
H196	H	1.335087	-0.436946	0.268312
H197	H	0.651869	-0.420671	-0.359590
H198	H	1.151869	0.079329	0.140410
H199	H	0.533164	-0.420638	-0.359638
H200	H	1.033164	0.079362	0.140362
H201	H	0.333991	-0.349041	-0.392108
H202	H	0.833991	0.150959	0.107892
H203	H	0.806300	-0.740258	-0.202893
H204	H	1.306300	-0.240258	0.297107
H205	H	0.811019	-0.606894	-0.207649
H206	H	1.311019	-0.106894	0.292351
H207	H	0.963087	-0.420414	-0.526292
H208	H	1.463087	0.079586	-0.026292
H209	H	0.963175	-0.420263	-1.048641
H210	H	1.463175	0.079737	-0.548641
