data_functionalizedCrystal
_audit_creation_method	'MofGen! by Chris Wilmer'
_symmetry_space_group_name_H-M	'P1'
_symmetry_Int_Tables_number	1
_symmetry_cell_setting	triclinic
loop_
_symmetry_equiv_pos_as_xyz
  x,y,z
_cell_length_a	21.395364
_cell_length_b	29.839131
_cell_length_c	29.839109
_cell_angle_alpha	89.879167
_cell_angle_beta	89.927972
_cell_angle_gamma	90.037185
loop_
_atom_site_label
_atom_site_type_symbol
_atom_site_fract_x
_atom_site_fract_y
_atom_site_fract_z
Zn1	Zn	0.958106	-0.178510	-0.254009
Zn2	Zn	0.957902	-0.253757	-0.178879
Zn3	Zn	0.853235	-0.178636	-0.178891
Zn4	Zn	0.853271	-0.253608	-0.253980
O5	O	0.905629	-0.216128	-0.216440
O6	O	1.045757	-0.188501	-0.244050
O7	O	0.943917	-0.243907	-0.116013
O8	O	0.867216	-0.115752	-0.188873
O9	O	1.045607	-0.243785	-0.188852
O10	O	0.944265	-0.115659	-0.244062
O11	O	0.867018	-0.188717	-0.116022
O12	O	0.765561	-0.188572	-0.188845
O13	O	0.867278	-0.243531	-0.316851
O14	O	0.765588	-0.243653	-0.244013
O15	O	0.944301	-0.188356	-0.316873
O16	O	0.943953	-0.316604	-0.188824
O17	O	0.867081	-0.316495	-0.244000
C18	C	0.742841	-0.216111	-0.216427
C19	C	0.673200	-0.216114	-0.216432
C20	C	0.171481	-0.187409	-0.245234
C21	C	0.236916	-0.187406	-0.245234
C22	C	0.269561	-0.216141	-0.216450
C23	C	0.236766	-0.244891	-0.187671
C24	C	0.171331	-0.244896	-0.187675
C25	C	0.373150	-0.219691	-0.175961
C26	C	0.438583	-0.219683	-0.175956
C27	C	0.471382	-0.216127	-0.216437
C28	C	0.438740	-0.212570	-0.256925
C29	C	0.373306	-0.212576	-0.256929
C30	C	0.340514	-0.216139	-0.216442
C31	C	0.575123	-0.187378	-0.245216
C32	C	0.640559	-0.187378	-0.245217
C33	C	0.640407	-0.244860	-0.187650
C34	C	0.574972	-0.244863	-0.187653
C35	C	0.542334	-0.216119	-0.216436
C36	C	0.905515	-0.332850	-0.216417
C37	C	0.905524	-0.382785	-0.216423
C38	C	0.945729	-0.692472	-0.187751
C39	C	0.945806	-0.880145	-0.187769
O40	O	0.979900	-0.904448	-0.163374
N41	N	0.905759	-0.903570	-0.216474
C42	C	0.865692	-0.880073	-0.245178
O43	O	0.831635	-0.904303	-0.269597
C44	C	0.865618	-0.692401	-0.245163
C45	C	0.905664	-0.668979	-0.216453
C46	C	0.985772	-0.669051	-0.159044
C47	C	0.985750	-0.622135	-0.159038
C48	C	0.945685	-0.598642	-0.187740
C49	C	0.905642	-0.622063	-0.216447
C50	C	0.825555	-0.668905	-0.273870
C51	C	0.825541	-0.621984	-0.273864
C52	C	0.865587	-0.598562	-0.245154
C53	C	0.865554	-0.551654	-0.245143
N54	N	0.905602	-0.528230	-0.216438
C55	C	0.945667	-0.551724	-0.187736
C56	C	0.865732	-0.978603	-0.245184
C57	C	0.865750	-1.025521	-0.245187
C58	C	0.945865	-1.025591	-0.187778
C59	C	0.945844	-0.978672	-0.187773
C60	C	0.905780	-0.955179	-0.216479
C61	C	0.945617	-0.453198	-0.187726
C62	C	0.945590	-0.406278	-0.187721
C63	C	0.865477	-0.406213	-0.245132
C64	C	0.865502	-0.453129	-0.245135
C65	C	0.905577	-0.476620	-0.216431
O66	O	0.831484	-0.527323	-0.269528
O67	O	0.979728	-0.527486	-0.163328
C68	C	0.945751	-0.739388	-0.187757
C69	C	0.905708	-0.762810	-0.216464
C70	C	0.865643	-0.739316	-0.245166
C71	C	0.905726	-0.809728	-0.216468
C72	C	0.945791	-0.833221	-0.187766
C73	C	0.985838	-0.809797	-0.159061
C74	C	0.985816	-0.762881	-0.159055
C75	C	0.825595	-0.762740	-0.273871
C76	C	0.825620	-0.809656	-0.273874
C77	C	0.865685	-0.833150	-0.245172
C78	C	1.069052	-0.216145	-0.216453
C79	C	1.138693	-0.216153	-0.216458
C80	C	0.905816	-0.215913	-0.333618
C81	C	0.905896	-0.215821	-0.383553
C82	C	0.905759	-0.098949	-0.216472
C83	C	0.905815	-0.049015	-0.216486
C84	C	0.905478	-0.216310	-0.099717
C85	C	0.905519	-0.216275	-0.049782
C86	C	0.865871	-0.244995	0.259997
C87	C	0.865982	-0.244867	0.447670
O88	O	0.832122	-0.269444	0.472051
N89	N	0.905807	-0.215919	0.471002
C90	C	0.945604	-0.186997	0.447413
O91	O	0.979475	-0.162368	0.471564
C92	C	0.945490	-0.187123	0.259741
C93	C	0.905667	-0.216077	0.236411
C94	C	0.826051	-0.273946	0.236668
C95	C	0.826026	-0.273980	0.189753
C96	C	0.865822	-0.245062	0.166167
C97	C	0.905642	-0.216110	0.189496
C98	C	0.985283	-0.158200	0.236152
C99	C	0.985250	-0.158233	0.189231
C100	C	0.945427	-0.187187	0.165902
C101	C	0.945412	-0.187226	0.118994
N102	N	0.905587	-0.216175	0.095663
C103	C	0.865792	-0.245093	0.119249
C104	C	0.945662	-0.186934	0.545943
C105	C	0.945692	-0.186903	0.592861
C106	C	0.866069	-0.244773	0.593115
C107	C	0.866043	-0.244806	0.546197
C108	C	0.905837	-0.215883	0.522611
C109	C	0.865743	-0.245161	0.020723
C110	C	0.865724	-0.245193	-0.026196
C111	C	0.945344	-0.187322	-0.026447
C112	C	0.945366	-0.187291	0.020469
C113	C	0.905561	-0.216212	0.044053
O114	O	0.979249	-0.162659	0.094584
O115	O	0.831916	-0.269711	0.095090
C116	C	0.865896	-0.244962	0.306913
C117	C	0.905716	-0.216010	0.330242
C118	C	0.945512	-0.187092	0.306656
C119	C	0.905746	-0.215979	0.377160
C120	C	0.865951	-0.244897	0.400746
C121	C	0.826126	-0.273846	0.377414
C122	C	0.826101	-0.273880	0.330499
C123	C	0.985337	-0.158143	0.329988
C124	C	0.985359	-0.158113	0.376903
C125	C	0.945563	-0.187031	0.400489
H126	H	0.666986	-0.268261	-0.164216
H127	H	0.667254	-0.163972	-0.268653
H128	H	0.978453	-0.959605	-0.164395
N129	N	0.822304	-0.478394	-0.276095
H130	H	0.796918	-0.456390	-0.294275
H131	H	0.847828	-0.497794	-0.296906
H132	H	1.017653	-0.134678	0.170030
H133	H	0.548276	-0.268267	-0.164218
N134	N	0.473787	-0.223511	-0.132290
H135	H	0.443082	-0.225769	-0.106647
H136	H	0.500921	-0.251188	-0.132885
H137	H	0.978200	-0.387210	-0.164341
N138	N	1.028951	-0.596876	-0.128079
H139	H	1.054336	-0.618885	-0.109902
H140	H	1.057947	-0.577354	-0.146388
N141	N	1.028989	-0.694386	-0.128085
H142	H	1.054350	-0.672422	-0.109902
H143	H	1.003483	-0.713913	-0.107277
H144	H	0.346732	-0.209681	-0.289895
N145	N	0.823130	-0.275951	0.618560
H146	H	0.797887	-0.294293	0.596665
H147	H	0.848819	-0.296601	0.638059
H148	H	0.465444	-0.209672	-0.289888
N149	N	0.822812	-0.276358	0.046150
H150	H	0.848469	-0.297035	0.065644
H151	H	0.793624	-0.258209	0.065574
N152	N	0.539914	-0.156380	-0.276260
H153	H	0.570617	-0.138172	-0.294493
H154	H	0.512788	-0.174662	-0.297018
H155	H	0.978488	-1.044727	-0.164408
N156	N	0.988324	-0.156069	0.045634
H157	H	1.013532	-0.137756	0.023571
H158	H	0.962643	-0.135393	0.065071
N159	N	1.028313	-0.126880	0.402061
H160	H	1.022295	-0.131243	0.435363
H161	H	1.073118	-0.133649	0.393825
N162	N	0.337777	-0.223531	-0.132297
H163	H	0.368382	-0.225779	-0.106649
H164	H	0.310639	-0.196162	-0.128176
H165	H	0.263349	-0.268289	-0.164236
N166	N	0.135963	-0.275899	-0.156636
H167	H	0.166569	-0.294105	-0.138401
H168	H	0.108790	-0.257620	-0.135880
H169	H	0.792970	-0.743616	-0.297244
N170	N	0.823078	-0.276030	0.521043
H171	H	0.793864	-0.257932	0.501565
H172	H	0.848749	-0.296730	0.501625
N173	N	0.988594	-0.155737	0.520515
H174	H	1.017785	-0.173856	0.501063
H175	H	0.962896	-0.135062	0.501049
N176	N	0.782428	-0.834918	-0.304843
H177	H	0.753390	-0.854447	-0.286573
H178	H	0.757088	-0.812885	-0.323018
N179	N	0.988840	-0.478531	-0.156767
H180	H	1.014200	-0.456568	-0.138582
H181	H	0.963336	-0.498061	-0.135961
H182	H	0.833295	-0.268772	-0.045189
N183	N	0.822547	-1.050781	-0.276145
H184	H	0.797166	-1.028774	-0.294325
H185	H	0.848064	-1.070186	-0.296956
H186	H	0.793597	-0.297556	0.170762
N187	N	1.029047	-0.835141	-0.128100
H188	H	1.022978	-0.868416	-0.132462
H189	H	1.073796	-0.826897	-0.135119
N190	N	0.822514	-0.953268	-0.276145
H191	H	0.797149	-0.975230	-0.294326
H192	H	0.793502	-0.933862	-0.257837
H193	H	0.792942	-0.687967	-0.297246
N194	N	0.782329	-0.596645	-0.304827
H195	H	0.756966	-0.618605	-0.323013
H196	H	0.753314	-0.577240	-0.286521
N197	N	0.783114	-0.305131	0.262103
H198	H	0.757884	-0.323470	0.240198
H199	H	0.808805	-0.325783	0.281598
H200	H	0.832854	-0.387077	-0.268499
H201	H	1.017743	-0.134594	0.310789
H202	H	0.144911	-0.164006	-0.268673
N203	N	1.029012	-0.737623	-0.128092
H204	H	1.054395	-0.759631	-0.109914
H205	H	1.058010	-0.718098	-0.146397
N206	N	0.988653	-0.155681	0.618021
H207	H	1.013855	-0.137367	0.595955
H208	H	0.962976	-0.135007	0.637461
N209	N	1.028236	-0.126971	0.261307
H210	H	1.053435	-0.108657	0.239239
H211	H	1.002556	-0.106297	0.280745
H212	H	0.977746	-0.163779	-0.045659
H213	H	0.793673	-0.297457	0.311508
H214	H	0.793725	-0.297394	0.396626
H215	H	0.263618	-0.163997	-0.268667
