data_functionalizedCrystal
_audit_creation_method	'MofGen! by Chris Wilmer'
_symmetry_space_group_name_H-M	'P1'
_symmetry_Int_Tables_number	1
_symmetry_cell_setting	triclinic
loop_
_symmetry_equiv_pos_as_xyz
  x,y,z
_cell_length_a	13.033293
_cell_length_b	15.297327
_cell_length_c	13.033109
_cell_angle_alpha	107.902170
_cell_angle_beta	74.800007
_cell_angle_gamma	107.951422
loop_
_atom_site_label
_atom_site_type_symbol
_atom_site_fract_x
_atom_site_fract_y
_atom_site_fract_z
Zn1	Zn	1.651843	-0.272005	-0.855503
Zn2	Zn	1.604361	-0.411325	-0.702628
Zn3	Zn	1.451644	-0.272022	-0.655309
Zn4	Zn	1.443077	-0.446608	-0.863870
O5	O	1.537731	-0.350490	-0.769327
O6	O	1.796826	-0.275713	-0.851526
O7	O	1.567817	-0.378087	-0.545088
O8	O	1.501657	-0.140650	-0.658561
O9	O	1.761942	-0.378070	-0.739209
O10	O	1.648742	-0.140637	-0.805643
O11	O	1.455616	-0.275742	-0.510323
O12	O	1.299225	-0.309955	-0.666673
O13	O	1.487056	-0.438205	-1.014022
O14	O	1.292932	-0.438222	-0.819902
O15	O	1.640436	-0.309925	-1.007876
O16	O	1.559510	-0.547376	-0.747321
O17	O	1.441015	-0.573298	-0.865785
C18	C	1.256853	-0.377920	-0.739061
C19	C	1.136690	-0.389679	-0.726143
C20	C	1.100373	-0.344376	-0.776074
C21	C	0.976180	-0.356529	-0.762723
C22	C	1.494213	-0.594399	-0.812622
C23	C	1.475698	-0.698738	-0.831190
C24	C	1.670544	-0.938737	-0.637033
C25	C	1.687938	-0.840705	-0.619582
C26	C	1.634880	-0.805208	-0.672482
C27	C	1.564424	-0.867754	-0.742837
C28	C	1.547021	-0.965796	-0.760284
C29	C	1.511357	-0.832267	-0.795733
C30	C	1.440901	-0.894812	-0.866088
C31	C	1.423502	-0.992844	-0.883532
C32	C	1.476560	-1.028341	-0.830631
C33	C	1.528760	-0.734225	-0.778287
C34	C	1.405237	-0.761284	-0.901538
C35	C	1.387843	-0.859316	-0.918989
C36	C	1.819706	-0.322954	-0.799712
C37	C	1.939867	-0.311220	-0.812661
C38	C	1.568087	-0.377999	-1.051266
C39	C	1.581023	-0.389722	-1.171412
C40	C	1.581452	-0.105628	-0.725891
C41	C	1.600083	-0.001282	-0.707380
C42	C	1.531275	-0.344310	-1.207775
C43	C	1.544643	-0.356425	-1.331952
C44	C	1.507568	-0.323014	-0.488480
C45	C	1.494889	-0.311007	-0.368311
H46	H	1.075839	-0.437460	-0.673510
H47	H	1.633509	-0.437571	-1.232211
H48	H	1.442394	-0.263157	-1.307516
H49	H	1.586125	-0.683308	-0.721003
H50	H	1.161225	-0.296589	-0.828700
H51	H	0.915331	-0.404313	-0.710086
C52	C	1.022058	-0.246669	-0.883772
H53	H	1.094748	-0.246974	-0.883427
H54	H	1.013169	-0.183833	-0.854909
H55	H	1.008972	-0.269394	-0.956866
H56	H	1.478782	-0.296466	-1.146977
H57	H	1.597133	-0.404277	-1.392748
C58	C	1.457432	-1.136178	-0.849837
H59	H	1.407876	-1.168346	-0.899317
H60	H	1.427344	-1.153417	-0.782019
H61	H	1.525284	-1.153302	-0.880048
C62	C	1.654023	-0.697375	-0.653297
H63	H	1.703591	-0.665209	-0.603829
H64	H	1.586185	-0.680233	-0.623105
H65	H	1.684131	-0.680153	-0.721129
H66	H	1.745301	-0.789784	-0.562298
C67	C	1.728901	-0.977785	-0.578855
H68	H	1.708450	-1.045130	-0.599329
H69	H	1.708167	-0.956209	-0.501664
H70	H	1.806102	-0.956118	-0.599698
H71	H	1.366118	-1.043768	-0.940806
C72	C	1.310338	-0.928121	-0.996367
H73	H	1.307571	-0.991590	-0.999171
H74	H	1.336776	-0.917570	-1.067841
H75	H	1.238839	-0.917661	-0.969808
H76	H	1.362030	-0.732384	-0.944612
