data_functionalizedCrystal
_audit_creation_method	'MofGen! by Chris Wilmer'
_symmetry_space_group_name_H-M	'P1'
_symmetry_Int_Tables_number	1
_symmetry_cell_setting	triclinic
loop_
_symmetry_equiv_pos_as_xyz
  x,y,z
_cell_length_a	6.394989
_cell_length_b	11.026607
_cell_length_c	9.482900
_cell_angle_alpha	78.599815
_cell_angle_beta	99.562633
_cell_angle_gamma	97.541864
loop_
_atom_site_label
_atom_site_type_symbol
_atom_site_fract_x
_atom_site_fract_y
_atom_site_fract_z
O1	O	-2.872233	-0.181348	-0.120875
O2	O	-2.267893	-0.191420	-0.120881
O3	O	-2.519975	-0.008966	-0.120873
O4	O	-2.620151	-0.363803	-0.120883
O5	O	-2.468829	-0.046179	0.120918
O6	O	-2.216747	-0.228634	0.120910
O7	O	-2.821087	-0.218561	0.120916
Cu8	Cu	-2.514247	-0.226995	0.142990
Cu9	Cu	-2.574733	-0.182986	-0.142956
O10	O	-2.569005	-0.401016	0.120908
C11	C	-2.475922	0.017921	0.000020
C12	C	-2.420832	0.153479	0.000015
C13	C	-2.613059	-0.427903	0.000011
C14	C	-2.668151	-0.563459	0.000007
N15	N	-2.471719	-0.257949	0.344109
C16	C	-2.163749	-0.208037	0.000021
C17	C	-1.925224	-0.201951	0.000028
N18	N	-2.617274	-0.152024	-0.344074
C19	C	-2.572947	0.224958	0.000014
C20	C	-2.516013	0.365064	0.000008
C21	C	-2.562172	-0.192109	0.416311
C22	C	-2.526808	-0.217873	0.583727
H23	H	-2.745327	0.182429	0.000025
Br24	Br	-2.133512	0.224351	-0.000009
Br25	Br	-2.298983	-0.383682	0.447645
H26	H	-2.343623	0.407588	-0.000003
Br27	Br	-2.955491	0.365684	-0.000002
H28	H	-2.665786	-0.116664	0.354186
Br29	Br	-2.790599	-0.026568	0.552400
Br30	Br	-2.354064	-0.343611	0.687258
