data_functionalizedCrystal
_audit_creation_method	'MofGen! by Chris Wilmer'
_symmetry_space_group_name_H-M	'P1'
_symmetry_Int_Tables_number	1
_symmetry_cell_setting	triclinic
loop_
_symmetry_equiv_pos_as_xyz
  x,y,z
_cell_length_a	13.897449
_cell_length_b	12.594516
_cell_length_c	13.897441
_cell_angle_alpha	90.028053
_cell_angle_beta	90.020733
_cell_angle_gamma	90.013095
loop_
_atom_site_label
_atom_site_type_symbol
_atom_site_fract_x
_atom_site_fract_y
_atom_site_fract_z
Zn1	Zn	1.474742	-0.423672	0.545398
Zn2	Zn	1.808075	-0.090338	0.878732
Zn3	Zn	2.141409	0.242995	1.212065
Zn4	Zn	1.474653	-0.601683	0.384107
Zn5	Zn	1.807986	-0.268349	0.717440
Zn6	Zn	2.141319	0.064984	1.050773
Zn7	Zn	1.313431	-0.423722	0.384117
Zn8	Zn	1.646764	-0.090389	0.717450
Zn9	Zn	1.980098	0.242944	1.050783
Zn10	Zn	1.313429	-0.601613	0.545359
Zn11	Zn	1.646763	-0.268279	0.878693
Zn12	Zn	1.980096	0.065054	1.212026
O13	O	1.394064	-0.512672	0.464745
O14	O	1.727397	-0.179339	0.798079
O15	O	2.060730	0.153994	1.131412
O16	O	1.609712	-0.447293	0.524015
O17	O	1.943045	-0.113960	0.857348
O18	O	2.276378	0.219373	1.190681
O19	O	1.453229	-0.578126	0.249126
O20	O	1.786563	-0.244793	0.582460
O21	O	2.119896	0.088540	0.915793
O22	O	1.334868	-0.274770	0.405531
O23	O	1.668201	0.058563	0.738865
O24	O	2.001534	0.391897	1.072198
O25	O	1.609646	-0.578077	0.405515
O26	O	1.942979	-0.244744	0.738848
O27	O	2.276313	0.088590	1.072181
O28	O	1.453382	-0.274733	0.524024
O29	O	1.786715	0.058601	0.857358
O30	O	2.120049	0.391934	1.190691
O31	O	1.334781	-0.447380	0.249134
O32	O	1.668114	-0.114046	0.582467
O33	O	2.001447	0.219287	0.915800
O34	O	1.178449	-0.447312	0.405494
O35	O	1.511783	-0.113979	0.738827
O36	O	1.845116	0.219355	1.072160
O37	O	1.334865	-0.577958	0.680346
O38	O	1.668198	-0.244625	1.013680
O39	O	2.001531	0.088709	1.347013
O40	O	1.178448	-0.578007	0.523958
O41	O	1.511781	-0.244674	0.857291
O42	O	1.845115	0.088660	1.190625
O43	O	1.453380	-0.447226	0.680375
O44	O	1.786714	-0.113892	1.013708
O45	O	2.120047	0.219441	1.347041
O46	O	1.453228	-0.750619	0.405477
O47	O	1.786561	-0.417286	0.738810
O48	O	2.119894	-0.083952	1.072144
O49	O	1.334778	-0.750568	0.523949
O50	O	1.668111	-0.417234	0.857282
O51	O	2.001444	-0.083901	1.190615
C52	C	1.143449	-0.512658	0.464723
C53	C	1.476783	-0.179325	0.798057
C54	C	1.810116	0.154008	1.131390
C55	C	1.036236	-0.512678	0.464737
C56	C	1.369569	-0.179344	0.798070
C57	C	1.702902	0.153989	1.131403
C58	C	0.839940	-0.512681	0.464762
C59	C	1.173274	-0.179348	0.798095
C60	C	1.506607	0.153985	1.131429
C61	C	0.949173	-0.512676	0.464745
C62	C	1.282506	-0.179343	0.798079
C63	C	1.615840	0.153991	1.131412
C64	C	1.394019	-0.789213	0.464729
C65	C	1.727352	-0.455880	0.798062
C66	C	2.060686	-0.122547	1.131395
C67	C	1.394088	-0.907519	0.464754
C68	C	1.727422	-0.574185	0.798087
C69	C	2.060755	-0.240852	1.131420
C70	C	1.458588	-0.976761	0.400386
C71	C	1.791921	-0.643428	0.733719
C72	C	2.125255	-0.310094	1.067052
C73	C	1.482161	-1.047457	0.488426
C74	C	1.815495	-0.714123	0.821760
C75	C	2.148828	-0.380790	1.155093
C76	C	1.370635	-1.047622	0.376769
C77	C	1.703969	-0.714289	0.710102
C78	C	2.037302	-0.380955	1.043436
C79	C	1.417707	-0.976656	0.552841
C80	C	1.751040	-0.643323	0.886174
C81	C	2.084373	-0.309989	1.219507
C82	C	1.306140	-0.976815	0.441124
C83	C	1.639473	-0.643482	0.774457
C84	C	1.972807	-0.310149	1.107790
C85	C	1.329680	-1.047479	0.529225
C86	C	1.663013	-0.714146	0.862558
C87	C	1.996346	-0.380812	1.195892
C88	C	1.645657	-0.512687	0.464768
C89	C	1.978990	-0.179354	0.798101
C90	C	2.312323	0.153979	1.131435
C91	C	1.752871	-0.512694	0.464778
C92	C	2.086204	-0.179360	0.798111
C93	C	2.419537	0.153973	1.131444
C94	C	1.394132	-0.512578	0.716338
C95	C	1.727466	-0.179245	1.049672
C96	C	2.060799	0.154088	1.383005
C97	C	1.394161	-0.512538	0.823552
C98	C	1.727495	-0.179205	1.156886
C99	C	2.060828	0.154128	1.490219
C100	C	1.394135	-0.235052	0.464783
C101	C	1.727468	0.098282	0.798117
C102	C	2.060802	0.431615	1.131450
C103	C	1.394165	-0.116746	0.464799
C104	C	1.727499	0.216587	0.798133
C105	C	2.060832	0.549921	1.131466
C106	C	1.394051	-0.512689	0.214131
C107	C	1.727384	-0.179356	0.547464
C108	C	2.060718	0.153977	0.880798
C109	C	1.394209	-0.512430	0.106918
C110	C	1.727542	-0.179096	0.440251
C111	C	2.060875	0.154237	0.773584
C112	C	1.394188	-0.512466	1.019848
C113	C	1.727521	-0.179133	1.353181
C114	C	2.060854	0.154200	1.686514
C115	C	1.394170	-0.512509	0.910615
C116	C	1.727503	-0.179176	1.243948
C117	C	2.060837	0.154157	1.577282
H118	H	1.513142	-0.945709	0.346001
H119	H	1.846475	-0.612376	0.679334
H120	H	2.179809	-0.279042	1.012668
N121	N	1.345708	-1.086704	0.283396
N122	N	1.679041	-0.753371	0.616730
N123	N	2.012375	-0.420037	0.950063
N124	N	1.328578	-1.023087	0.216545
N125	N	1.661912	-0.689753	0.549879
N126	N	1.995245	-0.356420	0.883212
H127	H	1.310980	-1.050683	0.150598
H128	H	1.644313	-0.717350	0.483932
H129	H	1.977646	-0.384017	0.817265
H130	H	1.556570	-1.078490	0.508439
H131	H	1.889904	-0.745156	0.841772
H132	H	2.223237	-0.411823	1.175105
H133	H	1.437501	-0.945617	0.627331
H134	H	1.770834	-0.612284	0.960664
H135	H	2.104168	-0.278950	1.293998
H136	H	1.275168	-1.078334	0.583742
H137	H	1.608501	-0.745001	0.917075
H138	H	1.941834	-0.411667	1.250408
N139	N	1.212820	-0.937863	0.415978
N140	N	1.546154	-0.604530	0.749312
N141	N	1.879487	-0.271197	1.082645
N142	N	1.176954	-0.960593	0.336084
N143	N	1.510287	-0.627260	0.669418
N144	N	1.843620	-0.293927	1.002751
H145	H	1.111045	-0.933083	0.318315
H146	H	1.444379	-0.599750	0.651648
H147	H	1.777712	-0.266416	0.984982
