data_functionalizedCrystal
_audit_creation_method	'MofGen! by Chris Wilmer'
_symmetry_space_group_name_H-M	'P1'
_symmetry_Int_Tables_number	1
_symmetry_cell_setting	triclinic
loop_
_symmetry_equiv_pos_as_xyz
  x,y,z
_cell_length_a	15.995300
_cell_length_b	13.185407
_cell_length_c	12.376897
_cell_angle_alpha	74.682514
_cell_angle_beta	77.342854
_cell_angle_gamma	67.722645
loop_
_atom_site_label
_atom_site_type_symbol
_atom_site_fract_x
_atom_site_fract_y
_atom_site_fract_z
O1	O	1.069278	0.121639	0.094036
O2	O	0.821573	0.139057	0.094029
O3	O	0.987865	-0.028410	0.094029
O4	O	0.902986	0.289106	0.094035
O5	O	1.008078	0.008915	-0.093967
O6	O	0.841786	0.176382	-0.093968
O7	O	1.089491	0.158964	-0.093961
Zn8	Zn	0.968848	0.173599	-0.123813
Zn9	Zn	0.942216	0.124422	0.123881
O10	O	0.923199	0.326431	-0.093962
C11	C	0.800644	0.157009	0.000029
C12	C	0.708172	0.154880	0.000026
C13	C	0.538874	0.150946	0.000035
C14	C	0.464538	0.270186	0.000035
C15	C	0.368295	0.267925	0.000464
C16	C	0.372189	0.147073	0.000042
C17	C	0.415133	0.066642	0.107185
C18	C	0.511077	0.069642	0.107272
C19	C	0.534741	0.110324	-0.106523
C20	C	0.437946	0.110614	-0.107928
C21	C	0.277987	0.144878	0.000050
C22	C	0.633076	0.153136	0.000035
C23	C	1.006576	-0.050379	0.000033
C24	C	1.032205	-0.171446	0.000037
C25	C	1.110420	0.141011	0.000041
C26	C	1.202891	0.143139	0.000051
C27	C	0.787603	-0.460644	0.000041
C28	C	0.763519	-0.346897	0.000047
C29	C	0.830688	-0.303028	0.000044
C30	C	0.921946	-0.372918	0.000036
C31	C	0.946031	-0.486678	0.000038
C32	C	0.989117	-0.329063	0.000042
C33	C	1.080375	-0.398953	0.000033
C34	C	1.104456	-0.512701	0.000034
C35	C	1.037286	-0.556569	0.000037
C36	C	0.965032	-0.215303	0.000040
C37	C	1.123460	-0.241337	0.000037
C38	C	1.147544	-0.355084	0.000030
C39	C	0.904488	0.348399	0.000037
C40	C	0.878858	0.469465	0.000040
N41	N	0.987031	0.207161	-0.292858
C42	C	0.881806	0.012934	-0.647922
C43	C	0.869068	-0.010559	-0.529592
C44	C	0.898557	0.043870	-0.470402
C45	C	0.940788	0.121794	-0.529555
C46	C	0.953534	0.145283	-0.647897
C47	C	0.970285	0.176218	-0.470377
C48	C	1.012516	0.254143	-0.529530
C49	C	1.025259	0.277628	-0.647860
C50	C	0.995770	0.223199	-0.707050
C51	C	0.957538	0.152730	-0.352036
C52	C	1.029266	0.285078	-0.352011
C53	C	1.042005	0.308571	-0.470341
N54	N	0.924042	0.090851	0.292925
H55	H	0.586444	0.022615	-0.107555
H56	H	0.834686	-0.074007	-0.481438
H57	H	0.811074	-0.210409	0.000048
Cl58	Cl	0.648800	-0.259046	0.000066
H59	H	1.178149	-0.205632	0.000093
Cl60	Cl	0.882539	0.014337	-0.321642
H61	H	0.890729	-0.158409	0.000046
Cl62	Cl	0.423669	-0.071683	0.112878
H63	H	0.732922	-0.496375	0.000052
Cl64	Cl	0.489572	0.367919	-0.118073
H65	H	0.321710	0.298871	0.077718
H66	H	1.059656	0.341069	-0.696019
H67	H	1.056892	-0.649188	0.000019
Cl68	Cl	0.844744	-0.055485	-0.722336
H69	H	1.178763	-0.569606	0.000038
H70	H	1.221847	-0.412004	0.000024
Cl71	Cl	0.343973	0.104815	0.230760
H72	H	1.076390	0.372018	-0.518520
Cl73	Cl	0.904451	0.054771	-0.277687
Cl74	Cl	1.066346	0.353502	-0.277610
Cl75	Cl	0.320916	0.363241	-0.118081
Cl76	Cl	0.465646	0.319554	0.118484
H77	H	1.006135	0.242328	-0.803404
Cl78	Cl	0.590610	-0.066940	0.114333
Cl79	Cl	0.511184	0.110824	0.231396
Cl80	Cl	0.393865	0.201607	-0.230313
Cl81	Cl	0.446065	-0.023433	-0.118418
Cl82	Cl	0.566218	0.195835	-0.231944
