data_functionalizedCrystal
_audit_creation_method	'MofGen! by Chris Wilmer'
_symmetry_space_group_name_H-M	'P1'
_symmetry_Int_Tables_number	1
_symmetry_cell_setting	triclinic
loop_
_symmetry_equiv_pos_as_xyz
  x,y,z
_cell_length_a	16.974897
_cell_length_b	22.610064
_cell_length_c	16.992695
_cell_angle_alpha	89.995894
_cell_angle_beta	87.027201
_cell_angle_gamma	93.659798
loop_
_atom_site_label
_atom_site_type_symbol
_atom_site_fract_x
_atom_site_fract_y
_atom_site_fract_z
O1	O	1.055462	0.099653	0.099965
O2	O	1.555462	0.599653	0.599965
O3	O	0.826060	0.088685	0.112683
O4	O	1.326060	0.588685	0.612683
O5	O	0.939841	0.094120	-0.007818
O6	O	1.439841	0.594120	0.492182
O7	O	0.941681	0.094217	0.220466
O8	O	1.441681	0.594217	0.720466
O9	O	0.939821	-0.004250	-0.007800
O10	O	1.439821	0.495750	0.492200
O11	O	0.826040	-0.009685	0.112701
O12	O	1.326040	0.490315	0.612701
O13	O	1.055441	0.001282	0.099983
O14	O	1.555441	0.501282	0.599983
Zn15	Zn	0.940737	-0.019820	0.106345
Zn16	Zn	1.440737	0.480180	0.606345
Zn17	Zn	0.940764	0.109787	0.106321
Zn18	Zn	1.440764	0.609787	0.606321
O19	O	0.941660	-0.004153	0.220483
O20	O	1.441660	0.495847	0.720483
C21	C	0.796561	0.038090	0.112207
C22	C	1.296561	0.538090	0.612207
C23	C	0.708693	0.033889	0.110751
C24	C	1.208693	0.533889	0.610751
N25	N	0.940725	-0.108273	0.106360
N26	N	1.440725	0.391727	0.606360
C27	C	0.667417	0.085532	0.110059
C28	C	1.167417	0.585532	0.610059
C29	C	0.584854	0.081576	0.108704
C30	C	1.084854	0.581576	0.608704
C31	C	0.543571	0.025976	0.108034
C32	C	1.043571	0.525976	0.608034
C33	C	0.584853	-0.025671	0.108729
C34	C	1.084853	0.474329	0.608729
C35	C	0.667413	-0.021715	0.110090
C36	C	1.167413	0.478285	0.610090
C37	C	0.296651	0.008393	0.103970
C38	C	0.796651	0.508393	0.603970
C39	C	0.214085	0.004440	0.102607
C40	C	0.714085	0.504440	0.602607
C41	C	0.214092	0.111688	0.102584
C42	C	0.714092	0.611688	0.602584
C43	C	0.296654	0.115640	0.103940
C44	C	0.796654	0.615640	0.603940
C45	C	0.337929	0.063993	0.104638
C46	C	0.837929	0.563993	0.604638
N47	N	0.459179	0.021931	0.106646
N48	N	0.959179	0.521931	0.606646
N49	N	0.422319	0.068038	0.106032
N50	N	0.922319	0.568038	0.606032
C51	C	0.991149	-0.514506	0.052972
C52	C	1.491149	-0.014506	0.552972
C53	C	0.991153	-0.576425	0.052966
C54	C	1.491153	-0.076425	0.552966
O55	O	1.033993	-0.606398	0.007585
O56	O	1.533993	-0.106398	0.507585
N57	N	0.940763	-0.609808	0.106305
N58	N	1.440763	-0.109808	0.606305
C59	C	0.890359	-0.581269	0.159648
C60	C	1.390359	-0.081269	0.659648
O61	O	0.847498	-0.615349	0.205016
O62	O	1.347498	-0.115349	0.705016
C63	C	0.890352	-0.519350	0.159649
C64	C	1.390352	-0.019350	0.659649
C65	C	0.940752	-0.485970	0.106312
C66	C	1.440752	0.014030	0.606312
C67	C	1.041544	-0.481126	-0.000362
C68	C	1.541544	0.018874	0.499638
C69	C	1.041541	-0.419210	-0.000355
C70	C	1.541541	0.080790	0.499645
C71	C	0.991144	-0.390675	0.052986
C72	C	1.491144	0.109325	0.552986
C73	C	0.940749	-0.424055	0.106319
C74	C	1.440749	0.075945	0.606319
C75	C	0.839946	-0.490812	0.212988
C76	C	1.339946	0.009188	0.712988
C77	C	0.839943	-0.428889	0.212984
C78	C	1.339943	0.071111	0.712984
C79	C	0.890342	-0.395509	0.159647
C80	C	1.390342	0.104491	0.659647
C81	C	0.890349	-0.333604	0.159666
C82	C	1.390349	0.166396	0.659666
N83	N	0.940739	-0.300221	0.106327
N84	N	1.440739	0.199779	0.606327
C85	C	0.991137	-0.328756	0.052987
C86	C	1.491137	0.171244	0.552987
C87	C	0.890377	-0.711301	0.159640
C88	C	1.390377	-0.211301	0.659640
C89	C	0.890388	-0.773219	0.159643
C90	C	1.390388	-0.273219	0.659643
C91	C	0.991181	-0.768371	0.052960
C92	C	1.491181	-0.268371	0.552960
C93	C	0.991173	-0.706453	0.052962
C94	C	1.491173	-0.206453	0.552962
C95	C	0.940768	-0.677918	0.106301
C96	C	1.440768	-0.177918	0.606301
C97	C	0.991127	-0.198729	0.053006
C98	C	1.491127	0.301271	0.553006
C99	C	0.991122	-0.136808	0.053020
C100	C	1.491122	0.363192	0.553020
C101	C	0.890327	-0.141661	0.159699
C102	C	1.390327	0.358339	0.659699
C103	C	0.890335	-0.203577	0.159689
C104	C	1.390335	0.296423	0.659689
C105	C	0.940737	-0.232109	0.106335
C106	C	1.440737	0.267891	0.606335
O107	O	0.847528	-0.303591	0.205022
O108	O	1.347528	0.196409	0.705022
O109	O	1.033983	-0.294669	0.007620
O110	O	1.533983	0.205331	0.507620
C111	C	1.084940	0.051879	0.100459
C112	C	1.584940	0.551879	0.600459
C113	C	1.172808	0.056084	0.101915
C114	C	1.672808	0.556084	0.601915
C115	C	0.937465	0.044822	-0.037019
C116	C	1.437465	0.544822	0.462981
C117	C	0.930406	0.044485	-0.124056
C118	C	1.430406	0.544485	0.375944
N119	N	0.940783	0.198240	0.106300
N120	N	1.440783	0.698240	0.606300
C121	C	0.998521	0.047741	-0.174367
C122	C	1.498521	0.547741	0.325633
C123	C	0.991883	0.047429	-0.256146
C124	C	1.491883	0.547429	0.243854
C125	C	0.917129	0.043857	-0.287614
C126	C	1.417129	0.543857	0.212386
C127	C	0.849009	0.040602	-0.237296
C128	C	1.349009	0.540602	0.262704
C129	C	0.855647	0.040918	-0.155518
C130	C	1.355647	0.540918	0.344482
C131	C	0.889614	0.042549	-0.531183
C132	C	1.389614	0.542549	-0.031183
C133	C	0.882981	0.042232	-0.612967
C134	C	1.382981	0.542232	-0.112967
C135	C	1.025856	0.049059	-0.631812
C136	C	1.525856	0.549059	-0.131812
C137	C	1.032488	0.049372	-0.550031
C138	C	1.532488	0.549372	-0.050031
C139	C	0.964368	0.046120	-0.499721
C140	C	1.464368	0.546120	0.000279
N141	N	0.910342	0.043536	-0.371205
N142	N	1.410342	0.543536	0.128795
N143	N	0.971155	0.046445	-0.416131
N144	N	1.471155	0.546445	0.083869
C145	C	0.944037	0.045147	0.249685
C146	C	1.444037	0.545147	0.749685
C147	C	0.951096	0.045488	0.336722
C148	C	1.451096	0.545488	0.836722
H149	H	0.701024	0.130808	0.110602
H150	H	1.201024	0.630808	0.610602
F151	F	0.836756	-0.808738	0.216421
F152	F	1.336756	-0.308738	0.716421
F153	F	0.540928	0.136543	0.107969
F154	F	1.040928	0.636543	0.607969
H155	H	0.822104	0.039314	-0.638584
H156	H	1.322104	0.539314	-0.138584
H157	H	1.082584	-0.504353	-0.043801
H158	H	1.582584	-0.004353	0.456199
H159	H	0.330262	0.160915	0.104479
H160	H	0.830262	0.660915	0.604479
H161	H	0.330247	-0.033662	0.104534
H162	H	0.830247	0.466338	0.604534
H163	H	0.701020	-0.063768	0.110656
H164	H	1.201020	0.436232	0.610656
H165	H	0.180477	0.153736	0.102017
H166	H	0.680477	0.653736	0.602017
H167	H	0.551233	-0.070942	0.108188
H168	H	1.051233	0.429058	0.608188
F169	F	1.044772	-0.229086	-0.003779
F170	F	1.544772	0.270914	0.496221
F171	F	1.112051	0.053188	-0.516548
F172	F	1.612051	0.553188	-0.016548
F173	F	1.044768	-0.101285	-0.003750
F174	F	1.544768	0.398715	0.496250
F175	F	0.786290	-0.398526	0.269756
F176	F	1.286290	0.101474	0.769756
H177	H	1.059393	0.050646	-0.148753
H178	H	1.559393	0.550646	0.351247
F179	F	1.064381	0.050893	-0.309688
F180	F	1.564381	0.550893	0.190312
F181	F	1.095179	-0.383690	-0.057127
F182	F	1.595179	0.116310	0.442873
F183	F	0.836694	-0.111282	0.216467
F184	F	1.336694	0.388718	0.716467
H185	H	0.180473	-0.040839	0.102084
H186	H	0.680473	0.459161	0.602084
H187	H	1.032212	-0.679278	0.009530
H188	H	1.532212	-0.179278	0.509530
F189	F	1.098349	0.052520	-0.685361
F190	F	1.598349	0.552520	-0.185361
H191	H	1.032216	-0.791616	0.009527
H192	H	1.532216	-0.291616	0.509527
H193	H	0.849333	-0.688072	0.203082
H194	H	1.349333	-0.188072	0.703082
H195	H	0.798906	-0.517982	0.256419
H196	H	1.298906	-0.017982	0.756419
F197	F	0.817114	0.039091	-0.477649
F198	F	1.317114	0.539091	0.022351
H199	H	0.849303	-0.230755	0.203128
H200	H	1.349303	0.269245	0.703128
F201	F	0.769449	0.036807	-0.270788
F202	F	1.269449	0.536807	0.229212
F203	F	0.783150	0.037455	-0.101973
F204	F	1.283150	0.537455	0.398027
