data_functionalizedCrystal
_audit_creation_method	'MofGen! by Chris Wilmer'
_symmetry_space_group_name_H-M	'P1'
_symmetry_Int_Tables_number	1
_symmetry_cell_setting	triclinic
loop_
_symmetry_equiv_pos_as_xyz
  x,y,z
_cell_length_a	14.853569
_cell_length_b	10.654550
_cell_length_c	9.730223
_cell_angle_alpha	90.000193
_cell_angle_beta	89.998235
_cell_angle_gamma	84.060234
loop_
_atom_site_label
_atom_site_type_symbol
_atom_site_fract_x
_atom_site_fract_y
_atom_site_fract_z
O1	O	-1.197237	-0.163965	-0.114223
O2	O	-0.934882	-0.183494	-0.114240
O3	O	-1.072091	0.009072	-0.114226
O4	O	-1.060027	-0.356531	-0.114237
O5	O	-1.072090	0.009067	0.114354
O6	O	-0.934880	-0.183499	0.114340
O7	O	-1.197235	-0.163970	0.114357
Zn8	Zn	-1.066057	-0.173735	0.150640
Zn9	Zn	-1.066059	-0.173729	-0.150523
O10	O	-1.060025	-0.356536	0.114343
C11	C	-0.901288	-0.182612	0.000048
C12	C	-0.801190	-0.179959	0.000042
C13	C	-1.071205	0.055859	0.000062
C14	C	-1.068554	0.195274	0.000057
C15	C	-1.230829	-0.164852	0.000066
C16	C	-1.330927	-0.167505	0.000063
C17	C	-0.764194	-0.064325	0.000041
C18	C	-0.744129	-0.293100	0.000049
C19	C	-0.650082	-0.290612	0.000051
C20	C	-0.613086	-0.174978	0.000050
C21	C	-0.670138	-0.061833	0.000047
C22	C	-0.593023	-0.403754	0.000068
C23	C	-0.498969	-0.401270	0.000071
C24	C	-0.461972	-0.285635	0.000060
C25	C	-0.519030	-0.172486	0.000055
C26	C	-0.482035	-0.056853	0.000054
C27	C	-0.539091	0.056298	0.000040
C28	C	-0.633141	0.053802	0.000035
C29	C	-0.367923	-0.283139	0.000064
C30	C	-0.387979	-0.054360	0.000060
C31	C	-1.060912	-0.403323	0.000052
C32	C	-1.063562	-0.542738	0.000048
N33	N	-1.066062	-0.173739	0.356177
C34	C	-1.149341	0.275599	0.000066
C35	C	-1.146845	0.406594	0.000057
C36	C	-0.982769	0.376927	0.000034
C37	C	-0.985266	0.245935	0.000034
C38	C	-1.232630	0.224938	0.000089
C39	C	-1.313423	0.305264	0.000100
C40	C	-1.310927	0.436259	0.000090
C41	C	-1.227638	0.486928	0.000070
N42	N	-1.066061	-0.173715	-0.356060
C43	C	-1.126835	-0.088499	0.428109
C44	C	-1.126832	-0.088484	0.571992
C45	C	-1.005283	-0.258959	0.571998
C46	C	-1.005281	-0.258967	0.428118
C47	C	-1.187616	-0.003270	0.356168
C48	C	-1.248393	0.081975	0.428100
C49	C	-1.248391	0.081991	0.571983
C50	C	-1.187611	-0.003240	0.643934
H51	H	-0.357865	0.039803	0.000051
H52	H	-0.679604	0.145923	0.000026
O53	O	-0.946337	-0.341706	0.642100
C54	C	-0.959356	-0.323400	0.784517
H55	H	-1.030738	-0.276645	0.804164
H56	H	-0.949919	-0.418477	0.839206
H57	H	-0.907940	-0.260278	0.825344
O58	O	-0.819705	0.045501	-0.000155
C59	C	-0.874682	0.050916	-0.118564
H60	H	-0.880062	-0.048774	-0.158030
H61	H	-0.945066	0.097579	-0.091951
H62	H	-0.843377	0.108319	-0.201458
H63	H	-1.234671	0.118278	0.000102
H64	H	-1.381234	0.264000	0.000082
O65	O	-1.307337	0.164750	0.642073
C66	C	-1.294322	0.146469	0.784493
H67	H	-1.222938	0.099725	0.804146
H68	H	-1.303766	0.241555	0.839165
H69	H	-1.345736	0.083348	0.825334
H70	H	-1.376713	0.501657	0.000085
O71	O	-0.312407	-0.392954	-0.000103
C72	C	-0.257416	-0.398384	-0.118503
H73	H	-0.252036	-0.298700	-0.157984
H74	H	-0.187034	-0.445039	-0.091872
H75	H	-0.288709	-0.455803	-0.201393
H76	H	-1.297874	0.151374	0.369511
O77	O	-0.901846	0.426085	-0.000219
C78	C	-0.852540	0.385032	-0.118589
H79	H	-0.901226	0.357699	-0.201330
H80	H	-0.813689	0.464452	-0.158327
H81	H	-0.802834	0.299750	-0.091830
O82	O	-0.780213	-0.405310	0.000005
C83	C	-0.875459	-0.383248	0.000047
H84	H	-0.896923	-0.285286	-0.043239
H85	H	-0.904800	-0.457254	-0.066301
H86	H	-0.901671	-0.389362	0.109713
H87	H	-1.187625	-0.003278	0.239011
O88	O	-0.946219	-0.341893	0.358447
C89	C	-0.892563	-0.417104	0.452793
H90	H	-0.929530	-0.418617	0.555360
H91	H	-0.879432	-0.517363	0.411222
H92	H	-0.825341	-0.376152	0.468087
H93	H	-0.508957	0.150447	0.000030
O94	O	-1.225099	0.614157	0.000237
C95	C	-1.179286	0.649798	0.118632
H96	H	-1.132820	0.565653	0.158104
H97	H	-1.137287	0.730141	0.091997
H98	H	-1.230701	0.682420	0.201529
O99	O	-0.906851	0.167774	0.000214
C100	C	-0.903372	0.091135	0.118612
H101	H	-0.974972	0.084391	0.158089
H102	H	-0.870410	-0.007257	0.091981
H103	H	-0.861922	0.134295	0.201504
H104	H	-0.452521	-0.493405	0.000081
O105	O	-0.629010	-0.516035	-0.000151
C106	C	-0.682829	-0.524323	-0.118514
H107	H	-0.660166	-0.458690	-0.201277
H108	H	-0.675039	-0.625531	-0.158221
H109	H	-0.756802	-0.495452	-0.091756
H110	H	-1.187608	-0.003212	0.761093
