data_functionalizedCrystal
_audit_creation_method	'MofGen! by Chris Wilmer'
_symmetry_space_group_name_H-M	'P1'
_symmetry_Int_Tables_number	1
_symmetry_cell_setting	triclinic
loop_
_symmetry_equiv_pos_as_xyz
  x,y,z
_cell_length_a	19.805407
_cell_length_b	17.640280
_cell_length_c	19.805399
_cell_angle_alpha	78.776044
_cell_angle_beta	89.983114
_cell_angle_gamma	78.800112
loop_
_atom_site_label
_atom_site_type_symbol
_atom_site_fract_x
_atom_site_fract_y
_atom_site_fract_z
Zn1	Zn	1.089264	-0.314670	-0.328319
Zn2	Zn	1.112096	-0.446848	-0.192280
Zn3	Zn	0.976088	-0.314695	-0.215139
Zn4	Zn	0.998946	-0.446803	-0.305434
O5	O	1.044098	-0.380754	-0.260293
O6	O	1.187010	-0.332212	-0.310284
O7	O	1.094043	-0.429347	-0.100590
O8	O	0.971979	-0.204088	-0.249297
O9	O	1.203785	-0.429323	-0.210336
O10	O	1.055129	-0.204069	-0.332450
O11	O	0.994119	-0.332255	-0.117385
O12	O	0.884402	-0.332211	-0.227106
O13	O	1.010938	-0.429246	-0.403192
O14	O	0.901196	-0.429270	-0.293446
O15	O	1.077294	-0.332168	-0.420005
O16	O	1.116208	-0.557446	-0.188146
O17	O	1.033077	-0.557413	-0.271280
C18	C	0.868240	-0.380739	-0.260274
C19	C	0.793010	-0.380751	-0.260278
C20	C	0.766441	-0.431366	-0.294738
C21	C	0.695753	-0.431367	-0.294747
C22	C	0.651635	-0.380758	-0.260292
C23	C	0.678208	-0.330137	-0.225832
C24	C	0.748894	-0.330133	-0.225827
C25	C	0.393138	-0.330155	-0.225851
C26	C	0.322447	-0.330165	-0.225857
C27	C	0.339996	-0.431390	-0.294771
C28	C	0.410683	-0.431385	-0.294767
C29	C	0.437249	-0.380762	-0.260309
C30	C	0.513897	-0.380760	-0.260301
C31	C	0.574989	-0.380763	-0.260296
C32	C	1.079619	-0.586108	-0.224764
C33	C	1.094876	-0.673959	-0.209587
C34	C	0.928465	-0.962942	-0.375837
C35	C	0.942803	-1.045492	-0.361554
C36	C	1.029421	-1.045461	-0.275074
C37	C	1.015092	-0.962910	-0.289352
C38	C	0.964613	-0.921657	-0.339734
C39	C	1.051240	-0.921624	-0.253249
C40	C	1.036910	-0.839080	-0.267523
C41	C	0.986431	-0.797821	-0.317901
C42	C	0.950282	-0.839113	-0.354008
C43	C	1.101716	-0.962879	-0.202864
C44	C	1.137864	-0.921593	-0.166761
C45	C	1.123537	-0.839048	-0.181038
C46	C	1.073059	-0.797789	-0.231416
C47	C	1.159686	-0.797756	-0.144931
C48	C	1.145356	-0.715212	-0.159205
C49	C	1.058728	-0.715245	-0.245690
C50	C	1.220644	-0.380770	-0.260313
C51	C	1.295877	-0.380776	-0.260321
C52	C	1.044118	-0.380699	-0.436845
C53	C	1.044127	-0.380676	-0.512081
C54	C	1.008457	-0.174598	-0.295976
C55	C	0.993270	-0.086747	-0.311182
C56	C	0.992108	-0.330115	-0.556171
C57	C	0.992115	-0.330100	-0.626862
C58	C	1.044144	-0.380642	-0.653463
C59	C	1.096166	-0.431208	-0.609367
C60	C	1.096156	-0.431227	-0.538677
C61	C	1.096207	-0.431134	-0.894454
C62	C	1.096214	-0.431109	-0.965150
C63	C	0.992165	-0.330007	-0.982639
C64	C	0.992155	-0.330026	-0.911948
C65	C	1.044175	-0.380595	-0.867859
C66	C	1.044166	-0.380612	-0.791207
C67	C	1.044156	-0.380621	-0.730114
C68	C	1.044107	-0.380752	-0.084437
C69	C	1.044191	-0.380552	-0.009240
H70	H	0.770524	-0.288913	-0.197771
H71	H	0.674125	-0.472584	-0.322807
H72	H	1.070519	-1.079061	-0.234052
N73	N	1.152313	-0.485661	-0.846900
H74	H	1.131134	-0.522295	-0.811228
H75	H	1.185261	-0.517622	-0.874527
H76	H	1.138584	-0.472270	-0.986805
H77	H	0.949790	-0.288867	-0.890295
H78	H	0.446601	-0.472599	-0.322820
N79	N	0.311343	-0.485991	-0.331939
H80	H	0.259869	-0.478316	-0.326717
H81	H	0.321604	-0.473766	-0.382410
H82	H	0.286527	-0.288948	-0.197800
N83	N	1.152278	-0.485731	-0.638053
H84	H	1.144392	-0.478048	-0.689525
H85	H	1.198493	-0.473443	-0.627830
N86	N	0.936048	-0.275474	-1.030191
H87	H	0.889810	-0.287751	-1.015751
H88	H	0.936858	-0.219028	-1.027648
H89	H	0.414760	-0.288941	-0.197788
H90	H	0.974760	-0.730609	-0.329517
H91	H	0.642281	-0.288927	-0.197781
N92	N	1.152260	-0.485764	-0.491121
H93	H	1.185222	-0.517778	-0.518700
H94	H	1.178020	-0.453606	-0.467361
N95	N	1.004288	-0.670734	-0.300033
H96	H	1.017258	-0.685060	-0.345927
H97	H	0.958455	-0.685161	-0.286928
N98	N	0.903810	-1.090023	-0.400496
H99	H	0.869659	-1.051361	-0.434576
H100	H	0.937279	-1.124230	-0.425931
N101	N	0.895845	-0.794609	-0.408356
H102	H	0.875121	-0.833287	-0.429068
H103	H	0.858601	-0.760402	-0.386692
H104	H	0.887364	-0.929352	-0.416868
N105	N	1.117169	-1.051909	-0.187466
H106	H	1.133030	-1.071757	-0.230475
H107	H	1.154611	-1.071715	-0.150049
H108	H	0.802358	-0.472581	-0.322792
N109	N	1.192299	-0.966089	-0.112415
H110	H	1.195891	-1.024646	-0.108847
H111	H	1.238121	-0.951616	-0.125497
N112	N	0.936007	-0.275570	-0.674416
H113	H	0.903047	-0.243552	-0.646838
H114	H	0.957239	-0.238989	-0.710083
H115	H	1.200781	-0.831357	-0.103906
H116	H	0.949743	-0.288954	-0.534519
H117	H	1.174791	-0.681597	-0.129805
