data_functionalizedCrystal
_audit_creation_method	'MofGen! by Chris Wilmer'
_symmetry_space_group_name_H-M	'P1'
_symmetry_Int_Tables_number	1
_symmetry_cell_setting	triclinic
loop_
_symmetry_equiv_pos_as_xyz
  x,y,z
_cell_length_a	6.817900
_cell_length_b	16.417824
_cell_length_c	11.102291
_cell_angle_alpha	93.891472
_cell_angle_beta	71.394247
_cell_angle_gamma	76.614455
loop_
_atom_site_label
_atom_site_type_symbol
_atom_site_fract_x
_atom_site_fract_y
_atom_site_fract_z
V1	V	4.051778	-0.261154	-0.176875
O2	O	4.011947	-0.256182	0.007433
O3	O	4.028965	-0.259368	-0.349689
O4	O	4.002499	-0.375052	-0.174622
O5	O	4.038596	-0.139698	-0.168845
V6	V	4.532205	-0.246626	-0.154775
O7	O	4.319829	-0.293020	-0.225355
O8	O	4.714351	-0.214760	-0.106295
O9	O	4.331812	-0.248412	0.018039
O10	O	4.689432	-0.251598	-0.339083
O11	O	4.662783	-0.368083	-0.162805
O12	O	4.358277	-0.132729	-0.157028
C13	C	3.880218	-0.255249	-0.391802
C14	C	3.942846	-0.254548	-0.533082
C15	C	4.073710	-0.330268	-0.750657
C16	C	4.014884	-0.330925	-0.617909
C17	C	3.929655	-0.177509	-0.581009
C18	C	3.988494	-0.176854	-0.713755
C19	C	4.145727	-0.406650	-0.835477
C20	C	4.158926	-0.483689	-0.787559
C21	C	4.100101	-0.484346	-0.654812
C22	C	4.028076	-0.407964	-0.569982
C23	C	3.846457	-0.402813	-0.168486
C24	C	3.887619	-0.495925	-0.167788
C25	C	4.039778	-0.722110	-0.282591
C26	C	4.078467	-0.809598	-0.281926
C27	C	3.963578	-0.785658	-0.049048
C28	C	3.924905	-0.698172	-0.049714
C29	C	3.962997	-0.666400	-0.166490
C30	C	4.040359	-0.841375	-0.165158
C31	C	4.082307	-0.936233	-0.164436
C32	C	3.921051	-0.571536	-0.167212
C33	C	4.143901	-0.252529	0.060146
C34	C	4.060511	-0.253235	0.201424
C35	C	4.177661	-0.104963	-0.163168
C36	C	4.115737	-0.011850	-0.163860
H37	H	4.110874	-0.547075	-0.615803
O38	O	4.202664	-0.406115	-0.964443
C39	C	4.071715	-0.443973	-1.012730
H40	H	4.004705	-0.487816	-0.944946
H41	H	4.171130	-0.482138	-1.111998
H42	H	3.933425	-0.392582	-1.020291
O43	O	3.970940	-0.408750	-0.441064
C44	C	3.998100	-0.493123	-0.416957
H45	H	3.992553	-0.534731	-0.501644
H46	H	3.863838	-0.495997	-0.325807
H47	H	4.159865	-0.516867	-0.403925
O48	O	4.152955	-0.863594	-0.394820
C49	C	4.178333	-0.816789	-0.498026
H50	H	4.070348	-0.749437	-0.462155
H51	H	4.132196	-0.848167	-0.575883
H52	H	4.352971	-0.814914	-0.539495
H53	H	4.217586	-0.545877	-0.856636
H54	H	3.862386	-0.652810	0.044835
O55	O	3.975481	-0.102070	-0.760451
C56	C	3.832996	-0.093123	-0.829935
H57	H	3.820834	-0.158302	-0.863783
H58	H	3.895445	-0.061090	-0.916862
H59	H	3.667496	-0.052743	-0.765351
H60	H	3.871006	-0.115322	-0.511931
H61	H	4.070798	-0.696245	-0.377677
H62	H	3.932565	-0.811537	0.046027
