data_functionalizedCrystal
_audit_creation_method	'MofGen! by Chris Wilmer'
_symmetry_space_group_name_H-M	'P1'
_symmetry_Int_Tables_number	1
_symmetry_cell_setting	triclinic
loop_
_symmetry_equiv_pos_as_xyz
  x,y,z
_cell_length_a	6.817900
_cell_length_b	11.102188
_cell_length_c	16.305550
_cell_angle_alpha	93.872451
_cell_angle_beta	103.455250
_cell_angle_gamma	108.603875
loop_
_atom_site_label
_atom_site_type_symbol
_atom_site_fract_x
_atom_site_fract_y
_atom_site_fract_z
V1	V	-4.052576	-0.176911	-0.263031
O2	O	-4.012740	0.007398	-0.258024
O3	O	-4.029746	-0.349724	-0.261233
O4	O	-4.003649	-0.174674	-0.377748
O5	O	-4.039018	-0.168864	-0.140702
V6	V	-4.532958	-0.154809	-0.248400
O7	O	-4.320722	-0.225395	-0.295127
O8	O	-4.715009	-0.106325	-0.216304
O9	O	-4.332581	0.018004	-0.250199
O10	O	-4.690191	-0.339118	-0.253407
O11	O	-4.663912	-0.162856	-0.370729
O12	O	-4.358679	-0.157046	-0.133683
C13	C	-3.880985	-0.391837	-0.257083
C14	C	-3.943603	-0.533117	-0.256377
C15	C	-3.930165	-0.581026	-0.178790
C16	C	-3.989024	-0.713775	-0.178130
C17	C	-4.074749	-0.750694	-0.332650
C18	C	-4.015905	-0.617948	-0.333310
C19	C	-4.135615	-0.877181	-0.087116
C20	C	-4.122142	-0.925092	-0.009525
C21	C	-3.947519	-0.861542	0.061179
C22	C	-3.786319	-0.750081	0.054294
C23	C	-3.799778	-0.702175	-0.023298
C24	C	-3.974445	-0.765724	-0.093999
C25	C	-3.869293	-0.454538	-0.424318
C26	C	-3.882737	-0.406630	-0.501911
C27	C	-4.057350	-0.470179	-0.572621
C28	C	-4.218526	-0.581646	-0.565745
C29	C	-4.205083	-0.629554	-0.488152
C30	C	-4.030469	-0.565996	-0.417441
C31	C	-3.847693	-0.168542	-0.405710
C32	C	-3.889143	-0.167857	-0.499492
C33	C	-4.039835	-0.165200	-0.840237
C34	C	-3.802613	-0.157314	-0.799308
C35	C	-3.759604	-0.158553	-0.701814
C36	C	-3.965073	-0.166517	-0.671189
C37	C	-4.150787	-0.292033	-0.721816
C38	C	-4.192545	-0.291323	-0.819365
C39	C	-4.077232	-0.048574	-0.794394
C40	C	-4.029155	-0.047580	-0.696551
C41	C	-3.922835	-0.167266	-0.575651
C42	C	-4.082084	-0.164460	-0.935776
C43	C	-4.144685	0.060110	-0.254346
C44	C	-4.061306	0.201389	-0.255057
C45	C	-4.177977	-0.163182	-0.105717
C46	C	-4.115765	-0.163861	-0.011935
H47	H	-4.253407	-1.015847	-0.003925
C48	C	-4.227654	-0.045375	-0.667613
N49	N	-4.377122	-0.043694	-0.645786
H50	H	-4.305486	-0.302400	-0.702903
C51	C	-4.161444	-0.410590	-0.860410
N52	N	-4.138005	-0.500422	-0.891320
H53	H	-4.249991	-0.053235	-0.821209
H54	H	-4.368019	-0.302331	-0.847357
C55	C	-4.093652	-0.411342	-0.699110
N56	N	-4.050604	-0.501203	-0.682010
C57	C	-3.622480	-0.579570	-0.030872
N58	N	-3.488941	-0.487216	-0.036572
C59	C	-3.850654	-0.487716	-0.094163
N60	N	-3.790776	-0.417438	-0.030419
C61	C	-4.327651	-0.947144	-0.164905
N62	N	-4.472264	-0.999868	-0.223504
H63	H	-4.336329	-0.720320	-0.482557
H64	H	-3.644119	-0.698353	0.111868
H65	H	-3.971677	0.046528	-0.807761
C66	C	-3.705432	-0.284011	-0.509473
N67	N	-3.571892	-0.191652	-0.515167
C68	C	-4.410615	-0.651554	-0.643529
N69	N	-4.555294	-0.704207	-0.702119
C70	C	-3.846958	0.077843	-0.650110
N71	N	-3.709723	0.172310	-0.615125
C72	C	-3.677201	-0.384621	-0.346534
N73	N	-3.532512	-0.331959	-0.287949
C74	C	-4.154242	-0.844019	-0.417271
N75	N	-4.214100	-0.914310	-0.481008
C76	C	-3.640985	-0.034945	-0.816150
N77	N	-3.519247	0.057184	-0.828891
C78	C	-3.570534	-0.036650	-0.654497
N79	N	-3.428108	0.055167	-0.618862
H80	H	-4.068270	-0.431167	-0.635803
H81	H	-3.769993	-0.241106	-0.830821
H82	H	-3.936555	-0.900562	0.124355
C83	C	-3.686912	-0.273061	-0.679799
N84	N	-3.632166	-0.359316	-0.663219
