data_functionalizedCrystal
_audit_creation_method	'MofGen! by Chris Wilmer'
_symmetry_space_group_name_H-M	'P1'
_symmetry_Int_Tables_number	1
_symmetry_cell_setting	triclinic
loop_
_symmetry_equiv_pos_as_xyz
  x,y,z
_cell_length_a	19.288862
_cell_length_b	6.394989
_cell_length_c	17.766277
_cell_angle_alpha	89.996862
_cell_angle_beta	90.026014
_cell_angle_gamma	95.183502
loop_
_atom_site_label
_atom_site_type_symbol
_atom_site_fract_x
_atom_site_fract_y
_atom_site_fract_z
O1	O	-0.923906	0.260523	-0.062880
O2	O	-0.721989	0.295675	-0.062818
O3	O	-0.825813	-0.025992	-0.062851
O4	O	-0.820081	0.582190	-0.062847
O5	O	-0.825795	-0.026009	0.062338
O6	O	-0.721970	0.295659	0.062371
O7	O	-0.923887	0.260506	0.062308
Cu8	Cu	-0.822927	0.278081	0.073770
Cu9	Cu	-0.822949	0.278100	-0.074280
O10	O	-0.820063	0.582174	0.062341
C11	C	-0.696092	0.294537	-0.000215
C12	C	-0.618955	0.291144	-0.000192
C13	C	-0.576108	0.479883	-0.000200
C14	C	-0.503629	0.476696	-0.000205
C15	C	-0.474002	0.284758	-0.000216
C16	C	-0.516859	0.095994	-0.000203
C17	C	-0.589336	0.099187	-0.000191
C18	C	-0.364268	0.133881	-0.044095
C19	C	-0.291793	0.130696	-0.044112
C20	C	-0.250459	0.274902	-0.000249
C21	C	-0.281609	0.422328	0.043620
C22	C	-0.354086	0.425521	0.043632
C23	C	-0.395413	0.281274	-0.000228
C24	C	-0.129022	0.460198	-0.000262
C25	C	-0.056542	0.457003	-0.000262
C26	C	-0.069774	0.076295	-0.000267
C27	C	-0.142252	0.079496	-0.000260
C28	C	-0.171871	0.271453	-0.000261
C29	C	0.050216	0.261651	-0.000283
C30	C	-0.026920	0.265063	-0.000271
C31	C	-0.821205	0.659993	-0.000257
C32	C	-0.824669	0.896195	-0.000260
N33	N	-0.822916	0.278066	0.177900
N34	N	-0.822965	0.278099	-0.178410
C35	C	-0.868906	0.135702	0.217273
C36	C	-0.868909	0.135692	0.296075
C37	C	-0.822931	0.278083	0.335501
C38	C	-0.776933	0.420458	0.296119
C39	C	-0.776925	0.420450	0.217319
C40	C	-0.815496	0.468384	0.460342
C41	C	-0.815508	0.468395	0.539141
C42	C	-0.822950	0.278108	0.578547
C43	C	-0.830394	0.087801	0.539146
C44	C	-0.830386	0.087793	0.460345
C45	C	-0.822934	0.278107	0.420947
C46	C	-0.868946	0.135721	0.703366
C47	C	-0.868945	0.135708	0.782169
C48	C	-0.776972	0.420493	0.782212
C49	C	-0.776969	0.420488	0.703410
C50	C	-0.822960	0.278104	0.663992
H51	H	-0.153139	0.616501	-0.000252
Br52	Br	-0.445467	0.732860	-0.000212
H53	H	-0.906361	0.019757	0.328137
H54	H	-0.739495	0.536392	0.328224
H55	H	-0.836445	-0.067161	0.428268
Br56	Br	-0.396360	0.625582	0.103167
H57	H	-0.624223	-0.054513	-0.000184
H58	H	-0.177139	-0.074196	-0.000257
Br59	Br	-0.840502	-0.170465	0.592616
Br60	Br	-0.931317	-0.057535	0.163776
Br61	Br	-0.931359	-0.057519	0.649867
Br62	Br	-0.714506	0.613672	0.163880
H63	H	-0.045652	-0.079984	-0.000323
Br64	Br	-0.931358	-0.057534	0.835607
H65	H	-0.600219	0.636189	-0.000202
H66	H	-0.397917	0.016448	-0.079817
Br67	Br	-0.225523	0.618057	0.103149
H68	H	-0.021656	0.610703	-0.000264
H69	H	-0.809424	0.623349	0.428263
H70	H	-0.266436	0.010662	-0.079836
Br71	Br	-0.714564	0.613718	0.835713
H72	H	-0.739523	0.536423	0.671351
H73	H	-0.492732	-0.060283	-0.000222
H74	H	-0.809452	0.623354	0.571215
