data_functionalizedCrystal
_audit_creation_method	'MofGen! by Chris Wilmer'
_symmetry_space_group_name_H-M	'P1'
_symmetry_Int_Tables_number	1
_symmetry_cell_setting	triclinic
loop_
_symmetry_equiv_pos_as_xyz
  x,y,z
_cell_length_a	13.635800
_cell_length_b	27.923497
_cell_length_c	9.514088
_cell_angle_alpha	86.305300
_cell_angle_beta	118.843545
_cell_angle_gamma	81.035752
loop_
_atom_site_label
_atom_site_type_symbol
_atom_site_fract_x
_atom_site_fract_y
_atom_site_fract_z
V1	V	2.097753	-0.067989	0.501814
O2	O	2.101066	0.002382	0.491173
O3	O	2.062199	-0.133960	0.499429
O4	O	2.115248	-0.067332	0.720195
O5	O	2.047649	-0.064708	0.268879
V6	V	2.335635	-0.059526	0.473826
O7	O	2.236891	-0.086554	0.563209
O8	O	2.421596	-0.040962	0.412432
O9	O	2.259586	0.006445	0.476211
O10	O	2.391021	-0.129898	0.484467
O11	O	2.444437	-0.062808	0.706762
O12	O	2.206537	-0.060184	0.255445
V13	V	2.597753	-0.067989	0.501814
O14	O	2.601066	0.002382	0.491173
O15	O	2.562199	-0.133960	0.499429
O16	O	2.615248	-0.067332	0.720195
O17	O	2.547649	-0.064708	0.268879
V18	V	2.835635	-0.059526	0.473826
O19	O	2.736891	-0.086554	0.563209
O20	O	2.921596	-0.040962	0.412432
O21	O	2.759586	0.006445	0.476211
O22	O	2.891021	-0.129898	0.484467
O23	O	2.944437	-0.062808	0.706762
O24	O	2.706537	-0.060184	0.255445
C25	C	1.980588	-0.150031	0.491783
C26	C	1.992440	-0.203965	0.491289
C27	C	2.019009	-0.531229	0.340862
C28	C	2.063569	-0.733933	0.338917
O29	O	2.029428	-0.754038	0.213494
N30	N	2.116108	-0.766460	0.485863
C31	C	2.157517	-0.748308	0.633308
O32	O	2.203238	-0.780625	0.758251
C33	C	2.112964	-0.545605	0.635252
C34	C	2.060412	-0.513080	0.488294
C35	C	1.966462	-0.498705	0.193916
C36	C	1.955317	-0.448032	0.194404
C37	C	1.996720	-0.429883	0.341836
C38	C	2.049267	-0.462407	0.488782
C39	C	2.154380	-0.527454	0.782695
C40	C	2.143239	-0.476774	0.783168
C41	C	2.090687	-0.444250	0.636211
C42	C	2.079526	-0.393585	0.636701
N43	N	2.026986	-0.361059	0.489755
C44	C	1.985584	-0.379208	0.342322
C45	C	2.180902	-0.854729	0.632276
C46	C	2.192039	-0.905405	0.631791
C47	C	2.098092	-0.891027	0.337399
C48	C	2.086948	-0.840350	0.337886
C49	C	2.128363	-0.822203	0.485330
C50	C	1.962182	-0.272791	0.343356
C51	C	1.951037	-0.222114	0.343856
C52	C	2.044990	-0.236497	0.638247
C53	C	2.056129	-0.287169	0.637748
C54	C	2.014725	-0.305315	0.490289
O55	O	2.113650	-0.373446	0.762060
O56	O	1.939889	-0.346883	0.217399
C57	C	2.030153	-0.581902	0.340374
C58	C	2.082700	-0.614426	0.487320
C59	C	2.124103	-0.596277	0.634752
C60	C	2.093837	-0.665102	0.486834
C61	C	2.052434	-0.683251	0.339401
C62	C	1.999895	-0.650725	0.192455
C63	C	1.988750	-0.600052	0.192942
C64	C	2.176643	-0.628804	0.781699
C65	C	2.187782	-0.679476	0.781200
C66	C	2.146379	-0.697625	0.633767
C67	C	2.048257	-0.065039	0.773390
C68	C	2.103128	-0.064938	0.951925
C69	C	2.172867	0.022512	0.483853
C70	C	2.150636	0.076446	0.484358
C71	C	2.105197	-0.062479	0.202242
C72	C	2.039946	-0.062577	0.023706
C73	C	2.480588	-0.150031	0.491783
C74	C	2.492440	-0.203965	0.491289
C75	C	2.548257	-0.065039	0.773390
C76	C	2.603128	-0.064938	0.951925
C77	C	2.672867	0.022512	0.483853
C78	C	2.650636	0.076446	0.484358
C79	C	2.605197	-0.062479	0.202242
C80	C	2.539946	-0.062577	0.023706
C81	C	2.590198	-0.231781	0.499120
C82	C	2.601356	-0.282460	0.498680
C83	C	2.514750	-0.305321	0.490398
C84	C	2.416986	-0.277502	0.482571
C85	C	2.405833	-0.226824	0.483022
C86	C	2.725373	0.104262	0.476531
C87	C	2.704488	0.154940	0.476979
C88	C	2.608871	0.177802	0.485265
C89	C	2.534127	0.149982	0.493088
C90	C	2.555008	0.099306	0.492628
H91	H	1.928465	-0.287559	0.223282
H92	H	1.943877	-0.060638	0.948580
H93	H	1.966178	-0.665510	0.072409
H94	H	2.494149	0.076661	0.499016
H95	H	1.932746	-0.513476	0.073853
H96	H	2.591881	0.219066	0.485637
C97	C	2.052555	-0.910995	0.175223
H98	H	2.019663	-0.884369	0.087764
H99	H	2.113926	-0.932053	0.174088
H100	H	1.995968	-0.928877	0.163761
H101	H	1.912532	-0.421555	0.074736
C102	C	2.527023	-0.361065	0.489892
H103	H	2.461449	-0.370701	0.483847
H104	H	2.533547	-0.368849	0.398603
H105	H	2.593644	-0.378036	0.586938
H106	H	2.680966	-0.305104	0.505050
H107	H	2.803236	0.085655	0.469785
H108	H	2.346477	-0.296123	0.475827
H109	H	2.765361	0.177584	0.470611
C110	C	2.428955	0.175132	0.502205
H111	H	2.387421	0.151312	0.506790
H112	H	2.453550	0.190205	0.596882
H113	H	2.380997	0.199393	0.408546
C114	C	2.410165	-0.059956	0.922226
H115	H	2.389073	-0.060370	0.811519
H116	H	2.391736	-0.087389	0.961395
H117	H	2.369615	-0.030485	0.931130
H118	H	1.908238	-0.195634	0.224180
H119	H	2.197172	-0.553927	0.902364
H120	H	2.326223	-0.204180	0.476636
C121	C	2.732917	-0.067560	1.053413
H122	H	2.754009	-0.067141	1.164118
H123	H	2.773465	-0.097027	1.044500
H124	H	2.751341	-0.040123	1.014244
H125	H	2.078693	-0.221710	0.758283
C126	C	2.232917	-0.067560	1.053413
H127	H	2.254009	-0.067141	1.164118
H128	H	2.273465	-0.097027	1.044500
H129	H	2.251341	-0.040123	1.014244
C130	C	2.188791	-0.456815	0.945360
H131	H	2.221673	-0.483445	1.032800
H132	H	2.245367	-0.438929	0.956826
H133	H	2.127418	-0.435761	0.946520
H134	H	2.044155	-0.813871	0.218220
H135	H	2.214628	-0.839959	0.752349
C136	C	2.249835	-0.941176	0.793442
H137	H	2.272905	-0.923104	0.881310
H138	H	2.197169	-0.959658	0.794234
H139	H	2.315114	-0.962828	0.804526
H140	H	1.945958	-0.573574	0.073274
C141	C	2.113926	-0.322947	0.799394
H142	H	2.136991	-0.304878	0.887268
H143	H	2.061263	-0.341432	0.800177
H144	H	2.179209	-0.344596	0.810476
C145	C	2.245580	-0.715250	0.942859
H146	H	2.246286	-0.748031	0.921470
H147	H	2.322024	-0.711481	1.008569
H148	H	2.204072	-0.708310	0.998257
C149	C	2.222180	-0.608846	0.943883
H150	H	2.255056	-0.635479	1.031317
H151	H	2.278760	-0.590961	0.955368
H152	H	2.160803	-0.587794	0.945036
H153	H	2.660724	-0.213174	0.505855
