data_functionalizedCrystal
_audit_creation_method	'MofGen! by Chris Wilmer'
_symmetry_space_group_name_H-M	'P1'
_symmetry_Int_Tables_number	1
_symmetry_cell_setting	triclinic
loop_
_symmetry_equiv_pos_as_xyz
  x,y,z
_cell_length_a	10.489741
_cell_length_b	19.288865
_cell_length_c	18.366186
_cell_angle_alpha	90.011479
_cell_angle_beta	90.006338
_cell_angle_gamma	83.837711
loop_
_atom_site_label
_atom_site_type_symbol
_atom_site_fract_x
_atom_site_fract_y
_atom_site_fract_z
O1	O	-1.691846	-0.097994	-0.060514
O2	O	-1.191846	0.402006	0.439486
O3	O	-1.320442	-0.107192	-0.060526
O4	O	-0.820442	0.392808	0.439474
O5	O	-1.516876	-0.001535	-0.060505
O6	O	-1.016876	0.498465	0.439495
O7	O	-1.495412	-0.203651	-0.060535
O8	O	-0.995412	0.296349	0.439465
O9	O	-1.516842	-0.001529	0.060594
O10	O	-1.016842	0.498471	0.560594
O11	O	-1.320409	-0.107187	0.060573
O12	O	-0.820409	0.392813	0.560573
O13	O	-1.691813	-0.097988	0.060585
O14	O	-1.191813	0.402012	0.560585
Zn15	Zn	-1.506105	-0.102587	0.079806
Zn16	Zn	-1.006105	0.397413	0.579806
Zn17	Zn	-1.506149	-0.102594	-0.079747
Zn18	Zn	-1.006149	0.397406	0.420253
O19	O	-1.495379	-0.203646	0.060564
O20	O	-0.995379	0.296354	0.560564
C21	C	-1.516169	0.024349	0.000046
C22	C	-1.016169	0.524349	0.500046
C23	C	-1.514095	0.101467	0.000053
C24	C	-1.014095	0.601467	0.500053
C25	C	-1.272910	-0.106495	0.000022
C26	C	-0.772910	0.393505	0.500022
C27	C	-1.131327	-0.104416	0.000018
C28	C	-0.631327	0.395584	0.500018
C29	C	-1.739345	-0.098686	0.000035
C30	C	-1.239345	0.401314	0.500035
C31	C	-1.880928	-0.100764	0.000035
C32	C	-1.380928	0.399236	0.500035
C33	C	-1.064707	-0.037189	0.000035
C34	C	-0.564707	0.462811	0.500035
C35	C	-0.971879	-0.068949	-0.059677
C36	C	-0.471879	0.431051	0.440323
C37	C	-0.971880	-0.068960	0.059718
C38	C	-0.471880	0.431040	0.559718
C39	C	-1.040363	-0.136204	-0.059743
C40	C	-0.540363	0.363796	0.440257
C41	C	-1.040374	-0.136205	0.059705
C42	C	-0.540374	0.363795	0.559705
C43	C	-0.947572	-0.168014	-0.000021
C44	C	-0.447572	0.331986	0.499979
C45	C	-1.496086	-0.229530	0.000011
C46	C	-0.996086	0.270470	0.500011
C47	C	-1.498159	-0.306647	-0.000000
C48	C	-0.998159	0.193353	0.500000
N49	N	-1.506085	-0.102581	0.188697
N50	N	-1.006085	0.397419	0.688697
C51	C	-1.629354	0.145390	0.000060
C52	C	-1.129354	0.645390	0.500060
C53	C	-1.627406	0.217850	0.000049
C54	C	-1.127406	0.717850	0.500049
C55	C	-1.510193	0.246384	0.000044
C56	C	-1.010193	0.746384	0.500044
C57	C	-1.394920	0.202451	0.000033
C58	C	-0.894920	0.702451	0.500033
C59	C	-1.396871	0.129992	0.000037
C60	C	-0.896871	0.629992	0.500037
C61	C	-1.418039	0.355291	0.042460
C62	C	-0.918039	0.855291	0.542460
C63	C	-1.416093	0.427748	0.042460
C64	C	-0.916093	0.927748	0.542460
C65	C	-1.504171	0.469870	0.000028
C66	C	-1.004171	0.969870	0.500028
C67	C	-1.594217	0.439526	-0.042395
C68	C	-1.094217	0.939526	0.457605
C69	C	-1.596168	0.367067	-0.042391
C70	C	-1.096168	0.867067	0.457609
C71	C	-1.508065	0.324952	0.000039
C72	C	-1.008065	0.824952	0.500039
C73	C	-1.617326	0.592363	0.000021
C74	C	-1.117326	1.092363	0.500021
C75	C	-1.615373	0.664824	0.000005
C76	C	-1.115373	1.164824	0.500005
C77	C	-1.382884	0.649423	-0.000003
C78	C	-0.882884	1.149423	0.499997
C79	C	-1.384839	0.576964	0.000006
C80	C	-0.884839	1.076964	0.500006
C81	C	-1.502064	0.548438	0.000021
C82	C	-1.002064	1.048438	0.500021
N83	N	-1.506180	-0.102594	-0.188638
N84	N	-1.006180	0.397406	0.311362
C85	C	-1.593094	-0.055820	0.226807
C86	C	-1.093094	0.444180	0.726807
C87	C	-1.593102	-0.055817	0.303035
C88	C	-1.093102	0.444183	0.803035
C89	C	-1.506113	-0.102587	0.341150
C90	C	-1.006113	0.397413	0.841150
C91	C	-1.419088	-0.149353	0.303031
C92	C	-0.919088	0.350647	0.803031
C93	C	-1.419073	-0.149350	0.226805
C94	C	-0.919073	0.350650	0.726805
C95	C	-1.489039	-0.165761	0.461901
C96	C	-0.989039	0.334239	0.961901
C97	C	-1.489062	-0.165765	0.538126
C98	C	-0.989062	0.334235	1.038126
C99	C	-1.506149	-0.102596	0.576258
C100	C	-1.006149	0.397404	1.076258
C101	C	-1.523241	-0.039421	0.538155
C102	C	-1.023241	0.460579	1.038155
C103	C	-1.523226	-0.039418	0.461929
C104	C	-1.023226	0.460582	0.961929
C105	C	-1.506118	-0.102595	0.423805
C106	C	-1.006118	0.397405	0.923805
C107	C	-1.593172	-0.055827	0.697022
C108	C	-1.093172	0.444173	1.197022
C109	C	-1.593171	-0.055823	0.773252
C110	C	-1.093171	0.444177	1.273252
C111	C	-1.419163	-0.149365	0.773247
C112	C	-0.919163	0.350635	1.273247
C113	C	-1.419158	-0.149363	0.697019
C114	C	-0.919158	0.350637	1.197019
C115	C	-1.506169	-0.102595	0.658911
C116	C	-1.006169	0.397405	1.158911
H117	H	-0.941521	-0.040507	-0.110151
H118	H	-0.441521	0.459493	0.389849
N119	N	-1.132152	0.036020	-0.000024
N120	N	-0.632152	0.536020	0.499976
H121	H	-1.106206	0.061689	0.044615
H122	H	-0.606206	0.561689	0.544615
H123	H	-1.107421	0.061267	-0.045194
H124	H	-0.607421	0.561267	0.454806
H125	H	-0.896897	-0.223337	-0.000061
H126	H	-0.396897	0.276663	0.499939
H127	H	-1.346312	0.321001	0.077017
H128	H	-0.846312	0.821001	0.577017
H129	H	-1.475154	-0.217205	0.569143
H130	H	-0.975154	0.282795	1.069143
N131	N	-1.080349	-0.173856	-0.126689
N132	N	-0.580349	0.326144	0.373311
H133	H	-1.176380	-0.175010	-0.126294
H134	H	-0.676380	0.324990	0.373706
H135	H	-1.054776	-0.148633	-0.171690
H136	H	-0.554776	0.351367	0.328310
N137	N	-1.689230	0.484945	-0.088163
N138	N	-1.189230	0.984945	0.411837
H139	H	-1.674331	0.535452	-0.081734
H140	H	-1.174331	1.035452	0.418266
H141	H	-1.677662	0.471474	-0.141082
H142	H	-1.177662	0.971474	0.358918
N143	N	-1.080652	-0.173862	0.126554
N144	N	-0.580652	0.326138	0.626554
H145	H	-1.036310	-0.222999	0.127015
H146	H	-0.536310	0.277001	0.627015
H147	H	-1.056048	-0.148381	0.171611
H148	H	-0.556048	0.351619	0.671611
N149	N	-1.743755	0.561592	0.000037
N150	N	-1.243755	1.061592	0.500037
H151	H	-1.727502	0.509024	0.000048
H152	H	-1.227502	1.009024	0.500048
H153	H	-1.794148	0.577637	0.044934
H154	H	-1.294148	1.077637	0.544934
H155	H	-1.348330	-0.187444	0.804279
H156	H	-0.848330	0.312556	1.304279
H157	H	-1.709234	0.700587	0.000007
H158	H	-1.209234	1.200587	0.500007
H159	H	-1.290983	0.541200	0.000004
H160	H	-0.790983	1.041200	0.500004
H161	H	-0.941531	-0.040500	0.110200
H162	H	-0.441531	0.459500	0.610200
H163	H	-1.724807	0.122170	0.000070
H164	H	-1.224807	0.622170	0.500070
N165	N	-1.272557	0.082608	0.000043
N166	N	-0.772557	0.582608	0.500043
H167	H	-1.268196	0.052187	-0.044844
H168	H	-0.768196	0.552187	0.455156
H169	H	-1.198071	0.111720	0.000066
H170	H	-0.698071	0.611720	0.500066
N171	N	-1.693274	0.334340	-0.088149
N172	N	-1.193274	0.834340	0.411851
H173	H	-1.681141	0.282047	-0.081705
H174	H	-1.181141	0.782047	0.418295
H175	H	-1.782625	0.352949	-0.072284
H176	H	-1.282625	0.852949	0.427716
H177	H	-1.299484	0.225687	0.000028
H178	H	-0.799484	0.725687	0.500028
H179	H	-1.663958	-0.017736	0.334070
H180	H	-1.163958	0.482264	0.834070
H181	H	-1.721266	0.253619	0.000052
H182	H	-1.221266	0.753619	0.500052
H183	H	-1.287447	0.672654	-0.000010
H184	H	-0.787447	1.172654	0.499990
N185	N	-1.318992	0.460475	0.088222
N186	N	-0.818992	0.960475	0.588222
H187	H	-1.263483	0.422798	0.115099
H188	H	-0.763483	0.922798	0.615099
H189	H	-1.263505	0.486913	0.055679
H190	H	-0.763505	0.986913	0.555679
H191	H	-1.348312	-0.187444	0.665988
H192	H	-0.848312	0.312556	1.165988
N193	N	-1.470611	-0.233896	0.420776
N194	N	-0.970611	0.266104	0.920776
H195	H	-1.459800	-0.273916	0.456478
H196	H	-0.959800	0.226084	0.956478
H197	H	-1.548066	-0.238359	0.389141
H198	H	-1.048066	0.261641	0.889141
H199	H	-1.663941	-0.017737	0.195782
H200	H	-1.163941	0.482263	0.695782
H201	H	-1.348258	-0.187433	0.334069
H202	H	-0.848258	0.312567	0.834069
N203	N	-1.541703	0.028718	0.579266
N204	N	-1.041703	0.528718	1.079266
H205	H	-1.470990	0.058065	0.566015
H206	H	-0.970990	0.558065	1.066015
H207	H	-1.627414	0.054545	0.565970
H208	H	-1.127414	0.554545	1.065970
H209	H	-1.537139	0.012021	0.430909
H210	H	-1.037139	0.512021	0.930909
N211	N	-1.687010	-0.005386	0.655914
N212	N	-1.187010	0.494614	1.155914
H213	H	-1.742126	0.024243	0.691626
H214	H	-1.242126	0.524243	1.191626
H215	H	-1.638359	0.025579	0.624298
H216	H	-1.138359	0.525579	1.124298
N217	N	-1.325220	-0.199785	0.185696
N218	N	-0.825220	0.300215	0.685696
H219	H	-1.270107	-0.229413	0.221405
H220	H	-0.770107	0.270587	0.721405
H221	H	-1.373858	-0.230752	0.154055
H222	H	-0.873858	0.269248	0.654055
N223	N	-1.687043	-0.005397	0.814360
N224	N	-1.187043	0.494603	1.314360
H225	H	-1.742168	0.024223	0.778649
H226	H	-1.242168	0.524223	1.278649
H227	H	-1.743255	-0.032308	0.845965
H228	H	-1.243255	0.467692	1.345965
