data_functionalizedCrystal
_audit_creation_method	'MofGen! by Chris Wilmer'
_symmetry_space_group_name_H-M	'P1'
_symmetry_Int_Tables_number	1
_symmetry_cell_setting	triclinic
loop_
_symmetry_equiv_pos_as_xyz
  x,y,z
_cell_length_a	12.827893
_cell_length_b	14.908520
_cell_length_c	12.827885
_cell_angle_alpha	93.263516
_cell_angle_beta	89.980728
_cell_angle_gamma	93.320575
loop_
_atom_site_label
_atom_site_type_symbol
_atom_site_fract_x
_atom_site_fract_y
_atom_site_fract_z
Zn1	Zn	1.573615	-0.359115	-0.614817
Zn2	Zn	1.563402	-0.509998	-0.450147
Zn3	Zn	1.398853	-0.359159	-0.440093
Zn4	Zn	1.388739	-0.509931	-0.624843
O5	O	1.481152	-0.434551	-0.532475
O6	O	1.718495	-0.379139	-0.592984
O7	O	1.541533	-0.490036	-0.302580
O8	O	1.430542	-0.232908	-0.454867
O9	O	1.710992	-0.489993	-0.472002
O10	O	1.558939	-0.232876	-0.583236
O11	O	1.420640	-0.379214	-0.295194
O12	O	1.251276	-0.379149	-0.464589
O13	O	1.413304	-0.489879	-0.769746
O14	O	1.243845	-0.489921	-0.600323
O15	O	1.549132	-0.379074	-0.762380
O16	O	1.531726	-0.636234	-0.481724
O17	O	1.403401	-0.636184	-0.610072
C18	C	1.209643	-0.434533	-0.532454
C19	C	1.093489	-0.434548	-0.532471
C20	C	1.465386	-0.668943	-0.548100
C21	C	1.458737	-0.769217	-0.554820
C22	C	1.038049	-0.489447	-0.599545
C23	C	0.917998	-0.489463	-0.599564
C24	C	1.580004	-0.957632	-0.433905
C25	C	1.573760	-1.051849	-0.440215
C26	C	1.440011	-1.051867	-0.573755
C27	C	1.446255	-0.957651	-0.567444
C28	C	1.516253	-0.910537	-0.497516
C29	C	1.522491	-0.816319	-0.491201
C30	C	1.388748	-0.816339	-0.624745
C31	C	1.382504	-0.910555	-0.631056
C32	C	1.753721	-0.434569	-0.532497
C33	C	1.869874	-0.434576	-0.532506
C34	C	1.481229	-0.434464	-0.805039
C35	C	1.481262	-0.434427	-0.921190
C36	C	1.497008	-0.199243	-0.516811
C37	C	1.503765	-0.098969	-0.510137
C38	C	1.414107	-0.489195	-1.096660
C39	C	1.414072	-0.489234	-0.976612
C40	C	1.481140	-0.434572	-0.260966
C41	C	1.481327	-0.434355	-0.144799
H42	H	1.079463	-0.536433	-0.656958
H43	H	0.870335	-0.536467	-0.656985
H44	H	1.383030	-1.090244	-0.630693
O45	O	1.635853	-1.097482	-0.378466
C46	C	1.741515	-1.074361	-0.399892
H47	H	1.748162	-1.005933	-0.435498
H48	H	1.773178	-1.127327	-0.457194
C49	C	1.797016	-1.154037	-0.254063
C50	C	1.805182	-1.069988	-0.297786
H51	H	1.836291	-1.151343	-0.191082
H52	H	1.725831	-1.169617	-0.239630
H53	H	1.823401	-1.198166	-0.301825
H54	H	1.778785	-1.025863	-0.250030
H55	H	1.876365	-1.054400	-0.312210
H56	H	1.538845	-0.387429	-1.097138
O57	O	0.926827	-0.378625	-0.463949
C58	C	0.986462	-0.429962	-0.399808
H59	H	0.998131	-0.498379	-0.441108
H60	H	0.943765	-0.439767	-0.322969
C61	C	1.079189	-0.296346	-0.327027
C62	C	1.093528	-0.380374	-0.377757
H63	H	1.145230	-0.265757	-0.313420
H64	H	1.039009	-0.261758	-0.370237
H65	H	1.043604	-0.304529	-0.263001
H66	H	1.129100	-0.372190	-0.441787
H67	H	1.133716	-0.414959	-0.334557
O68	O	1.044143	-0.378362	-0.464080
C69	C	1.076797	-0.288445	-0.481040
H70	H	1.107217	-0.283940	-0.564198
H71	H	1.141627	-0.264747	-0.423405
C72	C	0.946434	-0.233852	-0.362953
C73	C	0.983788	-0.228319	-0.465092
H74	H	0.889065	-0.196762	-0.353111
H75	H	0.924437	-0.294431	-0.351523
H76	H	1.000469	-0.214106	-0.314935
H77	H	0.929758	-0.248076	-0.513107
H78	H	1.005775	-0.167742	-0.476530
H79	H	1.636991	-0.919271	-0.376960
O80	O	1.590425	-0.770648	-0.423139
C81	C	1.566107	-0.793738	-0.320509
H82	H	1.521401	-0.862177	-0.322889
H83	H	1.515912	-0.740775	-0.281711
C84	C	1.722646	-0.713995	-0.254675
C85	C	1.667745	-0.798057	-0.257598
H86	H	1.785340	-0.716655	-0.215866
H87	H	1.739028	-0.698435	-0.323818
H88	H	1.680806	-0.669868	-0.222346
H89	H	1.709580	-0.842179	-0.289939
H90	H	1.651372	-0.813623	-0.188459
H91	H	1.325517	-0.948929	-0.687992
O92	O	1.345380	-0.545205	-1.153350
C93	C	1.282892	-0.596221	-1.085284
H94	H	1.281665	-0.559356	-1.004997
H95	H	1.316531	-0.664752	-1.078280
C96	C	1.172356	-0.654450	-1.227456
C97	C	1.170842	-0.609168	-1.128848
H98	H	1.103239	-0.662440	-1.254330
H99	H	1.214457	-0.620082	-1.273315
H100	H	1.200394	-0.711554	-1.221606
H101	H	1.142817	-0.552061	-1.134701
H102	H	1.128733	-0.643526	-1.082991
O103	O	1.549881	-0.378283	-0.970454
C104	C	1.533099	-0.288355	-0.937890
H105	H	1.493104	-0.286447	-0.858487
H106	H	1.481380	-0.257994	-0.997273
C107	C	1.687782	-0.236053	-1.026886
C108	C	1.638666	-0.233710	-0.929357
H109	H	1.752899	-0.202343	-1.021627
H110	H	1.699087	-0.296638	-1.048829
H111	H	1.644672	-0.210754	-1.076361
H112	H	1.681770	-0.259018	-0.879887
H113	H	1.627371	-0.173127	-0.907406
O114	O	1.326966	-0.770551	-0.686652
C115	C	1.390030	-0.715944	-0.750531
H116	H	1.470457	-0.744264	-0.758965
H117	H	1.398375	-0.644556	-0.713442
C118	C	1.240221	-0.679687	-0.848658
C119	C	1.339000	-0.714474	-0.859025
H120	H	1.208742	-0.678776	-0.915581
H121	H	1.197732	-0.716474	-0.805620
H122	H	1.247189	-0.620200	-0.817747
H123	H	1.332030	-0.773963	-0.889923
H124	H	1.381486	-0.677697	-0.902071
H125	H	1.356527	-0.536188	-0.935200
