data_functionalizedCrystal
_audit_creation_method	'MofGen! by Chris Wilmer'
_symmetry_space_group_name_H-M	'P1'
_symmetry_Int_Tables_number	1
_symmetry_cell_setting	triclinic
loop_
_symmetry_equiv_pos_as_xyz
  x,y,z
_cell_length_a	19.188933
_cell_length_b	19.188924
_cell_length_c	10.268362
_cell_angle_alpha	89.992651
_cell_angle_beta	89.996830
_cell_angle_gamma	83.143767
loop_
_atom_site_label
_atom_site_type_symbol
_atom_site_fract_x
_atom_site_fract_y
_atom_site_fract_z
O1	O	0.926142	0.087175	-0.108263
O2	O	1.426142	0.587175	0.391737
O3	O	0.722830	0.098908	-0.108276
O4	O	1.222830	0.598908	0.391724
O5	O	0.830356	-0.008615	-0.108253
O6	O	1.330356	0.491385	0.391747
O7	O	0.818616	0.194697	-0.108285
O8	O	1.318616	0.694697	0.391715
O9	O	0.830346	-0.008619	0.108347
O10	O	1.330346	0.491381	0.608347
O11	O	0.722821	0.098903	0.108325
O12	O	1.222821	0.598903	0.608325
O13	O	0.926132	0.087170	0.108338
O14	O	1.426132	0.587170	0.608338
Cu15	Cu	0.824476	0.093037	0.128109
Cu16	Cu	1.324476	0.593037	0.628109
Cu17	Cu	0.824487	0.093042	-0.128047
Cu18	Cu	1.324487	0.593042	0.371953
O19	O	0.818607	0.194693	0.108316
O20	O	1.318607	0.694693	0.608316
C21	C	0.696815	0.098525	0.000023
C22	C	1.196815	0.598525	0.500023
C23	C	0.619310	0.097384	0.000019
C24	C	1.119310	0.597384	0.500019
C25	C	0.066060	0.089241	-0.118035
C26	C	0.566060	0.589241	0.381965
C27	C	0.138884	0.090309	-0.118040
C28	C	0.638884	0.590309	0.381960
C29	C	0.175296	0.090844	0.000028
C30	C	0.675296	0.590844	0.500028
C31	C	0.138880	0.090293	0.118111
C32	C	0.638880	0.590293	0.618111
C33	C	0.066058	0.089218	0.118113
C34	C	0.566058	0.589218	0.618113
N35	N	0.284312	0.132261	0.087906
N36	N	0.784312	0.632261	0.587906
N37	N	0.353489	0.133284	0.087896
N38	N	0.853489	0.633284	0.587896
C39	C	0.394705	0.094082	0.000030
C40	C	0.894705	0.594082	0.500030
N41	N	0.364129	0.053828	-0.087846
N42	N	0.864129	0.553828	0.412154
N43	N	0.294944	0.052808	-0.087840
N44	N	0.794944	0.552808	0.412160
C45	C	0.254260	0.092010	0.000040
C46	C	0.754260	0.592010	0.500040
C47	C	0.510077	0.095787	-0.118051
C48	C	1.010077	0.595787	0.381949
C49	C	0.582903	0.096850	-0.118051
C50	C	1.082903	0.596850	0.381949
C51	C	0.582897	0.096841	0.118104
C52	C	1.082897	0.596841	0.618104
C53	C	0.510073	0.095770	0.118100
C54	C	1.010073	0.595770	0.618100
C55	C	0.473667	0.095246	0.000020
C56	C	0.973667	0.595246	0.500020
C57	C	0.829972	-0.034628	0.000048
C58	C	1.329972	0.465372	0.500048
C59	C	0.828833	-0.112133	0.000051
C60	C	1.328833	0.387867	0.500051
C61	C	0.828307	-0.148529	-0.118018
C62	C	1.328307	0.351471	0.381982
C63	C	0.827227	-0.221352	-0.118028
C64	C	1.327227	0.278648	0.381972
C65	C	0.826687	-0.257777	0.000038
C66	C	1.326687	0.242223	0.500038
C67	C	0.827210	-0.221371	0.118123
C68	C	1.327210	0.278629	0.618123
C69	C	0.828283	-0.148549	0.118130
C70	C	1.328283	0.351451	0.618130
N71	N	0.864731	-0.377442	0.087914
N72	N	1.364731	0.122558	0.587914
N73	N	0.863713	-0.446620	0.087900
N74	N	1.363713	0.053380	0.587900
C75	C	0.823453	-0.477186	0.000025
C76	C	1.323453	0.022814	0.500025
N77	N	0.784258	-0.435962	-0.087854
N78	N	1.284258	0.064038	0.412146
N79	N	0.785279	-0.366778	-0.087844
N80	N	1.285279	0.133222	0.412156
C81	C	0.825523	-0.336741	0.000044
C82	C	1.325523	0.163259	0.500044
C83	C	0.821755	-0.592545	-0.118063
C84	C	1.321755	-0.092545	0.381937
C85	C	0.820670	-0.665369	-0.118068
C86	C	1.320670	-0.165369	0.381932
C87	C	0.820661	-0.665388	0.118087
C88	C	1.320661	-0.165388	0.618087
C89	C	0.821738	-0.592565	0.118088
C90	C	1.321738	-0.092565	0.618088
C91	C	0.822288	-0.556149	0.000010
C92	C	1.322288	-0.056149	0.500010
C93	C	0.952148	0.087553	0.000036
C94	C	1.452148	0.587553	0.500036
C95	C	1.029653	0.088694	0.000032
C96	C	1.529653	0.588694	0.500032
C97	C	0.818991	0.220706	0.000011
C98	C	1.318991	0.720706	0.500011
C99	C	0.820130	0.298211	-0.000001
C100	C	1.320130	0.798211	0.499999
N101	N	0.824473	0.093032	0.308275
N102	N	1.324473	0.593032	0.808275
N103	N	0.824495	0.093040	-0.308212
N104	N	1.324495	0.593040	0.191788
C105	C	0.824483	0.093040	0.573945
C106	C	1.324483	0.593040	1.073945
C107	C	0.824476	0.093038	0.426107
C108	C	1.324476	0.593038	0.926107
H109	H	0.036423	0.088812	-0.214186
H110	H	0.536423	0.588812	0.285814
H111	H	0.826794	-0.250991	-0.214177
H112	H	1.326794	0.249009	0.285823
H113	H	0.612543	0.097274	0.214237
H114	H	1.112543	0.597274	0.714237
H115	H	0.822172	-0.562931	0.214233
H116	H	1.322172	-0.062931	0.714233
C117	C	0.826615	-0.261440	0.247996
C118	C	1.326615	0.238560	0.747996
N119	N	0.826164	-0.291620	0.345821
N120	N	1.326164	0.208380	0.845821
C121	C	0.026008	0.088626	0.248001
C122	C	0.526008	0.588626	0.748001
N123	N	-0.004161	0.088184	0.345836
N124	N	0.495839	0.588184	0.845836
H125	H	0.480429	0.095327	0.214243
H126	H	0.980429	0.595327	0.714243
C127	C	0.828905	-0.108475	-0.247908
C128	C	1.328905	0.391525	0.252092
N129	N	0.829355	-0.078304	-0.345742
N130	N	1.329355	0.421696	0.154258
H131	H	0.168533	0.090759	-0.214187
H132	H	0.668533	0.590759	0.285813
H133	H	0.820238	-0.695001	-0.214218
H134	H	1.320238	-0.195001	0.285782
H135	H	0.828708	-0.118915	0.214279
H136	H	1.328708	0.381085	0.714279
H137	H	0.820216	-0.695044	0.214218
H138	H	1.320216	-0.195044	0.714218
C139	C	0.178932	0.090901	0.247987
C140	C	0.678932	0.590901	0.747987
N141	N	0.209099	0.091364	0.345813
N142	N	0.709099	0.591364	0.845813
C143	C	0.470029	0.095202	-0.247940
C144	C	0.970029	0.595202	0.252060
N145	N	0.439867	0.094760	-0.345775
N146	N	0.939867	0.594760	0.154225
C147	C	0.822350	-0.552484	-0.247950
C148	C	1.322350	-0.052484	0.252050
N149	N	0.822795	-0.522311	-0.345782
N150	N	1.322795	-0.022311	0.154218
H151	H	0.612546	0.097291	-0.214199
H152	H	1.112546	0.597291	0.285801
