data_functionalizedCrystal
_audit_creation_method	'MofGen! by Chris Wilmer'
_symmetry_space_group_name_H-M	'P1'
_symmetry_Int_Tables_number	1
_symmetry_cell_setting	triclinic
loop_
_symmetry_equiv_pos_as_xyz
  x,y,z
_cell_length_a	8.559649
_cell_length_b	27.731996
_cell_length_c	7.681481
_cell_angle_alpha	84.300998
_cell_angle_beta	94.913240
_cell_angle_gamma	76.200026
loop_
_atom_site_label
_atom_site_type_symbol
_atom_site_fract_x
_atom_site_fract_y
_atom_site_fract_z
O1	O	2.105309	-0.011273	-0.146396
O2	O	1.639470	0.013715	-0.146415
O3	O	1.886905	-0.069685	-0.146367
O4	O	1.857874	0.072127	-0.146444
O5	O	1.917361	-0.079971	0.146497
O6	O	1.669926	0.003429	0.146448
O7	O	2.135764	-0.021559	0.146468
Zn8	Zn	1.907681	-0.010698	0.192957
Zn9	Zn	1.867554	0.002854	-0.192904
O10	O	1.888330	0.061841	0.146420
C11	C	1.595120	0.010466	0.000015
C12	C	1.417597	0.016102	0.000009
C13	C	1.901537	-0.092815	0.000071
C14	C	1.899743	-0.146409	0.000089
C15	C	1.871835	-0.473121	-0.159638
C16	C	1.865013	-0.674541	-0.159669
O17	O	1.849943	-0.695810	-0.295438
N18	N	1.880767	-0.705335	-0.000030
C19	C	1.898217	-0.685771	0.159627
O20	O	1.911444	-0.716584	0.295409
C21	C	1.905028	-0.484352	0.159657
C22	C	1.889289	-0.453561	0.000008
C23	C	1.856095	-0.442331	-0.319274
C24	C	1.857810	-0.391980	-0.319264
C25	C	1.875264	-0.372419	-0.159619
C26	C	1.891003	-0.403210	0.000017
C27	C	1.922467	-0.464788	0.319312
C28	C	1.924164	-0.414429	0.319306
C29	C	1.908425	-0.383638	0.159657
C30	C	1.910172	-0.333298	0.159672
N31	N	1.894417	-0.302504	0.000033
C32	C	1.876963	-0.322064	-0.159612
C33	C	1.894644	-0.791519	0.159601
C34	C	1.892944	-0.841874	0.159594
C35	C	1.859736	-0.830640	-0.159703
C36	C	1.861448	-0.780285	-0.159694
C37	C	1.878889	-0.760725	-0.000038
C38	C	1.880567	-0.216324	-0.159580
C39	C	1.882289	-0.165969	-0.159556
C40	C	1.915488	-0.177207	0.159739
C41	C	1.913774	-0.227558	0.159717
C42	C	1.896307	-0.247114	0.000043
O43	O	1.925217	-0.311994	0.295370
O44	O	1.863703	-0.291241	-0.295373
C45	C	1.870120	-0.523472	-0.159647
C46	C	1.885860	-0.554263	-0.000011
C47	C	1.903314	-0.534703	0.159634
C48	C	1.884160	-0.604618	-0.000018
C49	C	1.866706	-0.624178	-0.159663
C50	C	1.850952	-0.593384	-0.319302
C51	C	1.852666	-0.543033	-0.319292
C52	C	1.919068	-0.565497	0.319273
C53	C	1.917354	-0.615848	0.319250
C54	C	1.899900	-0.635408	0.159605
C55	C	2.180114	-0.018309	0.000034
C56	C	2.357636	-0.023946	0.000028
C57	C	1.873697	0.084971	-0.000022
C58	C	1.875490	0.138566	-0.000052
N59	N	1.935078	-0.019947	0.456296
N60	N	1.840170	0.012099	-0.456244
H61	H	1.869476	-0.140901	-0.289567
Cl62	Cl	2.084684	-0.070449	0.572428
Cl63	Cl	1.858610	-0.240901	-0.360316
Cl64	Cl	1.488056	-0.083541	0.000051
H65	H	1.844987	-0.366913	-0.449267
Cl66	Cl	1.287167	0.075702	-0.000041
H67	H	1.841876	-0.458250	-0.449283
H68	H	1.930185	-0.640915	0.449265
H69	H	1.743288	0.044810	0.468541
Cl70	Cl	1.837784	-0.855239	-0.360399
Cl71	Cl	1.841655	-0.741581	-0.360403
H72	H	1.905785	-0.866942	0.289596
Cl73	Cl	1.916565	-0.766936	0.360333
Cl74	Cl	1.832875	-0.504331	-0.520005
H75	H	1.926605	-0.252631	0.289716
H76	H	1.935286	-0.489850	0.449316
H77	H	1.938344	-0.398504	0.449320
Cl78	Cl	1.937429	-0.152607	0.360425
Cl79	Cl	1.829017	-0.617985	-0.519997
H80	H	1.933284	-0.549577	0.449278
