data_functionalizedCrystal
_audit_creation_method	'MofGen! by Chris Wilmer'
_symmetry_space_group_name_H-M	'P1'
_symmetry_Int_Tables_number	1
_symmetry_cell_setting	triclinic
loop_
_symmetry_equiv_pos_as_xyz
  x,y,z
_cell_length_a	14.519709
_cell_length_b	14.519731
_cell_length_c	12.996460
_cell_angle_alpha	89.999130
_cell_angle_beta	89.999039
_cell_angle_gamma	83.684499
loop_
_atom_site_label
_atom_site_type_symbol
_atom_site_fract_x
_atom_site_fract_y
_atom_site_fract_z
O1	O	1.223880	0.120883	-0.085435
O2	O	1.473880	0.370883	0.164565
O3	O	1.723880	0.620883	0.414565
O4	O	1.973880	0.870883	0.664565
O5	O	0.955404	0.135120	-0.085467
O6	O	1.205404	0.385120	0.164533
O7	O	1.455404	0.635120	0.414533
O8	O	1.705404	0.885120	0.664533
O9	O	1.096750	-0.006236	-0.085441
O10	O	1.346750	0.243764	0.164559
O11	O	1.596750	0.493764	0.414559
O12	O	1.846750	0.743764	0.664559
O13	O	1.082534	0.262238	-0.085461
O14	O	1.332534	0.512238	0.164539
O15	O	1.582534	0.762238	0.414539
O16	O	1.832534	1.012238	0.664539
O17	O	1.096731	-0.006226	0.085693
O18	O	1.346731	0.243774	0.335693
O19	O	1.596731	0.493774	0.585693
O20	O	1.846731	0.743774	0.835693
O21	O	0.955385	0.135129	0.085667
O22	O	1.205385	0.385129	0.335667
O23	O	1.455385	0.635129	0.585667
O24	O	1.705385	0.885129	0.835667
O25	O	1.223861	0.120892	0.085699
O26	O	1.473861	0.370892	0.335699
O27	O	1.723861	0.620892	0.585699
O28	O	1.973861	0.870892	0.835699
Cu29	Cu	1.089621	0.128012	0.101309
Cu30	Cu	1.339621	0.378012	0.351309
Cu31	Cu	1.589621	0.628012	0.601309
Cu32	Cu	1.839621	0.878012	0.851309
Cu33	Cu	1.089644	0.128000	-0.101077
Cu34	Cu	1.339644	0.378000	0.148923
Cu35	Cu	1.589644	0.628000	0.398923
Cu36	Cu	1.839644	0.878000	0.648923
O37	O	1.082515	0.262248	0.085673
O38	O	1.332515	0.512248	0.335673
O39	O	1.582515	0.762248	0.585673
O40	O	1.832515	1.012248	0.835673
C41	C	1.096075	-0.040591	0.000126
C42	C	1.346075	0.209409	0.250126
C43	C	1.596075	0.459409	0.500126
C44	C	1.846075	0.709409	0.750126
C45	C	1.094079	-0.142971	0.000127
C46	C	1.344079	0.107029	0.250127
C47	C	1.594079	0.357029	0.500127
C48	C	1.844079	0.607029	0.750127
C49	C	0.921035	0.134461	0.000096
C50	C	1.171035	0.384461	0.250096
C51	C	1.421035	0.634461	0.500096
C52	C	1.671035	0.884461	0.750096
C53	C	0.818654	0.132473	0.000084
C54	C	1.068654	0.382473	0.250084
C55	C	1.318654	0.632473	0.500084
C56	C	1.568654	0.882473	0.750084
C57	C	1.092457	-0.226115	0.000124
C58	C	1.342457	0.023885	0.250124
C59	C	1.592457	0.273885	0.500124
C60	C	1.842457	0.523885	0.750124
C61	C	1.090430	-0.330424	0.000116
C62	C	1.340430	-0.080424	0.250116
C63	C	1.590430	0.169576	0.500116
C64	C	1.840430	0.419576	0.750116
C65	C	1.088822	-0.413563	0.000109
C66	C	1.338822	-0.163563	0.250109
C67	C	1.588822	0.086437	0.500109
C68	C	1.838822	0.336437	0.750109
C69	C	1.086795	-0.517878	0.000103
C70	C	1.336795	-0.267878	0.250103
C71	C	1.586795	-0.017878	0.500103
C72	C	1.836795	0.232122	0.750103
C73	C	0.443757	0.125153	0.000132
C74	C	0.693757	0.375153	0.250132
C75	C	0.943757	0.625153	0.500132
C76	C	1.193757	0.875153	0.750132
C77	C	0.548065	0.127186	0.000118
C78	C	0.798065	0.377186	0.250118
C79	C	1.048065	0.627186	0.500118
C80	C	1.298065	0.877186	0.750118
C81	C	0.631202	0.128813	0.000107
C82	C	0.881202	0.378813	0.250107
C83	C	1.131202	0.628813	0.500107
C84	C	1.381202	0.878813	0.750107
C85	C	0.735517	0.130846	0.000095
C86	C	0.985517	0.380846	0.250095
C87	C	1.235517	0.630846	0.500095
C88	C	1.485517	0.880846	0.750095
C89	C	1.258230	0.121551	0.000133
C90	C	1.508230	0.371551	0.250133
C91	C	1.758230	0.621551	0.500133
C92	C	2.008230	0.871551	0.750133
C93	C	1.360612	0.123539	0.000138
C94	C	1.610612	0.373539	0.250138
C95	C	1.860612	0.623539	0.500138
C96	C	2.110612	0.873539	0.750138
C97	C	1.083191	0.296603	0.000103
C98	C	1.333191	0.546603	0.250103
C99	C	1.583191	0.796603	0.500103
C100	C	1.833191	1.046603	0.750103
C101	C	1.085187	0.398983	0.000096
C102	C	1.335187	0.648983	0.250096
C103	C	1.585187	0.898983	0.500096
C104	C	1.835187	1.148983	0.750096
N105	N	1.089612	0.128019	0.243656
N106	N	1.339612	0.378019	0.493656
N107	N	1.589612	0.628019	0.743656
N108	N	1.839612	0.878019	0.993656
C109	C	1.089616	0.128022	0.336762
C110	C	1.339616	0.378022	0.586762
C111	C	1.589616	0.628022	0.836762
C112	C	1.839616	0.878022	1.086762
C113	C	1.089623	0.128016	0.453567
C114	C	1.339623	0.378016	0.703567
C115	C	1.589623	0.628016	0.953567
C116	C	1.839623	0.878016	1.203567
C117	C	1.089634	0.128007	0.546665
C118	C	1.339634	0.378007	0.796665
C119	C	1.589634	0.628007	1.046665
C120	C	1.839634	0.878007	1.296665
C121	C	1.089643	0.128002	0.663478
C122	C	1.339643	0.378002	0.913478
C123	C	1.589643	0.628002	1.163478
C124	C	1.839643	0.878002	1.413478
N125	N	1.089654	0.127993	0.756576
N126	N	1.339654	0.377993	1.006576
N127	N	1.589654	0.627993	1.256576
N128	N	1.839654	0.877993	1.506576
