data_functionalizedCrystal
_audit_creation_method	'MofGen! by Chris Wilmer'
_symmetry_space_group_name_H-M	'P1'
_symmetry_Int_Tables_number	1
_symmetry_cell_setting	triclinic
loop_
_symmetry_equiv_pos_as_xyz
  x,y,z
_cell_length_a	17.000371
_cell_length_b	15.500227
_cell_length_c	11.792254
_cell_angle_alpha	87.152438
_cell_angle_beta	79.898923
_cell_angle_gamma	92.619542
loop_
_atom_site_label
_atom_site_type_symbol
_atom_site_fract_x
_atom_site_fract_y
_atom_site_fract_z
O1	O	1.059958	0.071948	0.035243
O2	O	0.828405	0.071949	0.076417
O3	O	0.949795	0.071942	-0.109949
O4	O	0.938568	0.071955	0.221609
O5	O	0.942429	-0.071946	-0.098681
O6	O	0.821038	-0.071939	0.087685
O7	O	1.052592	-0.071940	0.046511
Cu8	Cu	0.936143	-0.085078	0.068127
Cu9	Cu	0.944854	0.085086	0.054801
O10	O	0.931202	-0.071934	0.232876
C11	C	0.795077	0.000005	0.084263
C12	C	0.706747	0.000005	0.090839
C13	C	0.674282	-0.000000	-0.010361
C14	C	0.591286	0.000006	-0.004176
C15	C	0.540757	0.000012	0.103211
C16	C	0.573228	0.000020	0.204418
C17	C	0.656223	0.000019	0.198231
C18	C	0.289715	0.000019	0.127109
C19	C	0.206715	0.000016	0.133288
C20	C	0.224779	0.000004	-0.075307
C21	C	0.307774	-0.000001	-0.081484
C22	C	0.340238	0.000011	0.019723
C23	C	0.455922	0.000016	0.109536
C24	C	0.425073	0.000014	0.013396
N25	N	0.930021	-0.204763	0.077498
C26	C	0.981476	-0.250042	-0.001447
C27	C	0.976854	-0.340615	0.005650
C28	C	0.920780	-0.385906	0.091697
C29	C	0.869319	-0.340620	0.170645
C30	C	0.873938	-0.250049	0.163543
C31	C	0.904140	-0.659372	0.117266
C32	C	0.899527	-0.749949	0.124365
C33	C	1.007061	-0.749938	-0.040633
C34	C	1.011679	-0.659365	-0.047724
C35	C	0.960215	-0.614087	0.031221
C36	C	0.916055	-0.478486	0.098956
C37	C	0.964936	-0.521509	0.023956
C38	C	1.085919	0.000005	0.038665
C39	C	1.174250	0.000011	0.032088
C40	C	0.945405	-0.000002	-0.146529
C41	C	0.943288	-0.000001	-0.272312
N42	N	0.950982	0.204771	0.045421
C43	C	0.941568	0.000002	-0.374462
C44	C	0.939417	0.000010	-0.502616
C45	C	0.935592	0.000012	0.269456
C46	C	0.937709	0.000017	0.395239
H47	H	1.027141	-0.213172	-0.071511
H48	H	0.870400	-0.515370	0.169019
C49	C	0.362730	0.000135	-0.198014
C50	C	0.414707	0.074152	-0.213445
C51	C	0.465348	0.074298	-0.320774
H52	H	0.331605	0.000179	-0.257504
H53	H	0.392961	-0.050016	-0.200854
H54	H	0.384479	0.124290	-0.210616
H55	H	0.445849	0.074123	-0.153982
H56	H	0.495580	0.024147	-0.323613
H57	H	0.434217	0.074340	-0.380255
H58	H	0.500626	0.124513	-0.331253
C59	C	0.151808	-0.000153	0.249871
C60	C	0.099861	-0.074195	0.265331
C61	C	0.049278	-0.074389	0.372713
H62	H	0.121544	0.049963	0.252808
H63	H	0.183001	-0.000191	0.309297
H64	H	0.068672	-0.074148	0.205921
H65	H	0.130103	-0.124323	0.262416
H66	H	0.080471	-0.074427	0.432139
H67	H	0.019020	-0.024269	0.375640
H68	H	0.014031	-0.124628	0.383221
H69	H	0.316137	0.000034	0.209518
H70	H	0.198338	0.000004	-0.157704
H71	H	0.715417	-0.000008	-0.097807
C72	C	0.518235	-0.000019	0.320906
C73	C	0.438601	-0.000045	0.304670
C74	C	0.387921	-0.000096	0.411955
H75	H	0.530590	0.050146	0.358911
H76	H	0.525513	-0.050214	0.366688
H77	H	0.431327	0.050145	0.258906
H78	H	0.426222	-0.050207	0.266683
H79	H	0.395198	-0.050291	0.457737
H80	H	0.400283	0.050070	0.449951
H81	H	0.333884	-0.000122	0.400954
H82	H	0.414772	0.000019	0.196971
H83	H	1.018753	-0.377481	-0.058633
H84	H	0.682654	0.000020	0.280639
C85	C	0.480031	0.000142	-0.103125
C86	C	0.532009	0.074158	-0.118554
C87	C	0.582662	0.074296	-0.225872
H88	H	0.448915	0.000180	-0.162625
H89	H	0.510262	-0.050010	-0.105948
H90	H	0.501781	0.124296	-0.115742
H91	H	0.563142	0.074135	-0.059081
H92	H	0.612893	0.024144	-0.228695
H93	H	0.551540	0.074332	-0.285363
H94	H	0.617940	0.124510	-0.236350
H95	H	1.057339	-0.622490	-0.117790
H96	H	1.048960	-0.786811	-0.104906
C97	C	0.838551	-0.798969	0.217828
C98	C	0.794451	-0.739932	0.285421
C99	C	0.738269	-0.785057	0.371512
H100	H	0.865472	-0.834293	0.265117
H101	H	0.803422	-0.834294	0.183080
H102	H	0.829575	-0.704622	0.320168
H103	H	0.767514	-0.704607	0.238165
H104	H	0.703139	-0.820383	0.336764
H105	H	0.765196	-0.820380	0.418792
H106	H	0.708335	-0.745008	0.417378
C107	C	0.848409	-0.610116	0.203028
C108	C	0.893743	-0.558087	0.264184
C109	C	0.842431	-0.512690	0.343198
H110	H	0.814343	-0.649969	0.255397
H111	H	0.816923	-0.574746	0.162766
H112	H	0.925214	-0.593454	0.304445
H113	H	0.927807	-0.518218	0.211847
H114	H	0.810945	-0.477320	0.302935
H115	H	0.808367	-0.552549	0.395558
H116	H	0.873182	-0.477377	0.384694
H117	H	0.823658	-0.377502	0.240704
C118	C	0.818163	-0.200931	0.249434
C119	C	0.830436	-0.222925	0.361366
C120	C	0.779075	-0.177686	0.440516
H121	H	0.764225	-0.215752	0.243686
H122	H	0.828948	-0.140496	0.232955
H123	H	0.819646	-0.283346	0.377840
H124	H	0.884364	-0.208101	0.367151
H125	H	0.789860	-0.117251	0.424037
H126	H	0.725140	-0.192511	0.434757
H127	H	0.787400	-0.192597	0.516469
C128	C	1.025677	-0.472248	-0.069558
C129	C	0.985625	-0.420278	-0.138863
C130	C	1.041548	-0.374880	-0.225027
H131	H	1.055675	-0.512100	-0.115675
H132	H	1.060777	-0.436838	-0.034871
H133	H	0.950540	-0.455686	-0.173548
H134	H	0.955631	-0.380410	-0.092779
H135	H	1.076648	-0.339469	-0.190340
H136	H	1.071544	-0.414738	-0.271135
H137	H	1.014382	-0.339607	-0.272054
H138	H	0.564857	0.000003	-0.086584
