data_functionalizedCrystal
_audit_creation_method	'MofGen! by Chris Wilmer'
_symmetry_space_group_name_H-M	'P1'
_symmetry_Int_Tables_number	1
_symmetry_cell_setting	triclinic
loop_
_symmetry_equiv_pos_as_xyz
  x,y,z
_cell_length_a	12.759401
_cell_length_b	15.297327
_cell_length_c	12.759393
_cell_angle_alpha	99.642973
_cell_angle_beta	89.979062
_cell_angle_gamma	99.708126
loop_
_atom_site_label
_atom_site_type_symbol
_atom_site_fract_x
_atom_site_fract_y
_atom_site_fract_z
Zn1	Zn	1.533815	-0.359082	-0.666329
Zn2	Zn	2.033815	0.140918	-0.166329
Zn3	Zn	1.503263	-0.509967	-0.521034
Zn4	Zn	2.003263	-0.009967	-0.021034
Zn5	Zn	1.358104	-0.359130	-0.490674
Zn6	Zn	1.858104	0.140870	0.009326
Zn7	Zn	1.327675	-0.509904	-0.696658
Zn8	Zn	1.827675	-0.009904	-0.196658
O9	O	1.430714	-0.434521	-0.593674
O10	O	1.930714	0.065479	-0.093674
O11	O	1.676782	-0.379103	-0.647069
O12	O	2.176782	0.120897	-0.147069
O13	O	1.483956	-0.490005	-0.369995
O14	O	1.983956	0.009995	0.130005
O15	O	1.406934	-0.232878	-0.488577
O16	O	1.906934	0.267122	0.011423
O17	O	1.654335	-0.489958	-0.540320
O18	O	2.154335	0.010042	-0.040320
O19	O	1.536028	-0.232842	-0.617630
O20	O	2.036028	0.267158	-0.117630
O21	O	1.377308	-0.379185	-0.347690
O22	O	1.877308	0.120815	0.152310
O23	O	1.207048	-0.379124	-0.517986
O24	O	1.707048	0.120876	-0.017986
O25	O	1.355072	-0.489851	-0.839647
O26	O	1.855072	0.010149	-0.339647
O27	O	1.184692	-0.489898	-0.669321
O28	O	1.684692	0.010102	-0.169321
O29	O	1.506522	-0.379042	-0.817364
O30	O	2.006522	0.120958	-0.317364
O31	O	1.454449	-0.636205	-0.569729
O32	O	1.954449	-0.136205	-0.069729
O33	O	1.325446	-0.636159	-0.698760
O34	O	1.825446	-0.136159	-0.198760
C35	C	1.157749	-0.434510	-0.593651
C36	C	1.657749	0.065490	-0.093651
C37	C	1.040969	-0.434527	-0.593670
C38	C	1.540969	0.065473	-0.093670
C39	C	0.974476	-0.492294	-0.672383
C40	C	1.474476	0.007706	-0.172383
C41	C	0.864751	-0.492298	-0.672404
C42	C	1.364751	0.007702	-0.172404
C43	C	0.888023	-0.376764	-0.514991
C44	C	1.388023	0.123236	-0.014991
C45	C	0.997747	-0.376756	-0.514975
C46	C	1.497747	0.123244	-0.014975
C47	C	1.383359	-0.668916	-0.640853
C48	C	1.883359	-0.168916	-0.140853
C49	C	1.363196	-0.769191	-0.661071
C50	C	1.863196	-0.269191	-0.161071
C51	C	1.575254	-1.051821	-0.449528
C52	C	2.075254	-0.551821	0.050472
C53	C	1.594198	-0.957608	-0.430526
C54	C	2.094198	-0.457608	0.069474
C55	C	1.536449	-0.910499	-0.488161
C56	C	2.036449	-0.410499	0.011839
C57	C	1.459753	-0.957613	-0.564800
C58	C	1.959753	-0.457613	-0.064800
C59	C	1.440802	-1.051836	-0.583798
C60	C	1.940802	-0.551836	-0.083798
C61	C	1.401997	-0.910513	-0.622431
C62	C	1.901997	-0.410513	-0.122431
C63	C	1.325301	-0.957627	-0.699071
C64	C	1.825301	-0.457627	-0.199071
C65	C	1.306354	-1.051841	-0.718065
C66	C	1.806354	-0.551841	-0.218065
C67	C	1.364103	-1.098950	-0.660430
C68	C	1.864103	-0.598950	-0.160430
C69	C	1.420948	-0.816291	-0.603434
C70	C	1.920948	-0.316291	-0.103434
C71	C	1.286496	-0.816305	-0.737704
C72	C	1.786496	-0.316305	-0.237704
C73	C	1.267553	-0.910519	-0.756705
C74	C	1.767553	-0.410519	-0.256705
C75	C	1.704745	-0.434533	-0.593698
C76	C	2.204745	0.065467	-0.093698
C77	C	1.821521	-0.434538	-0.593708
C78	C	2.321521	0.065462	-0.093708
C79	C	1.430810	-0.434434	-0.867690
C80	C	1.930810	0.065566	-0.367690
C81	C	1.430851	-0.434397	-0.984459
C82	C	1.930851	0.065603	-0.484459
C83	C	1.478284	-0.199211	-0.546334
C84	C	1.978284	0.300789	-0.046334
C85	C	1.498555	-0.098935	-0.526160
C86	C	1.998555	0.401065	-0.026160
C87	C	1.509719	-0.376690	-1.027719
C88	C	2.009719	0.123310	-0.527719
C89	C	1.509744	-0.376651	-1.137435
C90	C	2.009744	0.123349	-0.637435
C91	C	1.352031	-0.492035	-1.160625
C92	C	1.852031	0.007965	-0.660625
C93	C	1.352002	-0.492068	-1.050909
C94	C	1.852002	0.007932	-0.550909
C95	C	1.430692	-0.434542	-0.320711
C96	C	1.930692	0.065458	0.179289
C97	C	1.430906	-0.434325	-0.203891
C98	C	1.930906	0.065675	0.296109
H99	H	1.551877	-0.833786	-0.472684
H100	H	2.051877	-0.333786	0.027316
O101	O	1.069480	-0.314448	-0.430077
O102	O	1.569480	0.185552	0.069923
H103	H	1.111305	-0.354773	-0.384669
H104	H	1.611305	0.145227	0.115331
H105	H	1.009664	-0.539333	-0.736464
H106	H	1.509664	-0.039333	-0.236464
O107	O	1.676924	-0.906798	-0.347881
O108	O	2.176924	-0.406798	0.152119
H109	H	1.655303	-0.924955	-0.269070
H110	H	2.155303	-0.424955	0.230930
O111	O	1.223626	-1.102654	-0.800720
O112	O	1.723626	-0.602654	-0.300720
H113	H	1.161545	-1.145640	-0.762315
H114	H	1.661545	-0.645640	-0.262315
H115	H	1.205106	-0.948892	-0.819105
H116	H	1.705106	-0.448892	-0.319105
O117	O	1.503679	-0.765475	-0.520795
O118	O	2.003679	-0.265475	-0.020795
H119	H	1.482065	-0.783625	-0.441978
H120	H	1.982065	-0.283625	0.058022
H121	H	0.810617	-0.539337	-0.736501
H122	H	1.310617	-0.039337	-0.236501
H123	H	0.852817	-0.329730	-0.450919
H124	H	1.352817	0.170270	0.049081
H125	H	1.622258	-1.090186	-0.402604
H126	H	2.122258	-0.590186	0.097396
O127	O	1.266989	-0.554237	-1.232294
O128	O	1.766989	-0.054237	-0.732294
H129	H	1.280262	-0.544525	-1.315855
H130	H	1.780262	-0.044525	-0.815855
H131	H	1.348686	-1.175666	-0.675900
H132	H	1.848686	-0.675666	-0.175900
H133	H	1.239470	-0.777950	-0.784633
H134	H	1.739470	-0.277950	-0.284633
O135	O	1.594752	-0.314485	-0.956042
O136	O	2.094752	0.185515	-0.456042
H137	H	1.649591	-0.274345	-1.004559
H138	H	2.149591	0.225655	-0.504559
O139	O	1.594812	-0.314415	-1.184099
O140	O	2.094812	0.185585	-0.684099
H141	H	1.649637	-0.274327	-1.119457
H142	H	2.149637	0.225673	-0.619457
O143	O	1.266928	-0.554313	-1.004248
O144	O	1.766928	-0.054313	-0.504248
H145	H	1.280148	-0.544637	-0.916791
H146	H	1.780148	-0.044637	-0.416791
