data_functionalizedCrystal
_audit_creation_method	'MofGen! by Chris Wilmer'
_symmetry_space_group_name_H-M	'P1'
_symmetry_Int_Tables_number	1
_symmetry_cell_setting	triclinic
loop_
_symmetry_equiv_pos_as_xyz
  x,y,z
_cell_length_a	29.839135
_cell_length_b	29.839132
_cell_length_c	11.169409
_cell_angle_alpha	89.957666
_cell_angle_beta	90.026405
_cell_angle_gamma	89.952207
loop_
_atom_site_label
_atom_site_type_symbol
_atom_site_fract_x
_atom_site_fract_y
_atom_site_fract_z
Zn1	Zn	0.686756	0.178787	0.678670
Zn2	Zn	0.686669	0.253928	0.477952
Zn3	Zn	0.611625	0.178816	0.477981
Zn4	Zn	0.611582	0.253894	0.678574
O5	O	0.649158	0.216356	0.578294
O6	O	0.749612	0.188756	0.652072
O7	O	0.676696	0.243991	0.310006
O8	O	0.621645	0.115945	0.504656
O9	O	0.749548	0.243962	0.504606
O10	O	0.676844	0.115923	0.652101
O11	O	0.621561	0.188807	0.310028
O12	O	0.548752	0.188773	0.504562
O13	O	0.621572	0.243904	0.846536
O14	O	0.548720	0.243932	0.651937
O15	O	0.676803	0.188723	0.846607
O16	O	0.676654	0.316791	0.504512
O17	O	0.621488	0.316765	0.651908
C18	C	0.532435	0.216353	0.578243
C19	C	0.482501	0.216362	0.578250
C20	C	0.172888	0.187654	0.655193
C21	C	-0.014785	0.187657	0.655227
O22	O	-0.039024	0.163238	0.720591
N23	N	-0.038284	0.216357	0.578338
C24	C	-0.014862	0.245055	0.501430
O25	O	-0.039156	0.269463	0.436023
C26	C	0.172810	0.245050	0.501390
C27	C	0.196307	0.216351	0.578293
C28	C	0.196384	0.158957	0.732089
C29	C	0.243300	0.158959	0.732084
C30	C	0.266719	0.187656	0.655184
C31	C	0.243222	0.216353	0.578288
C32	C	0.196231	0.273746	0.424476
C33	C	0.243152	0.273741	0.424471
C34	C	0.266649	0.245043	0.501374
C35	C	0.313556	0.245052	0.501383
N36	N	0.337055	0.216352	0.578273
C37	C	0.313637	0.187654	0.655173
C38	C	-0.113393	0.245057	0.501457
C39	C	-0.160311	0.245059	0.501468
C40	C	-0.160230	0.187660	0.655265
C41	C	-0.113312	0.187660	0.655259
C42	C	-0.089894	0.216357	0.578346
C43	C	0.412162	0.187659	0.655158
C44	C	0.459082	0.187664	0.655150
C45	C	0.458998	0.245062	0.501349
C46	C	0.412082	0.245059	0.501361
C47	C	0.388666	0.216354	0.578270
O48	O	0.337824	0.269454	0.436045
O49	O	0.337938	0.163243	0.720551
C50	C	0.125972	0.187653	0.655198
C51	C	0.102476	0.216349	0.578302
C52	C	0.125895	0.245047	0.501402
C53	C	0.055558	0.216351	0.578314
C54	C	0.032139	0.187653	0.655214
C55	C	0.055638	0.158954	0.732103
C56	C	0.102554	0.158955	0.732098
C57	C	0.102395	0.273746	0.424513
C58	C	0.055480	0.273743	0.424525
C59	C	0.032061	0.245045	0.501425
C60	C	0.649069	0.333079	0.578223
C61	C	0.649072	0.383013	0.578232
C62	C	0.677903	0.692657	0.501608
C63	C	0.677946	0.880330	0.501635
O64	O	0.702411	0.904595	0.436466
N65	N	0.649205	0.903798	0.578314
C66	C	0.620453	0.880345	0.654996
O67	O	0.596011	0.904612	0.720225
C68	C	0.620413	0.692673	0.654974
C69	C	0.649153	0.669207	0.578282
C70	C	0.706641	0.669191	0.424923
C71	C	0.706628	0.622276	0.424913
C72	C	0.677878	0.598826	0.501587
C73	C	0.649140	0.622292	0.578272
C74	C	0.591663	0.669221	0.731662
C75	C	0.591657	0.622300	0.731652
C76	C	0.620397	0.598834	0.654960
C77	C	0.620376	0.551927	0.654935
N78	N	0.649118	0.528459	0.578257
C79	C	0.677868	0.551908	0.501583
C80	C	0.620475	0.978876	0.655001
C81	C	0.620485	1.025794	0.655005
C82	C	0.677979	1.025775	0.501645
C83	C	0.677967	0.978857	0.501636
C84	C	0.649217	0.955408	0.578322
C85	C	0.677839	0.453382	0.501565
C86	C	0.677822	0.406463	0.501558
C87	C	0.620331	0.406485	0.654922
C88	C	0.620345	0.453401	0.654925
C89	C	0.649103	0.476848	0.578243
O90	O	0.595928	0.527633	0.720080
O91	O	0.702314	0.527633	0.436382
C92	C	0.677916	0.739572	0.501619
C93	C	0.649178	0.763038	0.578304
C94	C	0.620427	0.739588	0.654978
C95	C	0.649187	0.809956	0.578308
C96	C	0.677938	0.833406	0.501634
C97	C	0.706679	0.809938	0.424955
C98	C	0.706667	0.763022	0.424945
C99	C	0.591686	0.763057	0.731656
C100	C	0.591701	0.809972	0.731660
C101	C	0.620452	0.833422	0.654985
C102	C	0.766336	0.216360	0.578346
C103	C	0.816271	0.216361	0.578369
C104	C	0.649242	1.099178	0.578366
C105	C	0.649236	1.049243	0.578331
C106	C	0.649192	0.216306	0.891337
C107	C	0.649207	0.216285	1.024737
C108	C	0.649149	0.216373	0.266470
C109	C	0.649222	0.216268	0.133070
H110	H	0.177322	0.135586	0.794711
H111	H	0.701369	0.959754	0.439187
H112	H	0.392950	0.268432	0.438755
H113	H	0.568258	0.688319	0.794108
N114	N	0.483076	0.158348	0.733721
N115	N	0.462157	0.132727	0.802373
H116	H	0.479100	0.112022	0.857863
N117	N	0.590971	0.382519	0.733239
N118	N	0.606763	0.356297	0.809740
H119	H	0.586029	0.339368	0.865057
N120	N	0.562288	0.598355	0.810003
N121	N	0.536633	0.619316	0.878468
H122	H	0.515891	0.602406	0.933804
N123	N	0.388252	0.158346	0.733746
N124	N	0.393518	0.161382	0.844471
H125	H	0.376631	0.140683	0.899983
N126	N	-0.184164	0.158350	0.733815
N127	N	-0.226054	0.158359	0.733803
H128	H	-0.242960	0.137659	0.789271
N129	N	-0.184302	0.274384	0.422925
N130	N	-0.163381	0.300003	0.354274
H131	H	-0.180323	0.320714	0.298796
N132	N	0.736054	0.833895	0.346649
N133	N	0.777506	0.828612	0.354721
H134	H	0.798252	0.845534	0.299424
H135	H	0.568274	0.743967	0.794095
H136	H	0.701389	1.044876	0.439214
N137	N	0.736027	0.739053	0.346620
N138	N	0.764643	0.712829	0.388903
H139	H	0.785380	0.695902	0.333582
N140	N	0.267306	0.129646	0.810626
N141	N	0.293490	0.145478	0.887027
H142	H	0.310443	0.124774	0.942498
H143	H	0.568293	0.829074	0.794111
N144	N	0.590980	0.477375	0.733233
N145	N	0.549525	0.472186	0.725156
H146	H	0.528787	0.489116	0.780466
H147	H	0.597078	1.044895	0.717444
H148	H	0.597063	0.959787	0.717450
N149	N	-0.089320	0.158343	0.733820
N150	N	-0.110241	0.132725	0.802475
H151	H	-0.093299	0.112018	0.857961
H152	H	-0.094330	0.268427	0.438823
H153	H	0.121680	0.135586	0.794720
N154	N	0.172247	0.303059	0.345895
N155	N	0.177478	0.300025	0.235169
H156	H	0.160541	0.320728	0.179662
N157	N	0.267065	0.303055	0.345888
N158	N	0.246077	0.328672	0.277234
H159	H	0.262964	0.349376	0.221734
N160	N	0.735985	0.598304	0.346585
N161	N	0.764600	0.572077	0.388863
H162	H	0.785332	0.555147	0.333538
N163	N	0.482931	0.274374	0.422816
N164	N	0.524822	0.274367	0.422831
H165	H	0.541727	0.295067	0.367362
N166	N	0.707212	0.477335	0.423245
N167	N	0.735842	0.503471	0.465534
H168	H	0.756585	0.520388	0.410216
N169	N	0.031704	0.129645	0.810656
N170	N	-0.010186	0.129654	0.810640
H171	H	-0.027092	0.108955	0.866111
N172	N	0.031489	0.303067	0.345967
N173	N	0.052410	0.328686	0.277315
H174	H	0.035468	0.349393	0.221829
N175	N	0.126306	0.303063	0.345946
N176	N	0.105315	0.328683	0.277305
H177	H	0.122199	0.349392	0.221814
H178	H	0.701226	0.387359	0.439102
H179	H	0.730056	0.688279	0.362486
