data_functionalizedCrystal
_audit_creation_method	'MofGen! by Chris Wilmer'
_symmetry_space_group_name_H-M	'P1'
_symmetry_Int_Tables_number	1
_symmetry_cell_setting	triclinic
loop_
_symmetry_equiv_pos_as_xyz
  x,y,z
_cell_length_a	15.298206
_cell_length_b	15.296720
_cell_length_c	15.297327
_cell_angle_alpha	107.319222
_cell_angle_beta	88.422996
_cell_angle_gamma	110.778255
loop_
_atom_site_label
_atom_site_type_symbol
_atom_site_fract_x
_atom_site_fract_y
_atom_site_fract_z
Zn1	Zn	1.197171	-0.412757	-0.637538
Zn2	Zn	1.697171	0.087243	-0.137538
Zn3	Zn	1.197068	-0.284166	-0.766145
Zn4	Zn	1.697068	0.215834	-0.266145
Zn5	Zn	1.077888	-0.274918	-0.593099
Zn6	Zn	1.577888	0.225082	-0.093099
Zn7	Zn	1.014713	-0.466583	-0.766131
Zn8	Zn	1.514713	0.033417	-0.266131
O9	O	1.121710	-0.359606	-0.690728
O10	O	1.621710	0.140394	-0.190728
O11	O	1.323393	-0.377043	-0.673202
O12	O	1.823393	0.122957	-0.173202
O13	O	1.207655	-0.148911	-0.724598
O14	O	1.707655	0.351089	-0.224598
O15	O	1.120193	-0.266805	-0.472757
O16	O	1.620193	0.233195	0.027243
O17	O	1.323318	-0.282568	-0.767689
O18	O	1.823318	0.217432	-0.267689
O19	O	1.207829	-0.368075	-0.505406
O20	O	1.707829	0.131925	-0.005406
O21	O	1.120094	-0.142116	-0.597462
O22	O	1.620094	0.357884	-0.097462
O23	O	0.943272	-0.318998	-0.597448
O24	O	1.443272	0.181002	-0.097448
O25	O	1.012521	-0.593471	-0.767665
O26	O	1.512521	-0.093471	-0.267665
O27	O	0.896858	-0.459814	-0.724574
O28	O	1.396858	0.040186	-0.224574
O29	O	1.146571	-0.553925	-0.673188
O30	O	1.646571	-0.053925	-0.173188
O31	O	1.146397	-0.334761	-0.892380
O32	O	1.646397	0.165239	-0.392380
O33	O	1.012421	-0.468782	-0.892369
O34	O	1.512421	0.031218	-0.392369
C35	C	0.887333	-0.394244	-0.656188
C36	C	1.387333	0.105756	-0.156188
C37	C	0.787056	-0.409090	-0.641436
C38	C	1.287056	0.090910	-0.141436
C39	C	0.739953	-0.465371	-0.585415
C40	C	1.239953	0.034629	-0.085415
C41	C	0.645740	-0.479320	-0.571547
C42	C	1.145740	0.020680	-0.071547
C43	C	0.598618	-0.436995	-0.613704
C44	C	1.098618	0.063005	-0.113704
C45	C	0.645718	-0.380718	-0.669732
C46	C	1.145718	0.119282	-0.169732
C47	C	0.739943	-0.366762	-0.683596
C48	C	1.239943	0.133238	-0.183596
C49	C	0.598608	-0.338386	-0.711885
C50	C	1.098608	0.161614	-0.211885
C51	C	0.645708	-0.282109	-0.767913
C52	C	1.145708	0.217891	-0.267913
C53	C	0.739924	-0.268156	-0.781775
C54	C	1.239924	0.231844	-0.281775
C55	C	0.787046	-0.310480	-0.739617
C56	C	1.287046	0.189520	-0.239617
C57	C	0.504383	-0.352342	-0.698021
C58	C	1.004383	0.147658	-0.198021
C59	C	0.504373	-0.253733	-0.796202
C60	C	1.004373	0.246267	-0.296202
C61	C	0.598586	-0.239784	-0.810070
C62	C	1.098586	0.260216	-0.310070
C63	C	1.072511	-0.609422	-0.725382
C64	C	1.572511	-0.109422	-0.225382
C65	C	1.051545	-0.715878	-0.740150
C66	C	1.551545	-0.215878	-0.240150
C67	C	1.271623	-0.933605	-0.585029
C68	C	1.771623	-0.433605	-0.085029
C69	C	1.291327	-0.833583	-0.571157
C70	C	1.791327	-0.333583	-0.071157
C71	C	1.231383	-0.804151	-0.613404
C72	C	1.731383	-0.304151	-0.113404
C73	C	1.151732	-0.874752	-0.669526
C74	C	1.651732	-0.374752	-0.169526
C75	C	1.132030	-0.974784	-0.683405
C76	C	1.632030	-0.474784	-0.183405
C77	C	1.091790	-0.845331	-0.711780
C78	C	1.591790	-0.345331	-0.211780
C79	C	1.012139	-0.915932	-0.767902
C80	C	1.512139	-0.415932	-0.267902
C81	C	0.992440	-1.015954	-0.781778
C82	C	1.492440	-0.515954	-0.281778
C83	C	1.052384	-1.045385	-0.739532
C84	C	1.552384	-0.545385	-0.239532
C85	C	1.111492	-0.745299	-0.697900
C86	C	1.611492	-0.245299	-0.197900
C87	C	0.971899	-0.786479	-0.796276
C88	C	1.471899	-0.286479	-0.296276
C89	C	0.952195	-0.886501	-0.810148
C90	C	1.452195	-0.386501	-0.310148
C91	C	1.357002	-0.324833	-0.725404
C92	C	1.857002	0.175167	-0.225404
C93	C	1.457270	-0.310014	-0.740181
C94	C	1.957270	0.189986	-0.240181
C95	C	1.072563	-0.408633	-0.925113
C96	C	1.572563	0.091367	-0.425113
C97	C	1.051614	-0.429627	-1.025400
C98	C	1.551614	0.070373	-0.525400
C99	C	1.170784	-0.110740	-0.656151
C100	C	1.670784	0.389260	-0.156151
C101	C	1.191977	-0.004205	-0.641156
C102	C	1.691977	0.495795	-0.141156
C103	C	1.271744	-0.209831	-1.308042
C104	C	1.771744	0.290169	-0.808042
C105	C	1.291427	-0.190101	-1.213816
C106	C	1.791427	0.309899	-0.713816
C107	C	1.231476	-0.249981	-1.166708
C108	C	1.731476	0.250019	-0.666708
C109	C	1.151837	-0.329594	-1.213834
C110	C	1.651837	0.170406	-0.713834
C111	C	1.132148	-0.349321	-1.308067
C112	C	1.632148	0.150679	-0.808067
C113	C	1.091880	-0.389471	-1.166733
C114	C	1.591880	0.110529	-0.666733
C115	C	1.012241	-0.469083	-1.213859
C116	C	1.512241	0.030917	-0.713859
C117	C	0.992556	-0.488807	-1.308084
C118	C	1.492556	0.011193	-0.808084
C119	C	1.052508	-0.428927	-1.355192
C120	C	1.552508	0.071073	-0.855192
C121	C	1.111569	-0.369744	-1.072500
C122	C	1.611569	0.130256	-0.572500
C123	C	0.971973	-0.509234	-1.072525
C124	C	1.471973	-0.009234	-0.572525
C125	C	0.952290	-0.528963	-1.166751
C126	C	1.452290	-0.028963	-0.666751
C127	C	1.171069	-0.310404	-0.455435
C128	C	1.671069	0.189596	0.044565
C129	C	1.192104	-0.289438	-0.355167
C130	C	1.692104	0.210562	0.144833
H131	H	0.778331	-0.499820	-0.551091
H132	H	1.278331	0.000180	-0.051091
H133	H	1.036488	-0.444989	-1.431919
H134	H	1.536488	0.055011	-0.931919
F135	F	0.867427	-0.961650	-0.869877
F136	F	1.367427	-0.461650	-0.369877
H137	H	0.466043	-0.398162	-0.652401
H138	H	0.966043	0.101838	-0.152401
H139	H	0.887447	-0.593784	-1.205134
H140	H	1.387447	-0.093784	-0.705134
F141	F	1.376094	-0.758452	-0.511431
F142	F	1.876094	-0.258452	-0.011431
H143	H	0.607397	-0.525142	-0.525930
H144	H	1.107397	-0.025142	-0.025930
H145	H	0.923089	-0.762518	-0.830678
H146	H	1.423089	-0.262518	-0.330678
F147	F	1.376186	-0.105381	-1.163670
F148	F	1.876186	0.394619	-0.663670
F149	F	1.335537	-0.146110	-1.358183
F150	F	1.835537	0.353890	-0.858183
F151	F	1.335416	-0.964936	-0.540083
F152	F	1.835416	-0.464936	-0.040083
F153	F	1.031420	-1.151840	-0.754297
F154	F	1.531420	-0.651840	-0.254297
H155	H	0.521906	-0.448352	-0.602406
H156	H	1.021906	0.051648	-0.102406
H157	H	0.863758	-0.299141	-0.750919
H158	H	1.363758	0.200859	-0.250919
H159	H	1.247431	-0.722708	-0.602105
H160	H	1.747431	-0.222708	-0.102105
H161	H	0.778274	-0.222322	-0.827387
H162	H	1.278274	0.277678	-0.327387
H163	H	0.927701	-0.553623	-1.346448
H164	H	1.427701	-0.053623	-0.846448
H165	H	0.636949	-0.193963	-0.855689
H166	H	1.136949	0.306037	-0.355689
F167	F	0.907679	-1.091091	-0.841523
F168	F	1.407679	-0.591091	-0.341523
F169	F	1.252580	-0.229158	-1.066481
F170	F	1.752580	0.270842	-0.566481
F171	F	1.196260	-0.670172	-0.638172
F172	F	1.696260	-0.170172	-0.138172
F173	F	0.908160	-0.572962	-1.022392
F174	F	1.408160	-0.072962	-0.522392
H175	H	0.466006	-0.219270	-0.830531
H176	H	0.966006	0.280730	-0.330531
F177	F	1.196324	-0.285016	-1.022355
F178	F	1.696324	0.214984	-0.522355
