data_functionalizedCrystal
_audit_creation_method	'MofGen! by Chris Wilmer'
_symmetry_space_group_name_H-M	'P1'
_symmetry_Int_Tables_number	1
_symmetry_cell_setting	triclinic
loop_
_symmetry_equiv_pos_as_xyz
  x,y,z
_cell_length_a	18.101398
_cell_length_b	18.101395
_cell_length_c	19.805399
_cell_angle_alpha	89.974882
_cell_angle_beta	89.976047
_cell_angle_gamma	90.026371
loop_
_atom_site_label
_atom_site_type_symbol
_atom_site_fract_x
_atom_site_fract_y
_atom_site_fract_z
Zn1	Zn	1.132118	-0.294940	-0.382810
Zn2	Zn	1.465452	0.038393	-0.049477
Zn3	Zn	1.798785	0.371726	0.283856
Zn4	Zn	1.132015	-0.418784	-0.269627
Zn5	Zn	1.465348	-0.085450	0.063706
Zn6	Zn	1.798682	0.247883	0.397040
Zn7	Zn	1.008278	-0.294950	-0.269626
Zn8	Zn	1.341611	0.038383	0.063707
Zn9	Zn	1.674945	0.371716	0.397040
Zn10	Zn	1.008228	-0.418734	-0.382765
Zn11	Zn	1.341561	-0.085401	-0.049432
Zn12	Zn	1.674895	0.247932	0.283902
O13	O	1.070160	-0.356852	-0.326207
O14	O	1.403493	-0.023519	0.007126
O15	O	1.736826	0.309814	0.340460
O16	O	1.235737	-0.311385	-0.367815
O17	O	1.569071	0.021948	-0.034482
O18	O	1.902404	0.355282	0.298851
O19	O	1.115579	-0.402382	-0.174910
O20	O	1.448912	-0.069049	0.158423
O21	O	1.782245	0.264285	0.491756
O22	O	1.024770	-0.191316	-0.284659
O23	O	1.358103	0.142017	0.048674
O24	O	1.691437	0.475350	0.382008
O25	O	1.235662	-0.402372	-0.284660
O26	O	1.568995	-0.069039	0.048673
O27	O	1.902328	0.264294	0.382007
O28	O	1.115755	-0.191309	-0.367815
O29	O	1.449088	0.142025	-0.034482
O30	O	1.782421	0.475358	0.298852
O31	O	1.024670	-0.311402	-0.174910
O32	O	1.358003	0.021931	0.158424
O33	O	1.691336	0.355264	0.491757
O34	O	0.904638	-0.311354	-0.284615
O35	O	1.237972	0.021979	0.048718
O36	O	1.571305	0.355312	0.382052
O37	O	1.024685	-0.402288	-0.477488
O38	O	1.358018	-0.068954	-0.144154
O39	O	1.691351	0.264379	0.189179
O40	O	0.904602	-0.402298	-0.367738
O41	O	1.237935	-0.068964	-0.034404
O42	O	1.571268	0.264369	0.298929
O43	O	1.115706	-0.311337	-0.477521
O44	O	1.449040	0.021997	-0.144188
O45	O	1.782373	0.355330	0.189146
O46	O	1.115530	-0.522410	-0.284616
O47	O	1.448863	-0.189077	0.048717
O48	O	1.782197	0.144256	0.382050
O49	O	1.024584	-0.522374	-0.367738
O50	O	1.357918	-0.189040	-0.034405
O51	O	1.691251	0.144293	0.298928
C52	C	0.877749	-0.356822	-0.326172
C53	C	1.211083	-0.023489	0.007162
C54	C	1.544416	0.309845	0.340495
C55	C	0.795435	-0.356827	-0.326173
C56	C	1.128769	-0.023494	0.007161
C57	C	1.462102	0.309840	0.340494
C58	C	0.496344	-0.356873	-0.326230
C59	C	0.829678	-0.023540	0.007104
C60	C	1.163011	0.309793	0.340437
C61	C	0.527668	-0.299368	-0.274186
C62	C	0.861001	0.033965	0.059147
C63	C	1.194335	0.367298	0.392480
C64	C	0.613286	-0.299522	-0.273964
C65	C	0.946619	0.033811	0.059369
C66	C	1.279953	0.367144	0.392702
C67	C	0.644727	-0.356850	-0.326201
C68	C	0.978060	-0.023516	0.007132
C69	C	1.311393	0.309817	0.340465
C70	C	0.613609	-0.434861	-0.306714
C71	C	0.946942	-0.101527	0.026620
C72	C	1.280275	0.231806	0.359953
C73	C	0.527964	-0.434541	-0.306352
C74	C	0.861297	-0.101208	0.026982
C75	C	1.194630	0.232125	0.360315
C76	C	0.527958	-0.337046	-0.397883
C77	C	0.861292	-0.003712	-0.064550
C78	C	1.194625	0.329621	0.268783
C79	C	0.613609	-0.335308	-0.397492
C80	C	0.946942	-0.001975	-0.064159
C81	C	1.280276	0.331358	0.269175
C82	C	0.728586	-0.356841	-0.326187
C83	C	1.061920	-0.023508	0.007147
C84	C	1.395253	0.309825	0.340480
C85	C	0.412485	-0.356887	-0.326243
C86	C	0.745818	-0.023554	0.007091
C87	C	1.079151	0.309780	0.340424
C88	C	1.070061	-0.549263	-0.326187
C89	C	1.403394	-0.215929	0.007146
C90	C	1.736727	0.117404	0.340479
C91	C	1.070086	-0.631577	-0.326201
C92	C	1.403419	-0.298244	0.007132
C93	C	1.736753	0.035090	0.340465
C94	C	1.070249	-0.930668	-0.326238
C95	C	1.403582	-0.597334	0.007096
C96	C	1.736915	-0.264001	0.340429
C97	C	1.013161	-0.899351	-0.378666
C98	C	1.346494	-0.566017	-0.045332
C99	C	1.679827	-0.232684	0.288001
C100	C	1.012889	-0.813733	-0.378502
C101	C	1.346223	-0.480399	-0.045168
C102	C	1.679556	-0.147066	0.288165
C103	C	1.070168	-0.782285	-0.326220
C104	C	1.403501	-0.448952	0.007113
C105	C	1.736835	-0.115619	0.340446
C106	C	1.049039	-0.813432	-0.254884
C107	C	1.382373	-0.480099	0.078449
C108	C	1.715706	-0.146765	0.411783
C109	C	1.048671	-0.899077	-0.255198
C110	C	1.382005	-0.565744	0.078135
C111	C	1.715338	-0.232410	0.411469
C112	C	1.148590	-0.899019	-0.344518
C113	C	1.481923	-0.565685	-0.011185
C114	C	1.815257	-0.232352	0.322149
C115	C	1.148129	-0.813368	-0.346082
C116	C	1.481463	-0.480034	-0.012749
C117	C	1.814796	-0.146701	0.320584
C118	C	1.070124	-0.698426	-0.326206
C119	C	1.403457	-0.365092	0.007127
C120	C	1.736790	-0.031759	0.340461
C121	C	1.070291	-1.014527	-0.326247
C122	C	1.403624	-0.681194	0.007086
C123	C	1.736958	-0.347861	0.340419
C124	C	1.263322	-0.356883	-0.326243
C125	C	1.596655	-0.023550	0.007090
C126	C	1.929988	0.309784	0.340424
C127	C	1.345636	-0.356896	-0.326258
C128	C	1.678969	-0.023563	0.007075
C129	C	2.012302	0.309771	0.340408
C130	C	1.070201	-0.356806	-0.502750
C131	C	1.403535	-0.023472	-0.169417
C132	C	1.736868	0.309861	0.163917
C133	C	1.070219	-0.356786	-0.577982
C134	C	1.403552	-0.023452	-0.244649
C135	C	1.736886	0.309881	0.088685
C136	C	1.070279	-0.163690	-0.326242
C137	C	1.403613	0.169643	0.007091
C138	C	1.736946	0.502976	0.340425
C139	C	1.070330	-0.081376	-0.326257
C140	C	1.403664	0.251957	0.007077
C141	C	1.736997	0.585291	0.340410
C142	C	1.117615	-0.309425	-0.613344
C143	C	1.450948	0.023908	-0.280011
C144	C	1.784282	0.357241	0.053322
C145	C	1.117623	-0.309404	-0.684033
C146	C	1.450956	0.023930	-0.350700
C147	C	1.784289	0.357263	-0.017366
C148	C	1.070237	-0.356747	-0.719358
C149	C	1.403571	-0.023414	-0.386024
C150	C	1.736904	0.309920	-0.052691
C151	C	1.022836	-0.404110	-0.683990
C152	C	1.356170	-0.070776	-0.350657
C153	C	1.689503	0.262557	-0.017323
C154	C	1.022825	-0.404127	-0.613303
C155	C	1.356159	-0.070793	-0.279970
C156	C	1.689492	0.262540	0.053364
C157	C	1.022878	-0.404041	-0.969063
C158	C	1.356211	-0.070707	-0.635730
C159	C	1.689545	0.262626	-0.302397
C160	C	1.022894	-0.404021	-1.039756
C161	C	1.356227	-0.070688	-0.706422
C162	C	1.689561	0.262645	-0.373089
C163	C	1.117675	-0.309317	-1.039794
C164	C	1.451009	0.024016	-0.706460
C165	C	1.784342	0.357349	-0.373127
C166	C	1.117665	-0.309335	-0.969106
C167	C	1.450998	0.023999	-0.635773
C168	C	1.784331	0.357332	-0.302440
C169	C	1.070261	-0.356694	-0.933745
C170	C	1.403594	-0.023361	-0.600412
C171	C	1.736928	0.309973	-0.267078
C172	C	1.070252	-0.356716	-0.857097
C173	C	1.403585	-0.023383	-0.523763
C174	C	1.736919	0.309951	-0.190430
C175	C	1.070249	-0.356730	-0.796005
C176	C	1.403583	-0.023396	-0.462671
C177	C	1.736916	0.309937	-0.129338
C178	C	1.070161	-0.356845	-0.150351
C179	C	1.403494	-0.023512	0.182982
C180	C	1.736828	0.309821	0.516316
C181	C	1.070287	-0.356656	-0.075120
C182	C	1.403620	-0.023323	0.258214
C183	C	1.736954	0.310010	0.591547
H184	H	0.507097	-0.241343	-0.286267
H185	H	0.840431	0.091990	0.047066
H186	H	1.173764	0.425324	0.380400
H187	H	1.164063	-0.793008	-0.398582
H188	H	1.497396	-0.459675	-0.065248
H189	H	1.830729	-0.126341	0.268085
O190	O	1.168786	-0.258212	-1.077932
O191	O	1.502119	0.075121	-0.744598
O192	O	1.835452	0.408454	-0.411265
H193	H	1.160824	-0.266139	-1.133020
H194	H	1.494158	0.067194	-0.799687
H195	H	1.827491	0.400527	-0.466353
O196	O	0.973984	-0.785109	-0.234000
O197	O	1.307317	-0.451776	0.099333
O198	O	1.640650	-0.118442	0.432667
H199	H	0.951609	-0.748859	-0.274308
H200	H	1.284942	-0.415526	0.059025
H201	H	1.618276	-0.082193	0.392358
H202	H	0.634326	-0.241674	-0.286179
H203	H	0.967660	0.091659	0.047154
H204	H	1.300993	0.424993	0.380487
H205	H	1.156204	-0.270875	-0.584588
H206	H	1.489537	0.062458	-0.251255
H207	H	1.822871	0.395792	0.082078
O208	O	0.972815	-0.925629	-0.234694
O209	O	1.306149	-0.592296	0.098640
O210	O	1.639482	-0.258962	0.431973
H211	H	0.936739	-0.877297	-0.224651
H212	H	1.270072	-0.543964	0.108682
H213	H	1.603406	-0.210631	0.442016
H214	H	0.507952	-0.451357	-0.253969
H215	H	0.841286	-0.118023	0.079364
H216	H	1.174619	0.215310	0.412697
O217	O	0.500500	-0.493213	-0.354369
O218	O	0.833834	-0.159879	-0.021036
O219	O	1.167167	0.173454	0.312298
H220	H	0.521079	-0.481197	-0.406021
H221	H	0.854412	-0.147863	-0.072688
H222	H	1.187746	0.185470	0.260646
O223	O	1.102378	-0.786457	-0.201722
O224	O	1.435711	-0.453124	0.131611
O225	O	1.769045	-0.119791	0.464945
H226	H	1.100973	-0.725194	-0.199785
H227	H	1.434307	-0.391860	0.133548
H228	H	1.767640	-0.058527	0.466881
H229	H	1.167854	-0.920570	-0.395650
H230	H	1.501187	-0.587237	-0.062317
H231	H	1.834520	-0.253904	0.271017
O232	O	1.168778	-0.258275	-0.931008
O233	O	1.502111	0.075058	-0.597674
O234	O	1.835445	0.408392	-0.264341
H235	H	1.135652	-0.220604	-0.898796
H236	H	1.468985	0.112729	-0.565463
H237	H	1.802318	0.446063	-0.232130
O238	O	0.499118	-0.316526	-0.204266
O239	O	0.832451	0.016808	0.129068
O240	O	1.165785	0.350141	0.462401
H241	H	0.521557	-0.275609	-0.167926
H242	H	0.854890	0.057725	0.165407
H243	H	1.188224	0.391058	0.498741
H244	H	1.088448	-0.919796	-0.214803
H245	H	1.421781	-0.586463	0.118531
H246	H	1.755115	-0.253129	0.451864
O247	O	1.030384	-0.785808	-0.448562
O248	O	1.363717	-0.452474	-0.115228
O249	O	1.697050	-0.119141	0.218105
H250	H	0.983612	-0.751886	-0.467292
H251	H	1.316946	-0.418552	-0.133959
H252	H	1.650279	-0.085219	0.199374
H253	H	0.984304	-0.442575	-1.068515
H254	H	1.317637	-0.109242	-0.735182
H255	H	1.650971	0.224091	-0.401848
H256	H	1.156219	-0.270840	-0.712822
H257	H	1.489552	0.062494	-0.379489
H258	H	1.822886	0.395827	-0.046155
H259	H	0.633740	-0.312630	-0.220869
H260	H	0.967073	0.020703	0.112464
H261	H	1.300407	0.354037	0.445797
O262	O	0.640580	-0.493144	-0.355346
O263	O	0.973914	-0.159810	-0.022013
O264	O	1.307247	0.173523	0.311321
H265	H	0.676540	-0.467065	-0.394012
H266	H	1.009873	-0.133731	-0.060679
H267	H	1.343206	0.199602	0.272654
O268	O	0.641962	-0.457526	-0.238073
O269	O	0.975295	-0.124192	0.095260
O270	O	1.308629	0.209141	0.428593
H271	H	0.678207	-0.413360	-0.217729
H272	H	1.011540	-0.080026	0.115605
H273	H	1.344874	0.253307	0.448938
O274	O	0.971715	-0.455081	-0.930927
O275	O	1.305048	-0.121747	-0.597594
O276	O	1.638382	0.211586	-0.264260
H277	H	0.938759	-0.487987	-0.967368
H278	H	1.272093	-0.154654	-0.634035
H279	H	1.605426	0.178679	-0.300701
H280	H	1.192913	-0.791957	-0.310680
H281	H	1.526246	-0.458624	0.022653
H282	H	1.859580	-0.125291	0.355986
O283	O	0.641956	-0.386757	-0.451602
O284	O	0.975290	-0.053424	-0.118269
O285	O	1.308623	0.279909	0.215065
H286	H	0.673243	-0.354531	-0.489789
H287	H	1.006576	-0.021197	-0.156456
H288	H	1.339909	0.312136	0.176878
H289	H	0.984252	-0.442655	-0.712757
H290	H	1.317585	-0.109321	-0.379424
H291	H	1.650918	0.224012	-0.046090
O292	O	0.971696	-0.455198	-0.575156
O293	O	1.305029	-0.121865	-0.241823
O294	O	1.638363	0.211469	0.091510
H295	H	0.938748	-0.488117	-0.611594
H296	H	1.272081	-0.154784	-0.278260
H297	H	1.605415	0.178550	0.055073
H298	H	0.506386	-0.281150	-0.415602
H299	H	0.839720	0.052183	-0.082268
H300	H	1.173053	0.385516	0.251065
O301	O	0.640555	-0.259268	-0.416967
O302	O	0.973889	0.074065	-0.083634
O303	O	1.307222	0.407399	0.249700
H304	H	0.675967	-0.236905	-0.376049
H305	H	1.009300	0.096429	-0.042716
H306	H	1.342634	0.429762	0.290618
O307	O	0.501118	-0.392517	-0.449252
O308	O	0.834451	-0.059183	-0.115919
O309	O	1.167784	0.274150	0.217414
H310	H	0.549269	-0.420640	-0.472547
H311	H	0.882602	-0.087306	-0.139214
H312	H	1.215936	0.246027	0.194120
O313	O	1.030222	-0.926927	-0.448899
O314	O	1.363556	-0.593594	-0.115566
O315	O	1.696889	-0.260261	0.217768
H316	H	1.079607	-0.963203	-0.447201
H317	H	1.412940	-0.629870	-0.113867
H318	H	1.746274	-0.296537	0.219466
H319	H	0.955445	-0.920932	-0.366709
H320	H	1.288778	-0.587598	-0.033376
H321	H	1.622112	-0.254265	0.299958
H322	H	1.191123	-0.919270	-0.306333
H323	H	1.524456	-0.585937	0.027001
H324	H	1.857789	-0.252604	0.360334
H325	H	0.954821	-0.793304	-0.366392
H326	H	1.288154	-0.459971	-0.033059
H327	H	1.621487	-0.126637	0.300274
