data_functionalizedCrystal
_audit_creation_method	'MofGen! by Chris Wilmer'
_symmetry_space_group_name_H-M	'P1'
_symmetry_Int_Tables_number	1
_symmetry_cell_setting	triclinic
loop_
_symmetry_equiv_pos_as_xyz
  x,y,z
_cell_length_a	17.699083
_cell_length_b	16.109301
_cell_length_c	14.586319
_cell_angle_alpha	90.000787
_cell_angle_beta	89.995320
_cell_angle_gamma	96.627752
loop_
_atom_site_label
_atom_site_type_symbol
_atom_site_fract_x
_atom_site_fract_y
_atom_site_fract_z
O1	O	0.097285	-1.102963	-0.076184
O2	O	0.597285	-0.602963	0.423816
O3	O	0.109391	-0.860880	-0.076199
O4	O	0.609391	-0.360880	0.423801
O5	O	-0.006841	-0.988761	-0.076183
O6	O	0.493159	-0.488761	0.423817
O7	O	0.213517	-0.975082	-0.076200
O8	O	0.713517	-0.475082	0.423800
O9	O	-0.006843	-0.988752	0.076298
O10	O	0.493157	-0.488752	0.576298
O11	O	0.109390	-0.860872	0.076282
O12	O	0.609390	-0.360872	0.576282
O13	O	0.097283	-1.102954	0.076297
O14	O	0.597283	-0.602954	0.576297
Cu15	Cu	0.103336	-0.981912	0.090212
Cu16	Cu	0.603336	-0.481912	0.590212
Cu17	Cu	0.103338	-0.981923	-0.090114
Cu18	Cu	0.603338	-0.481923	0.409886
O19	O	0.213516	-0.975074	0.076281
O20	O	0.713516	-0.475074	0.576281
C21	C	0.108900	-0.829902	0.000040
C22	C	0.608900	-0.329902	0.500040
C23	C	0.107430	-0.737609	0.000034
C24	C	0.607430	-0.237609	0.500034
C25	C	-0.035040	-0.988267	0.000057
C26	C	0.464960	-0.488267	0.500057
C27	C	-0.119060	-0.986796	0.000058
C28	C	0.380940	-0.486796	0.500058
C29	C	0.097774	-1.133933	0.000056
C30	C	0.597774	-0.633933	0.500056
C31	C	0.099244	-1.226226	0.000055
C32	C	0.599244	-0.726226	0.500055
C33	C	-0.167574	-1.061860	0.000064
C34	C	0.332426	-0.561860	0.500064
C35	C	-0.246519	-1.060473	0.000055
C36	C	0.253481	-0.560473	0.500055
C37	C	-0.276949	-0.984022	0.000048
C38	C	0.223051	-0.484022	0.500048
C39	C	-0.228429	-0.908953	0.000039
C40	C	0.271571	-0.408953	0.500039
C41	C	-0.149485	-0.910341	0.000041
C42	C	0.350515	-0.410341	0.500041
C43	C	-0.546800	-0.903356	0.000031
C44	C	-0.046800	-0.403356	0.500031
C45	C	-0.625750	-0.901974	0.000033
C46	C	-0.125750	-0.401974	0.500033
C47	C	-0.643834	-1.053488	0.000046
C48	C	-0.143834	-0.553488	0.500046
C49	C	-0.564890	-1.054876	0.000048
C50	C	-0.064890	-0.554876	0.500048
C51	C	-0.516377	-0.979807	0.000034
C52	C	-0.016377	-0.479807	0.500034
C53	C	-0.430776	-0.981312	0.000041
C54	C	0.069224	-0.481312	0.500041
C55	C	-0.362549	-0.982517	0.000047
C56	C	0.137451	-0.482517	0.500047
C57	C	0.241714	-0.975568	0.000038
C58	C	0.741714	-0.475568	0.500038
C59	C	0.325734	-0.977039	0.000032
C60	C	0.825734	-0.477039	0.500032
N61	N	0.103334	-0.981911	0.217044
N62	N	0.603334	-0.481911	0.717044
C63	C	0.172981	-0.515224	0.000040
C64	C	0.672981	-0.015224	0.500040
C65	C	0.171594	-0.428506	0.000046
C66	C	0.671594	0.071494	0.500046
C67	C	0.033688	-0.448618	0.000053
C68	C	0.533688	0.051382	0.500053
C69	C	0.035076	-0.535334	0.000053
C70	C	0.535076	-0.035334	0.500053
C71	C	0.104725	-0.568635	0.000042
C72	C	0.604725	-0.068635	0.500042
C73	C	0.101949	-0.395200	0.000047
C74	C	0.601949	0.104800	0.500047
C75	C	0.100445	-0.301177	0.000054
C76	C	0.600445	0.198823	0.500054
C77	C	0.106230	-0.662664	0.000037
C78	C	0.606230	-0.162664	0.500037
N79	N	0.103334	-0.981931	-0.216946
N80	N	0.603334	-0.481931	0.283054
C81	C	0.051884	-1.038555	0.452057
C82	C	0.551884	-0.538555	0.952057
C83	C	0.051882	-1.038558	0.548038
C84	C	0.551882	-0.538558	1.048038
C85	C	0.154787	-0.925280	0.548034
C86	C	0.654787	-0.425280	1.048034
C87	C	0.154785	-0.925274	0.452054
C88	C	0.654785	-0.425274	0.952054
C89	C	0.103334	-0.981917	0.404068
C90	C	0.603334	-0.481917	0.904068
C91	C	0.103334	-0.981925	0.596029
C92	C	0.603334	-0.481925	1.096029
C93	C	0.103333	-0.981927	0.700096
C94	C	0.603333	-0.481927	1.200096
C95	C	0.103334	-0.981914	0.299995
C96	C	0.603334	-0.481914	0.799995
H97	H	-0.142805	-1.124115	0.000075
H98	H	0.357195	-0.624115	0.500075
H99	H	-0.286017	-1.121597	0.000062
H100	H	0.213983	-0.621597	0.500062
H101	H	0.227175	-0.385022	0.000046
H102	H	0.727175	0.114978	0.500046
H103	H	-0.023018	-0.421494	0.000067
H104	H	0.476982	0.078506	0.500067
H105	H	-0.540119	-1.117130	0.000058
H106	H	-0.040119	-0.617130	0.500058
N107	N	0.248103	-0.551134	0.000039
N108	N	0.748103	-0.051134	0.500039
H109	H	0.251751	-0.586665	0.056563
H110	H	0.751751	-0.086665	0.556563
H111	H	0.251714	-0.586622	-0.056524
H112	H	0.751714	-0.086622	0.443476
H113	H	-0.507310	-0.842230	0.000021
H114	H	-0.007310	-0.342230	0.500021
H115	H	-0.020510	-0.578824	0.000058
H116	H	0.479490	-0.078824	0.500058
H117	H	0.009988	-1.084675	0.412989
H118	H	0.509988	-0.584675	0.912989
H119	H	0.009985	-1.084677	0.587108
H120	H	0.509985	-0.584677	1.087108
H121	H	0.196679	-0.879165	0.587113
H122	H	0.696679	-0.379165	1.087113
H123	H	-0.683343	-1.114613	0.000052
H124	H	-0.183343	-0.614613	0.500052
N125	N	0.210274	-0.864176	0.400287
N126	N	0.710274	-0.364176	0.900287
H127	H	0.242871	-0.828297	0.445248
H128	H	0.742871	-0.328297	0.945248
H129	H	0.243742	-0.895930	0.360452
H130	H	0.743742	-0.395930	0.860452
H131	H	-0.650523	-0.839715	0.000028
H132	H	-0.150523	-0.339715	0.500028
H133	H	-0.109986	-0.849216	0.000036
H134	H	0.390014	-0.349216	0.500036
N135	N	-0.261245	-0.826493	0.000025
N136	N	0.238755	-0.326493	0.500025
H137	H	-0.318618	-0.837003	0.000028
H138	H	0.181382	-0.337003	0.500028
H139	H	-0.243499	-0.793650	0.056549
H140	H	0.256501	-0.293650	0.556549
