data_functionalizedCrystal
_audit_creation_method	'MofGen! by Chris Wilmer'
_symmetry_space_group_name_H-M	'P1'
_symmetry_Int_Tables_number	1
_symmetry_cell_setting	triclinic
loop_
_symmetry_equiv_pos_as_xyz
  x,y,z
_cell_length_a	25.639239
_cell_length_b	12.759401
_cell_length_c	12.759393
_cell_angle_alpha	90.019559
_cell_angle_beta	89.962948
_cell_angle_gamma	89.963164
loop_
_atom_site_label
_atom_site_type_symbol
_atom_site_fract_x
_atom_site_fract_y
_atom_site_fract_z
Zn1	Zn	-0.208146	-1.606080	-0.593971
Zn2	Zn	0.291854	-1.106080	-0.093971
Zn3	Zn	-0.295593	-1.605901	-0.418274
Zn4	Zn	0.204407	-1.105901	0.081726
Zn5	Zn	-0.208170	-1.430382	-0.418307
Zn6	Zn	0.291830	-0.930382	0.081693
Zn7	Zn	-0.295549	-1.430297	-0.593912
Zn8	Zn	0.204451	-0.930297	-0.093912
O9	O	-0.251864	-1.518165	-0.506116
O10	O	0.248136	-1.018165	-0.006116
O11	O	-0.219754	-1.753077	-0.570675
O12	O	0.280246	-1.253077	-0.070675
O13	O	-0.284024	-1.582579	-0.271257
O14	O	0.215976	-1.082579	0.228743
O15	O	-0.135002	-1.453799	-0.441648
O16	O	0.364998	-0.953799	0.058352
O17	O	-0.284000	-1.752946	-0.441592
O18	O	0.216000	-1.252946	0.058408
O19	O	-0.134984	-1.582884	-0.570707
O20	O	0.365016	-1.082884	-0.070707
O21	O	-0.219795	-1.453626	-0.271282
O22	O	0.280205	-0.953626	0.228718
O23	O	-0.219753	-1.283350	-0.441591
O24	O	0.280247	-0.783350	0.058409
O25	O	-0.283927	-1.453655	-0.740941
O26	O	0.216073	-0.953655	-0.240941
O27	O	-0.283950	-1.283288	-0.570607
O28	O	0.216050	-0.783288	-0.070607
O29	O	-0.219712	-1.582802	-0.740984
O30	O	0.280288	-1.082802	-0.240984
O31	O	-0.368752	-1.582496	-0.441535
O32	O	0.131248	-1.082496	0.058465
O33	O	-0.368720	-1.453481	-0.570575
O34	O	0.131280	-0.953481	-0.070575
C35	C	-0.251850	-1.245198	-0.506097
C36	C	0.248150	-0.745198	-0.006097
C37	C	-0.251856	-1.128421	-0.506114
C38	C	0.248144	-0.628421	-0.006114
C39	C	-0.285336	-1.073554	-0.573180
C40	C	0.214664	-0.573554	-0.073180
C41	C	-0.285341	-0.963830	-0.573190
C42	C	0.214659	-0.463830	-0.073190
C43	C	-0.218384	-0.963850	-0.439057
C44	C	0.281616	-0.463850	0.060943
C45	C	-0.218377	-1.073572	-0.439053
C46	C	0.281623	-0.573572	0.060947
C47	C	-0.323995	-1.073542	-0.650618
C48	C	0.176005	-0.573542	-0.150618
C49	C	-0.324000	-0.963818	-0.650627
C50	C	0.176000	-0.463818	-0.150627
C51	C	-0.387707	-1.517989	-0.506068
C52	C	0.112293	-1.017989	-0.006068
C53	C	-0.445821	-1.518009	-0.506083
C54	C	0.054179	-1.018009	-0.006083
C55	C	-0.806188	-1.585519	-0.439039
C56	C	-0.306188	-1.085519	0.060961
C57	C	-0.860792	-1.585559	-0.439053
C58	C	-0.360792	-1.085559	0.060947
O59	O	-0.889032	-1.642775	-0.381998
O60	O	-0.389032	-1.142775	0.118002
N61	N	-0.888103	-1.518350	-0.506186
N62	N	-0.388103	-1.018350	-0.006186
C63	C	-0.860807	-1.451103	-0.573316
C64	C	-0.360807	-0.951103	-0.073316
O65	O	-0.889052	-1.393940	-0.630420
O66	O	-0.389052	-0.893940	-0.130420
C67	C	-0.806204	-1.451068	-0.573307
C68	C	-0.306204	-0.951068	-0.073307
C69	C	-0.778896	-1.518275	-0.506162
C70	C	-0.278896	-1.018275	-0.006162
C71	C	-0.778880	-1.652721	-0.371901
C72	C	-0.278880	-1.152721	0.128099
C73	C	-0.724279	-1.652678	-0.371886
C74	C	-0.224279	-1.152678	0.128114
C75	C	-0.696987	-1.585434	-0.439009
C76	C	-0.196987	-1.085434	0.060991
C77	C	-0.724295	-1.518232	-0.506147
C78	C	-0.224295	-1.018232	-0.006147
C79	C	-0.778909	-1.383827	-0.640442
C80	C	-0.278909	-0.883827	-0.140442
C81	C	-0.724302	-1.383799	-0.640427
C82	C	-0.224302	-0.883799	-0.140427
C83	C	-0.696994	-1.451005	-0.573282
C84	C	-0.196994	-0.951005	-0.073282
C85	C	-0.642403	-1.450946	-0.573255
C86	C	-0.142403	-0.950946	-0.073255
N87	N	-0.615091	-1.518155	-0.506122
N88	N	-0.115091	-1.018155	-0.006122
C89	C	-0.642384	-1.585399	-0.438999
C90	C	-0.142384	-1.085399	0.061001
C91	C	-0.975478	-1.451182	-0.573332
C92	C	-0.475478	-0.951182	-0.073332
C93	C	-1.030080	-1.451210	-0.573337
C94	C	-0.530080	-0.951210	-0.073337
C95	C	-1.030061	-1.585669	-0.439076
C96	C	-0.530061	-1.085669	0.060924
C97	C	-0.975458	-1.585634	-0.439066
C98	C	-0.475458	-1.085634	0.060934
C99	C	-0.948167	-1.518391	-0.506200
C100	C	-0.448167	-1.018391	-0.006200
C101	C	-0.527719	-1.585305	-0.438972
C102	C	-0.027719	-1.085305	0.061028
C103	C	-0.473113	-1.585253	-0.438960
C104	C	0.026887	-1.085253	0.061040
C105	C	-0.473137	-1.450799	-0.573225
C106	C	0.026863	-0.950799	-0.073225
C107	C	-0.527737	-1.450846	-0.573234
C108	C	-0.027737	-0.950846	-0.073234
C109	C	-0.555027	-1.518108	-0.506104
C110	C	-0.055027	-1.018108	-0.006104
O111	O	-0.614128	-1.393762	-0.630284
O112	O	-0.114128	-0.893762	-0.130284
O113	O	-0.614133	-1.642562	-0.381915
O114	O	-0.114133	-1.142562	0.118085
C115	C	-0.115491	-1.518371	-0.506187
C116	C	0.384509	-1.018371	-0.006187
C117	C	-0.057377	-1.518459	-0.506218
C118	C	0.442623	-1.018459	-0.006218
C119	C	-0.251812	-1.518239	-0.780150
C120	C	0.248188	-1.018239	-0.280150
C121	C	-0.251789	-1.518270	-0.896926
C122	C	0.248211	-1.018270	-0.396926
C123	C	-0.251875	-0.792198	-0.506132
C124	C	0.248125	-0.292198	-0.006132
C125	C	-0.251868	-0.908975	-0.506126
C126	C	0.248132	-0.408975	-0.006126
C127	C	-0.218349	-1.585526	-0.951813
C128	C	0.281651	-1.085526	-0.451813
C129	C	-0.218330	-1.585551	-1.061537
C130	C	0.281670	-1.085551	-0.561537
C131	C	-0.285196	-1.451061	-1.061479
C132	C	0.214804	-0.951061	-0.561479
C133	C	-0.285212	-1.451032	-0.951757
C134	C	0.214788	-0.951032	-0.451757
C135	C	-0.179747	-1.663176	-0.951847
C136	C	0.320253	-1.163176	-0.451847
C137	C	-0.179728	-1.663201	-1.061571
C138	C	0.320272	-1.163201	-0.561571
C139	C	-0.251879	-1.518152	-0.233149
C140	C	0.248121	-1.018152	0.266851
C141	C	-0.251754	-1.518325	-0.116373
C142	C	0.248246	-1.018325	0.383627
H143	H	-0.313197	-1.103359	-0.732027
H144	H	0.186803	-0.603359	-0.232027
F145	F	-0.198719	-1.764160	-0.907352
F146	F	0.301281	-1.264160	-0.407352
H147	H	-0.190574	-1.744563	-1.091349
H148	H	0.309426	-1.244563	-0.591349
F149	F	-0.129464	-1.625072	-1.106089
F150	F	0.370536	-1.125072	-0.606089
H151	H	-0.139255	-1.641442	-0.922098
H152	H	0.360745	-1.141442	-0.422098
F153	F	-0.946437	-1.379601	-0.644783
F154	F	-0.446437	-0.879601	-0.144783
H155	H	-0.191127	-0.919178	-0.384459
H156	H	0.308873	-0.419178	0.115541
F157	F	-1.059117	-1.657235	-0.367635
F158	F	-0.559117	-1.157235	0.132365
F159	F	-0.376909	-0.924823	-0.621922
F160	F	0.123091	-0.424823	-0.121922
H161	H	-0.191111	-1.118241	-0.384448
H162	H	0.308889	-0.618241	0.115552
H163	H	-0.309545	-0.929832	-0.727981
H164	H	0.190455	-0.429832	-0.227981
F165	F	-0.695260	-1.312230	-0.711884
F166	F	-0.195260	-0.812230	-0.211884
F167	F	-0.444053	-1.656786	-0.367492
F168	F	0.055947	-1.156786	0.132508
H169	H	-0.362440	-1.107524	-0.621327
H170	H	0.137560	-0.607524	-0.121327
H171	H	-0.801134	-1.329095	-0.695113
H172	H	-0.301134	-0.829095	-0.195113
H173	H	-0.450907	-1.396046	-0.627873
H174	H	0.049093	-0.896046	-0.127873
F175	F	-0.556754	-1.656891	-0.367524
F176	F	-0.056754	-1.156891	0.132476
F177	F	-0.556802	-1.379299	-0.644676
F178	F	-0.056802	-0.879299	-0.144676
F179	F	-0.320764	-1.379505	-1.119842
F180	F	0.179236	-0.879505	-0.619842
H181	H	-0.702048	-1.707407	-0.317214
H182	H	-0.202048	-1.207407	0.182786
H183	H	-0.801095	-1.707485	-0.317241
H184	H	-0.301095	-1.207485	0.182759
H185	H	-0.312440	-1.396262	-0.907073
H186	H	0.187560	-0.896262	-0.407073
H187	H	-1.052310	-1.396474	-0.628003
H188	H	-0.552310	-0.896474	-0.128003
F189	F	-0.946400	-1.657164	-0.367603
F190	F	-0.446400	-1.157164	0.132397
