data_functionalizedCrystal
_audit_creation_method	'MofGen! by Chris Wilmer'
_symmetry_space_group_name_H-M	'P1'
_symmetry_Int_Tables_number	1
_symmetry_cell_setting	triclinic
loop_
_symmetry_equiv_pos_as_xyz
  x,y,z
_cell_length_a	9.565339
_cell_length_b	11.026607
_cell_length_c	11.026607
_cell_angle_alpha	108.586017
_cell_angle_beta	90.002244
_cell_angle_gamma	89.996104
loop_
_atom_site_label
_atom_site_type_symbol
_atom_site_fract_x
_atom_site_fract_y
_atom_site_fract_z
O1	O	0.116257	-1.726731	-0.533614
O2	O	0.116259	-1.360151	-0.472851
O3	O	0.116253	-1.513059	-0.319943
O4	O	0.116263	-1.573822	-0.686522
O5	O	-0.116267	-1.513046	-0.319951
O6	O	-0.116261	-1.360138	-0.472860
O7	O	-0.116264	-1.726718	-0.533623
Zn8	Zn	-0.153180	-1.543426	-0.503243
Zn9	Zn	0.153175	-1.543443	-0.503231
O10	O	-0.116258	-1.573810	-0.686531
C11	C	-0.000001	-1.312485	-0.461645
C12	C	-0.000000	-1.170471	-0.428228
N13	N	-0.362259	-1.543423	-0.503252
C14	C	-0.000006	-1.501843	-0.272287
C15	C	-0.000000	-1.468426	-0.130273
C16	C	-0.453460	-1.472675	-0.573931
C17	C	-0.546639	-1.593231	-0.623813
C18	C	-0.546636	-1.422919	-0.453390
C19	C	-0.453387	-1.664050	-0.553204
C20	C	-0.453376	-1.493652	-0.382715
C21	C	-0.546512	-1.614281	-0.432566
N22	N	0.362255	-1.543453	-0.503214
C23	C	-0.000001	-1.774384	-0.544828
C24	C	0.000008	-1.916398	-0.578245
C25	C	0.000003	-1.116821	-0.520498
C26	C	0.000004	-0.970043	-0.485962
C27	C	0.000004	-1.585026	-0.734187
C28	C	0.000008	-1.618443	-0.876200
C29	C	0.000001	-1.560695	-0.076624
C30	C	0.000006	-1.526160	0.070155
H31	H	-0.412603	-1.412929	-0.633787
H32	H	-0.587603	-1.635347	-0.725735
C33	C	-0.398297	-1.801798	-0.610328
H34	H	-0.298981	-1.800942	-0.610037
H35	H	-0.430899	-1.852179	-0.560498
H36	H	-0.431007	-1.837246	-0.695712
C37	C	0.000008	-1.759710	0.039077
H38	H	0.000020	-1.813118	0.091772
H39	H	-0.081075	-1.776582	-0.013403
H40	H	0.081105	-1.776585	-0.013394
H41	H	0.000033	-1.107738	-0.323666
C42	C	0.000006	-1.001121	-0.719513
H43	H	-0.000002	-0.948425	-0.772921
H44	H	0.081087	-1.053606	-0.736387
H45	H	-0.081093	-1.053586	-0.736385
H46	H	0.000037	-0.907314	-0.381393
H47	H	-0.000008	-1.665258	-0.139357
H48	H	0.000009	-1.363863	-0.067540
H49	H	-0.587113	-1.674206	-0.372793
C50	C	0.000009	-1.384895	0.154886
H51	H	0.000003	-1.380215	0.242422
H52	H	0.081091	-1.343665	0.137259
H53	H	-0.081089	-1.343662	0.137262
C54	C	-0.397973	-1.436724	-0.245064
H55	H	-0.343319	-1.498985	-0.223760
H56	H	-0.341938	-1.363906	-0.239014
H57	H	-0.474493	-1.412171	-0.187490
C58	C	-0.601955	-1.285232	-0.396427
H59	H	-0.570074	-1.235076	-0.446759
H60	H	-0.701255	-1.286281	-0.396089
H61	H	-0.568631	-1.249386	-0.311295
H62	H	-0.000002	-1.179555	-0.625061
