data_functionalizedCrystal
_audit_creation_method	'MofGen! by Chris Wilmer'
_symmetry_space_group_name_H-M	'P1'
_symmetry_Int_Tables_number	1
_symmetry_cell_setting	triclinic
loop_
_symmetry_equiv_pos_as_xyz
  x,y,z
_cell_length_a	19.805405
_cell_length_b	21.395362
_cell_length_c	21.395356
_cell_angle_alpha	90.042977
_cell_angle_beta	89.970920
_cell_angle_gamma	89.957712
loop_
_atom_site_label
_atom_site_type_symbol
_atom_site_fract_x
_atom_site_fract_y
_atom_site_fract_z
Zn1	Zn	-0.269193	-0.957872	-0.354580
Zn2	Zn	-0.382381	-0.957784	-0.249800
Zn3	Zn	-0.269243	-0.853089	-0.249781
Zn4	Zn	-0.382377	-0.853064	-0.354504
O5	O	-0.325799	-0.905452	-0.302166
O6	O	-0.284189	-1.045539	-0.340720
O7	O	-0.367396	-0.943870	-0.162119
O8	O	-0.174520	-0.867036	-0.263706
O9	O	-0.367348	-1.045474	-0.263738
O10	O	-0.174483	-0.944020	-0.340701
O11	O	-0.284274	-0.866951	-0.162105
O12	O	-0.284270	-0.765408	-0.263633
O13	O	-0.367341	-0.866994	-0.442192
O14	O	-0.367389	-0.765390	-0.340573
O15	O	-0.284185	-0.943996	-0.442247
O16	O	-0.477097	-0.943846	-0.263665
O17	O	-0.477094	-0.866908	-0.340591
C18	C	-0.325835	-0.742665	-0.302093
C19	C	-0.325866	-0.673024	-0.302077
C20	C	-0.501655	-0.905382	-0.302136
C21	C	-0.576887	-0.905409	-0.302144
C22	C	-0.325757	-0.905502	-0.465589
C23	C	-0.325739	-0.905523	-0.535231
C24	C	-0.612210	-0.945509	-0.262130
C25	C	-0.682898	-0.945536	-0.262144
C26	C	-0.718262	-0.905459	-0.302169
C27	C	-0.682934	-0.865357	-0.342187
C28	C	-0.612247	-0.865334	-0.342175
C29	C	-0.968007	-0.865449	-0.342233
C30	C	-1.038699	-0.865474	-0.342240
C31	C	-1.038659	-0.945651	-0.262202
C32	C	-0.967972	-0.945628	-0.262191
C33	C	-0.932650	-0.905529	-0.302210
C34	C	-0.856001	-0.905501	-0.302196
C35	C	-0.794909	-0.905483	-0.302181
C36	C	-0.149256	-0.905540	-0.302210
C37	C	-0.074024	-0.905578	-0.302229
C38	C	-0.325763	-1.068876	-0.302239
C39	C	-0.325748	-1.138517	-0.302271
C40	C	-0.369204	-0.640317	-0.342080
C41	C	-0.369187	-0.574882	-0.342108
C42	C	-0.325840	-0.542155	-0.302122
C43	C	-0.282494	-0.574869	-0.262116
C44	C	-0.282507	-0.640303	-0.262094
C45	C	-0.320397	-0.438431	-0.245717
C46	C	-0.320389	-0.372998	-0.245738
C47	C	-0.325796	-0.340335	-0.302191
C48	C	-0.331225	-0.373112	-0.358624
C49	C	-0.331239	-0.438546	-0.358602
C50	C	-0.325821	-0.471203	-0.302142
C51	C	-0.369118	-0.236676	-0.342227
C52	C	-0.369096	-0.171239	-0.342256
C53	C	-0.282407	-0.171228	-0.262259
C54	C	-0.282425	-0.236663	-0.262236
C55	C	-0.325784	-0.269383	-0.302219
C56	C	-0.282452	-0.865482	-0.567927
C57	C	-0.282440	-0.865479	-0.633362
C58	C	-0.325707	-0.905530	-0.666099
C59	C	-0.369002	-0.945574	-0.633395
C60	C	-0.369018	-0.945570	-0.567961
C61	C	-0.331011	-0.961982	-0.769804
C62	C	-0.330990	-0.961987	-0.835237
C63	C	-0.325661	-0.905540	-0.867920
C64	C	-0.320338	-0.849087	-0.835161
C65	C	-0.320354	-0.849084	-0.769727
C66	C	-0.325694	-0.905538	-0.737051
C67	C	-0.282358	-0.865493	-0.971569
C68	C	-0.282351	-0.865490	-1.037005
C69	C	-0.368909	-0.945590	-1.037037
C70	C	-0.368920	-0.945587	-0.971601
C71	C	-0.325642	-0.905540	-0.938871
C72	C	-0.325792	-0.905439	-0.139378
C73	C	-0.325619	-0.905540	-0.069738
H74	H	-0.583421	-0.978142	-0.229535
Br75	Br	-0.313134	-0.772474	-0.725271
H76	H	-0.335345	-1.007951	-0.743200
Br77	Br	-0.338562	-0.328792	-0.435245
H78	H	-0.711733	-0.832728	-0.374778
H79	H	-0.247199	-0.548219	-0.229561
H80	H	-0.315994	-0.803123	-0.861770
H81	H	-0.404477	-0.548247	-0.374685
Br82	Br	-1.086693	-0.811079	-0.396562
H83	H	-0.939254	-0.832798	-0.374817
Br84	Br	-0.427957	-0.281086	-0.396491
Br85	Br	-0.427727	-0.999923	-0.677822
Br86	Br	-0.730835	-0.999964	-0.207841
H87	H	-0.583487	-0.832681	-0.374759
H88	H	-0.404509	-0.666954	-0.374638
H89	H	-0.247104	-0.832879	-1.063625
Br90	Br	-0.223627	-0.811142	-0.927145
H91	H	-0.335657	-0.465231	-0.404552
Br92	Br	-0.223571	-0.126820	-0.207997
Br93	Br	-0.427911	-0.126851	-0.396556
Br94	Br	-0.223719	-0.811130	-0.523510
H95	H	-0.404168	-0.978195	-0.944980
H96	H	-0.247138	-0.263293	-0.229658
Br97	Br	-0.313022	-0.328521	-0.169151
Br98	Br	-0.427769	-0.999916	-0.523584
Br99	Br	-0.223686	-0.684694	-0.207802
Br100	Br	-0.427637	-0.999939	-1.081458
Br101	Br	-0.919981	-1.000020	-0.207869
Br102	Br	-1.086599	-1.000075	-0.207890
H103	H	-0.335321	-1.007954	-0.861904
H104	H	-0.315991	-0.465020	-0.199743
Br105	Br	-0.223674	-0.811148	-0.677746
