data_functionalizedCrystal
_audit_creation_method	'MofGen! by Chris Wilmer'
_symmetry_space_group_name_H-M	'P1'
_symmetry_Int_Tables_number	1
_symmetry_cell_setting	triclinic
loop_
_symmetry_equiv_pos_as_xyz
  x,y,z
_cell_length_a	12.827893
_cell_length_b	16.959454
_cell_length_c	12.827885
_cell_angle_alpha	89.970356
_cell_angle_beta	89.980538
_cell_angle_gamma	90.020046
loop_
_atom_site_label
_atom_site_type_symbol
_atom_site_fract_x
_atom_site_fract_y
_atom_site_fract_z
Zn1	Zn	1.597638	-0.314644	-0.590850
Zn2	Zn	1.597517	-0.446843	-0.416110
Zn3	Zn	1.422878	-0.314682	-0.416123
Zn4	Zn	1.422850	-0.446784	-0.590810
O5	O	1.510221	-0.380738	-0.503473
O6	O	1.743858	-0.332189	-0.567681
O7	O	1.574312	-0.429352	-0.269876
O8	O	1.446123	-0.204066	-0.439323
O9	O	1.743769	-0.429315	-0.439301
O10	O	1.574518	-0.204038	-0.567694
O11	O	1.446006	-0.332254	-0.269885
O12	O	1.276639	-0.332197	-0.439285
O13	O	1.446075	-0.429215	-0.737052
O14	O	1.276618	-0.429252	-0.567627
O15	O	1.574490	-0.332132	-0.737081
O16	O	1.574284	-0.557446	-0.439263
O17	O	1.445957	-0.557403	-0.567614
C18	C	1.238711	-0.380723	-0.503454
C19	C	1.122558	-0.380736	-0.503470
C20	C	1.070790	-0.428836	-0.566880
C21	C	0.950740	-0.428850	-0.566898
C22	C	1.510133	-0.586105	-0.503456
C23	C	1.510191	-0.673961	-0.503483
C24	C	1.443498	-1.045444	-0.570299
C25	C	1.577235	-1.045429	-0.436755
C26	C	1.577198	-0.962883	-0.436745
C27	C	1.510309	-0.921614	-0.503512
C28	C	1.443457	-0.962891	-0.570289
C29	C	1.644042	-0.921601	-0.369962
C30	C	1.644007	-0.839050	-0.369949
C31	C	1.577123	-0.797779	-0.436722
C32	C	1.510269	-0.839061	-0.503502
C33	C	1.443380	-0.797791	-0.570270
C34	C	1.376530	-0.839071	-0.637056
C35	C	1.376573	-0.921620	-0.637062
C36	C	1.577080	-0.715231	-0.436716
C37	C	1.443339	-0.715238	-0.570260
C38	C	1.782791	-0.380754	-0.503494
C39	C	1.898944	-0.380761	-0.503503
C40	C	1.510293	-0.380662	-0.776044
C41	C	1.510323	-0.380630	-0.892197
C42	C	1.510337	-0.174570	-0.503514
C43	C	1.510387	-0.086714	-0.503532
C44	C	1.446854	-0.332574	-0.943986
C45	C	1.446884	-0.332539	-1.064037
C46	C	1.510209	-0.380757	-0.231964
C47	C	1.510381	-0.380567	-0.115811
H48	H	1.388874	-0.681641	-0.624634
H49	H	0.943456	-0.339581	-0.449209
C50	C	1.373410	-0.277022	-0.883832
C51	C	1.254598	-0.283450	-0.898728
C52	C	1.181151	-0.227896	-0.838578
C53	C	1.226516	-0.165914	-0.763532
C54	C	1.345333	-0.159483	-0.748633
C55	C	1.418780	-0.215037	-0.808783
H56	H	1.221011	-0.329336	-0.954285
H57	H	1.093194	-0.232657	-0.849608
H58	H	1.172146	-0.124790	-0.719006
H59	H	1.378920	-0.113598	-0.693077
H60	H	1.506737	-0.210276	-0.797753
C61	C	1.062376	-0.325113	-0.430144
C62	C	0.987353	-0.263157	-0.475645
C63	C	0.927174	-0.207533	-0.402317
C64	C	0.942019	-0.213864	-0.283488
C65	C	1.017046	-0.275823	-0.237981
C66	C	1.077224	-0.331447	-0.311310
H67	H	0.976360	-0.258468	-0.563614
H68	H	0.871634	-0.161667	-0.436004
H69	H	0.897471	-0.172688	-0.229206
H70	H	1.028038	-0.280512	-0.150012
H71	H	1.132764	-0.377313	-0.277622
H72	H	0.906221	-0.470034	-0.621182
C73	C	1.717542	-0.793643	-0.296493
C74	C	1.799533	-0.736829	-0.341844
C75	C	1.873069	-0.691420	-0.268390
C76	C	1.864614	-0.702825	-0.149585
C77	C	1.782619	-0.759642	-0.104227
C78	C	1.709083	-0.805051	-0.177681
H79	H	1.805795	-0.728384	-0.429796
H80	H	1.933767	-0.649360	-0.301968
H81	H	1.919049	-0.669211	-0.095210
H82	H	1.776357	-0.768088	-0.016275
H83	H	1.648385	-0.847111	-0.144104
H84	H	1.115347	-0.470004	-0.621157
C85	C	1.302953	-0.793669	-0.710497
C86	C	1.220909	-0.736986	-0.665125
C87	C	1.147334	-0.691580	-0.738562
C88	C	1.155802	-0.702857	-0.857372
C89	C	1.237848	-0.759543	-0.902750
C90	C	1.311424	-0.804949	-0.829313
H91	H	1.214638	-0.728636	-0.577169
H92	H	1.086598	-0.649618	-0.704970
H93	H	1.101337	-0.669245	-0.911735
H94	H	1.244120	-0.767893	-0.990706
H95	H	1.372160	-0.846912	-0.862905
H96	H	1.631686	-1.079036	-0.382389
C97	C	1.303035	-0.967026	-0.710516
C98	C	1.311489	-0.955623	-0.829322
C99	C	1.237948	-1.001030	-0.902773
C100	C	1.155954	-1.057841	-0.857418
C101	C	1.147497	-1.069246	-0.738606
C102	C	1.221037	-1.023838	-0.665155
H103	H	1.372189	-0.913566	-0.862902
H104	H	1.244210	-0.992587	-0.990726
H105	H	1.101515	-1.091454	-0.911791
H106	H	1.086797	-1.111303	-0.705026
H107	H	1.214776	-1.032282	-0.577202
C108	C	1.717610	-0.967001	-0.296522
C109	C	1.672391	-1.023822	-0.214460
C110	C	1.745961	-1.069229	-0.141019
C111	C	1.864751	-1.057816	-0.149640
C112	C	1.909976	-1.000992	-0.231706
C113	C	1.836406	-0.955585	-0.305147
H114	H	1.584450	-1.032273	-0.208075
H115	H	1.712482	-1.111294	-0.080268
H116	H	1.919213	-1.091429	-0.095275
H117	H	1.997917	-0.992541	-0.238091
H118	H	1.869885	-0.913520	-0.365897
C119	C	1.650605	-0.669821	-0.363260
C120	C	1.642141	-0.681226	-0.244455
C121	C	1.715671	-0.635816	-0.170997
C122	C	1.797665	-0.579001	-0.216343
C123	C	1.806131	-0.567593	-0.335154
C124	C	1.732601	-0.613003	-0.408612
H125	H	1.581442	-0.723286	-0.210882
H126	H	1.709403	-0.644261	-0.083045
H127	H	1.852096	-0.545385	-0.161964
H128	H	1.866831	-0.525533	-0.368727
H129	H	1.738869	-0.604558	-0.496564
C130	C	1.373471	-0.276954	-1.124195
C131	C	1.291494	-0.311229	-1.199243
C132	C	1.218079	-0.255642	-1.259403
C133	C	1.226639	-0.165779	-1.244515
C134	C	1.308619	-0.131499	-1.169463
C135	C	1.382035	-0.187086	-1.109303
H136	H	1.285154	-0.377755	-1.210267
H137	H	1.157392	-0.281019	-1.314962
H138	H	1.172293	-0.124630	-1.289049
H139	H	1.314959	-0.064973	-1.158439
H140	H	1.442722	-0.161709	-1.053744
C141	C	1.583797	-0.436154	-1.055660
C142	C	1.665774	-0.401878	-0.980612
C143	C	1.739190	-0.457466	-0.920452
C144	C	1.730630	-0.547328	-0.935341
C145	C	1.648650	-0.581609	-1.010392
C146	C	1.575234	-0.526022	-1.070552
H147	H	1.672114	-0.335352	-0.969588
H148	H	1.799877	-0.432088	-0.864894
H149	H	1.784977	-0.588477	-0.890807
H150	H	1.642310	-0.648135	-1.021417
H151	H	1.514547	-0.551399	-1.126110
H152	H	1.389073	-1.079058	-0.624678
H153	H	1.564683	-0.421748	-0.936735
