data_functionalizedCrystal
_audit_creation_method	'MofGen! by Chris Wilmer'
_symmetry_space_group_name_H-M	'P1'
_symmetry_Int_Tables_number	1
_symmetry_cell_setting	triclinic
loop_
_symmetry_equiv_pos_as_xyz
  x,y,z
_cell_length_a	19.805407
_cell_length_b	19.076808
_cell_length_c	19.805398
_cell_angle_alpha	87.674457
_cell_angle_beta	89.985905
_cell_angle_gamma	92.320774
loop_
_atom_site_label
_atom_site_type_symbol
_atom_site_fract_x
_atom_site_fract_y
_atom_site_fract_z
Zn1	Zn	1.023887	-0.280294	-0.371852
Zn2	Zn	1.523887	0.219706	0.128148
Zn3	Zn	1.019264	-0.397995	-0.254113
Zn4	Zn	1.519264	0.102005	0.245887
Zn5	Zn	0.910709	-0.280304	-0.258679
Zn6	Zn	1.410709	0.219696	0.241321
Zn7	Zn	0.906122	-0.397956	-0.367265
Zn8	Zn	1.406122	0.102044	0.132735
O9	O	0.964995	-0.339137	-0.312977
O10	O	1.464995	0.160863	0.187023
O11	O	1.117990	-0.295919	-0.356242
O12	O	1.617990	0.204081	0.143758
O13	O	1.004849	-0.382404	-0.160002
O14	O	1.504849	0.117596	0.339998
O15	O	0.929576	-0.181807	-0.277522
O16	O	1.429576	0.318193	0.222478
O17	O	1.114594	-0.382394	-0.269740
O18	O	1.614594	0.117606	0.230260
O19	O	1.012728	-0.181799	-0.360670
O20	O	1.512728	0.318201	0.139330
O21	O	0.925094	-0.295937	-0.163356
O22	O	1.425094	0.204063	0.336644
O23	O	0.815384	-0.295899	-0.273075
O24	O	1.315384	0.204101	0.226925
O25	O	0.921759	-0.382327	-0.462591
O26	O	1.421759	0.117673	0.037409
O27	O	0.812014	-0.382337	-0.352852
O28	O	1.312014	0.117663	0.147148
O29	O	1.008280	-0.295881	-0.465961
O30	O	1.508280	0.204119	0.034039
O31	O	1.000401	-0.496486	-0.265293
O32	O	1.500401	0.003514	0.234707
O33	O	0.917276	-0.496457	-0.348425
O34	O	1.417276	0.003543	0.151575
C35	C	0.789140	-0.339115	-0.312962
C36	C	1.289140	0.160885	0.187038
C37	C	0.713908	-0.339123	-0.312971
C38	C	1.213908	0.160877	0.187029
C39	C	0.680330	-0.294175	-0.358075
C40	C	1.180330	0.205825	0.141925
C41	C	0.609641	-0.294179	-0.358077
C42	C	1.109641	0.205821	0.141923
C43	C	0.572532	-0.339134	-0.312978
C44	C	1.072532	0.160866	0.187022
C45	C	0.606115	-0.384084	-0.267869
C46	C	1.106115	0.115916	0.232131
C47	C	0.676802	-0.384076	-0.267864
C48	C	1.176802	0.115924	0.232136
C49	C	0.321040	-0.384116	-0.267889
C50	C	0.821040	0.115884	0.232111
C51	C	0.250348	-0.384122	-0.267899
C52	C	0.750348	0.115878	0.232101
C53	C	0.253879	-0.294218	-0.358102
C54	C	0.753879	0.205782	0.141898
C55	C	0.324567	-0.294210	-0.358097
C56	C	0.824567	0.205790	0.141903
C57	C	0.358144	-0.339157	-0.312986
C58	C	0.858144	0.160843	0.187014
C59	C	0.434792	-0.339152	-0.312983
C60	C	0.934792	0.160848	0.187017
C61	C	0.495884	-0.339144	-0.312984
C62	C	0.995884	0.160856	0.187016
C63	C	0.957857	-0.522011	-0.305880
C64	C	1.457857	-0.022011	0.194120
C65	C	0.954866	-0.600245	-0.302867
C66	C	1.454866	-0.100245	0.197133
C67	C	0.996720	-0.636935	-0.344776
C68	C	1.496720	-0.136935	0.155224
C69	C	0.993907	-0.710444	-0.341946
C70	C	1.493907	-0.210444	0.158054
C71	C	0.949241	-0.747262	-0.297202
C72	C	1.449241	-0.247262	0.202798
C73	C	0.907382	-0.710566	-0.255291
C74	C	1.407382	-0.210566	0.244709
C75	C	0.910193	-0.637059	-0.258125
C76	C	1.410193	-0.137059	0.241875
C77	C	0.936193	-0.967113	-0.284083
C78	C	1.436193	-0.467113	0.215917
C79	C	0.933386	-1.040626	-0.281250
C80	C	1.433386	-0.540626	0.218750
C81	C	1.019911	-1.040498	-0.367906
C82	C	1.519911	-0.540498	0.132094
C83	C	1.022720	-0.966989	-0.370734
C84	C	1.522720	-0.466989	0.129266
C85	C	0.980859	-0.930300	-0.328825
C86	C	1.480859	-0.430300	0.171175
N87	N	0.946365	-0.822400	-0.294306
N88	N	1.446365	-0.322400	0.205694
N89	N	0.983731	-0.855164	-0.331725
N90	N	1.483731	-0.355164	0.168275
C91	C	1.141537	-0.339160	-0.312993
C92	C	1.641537	0.160840	0.187007
C93	C	1.216769	-0.339170	-0.313000
C94	C	1.716769	0.160830	0.187000
C95	C	0.965023	-0.339098	-0.489522
C96	C	1.465023	0.160902	0.010478
C97	C	0.965035	-0.339082	-0.564754
C98	C	1.465035	0.160918	-0.064754
C99	C	0.972180	-0.155550	-0.320117
C100	C	1.472180	0.344450	0.179883
C101	C	0.975241	-0.077316	-0.323160
C102	C	1.475241	0.422684	0.176840
C103	C	1.010174	-0.293945	-1.028306
C104	C	1.510174	0.206055	-0.528306
C105	C	1.010162	-0.293966	-0.957617
C106	C	1.510162	0.206034	-0.457617
C107	C	0.965109	-0.338984	-0.920520
C108	C	1.465109	0.161016	-0.420520
C109	C	0.920068	-0.383988	-0.954116
C110	C	1.420068	0.116012	-0.454116
C111	C	0.920083	-0.383969	-1.024804
C112	C	1.420083	0.116031	-0.524804
C113	C	0.920006	-0.384064	-0.669040
C114	C	1.420006	0.115936	-0.169040
C115	C	0.919993	-0.384078	-0.598347
C116	C	1.419993	0.115922	-0.098347
C117	C	1.010085	-0.294061	-0.601853
C118	C	1.510085	0.205939	-0.101853
C119	C	1.010100	-0.294043	-0.672540
C120	C	1.510100	0.205957	-0.172540
C121	C	0.965063	-0.339049	-0.706130
C122	C	1.465063	0.160951	-0.206130
C123	C	0.965077	-0.339026	-0.782779
C124	C	1.465077	0.160974	-0.282779
C125	C	0.965091	-0.339004	-0.843872
C126	C	1.465091	0.160996	-0.343872
C127	C	0.965008	-0.339125	-0.137122
C128	C	1.465008	0.160875	0.362878
C129	C	0.965135	-0.338944	-0.061897
C130	C	1.465135	0.161056	0.438103
H131	H	0.704141	-0.420677	-0.231135
H132	H	1.204141	0.079323	0.268865
H133	H	1.046785	-0.257382	-0.702741
H134	H	1.546785	0.242618	-0.202741
H135	H	0.226533	-0.257618	-0.394832
H136	H	0.726533	0.242382	0.105168
H137	H	0.582305	-0.257579	-0.394807
H138	H	1.082305	0.242421	0.105193
Br139	Br	1.071206	-0.232976	-0.556263
Br140	Br	1.571206	0.267024	-0.056263
Br141	Br	0.879371	-0.917331	-0.227215
Br142	Br	1.379371	-0.417331	0.272785
Br143	Br	0.846755	-0.760533	-0.194575
Br144	Br	1.346755	-0.260533	0.305425
Br145	Br	1.071291	-0.232896	-0.912031
Br146	Br	1.571291	0.267104	-0.412031
Br147	Br	0.858926	-0.445087	-0.903771
Br148	Br	1.358926	0.054913	-0.403771
H149	H	0.883409	-0.420613	-1.052153
H150	H	1.383409	0.079387	-0.552153
H151	H	0.710539	-0.257569	-0.394802
H152	H	1.210539	0.242431	0.105198
H153	H	0.883301	-0.420736	-0.568144
H154	H	1.383301	0.079264	-0.068144
H155	H	1.033095	-0.606962	-0.381208
H156	H	1.533095	-0.106962	0.118792
H157	H	1.046858	-0.257282	-1.058506
H158	H	1.546858	0.242718	-0.558506
Br159	Br	0.374926	-0.233202	-0.419309
Br160	Br	0.874926	0.266798	0.080691
Br161	Br	0.199985	-0.445137	-0.206688
Br162	Br	0.699985	0.054863	0.293312
Br163	Br	1.076718	-1.090293	-0.424781
Br164	Br	1.576718	-0.590293	0.075219
H165	H	0.348370	-0.420715	-0.231157
H166	H	0.848370	0.079285	0.268843
H167	H	0.575895	-0.420684	-0.231145
H168	H	1.075895	0.079316	0.268855
Br169	Br	1.050701	-0.760235	-0.398838
Br170	Br	1.550701	-0.260235	0.101162
Br171	Br	0.858888	-0.445149	-0.714616
Br172	Br	1.358888	0.054851	-0.214616
Br173	Br	1.083341	-0.917027	-0.431459
Br174	Br	1.583341	-0.417027	0.068541
Br175	Br	0.872769	-1.090593	-0.220518
Br176	Br	1.372769	-0.590593	0.279482
Br177	Br	0.853385	-0.587264	-0.201248
Br178	Br	1.353385	-0.087264	0.298752
