data_functionalizedCrystal
_audit_creation_method	'MofGen! by Chris Wilmer'
_symmetry_space_group_name_H-M	'P1'
_symmetry_Int_Tables_number	1
_symmetry_cell_setting	triclinic
loop_
_symmetry_equiv_pos_as_xyz
  x,y,z
_cell_length_a	11.169417
_cell_length_b	13.032721
_cell_length_c	11.169409
_cell_angle_alpha	82.853997
_cell_angle_beta	90.019824
_cell_angle_gamma	97.204996
loop_
_atom_site_label
_atom_site_type_symbol
_atom_site_fract_x
_atom_site_fract_y
_atom_site_fract_z
Zn1	Zn	1.774209	-0.415926	0.739163
Zn2	Zn	1.748568	-0.590714	0.563955
Zn3	Zn	1.573486	-0.415989	0.538507
Zn4	Zn	1.547984	-0.590629	0.764588
O5	O	1.661062	-0.503314	0.651553
O6	O	1.938756	-0.439121	0.715931
O7	O	1.725284	-0.567598	0.392639
O8	O	1.621516	-0.269744	0.543834
O9	O	1.919918	-0.567537	0.587207
O10	O	1.768986	-0.269697	0.691255
O11	O	1.596652	-0.439229	0.373942
O12	O	1.402155	-0.439147	0.568487
O13	O	1.578052	-0.567392	0.929156
O14	O	1.383419	-0.567453	0.734588
O15	O	1.744259	-0.439038	0.910477
O16	O	1.700556	-0.736939	0.611860
O17	O	1.553189	-0.736877	0.759264
C18	C	1.349239	-0.503298	0.651535
C19	C	1.215837	-0.503317	0.651560
C20	C	1.621355	-0.774825	0.691108
C21	C	1.604479	-0.890979	0.708070
C22	C	1.669934	-0.942760	0.642755
C23	C	1.652492	-1.062811	0.660284
C24	C	1.974102	-0.503331	0.651572
C25	C	2.107501	-0.503338	0.651580
C26	C	1.661171	-0.503198	0.964579
C27	C	1.661217	-0.503149	1.097972
C28	C	1.700956	-0.230743	0.611870
C29	C	1.717956	-0.114589	0.594959
C30	C	1.661033	-0.503355	0.339734
C31	C	1.661262	-0.503110	0.206299
H32	H	1.583541	-1.107352	0.729190
C33	C	1.396329	-0.924902	0.771282
C34	C	1.511394	-0.951099	0.801085
H35	H	1.338865	-0.962012	0.828713
H36	H	1.376230	-0.942816	0.693236
H37	H	1.395852	-0.852111	0.771704
H38	H	1.511873	-1.023890	0.800654
H39	H	1.531498	-0.933193	0.879152
H40	H	1.738890	-0.898217	0.573862
C41	C	1.781396	-1.080889	0.386891
C42	C	1.811050	-1.054477	0.501941
H43	H	1.838873	-1.043783	0.329470
H44	H	1.703341	-1.063117	0.366689
H45	H	1.781884	-1.153681	0.386488
H46	H	1.810553	-0.981686	0.502347
H47	H	1.889125	-1.072242	0.522148
