data_functionalizedCrystal
_audit_creation_method	'MofGen! by Chris Wilmer'
_symmetry_space_group_name_H-M	'P1'
_symmetry_Int_Tables_number	1
_symmetry_cell_setting	triclinic
loop_
_symmetry_equiv_pos_as_xyz
  x,y,z
_cell_length_a	15.995350
_cell_length_b	19.188930
_cell_length_c	14.472310
_cell_angle_alpha	89.993787
_cell_angle_beta	89.990621
_cell_angle_gamma	83.318578
loop_
_atom_site_label
_atom_site_type_symbol
_atom_site_fract_x
_atom_site_fract_y
_atom_site_fract_z
O1	O	1.110667	0.089991	-0.076773
O2	O	0.866851	0.101105	-0.076794
O3	O	0.995795	-0.006090	-0.076765
O4	O	0.981723	0.197186	-0.076802
O5	O	0.995762	-0.006083	0.076917
O6	O	0.866818	0.101111	0.076888
O7	O	1.110634	0.089998	0.076909
Cu8	Cu	0.988723	0.095555	0.090931
Cu9	Cu	0.988762	0.095547	-0.090816
O10	O	0.981690	0.197192	0.076880
C11	C	0.835641	0.100648	0.000045
C12	C	0.742696	0.099271	0.000038
C13	C	0.404967	0.094324	0.000058
C14	C	0.452680	0.017982	0.000415
C15	C	0.549365	0.019360	0.000062
C16	C	0.572518	0.096778	0.000049
C17	C	0.531312	0.134429	-0.087714
C18	C	0.434683	0.132511	-0.087781
C19	C	0.434301	0.134095	0.086984
C20	C	0.531246	0.134077	0.088137
C21	C	0.667211	0.098169	0.000040
C22	C	0.310274	0.092936	0.000060
C23	C	0.995323	-0.032099	0.000079
C24	C	0.993955	-0.109607	0.000087
C25	C	1.069615	-0.154338	0.000097
C26	C	1.068330	-0.227165	0.000082
C27	C	0.991380	-0.255258	0.000075
C28	C	0.915710	-0.210517	0.000059
C29	C	0.916997	-0.137691	0.000065
N30	N	0.932550	-0.363410	0.052371
N31	N	0.931332	-0.432592	0.052368
C32	C	0.987497	-0.474676	0.000056
N33	N	1.044938	-0.444967	-0.052240
N34	N	1.046158	-0.375779	-0.052233
C35	C	0.989976	-0.334224	0.000069
C36	C	1.061769	-0.598375	0.000050
C37	C	1.060480	-0.671204	0.000029
C38	C	0.907859	-0.654553	0.000015
C39	C	0.909149	-0.581727	0.000027
C40	C	0.986106	-0.553643	0.000048
C41	C	1.141843	0.090454	0.000068
C42	C	1.234789	0.091831	0.000069
C43	C	0.982162	0.223201	0.000034
C44	C	0.983530	0.300709	0.000020
N45	N	0.988701	0.095560	0.218762
N46	N	0.988790	0.095537	-0.218647
C47	C	0.988761	0.095545	0.592853
C48	C	0.919535	0.152710	0.553672
C49	C	0.919694	0.152918	0.446584
C50	C	0.988731	0.095552	0.407262
C51	C	1.076037	0.111464	0.446103
C52	C	1.075648	0.111870	0.553224
C53	C	0.971460	0.022298	0.553394
C54	C	0.969454	0.022787	0.446266
C55	C	0.988719	0.095555	0.302374
C56	C	0.988778	0.095543	0.697741
H57	H	0.558650	0.106592	0.153064
H58	H	1.122095	-0.707624	0.000033
H59	H	0.854789	0.143438	0.420324
N60	N	0.408661	0.102792	0.170447
N61	N	0.426476	0.127439	0.246955
H62	H	0.408370	0.105325	0.305898
N63	N	1.034784	-0.031079	0.585168
N64	N	1.080390	-0.066761	0.528282
H65	H	1.125115	-0.104455	0.550726
H66	H	0.402333	0.190382	0.087568
H67	H	0.855384	-0.101270	0.000057
N68	N	0.893328	0.003107	0.587296
N69	N	0.868932	-0.053739	0.563249
H70	H	0.813747	-0.067287	0.587191
N71	N	0.933171	0.220511	0.587425
N72	N	0.993650	0.226913	0.640210
H73	H	1.003283	0.274796	0.664050
N74	N	0.429615	-0.020268	0.079418
N75	N	0.377736	0.008284	0.136380
H76	H	0.361462	-0.018723	0.192195
N77	N	1.028612	-0.033095	0.412712
N78	N	1.003646	-0.081732	0.366620
H79	H	1.045432	-0.121200	0.342928
H80	H	0.905232	0.010711	0.420881
N81	N	0.548771	0.205779	-0.091851
N82	N	0.520918	0.244176	-0.157310
H83	H	0.533249	0.294567	-0.160232
N84	N	1.142198	0.060634	0.414136
N85	N	1.201218	0.079656	0.367370
H86	H	1.247944	0.043758	0.344791
N87	N	1.140376	-0.569684	0.000040
N88	N	1.158133	-0.530898	-0.064737
H89	H	1.213650	-0.510637	-0.064747
N90	N	1.095676	0.177711	0.412418
N91	N	1.045519	0.213314	0.359818
H92	H	1.059385	0.260103	0.336028
N93	N	0.933530	0.221097	0.414390
N94	N	0.936053	0.233100	0.329603
H95	H	0.945829	0.281253	0.306865
H96	H	0.847538	-0.545305	0.000023
H97	H	0.577889	-0.010236	0.062975
H98	H	0.546404	0.190533	0.093428
N99	N	0.567029	0.101642	-0.169662
N100	N	0.604033	0.136412	-0.226446
H101	H	0.629256	0.113258	-0.284325
N102	N	1.148229	-0.125663	0.000117
N103	N	1.215779	-0.165616	0.000124
H104	H	1.271302	-0.145364	0.000136
N105	N	0.411836	0.098063	-0.170063
N106	N	0.361938	0.129937	-0.226403
H107	H	0.345804	0.105606	-0.284515
H108	H	1.129943	-0.263592	0.000087
N109	N	1.094828	0.178883	0.584538
N110	N	1.108407	0.225027	0.527278
H111	H	1.121953	0.272357	0.549388
N112	N	0.837842	0.141045	0.586036
N113	N	0.774608	0.181441	0.562007
H114	H	0.716910	0.173206	0.584875
H115	H	0.433211	-0.012395	-0.062166
H116	H	0.853057	-0.233394	0.000052
H117	H	0.577346	-0.010441	-0.062950
H118	H	0.845205	-0.677425	0.000005
H119	H	0.402230	0.188560	-0.091773
H120	H	1.128755	0.071875	0.579141
