data_functionalizedCrystal
_audit_creation_method	'MofGen! by Chris Wilmer'
_symmetry_space_group_name_H-M	'P1'
_symmetry_Int_Tables_number	1
_symmetry_cell_setting	triclinic
loop_
_symmetry_equiv_pos_as_xyz
  x,y,z
_cell_length_a	12.759401
_cell_length_b	19.077600
_cell_length_c	12.759393
_cell_angle_alpha	87.736498
_cell_angle_beta	89.980324
_cell_angle_gamma	92.259727
loop_
_atom_site_label
_atom_site_type_symbol
_atom_site_fract_x
_atom_site_fract_y
_atom_site_fract_z
Zn1	Zn	1.622898	0.280138	-0.610756
Zn2	Zn	2.122898	0.780138	-0.110756
Zn3	Zn	1.629777	0.397843	-0.442123
Zn4	Zn	2.129777	0.897843	0.057877
Zn5	Zn	1.447199	0.280173	-0.435097
Zn6	Zn	1.947199	0.780173	0.064903
Zn7	Zn	1.454173	0.397791	-0.617761
Zn8	Zn	1.954173	0.897791	-0.117761
O9	O	1.538512	0.338986	-0.526434
O10	O	2.038512	0.838986	-0.026434
O11	O	1.770832	0.295758	-0.588395
O12	O	2.270832	0.795758	-0.088395
O13	O	1.605517	0.382270	-0.294172
O14	O	2.105517	0.882270	0.205828
O15	O	1.464708	0.181685	-0.452527
O16	O	1.964708	0.681685	0.047473
O17	O	1.775886	0.382236	-0.464501
O18	O	2.275886	0.882236	0.035499
O19	O	1.593793	0.181659	-0.581583
O20	O	2.093793	0.681659	-0.081583
O21	O	1.471378	0.295818	-0.289010
O22	O	1.971378	0.795818	0.210990
O23	O	1.301102	0.295769	-0.459319
O24	O	1.801102	0.795769	0.040681
O25	O	1.476595	0.382148	-0.763850
O26	O	1.976595	0.882148	-0.263850
O27	O	1.306227	0.382182	-0.593521
O28	O	1.806227	0.882182	-0.093521
O29	O	1.600556	0.295709	-0.758704
O30	O	2.100556	0.795709	-0.258704
O31	O	1.612281	0.496319	-0.471293
O32	O	2.112281	0.996319	0.028707
O33	O	1.483265	0.496282	-0.600334
O34	O	1.983265	0.996282	-0.100334
C35	C	1.265544	0.338974	-0.526419
C36	C	1.765544	0.838974	-0.026419
C37	C	1.148768	0.338986	-0.526438
C38	C	1.648768	0.838986	-0.026438
C39	C	1.549305	0.521836	-0.537359
C40	C	2.049305	1.021836	-0.037359
C41	C	1.554018	0.600060	-0.542068
C42	C	2.054018	1.100060	-0.042068
C43	C	1.587843	1.040370	-0.575814
C44	C	2.087843	1.540370	-0.075814
C45	C	1.583403	0.966870	-0.571380
C46	C	2.083403	1.466870	-0.071380
C47	C	1.514028	0.930200	-0.501926
C48	C	2.014028	1.430200	-0.001926
C49	C	1.449097	0.967034	-0.436894
C50	C	1.949097	1.467034	0.063106
C51	C	1.453543	1.040532	-0.441323
C52	C	1.953543	1.540532	0.058677
C53	C	1.493534	0.710392	-0.481465
C54	C	1.993534	1.210392	0.018535
C55	C	1.489090	0.636888	-0.477043
C56	C	1.989090	1.136888	0.022957
C57	C	1.623398	0.636730	-0.611528
C58	C	2.123398	1.136730	-0.111528
C59	C	1.627833	0.710230	-0.615956
C60	C	2.127833	1.210230	-0.115956
C61	C	1.562907	0.747057	-0.550920
C62	C	2.062907	1.247057	-0.050920
N63	N	1.509485	0.855072	-0.497395
N64	N	2.009485	1.355072	0.002605
N65	N	1.567455	0.822184	-0.555446
N66	N	2.067455	1.322184	-0.055446
C67	C	1.091280	0.294038	-0.591058
C68	C	1.591280	0.794038	-0.091058
C69	C	0.981556	0.294046	-0.591065
C70	C	1.481556	0.794046	-0.091065
C71	C	0.986819	0.383954	-0.461830
C72	C	1.486819	0.883954	0.038170
C73	C	1.096540	0.383942	-0.461818
C74	C	1.596540	0.883942	0.038182
C75	C	1.812546	0.338999	-0.526450
C76	C	2.312546	0.838999	-0.026450
C77	C	1.929323	0.339004	-0.526457
C78	C	2.429323	0.839004	-0.026457
C79	C	1.527658	1.155422	-0.515480
C80	C	2.027658	1.655422	-0.015480
C81	C	1.522915	1.077198	-0.510789
C82	C	2.022915	1.577198	-0.010789
C83	C	1.538586	0.338919	-0.800464
C84	C	2.038586	0.838919	-0.300464
C85	C	1.538618	0.338890	-0.917239
C86	C	2.038618	0.838890	-0.417239
C87	C	1.603169	0.293874	-0.969422
C88	C	2.103169	0.793874	-0.469422
C89	C	1.603185	0.293843	-1.079144
C90	C	2.103185	0.793843	-0.579144
C91	C	1.474096	0.383851	-1.084490
C92	C	1.974096	0.883851	-0.584490
C93	C	1.474076	0.383878	-0.974770
C94	C	1.974076	0.883878	-0.474770
C95	C	1.538495	0.339003	-0.253468
C96	C	2.038495	0.839003	0.246532
C97	C	1.538655	0.338833	-0.136681
C98	C	2.038655	0.838833	0.363319
H99	H	1.644325	1.070221	-0.632382
H100	H	2.144325	1.570221	-0.132382
O101	O	0.930482	0.432444	-0.392144
O102	O	1.430482	0.932444	0.107856
H103	H	0.950778	0.420299	-0.308989
H104	H	1.450778	0.920299	0.191011
H105	H	1.133800	0.257430	-0.643672
H106	H	1.633800	0.757430	-0.143672
H107	H	1.684338	0.740082	-0.672501
H108	H	2.184338	1.240082	-0.172501
O109	O	1.158558	0.432421	-0.392114
O110	O	1.658558	0.932421	0.107886
H111	H	1.103810	0.463690	-0.347191
H112	H	1.603810	0.963690	0.152809
H113	H	1.392614	0.937173	-0.380337
H114	H	1.892614	1.437173	0.119663
O115	O	1.672770	0.245348	-0.907365
O116	O	2.172770	0.745348	-0.407365
H117	H	1.717652	0.214036	-0.962089
H118	H	2.217652	0.714036	-0.462089
O119	O	1.672814	0.245295	-1.135433
O120	O	2.172814	0.745295	-0.635433
H121	H	1.717693	0.214022	-1.076991
H122	H	2.217693	0.714022	-0.576991
O123	O	1.404493	0.432376	-1.146546
O124	O	1.904493	0.932376	-0.646546
H125	H	1.321322	0.420299	-1.124761
H126	H	1.821322	0.920299	-0.624761
O127	O	1.404418	0.432412	-0.918472
O128	O	1.904418	0.932412	-0.418472
H129	H	1.359541	0.463691	-0.976909
H130	H	1.859541	0.963691	-0.476909
O131	O	1.693437	0.597012	-0.681660
O132	O	2.193437	1.097012	-0.181660
H133	H	1.678701	0.539743	-0.666908
H134	H	2.178701	1.039743	-0.166908
O135	O	0.919546	0.245566	-0.660760
O136	O	1.419546	0.745566	-0.160760
H137	H	0.941349	0.257705	-0.743911
H138	H	1.441349	0.757705	-0.243911
H139	H	1.636273	0.936885	-0.624328
H140	H	2.136273	1.436885	-0.124328
H141	H	1.432593	0.607035	-0.420481
H142	H	1.932593	1.107035	0.079519
H143	H	1.400672	1.070517	-0.388372
H144	H	1.900672	1.570517	0.111628
H145	H	1.440665	0.740368	-0.428508
H146	H	1.940665	1.240368	0.071492
