data_functionalizedCrystal
_audit_creation_method	'MofGen! by Chris Wilmer'
_symmetry_space_group_name_H-M	'P1'
_symmetry_Int_Tables_number	1
_symmetry_cell_setting	triclinic
loop_
_symmetry_equiv_pos_as_xyz
  x,y,z
_cell_length_a	11.169417
_cell_length_b	16.120484
_cell_length_c	16.120297
_cell_angle_alpha	95.614431
_cell_angle_beta	92.881561
_cell_angle_gamma	92.926269
loop_
_atom_site_label
_atom_site_type_symbol
_atom_site_fract_x
_atom_site_fract_y
_atom_site_fract_z
Zn1	Zn	1.773031	-0.356726	-0.489383
Zn2	Zn	2.273031	0.143274	0.010617
Zn3	Zn	1.772879	-0.489415	-0.356693
Zn4	Zn	2.272879	0.010585	0.143307
Zn5	Zn	1.583045	-0.349664	-0.349636
Zn6	Zn	2.083045	0.150336	0.150364
Zn7	Zn	1.561557	-0.496459	-0.496424
Zn8	Zn	2.061557	0.003541	0.003576
O9	O	1.672628	-0.423066	-0.423034
O10	O	2.172628	0.076934	0.076966
O11	O	1.940959	-0.374335	-0.471788
O12	O	2.440959	0.125665	0.028212
O13	O	1.756627	-0.464974	-0.238795
O14	O	2.256627	0.035026	0.261205
O15	O	1.617304	-0.233635	-0.362274
O16	O	2.117304	0.266365	0.137726
O17	O	1.940848	-0.471821	-0.374301
O18	O	2.440848	0.028179	0.125699
O19	O	1.756885	-0.238823	-0.464945
O20	O	2.256885	0.261177	0.035055
O21	O	1.617157	-0.362299	-0.233610
O22	O	2.117157	0.137701	0.266390
O23	O	1.412246	-0.369129	-0.369102
O24	O	1.912246	0.130871	0.130898
O25	O	1.580679	-0.483826	-0.612452
O26	O	2.080679	0.016174	-0.112452
O27	O	1.396459	-0.476979	-0.476946
O28	O	1.896459	0.023021	0.023054
O29	O	1.736048	-0.381165	-0.607279
O30	O	2.236048	0.118835	-0.107279
O31	O	1.735791	-0.607315	-0.381129
O32	O	2.235791	-0.107315	0.118871
O33	O	1.580533	-0.612490	-0.483789
O34	O	2.080533	-0.112490	0.016211
C35	C	1.360805	-0.423053	-0.423023
C36	C	1.860805	0.076947	0.076977
C37	C	1.227403	-0.423068	-0.423039
C38	C	1.727403	0.076932	0.076961
C39	C	1.655845	-0.640231	-0.434007
C40	C	2.155845	-0.140231	0.065993
C41	C	1.648772	-0.733137	-0.438729
C42	C	2.148772	-0.233137	0.061271
C43	C	1.635866	-0.903237	-0.447368
C44	C	2.135866	-0.403237	0.052632
C45	C	1.709604	-0.942055	-0.398714
C46	C	2.209604	-0.442055	0.101286
C47	C	1.702423	-1.036705	-0.403521
C48	C	2.202423	-0.536705	0.096479
C49	C	1.643045	-0.808579	-0.442562
C50	C	2.143045	-0.308579	0.057438
C51	C	1.985668	-0.423080	-0.423046
C52	C	2.485668	0.076920	0.076954
C53	C	2.119068	-0.423086	-0.423051
C54	C	2.619068	0.076914	0.076949
C55	C	1.655984	-0.434069	-0.641041
C56	C	2.155984	0.065931	-0.141041
C57	C	1.648891	-0.438758	-0.733942
C58	C	2.148891	0.061242	-0.233942
C59	C	1.689508	-0.205054	-0.412037
C60	C	2.189508	0.294946	0.087963
C61	C	1.696702	-0.112150	-0.407350
C62	C	2.196702	0.387850	0.092650
C63	C	1.635899	-0.447300	-0.904033
C64	C	2.135899	0.052700	-0.404033
C65	C	1.709613	-0.398582	-0.942875
C66	C	2.209613	0.101418	-0.442875
C67	C	1.702384	-0.403335	-1.037519
C68	C	2.202384	0.096665	-0.537519
C69	C	1.643126	-0.442548	-0.809380
C70	C	2.143126	0.057452	-0.309380
C71	C	1.689281	-0.412046	-0.205873
C72	C	2.189281	0.087954	0.294127
C73	C	1.696625	-0.407121	-0.112960
C74	C	2.196625	0.092879	0.387040
H75	H	1.778126	-0.904204	-0.353450
H76	H	2.278126	-0.404204	0.146550
H77	H	1.778150	-0.353303	-0.905048
H78	H	2.278150	0.146697	-0.405048
H79	H	1.567347	-0.941086	-0.492627
H80	H	2.067347	-0.441086	0.007373
O81	O	1.554248	-0.501298	-0.949279
O82	O	2.054248	-0.001298	-0.449279
C83	C	1.472443	-0.555265	-1.086240
C84	C	1.972443	-0.055265	-0.586240
C85	C	1.564981	-0.494088	-1.035089
C86	C	2.064981	0.005912	-0.535089
H87	H	1.481073	-0.549444	-1.155626
H88	H	1.981073	-0.049444	-0.655626
H89	H	1.489584	-0.621843	-1.072615
H90	H	1.989584	-0.121843	-0.572615
H91	H	1.378097	-0.539755	-1.068337
H92	H	1.878097	-0.039755	-0.568337
H93	H	1.659363	-0.509521	-1.052962
H94	H	2.159363	-0.009521	-0.552962
H95	H	1.547736	-0.427528	-1.048720
H96	H	2.047736	0.072472	-0.548720
