data_functionalizedCrystal
_audit_creation_method	'MofGen! by Chris Wilmer'
_symmetry_space_group_name_H-M	'P1'
_symmetry_Int_Tables_number	1
_symmetry_cell_setting	triclinic
loop_
_symmetry_equiv_pos_as_xyz
  x,y,z
_cell_length_a	12.837943
_cell_length_b	23.532407
_cell_length_c	11.892095
_cell_angle_alpha	93.859970
_cell_angle_beta	85.689438
_cell_angle_gamma	88.838809
loop_
_atom_site_label
_atom_site_type_symbol
_atom_site_fract_x
_atom_site_fract_y
_atom_site_fract_z
O1	O	1.380592	0.144688	-0.094007
O2	O	1.078862	0.137379	-0.094012
O3	O	1.238824	0.058625	-0.093989
O4	O	1.220630	0.223442	-0.094030
O5	O	1.225487	0.065180	0.094017
O6	O	1.065525	0.143934	0.093993
O7	O	1.367255	0.151243	0.093999
Zn8	Zn	1.214272	0.148629	0.123846
Zn9	Zn	1.231845	0.139993	-0.123859
O10	O	1.207293	0.229998	0.093975
C11	C	1.033599	0.138187	-0.000010
C12	C	0.918597	0.130823	-0.000011
C13	C	0.676728	0.219356	-0.000017
C14	C	0.568673	0.212439	-0.000017
C15	C	0.594431	0.110073	-0.000004
C16	C	0.702485	0.116990	-0.000003
C17	C	0.743630	0.171633	-0.000012
C18	C	0.851687	0.178549	-0.000020
C19	C	0.877442	0.076184	0.000002
C20	C	0.769387	0.069267	0.000002
C21	C	1.231692	0.040660	0.000017
C22	C	1.230298	-0.022637	0.000026
C23	C	1.316227	-0.416812	-0.000035
C24	C	1.314934	-0.476287	-0.000043
O25	O	1.394590	-0.508463	-0.000084
N26	N	1.219835	-0.504370	-0.000044
C27	C	1.126025	-0.472975	-0.000048
O28	O	1.045018	-0.502322	-0.000051
C29	C	1.127321	-0.413501	-0.000047
C30	C	1.222424	-0.385421	-0.000035
C31	C	1.411324	-0.388732	-0.000024
C32	C	1.412617	-0.329261	-0.000013
C33	C	1.318813	-0.297871	-0.000013
C34	C	1.223717	-0.325951	-0.000024
C35	C	1.033512	-0.382108	-0.000059
C36	C	1.034816	-0.322631	-0.000060
C37	C	1.129920	-0.294551	-0.000047
C38	C	1.131207	-0.235089	-0.000014
N39	N	1.226306	-0.207006	-0.000013
C40	C	1.320109	-0.238397	-0.000013
C41	C	1.123312	-0.597873	-0.000051
C42	C	1.122015	-0.657345	-0.000043
C43	C	1.310925	-0.660653	-0.000041
C44	C	1.312220	-0.601180	-0.000040
C45	C	1.218411	-0.569790	-0.000050
C46	C	1.322817	-0.113504	0.000011
C47	C	1.324101	-0.054028	0.000026
C48	C	1.135193	-0.050725	0.000018
C49	C	1.133908	-0.110196	0.000008
C50	C	1.227729	-0.141584	0.000001
O51	O	1.051594	-0.202877	0.000022
O52	O	1.401104	-0.209042	-0.000025
C53	C	1.412519	0.150435	-0.000006
C54	C	1.527521	0.157799	-0.000012
C55	C	1.214425	0.247962	-0.000033
C56	C	1.215820	0.311259	-0.000049
N57	N	1.202287	0.154524	0.292898
N58	N	1.243838	0.134094	-0.292912
C59	C	1.327236	0.093046	0.529565
C60	C	1.318866	0.097171	0.647905
C61	C	1.177173	0.166894	0.647922
C62	C	1.185543	0.162770	0.529582
C63	C	1.260578	0.125845	0.470407
C64	C	1.268952	0.121724	0.352064
C65	C	1.127255	0.191444	0.352084
C66	C	1.118885	0.195569	0.470424
H67	H	0.735872	0.024778	0.000022
H68	H	0.514204	0.251300	-0.000019
H69	H	1.388340	0.062984	0.481384
N70	N	1.390769	0.061800	0.711714
H71	H	1.439574	0.037786	0.656265
H72	H	1.432869	0.087806	0.760791
H73	H	1.330052	0.091659	0.303885
N74	N	1.055360	0.226828	0.288279
H75	H	1.072048	0.218615	0.204331
H76	H	0.980467	0.216967	0.308978
N77	N	1.424002	-0.147355	0.000021
H78	H	1.432636	-0.174529	-0.069673
H79	H	1.484374	-0.120498	0.000078
H80	H	0.710228	0.263848	-0.000026
H81	H	0.956069	-0.404960	-0.000076
H82	H	1.116074	0.196954	0.696118
N83	N	0.949601	0.024706	-0.000004
H84	H	1.024298	0.037377	-0.000009
H85	H	0.931400	0.003572	0.069694
H86	H	0.560905	0.065588	0.000097
H87	H	1.057790	0.225631	0.518618
N88	N	1.412098	-0.694520	-0.000042
H89	H	1.420708	-0.721692	-0.069739
H90	H	1.472486	-0.667673	0.000005
N91	N	0.896070	0.237482	-0.000039
H92	H	0.837287	0.266664	-0.000040
H93	H	0.935401	0.245010	0.069655
H94	H	1.490060	-0.306404	-0.000007
N95	N	1.426681	-0.023741	0.000046
H96	H	1.485906	-0.052656	0.000041
H97	H	1.436281	-0.001559	-0.069645
H98	H	1.046916	-0.572319	-0.000049
H99	H	1.487714	-0.414284	-0.000027
N100	N	0.933634	-0.288775	-0.000076
H101	H	0.873197	-0.315592	-0.000084
H102	H	0.925104	-0.261604	0.069623
H103	H	1.056465	-0.133059	0.000030
N104	N	1.034032	-0.016853	0.000038
H105	H	1.035310	0.005476	-0.069649
H106	H	0.973631	-0.043691	0.000079
N107	N	1.414794	-0.570896	-0.000026
H108	H	1.474016	-0.599811	-0.000023
H109	H	1.424398	-0.548719	-0.069723
H110	H	1.044571	-0.680202	-0.000034
