data_functionalizedCrystal
_audit_creation_method	'MofGen! by Chris Wilmer'
_symmetry_space_group_name_H-M	'P1'
_symmetry_Int_Tables_number	1
_symmetry_cell_setting	triclinic
loop_
_symmetry_equiv_pos_as_xyz
  x,y,z
_cell_length_a	18.101398
_cell_length_b	12.759399
_cell_length_c	12.759393
_cell_angle_alpha	90.030045
_cell_angle_beta	90.017030
_cell_angle_gamma	90.013954
loop_
_atom_site_label
_atom_site_type_symbol
_atom_site_fract_x
_atom_site_fract_y
_atom_site_fract_z
Zn1	Zn	1.132219	-0.418256	0.593951
Zn2	Zn	1.132142	-0.593975	0.418276
Zn3	Zn	1.008372	-0.418305	0.418295
Zn4	Zn	1.008362	-0.593888	0.593922
O5	O	1.070274	-0.506106	0.506111
O6	O	1.235842	-0.441582	0.570652
O7	O	1.115696	-0.570729	0.271258
O8	O	1.024838	-0.271277	0.441617
O9	O	1.235786	-0.570682	0.441584
O10	O	1.115827	-0.271242	0.570670
O11	O	1.024763	-0.441665	0.271272
O12	O	0.904738	-0.441580	0.441588
O13	O	1.024820	-0.570533	0.740947
O14	O	0.904731	-0.570581	0.570621
O15	O	1.115817	-0.441497	0.740969
O16	O	1.115686	-0.740985	0.441556
O17	O	1.024745	-0.740921	0.570602
C18	C	1.070226	-0.779073	0.506097
C19	C	1.070274	-0.895850	0.506125
C20	C	0.877864	-0.506077	0.506104
C21	C	0.795549	-0.506090	0.506126
C22	C	1.022961	-0.950814	0.438893
C23	C	1.023012	-1.060538	0.438910
C24	C	1.117689	-1.060325	0.573400
C25	C	1.117642	-0.950603	0.573377
C26	C	0.975594	-0.896061	0.371641
C27	C	0.928277	-0.951025	0.304405
C28	C	0.928327	-1.060749	0.304421
C29	C	0.975694	-1.115509	0.371675
C30	C	0.644841	-0.506110	0.506124
C31	C	0.613507	-0.587398	0.587182
C32	C	0.527889	-0.587727	0.586942
C33	C	0.496458	-0.506129	0.506124
C34	C	0.527513	-0.535688	0.395269
C35	C	0.613158	-0.536267	0.395738
C36	C	0.613300	-0.395061	0.534953
C37	C	0.527650	-0.395669	0.537395
C38	C	0.412599	-0.506138	0.506117
C39	C	0.728701	-0.506103	0.506123
C40	C	1.263436	-0.506136	0.506119
C41	C	1.345750	-0.506149	0.506122
C42	C	1.070326	-0.506000	0.780145
C43	C	1.070348	-0.505955	0.896921
C44	C	1.070342	-0.232073	0.506149
C45	C	1.070371	-0.115296	0.506165
C46	C	1.070265	-0.506136	0.233144
C47	C	1.070386	-0.505885	0.116368
C48	C	1.117737	-0.438759	0.951796
C49	C	1.117755	-0.438722	1.061520
C50	C	1.022992	-0.573083	1.061485
C51	C	1.022972	-0.573115	0.951763
C52	C	1.165113	-0.371599	0.896955
C53	C	1.212507	-0.304399	0.951830
C54	C	1.212524	-0.304361	1.061554
C55	C	1.165149	-0.371523	1.116403
H56	H	0.889716	-0.906434	0.249643
N57	N	0.639604	-0.643772	0.363474
H58	H	0.670673	-0.637850	0.298006
H59	H	0.595590	-0.690285	0.349136
H60	H	0.975736	-1.204854	0.371676
H61	H	1.156252	-1.104919	0.628156
N62	N	1.165095	-0.371620	0.778611
H63	H	1.114294	-0.352300	0.752184
H64	H	1.178713	-0.443717	0.752244
N65	N	1.168673	-0.891311	0.645885
H66	H	1.198684	-0.942644	0.688497
H67	H	1.138491	-0.845785	0.694460
N68	N	0.877298	-1.120039	0.231909
H69	H	0.907431	-1.165557	0.183261
H70	H	0.847295	-1.068637	0.189374
H71	H	0.506894	-0.569286	0.669126
N72	N	1.263610	-0.231973	0.892679
H73	H	1.256414	-0.242199	0.814843
H74	H	1.316494	-0.248348	0.911872
N75	N	1.165164	-0.371470	1.234749
H76	H	1.215966	-0.390780	1.261181
H77	H	1.127932	-0.424204	1.261083
H78	H	0.984372	-0.627816	0.907083
H79	H	1.251109	-0.249636	1.106230
H80	H	0.634127	-0.569171	0.669622
N81	N	0.971889	-0.645507	1.120638
H82	H	0.979092	-0.635288	1.198473
H83	H	0.983383	-0.720554	1.101449
N84	N	0.641985	-0.695782	0.562163
H85	H	0.675094	-0.692455	0.498551
H86	H	0.598927	-0.743929	0.547379
H87	H	0.507382	-0.670020	0.567816
H88	H	0.507154	-0.478297	0.333216
H89	H	0.975546	-0.806718	0.371621
N90	N	0.640152	-0.314845	0.456767
H91	H	0.669479	-0.258948	0.494379
H92	H	0.596353	-0.281720	0.420626
H93	H	0.633885	-0.479591	0.333272
N94	N	0.499074	-0.642017	0.362437
H95	H	0.515478	-0.696448	0.414960
H96	H	0.519370	-0.660249	0.290996
N97	N	0.641938	-0.359284	0.640223
H98	H	0.675653	-0.414706	0.670293
H99	H	0.598992	-0.347487	0.689342
H100	H	0.507356	-0.373371	0.618978
H101	H	0.506255	-0.331906	0.482707
