data_functionalizedCrystal
_audit_creation_method	'MofGen! by Chris Wilmer'
_symmetry_space_group_name_H-M	'P1'
_symmetry_Int_Tables_number	1
_symmetry_cell_setting	triclinic
loop_
_symmetry_equiv_pos_as_xyz
  x,y,z
_cell_length_a	12.784890
_cell_length_b	12.811415
_cell_length_c	11.892095
_cell_angle_alpha	88.492960
_cell_angle_beta	86.513306
_cell_angle_gamma	78.600226
loop_
_atom_site_label
_atom_site_type_symbol
_atom_site_fract_x
_atom_site_fract_y
_atom_site_fract_z
O1	O	1.417103	-0.000755	-0.093891
O2	O	1.108176	0.043822	-0.098470
O3	O	1.269296	-0.130752	-0.080564
O4	O	1.255983	0.173819	-0.111797
O5	O	1.255861	-0.116217	0.105952
O6	O	1.094742	0.058357	0.088047
O7	O	1.403669	0.013780	0.092626
Zn8	Zn	1.247072	0.038376	0.119950
Zn9	Zn	1.264772	0.019226	-0.125794
O10	O	1.242549	0.188354	0.074720
C11	C	1.061893	0.053989	-0.005510
C12	C	0.944002	0.062615	-0.006398
C13	C	0.766306	0.170730	-0.017486
C14	C	0.877075	0.162632	-0.016656
C15	C	0.900153	-0.029309	0.003027
C16	C	0.789384	-0.021211	0.002196
C17	C	0.722464	0.078813	-0.008059
C18	C	0.611692	0.086911	-0.008881
C19	C	0.634773	-0.105030	0.010793
C20	C	0.745542	-0.113128	0.011624
C21	C	1.261421	-0.162200	0.016662
C22	C	1.257959	-0.277558	0.028484
C23	C	1.449951	0.003613	-0.000337
C24	C	1.567843	-0.005014	0.000544
C25	C	1.266081	-0.510164	-0.152665
C26	C	1.262829	-0.618554	-0.141562
C27	C	1.248193	-0.602728	0.061791
C28	C	1.251446	-0.494338	0.050688
C29	C	1.260392	-0.448061	-0.056543
C30	C	1.263652	-0.339670	-0.067645
C31	C	1.249009	-0.323845	0.135707
C32	C	1.245756	-0.432235	0.146810
C33	C	1.250424	0.219802	-0.022509
C34	C	1.253887	0.335160	-0.034338
N35	N	1.235000	0.051445	0.287663
N36	N	1.276853	0.006148	-0.293507
C37	C	1.360855	-0.084848	0.538291
C38	C	1.352424	-0.075706	0.655695
C39	C	1.209704	0.078865	0.639879
C40	C	1.218135	0.069723	0.522475
C41	C	1.293714	-0.012135	0.471685
C42	C	1.302149	-0.021271	0.354278
C43	C	1.159424	0.133294	0.338465
C44	C	1.150994	0.142436	0.455869
H45	H	0.599073	-0.179883	0.018380
H46	H	1.244380	-0.273270	0.213977
H47	H	0.557206	0.168356	-0.017226
H48	H	1.270939	-0.301993	-0.154958
H49	H	1.148163	0.145505	0.681248
H50	H	0.711817	0.252174	-0.025823
O51	O	1.069492	0.230728	0.510659
H52	H	1.024221	0.279755	0.444615
O53	O	1.442366	-0.173130	0.483497
H54	H	1.487637	-0.222160	0.549538
H55	H	1.273375	-0.472486	-0.239977
H56	H	1.267458	-0.669114	-0.219835
H57	H	1.238469	-0.469929	0.234114
H58	H	0.912765	0.237481	-0.024330
O59	O	1.383654	-0.109561	0.299489
H60	H	1.428915	-0.158594	0.365535
O61	O	1.238567	-0.652654	0.177441
H62	H	1.237274	-0.738460	0.169007
O63	O	1.424851	-0.154120	0.727538
H64	H	1.478827	-0.212566	0.672491
H65	H	0.954659	-0.110744	0.011368
O66	O	1.086993	0.211724	0.266629
H67	H	1.105544	0.191614	0.176456
H68	H	0.800044	-0.194564	0.019969
