data_functionalizedCrystal
_audit_creation_method	'MofGen! by Chris Wilmer'
_symmetry_space_group_name_H-M	'P1'
_symmetry_Int_Tables_number	1
_symmetry_cell_setting	triclinic
loop_
_symmetry_equiv_pos_as_xyz
  x,y,z
_cell_length_a	12.594517
_cell_length_b	25.639239
_cell_length_c	12.594517
_cell_angle_alpha	90.009264
_cell_angle_beta	90.002075
_cell_angle_gamma	90.038486
loop_
_atom_site_label
_atom_site_type_symbol
_atom_site_fract_x
_atom_site_fract_y
_atom_site_fract_z
Zn1	Zn	1.626897	-0.208266	0.601816
Zn2	Zn	2.126897	0.291734	1.101816
Zn3	Zn	1.626778	-0.295670	0.423819
Zn4	Zn	2.126778	0.204330	0.923819
Zn5	Zn	1.448961	-0.208251	0.423845
Zn6	Zn	1.948961	0.291749	0.923845
Zn7	Zn	1.448813	-0.295672	0.601749
Zn8	Zn	1.948813	0.204328	1.101749
O9	O	1.537862	-0.251965	0.512807
O10	O	2.037862	0.248035	1.012807
O11	O	1.775827	-0.219866	0.578221
O12	O	2.275827	0.280134	1.078221
O13	O	1.603202	-0.284067	0.274877
O14	O	2.103202	0.215933	0.774877
O15	O	1.472676	-0.135087	0.447492
O16	O	1.972676	0.364913	0.947492
O17	O	1.775739	-0.284082	0.447448
O18	O	2.275739	0.215918	0.947448
O19	O	1.603406	-0.135099	0.578246
O20	O	2.103406	0.364901	1.078246
O21	O	1.472560	-0.219840	0.274896
O22	O	1.972560	0.280160	0.774896
O23	O	1.299996	-0.219841	0.447427
O24	O	1.799996	0.280159	0.947427
O25	O	1.472424	-0.284085	0.750704
O26	O	1.972424	0.215915	1.250704
O27	O	1.299887	-0.284070	0.578132
O28	O	1.799887	0.215930	1.078132
O29	O	1.603262	-0.219868	0.750753
O30	O	2.103262	0.280132	1.250753
O31	O	1.603058	-0.368836	0.447383
O32	O	2.103058	0.131164	0.947383
O33	O	1.472308	-0.368837	0.578107
O34	O	1.972308	0.131163	1.078107
C35	C	1.261321	-0.251954	0.512776
C36	C	1.761321	0.248046	1.012776
C37	C	1.143016	-0.251962	0.512788
C38	C	1.643016	0.248038	1.012788
C39	C	1.073791	-0.216981	0.441833
C40	C	1.573791	0.283019	0.941833
C41	C	1.002950	-0.264667	0.415643
C42	C	1.502950	0.235333	0.915643
C43	C	1.003057	-0.204299	0.538996
C44	C	1.503057	0.295701	1.038996
C45	C	1.073733	-0.299674	0.486547
C46	C	1.573733	0.200326	0.986547
C47	C	1.073847	-0.239274	0.609945
C48	C	1.573847	0.260726	1.109945
C49	C	1.003038	-0.286993	0.583792
C50	C	1.503038	0.213007	1.083792
C51	C	1.537683	-0.387807	0.512758
C52	C	2.037683	0.112193	1.012758
C53	C	1.537704	-0.445921	0.512773
C54	C	2.037704	0.054079	1.012773
C55	C	1.606121	-0.806271	0.444855
C56	C	2.106121	-0.306271	0.944855
C57	C	1.606162	-0.860876	0.444869
C58	C	2.106162	-0.360876	0.944869
O59	O	1.664147	-0.889101	0.387069
O60	O	2.164147	-0.389101	0.887069
N61	N	1.538049	-0.888204	0.512878
N62	N	2.038049	-0.388204	1.012878
C63	C	1.469898	-0.860925	0.580884
C64	C	1.969898	-0.360925	1.080884
O65	O	1.411967	-0.889184	0.638733
O66	O	1.911967	-0.389184	1.138733
C67	C	1.469863	-0.806322	0.580874
C68	C	1.969863	-0.306322	1.080874
C69	C	1.537973	-0.778996	0.512854
C70	C	2.037973	-0.278996	1.012854
C71	C	1.674226	-0.778946	0.376841
C72	C	2.174226	-0.278946	0.876841
C73	C	1.674184	-0.724345	0.376826
C74	C	2.174184	-0.224345	0.876826
C75	C	1.606035	-0.697070	0.444824
C76	C	2.106035	-0.197070	0.944824
C77	C	1.537930	-0.724396	0.512838
C78	C	2.037930	-0.224396	1.012838
C79	C	1.401718	-0.779044	0.648885
C80	C	1.901718	-0.279044	1.148885
C81	C	1.401689	-0.724437	0.648870
C82	C	1.901689	-0.224437	1.148870
C83	C	1.469799	-0.697111	0.580850
C84	C	1.969799	-0.197111	1.080850
C85	C	1.469739	-0.642520	0.580822
C86	C	1.969739	-0.142520	1.080822
N87	N	1.537852	-0.615192	0.512813
N88	N	2.037852	-0.115192	1.012813
C89	C	1.606000	-0.642467	0.444815
C90	C	2.106000	-0.142467	0.944815
C91	C	1.469978	-0.975596	0.580900
C92	C	1.969978	-0.475596	1.080900
C93	C	1.470007	-1.030198	0.580906
C94	C	1.970007	-0.530198	1.080906
C95	C	1.606273	-1.030145	0.444892
C96	C	2.106273	-0.530145	0.944892
C97	C	1.606238	-0.975541	0.444882
C98	C	2.106238	-0.475541	0.944882
C99	C	1.538091	-0.948267	0.512892
C100	C	2.038091	-0.448267	1.012892
C101	C	1.605904	-0.527802	0.444787
C102	C	2.105904	-0.027802	0.944787
C103	C	1.605852	-0.473197	0.444774
C104	C	2.105852	0.026803	0.944774
C105	C	1.469591	-0.473254	0.580792
C106	C	1.969591	0.026746	1.080792
C107	C	1.469638	-0.527855	0.580800
C108	C	1.969638	-0.027855	1.080800
C109	C	1.537804	-0.555127	0.512795
C110	C	2.037804	-0.055127	1.012795
O111	O	1.411786	-0.614260	0.638595
O112	O	1.911786	-0.114260	1.138595
O113	O	1.663931	-0.614201	0.386986
O114	O	2.163931	-0.114201	0.886986
C115	C	1.815483	-0.251976	0.512839
C116	C	2.315483	0.248024	1.012839
C117	C	1.933788	-0.251980	0.512853
C118	C	2.433788	0.248020	1.012853
C119	C	1.537840	-0.251978	0.790428
C120	C	2.037840	0.248022	1.290428
C121	C	1.537831	-0.251984	0.908733
C122	C	2.037831	0.248016	1.408733
C123	C	1.538071	-0.115592	0.512879
C124	C	2.038071	0.384408	1.012879
C125	C	1.538160	-0.057478	0.512910
C126	C	2.038160	0.442522	1.012910
C127	C	1.466667	-0.286906	0.977960
C128	C	1.966667	0.213094	1.477960
C129	C	1.563754	-0.299696	1.048748
C130	C	2.063754	0.200304	1.548748
C131	C	1.440749	-0.239207	1.048745
C132	C	1.940749	0.260793	1.548745
C133	C	1.634968	-0.264799	0.977963
C134	C	2.134968	0.235201	1.477963
C135	C	1.511898	-0.204288	0.977954
C136	C	2.011898	0.295712	1.477954
C137	C	1.609052	-0.217059	1.048710
C138	C	2.109052	0.282941	1.548710
C139	C	1.537861	-0.251967	1.236266
C140	C	2.037861	0.248033	1.736266
C141	C	1.537825	-0.251974	1.117961
C142	C	2.037825	0.248026	1.617961
H143	H	1.105012	-0.228516	0.692057
H144	H	1.605012	0.271484	1.192057
O145	O	1.743749	-0.279171	0.936957
O146	O	2.243749	0.220829	1.436957
H147	H	1.797798	-0.286287	1.005033
H148	H	2.297798	0.213713	1.505033
O149	O	1.328259	-0.808505	0.722261
O150	O	1.828259	-0.308505	1.222261
H151	H	1.274147	-0.833413	0.674595
H152	H	1.774147	-0.333413	1.174595
O153	O	1.328173	-0.695019	0.722212
O154	O	1.828173	-0.195019	1.222212
H155	H	1.280815	-0.723197	0.769497
H156	H	1.780815	-0.223197	1.269497
H157	H	1.669300	-0.187522	1.079578
H158	H	2.169300	0.312478	1.579578
H159	H	1.414181	-0.550105	0.636192
H160	H	1.914181	-0.050105	1.136192
H161	H	1.104650	-0.340001	0.464316
H162	H	1.604650	0.159999	0.964316
O163	O	1.396089	-0.443828	0.654125
O164	O	1.896089	0.056172	1.154125
H165	H	1.348724	-0.471999	0.701422
H166	H	1.848724	0.028001	1.201422
O167	O	1.679332	-0.443725	0.371420
O168	O	2.179332	0.056275	0.871420
H169	H	1.631735	-0.418881	0.317204
H170	H	2.131735	0.081119	0.817204
O171	O	1.387055	-0.326059	0.936804
O172	O	1.887055	0.173941	1.436804
H173	H	1.326347	-0.305644	0.888325
H174	H	1.826347	0.194356	1.388325
O175	O	1.592817	-0.353116	1.089957
O176	O	2.092817	0.146884	1.589957
H177	H	1.533634	-0.382041	1.061632
H178	H	2.033634	0.117959	1.561632
H179	H	0.972168	-0.316617	0.643824
H180	H	1.472168	0.183383	1.143824
H181	H	1.414476	-0.953392	0.636279
H182	H	1.914476	-0.453392	1.136279
O183	O	1.396539	-1.059669	0.654262
O184	O	1.896539	-0.559669	1.154262
H185	H	1.349154	-1.031524	0.701544
H186	H	1.849154	-0.531524	1.201544
O187	O	1.482795	-0.150887	0.936690
O188	O	1.982795	0.349113	1.436690
H189	H	1.402133	-0.140374	0.964976
H190	H	1.902133	0.359626	1.464976
H191	H	0.971955	-0.163989	0.561099
H192	H	1.471955	0.336011	1.061099
O193	O	1.679786	-1.059574	0.371563
O194	O	2.179786	-0.559574	0.871563
H195	H	1.661604	-1.049125	0.288001
H196	H	2.161604	-0.549125	0.788001
O197	O	1.332004	-0.224889	1.089924
O198	O	1.832004	0.275111	1.589924
H199	H	1.273088	-0.253938	1.061573
H200	H	1.773088	0.246062	1.561573
H201	H	0.971810	-0.275411	0.333506
H202	H	1.471810	0.224589	0.833506
O203	O	1.114964	-0.177836	0.362262
O204	O	1.614964	0.322164	0.862262
H205	H	1.086570	-0.188505	0.281699
H206	H	1.586570	0.311495	0.781699
H207	H	1.661413	-0.550001	0.389412
H208	H	2.161413	-0.050001	0.889412
O209	O	1.747663	-0.694880	0.303470
O210	O	2.247663	-0.194880	0.803470
H211	H	1.700070	-0.670036	0.249250
H212	H	2.200070	-0.170036	0.749250
H213	H	1.661700	-0.953296	0.389495
H214	H	2.161700	-0.453296	0.889495
O215	O	1.747728	-0.808360	0.303486
O216	O	2.247728	-0.308360	0.803486
H217	H	1.795066	-0.780177	0.256192
H218	H	2.295066	-0.280177	0.756192
