data_functionalizedCrystal
_audit_creation_method	'MofGen! by Chris Wilmer'
_symmetry_space_group_name_H-M	'P1'
_symmetry_Int_Tables_number	1
_symmetry_cell_setting	triclinic
loop_
_symmetry_equiv_pos_as_xyz
  x,y,z
_cell_length_a	10.723024
_cell_length_b	15.944551
_cell_length_c	9.798715
_cell_angle_alpha	89.995900
_cell_angle_beta	89.996609
_cell_angle_gamma	83.983304
loop_
_atom_site_label
_atom_site_type_symbol
_atom_site_fract_x
_atom_site_fract_y
_atom_site_fract_z
O1	O	1.655699	0.117808	-0.113485
O2	O	2.155699	0.617808	0.386515
O3	O	1.292404	0.129085	-0.113490
O4	O	1.792404	0.629085	0.386510
O5	O	1.483972	0.001228	-0.113475
O6	O	1.983972	0.501228	0.386525
O7	O	1.464131	0.245664	-0.113500
O8	O	1.964131	0.745664	0.386500
O9	O	1.483958	0.001228	0.113507
O10	O	1.983958	0.501228	0.613507
O11	O	1.292390	0.129084	0.113492
O12	O	1.792390	0.629084	0.613492
O13	O	1.655685	0.117808	0.113497
O14	O	2.155685	0.617808	0.613497
Zn15	Zn	1.474035	0.123446	0.149533
Zn16	Zn	1.974035	0.623446	0.649533
Zn17	Zn	1.474054	0.123446	-0.149526
Zn18	Zn	1.974054	0.623446	0.350474
O19	O	1.464116	0.245664	0.113482
O20	O	1.964116	0.745664	0.613482
C21	C	1.245908	0.128264	0.000000
C22	C	1.745908	0.628264	0.500000
C23	C	1.107384	0.125809	-0.000001
C24	C	1.607384	0.625809	0.499999
C25	C	1.031498	0.197350	-0.000009
C26	C	1.531498	0.697350	0.499991
C27	C	0.888327	0.194814	-0.000011
C28	C	1.388327	0.694814	0.499989
C29	C	1.483141	-0.030070	0.000016
C30	C	1.983141	0.469930	0.500016
C31	C	1.480672	-0.123331	0.000017
C32	C	1.980672	0.376669	0.500017
C33	C	1.356026	-0.338901	-0.000004
C34	C	1.856026	0.161099	0.499996
C35	C	1.413901	-0.399587	0.111913
C36	C	1.913901	0.100413	0.611913
C37	C	1.476205	-0.294082	0.000006
C38	C	1.976205	0.205918	0.500006
C39	C	1.413943	-0.399570	-0.111874
C40	C	1.913943	0.100430	0.388126
C41	C	1.471880	-0.459020	-0.000010
C42	C	1.971880	0.040980	0.499990
C43	C	1.534112	-0.353540	0.112015
C44	C	2.034112	0.146460	0.612015
C45	C	1.534137	-0.353517	-0.111872
C46	C	2.034137	0.146483	0.388128
C47	C	1.592099	-0.414184	0.000072
C48	C	2.092099	0.085816	0.500072
C49	C	1.478692	-0.199066	0.000016
C50	C	1.978692	0.300934	0.500016
C51	C	1.469402	-0.554035	-0.000011
C52	C	1.969402	-0.054035	0.499989
C53	C	1.702181	0.118629	0.000003
C54	C	2.202181	0.618629	0.500003
C55	C	1.840704	0.121084	-0.000004
C56	C	2.340704	0.621084	0.499996
C57	C	1.464947	0.276963	-0.000012
C58	C	1.964947	0.776963	0.499988
C59	C	1.467417	0.370223	-0.000022
C60	C	1.967417	0.870223	0.499978
N61	N	1.474031	0.123445	0.353632
N62	N	1.974031	0.623445	0.853632
N63	N	1.474067	0.123441	-0.353626
N64	N	1.974067	0.623441	0.146374
C65	C	1.554469	0.069525	0.421415
C66	C	2.054469	0.569525	0.921415
C67	C	1.554489	0.069522	0.578578
C68	C	2.054489	0.569522	1.078578
H69	H	1.066360	0.062682	-0.000030
H70	H	1.566360	0.562682	0.499970
O71	O	1.645668	0.008375	0.344172
O72	O	2.145668	0.508375	0.844172
H73	H	1.704587	-0.031128	0.417732
H74	H	2.204587	0.468872	0.917732
O75	O	1.085832	0.280972	-0.000015
O76	O	1.585832	0.780972	0.499985
H77	H	1.053788	0.317200	0.092502
H78	H	1.553788	0.817200	0.592502
H79	H	1.623359	0.023362	0.636869
H80	H	2.123359	0.523362	1.136869
O81	O	0.927060	0.039948	0.000019
O82	O	1.427060	0.539948	0.500019
H83	H	0.987083	0.037392	-0.092486
H84	H	1.487083	0.537392	0.407514
O85	O	1.601493	-0.326493	-0.237176
O86	O	2.101493	0.173507	0.262824
H87	H	1.603531	-0.257045	-0.235507
H88	H	2.103531	0.242955	0.264493
O89	O	1.346592	-0.426570	-0.237193
O90	O	1.846592	0.073430	0.262807
H91	H	1.411614	-0.470212	-0.298711
H92	H	1.911614	0.029788	0.201289
H93	H	0.823120	0.256060	-0.000024
H94	H	1.323120	0.756060	0.499976
O95	O	1.601373	-0.326687	0.237493
O96	O	2.101373	0.173313	0.737493
H97	H	1.602628	-0.257170	0.236543
H98	H	2.102628	0.242830	0.736543
H99	H	1.691940	-0.446772	0.000137
H100	H	2.191940	0.053228	0.500137
O101	O	1.382825	0.184582	0.569171
O102	O	1.882825	0.684582	1.069171
H103	H	1.435576	0.225579	0.504039
H104	H	1.935576	0.725579	1.004039
O105	O	1.223901	-0.295525	0.000132
O106	O	1.723901	0.204475	0.500132
H107	H	1.174307	-0.313857	0.093177
H108	H	1.674307	0.186143	0.593177
O109	O	1.346579	-0.426610	0.237250
O110	O	1.846579	0.073390	0.737250
H111	H	1.248617	-0.396182	0.237024
H112	H	1.748617	0.103818	0.737024
O113	O	1.382832	0.184607	0.430855
O114	O	1.882832	0.684607	0.930855
H115	H	1.322081	0.148972	0.495985
H116	H	1.822081	0.648972	0.995985
