data_functionalizedCrystal
_audit_creation_method	'MofGen! by Chris Wilmer'
_symmetry_space_group_name_H-M	'P1'
_symmetry_Int_Tables_number	1
_symmetry_cell_setting	triclinic
loop_
_symmetry_equiv_pos_as_xyz
  x,y,z
_cell_length_a	16.625547
_cell_length_b	29.839131
_cell_length_c	16.625539
_cell_angle_alpha	89.960252
_cell_angle_beta	89.975178
_cell_angle_gamma	90.035164
loop_
_atom_site_label
_atom_site_type_symbol
_atom_site_fract_x
_atom_site_fract_y
_atom_site_fract_z
Zn1	Zn	1.232609	-0.178853	-0.455937
Zn2	Zn	1.482609	0.071147	-0.205937
Zn3	Zn	1.732609	0.321147	0.044063
Zn4	Zn	1.982609	0.571147	0.294063
Zn5	Zn	1.232482	-0.253984	-0.321077
Zn6	Zn	1.482482	-0.003984	-0.071077
Zn7	Zn	1.732482	0.246016	0.178923
Zn8	Zn	1.982482	0.496016	0.428923
Zn9	Zn	1.097771	-0.178869	-0.321107
Zn10	Zn	1.347771	0.071131	-0.071107
Zn11	Zn	1.597771	0.321131	0.178893
Zn12	Zn	1.847771	0.571131	0.428893
Zn13	Zn	1.097711	-0.253957	-0.455857
Zn14	Zn	1.347711	-0.003957	-0.205857
Zn15	Zn	1.597711	0.246043	0.044143
Zn16	Zn	1.847711	0.496043	0.294143
O17	O	1.165143	-0.216416	-0.388494
O18	O	1.415143	0.033584	-0.138494
O19	O	1.665143	0.283584	0.111506
O20	O	1.915143	0.533584	0.361506
O21	O	1.345425	-0.188824	-0.438068
O22	O	1.595425	0.061176	-0.188068
O23	O	1.845425	0.311176	0.061932
O24	O	2.095425	0.561176	0.311932
O25	O	1.214584	-0.244038	-0.208249
O26	O	1.464584	0.005962	0.041751
O27	O	1.714584	0.255962	0.291751
O28	O	1.964584	0.505962	0.541751
O29	O	1.115735	-0.116000	-0.339039
O30	O	1.365735	0.134000	-0.089039
O31	O	1.615735	0.384000	0.160961
O32	O	1.865735	0.634000	0.410961
O33	O	1.345331	-0.244023	-0.338987
O34	O	1.595331	0.005977	-0.088987
O35	O	1.845331	0.255977	0.161013
O36	O	2.095331	0.505977	0.411013
O37	O	1.214800	-0.115988	-0.438097
O38	O	1.464800	0.134012	-0.188097
O39	O	1.714800	0.384012	0.061903
O40	O	1.964800	0.634012	0.311903
O41	O	1.115612	-0.188851	-0.208271
O42	O	1.365612	0.061149	0.041729
O43	O	1.615612	0.311149	0.291729
O44	O	1.865612	0.561149	0.541729
O45	O	0.984931	-0.188825	-0.338961
O46	O	1.234931	0.061175	-0.088961
O47	O	1.484931	0.311175	0.161039
O48	O	1.734931	0.561175	0.411039
O49	O	1.115634	-0.243976	-0.568700
O50	O	1.365634	0.006024	-0.318700
O51	O	1.615634	0.256024	-0.068700
O52	O	1.865634	0.506024	0.181300
O53	O	0.984887	-0.243991	-0.437961
O54	O	1.234887	0.006009	-0.187961
O55	O	1.484887	0.256009	0.062039
O56	O	1.734887	0.506009	0.312039
O57	O	1.214743	-0.188798	-0.568759
O58	O	1.464743	0.061202	-0.318759
O59	O	1.714743	0.311202	-0.068759
O60	O	1.964743	0.561202	0.181241
O61	O	1.214526	-0.316848	-0.338910
O62	O	1.464526	-0.066848	-0.088910
O63	O	1.714526	0.183152	0.161090
O64	O	1.964526	0.433152	0.411090
O65	O	1.115511	-0.316828	-0.437932
O66	O	1.365511	-0.066828	-0.187932
O67	O	1.615511	0.183172	0.062068
O68	O	1.865511	0.433172	0.312068
C69	C	0.955652	-0.216407	-0.388456
C70	C	1.205652	0.033593	-0.138456
C71	C	1.455652	0.283593	0.111544
C72	C	1.705652	0.533593	0.361544
C73	C	0.866031	-0.216414	-0.388459
C74	C	1.116031	0.033586	-0.138459
C75	C	1.366031	0.283586	0.111541
C76	C	1.616031	0.533586	0.361541
C77	C	0.793249	-0.216415	-0.388469
C78	C	1.043249	0.033585	-0.138469
C79	C	1.293249	0.283585	0.111531
C80	C	1.543249	0.533585	0.361531
C81	C	0.701940	-0.216417	-0.388489
C82	C	0.951940	0.033583	-0.138489
C83	C	1.201940	0.283583	0.111511
C84	C	1.451940	0.533583	0.361511
C85	C	0.629164	-0.216422	-0.388510
C86	C	0.879164	0.033578	-0.138510
C87	C	1.129164	0.283578	0.111490
C88	C	1.379164	0.533578	0.361490
C89	C	0.537850	-0.216425	-0.388529
C90	C	0.787850	0.033575	-0.138529
C91	C	1.037850	0.283575	0.111471
C92	C	1.287850	0.533575	0.361471
C93	C	1.165020	-0.333138	-0.388426
C94	C	1.415020	-0.083138	-0.138426
C95	C	1.665020	0.166862	0.111574
C96	C	1.915020	0.416862	0.361574
C97	C	1.165041	-0.383073	-0.388424
C98	C	1.415041	-0.133073	-0.138424
C99	C	1.665041	0.116927	0.111576
C100	C	1.915041	0.366927	0.361576
C101	C	1.216715	-0.692675	-0.440148
C102	C	1.466715	-0.442675	-0.190148
C103	C	1.716715	-0.192675	0.059852
C104	C	1.966715	0.057325	0.309852
C105	C	1.216803	-0.880348	-0.440196
C106	C	1.466803	-0.630348	-0.190196
C107	C	1.716803	-0.380348	0.059804
C108	C	1.966803	-0.130348	0.309804
O109	O	1.260617	-0.904578	-0.484123
O110	O	1.510617	-0.654578	-0.234123
O111	O	1.760617	-0.404578	0.015877
O112	O	2.010617	-0.154578	0.265877
N113	N	1.165280	-0.903858	-0.388584
N114	N	1.415280	-0.653858	-0.138584
N115	N	1.665280	-0.403858	0.111416
N116	N	1.915280	-0.153858	0.361416
C117	C	1.113728	-0.880446	-0.336960
C118	C	1.363728	-0.630446	-0.086960
C119	C	1.613728	-0.380446	0.163040
C120	C	1.863728	-0.130446	0.413040
O121	O	1.069902	-0.904749	-0.293067
O122	O	1.319902	-0.654749	-0.043067
O123	O	1.569902	-0.404749	0.206933
O124	O	1.819902	-0.154749	0.456933
C125	C	1.113637	-0.692774	-0.336916
C126	C	1.363637	-0.442774	-0.086916
C127	C	1.613637	-0.192774	0.163084
C128	C	1.863637	0.057226	0.413084
C129	C	1.165169	-0.669267	-0.388526
C130	C	1.415169	-0.419267	-0.138526
C131	C	1.665169	-0.169267	0.111474
C132	C	1.915169	0.080733	0.361474
C133	C	1.268242	-0.669168	-0.491754
C134	C	1.518242	-0.419168	-0.241754
C135	C	1.768242	-0.169168	0.008246
C136	C	2.018242	0.080832	0.258246
C137	C	1.268223	-0.622253	-0.491738
C138	C	1.518223	-0.372253	-0.241738
C139	C	1.768223	-0.122253	0.008262
C140	C	2.018223	0.127747	0.258262
C141	C	1.216677	-0.598844	-0.440116
C142	C	1.466677	-0.348844	-0.190116
C143	C	1.716677	-0.098844	0.059884
C144	C	1.966677	0.151156	0.309884
C145	C	1.165150	-0.622352	-0.388510
C146	C	1.415150	-0.372352	-0.138510
C147	C	1.665150	-0.122352	0.111490
C148	C	1.915150	0.127648	0.361490
C149	C	1.062082	-0.669363	-0.285296
C150	C	1.312082	-0.419363	-0.035296
C151	C	1.562082	-0.169363	0.214704
C152	C	1.812082	0.080637	0.464704
C153	C	1.062063	-0.622442	-0.285291
C154	C	1.312063	-0.372442	-0.035291
C155	C	1.562063	-0.122442	0.214709
C156	C	1.812063	0.127558	0.464709
C157	C	1.113594	-0.598935	-0.336901
C158	C	1.363594	-0.348935	-0.086901
C159	C	1.613594	-0.098935	0.163099
C160	C	1.863594	0.151065	0.413099
C161	C	1.113584	-0.552028	-0.336872
C162	C	1.363584	-0.302028	-0.086872
C163	C	1.613584	-0.052028	0.163128
C164	C	1.863584	0.197972	0.413128
N165	N	1.165107	-0.528518	-0.388484
N166	N	1.415107	-0.278518	-0.138484
N167	N	1.665107	-0.028518	0.111516
N168	N	1.915107	0.221482	0.361516
C169	C	1.216653	-0.551927	-0.440107
C170	C	1.466653	-0.301927	-0.190107
C171	C	1.716653	-0.051927	0.059893
C172	C	1.966653	0.198073	0.309893
C173	C	1.113781	-0.978977	-0.336985
C174	C	1.363781	-0.728977	-0.086985
C175	C	1.613781	-0.478977	0.163015
C176	C	1.863781	-0.228977	0.413015
C177	C	1.113805	-1.025895	-0.336995
C178	C	1.363805	-0.775895	-0.086995
C179	C	1.613805	-0.525895	0.163005
C180	C	1.863805	-0.275895	0.413005
C181	C	1.216878	-1.025794	-0.440233
C182	C	1.466878	-0.775794	-0.190233
C183	C	1.716878	-0.525794	0.059767
C184	C	1.966878	-0.275794	0.309767
C185	C	1.216858	-0.978875	-0.440218
C186	C	1.466858	-0.728875	-0.190218
C187	C	1.716858	-0.478875	0.059782
C188	C	1.966858	-0.228875	0.309782
C189	C	1.165303	-0.955467	-0.388597
C190	C	1.415303	-0.705467	-0.138597
C191	C	1.665303	-0.455467	0.111403
C192	C	1.915303	-0.205467	0.361403
C193	C	1.216609	-0.453401	-0.440069
C194	C	1.466609	-0.203401	-0.190069
C195	C	1.716609	0.046599	0.059931
C196	C	1.966609	0.296599	0.309931
C197	C	1.216588	-0.406481	-0.440046
C198	C	1.466588	-0.156481	-0.190046
C199	C	1.716588	0.093519	0.059954
C200	C	1.966588	0.343519	0.309954
C201	C	1.113512	-0.406586	-0.336812
C202	C	1.363512	-0.156586	-0.086812
C203	C	1.613512	0.093414	0.163188
C204	C	1.863512	0.343414	0.413188
C205	C	1.113536	-0.453502	-0.336831
C206	C	1.363536	-0.203502	-0.086831
C207	C	1.613536	0.046498	0.163169
C208	C	1.863536	0.296498	0.413169
C209	C	1.165087	-0.476908	-0.388466
C210	C	1.415087	-0.226908	-0.138466
C211	C	1.665087	0.023092	0.111534
C212	C	1.915087	0.273092	0.361534
O213	O	1.069787	-0.527769	-0.292975
O214	O	1.319787	-0.277769	-0.042975
O215	O	1.569787	-0.027769	0.207025
O216	O	1.819787	0.222231	0.457025
O217	O	1.260461	-0.527616	-0.484005
O218	O	1.510461	-0.277616	-0.234005
O219	O	1.760461	-0.027616	0.015995
O220	O	2.010461	0.222384	0.265995
C221	C	1.216735	-0.739591	-0.440164
C222	C	1.466735	-0.489591	-0.190164
C223	C	1.716735	-0.239591	0.059836
C224	C	1.966735	0.010409	0.309836
C225	C	1.165208	-0.763098	-0.388557
C226	C	1.415208	-0.513098	-0.138557
C227	C	1.665208	-0.263098	0.111443
C228	C	1.915208	-0.013098	0.361443
C229	C	1.113662	-0.739690	-0.336935
C230	C	1.363662	-0.489690	-0.086935
C231	C	1.613662	-0.239690	0.163065
C232	C	1.863662	0.010310	0.413065
C233	C	1.165231	-0.810016	-0.388567
C234	C	1.415231	-0.560016	-0.138567
C235	C	1.665231	-0.310016	0.111433
C236	C	1.915231	-0.060016	0.361433
C237	C	1.216777	-0.833424	-0.440189
C238	C	1.466777	-0.583424	-0.190189
C239	C	1.716777	-0.333424	0.059811
C240	C	1.966777	-0.083424	0.309811
C241	C	1.268300	-0.809915	-0.491801
C242	C	1.518300	-0.559915	-0.241801
C243	C	1.768300	-0.309915	0.008199
C244	C	2.018300	-0.059915	0.258199
C245	C	1.268281	-0.762999	-0.491786
C246	C	1.518281	-0.512999	-0.241786
C247	C	1.768281	-0.262999	0.008214
C248	C	2.018281	-0.012999	0.258214
C249	C	1.062139	-0.763199	-0.285323
C250	C	1.312139	-0.513199	-0.035323
C251	C	1.562139	-0.263199	0.214677
C252	C	1.812139	-0.013199	0.464677
C253	C	1.062163	-0.810115	-0.285342
C254	C	1.312163	-0.560115	-0.035342
C255	C	1.562163	-0.310115	0.214658
C256	C	1.812163	-0.060115	0.464658
C257	C	1.113709	-0.833523	-0.336964
C258	C	1.363709	-0.583523	-0.086964
C259	C	1.613709	-0.333523	0.163036
C260	C	1.863709	-0.083523	0.413036
C261	C	1.375452	-0.216425	-0.388533
C262	C	1.625452	0.033575	-0.138533
C263	C	1.875452	0.283575	0.111467
C264	C	2.125452	0.533575	0.361467
C265	C	1.465073	-0.216429	-0.388550
C266	C	1.715073	0.033571	-0.138550
C267	C	1.965073	0.283571	0.111450
C268	C	2.215073	0.533571	0.361450
C269	C	1.165196	-0.216382	-0.598803
C270	C	1.415196	0.033618	-0.348803
C271	C	1.665196	0.283618	-0.098803
C272	C	1.915196	0.533618	0.151197
C273	C	1.165218	-0.216368	-0.688425
C274	C	1.415218	0.033632	-0.438425
C275	C	1.665218	0.283632	-0.188425
C276	C	1.915218	0.533632	0.061575
C277	C	1.165289	-0.099237	-0.388580
C278	C	1.415289	0.150763	-0.138580
C279	C	1.665289	0.400763	0.111420
C280	C	1.915289	0.650763	0.361420
C281	C	1.165351	-0.049303	-0.388617
C282	C	1.415351	0.200697	-0.138617
C283	C	1.665351	0.450697	0.111383
C284	C	1.915351	0.700697	0.361383
C285	C	1.165255	-0.216318	-1.016601
C286	C	1.415255	0.033682	-0.766601
C287	C	1.665255	0.283682	-0.516601
C288	C	1.915255	0.533682	-0.266601
C289	C	1.165243	-0.216333	-0.925292
C290	C	1.415243	0.033667	-0.675292
C291	C	1.665243	0.283667	-0.425292
C292	C	1.915243	0.533667	-0.175292
C293	C	1.165237	-0.216343	-0.852515
C294	C	1.415237	0.033657	-0.602515
C295	C	1.665237	0.283657	-0.352515
C296	C	1.915237	0.533657	-0.102515
C297	C	1.165224	-0.216358	-0.761201
C298	C	1.415224	0.033642	-0.511201
C299	C	1.665224	0.283642	-0.261201
C300	C	1.915224	0.533642	-0.011201
C301	C	1.165137	-0.216417	-0.179004
C302	C	1.415137	0.033583	0.070996
C303	C	1.665137	0.283583	0.320996
C304	C	1.915137	0.533583	0.570996
C305	C	1.165271	-0.216304	-0.089383
C306	C	1.415271	0.033696	0.160617
C307	C	1.665271	0.283696	0.410617
C308	C	1.915271	0.533696	0.660617
H309	H	1.258582	-0.472452	-0.482121
H310	H	1.508582	-0.222452	-0.232121
H311	H	1.758582	0.027548	0.017879
H312	H	2.008582	0.277548	0.267879
O313	O	1.323815	-0.596901	-0.547391
O314	O	1.573815	-0.346901	-0.297391
O315	O	1.823815	-0.096901	-0.047391
O316	O	2.073815	0.153099	0.202609
H317	H	1.359658	-0.621067	-0.583284
H318	H	1.609658	-0.371067	-0.333284
H319	H	1.859658	-0.121067	-0.083284
H320	H	2.109658	0.128933	0.166716
O321	O	1.272443	-0.953523	-0.495880
O322	O	1.522443	-0.703523	-0.245880
O323	O	1.772443	-0.453523	0.004120
O324	O	2.022443	-0.203523	0.254120
H325	H	1.258585	-0.962506	-0.559151
H326	H	1.508585	-0.712506	-0.309151
H327	H	1.758585	-0.462506	-0.059151
H328	H	2.008585	-0.212506	0.190849
O329	O	1.272468	-1.051044	-0.495922
O330	O	1.522468	-0.801044	-0.245922
O331	O	1.772468	-0.551044	0.004078
O332	O	2.022468	-0.301044	0.254078
H333	H	1.263815	-1.087618	-0.487260
H334	H	1.513815	-0.837618	-0.237260
H335	H	1.763815	-0.587618	0.012740
H336	H	2.013815	-0.337618	0.262740
O337	O	1.058235	-1.051249	-0.281322
O338	O	1.308235	-0.801249	-0.031322
O339	O	1.558235	-0.551249	0.218678
O340	O	1.808235	-0.301249	0.468678
H341	H	0.994941	-1.042271	-0.295091
H342	H	1.244941	-0.792271	-0.045091
H343	H	1.494941	-0.542271	0.204909
H344	H	1.744941	-0.292271	0.454909
H345	H	1.071798	-0.959922	-0.294947
H346	H	1.321798	-0.709922	-0.044947
H347	H	1.571798	-0.459922	0.205053
H348	H	1.821798	-0.209922	0.455053
O349	O	1.272171	-0.381126	-0.495713
O350	O	1.522171	-0.131126	-0.245713
O351	O	1.772171	0.118874	0.004287
O352	O	2.022171	0.368874	0.254287
H353	H	1.313208	-0.359753	-0.459653
H354	H	1.563208	-0.109753	-0.209653
H355	H	1.813208	0.140247	0.040347
H356	H	2.063208	0.390247	0.290347
H357	H	1.020163	-0.744144	-0.243287
H358	H	1.270163	-0.494144	0.006713
H359	H	1.520163	-0.244144	0.256713
H360	H	1.770163	0.005856	0.506713
O361	O	1.323846	-0.694413	-0.547433
O362	O	1.573846	-0.444413	-0.297433
O363	O	1.823846	-0.194413	-0.047433
O364	O	2.073846	0.055587	0.202567
H365	H	1.359669	-0.670177	-0.583307
H366	H	1.609669	-0.420177	-0.333307
H367	H	1.859669	-0.170177	-0.083307
H368	H	2.109669	0.079823	0.166693
H369	H	1.020120	-0.688495	-0.243269
H370	H	1.270120	-0.438495	0.006731
H371	H	1.520120	-0.188495	0.256731
H372	H	1.770120	0.061505	0.506731
O373	O	1.006464	-0.597194	-0.229606
O374	O	1.256464	-0.347194	0.020394
O375	O	1.506464	-0.097194	0.270394
O376	O	1.756464	0.152806	0.520394
H377	H	0.970645	-0.621426	-0.193719
H378	H	1.220645	-0.371426	0.056281
H379	H	1.470645	-0.121426	0.306281
H380	H	1.720645	0.128574	0.556281
O381	O	1.057959	-0.478861	-0.281167
O382	O	1.307959	-0.228861	-0.031167
O383	O	1.557959	0.021139	0.218833
O384	O	1.807959	0.271139	0.468833
H385	H	1.022111	-0.454699	-0.245271
H386	H	1.272111	-0.204699	0.004729
H387	H	1.522111	0.045301	0.254729
H388	H	1.772111	0.295301	0.504729
O389	O	1.057914	-0.381335	-0.281136
O390	O	1.307914	-0.131335	-0.031136
O391	O	1.557914	0.118665	0.218864
O392	O	1.807914	0.368665	0.468864
H393	H	1.066556	-0.344762	-0.289808
H394	H	1.316556	-0.094762	-0.039808
H395	H	1.566556	0.155238	0.210192
H396	H	1.816556	0.405238	0.460192
O397	O	1.323872	-0.737651	-0.547445
O398	O	1.573872	-0.487651	-0.297445
O399	O	1.823872	-0.237651	-0.047445
O400	O	2.073872	0.012349	0.202555
H401	H	1.310014	-0.746632	-0.610717
H402	H	1.560014	-0.496632	-0.360717
H403	H	1.810014	-0.246632	-0.110717
H404	H	2.060014	0.003368	0.139283
O405	O	1.323891	-0.835166	-0.547489
O406	O	1.573891	-0.585166	-0.297489
O407	O	1.823891	-0.335166	-0.047489
O408	O	2.073891	-0.085166	0.202511
H409	H	1.315235	-0.871739	-0.538829
H410	H	1.565235	-0.621739	-0.288829
H411	H	1.815235	-0.371739	-0.038829
H412	H	2.065235	-0.121739	0.211171
H413	H	1.020201	-0.829250	-0.243308
H414	H	1.270201	-0.579250	0.006692
H415	H	1.520201	-0.329250	0.256692
H416	H	1.770201	-0.079250	0.506692
