data_functionalizedCrystal
_audit_creation_method	'MofGen! by Chris Wilmer'
_symmetry_space_group_name_H-M	'P1'
_symmetry_Int_Tables_number	1
_symmetry_cell_setting	triclinic
loop_
_symmetry_equiv_pos_as_xyz
  x,y,z
_cell_length_a	16.992694
_cell_length_b	16.992695
_cell_length_c	16.053802
_cell_angle_alpha	92.741074
_cell_angle_beta	87.249047
_cell_angle_gamma	90.668223
loop_
_atom_site_label
_atom_site_type_symbol
_atom_site_fract_x
_atom_site_fract_y
_atom_site_fract_z
O1	O	1.053959	0.163815	-0.069325
O2	O	0.825560	0.161983	-0.069350
O3	O	0.938844	0.048699	-0.069331
O4	O	0.940676	0.277099	-0.069344
O5	O	0.932607	0.054907	0.069527
O6	O	0.819323	0.168191	0.069508
O7	O	1.047722	0.170023	0.069533
Zn8	Zn	0.932532	0.170093	0.091567
Zn9	Zn	0.940750	0.161913	-0.091384
O10	O	0.934438	0.283307	0.069514
C11	C	0.793082	0.162731	0.000076
C12	C	0.705597	0.155702	0.000067
C13	C	0.659607	0.223520	0.000064
C14	C	0.577405	0.216911	0.000076
C15	C	0.541197	0.142484	0.000085
C16	C	0.587193	0.074661	0.000091
C17	C	0.669393	0.081270	0.000085
C18	C	0.295881	0.115090	0.000109
C19	C	0.213676	0.108486	0.000112
C20	C	0.203893	0.250737	0.000099
C21	C	0.286095	0.257339	0.000088
C22	C	0.332084	0.189517	0.000098
N23	N	0.457174	0.135727	0.000094
N24	N	0.416105	0.196275	0.000094
C25	C	0.933370	0.022443	0.000098
C26	C	0.926341	-0.065042	0.000097
C27	C	0.994158	-0.111032	0.000105
C28	C	0.987550	-0.193233	0.000096
C29	C	0.913123	-0.229442	0.000086
C30	C	0.845300	-0.183446	0.000075
C31	C	0.851910	-0.101246	0.000078
C32	C	0.885729	-0.474757	0.000071
C33	C	0.879124	-0.556962	0.000071
C34	C	1.021375	-0.566745	0.000091
C35	C	1.027978	-0.484543	0.000099
C36	C	0.960155	-0.438554	0.000083
N37	N	0.906366	-0.313465	0.000079
N38	N	0.966913	-0.354533	0.000084
C39	C	1.080201	0.169275	0.000105
C40	C	1.167685	0.176304	0.000109
C41	C	0.939913	0.309563	0.000084
C42	C	0.946942	0.397047	0.000079
N43	N	0.926930	0.175675	0.216427
N44	N	0.946358	0.156325	-0.216243
C45	C	0.975152	0.127492	0.260129
C46	C	0.971241	0.131404	0.347535
C47	C	0.919110	0.183504	0.391237
C48	C	0.870883	0.231689	0.347529
C49	C	0.874791	0.227772	0.260125
C50	C	0.902039	0.200593	0.652644
C51	C	0.898136	0.204508	0.740055
C52	C	0.998493	0.104222	0.740054
C53	C	1.002400	0.100313	0.652648
C54	C	0.954169	0.148494	0.608948
N55	N	0.915113	0.187507	0.480580
N56	N	0.958163	0.144487	0.519606
H57	H	0.333316	0.059864	0.000118
C58	C	1.059738	0.042998	0.604581
H59	H	1.087893	0.014856	0.643128
H60	H	1.095803	0.071858	0.570473
H61	H	1.030886	0.006908	0.570497
C62	C	0.821750	0.280773	0.212049
H63	H	0.831537	0.270974	0.153735
H64	H	0.832945	0.334494	0.226360
H65	H	0.768035	0.269537	0.226383
H66	H	0.184198	0.047875	0.000119
C67	C	0.763432	-0.223273	0.000065
H68	H	0.769207	-0.278815	0.000074
H69	H	0.737464	-0.209955	-0.048359
H70	H	0.733120	-0.205627	0.048492
C71	C	0.699429	0.305390	0.000053
H72	H	0.660262	0.344833	0.000061
H73	H	0.733460	0.308762	-0.048372
H74	H	0.729123	0.313090	0.048480
C75	C	0.547366	-0.007207	0.000099
H76	H	0.491824	-0.001432	0.000093
H77	H	0.560679	-0.033184	0.048522
H78	H	0.565018	-0.037510	-0.048330
C79	C	0.840746	0.261776	0.788126
H80	H	0.812564	0.289893	0.749582
H81	H	0.869550	0.297880	0.822235
H82	H	0.804698	0.232866	0.822211
H83	H	1.010506	0.092170	0.383116
H84	H	0.539963	0.272136	0.000072
H85	H	0.796685	-0.063801	0.000071
C86	C	0.719983	0.006671	0.000080
H87	H	0.686648	-0.038603	0.000077
H88	H	0.750087	0.008455	0.048499
H89	H	0.754418	0.004130	-0.048353
C90	C	1.051536	0.051218	0.788122
H91	H	1.083144	0.019631	0.749576
H92	H	1.019641	0.018187	0.822228
H93	H	1.084558	0.083137	0.822209
C94	C	0.848994	0.253598	0.604584
H95	H	0.817397	0.285193	0.643133
H96	H	0.815975	0.221684	0.570497
H97	H	0.880892	0.286633	0.570479
H98	H	1.054765	-0.081557	0.000119
H99	H	1.017605	0.085070	0.224552
H100	H	0.828433	0.274107	0.383117
H101	H	1.042774	-0.230676	0.000105
H102	H	0.315571	0.317945	0.000071
C103	C	1.109845	-0.444715	0.000116
H104	H	1.104068	-0.389173	0.000127
H105	H	1.140169	-0.462354	-0.048300
H106	H	1.135801	-0.458038	0.048552
C107	C	0.153304	0.325335	0.000098
H108	H	0.099162	0.310743	0.000111
H109	H	0.166931	0.353479	-0.048325
H110	H	0.162599	0.357802	0.048527
C111	C	1.095975	-0.617330	0.000099
H112	H	1.141246	-0.583992	0.000110
H113	H	1.098529	-0.651761	-0.048325
H114	H	1.094180	-0.647437	0.048527
H115	H	0.818513	-0.586440	0.000076
H116	H	0.830503	-0.437322	0.000059
