data_functionalizedCrystal
_audit_creation_method	'MofGen! by Chris Wilmer'
_symmetry_space_group_name_H-M	'P1'
_symmetry_Int_Tables_number	1
_symmetry_cell_setting	triclinic
loop_
_symmetry_equiv_pos_as_xyz
  x,y,z
_cell_length_a	14.519709
_cell_length_b	12.837943
_cell_length_c	11.295483
_cell_angle_alpha	94.538773
_cell_angle_beta	94.101713
_cell_angle_gamma	90.745458
loop_
_atom_site_label
_atom_site_type_symbol
_atom_site_fract_x
_atom_site_fract_y
_atom_site_fract_z
O1	O	0.234188	-1.382869	-0.099009
O2	O	0.222343	-1.081042	-0.099016
O3	O	0.094719	-1.239958	-0.099002
O4	O	0.361812	-1.223954	-0.099023
O5	O	0.105910	-1.226000	0.099048
O6	O	0.233533	-1.067084	0.099034
O7	O	0.245379	-1.368911	0.099040
Cu8	Cu	0.240478	-1.216723	0.117121
Cu9	Cu	0.227244	-1.233230	-0.117096
O10	O	0.373002	-1.209996	0.099026
C11	C	0.065890	-1.232233	0.000023
C12	C	-0.036684	-1.229997	0.000024
C13	C	0.223937	-1.035435	0.000008
C14	C	0.212002	-0.920336	0.000006
C15	C	0.243785	-1.414518	0.000014
C16	C	0.255719	-1.529618	0.000008
C17	C	-0.412293	-1.221771	-0.000007
C18	C	-0.307787	-1.224055	0.000002
C19	C	-0.224492	-1.225884	0.000010
C20	C	-0.119979	-1.228169	0.000016
C21	C	0.401831	-1.217721	-0.000001
C22	C	0.504405	-1.219957	-0.000010
N23	N	0.249786	-1.205121	0.281856
C24	C	0.355473	-0.679643	0.000011
C25	C	0.344264	-0.571497	0.000010
C26	C	0.178377	-0.595894	0.000011
C27	C	0.189586	-0.704041	0.000012
C28	C	0.278137	-0.745911	0.000011
C29	C	0.289344	-0.854060	0.000003
C30	C	0.123458	-0.878455	0.000013
C31	C	0.112249	-0.770308	0.000011
N32	N	0.217929	-1.244841	-0.281831
C33	C	0.150873	-1.328362	0.531156
C34	C	0.157915	-1.319601	0.655819
C35	C	0.270905	-1.178834	0.655847
C36	C	0.263863	-1.187595	0.531184
C37	C	0.203847	-1.262362	0.468843
C38	C	0.196811	-1.271127	0.344178
C39	C	0.309795	-1.130356	0.344208
C40	C	0.316837	-1.121596	0.468871
H41	H	0.361447	-0.888149	0.000004
H42	H	0.319762	-1.117954	0.706621
H43	H	0.427575	-0.713735	0.000008
H44	H	0.365699	-1.060719	0.519643
H45	H	0.106288	-0.561777	0.000111
H46	H	0.407240	-0.517545	0.000014
H47	H	0.040154	-0.736201	0.000026
H48	H	0.352933	-1.076618	0.293458
O49	O	0.048428	-0.942973	0.000061
C50	C	0.077303	-1.047409	0.000022
H51	H	0.152231	-1.049058	0.037524
H52	H	0.031834	-1.092255	0.057512
H53	H	0.071194	-1.085364	-0.094996
O54	O	0.138362	-1.343642	0.283697
C55	C	0.047304	-1.324457	0.314230
H56	H	0.041484	-1.239033	0.348501
H57	H	-0.002590	-1.342061	0.232272
H58	H	0.029385	-1.376763	0.386606
H59	H	0.114777	-1.373343	0.706551
O60	O	0.092506	-1.401016	0.470776
C61	C	0.047281	-1.457416	0.552509
H62	H	0.047498	-1.408665	0.641385
H63	H	-0.027017	-1.475634	0.516488
H64	H	0.084789	-1.533553	0.565747
