data_functionalizedCrystal
_audit_creation_method	'MofGen! by Chris Wilmer'
_symmetry_space_group_name_H-M	'P1'
_symmetry_Int_Tables_number	1
_symmetry_cell_setting	triclinic
loop_
_symmetry_equiv_pos_as_xyz
  x,y,z
_cell_length_a	25.639242
_cell_length_b	25.639240
_cell_length_c	25.639233
_cell_angle_alpha	89.974071
_cell_angle_beta	89.985652
_cell_angle_gamma	90.025061
loop_
_atom_site_label
_atom_site_type_symbol
_atom_site_fract_x
_atom_site_fract_y
_atom_site_fract_z
Zn1	Zn	0.799247	-0.208322	-0.295607
Zn2	Zn	1.299247	0.291678	0.204393
Zn3	Zn	0.799179	-0.295741	-0.208160
Zn4	Zn	1.299179	0.204259	0.291840
Zn5	Zn	0.711823	-0.208309	-0.208183
Zn6	Zn	1.211823	0.291691	0.291817
Zn7	Zn	0.711777	-0.295716	-0.295562
Zn8	Zn	1.211777	0.204284	0.204438
O9	O	0.755506	-0.252022	-0.251878
O10	O	1.255506	0.247978	0.248122
O11	O	0.872403	-0.219933	-0.284016
O12	O	1.372403	0.280067	0.215984
O13	O	0.787582	-0.284148	-0.134998
O14	O	1.287582	0.215852	0.365002
O15	O	0.723467	-0.135146	-0.219808
O16	O	1.223467	0.364854	0.280192
O17	O	0.872353	-0.284160	-0.219770
O18	O	1.372353	0.215840	0.280230
O19	O	0.787697	-0.135155	-0.284038
O20	O	1.287697	0.364845	0.215962
O21	O	0.723402	-0.219912	-0.135015
O22	O	1.223402	0.280088	0.364985
O23	O	0.638652	-0.219889	-0.219765
O24	O	1.138652	0.280111	0.280235
O25	O	0.723389	-0.284118	-0.368733
O26	O	1.223389	0.215882	0.131267
O27	O	0.638618	-0.284106	-0.283962
O28	O	1.138618	0.215894	0.216038
O29	O	0.787653	-0.219910	-0.368766
O30	O	1.287653	0.280090	0.131234
O31	O	0.787538	-0.368903	-0.219726
O32	O	1.287538	0.131097	0.280274
O33	O	0.723324	-0.368885	-0.283940
O34	O	1.223324	0.131115	0.216060
C35	C	0.619664	-0.251994	-0.251861
C36	C	1.119664	0.248006	0.248139
C37	C	0.561550	-0.251994	-0.251866
C38	C	1.061550	0.248006	0.248134
C39	C	0.755432	-0.387865	-0.251837
C40	C	1.255432	0.112135	0.248163
C41	C	0.755449	-0.445979	-0.251837
C42	C	1.255449	0.054021	0.248163
C43	C	0.310390	-0.218639	-0.285392
C44	C	0.810390	0.281361	0.214608
C45	C	0.364994	-0.218634	-0.285389
C46	C	0.864994	0.281366	0.214611
O47	O	0.393260	-0.190251	-0.313891
O48	O	0.893260	0.309749	0.186109
N49	N	0.392276	-0.252016	-0.251884
N50	N	0.892276	0.247984	0.248116
C51	C	0.364950	-0.285409	-0.218383
C52	C	0.864950	0.214591	0.281617
O53	O	0.393169	-0.313803	-0.189885
O54	O	0.893169	0.186197	0.310115
C55	C	0.310347	-0.285417	-0.218389
C56	C	0.810347	0.214583	0.281611
C57	C	0.283068	-0.252028	-0.251893
C58	C	0.783068	0.247972	0.248107
C59	C	0.283112	-0.185254	-0.318894
C60	C	0.783112	0.314746	0.181106
C61	C	0.228511	-0.185258	-0.318896
C62	C	0.728511	0.314742	0.181104
C63	C	0.201189	-0.218648	-0.285397
C64	C	0.701189	0.281352	0.214603
C65	C	0.228468	-0.252033	-0.251895
C66	C	0.728468	0.247967	0.248105
C67	C	0.283022	-0.318812	-0.184892
C68	C	0.783022	0.181188	0.315108
C69	C	0.228415	-0.318817	-0.184901
C70	C	0.728415	0.181183	0.315099
C71	C	0.201136	-0.285429	-0.218405
C72	C	0.701136	0.214571	0.281595
C73	C	0.146545	-0.285427	-0.218398
C74	C	0.646545	0.214573	0.281602
N75	N	0.119264	-0.252045	-0.251904
N76	N	0.619264	0.247955	0.248096
C77	C	0.146586	-0.218655	-0.285403
C78	C	0.646586	0.281345	0.214597
C79	C	0.479621	-0.285392	-0.218374
C80	C	0.979621	0.214608	0.281626
C81	C	0.534223	-0.285382	-0.218365
C82	C	1.034223	0.214618	0.281635
C83	C	0.534264	-0.218607	-0.285372
C84	C	1.034264	0.281393	0.214628
C85	C	0.479660	-0.218614	-0.285378
C86	C	0.979660	0.281386	0.214622
C87	C	0.452339	-0.252010	-0.251879
C88	C	0.952339	0.247990	0.248121
C89	C	0.031921	-0.218667	-0.285404
C90	C	0.531921	0.281333	0.214596
C91	C	-0.022685	-0.218673	-0.285402
C92	C	0.477315	0.281327	0.214598
C93	C	-0.022721	-0.285450	-0.218397
C94	C	0.477279	0.214550	0.281603
C95	C	0.031880	-0.285442	-0.218398
C96	C	0.531880	0.214558	0.281602
C97	C	0.059199	-0.252049	-0.251905
C98	C	0.559199	0.247951	0.248095
O99	O	0.118245	-0.313797	-0.189913
O100	O	0.618245	0.186203	0.310087
O101	O	0.118360	-0.190271	-0.313902
O102	O	0.618360	0.309729	0.186098
C103	C	0.788967	-0.806308	-0.285383
C104	C	1.288967	-0.306308	0.214617
C105	C	0.788983	-0.860912	-0.285394
C106	C	1.288983	-0.360912	0.214606
O107	O	0.817394	-0.889120	-0.313874
O108	O	1.317394	-0.389120	0.186126
N109	N	0.755579	-0.888261	-0.251929
N110	N	1.255579	-0.388261	0.248071
C111	C	0.722154	-0.861003	-0.218455
C112	C	1.222154	-0.361003	0.281545
O113	O	0.693742	-0.889279	-0.189991
O114	O	1.193742	-0.389279	0.310009
C115	C	0.722136	-0.806399	-0.218447
C116	C	1.222136	-0.306399	0.281553
C117	C	0.755546	-0.779053	-0.251911
C118	C	1.255546	-0.279053	0.248089
C119	C	0.822374	-0.778962	-0.318844
C120	C	1.322374	-0.278962	0.181156
C121	C	0.822359	-0.724361	-0.318833
C122	C	1.322359	-0.224361	0.181167
C123	C	0.788938	-0.697107	-0.285360
C124	C	1.288938	-0.197107	0.214640
C125	C	0.755531	-0.724453	-0.251899
C126	C	1.255531	-0.224453	0.248101
C127	C	0.688708	-0.779142	-0.184976
C128	C	1.188708	-0.279142	0.315024
C129	C	0.688693	-0.724535	-0.184972
C130	C	1.188693	-0.224535	0.315028
C131	C	0.722103	-0.697189	-0.218435
C132	C	1.222103	-0.197189	0.281565
C133	C	0.722094	-0.642598	-0.218415
C134	C	1.222094	-0.142598	0.281585
N135	N	0.755498	-0.615249	-0.251880
N136	N	1.255498	-0.115249	0.248120
C137	C	0.788920	-0.642504	-0.285353
C138	C	1.288920	-0.142504	0.214647
C139	C	0.722193	-0.975673	-0.218474
C140	C	1.222193	-0.475673	0.281526
C141	C	0.722213	-1.030276	-0.218478
C142	C	1.222213	-0.530276	0.281522
C143	C	0.789041	-1.030181	-0.285418
C144	C	1.289041	-0.530181	0.214582
C145	C	0.789024	-0.975578	-0.285411
C146	C	1.289024	-0.475578	0.214589
C147	C	0.755597	-0.948324	-0.251939
C148	C	1.255597	-0.448324	0.248061
C149	C	0.788887	-0.527838	-0.285326
C150	C	1.288887	-0.027838	0.214674
C151	C	0.788870	-0.473233	-0.285310
C152	C	1.288870	0.026767	0.214690
C153	C	0.722040	-0.473332	-0.218372
C154	C	1.222040	0.026668	0.281628
C155	C	0.722058	-0.527933	-0.218386
C156	C	1.222058	-0.027933	0.281614
C157	C	0.755483	-0.555185	-0.251867
C158	C	1.255483	-0.055185	0.248133
O159	O	0.693697	-0.614355	-0.189951
O160	O	1.193697	-0.114355	0.310049
O161	O	0.817322	-0.614221	-0.313816
O162	O	1.317322	-0.114221	0.186184
C163	C	0.891879	-0.252051	-0.251895
C164	C	1.391879	0.247949	0.248105
C165	C	0.949993	-0.252063	-0.251903
C166	C	1.449993	0.247937	0.248097
C167	C	0.755523	-0.252013	-0.388251
C168	C	1.255523	0.247987	0.111749
C169	C	0.755530	-0.252009	-0.446365
C170	C	1.255530	0.247991	0.053635
C171	C	0.755595	-0.115649	-0.251931
C172	C	1.255595	0.384351	0.248069
C173	C	0.755632	-0.057535	-0.251953
C174	C	1.255632	0.442465	0.248047
C175	C	0.789035	-0.218476	-0.806751
C176	C	1.289035	0.281524	-0.306751
C177	C	0.789041	-0.218462	-0.861356
C178	C	1.289041	0.281538	-0.361356
O179	O	0.817486	-0.190013	-0.889612
O180	O	1.317486	0.309987	-0.389612
N181	N	0.755588	-0.251886	-0.888648
N182	N	1.255588	0.248114	-0.388648
C183	C	0.722122	-0.285324	-0.861333
C184	C	1.222122	0.214676	-0.361333
O185	O	0.693668	-0.313752	-0.889561
O186	O	1.193668	0.186248	-0.389561
C187	C	0.722114	-0.285335	-0.806730
C188	C	1.222114	0.214665	-0.306730
C189	C	0.755573	-0.251912	-0.779440
C190	C	1.255573	0.248088	-0.279440
C191	C	0.822491	-0.185056	-0.779462
C192	C	1.322491	0.314944	-0.279462
C193	C	0.822485	-0.185071	-0.724861
C194	C	1.322485	0.314929	-0.224861
C195	C	0.789023	-0.218507	-0.697550
C196	C	1.289023	0.281493	-0.197550
C197	C	0.755567	-0.251927	-0.724840
C198	C	1.255567	0.248073	-0.224840
C199	C	0.688646	-0.318770	-0.779416
C200	C	1.188646	0.181230	-0.279416
C201	C	0.688640	-0.318778	-0.724809
C202	C	1.188640	0.181222	-0.224809
C203	C	0.722099	-0.285355	-0.697519
C204	C	1.222099	0.214645	-0.197519
C205	C	0.722099	-0.285379	-0.642928
C206	C	1.222099	0.214621	-0.142928
N207	N	0.755552	-0.251954	-0.615636
N208	N	1.255552	0.248046	-0.115636
C209	C	0.789014	-0.218518	-0.642947
C210	C	1.289014	0.281482	-0.142947
C211	C	0.722143	-0.285296	-0.976004
C212	C	1.222143	0.214704	-0.476004
C213	C	0.722154	-0.285288	-1.030606
C214	C	1.222154	0.214712	-0.530606
C215	C	0.789072	-0.218425	-1.030625
C216	C	1.289072	0.281575	-0.530625
C217	C	0.789063	-0.218437	-0.976022
C218	C	1.289063	0.281563	-0.476022
C219	C	0.755596	-0.251872	-0.948712
C220	C	1.255596	0.248128	-0.448712
C221	C	0.789000	-0.218553	-0.528282
C222	C	1.289000	0.281447	-0.028282
C223	C	0.788992	-0.218573	-0.473676
C224	C	1.288992	0.281427	0.026324
C225	C	0.722072	-0.285434	-0.473662
C226	C	1.222072	0.214566	0.026338
C227	C	0.722081	-0.285416	-0.528263
C228	C	1.222081	0.214584	-0.028263
C229	C	0.755547	-0.251971	-0.555571
C230	C	1.255547	0.248029	-0.055571
O231	O	0.693668	-0.313812	-0.614637
O232	O	1.193668	0.186188	-0.114637
O233	O	0.817459	-0.190090	-0.614712
O234	O	1.317459	0.309910	-0.114712
C235	C	0.755520	-0.251993	-0.116036
C236	C	1.255520	0.248007	0.383964
C237	C	0.755614	-0.251850	-0.057922
C238	C	1.255614	0.248150	0.442078
H239	H	-0.044892	-0.191482	-0.312685
H240	H	0.455108	0.308518	0.187315
Cl241	Cl	0.831057	-1.064455	-0.327499
Cl242	Cl	1.331057	-0.564455	0.172501
Cl243	Cl	0.831025	-0.941206	-0.327482
Cl244	Cl	1.331025	-0.441206	0.172518
H245	H	0.694974	-0.953486	-0.191213
H246	H	1.194974	-0.453486	0.308787
H247	H	0.694830	-0.312658	-0.451416
H248	H	1.194830	0.187342	0.048584
Cl249	Cl	0.864358	-0.689992	-0.360908
Cl250	Cl	1.364358	-0.189992	0.139092
Cl251	Cl	0.864547	-0.143047	-0.690562
Cl252	Cl	1.364547	0.356953	-0.190562
H253	H	0.661400	-0.345986	-0.801626
H254	H	1.161400	0.154014	-0.301626
Cl255	Cl	0.646668	-0.690277	-0.142890
Cl256	Cl	1.146668	-0.190277	0.357110
Cl257	Cl	0.864570	-0.143023	-0.813786
Cl258	Cl	1.364570	0.356977	-0.313786
H259	H	0.457379	-0.312585	-0.191091
H260	H	0.957379	0.187415	0.308909
H261	H	0.694913	-0.312510	-1.052821
H262	H	1.194913	0.187490	-0.552821
Cl263	Cl	0.445373	-0.176640	-0.327499
Cl264	Cl	0.945373	0.323360	0.172501
H265	H	0.816308	-0.191220	-0.953806
H266	H	1.316308	0.308780	-0.453806
H267	H	0.849590	-0.801147	-0.346105
H268	H	1.349590	-0.301147	0.153895
Cl269	Cl	0.831059	-0.176553	-0.439373
Cl270	Cl	1.331059	0.323447	0.060627
H271	H	0.695012	-1.052536	-0.191223
H272	H	1.195012	-0.552536	0.308777
Cl273	Cl	0.680021	-0.327436	-0.562571
Cl274	Cl	1.180021	0.172564	-0.062571
Cl275	Cl	0.646702	-0.813506	-0.142907
Cl276	Cl	1.146702	-0.313506	0.357093
Cl277	Cl	0.680069	-0.327338	-0.941677
Cl278	Cl	1.180069	0.172662	-0.441677
H279	H	0.206173	-0.346013	-0.157623
H280	H	0.706173	0.153987	0.342377
Cl281	Cl	0.830909	-0.562090	-0.327415
Cl282	Cl	1.330909	-0.062090	0.172585
H283	H	0.661380	-0.346000	-0.702576
H284	H	1.161380	0.154000	-0.202576
H285	H	0.556429	-0.312565	-0.191077
H286	H	1.056429	0.187435	0.308923
H287	H	0.816249	-0.191318	-0.550510
H288	H	1.316249	0.308682	-0.050510
H289	H	0.694857	-0.550199	-0.191133
H290	H	1.194857	-0.050199	0.308867
H291	H	0.206306	-0.158072	-0.346181
H292	H	0.706306	0.341928	0.153819
Cl293	Cl	0.568622	-0.176631	-0.327486
Cl294	Cl	1.068622	0.323369	0.172514
H295	H	0.816317	-0.191199	-1.052871
H296	H	1.316317	0.308801	-0.552871
Cl297	Cl	-0.057078	-0.327423	-0.176286
Cl298	Cl	0.442922	0.172577	0.323714
Cl299	Cl	0.066256	-0.176686	-0.327528
Cl300	Cl	0.566256	0.323314	0.172472
Cl301	Cl	0.317449	-0.143273	-0.361014
Cl302	Cl	0.817449	0.356727	0.138986
Cl303	Cl	0.680026	-0.439059	-0.176295
Cl304	Cl	1.180026	0.060941	0.323705
H305	H	0.305223	-0.346001	-0.157609
H306	H	0.805223	0.153999	0.342391
Cl307	Cl	0.066174	-0.327420	-0.176282
Cl308	Cl	0.566174	0.172580	0.323718
H309	H	0.816078	-0.450970	-0.312560
H310	H	1.316078	0.049030	0.187440
