data_functionalizedCrystal
_audit_creation_method	'MofGen! by Chris Wilmer'
_symmetry_space_group_name_H-M	'P1'
_symmetry_Int_Tables_number	1
_symmetry_cell_setting	triclinic
loop_
_symmetry_equiv_pos_as_xyz
  x,y,z
_cell_length_a	29.839131
_cell_length_b	17.639617
_cell_length_c	17.639197
_cell_angle_alpha	92.177485
_cell_angle_beta	78.813192
_cell_angle_gamma	101.225424
loop_
_atom_site_label
_atom_site_type_symbol
_atom_site_fract_x
_atom_site_fract_y
_atom_site_fract_z
Zn1	Zn	-0.132106	1.073843	0.664354
Zn2	Zn	-0.189683	1.099447	0.537360
Zn3	Zn	-0.126170	0.972583	0.511690
Zn4	Zn	-0.218820	0.946791	0.638573
O5	O	-0.166695	1.023166	0.587995
O6	O	-0.130034	1.183505	0.669041
O7	O	-0.166580	1.104128	0.427707
O8	O	-0.064086	0.986095	0.531988
O9	O	-0.172336	1.202316	0.575739
O10	O	-0.068447	1.060490	0.644149
O11	O	-0.119917	1.010922	0.408847
O12	O	-0.148169	0.862897	0.506989
O13	O	-0.221995	0.942135	0.748241
O14	O	-0.216239	0.843947	0.600210
O15	O	-0.158286	1.035480	0.767182
O16	O	-0.256419	1.079118	0.550740
O17	O	-0.277825	0.966962	0.625101
C18	C	-0.184722	0.825869	0.548017
C19	C	-0.192447	0.741460	0.530932
C20	C	-0.108022	0.414784	0.717973
C21	C	-0.115290	0.335472	0.701904
C22	C	-0.159225	0.355111	0.604609
C23	C	-0.151962	0.434425	0.620672
C24	C	-0.126360	0.464255	0.677354
C25	C	-0.170300	0.483896	0.580054
C26	C	-0.163036	0.563204	0.596114
C27	C	-0.137433	0.593040	0.652791
C28	C	-0.119095	0.543563	0.693414
C29	C	-0.195899	0.454065	0.523368
C30	C	-0.214237	0.503536	0.482750
C31	C	-0.206976	0.582845	0.498813
C32	C	-0.181374	0.612681	0.555491
C33	C	-0.225314	0.632322	0.458190
C34	C	-0.218049	0.711630	0.474250
C35	C	-0.174109	0.691989	0.571551
C36	C	-0.283424	1.023037	0.587929
C37	C	-0.333359	1.023046	0.587941
C38	C	-0.631838	1.081640	0.549364
C39	C	-0.819506	1.081727	0.549412
O40	O	-0.834284	1.131443	0.516562
N41	N	-0.854130	1.023312	0.588084
C42	C	-0.841835	0.964873	0.626750
O43	O	-0.875591	0.915194	0.659650
C44	C	-0.654167	0.964789	0.626706
C45	C	-0.619545	1.023204	0.588025
C46	C	-0.597216	1.140050	0.510687
C47	C	-0.550302	1.140026	0.510672
C48	C	-0.538009	1.081590	0.549333
C49	C	-0.572631	1.023179	0.588010
C50	C	-0.641873	0.906354	0.665376
C51	C	-0.594952	0.906339	0.665363
C52	C	-0.560330	0.964754	0.626683
C53	C	-0.513423	0.964719	0.626656
N54	N	-0.478799	1.023134	0.587985
C55	C	-0.491092	1.081570	0.549323
C56	C	-0.940362	0.964921	0.626769
C57	C	-0.987279	0.964941	0.626779
C58	C	-0.964947	1.081796	0.549443
C59	C	-0.918030	1.081772	0.549428
C60	C	-0.905738	1.023336	0.588098
C61	C	-0.392570	1.081513	0.549294
C62	C	-0.345652	1.081481	0.549279
C63	C	-0.367988	0.964628	0.626619
C64	C	-0.414901	0.964658	0.626630
C65	C	-0.427190	1.023107	0.587966
O66	O	-0.498612	0.915034	0.659497
O67	O	-0.457330	1.131252	0.516442
C68	C	-0.678752	1.081665	0.549379
C69	C	-0.713374	1.023254	0.588056
C70	C	-0.701081	0.964818	0.626717
C71	C	-0.760290	1.023274	0.588066
C72	C	-0.772583	1.081709	0.549404
C73	C	-0.737959	1.140125	0.510733
C74	C	-0.691045	1.140100	0.510718
C75	C	-0.735704	0.906403	0.665389
C76	C	-0.782618	0.906432	0.665400
C77	C	-0.794911	0.964868	0.626739
C78	C	-0.049509	1.023313	0.588081
C79	C	0.000428	1.023376	0.588118
C80	C	-0.194053	0.983074	0.786031
C81	C	-0.205711	0.965989	0.870423
C82	C	-0.148597	1.221234	0.628129
C83	C	-0.140885	1.305639	0.645232
C84	C	-0.255310	0.893315	0.979509
C85	C	-0.244351	0.909374	0.900212
C86	C	-0.178016	1.006572	0.919927
C87	C	-0.188971	0.990523	0.999228
C88	C	-0.227618	0.933893	1.029012
C89	C	-0.161278	1.031102	1.048731
C90	C	-0.172231	1.015052	1.128025
C91	C	-0.210875	0.958423	1.157815
C92	C	-0.238570	0.917843	1.108306
C93	C	-0.122629	1.087728	1.018944
C94	C	-0.094937	1.128306	1.068448
C95	C	-0.105891	1.112260	1.147744
C96	C	-0.144536	1.055631	1.177534
C97	C	-0.078197	1.152840	1.197253
C98	C	-0.089149	1.136790	1.276547
C99	C	-0.155489	1.039581	1.256828
C100	C	-0.139454	1.063091	1.390726
C101	C	-0.127796	1.080160	1.306331
H102	H	-0.232982	0.751911	0.441175
H103	H	-0.266897	0.876311	0.859904
Cl104	Cl	-0.054326	1.187783	1.338780
H105	H	-0.219789	0.945351	1.222381
H106	H	-0.662858	1.187667	0.479221
Cl107	Cl	-0.191408	0.317602	0.533352
H108	H	-0.317462	1.129050	0.517778
Cl109	Cl	-0.287158	0.846654	1.145756
Cl110	Cl	-0.458427	0.891209	0.675239
Cl111	Cl	-0.128296	0.692744	0.672976
Cl112	Cl	-0.029604	1.224008	1.159795
Cl113	Cl	-0.924918	0.891449	0.675385
H114	H	-0.201801	0.389490	0.510278
H115	H	-0.974964	1.129377	0.517963
Cl116	Cl	-0.685388	0.832920	0.714017
H117	H	-0.235081	0.479238	0.436597
Cl118	Cl	-0.141927	0.729495	0.642816
Cl119	Cl	-0.612660	1.213523	0.462078
H120	H	-0.889842	1.129339	0.517932
Cl121	Cl	-0.086914	0.581068	0.764679
Cl122	Cl	-0.352525	0.891174	0.675224
Cl123	Cl	-1.030798	0.891494	0.675398
H124	H	-0.286783	0.847206	1.003762
H125	H	-0.402569	1.129109	0.517812
Cl126	Cl	-0.075840	0.452289	0.789238
Cl127	Cl	-0.092231	0.273282	0.752970
H128	H	-0.246155	0.608023	0.412035
H129	H	-0.522114	1.187594	0.479178
H130	H	-0.146548	1.052678	0.895665
Cl131	Cl	-0.579504	0.832873	0.713981
H132	H	-0.747976	1.187704	0.479251
Cl133	Cl	-0.826139	0.832987	0.714031
H134	H	-0.113714	1.100796	0.954378
H135	H	-0.725700	0.858818	0.696873
Cl136	Cl	-0.046346	1.199480	1.030993
Cl137	Cl	-0.204077	0.968392	1.294278
