data_functionalizedCrystal
_audit_creation_method	'MofGen! by Chris Wilmer'
_symmetry_space_group_name_H-M	'P1'
_symmetry_Int_Tables_number	1
_symmetry_cell_setting	triclinic
loop_
_symmetry_equiv_pos_as_xyz
  x,y,z
_cell_length_a	19.077142
_cell_length_b	13.897447
_cell_length_c	19.076919
_cell_angle_alpha	92.276881
_cell_angle_beta	90.074357
_cell_angle_gamma	87.716925
loop_
_atom_site_label
_atom_site_type_symbol
_atom_site_fract_x
_atom_site_fract_y
_atom_site_fract_z
Zn1	Zn	-1.058287	0.466675	0.440483
Zn2	Zn	-1.062933	0.621769	0.322987
Zn3	Zn	-0.945505	0.453751	0.318272
Zn4	Zn	-0.940755	0.621184	0.435735
O5	O	-1.001870	0.540845	0.379369
O6	O	-1.157235	0.492902	0.428857
O7	O	-1.051288	0.594317	0.224030
O8	O	-0.960509	0.320487	0.334498
O9	O	-1.160649	0.606849	0.342533
O10	O	-1.043370	0.329983	0.424286
O11	O	-0.965014	0.470875	0.220566
O12	O	-0.846543	0.470308	0.329894
O13	O	-0.952414	0.605853	0.534697
O14	O	-0.843053	0.593321	0.416193
O15	O	-1.038764	0.492336	0.538185
O16	O	-1.046682	0.756670	0.337929
O17	O	-0.956919	0.756240	0.420765
C18	C	-0.819301	0.530349	0.372017
C19	C	-0.741197	0.525883	0.368888
C20	C	-1.001808	0.791455	0.379359
C21	C	-1.001844	0.898673	0.379381
C22	C	-0.994541	0.550471	0.562650
C23	C	-0.991418	0.554573	0.640753
C24	C	-0.702708	0.587920	0.412279
C25	C	-0.629321	0.583712	0.409343
C26	C	-0.594424	0.517470	0.363012
C27	C	-0.632918	0.455426	0.319619
C28	C	-0.706304	0.459631	0.322559
C29	C	-0.375136	0.498012	0.349410
C30	C	-0.301745	0.493814	0.346472
C31	C	-0.298153	0.622099	0.436198
C32	C	-0.371540	0.626302	0.439131
C33	C	-0.410028	0.564255	0.395741
N34	N	-0.519410	0.513168	0.360008
N35	N	-0.485040	0.568552	0.398749
C36	C	-0.185152	0.551377	0.386742
C37	C	-0.263256	0.555851	0.389863
C38	C	-1.001876	0.985745	0.379402
C39	C	-1.001922	1.094981	0.379426
C40	C	-1.001945	1.289258	0.379404
C41	C	-1.001963	1.182047	0.379441
C42	C	-1.009211	0.531189	0.196803
C43	C	-1.012470	0.526824	0.118706
C44	C	-1.034906	0.497400	0.679263
C45	C	-1.031963	0.501250	0.752649
C46	C	-0.985534	0.562278	0.787524
C47	C	-0.942041	0.619453	0.749008
C48	C	-0.944981	0.615597	0.675623
C49	C	-0.971917	0.580143	1.006806
C50	C	-0.968982	0.583996	1.080196
C51	C	-1.058903	0.465791	1.083832
C52	C	-1.061842	0.461945	1.010446
C53	C	-1.018346	0.519116	0.971936
N54	N	-0.982526	0.566217	0.862536
N55	N	-1.021351	0.515172	0.896925
H56	H	-0.731116	0.641865	0.450005
H57	H	-0.737641	0.409109	0.287229
F58	F	-1.084326	0.432450	0.642154
F59	F	-0.925625	0.640990	0.965830
F60	F	-0.257186	0.688131	0.482372
F61	F	-0.588361	0.649740	0.455526
F62	F	-1.111258	0.396991	0.973335
F63	F	-1.105189	0.404948	1.124821
H64	H	-0.931172	0.633695	1.108588
F65	F	-1.078274	0.440433	0.793633
F66	F	-0.408675	0.696807	0.488442
F67	F	-0.898693	0.676446	0.634638
F68	F	-0.264607	0.423312	0.297153
F69	F	-0.416089	0.431973	0.303232
F70	F	-0.595777	0.384920	0.270313
H71	H	-0.904236	0.669140	0.777409
