data_functionalizedCrystal
_audit_creation_method	'MofGen! by Chris Wilmer'
_symmetry_space_group_name_H-M	'P1'
_symmetry_Int_Tables_number	1
_symmetry_cell_setting	triclinic
loop_
_symmetry_equiv_pos_as_xyz
  x,y,z
_cell_length_a	16.625539
_cell_length_b	11.169417
_cell_length_c	11.169416
_cell_angle_alpha	89.990722
_cell_angle_beta	89.977153
_cell_angle_gamma	90.019099
loop_
_atom_site_label
_atom_site_type_symbol
_atom_site_fract_x
_atom_site_fract_y
_atom_site_fract_z
Zn1	Zn	-0.455908	-1.834932	-0.477839
Zn2	Zn	-0.321088	-1.834830	-0.678551
Zn3	Zn	-0.321092	-1.634227	-0.477877
Zn4	Zn	-0.455882	-1.634225	-0.678475
O5	O	-0.388493	-1.734553	-0.578186
O6	O	-0.438034	-2.002868	-0.504480
O7	O	-0.208256	-1.808178	-0.651980
O8	O	-0.338989	-1.660894	-0.309922
O9	O	-0.338982	-2.002793	-0.651942
O10	O	-0.438037	-1.808351	-0.309894
O11	O	-0.208259	-1.660795	-0.504545
O12	O	-0.338963	-1.466277	-0.504471
O13	O	-0.568718	-1.660891	-0.651812
O14	O	-0.437992	-1.466276	-0.651849
O15	O	-0.568737	-1.808349	-0.504406
O16	O	-0.338956	-1.808176	-0.846491
O17	O	-0.437988	-1.660793	-0.846435
C18	C	-0.388476	-1.422729	-0.578157
C19	C	-0.388487	-1.289329	-0.578174
C20	C	-0.598802	-1.734631	-0.578096
C21	C	-0.688423	-1.734665	-0.578058
C22	C	-1.016599	-1.734720	-0.577924
C23	C	-0.925290	-1.734701	-0.577965
C24	C	-0.852514	-1.734693	-0.577992
C25	C	-0.761199	-1.734673	-0.578031
C26	C	-0.179002	-1.734545	-0.578188
C27	C	-0.089381	-1.734744	-0.577888
C28	C	-0.388487	-1.734506	-0.890010
C29	C	-0.388511	-1.734595	-1.023410
C30	C	-0.388504	-1.047596	-0.578205
C31	C	-0.388492	-1.180996	-0.578188
C32	C	-0.388516	-1.734634	-0.265143
C33	C	-0.388527	-1.734668	-0.131743
