data_functionalizedCrystal
_audit_creation_method	'MofGen! by Chris Wilmer'
_symmetry_space_group_name_H-M	'P1'
_symmetry_Int_Tables_number	1
_symmetry_cell_setting	triclinic
loop_
_symmetry_equiv_pos_as_xyz
  x,y,z
_cell_length_a	17.699083
_cell_length_b	10.654550
_cell_length_c	9.730223
_cell_angle_alpha	89.995747
_cell_angle_beta	90.002740
_cell_angle_gamma	83.883973
loop_
_atom_site_label
_atom_site_type_symbol
_atom_site_fract_x
_atom_site_fract_y
_atom_site_fract_z
O1	O	1.005084	0.158805	-0.114097
O2	O	0.784837	0.179467	-0.114142
O3	O	0.900024	-0.013692	-0.114110
O4	O	0.889897	0.351964	-0.114129
O5	O	0.900017	-0.013697	0.114470
O6	O	0.784830	0.179462	0.114438
O7	O	1.005077	0.158800	0.114483
Zn8	Zn	0.894952	0.169130	0.150753
Zn9	Zn	0.894962	0.169137	-0.150411
O10	O	0.889889	0.351959	0.114451
C11	C	0.899277	-0.060479	0.000180
C12	C	0.897052	-0.199884	0.000177
C13	C	0.756632	0.178724	0.000143
C14	C	0.672599	0.176503	0.000126
C15	C	0.964873	-0.280556	0.000190
C16	C	0.962778	-0.411541	0.000173
C17	C	0.825036	-0.381166	0.000135
C18	C	0.827132	-0.250185	0.000142
C19	C	0.624699	0.289883	0.000120
C20	C	0.545743	0.287788	0.000138
C21	C	0.514688	0.172313	0.000152
C22	C	0.562594	0.058924	0.000161
C23	C	0.641549	0.061020	0.000153
C24	C	0.244177	0.050470	0.000196
C25	C	0.165216	0.048383	0.000200
C26	C	0.148371	0.277239	0.000180
C27	C	0.227326	0.279334	0.000172
C28	C	0.275225	0.165946	0.000189
C29	C	0.360839	0.168219	0.000172
C30	C	0.429076	0.170039	0.000159
C31	C	1.033282	0.159543	0.000196
C32	C	1.117314	0.161764	0.000204
C33	C	0.890637	0.398746	0.000159
C34	C	0.892861	0.538151	0.000153
N35	N	0.894951	0.169125	0.356289
N36	N	0.894969	0.169132	-0.355948
C37	C	0.945973	0.083630	0.428229
C38	C	0.945981	0.083630	0.572112
C39	C	0.843941	0.254631	0.572102
C40	C	0.843930	0.254624	0.428222
H41	H	1.021807	-0.239606	0.000216
Br42	Br	0.269468	0.436056	0.000141
Br43	Br	0.774675	0.370651	0.330577
Br44	Br	0.730148	-0.449441	0.000084
H45	H	0.680549	-0.031306	0.000157
H46	H	0.649978	0.383916	0.000108
H47	H	0.506745	0.380114	0.000132
H48	H	0.771900	-0.184497	0.000127
Br49	Br	0.774703	0.370664	0.669730
H50	H	0.109361	0.369564	0.000174
Br51	Br	1.054824	-0.521022	0.000183
Br52	Br	0.123071	-0.108345	0.000214
H53	H	0.283168	-0.041858	0.000211
H54	H	0.537303	-0.035098	0.000192
H55	H	0.987516	0.014009	0.369665
Br56	Br	1.015225	-0.032409	0.669743
