data_functionalizedCrystal
_audit_creation_method	'MofGen! by Chris Wilmer'
_symmetry_space_group_name_H-M	'P1'
_symmetry_Int_Tables_number	1
_symmetry_cell_setting	triclinic
loop_
_symmetry_equiv_pos_as_xyz
  x,y,z
_cell_length_a	17.699083
_cell_length_b	14.519731
_cell_length_c	16.776229
_cell_angle_alpha	89.992369
_cell_angle_beta	89.998886
_cell_angle_gamma	83.485934
loop_
_atom_site_label
_atom_site_type_symbol
_atom_site_fract_x
_atom_site_fract_y
_atom_site_fract_z
O1	O	1.004420	0.116623	-0.066178
O2	O	1.504420	0.616623	0.433822
O3	O	0.784086	0.131796	-0.066205
O4	O	1.284086	0.631796	0.433795
O5	O	0.900086	-0.010052	-0.066183
O6	O	1.400086	0.489948	0.433817
O7	O	0.888419	0.258471	-0.066199
O8	O	1.388419	0.758471	0.433801
O9	O	0.900071	-0.010061	0.066393
O10	O	1.400071	0.489939	0.566393
O11	O	0.784070	0.131787	0.066372
O12	O	1.284070	0.631787	0.566372
O13	O	1.004404	0.116614	0.066398
O14	O	1.504404	0.616614	0.566398
Zn15	Zn	0.894235	0.124200	0.087435
Zn16	Zn	1.394235	0.624200	0.587435
Zn17	Zn	0.894255	0.124211	-0.087241
Zn18	Zn	1.394255	0.624211	0.412759
O19	O	0.888404	0.258463	0.066377
O20	O	1.388404	0.758463	0.566377
C21	C	0.755879	0.131248	0.000080
C22	C	1.255879	0.631248	0.500080
C23	C	0.671857	0.129617	0.000071
C24	C	1.171857	0.629617	0.500071
C25	C	0.623479	0.212879	0.000066
C26	C	1.123479	0.712879	0.500066
C27	C	0.544531	0.211341	0.000076
C28	C	1.044531	0.711341	0.500076
C29	C	0.513962	0.126540	0.000086
C30	C	1.013962	0.626540	0.500086
C31	C	0.562346	0.043272	0.000093
C32	C	1.062346	0.543272	0.500093
C33	C	0.641292	0.044811	0.000088
C34	C	1.141292	0.544811	0.500088
C35	C	0.243965	0.037063	0.000113
C36	C	0.743965	0.537063	0.500113
C37	C	0.165012	0.035531	0.000115
C38	C	0.665012	0.535531	0.500115
C39	C	0.147204	0.203594	0.000101
C40	C	0.647204	0.703594	0.500101
C41	C	0.226150	0.205133	0.000096
C42	C	0.726150	0.705133	0.500096
C43	C	0.274527	0.121865	0.000108
C44	C	0.774527	0.621865	0.500108
C45	C	0.360131	0.123533	0.000098
C46	C	0.860131	0.623533	0.500098
C47	C	0.428360	0.124870	0.000090
C48	C	0.928360	0.624870	0.500090
C49	C	0.899532	-0.044414	0.000105
C50	C	1.399532	0.455586	0.500105
C51	C	0.897894	-0.146787	0.000105
C52	C	1.397894	0.353213	0.500105
C53	C	0.896563	-0.229926	0.000103
C54	C	1.396563	0.270074	0.500103
C55	C	0.894899	-0.334227	0.000097
C56	C	1.394899	0.165773	0.500097
C57	C	0.893579	-0.417361	0.000092
C58	C	1.393579	0.082639	0.500092
C59	C	0.891916	-0.521669	0.000087
C60	C	1.391916	-0.021669	0.500087
C61	C	1.032611	0.117162	0.000112
C62	C	1.532611	0.617162	0.500112
C63	C	1.116633	0.118793	0.000116
C64	C	1.616633	0.618793	0.500116
C65	C	0.888958	0.292824	0.000087
C66	C	1.388958	0.792824	0.500087
C67	C	0.890596	0.395198	0.000082
C68	C	1.390596	0.895198	0.500082
N69	N	0.894226	0.124191	0.206646
N70	N	1.394226	0.624191	0.706646
N71	N	0.894269	0.124212	-0.206452
N72	N	1.394269	0.624212	0.293548
C73	C	0.945607	0.061406	0.248372
C74	C	1.445607	0.561406	0.748372
C75	C	0.945611	0.061406	0.331824
C76	C	1.445611	0.561406	0.831824
C77	C	0.894238	0.124195	0.373549
C78	C	1.394238	0.624195	0.873549
C79	C	0.842852	0.186982	0.331816
C80	C	1.342852	0.686982	0.831816
C81	C	0.842844	0.186978	0.248366
C82	C	1.342844	0.686978	0.748366
C83	C	0.842879	0.187001	0.668364
C84	C	1.342879	0.687001	1.168364
C85	C	0.842892	0.187002	0.751820
C86	C	1.342892	0.687002	1.251820
C87	C	0.945646	0.061428	0.751822
C88	C	1.445646	0.561428	1.251822
C89	C	0.945639	0.061424	0.668372
C90	C	1.445639	0.561424	1.168372
C91	C	0.894250	0.124208	0.626647
C92	C	1.394250	0.624208	1.126647
C93	C	0.894245	0.124207	0.536158
C94	C	1.394245	0.624207	1.036158
C95	C	0.894246	0.124201	0.464035
C96	C	1.394246	0.624201	0.964035
H97	H	0.505145	0.279141	0.000072
H98	H	1.005145	0.779141	0.500072
C99	C	1.002169	-0.007644	0.797727
C100	C	1.502169	0.492356	1.297727
N101	N	1.044740	-0.059668	0.832301
N102	N	1.544740	0.440332	1.332301
H103	H	0.987449	0.010281	0.365798
H104	H	1.487449	0.510281	0.865798
C105	C	0.093982	0.295191	0.000099
C106	C	0.593982	0.795191	0.500099
N107	N	0.053897	0.364180	0.000097
N108	N	0.553897	0.864180	0.500097
H109	H	0.987444	0.010280	0.214406
H110	H	1.487444	0.510280	0.714406
H111	H	0.251035	0.274186	0.000085
H112	H	0.751035	0.774186	0.500085
H113	H	0.140127	-0.033529	0.000124
H114	H	0.640127	0.466471	0.500124
C115	C	0.657097	0.306168	0.000057
C116	C	1.157097	0.806168	0.500057
N117	N	0.682415	0.376437	0.000054
N118	N	1.182415	0.876437	0.500054
C119	C	0.297169	-0.054534	0.000120
C120	C	0.797169	0.445466	0.500120
N121	N	0.337246	-0.123530	0.000124
N122	N	0.837246	0.376470	0.500124
C123	C	0.786333	0.256043	0.377716
C124	C	1.286333	0.756043	0.877716
N125	N	0.743762	0.308060	0.412287
N126	N	1.243762	0.808060	0.912287
H127	H	0.537451	-0.025775	0.000112
H128	H	1.037451	0.474225	0.500112
C129	C	1.002152	-0.007651	0.622480
C130	C	1.502152	0.492349	1.122480
N131	N	1.044716	-0.059683	0.587915
N132	N	1.544716	0.440317	1.087915
C133	C	0.786369	0.256072	0.797715
C134	C	1.286369	0.756072	1.297715
N135	N	0.743798	0.308093	0.832283
N136	N	1.243798	0.808093	1.332283
C137	C	0.694508	-0.046784	0.000091
C138	C	1.194508	0.453216	0.500091
N139	N	0.734589	-0.115777	0.000095
N140	N	1.234589	0.384223	0.500095
C141	C	0.786449	0.256184	0.622477
C142	C	1.286449	0.756184	1.122477
N143	N	0.743977	0.308340	0.587912
N144	N	1.243977	0.808340	1.087912
C145	C	0.786328	0.256054	0.202467
C146	C	1.286328	0.756054	0.702467
N147	N	0.743758	0.308084	0.167897
N148	N	1.243758	0.808084	0.667897
