data_functionalizedCrystal
_audit_creation_method	'MofGen! by Chris Wilmer'
_symmetry_space_group_name_H-M	'P1'
_symmetry_Int_Tables_number	1
_symmetry_cell_setting	triclinic
loop_
_symmetry_equiv_pos_as_xyz
  x,y,z
_cell_length_a	12.811415
_cell_length_b	17.699083
_cell_length_c	16.176319
_cell_angle_alpha	90.001389
_cell_angle_beta	84.562354
_cell_angle_gamma	96.334510
loop_
_atom_site_label
_atom_site_type_symbol
_atom_site_fract_x
_atom_site_fract_y
_atom_site_fract_z
O1	O	0.132732	-1.004674	-0.078580
O2	O	0.150001	-0.784373	-0.079901
O3	O	-0.011441	-0.900065	-0.067780
O4	O	0.294174	-0.888982	-0.090701
O5	O	-0.011451	-0.900049	0.069713
O6	O	0.149991	-0.784357	0.057593
O7	O	0.132722	-1.004658	0.058914
Cu8	Cu	0.141355	-0.894506	0.070808
Cu9	Cu	0.141368	-0.894525	-0.091795
O10	O	0.294164	-0.888966	0.046793
C11	C	0.149377	-0.756165	-0.011111
C12	C	0.147521	-0.672138	-0.010982
C13	C	-0.050549	-0.899435	0.003897
C14	C	-0.167062	-0.897574	0.012629
C15	C	0.133346	-1.032865	-0.009878
C16	C	0.135202	-1.116892	-0.010012
C17	C	-0.385982	-0.894082	-0.120875
C18	C	-0.495457	-0.892333	-0.112674
C19	C	-0.495489	-0.892324	0.037231
C20	C	-0.386014	-0.894072	0.029030
C21	C	-0.331264	-0.894952	-0.050025
C22	C	-0.221788	-0.896706	-0.058225
C23	C	-0.221821	-0.896691	0.091679
C24	C	-0.331296	-0.894943	0.099880
C25	C	0.333272	-0.889595	-0.024886
C26	C	0.449785	-0.891456	-0.033624
N27	N	0.141346	-0.894498	0.185174
C28	C	0.242284	-0.623942	-0.018089
C29	C	0.240533	-0.544991	-0.017947
C30	C	0.144019	-0.514238	-0.010704
C31	C	0.049249	-0.562440	-0.003595
C32	C	0.051000	-0.641390	-0.003731
C33	C	0.042183	-0.244045	-0.003044
C34	C	0.040438	-0.165090	-0.002911
C35	C	0.231716	-0.147647	-0.017261
C36	C	0.233467	-0.226596	-0.017397
C37	C	0.138698	-0.274792	-0.010283
C38	C	0.140597	-0.360399	-0.010435
C39	C	0.142118	-0.428631	-0.010558
N40	N	0.141368	-0.894538	-0.206160
C41	C	0.069889	-0.945742	0.233803
C42	C	0.069888	-0.945746	0.320350
C43	C	0.141350	-0.894508	0.358266
C44	C	0.212810	-0.843259	0.309630
C45	C	0.212806	-0.843252	0.223085
C46	C	0.212830	-0.843285	0.658657
C47	C	0.212831	-0.843297	0.745209
C48	C	0.069912	-0.945778	0.755922
C49	C	0.069908	-0.945772	0.669377
C50	C	0.141364	-0.894520	0.620749
C51	C	0.141363	-0.894515	0.526905
C52	C	0.141357	-0.894516	0.452108
H53	H	-0.177213	-0.897425	-0.122596
Br54	Br	0.364455	-0.268329	-0.027234
H55	H	0.011725	-0.987508	0.795524
H56	H	0.308881	-0.108396	-0.023049
H57	H	0.270992	-0.801523	0.183492
Br58	Br	-0.027073	-1.015313	0.617921
H59	H	-0.375888	-0.894223	0.164244
Br60	Br	0.309823	-0.773757	0.796666
H61	H	0.011701	-0.987468	0.202937
Br62	Br	0.369146	-0.479584	-0.027595
Br63	Br	-0.027095	-1.015289	0.386350
Br64	Br	-0.147558	-0.897884	0.187838
H65	H	0.271014	-0.801555	0.619071
Br66	Br	-0.081737	-0.520705	0.006243
Br67	Br	0.309790	-0.773715	0.361085
H68	H	-0.341405	-0.894805	-0.185245
Br69	Br	-0.569713	-0.891147	-0.208831
Br70	Br	-0.090555	-0.123354	0.006917
Br71	Br	-0.569805	-0.891103	0.144511
Br72	Br	-0.086434	-0.309444	0.006613
Br73	Br	0.373275	-0.665670	-0.027928
Br74	Br	-0.077612	-0.706801	0.005922
