data_functionalizedCrystal
_audit_creation_method	'MofGen! by Chris Wilmer'
_symmetry_space_group_name_H-M	'P1'
_symmetry_Int_Tables_number	1
_symmetry_cell_setting	triclinic
loop_
_symmetry_equiv_pos_as_xyz
  x,y,z
_cell_length_a	19.188930
_cell_length_b	18.266242
_cell_length_c	19.188930
_cell_angle_alpha	89.989745
_cell_angle_beta	96.855221
_cell_angle_gamma	90.022820
loop_
_atom_site_label
_atom_site_type_symbol
_atom_site_fract_x
_atom_site_fract_y
_atom_site_fract_z
O1	O	0.926149	0.061124	-0.087167
O2	O	1.426149	0.561124	0.412833
O3	O	0.722838	0.061075	-0.098902
O4	O	1.222838	0.561075	0.401098
O5	O	0.830361	0.061087	0.008621
O6	O	1.330361	0.561087	0.508621
O7	O	0.818627	0.061113	-0.194690
O8	O	1.318627	0.561113	0.305310
O9	O	0.830343	-0.060675	0.008624
O10	O	1.330343	0.439325	0.508624
O11	O	0.722820	-0.060687	-0.098899
O12	O	1.222820	0.439313	0.401101
O13	O	0.926131	-0.060638	-0.087164
O14	O	1.426131	0.439362	0.412836
Zn15	Zn	0.824473	-0.079994	-0.093031
Zn16	Zn	1.324473	0.420006	0.406969
Zn17	Zn	0.824497	0.080432	-0.093035
Zn18	Zn	1.324497	0.580432	0.406965
O19	O	0.818608	-0.060649	-0.194687
O20	O	1.318608	0.439351	0.305313
C21	C	0.696818	0.000188	-0.098520
C22	C	1.196818	0.500188	0.401480
C23	C	0.619313	0.000169	-0.097380
C24	C	1.119313	0.500169	0.402620
C25	C	0.574389	0.000188	-0.160470
C26	C	1.074389	0.500188	0.339530
C27	C	0.501566	0.000196	-0.159399
C28	C	1.001566	0.500196	0.340601
C29	C	0.473669	0.000199	-0.095233
C30	C	0.973669	0.500199	0.404767
C31	C	0.518603	0.000175	-0.032133
C32	C	1.018603	0.500175	0.467867
C33	C	0.591425	0.000160	-0.033207
C34	C	1.091425	0.500160	0.466793
N35	N	0.365695	0.041663	-0.046187
N36	N	0.865695	0.541663	0.453813
N37	N	0.296517	0.041679	-0.045171
N38	N	0.796517	0.541679	0.454829
C39	C	0.254260	0.000243	-0.091994
C40	C	0.754260	0.500243	0.408006
N41	N	0.283795	-0.041200	-0.139882
N42	N	0.783795	0.458800	0.360118
N43	N	0.352980	-0.041213	-0.140900
N44	N	0.852980	0.458787	0.359100
C45	C	0.394707	0.000215	-0.094062
C46	C	0.894707	0.500215	0.405938
C47	C	0.130372	0.000270	-0.153928
C48	C	0.630372	0.500270	0.346072
C49	C	0.057547	0.000274	-0.152853
C50	C	0.557547	0.500274	0.347147
C51	C	0.074586	0.000261	-0.025586
C52	C	0.574586	0.500261	0.474414
C53	C	0.147409	0.000250	-0.026662
C54	C	0.647409	0.500250	0.473338
C55	C	0.175298	0.000258	-0.090835
C56	C	0.675298	0.500258	0.409165
N57	N	0.824461	-0.189481	-0.093028
N58	N	1.324461	0.310519	0.406972
C59	C	0.866670	-0.227768	-0.135273
C60	C	1.366670	0.272232	0.364727
C61	C	0.866682	-0.304413	-0.135271
C62	C	1.366682	0.195587	0.364729
C63	C	0.824471	-0.342768	-0.093032
C64	C	1.324471	0.157232	0.406968
C65	C	0.782260	-0.304473	-0.050778
C66	C	1.282260	0.195527	0.449222
C67	C	0.782254	-0.227829	-0.050776
C68	C	1.282254	0.272171	0.449224
N69	N	0.763324	-0.463136	-0.091312
N70	N	1.263324	0.036864	0.408688
N71	N	0.763330	-0.535944	-0.091318
N72	N	1.263330	-0.035944	0.408682
C73	C	0.824485	-0.573691	-0.093035
C74	C	1.324485	-0.073691	0.406965
N75	N	0.885634	-0.535878	-0.094759
N76	N	1.385634	-0.035878	0.405241
N77	N	0.885626	-0.463064	-0.094757
N78	N	1.385626	0.036936	0.405243
C79	C	0.824472	-0.425875	-0.093029
C80	C	1.324472	0.074125	0.406971
C81	C	0.866711	-0.695084	-0.135280
C82	C	1.366711	-0.195084	0.364720
C83	C	0.866724	-0.771730	-0.135273
C84	C	1.366724	-0.271730	0.364727
C85	C	0.782295	-0.771789	-0.050784
C86	C	1.282295	-0.271789	0.449216
C87	C	0.782288	-0.695144	-0.050787
C88	C	1.282288	-0.195144	0.449213
C89	C	0.824495	-0.656796	-0.093039
C90	C	1.324495	-0.156796	0.406961
C91	C	0.952151	0.000252	-0.087546
C92	C	1.452151	0.500252	0.412454
C93	C	1.029656	0.000276	-0.088687
C94	C	1.529656	0.500276	0.411313
C95	C	0.829972	0.000204	0.034634
C96	C	1.329972	0.500204	0.534634
C97	C	0.828831	0.000197	0.112138
C98	C	1.328831	0.500197	0.612138
N99	N	0.824513	0.189919	-0.093033
N100	N	1.324513	0.689919	0.406967
C101	C	0.818997	0.000236	-0.220700
C102	C	1.318997	0.500236	0.279300
C103	C	0.820138	0.000247	-0.298204
C104	C	1.320138	0.500247	0.201796
C105	C	0.891922	0.000209	0.157062
C106	C	1.391922	0.500209	0.657062
C107	C	0.890850	0.000220	0.229886
C108	C	1.390850	0.500220	0.729886
C109	C	0.826684	0.000206	0.257782
C110	C	1.326684	0.500206	0.757782
C111	C	0.763585	0.000198	0.212849
C112	C	1.263585	0.500198	0.712849
C113	C	0.764658	0.000194	0.140026
C114	C	1.264658	0.500194	0.640026
N115	N	0.777631	-0.041244	0.365788
N116	N	1.277631	0.458756	0.865788
N117	N	0.776615	-0.041242	0.434967
N118	N	1.276615	0.458758	0.934967
C119	C	0.823446	0.000220	0.477191
C120	C	1.323446	0.500220	0.977191
N121	N	0.871341	0.041669	0.447625
N122	N	1.371341	0.541669	0.947625
N123	N	0.872359	0.041664	0.378440
N124	N	1.372359	0.541664	0.878440
C125	C	0.825513	0.000210	0.336745
C126	C	1.325513	0.500210	0.836745
C127	C	0.885379	0.000245	0.601079
C128	C	1.385379	0.500245	1.101079
C129	C	0.884305	0.000261	0.673904
C130	C	1.384305	0.500261	1.173904
C131	C	0.757038	0.000231	0.656865
C132	C	1.257038	0.500231	1.156865
C133	C	0.758114	0.000222	0.584042
C134	C	1.258114	0.500222	1.084042
C135	C	0.822287	0.000226	0.556154
C136	C	1.322287	0.500226	1.056154
H137	H	0.464982	0.000210	-0.210776
H138	H	0.964982	0.500210	0.289224
H139	H	0.706738	0.000208	0.547464
H140	H	1.206738	0.500208	1.047464
O141	O	0.160454	0.000265	-0.223141
O142	O	0.660454	0.500265	0.276859
H143	H	0.193246	0.049891	-0.226683
H144	H	0.693246	0.549891	0.273317
O145	O	0.961139	0.000225	0.126991
O146	O	1.461139	0.500225	0.626991
H147	H	0.964673	-0.049406	0.094234
H148	H	1.464673	0.450594	0.594234
H149	H	0.597091	0.000196	-0.212725
H150	H	1.097091	0.500196	0.287275
H151	H	0.901054	-0.335591	-0.169675
H152	H	1.401054	0.164409	0.330325
O153	O	0.958901	0.000220	0.278353
O154	O	1.458901	0.500220	0.778353
H155	H	0.989641	0.049846	0.268455
H156	H	1.489641	0.549846	0.768455
O157	O	0.736744	-0.186533	-0.005188
O158	O	1.236744	0.313467	0.494812
H159	H	0.743842	-0.126795	-0.012274
H160	H	1.243842	0.373205	0.487726
O161	O	0.912239	-0.653714	-0.180840
O162	O	1.412239	-0.153714	0.319160
H163	H	0.941602	-0.693217	-0.210208
H164	H	1.441602	-0.193217	0.289792
O165	O	0.009093	0.000289	-0.220908
O166	O	0.509093	0.500289	0.279092
H167	H	-0.046231	0.000288	-0.209382
H168	H	0.453769	0.500288	0.290618
O169	O	0.736758	-0.653855	-0.005217
O170	O	1.236758	-0.153855	0.494783
H171	H	0.770349	-0.618938	0.032397
H172	H	1.270349	-0.118938	0.532397
O173	O	0.044504	0.000255	0.043622
O174	O	0.544504	0.500255	0.543622
H175	H	0.087981	0.000235	0.087314
H176	H	0.587981	0.500235	0.587314
O177	O	0.954589	0.000263	0.570991
O178	O	1.454589	0.500263	1.070991
H179	H	0.998282	0.000287	0.614467
H180	H	1.498282	0.500287	1.114467
H181	H	0.747892	-0.335707	-0.016386
H182	H	1.247892	0.164293	0.483614
H183	H	0.901100	-0.802902	-0.169673
H184	H	1.401100	-0.302902	0.330327
H185	H	0.935683	0.000274	0.710481
H186	H	1.435683	0.500274	1.210481
H187	H	0.747927	-0.803018	-0.016391
H188	H	1.247927	-0.303018	0.483609
O189	O	0.687830	0.000210	0.686947
O190	O	1.187830	0.500210	1.186947
H191	H	0.657531	0.049832	0.668880
H192	H	1.157531	0.549832	1.168880
O193	O	0.696604	0.000171	0.091572
O194	O	1.196604	0.500171	0.591572
H195	H	0.694051	0.049797	0.057976
H196	H	1.194051	0.549797	0.557976
O197	O	0.694375	0.000173	0.242930
O198	O	1.194375	0.500173	0.742930
H199	H	0.704227	0.000168	0.301116
H200	H	1.204227	0.500168	0.801116
H201	H	0.628003	0.000145	0.018171
H202	H	1.128003	0.500145	0.518171
O203	O	0.488521	0.000179	0.037077
O204	O	0.988521	0.500179	0.537077
H205	H	0.430335	0.000200	0.027225
H206	H	0.930335	0.500200	0.527225
H207	H	0.183988	0.000238	0.024713
H208	H	0.683988	0.500238	0.524713
O209	O	0.912193	-0.186405	-0.180841
O210	O	1.412193	0.313595	0.319159
H211	H	0.941549	-0.225909	-0.210214
H212	H	1.441549	0.274091	0.289786
