data_functionalizedCrystal
_audit_creation_method	'MofGen! by Chris Wilmer'
_symmetry_space_group_name_H-M	'P1'
_symmetry_Int_Tables_number	1
_symmetry_cell_setting	triclinic
loop_
_symmetry_equiv_pos_as_xyz
  x,y,z
_cell_length_a	17.699083
_cell_length_b	17.699083
_cell_length_c	18.366186
_cell_angle_alpha	89.992864
_cell_angle_beta	89.996982
_cell_angle_gamma	83.283015
loop_
_atom_site_label
_atom_site_type_symbol
_atom_site_fract_x
_atom_site_fract_y
_atom_site_fract_z
O1	O	1.004081	0.095712	-0.060449
O2	O	0.783702	0.108165	-0.060473
O3	O	0.900118	-0.008251	-0.060454
O4	O	0.887665	0.212128	-0.060468
O5	O	0.900098	-0.008256	0.060645
O6	O	0.783683	0.108159	0.060626
O7	O	1.004061	0.095707	0.060650
Zn8	Zn	0.893869	0.101932	0.079865
Zn9	Zn	0.893895	0.101939	-0.079688
O10	O	0.887645	0.212122	0.060631
C11	C	0.755495	0.107716	0.000074
C12	C	0.671477	0.106377	0.000065
C13	C	0.899662	-0.036451	0.000096
C14	C	0.898323	-0.120469	0.000096
C15	C	0.622856	0.174710	0.000060
C16	C	0.543913	0.173448	0.000070
C17	C	0.513592	0.103852	0.000078
C18	C	0.562219	0.035513	0.000085
C19	C	0.641161	0.036776	0.000081
C20	C	0.243856	0.030418	0.000103
C21	C	0.164908	0.029160	0.000105
C22	C	0.146608	0.167090	0.000093
C23	C	0.225550	0.168353	0.000088
C24	C	0.274170	0.100015	0.000098
C25	C	0.359769	0.101384	0.000090
C26	C	0.427995	0.102481	0.000082
C27	C	0.966656	-0.169090	0.000104
C28	C	0.965394	-0.248033	0.000098
C29	C	0.895798	-0.278354	0.000088
C30	C	0.827459	-0.229727	0.000077
C31	C	0.828722	-0.150785	0.000079
C32	C	0.822364	-0.548090	0.000071
C33	C	0.821106	-0.627038	0.000072
C34	C	0.959036	-0.645338	0.000090
C35	C	0.960299	-0.566396	0.000091
C36	C	0.891961	-0.517776	0.000077
C37	C	0.893330	-0.432177	0.000083
C38	C	0.894427	-0.363951	0.000087
C39	C	1.032268	0.096156	0.000102
C40	C	1.116286	0.097494	0.000106
C41	C	0.888102	0.240322	0.000080
C42	C	0.889440	0.324340	0.000075
N43	N	0.893856	0.101926	0.188757
N44	N	0.893913	0.101939	-0.188579
C45	C	0.945422	0.050403	0.226865
C46	C	0.945427	0.050399	0.303093
C47	C	0.893873	0.101933	0.341209
C48	C	0.842298	0.153460	0.303091
C49	C	0.842289	0.153457	0.226865
C50	C	0.883830	0.170882	0.461965
C51	C	0.883844	0.170886	0.538190
C52	C	0.893895	0.101942	0.576317
C53	C	0.903948	0.032991	0.538210
C54	C	0.903939	0.032988	0.461984
C55	C	0.893876	0.101941	0.423864
C56	C	0.945468	0.050411	0.697081
C57	C	0.945468	0.050406	0.773310
C58	C	0.842343	0.153473	0.773306
C59	C	0.842339	0.153471	0.697079
C60	C	0.893906	0.101941	0.658970
H61	H	0.647537	0.231384	0.000053
H62	H	1.014680	-0.684934	0.000098
H63	H	0.875633	0.227027	0.430928
H64	H	0.680748	-0.018868	0.000084
Cl65	Cl	0.482792	0.259357	0.000060
Cl66	Cl	0.524102	-0.051980	0.000100
Cl67	Cl	1.051303	-0.309154	0.000111
Cl68	Cl	1.054154	-0.130980	0.000124
H69	H	0.800298	0.195414	0.195836
H70	H	0.764429	-0.651721	0.000065
H71	H	0.912132	-0.023149	0.569251
H72	H	0.773078	-0.111198	0.000072
H73	H	0.250232	0.225025	0.000078
H74	H	0.987455	0.008449	0.666052
Cl75	Cl	0.126793	-0.058340	0.000116
H76	H	0.107012	0.222734	0.000088
H77	H	0.987456	0.008446	0.804339
H78	H	0.800364	0.195430	0.804340
Cl79	Cl	0.777484	0.218242	0.351007
H80	H	0.283434	-0.025228	0.000112
H81	H	0.875663	0.227029	0.569210
Cl82	Cl	1.047795	-0.528283	0.000101
H83	H	0.987419	0.008441	0.334127
H84	H	0.766718	-0.508512	0.000059
H85	H	0.987409	0.008442	0.195840
H86	H	0.770792	-0.254420	0.000065
H87	H	0.912123	-0.023154	0.430960
Cl88	Cl	0.777515	0.218251	0.649166
