data_functionalizedCrystal
_audit_creation_method	'MofGen! by Chris Wilmer'
_symmetry_space_group_name_H-M	'P1'
_symmetry_Int_Tables_number	1
_symmetry_cell_setting	triclinic
loop_
_symmetry_equiv_pos_as_xyz
  x,y,z
_cell_length_a	10.489746
_cell_length_b	8.965430
_cell_length_c	14.519709
_cell_angle_alpha	90.000526
_cell_angle_beta	84.110723
_cell_angle_gamma	90.000925
loop_
_atom_site_label
_atom_site_type_symbol
_atom_site_fract_x
_atom_site_fract_y
_atom_site_fract_z
O1	O	1.692693	0.123943	0.130130
O2	O	2.192693	0.623943	0.630130
O3	O	1.321371	0.123968	0.142339
O4	O	1.821371	0.623968	0.642339
O5	O	1.516877	0.123941	0.002050
O6	O	2.016877	0.623941	0.502050
O7	O	1.497187	0.123969	0.270419
O8	O	1.997187	0.623969	0.770419
O9	O	1.516861	-0.124138	0.002059
O10	O	2.016861	0.375862	0.502059
O11	O	1.321355	-0.124111	0.142348
O12	O	1.821355	0.375889	0.642348
O13	O	1.692677	-0.124136	0.130140
O14	O	2.192677	0.375864	0.630140
Cu15	Cu	1.507014	-0.146775	0.136245
Cu16	Cu	2.007014	0.353225	0.636245
Cu17	Cu	1.507034	0.146607	0.136234
Cu18	Cu	2.007034	0.646607	0.636234
O19	O	1.497171	-0.124109	0.270428
O20	O	1.997171	0.375891	0.770428
C21	C	1.273841	-0.000068	0.141420
C22	C	1.773841	0.499932	0.641420
C23	C	1.132241	-0.000059	0.138659
C24	C	1.632241	0.499941	0.638659
C25	C	0.980330	-0.000090	0.047762
C26	C	1.480330	0.499910	0.547762
C27	C	1.057242	-0.122396	0.093211
C28	C	1.557242	0.377604	0.593211
C29	C	1.057214	0.122190	0.093223
C30	C	1.557214	0.622190	0.593223
C31	C	0.956854	-0.122504	0.179233
C32	C	1.456854	0.377496	0.679233
C33	C	0.956820	0.122192	0.179233
C34	C	1.456820	0.622192	0.679233
C35	C	1.033683	-0.000144	0.224745
C36	C	1.533683	0.499856	0.724745
N37	N	1.507010	-0.353124	0.136252
N38	N	2.007010	0.146876	0.636252
C39	C	1.416567	-0.450418	0.201109
C40	C	1.916567	0.049582	0.701109
C41	C	1.531869	-0.549837	0.219772
C42	C	2.031869	-0.049837	0.719772
C43	C	1.391757	-0.549832	0.117598
C44	C	1.891757	-0.049832	0.617598
C45	C	1.622370	-0.450355	0.154956
C46	C	2.122370	0.049645	0.654956
C47	C	1.482182	-0.450341	0.052746
C48	C	1.982182	0.049659	0.552746
C49	C	1.597567	-0.549716	0.071373
C50	C	2.097567	-0.049716	0.571373
C51	C	1.740207	-0.000097	0.131058
C52	C	2.240207	0.499903	0.631058
C53	C	1.881807	-0.000096	0.133820
C54	C	2.381807	0.499904	0.633820
C55	C	1.515951	-0.000098	-0.032310
C56	C	2.015951	0.499902	0.467690
C57	C	1.513201	-0.000099	-0.134707
C58	C	2.013201	0.499901	0.365293
N59	N	1.507048	0.352956	0.136219
N60	N	2.007048	0.852956	0.636219
C61	C	1.503078	-0.000060	-0.509658
C62	C	2.003078	0.499940	-0.009658
C63	C	1.505889	-0.000071	-0.405334
C64	C	2.005889	0.499929	0.094666
C65	C	1.508139	-0.000081	-0.322185
C66	C	2.008139	0.499919	0.177815
C67	C	1.510951	-0.000089	-0.217856
C68	C	2.010951	0.499911	0.282144
C69	C	1.498096	-0.000066	0.304789
C70	C	1.998096	0.499934	0.804789
C71	C	1.500846	-0.000056	0.407185
C72	C	2.000846	0.499944	0.907185
H73	H	0.956389	-0.000221	-0.027068
H74	H	1.456389	0.499779	0.472932
H75	H	0.912948	0.225609	0.215525
H76	H	1.412948	0.725609	0.715525
Br77	Br	1.229281	-0.622672	0.091322
Br78	Br	1.729281	-0.122672	0.591322
Br79	Br	1.130320	-0.294763	0.032672
Br80	Br	1.630320	0.205237	0.532672
H81	H	1.719875	-0.406842	0.170804
H82	H	2.219875	0.093158	0.670804
H83	H	0.913189	-0.226025	0.215542
H84	H	1.413189	0.273975	0.715542
Br85	Br	1.073175	-0.000228	0.349561
Br86	Br	1.573175	0.499772	0.849561
Br87	Br	1.566920	-0.622678	0.337450
Br88	Br	2.066920	-0.122678	0.837450
Br89	Br	1.725206	-0.621940	-0.020072
Br90	Br	2.225206	-0.121940	0.479928
Br91	Br	1.447079	-0.377437	-0.064900
Br92	Br	1.947079	0.122563	0.435100
Br93	Br	1.130270	0.294533	0.032641
Br94	Br	1.630270	0.794533	0.532641
H95	H	1.340152	-0.406819	0.256008
H96	H	1.840152	0.093181	0.756008
