data_functionalizedCrystal
_audit_creation_method	'MofGen! by Chris Wilmer'
_symmetry_space_group_name_H-M	'P1'
_symmetry_Int_Tables_number	1
_symmetry_cell_setting	triclinic
loop_
_symmetry_equiv_pos_as_xyz
  x,y,z
_cell_length_a	19.319731
_cell_length_b	19.318970
_cell_length_c	19.315557
_cell_angle_alpha	60.007379
_cell_angle_beta	60.014690
_cell_angle_gamma	59.991495
loop_
_atom_site_label
_atom_site_type_symbol
_atom_site_fract_x
_atom_site_fract_y
_atom_site_fract_z
O1	O	0.095954	-1.011347	0.845684
O2	O	0.036156	-0.787405	0.681392
O3	O	0.177960	-0.929104	0.681276
O4	O	-0.045850	-0.869648	0.845799
O5	O	0.225008	-0.882072	0.728208
O6	O	0.083204	-0.740373	0.728324
O7	O	0.143002	-0.964315	0.892616
Cu8	Cu	0.117399	-0.848050	0.814755
Cu9	Cu	0.061759	-0.903670	0.759252
O10	O	0.001198	-0.822616	0.892732
N11	N	0.156535	-0.808935	0.853797
N12	N	0.022631	-0.942793	0.720211
C13	C	0.182113	-0.653200	0.879374
C14	C	0.182221	-0.783395	1.009518
C15	C	0.312319	-0.783375	0.879314
C16	C	0.182127	-0.783371	0.879357
C17	C	0.214696	-0.750836	0.911890
C18	C	-0.132988	-0.968144	0.694232
C19	C	-0.002674	-0.968326	0.564242
C20	C	-0.002907	-1.098444	0.694459
C21	C	-0.002887	-0.968321	0.694542
C22	C	-0.035363	-1.000810	0.661869
N23	N	0.389025	-0.808944	0.853717
O24	O	0.660019	-0.816766	0.651282
O25	O	0.660312	-0.981573	0.874999
O26	O	0.660193	-0.981192	0.733108
O27	O	0.660138	-0.817147	0.793174
O28	O	0.519202	-0.934278	0.780210
O29	O	0.519321	-0.934658	0.922102
O30	O	0.519028	-0.769852	0.698384
Cu31	Cu	0.506300	-0.847971	0.814544
Cu32	Cu	0.673039	-0.903453	0.758840
O33	O	0.519147	-0.770232	0.840276
N34	N	0.790314	-0.942480	0.719658
N35	N	0.156514	-0.576494	0.853827
O36	O	-0.045823	-0.305328	0.845846
O37	O	0.177892	-0.305317	0.681053
O38	O	0.035967	-0.305340	0.681465
O39	O	0.096102	-0.305306	0.845434
O40	O	0.083020	-0.446347	0.728459
O41	O	0.224945	-0.446325	0.728047
O42	O	0.001230	-0.446335	0.892839
Cu43	Cu	0.117383	-0.459205	0.814734
Cu44	Cu	0.061738	-0.292448	0.759159
O45	O	0.143154	-0.446313	0.892428
N46	N	0.022597	-0.175159	0.720067
N47	N	0.156703	-0.808977	1.086224
O48	O	0.148753	-1.011298	1.357359
O49	O	-0.016009	-0.787491	1.357400
O50	O	-0.015627	-0.929387	1.357339
O51	O	0.148372	-0.869401	1.357420
O52	O	0.031342	-0.882367	1.216340
O53	O	0.030961	-0.740471	1.216400
O54	O	0.195723	-0.964278	1.216360
Cu55	Cu	0.117631	-0.848081	1.203506
Cu56	Cu	0.062083	-0.903688	1.370254
O57	O	0.195341	-0.822381	1.216420
N58	N	0.023010	-0.942801	1.487536
C59	C	0.054075	-0.735670	0.682223
C60	C	0.229681	-0.911148	0.682079
C61	C	0.125082	-1.016051	0.891784
C62	C	-0.050524	-0.840572	0.891928
C63	C	0.589851	-0.980810	0.926735
C64	C	0.589706	-0.980340	0.751019
C65	C	0.589484	-0.770613	0.646650
C66	C	0.589634	-0.771085	0.822364
C67	C	0.229543	-0.375646	0.681799
C68	C	0.053845	-0.375847	0.682366
C69	C	-0.050480	-0.375832	0.892036
C70	C	0.125277	-0.375807	0.891527
C71	C	-0.015214	-0.735785	1.286905
C72	C	-0.014732	-0.911497	1.286802
C73	C	0.194928	-1.015984	1.286855
C74	C	0.194457	-0.840261	1.286926
H75	H	0.041301	-0.671339	0.630625
C76	C	0.316519	-0.928262	0.612278
C77	C	0.386318	-1.015136	0.629361
C78	C	0.473155	-1.032250	0.559560
C79	C	0.490194	-0.962490	0.472677
C80	C	0.420393	-0.875609	0.455590
C81	C	0.333556	-0.858496	0.525391
H82	H	0.373707	-1.066783	0.693681
H83	H	0.524827	-1.096565	0.572210
H84	H	0.554476	-0.975158	0.421006
H85	H	0.433004	-0.823963	0.391270
H86	H	0.281884	-0.794181	0.512742
C87	C	0.589959	-1.050711	1.013534
C88	C	0.590025	-1.137553	1.030463
C89	C	0.590133	-1.207453	1.117261
C90	C	0.590176	-1.190512	1.187130
C91	C	0.590110	-1.103667	1.170203
C92	C	0.590002	-1.033766	1.083405
H93	H	0.589993	-1.150097	0.978740
H94	H	0.590181	-1.271742	1.129792
H95	H	0.590256	-1.242257	1.251384
H96	H	0.590142	-1.091123	1.221926
H97	H	0.589954	-0.969477	1.070874
C98	C	0.589609	-0.701462	0.839722
C99	C	0.662759	-0.664928	0.784814
C100	C	0.662734	-0.595305	0.802172
C101	C	0.589558	-0.562216	0.874438
C102	C	0.516402	-0.598749	0.929352
C103	C	0.516427	-0.668372	0.911994
H104	H	0.716934	-0.689423	0.731313
H105	H	0.716890	-0.568261	0.761521
H106	H	0.589539	-0.510676	0.887288
H107	H	0.462227	-0.574254	0.982852
H108	H	0.462271	-0.695417	0.952645
C109	C	0.142331	-1.102954	0.961496
C110	C	0.229236	-1.172673	0.944284
C111	C	0.246485	-1.259576	1.013996
C112	C	0.176829	-1.276762	1.100921
C113	C	0.089918	-1.207041	1.118138
C114	C	0.072669	-1.120137	1.048425
H115	H	0.280805	-1.159953	0.879934
H116	H	0.310823	-1.311188	1.001251
H117	H	0.189597	-1.341093	1.152527
H118	H	0.038349	-1.219761	1.182488
H119	H	0.008331	-1.068526	1.061170
C120	C	-0.137363	-0.823460	0.961727
C121	C	-0.192024	-0.878486	0.998247
C122	C	-0.278863	-0.861374	1.068046
C123	C	-0.311042	-0.789237	1.101325
C124	C	-0.256381	-0.734207	1.064804
C125	C	-0.169542	-0.751319	0.995005
H126	H	-0.168204	-0.931890	0.973613
H127	H	-0.319327	-0.902111	1.095081
H128	H	-0.375326	-0.776570	1.152994
H129	H	-0.280201	-0.680802	1.089439
H130	H	-0.129078	-0.710581	0.967970
C131	C	0.316155	-0.375108	0.611725
C132	C	0.385955	-0.374826	0.628554
C133	C	0.472567	-0.374288	0.558481
C134	C	0.489380	-0.374030	0.471578
C135	C	0.419579	-0.374312	0.454746
C136	C	0.332967	-0.374850	0.524819
H137	H	0.373510	-0.375017	0.692888
H138	H	0.524239	-0.374080	0.570942
H139	H	0.553496	-0.373632	0.419706
H140	H	0.432023	-0.374121	0.390412
H141	H	0.281295	-0.375058	0.512358
H142	H	0.040966	-0.375849	0.630853
H143	H	-0.114728	-0.375837	0.943771
C144	C	-0.085100	-0.648952	1.286920
C145	C	-0.068166	-0.579091	1.286956
C146	C	-0.138052	-0.492259	1.286971
C147	C	-0.224871	-0.475287	1.286949
C148	C	-0.241809	-0.545150	1.286913
C149	C	-0.171923	-0.631983	1.286898
H150	H	-0.003894	-0.591653	1.286972
H151	H	-0.125513	-0.440542	1.286997
H152	H	-0.276605	-0.411008	1.286960
H153	H	-0.306081	-0.532588	1.286897
H154	H	-0.184462	-0.683700	1.286871
C155	C	-0.084309	-0.928794	1.286686
C156	C	-0.066940	-1.015727	1.286613
C157	C	-0.136517	-1.033025	1.286497
C158	C	-0.223463	-0.963388	1.286456
C159	C	-0.240837	-0.876449	1.286529
C160	C	-0.171260	-0.859152	1.286645
H161	H	-0.002573	-1.067282	1.286644
H162	H	-0.123655	-1.097383	1.286443
H163	H	-0.274968	-0.976193	1.286370
H164	H	-0.305204	-0.824895	1.286499
H165	H	-0.184122	-0.794793	1.286699
C166	C	0.264814	-1.102817	1.286840
C167	C	0.247880	-1.172678	1.286804
C168	C	0.317766	-1.259510	1.286790
C169	C	0.404585	-1.276482	1.286812
C170	C	0.421522	-1.206619	1.286848
C171	C	0.351637	-1.119786	1.286862
H172	H	0.183608	-1.160116	1.286788
H173	H	0.305227	-1.311227	1.286764
H174	H	0.456318	-1.340761	1.286801
H175	H	0.485795	-1.219181	1.286864
H176	H	0.364176	-1.068069	1.286889
H177	H	0.589730	-1.031874	0.738162
C178	C	0.589362	-0.700707	0.559856
C179	C	0.589312	-0.717646	0.489989
C180	C	0.589191	-0.647741	0.403196
C181	C	0.589119	-0.560897	0.386269
C182	C	0.589168	-0.543954	0.456137
C183	C	0.589290	-0.613860	0.542931
H184	H	0.589366	-0.781936	0.502518
H185	H	0.589154	-0.660283	0.351474
H186	H	0.589028	-0.509149	0.322019
H187	H	0.589115	-0.479664	0.443609
H188	H	0.589327	-0.601317	0.594652
H189	H	0.138154	-0.375795	0.943037
H190	H	0.245979	-0.827427	1.286940
