data_functionalizedCrystal
_audit_creation_method	'MofGen! by Chris Wilmer'
_symmetry_space_group_name_H-M	'P1'
_symmetry_Int_Tables_number	1
_symmetry_cell_setting	triclinic
loop_
_symmetry_equiv_pos_as_xyz
  x,y,z
_cell_length_a	18.215405
_cell_length_b	18.215407
_cell_length_c	21.395355
_cell_angle_alpha	89.977330
_cell_angle_beta	89.980149
_cell_angle_gamma	90.019398
loop_
_atom_site_label
_atom_site_type_symbol
_atom_site_fract_x
_atom_site_fract_y
_atom_site_fract_z
Zn1	Zn	-0.293177	1.125107	-0.354224
Zn2	Zn	-0.416226	1.125005	-0.249444
Zn3	Zn	-0.293166	1.002029	-0.249464
Zn4	Zn	-0.416195	1.002006	-0.354188
O5	O	-0.354691	1.063537	-0.301830
O6	O	-0.309518	1.228078	-0.340332
O7	O	-0.399909	1.108659	-0.161769
O8	O	-0.190183	1.018408	-0.263384
O9	O	-0.399921	1.228003	-0.263350
O10	O	-0.190191	1.108833	-0.340351
O11	O	-0.309498	1.018310	-0.161784
O12	O	-0.309468	0.899042	-0.263349
O13	O	-0.399868	1.018368	-0.441871
O14	O	-0.399857	0.899024	-0.340289
O15	O	-0.309488	1.108810	-0.441897
O16	O	-0.519206	1.108636	-0.263315
O17	O	-0.519183	1.018269	-0.340270
C18	C	-0.354658	0.872331	-0.301818
C19	C	-0.354662	0.790532	-0.301827
C20	C	-0.307709	0.525507	-0.341978
C21	C	-0.307697	0.602366	-0.341976
C22	C	-0.401697	0.602307	-0.261696
C23	C	-0.401712	0.525450	-0.261701
C24	C	-0.354714	0.487052	-0.301842
C25	C	-0.354687	0.640768	-0.301834
C26	C	-0.354674	0.724102	-0.301832
C27	C	-0.354727	0.403713	-0.301845
C28	C	-0.545897	1.063459	-0.301800
C29	C	-0.627696	1.063493	-0.301808
C30	C	-0.815877	1.110658	-0.261811
C31	C	-0.892736	1.110691	-0.261827
C32	C	-0.892752	1.016510	-0.341894
C33	C	-0.815895	1.016481	-0.341881
C34	C	-0.777459	1.063554	-0.301837
C35	C	-0.931176	1.063616	-0.301864
C36	C	-1.014509	1.063651	-0.301881
C37	C	-0.694121	1.063520	-0.301821
C38	C	-0.162738	1.063635	-0.301874
C39	C	-0.080939	1.063677	-0.301893
C40	C	-0.354676	1.063598	-0.465253
C41	C	-0.354670	1.063624	-0.534895
C42	C	-0.354724	1.255490	-0.301843
C43	C	-0.354738	1.337289	-0.301848
C44	C	-0.307607	1.110715	-0.567623
C45	C	-0.307575	1.110714	-0.633058
C46	C	-0.354619	1.063630	-0.665763
C47	C	-0.401686	1.016529	-0.633027
C48	C	-0.401711	1.016526	-0.567593
C49	C	-0.420883	1.057792	-0.769427
C50	C	-0.420859	1.057800	-0.834860
C51	C	-0.354542	1.063634	-0.867584
C52	C	-0.288246	1.069476	-0.834866
C53	C	-0.288271	1.069473	-0.769432
C54	C	-0.354597	1.063627	-0.736716
C55	C	-0.307440	1.110727	-0.971265
C56	C	-0.307407	1.110721	-1.036701
C57	C	-0.401525	1.016540	-1.036669
C58	C	-0.401551	1.016542	-0.971234
C59	C	-0.354510	1.063639	-0.938535
C60	C	-0.354653	1.063518	-0.139043
C61	C	-0.354452	1.063635	-0.069402
H62	H	-0.439960	0.633580	-0.229014
H63	H	-0.269439	0.494246	-0.374663
O64	O	-0.262070	0.639640	-0.381050
C65	C	-0.278270	0.620902	-0.443474
H66	H	-0.306573	0.565095	-0.444733
H67	H	-0.225202	0.618295	-0.471646
H68	H	-0.316131	0.664163	-0.464521
H69	H	-0.784585	1.148989	-0.229206
O70	O	-0.447398	0.488203	-0.222651
C71	C	-0.488886	0.538573	-0.187228
H72	H	-0.458729	0.593364	-0.185096
H73	H	-0.496660	0.516334	-0.137854
H74	H	-0.544814	0.546752	-0.210089
H75	H	-0.924012	1.149048	-0.229235
H76	H	-0.269132	1.149072	-0.944640
O77	O	-0.930204	0.970804	-0.380728
C78	C	-1.006279	0.980940	-0.372167
H79	H	-1.016789	1.005078	-0.323835
H80	H	-1.035524	0.925823	-0.376376
H81	H	-1.028040	1.020113	-0.409366
H82	H	-0.784613	0.978124	-0.374478
O83	O	-0.261837	1.156482	-0.535958
C84	C	-0.220304	1.198059	-0.578882
H85	H	-0.217735	1.167919	-0.625517
H86	H	-0.162328	1.205939	-0.559981
H87	H	-0.247261	1.253938	-0.585856
H88	H	-0.440034	0.978176	-0.540946
H89	H	-0.269079	1.149067	-1.063347
H90	H	-0.269246	1.149060	-0.659711
O91	O	-0.223809	1.075113	-0.737747
C92	C	-0.165267	1.080284	-0.780654
H93	H	-0.182665	1.055551	-0.827292
H94	H	-0.115808	1.049048	-0.761737
H95	H	-0.149990	1.140431	-0.787629
O96	O	-0.223823	1.075001	-0.866668
C97	C	-0.214329	1.012357	-0.904501
H98	H	-0.248115	0.965025	-0.884765
H99	H	-0.153834	0.996364	-0.905228
H100	H	-0.233360	1.025028	-0.954100
H101	H	-0.439822	0.978195	-1.063297
O102	O	-0.447342	0.970777	-0.939535
C103	C	-0.488845	0.929203	-0.982430
H104	H	-0.491383	0.959348	-1.029083
H105	H	-0.546833	0.921319	-0.963519
H106	H	-0.461880	0.873326	-0.989373
O107	O	-0.485318	1.052088	-0.866542
C108	C	-0.543857	1.046944	-0.823631
H109	H	-0.522415	1.025626	-0.776982
H110	H	-0.587122	1.007546	-0.842525
H111	H	-0.569370	1.103499	-0.816687
O112	O	-0.485285	1.052207	-0.737598
C113	C	-0.494847	1.114846	-0.699771
H114	H	-0.439138	1.140927	-0.689942
H115	H	-0.521714	1.098185	-0.653770
H116	H	-0.531418	1.156074	-0.725013
O117	O	-0.447489	0.970829	-0.664724
C118	C	-0.520846	0.986885	-0.648748
H119	H	-0.522393	1.015171	-0.601246
H120	H	-0.553837	0.933755	-0.646492
H121	H	-0.545628	1.024711	-0.685585
