data_functionalizedCrystal
_audit_creation_method	'MofGen! by Chris Wilmer'
_symmetry_space_group_name_H-M	'P1'
_symmetry_Int_Tables_number	1
_symmetry_cell_setting	triclinic
loop_
_symmetry_equiv_pos_as_xyz
  x,y,z
_cell_length_a	19.288840
_cell_length_b	16.109304
_cell_length_c	17.766277
_cell_angle_alpha	89.996447
_cell_angle_beta	89.983415
_cell_angle_gamma	83.294327
loop_
_atom_site_label
_atom_site_type_symbol
_atom_site_fract_x
_atom_site_fract_y
_atom_site_fract_z
O1	O	0.921612	0.103617	-0.062715
O2	O	0.719383	0.117629	-0.062689
O3	O	0.826052	-0.010427	-0.062703
O4	O	0.814943	0.231673	-0.062701
O5	O	0.826033	-0.010434	0.062485
O6	O	0.719364	0.117623	0.062500
O7	O	0.921594	0.103610	0.062473
Cu8	Cu	0.820477	0.110616	0.073917
Cu9	Cu	0.820499	0.110624	-0.074133
O10	O	0.814924	0.231667	0.062488
C11	C	0.693496	0.117179	-0.000091
C12	C	0.616388	0.115836	-0.000081
C13	C	0.580193	0.115194	-0.068323
C14	C	0.507743	0.113923	-0.068332
C15	C	0.471493	0.113277	-0.000096
C16	C	0.507696	0.113923	0.068156
C17	C	0.580143	0.115203	0.068163
C18	C	0.362036	0.062549	0.052172
C19	C	0.289590	0.061264	0.052162
C20	C	0.248040	0.109334	-0.000115
C21	C	0.278945	0.158677	-0.052395
C22	C	0.351393	0.159957	-0.052388
C23	C	0.392935	0.111890	-0.000096
C24	C	0.133286	0.107315	-0.068372
C25	C	0.060834	0.106049	-0.068379
C26	C	0.060789	0.106041	0.068111
C27	C	0.133239	0.107315	0.068116
C28	C	0.169483	0.107948	-0.000128
C29	C	0.825592	-0.041404	-0.000111
C30	C	0.824242	-0.133694	-0.000115
C31	C	0.821133	-0.346017	-0.068353
C32	C	0.819858	-0.432733	-0.068352
C33	C	0.819841	-0.432737	0.068136
C34	C	0.821111	-0.346022	0.068134
C35	C	0.821761	-0.302665	-0.000112
C36	C	0.819216	-0.476095	-0.000110
C37	C	0.817833	-0.570116	-0.000108
C38	C	0.823142	-0.208638	-0.000114
C39	C	0.947481	0.104061	-0.000126
C40	C	1.024589	0.105404	-0.000141
C41	C	0.815384	0.262643	-0.000107
C42	C	0.816734	0.354934	-0.000107
N43	N	0.820467	0.110610	0.178048
N44	N	0.820515	0.110623	-0.178263
C45	C	0.867715	0.053934	0.217428
C46	C	0.867719	0.053930	0.296230
C47	C	0.820481	0.110617	0.335648
C48	C	0.773224	0.167297	0.296258
C49	C	0.773217	0.167294	0.217458
C50	C	0.811364	0.186371	0.460488
C51	C	0.811376	0.186375	0.539286
C52	C	0.820500	0.110627	0.578694
C53	C	0.829626	0.034870	0.539294
C54	C	0.829619	0.034867	0.460494
C55	C	0.820484	0.110626	0.421094
C56	C	0.867755	0.053942	0.703521
C57	C	0.867754	0.053937	0.782324
C58	C	0.773263	0.167311	0.782351
C59	C	0.773260	0.167308	0.703549
C60	C	0.820510	0.110625	0.664139
H61	H	0.376553	0.200136	-0.094955
O62	O	0.821816	-0.303828	0.134379
C63	C	0.882678	-0.263332	0.138459
H64	H	0.902920	-0.253559	0.079205
H65	H	0.870044	-0.200183	0.167339
H66	H	0.924283	-0.303505	0.172133
O67	O	0.472512	0.113182	-0.134579
C68	C	0.438517	0.040440	-0.138668
H69	H	0.430276	0.016252	-0.079416
H70	H	0.385806	0.055726	-0.167556
H71	H	0.471978	-0.009479	-0.172338
O72	O	0.025784	0.105390	-0.134740
C73	C	0.073311	0.106242	-0.194968
H74	H	0.127832	0.080837	-0.174954
H75	H	0.056819	0.065514	-0.242694
H76	H	0.073714	0.173062	-0.215956
H77	H	0.906187	0.007777	0.185342
H78	H	0.031274	0.105519	0.123671
O79	O	0.913682	-0.001007	0.820665
C80	C	0.956528	0.043391	0.866213
H81	H	0.928844	0.108535	0.878023
H82	H	0.967530	0.008655	0.921625
H83	H	1.007857	0.048883	0.835825
O84	O	0.913682	-0.001162	0.334378
C85	C	0.955367	-0.051211	0.282696
H86	H	0.956143	-0.017130	0.226520
H87	H	1.010839	-0.064071	0.305447
H88	H	0.932830	-0.112903	0.274330
O89	O	0.838455	-0.038792	0.422337
C90	C	0.846529	-0.105654	0.474008
H91	H	0.822112	-0.084175	0.530191
H92	H	0.819549	-0.159745	0.451255
H93	H	0.904452	-0.127108	0.482362
O94	O	0.402296	0.015767	0.102985
C95	C	0.359485	-0.028049	0.149130
H96	H	0.308495	-0.034834	0.118567
H97	H	0.387536	-0.092662	0.162324
H98	H	0.347805	0.007914	0.203813
O99	O	0.819125	-0.474935	0.134378
C100	C	0.758264	-0.515434	0.138485
H101	H	0.738033	-0.525206	0.079240
H102	H	0.770894	-0.578584	0.167364
H103	H	0.716651	-0.475264	0.172173
H104	H	0.821660	-0.310718	-0.123923
H105	H	0.264433	0.021082	0.094728
H106	H	0.837055	-0.026812	0.571378
O107	O	0.727345	0.222262	0.820714
C108	C	0.684499	0.177871	0.866301
H109	H	0.712181	0.112726	0.878102
H110	H	0.673504	0.212610	0.921715
H111	H	0.633167	0.172381	0.835952
O112	O	0.819283	-0.474721	-0.134708
C113	C	0.820108	-0.417852	-0.194939
H114	H	0.842991	-0.359569	-0.174936
H115	H	0.853448	-0.448314	-0.242673
H116	H	0.764556	-0.399687	-0.215913
O117	O	0.913672	-0.001204	0.665349
C118	C	0.955384	-0.051223	0.717010
H119	H	0.926911	-0.052071	0.773192
H120	H	0.965994	-0.117654	0.694242
H121	H	1.006974	-0.024391	0.725369
H122	H	0.734789	0.213463	0.671483
H123	H	0.478176	0.113399	0.123714
O124	O	0.727389	0.222470	0.179235
C125	C	0.738648	0.304738	0.198496
H126	H	0.794257	0.304969	0.220137
H127	H	0.730645	0.346490	0.146674
H128	H	0.700146	0.329279	0.244249
O129	O	0.615288	0.115849	-0.134680
C130	C	0.567802	0.114988	-0.194915
H131	H	0.513266	0.140392	-0.174914
H132	H	0.584324	0.155712	-0.242644
H133	H	0.567416	0.048165	-0.215896
O134	O	0.802473	0.260035	0.577440
C135	C	0.794426	0.326892	0.525762
H136	H	0.775344	0.303953	0.469602
H137	H	0.754689	0.378755	0.548544
H138	H	0.846735	0.352031	0.517354
H139	H	0.734761	0.213450	0.328356
O140	O	0.238556	0.205477	-0.103085
C141	C	0.190260	0.262793	-0.064549
H142	H	0.210872	0.274084	-0.005751
H143	H	0.182706	0.324366	-0.096800
H144	H	0.138149	0.236279	-0.059937
O145	O	0.168543	0.107794	-0.134642
C146	C	0.218354	0.036553	-0.138722
H147	H	0.202026	-0.014153	-0.100001
H148	H	0.221843	0.012411	-0.199081
H149	H	0.271472	0.053794	-0.120384
O150	O	0.168300	0.107890	0.134475
C151	C	0.120770	0.107068	0.194702
H152	H	0.072018	0.079842	0.174691
H153	H	0.146111	0.067079	0.242432
H154	H	0.105746	0.173617	0.215686
O155	O	0.615204	0.115782	0.134524
C156	C	0.567674	0.114964	0.194753
H157	H	0.518921	0.087741	0.174743
H158	H	0.593014	0.074974	0.242482
H159	H	0.552654	0.181514	0.215736
O160	O	0.802602	0.259907	0.422124
C161	C	0.861563	0.266427	0.376532
H162	H	0.889317	0.201316	0.364728
H163	H	0.844318	0.298033	0.321121
H164	H	0.898731	0.305202	0.406880
