data_functionalizedCrystal
_audit_creation_method	'MofGen! by Chris Wilmer'
_symmetry_space_group_name_H-M	'P1'
_symmetry_Int_Tables_number	1
_symmetry_cell_setting	triclinic
loop_
_symmetry_equiv_pos_as_xyz
  x,y,z
_cell_length_a	11.792241
_cell_length_b	11.792241
_cell_length_c	15.455313
_cell_angle_alpha	92.683265
_cell_angle_beta	87.304628
_cell_angle_gamma	84.193416
loop_
_atom_site_label
_atom_site_type_symbol
_atom_site_fract_x
_atom_site_fract_y
_atom_site_fract_z
O1	O	1.511847	0.150640	-0.072047
O2	O	1.181508	0.166671	-0.072067
O3	O	1.354694	-0.006515	-0.072050
O4	O	1.338662	0.323825	-0.072063
O5	O	1.344790	0.003348	0.072211
O6	O	1.171604	0.176534	0.072194
O7	O	1.501944	0.160502	0.072215
Cu8	Cu	1.335869	0.169418	0.085377
Cu9	Cu	1.347582	0.157755	-0.085229
O10	O	1.328758	0.333688	0.072198
C11	C	1.134265	0.170595	0.000061
C12	C	1.008252	0.167580	0.000054
C13	C	0.777538	0.162039	0.000079
C14	C	0.905924	0.165118	0.000065
C15	C	1.348735	-0.043874	0.000080
C16	C	1.345720	-0.169888	0.000079
C17	C	1.340178	-0.400601	0.000064
C18	C	1.343257	-0.272216	0.000072
C19	C	1.549186	0.156578	0.000085
C20	C	1.675200	0.159593	0.000086
C21	C	1.334717	0.371048	0.000066
C22	C	1.337732	0.497061	0.000061
N23	N	1.327640	0.177621	0.205371
N24	N	1.355820	0.149543	-0.205224
C25	C	1.401241	0.104073	0.250773
C26	C	1.395028	0.110287	0.341580
C27	C	1.315218	0.190056	0.386984
C28	C	1.241609	0.263607	0.341577
C29	C	1.247818	0.257386	0.250771
C30	C	1.288420	0.216874	0.658563
C31	C	1.282219	0.223091	0.749375
C32	C	1.435637	0.069769	0.749372
C33	C	1.441843	0.063561	0.658565
C34	C	1.368230	0.137108	0.613165
N35	N	1.308868	0.196412	0.479804
N36	N	1.374576	0.130746	0.520347
H37	H	1.466235	0.039122	0.213810
N38	N	1.527935	-0.022467	0.609597
H39	H	1.520707	-0.015239	0.545183
H40	H	1.607436	-0.007704	0.625467
H41	H	1.187882	0.317276	0.213806
N42	N	1.155535	0.349650	0.390547
H43	H	1.109850	0.395298	0.348004
H44	H	1.102519	0.308443	0.428237
N45	N	1.474453	0.030986	0.390537
H46	H	1.462009	-0.050751	0.374746
H47	H	1.556113	0.043661	0.374681
H48	H	1.495568	0.009889	0.786345
N49	N	1.196143	0.309130	0.798360
H50	H	1.210782	0.388693	0.782544
H51	H	1.116622	0.294336	0.782562
N52	N	1.209021	0.296190	0.609603
H53	H	1.157523	0.347665	0.652148
H54	H	1.255342	0.344084	0.571910
