data_functionalizedCrystal
_audit_creation_method	'MofGen! by Chris Wilmer'
_symmetry_space_group_name_H-M	'P1'
_symmetry_Int_Tables_number	1
_symmetry_cell_setting	triclinic
loop_
_symmetry_equiv_pos_as_xyz
  x,y,z
_cell_length_a	16.992694
_cell_length_b	15.944499
_cell_length_c	16.053802
_cell_angle_alpha	92.568450
_cell_angle_beta	87.249047
_cell_angle_gamma	87.072916
loop_
_atom_site_label
_atom_site_type_symbol
_atom_site_fract_x
_atom_site_fract_y
_atom_site_fract_z
O1	O	1.043673	0.174801	-0.069315
O2	O	0.815389	0.172846	-0.069339
O3	O	0.935786	0.051965	-0.069328
O4	O	0.923276	0.295682	-0.069326
O5	O	0.929159	0.058589	0.069531
O6	O	0.808762	0.179470	0.069519
O7	O	1.037046	0.181425	0.069544
Zn8	Zn	0.921852	0.181499	0.091578
Zn9	Zn	0.930583	0.172772	-0.091374
O10	O	0.916649	0.302306	0.069532
C11	C	0.782863	0.173644	0.000087
C12	C	0.695820	0.166143	0.000077
C13	C	0.645571	0.238509	0.000078
C14	C	0.563785	0.231458	0.000089
C15	C	0.532250	0.152039	0.000094
C16	C	0.582505	0.079668	0.000095
C17	C	0.664290	0.086721	0.000090
C18	C	0.288654	0.122809	0.000116
C19	C	0.206864	0.115761	0.000119
C20	C	0.188149	0.267552	0.000115
C21	C	0.269936	0.274597	0.000104
C22	C	0.320184	0.202226	0.000110
N23	N	0.448651	0.144829	0.000103
N24	N	0.403781	0.209437	0.000107
C25	C	0.931960	0.023948	0.000099
C26	C	0.930425	-0.069404	0.000093
C27	C	1.000372	-0.356248	0.000105
C28	C	0.960744	-0.294395	0.068568
C29	C	0.924846	-0.405414	0.000102
C30	C	0.967258	-0.300934	-0.068335
C31	C	0.927591	-0.240321	0.000096
C32	C	0.885194	-0.344788	0.068622
C33	C	0.891721	-0.351335	-0.068343
C34	C	0.852037	-0.289503	0.000137
C35	C	0.923267	-0.500520	0.000106
C36	C	0.929164	-0.145217	0.000098
C37	C	1.069571	0.180627	0.000116
C38	C	1.156614	0.188127	0.000120
C39	C	0.920474	0.330323	0.000103
C40	C	0.922010	0.423674	0.000104
N41	N	0.915898	0.187456	0.216438
N42	N	0.936542	0.166809	-0.216233
C43	C	0.967146	0.136042	0.260137
C44	C	0.962989	0.140217	0.347543
C45	C	0.907587	0.195811	0.391249
C46	C	0.856334	0.247227	0.347544
C47	C	0.860488	0.243047	0.260139
C48	C	0.889443	0.214045	0.652657
C49	C	0.885294	0.218223	0.740068
C50	C	0.991949	0.111211	0.740061
C51	C	0.996101	0.107040	0.652654
C52	C	0.944845	0.158453	0.608957
N53	N	0.903339	0.200082	0.480592
N54	N	0.949091	0.154177	0.519615
H55	H	0.181192	0.051086	0.000122
N56	N	1.015314	0.087692	0.392202
N57	N	1.061650	0.119945	0.440994
H58	H	1.098593	0.082840	0.472543
H59	H	0.847710	0.255909	0.617085
N60	N	1.010793	-0.276520	-0.140952
N61	N	0.977801	-0.231534	-0.192224
H62	H	1.008551	-0.214293	-0.243508
H63	H	0.671240	0.303180	0.000074
N64	N	0.512468	0.305387	0.000095
N65	N	0.540634	0.376291	0.000087
H66	H	0.504392	0.428508	0.000092
H67	H	0.850510	-0.364146	0.126563
H68	H	1.041213	0.061771	0.617071
H69	H	0.789302	-0.260526	0.000170
H70	H	0.862565	-0.376350	-0.126232
H71	H	0.556822	0.015004	0.000111
N72	N	0.339963	0.048877	0.000118
N73	N	0.311794	-0.022025	0.000118
H74	H	0.348033	-0.074244	0.000117
H75	H	1.012263	0.090775	0.224557
H76	H	0.295606	0.339268	0.000091
N77	N	0.997336	-0.263028	0.141191
N78	N	0.959439	-0.213146	0.192443
H79	H	0.985283	-0.190999	0.243735
H80	H	0.840177	0.263498	0.775649
H81	H	1.033678	0.069352	0.775647
H82	H	0.705203	0.027792	0.000088
H83	H	0.147228	0.326472	0.000112
H84	H	1.063048	-0.385370	0.000177
N85	N	0.799741	0.304004	0.392198
N86	N	0.796039	0.307730	0.470237
H87	H	0.756069	0.347831	0.501775
N88	N	0.808131	0.295568	0.215512
N89	N	0.758667	0.345202	0.254542
H90	H	0.721685	0.382294	0.223026
