data_functionalizedCrystal
_audit_creation_method	'MofGen! by Chris Wilmer'
_symmetry_space_group_name_H-M	'P1'
_symmetry_Int_Tables_number	1
_symmetry_cell_setting	triclinic
loop_
_symmetry_equiv_pos_as_xyz
  x,y,z
_cell_length_a	11.169417
_cell_length_b	13.897448
_cell_length_c	11.169417
_cell_angle_alpha	90.010849
_cell_angle_beta	90.000863
_cell_angle_gamma	90.018571
loop_
_atom_site_label
_atom_site_type_symbol
_atom_site_fract_x
_atom_site_fract_y
_atom_site_fract_z
Zn1	Zn	1.834676	-0.384150	0.678515
Zn2	Zn	2.168010	-0.050816	1.011848
Zn3	Zn	2.501343	0.282517	1.345182
Zn4	Zn	1.834606	-0.545416	0.477821
Zn5	Zn	2.167940	-0.212082	0.811154
Zn6	Zn	2.501273	0.121251	1.144488
Zn7	Zn	1.634029	-0.384139	0.477850
Zn8	Zn	1.967362	-0.050805	0.811183
Zn9	Zn	2.300695	0.282528	1.144516
Zn10	Zn	1.633944	-0.545407	0.678466
Zn11	Zn	1.967277	-0.212073	1.011799
Zn12	Zn	2.300611	0.121260	1.345132
O13	O	1.734314	-0.464778	0.578163
O14	O	2.067647	-0.131444	0.911496
O15	O	2.400981	0.201889	1.244829
O16	O	2.002617	-0.405550	0.651901
O17	O	2.335950	-0.072217	0.985235
O18	O	2.669283	0.261117	1.318568
O19	O	1.808006	-0.524021	0.309875
O20	O	2.141339	-0.190688	0.643208
O21	O	2.474672	0.142646	0.976542
O22	O	1.660710	-0.249159	0.504501
O23	O	1.994043	0.084175	0.837834
O24	O	2.327376	0.417508	1.171168
O25	O	2.002565	-0.524032	0.504452
O26	O	2.335899	-0.190698	0.837785
O27	O	2.669232	0.142635	1.171119
O28	O	1.808125	-0.249167	0.651929
O29	O	2.141458	0.084167	0.985263
O30	O	2.474791	0.417500	1.318596
O31	O	1.660642	-0.405532	0.309896
O32	O	1.993975	-0.072198	0.643229
O33	O	2.327309	0.261135	0.976563
O34	O	1.466068	-0.405523	0.504453
O35	O	1.799401	-0.072190	0.837786
O36	O	2.132734	0.261144	1.171120
O37	O	1.660565	-0.524016	0.846422
O38	O	1.993899	-0.190683	1.179755
O39	O	2.327232	0.142650	1.513088
O40	O	1.466006	-0.524006	0.651845
O41	O	1.799339	-0.190673	0.985178
O42	O	2.132672	0.142661	1.318511
O43	O	1.808043	-0.405541	0.846458
O44	O	2.141376	-0.072208	1.179792
O45	O	2.474709	0.261125	1.513125
O46	O	1.807923	-0.680396	0.504404
O47	O	2.141257	-0.347063	0.837737
O48	O	2.474590	-0.013729	1.171071
O49	O	1.660498	-0.680390	0.651817
O50	O	1.993831	-0.347056	0.985150
O51	O	2.327164	-0.013723	1.318483
C52	C	1.422489	-0.464763	0.578147
C53	C	1.755823	-0.131430	0.911481
C54	C	2.089156	0.201904	1.244814
C55	C	1.289089	-0.464780	0.578169
C56	C	1.622423	-0.131447	0.911503
C57	C	1.955756	0.201887	1.244836
C58	C	1.734226	-0.715392	0.578128
C59	C	2.067560	-0.382059	0.911461
C60	C	2.400893	-0.048725	1.244795
C61	C	1.734299	-0.822606	0.578153
C62	C	2.067632	-0.489273	0.911487
C63	C	2.400965	-0.155939	1.244820
C64	C	1.734425	-1.018901	0.578229
C65	C	2.067758	-0.685568	0.911562
C66	C	2.401091	-0.352234	1.244895
C67	C	1.734351	-0.909669	0.578190
C68	C	2.067685	-0.576335	0.911524
C69	C	2.401018	-0.243002	1.244857
C70	C	2.047356	-0.464793	0.578179
C71	C	2.380689	-0.131460	0.911512
C72	C	2.714023	0.201874	1.244846
C73	C	2.180756	-0.464800	0.578186
C74	C	2.514089	-0.131466	0.911519
C75	C	2.847423	0.201867	1.244853
C76	C	1.734302	-0.464779	0.891205
C77	C	2.067636	-0.131446	1.224538
C78	C	2.400969	0.201887	1.557872
C79	C	1.734297	-0.464780	1.024605
C80	C	2.067631	-0.131446	1.357938
C81	C	2.400964	0.201887	1.691272
C82	C	1.734434	-0.213185	0.578224
C83	C	2.067768	0.120149	0.911557
C84	C	2.401101	0.453482	1.244891
C85	C	1.734486	-0.105971	0.578250
C86	C	2.067819	0.227363	0.911583
C87	C	2.401153	0.560696	1.244917
C88	C	1.734311	-0.464794	1.266338
C89	C	2.067645	-0.131460	1.599671
C90	C	2.400978	0.201873	1.933005
C91	C	1.734301	-0.464781	1.132938
C92	C	2.067634	-0.131448	1.466271
C93	C	2.400967	0.201885	1.799605
