data_functionalizedCrystal
_audit_creation_method	'MofGen! by Chris Wilmer'
_symmetry_space_group_name_H-M	'P1'
_symmetry_Int_Tables_number	1
_symmetry_cell_setting	triclinic
loop_
_symmetry_equiv_pos_as_xyz
  x,y,z
_cell_length_a	9.065218
_cell_length_b	12.503572
_cell_length_c	14.044190
_cell_angle_alpha	93.839403
_cell_angle_beta	89.103864
_cell_angle_gamma	86.427213
loop_
_atom_site_label
_atom_site_type_symbol
_atom_site_fract_x
_atom_site_fract_y
_atom_site_fract_z
O1	O	-1.983627	0.089390	-0.133722
O2	O	-1.555607	0.089381	-0.145136
O3	O	-1.763185	0.089364	-0.001390
O4	O	-1.776049	0.089407	-0.277468
O5	O	-1.747577	-0.089276	-0.012219
O6	O	-1.539998	-0.089259	-0.155965
O7	O	-1.968019	-0.089251	-0.144551
Cu8	Cu	-1.752583	-0.105566	-0.151247
Cu9	Cu	-1.771042	0.105697	-0.138440
O10	O	-1.760440	-0.089234	-0.288297
C11	C	-1.492694	0.000059	-0.149453
C12	C	-1.328487	0.000055	-0.146174
N13	N	-1.739611	-0.254158	-0.160253
C14	C	-1.720529	-0.473271	-0.173510
C15	C	-1.803103	-0.526605	-0.116172
C16	C	-1.792486	-0.648527	-0.123549
C17	C	-1.731144	-0.351338	-0.166135
C18	C	-1.030931	0.000067	-0.140234
C19	C	-1.195137	0.000058	-0.143514
C20	C	-1.749755	0.000041	0.028558
C21	C	-1.732973	0.000031	0.133927
N22	N	-1.784026	0.254288	-0.129426
C23	C	-1.773871	0.000092	-0.318245
C24	C	-1.790654	0.000109	-0.423614
C25	C	-1.821313	0.000075	0.383458
C26	C	-1.702320	0.000065	0.326850
C27	C	-1.719379	0.000046	0.219498
C28	C	-1.804256	0.000094	0.490820
H29	H	-1.641867	-0.519172	-0.228136
O30	O	-1.896995	-0.472015	-0.050923
C31	C	-1.971722	-0.545616	0.000920
H32	H	-1.904140	-0.625821	-0.002304
H33	H	-2.084552	-0.557517	-0.031469
C34	C	-2.075229	-0.403087	0.109614
C35	C	-1.992217	-0.501593	0.105662
H36	H	-2.087879	-0.375931	0.174224
H37	H	-2.024890	-0.353499	0.074685
H38	H	-2.169246	-0.413017	0.082619
H39	H	-1.898197	-0.491659	0.132646
H40	H	-2.042542	-0.551179	0.140598
O41	O	-1.565602	0.000019	0.365362
C42	C	-1.578779	0.000063	0.465530
H43	H	-1.688082	-0.033747	0.485622
H44	H	-1.575550	0.085770	0.498330
C45	C	-1.315638	-0.028467	0.478821
C46	C	-1.449880	-0.070002	0.503499
H47	H	-1.236125	-0.071682	0.502244
H48	H	-1.306758	-0.028493	0.411337
H49	H	-1.312968	0.042954	0.506156
H50	H	-1.452556	-0.141417	0.476154
H51	H	-1.458757	-0.069990	0.570980
H52	H	-1.935988	0.000066	0.351299
