data_functionalizedCrystal
_audit_creation_method	'MofGen! by Chris Wilmer'
_symmetry_space_group_name_H-M	'P1'
_symmetry_Int_Tables_number	1
_symmetry_cell_setting	triclinic
loop_
_symmetry_equiv_pos_as_xyz
  x,y,z
_cell_length_a	27.731994
_cell_length_b	27.731996
_cell_length_c	26.210047
_cell_angle_alpha	89.998501
_cell_angle_beta	89.997128
_cell_angle_gamma	82.620961
loop_
_atom_site_label
_atom_site_type_symbol
_atom_site_fract_x
_atom_site_fract_y
_atom_site_fract_z
O1	O	0.640938	0.057387	-0.042363
O2	O	0.974271	0.390720	0.290971
O3	O	1.307604	0.724053	0.624304
O4	O	0.500139	0.066160	-0.042381
O5	O	0.833472	0.399493	0.290953
O6	O	1.166805	0.732827	0.624286
O7	O	0.574924	-0.008626	-0.042360
O8	O	0.908258	0.324707	0.290973
O9	O	1.241591	0.658041	0.624307
O10	O	0.566152	0.132173	-0.042383
O11	O	0.899485	0.465506	0.290950
O12	O	1.232819	0.798839	0.624283
O13	O	0.574910	-0.008614	0.042498
O14	O	0.908243	0.324719	0.375831
O15	O	1.241576	0.658052	0.709165
O16	O	0.500124	0.066172	0.042477
O17	O	0.833458	0.399505	0.375811
O18	O	1.166791	0.732838	0.709144
O19	O	0.640923	0.057398	0.042495
O20	O	0.974257	0.390732	0.375829
O21	O	1.307590	0.724065	0.709162
Cu22	Cu	0.570522	0.061786	0.050235
Cu23	Cu	0.903856	0.395119	0.383568
Cu24	Cu	1.237189	0.728453	0.716901
Cu25	Cu	0.570540	0.061772	-0.050120
Cu26	Cu	0.903873	0.395106	0.283213
Cu27	Cu	1.237206	0.728439	0.616547
O28	O	0.566138	0.132184	0.042475
O29	O	0.899471	0.465518	0.375808
O30	O	1.232804	0.798851	0.709141
C31	C	0.482124	0.065986	0.000046
C32	C	0.815458	0.399319	0.333380
C33	C	1.148791	0.732652	0.666713
C34	C	0.428468	0.065443	0.000040
C35	C	0.761801	0.398777	0.333373
C36	C	1.095135	0.732110	0.666707
C37	C	0.095742	0.062034	0.046316
C38	C	0.429076	0.395367	0.379650
C39	C	0.762409	0.728700	0.712983
C40	C	-0.105915	0.059972	0.046322
C41	C	0.227418	0.393305	0.379656
C42	C	0.560751	0.726639	0.712989
O43	O	-0.131995	0.059690	0.085661
O44	O	0.201339	0.393024	0.418995
O45	O	0.534672	0.726357	0.752328
N46	N	-0.131122	0.059710	0.000066
N47	N	0.202211	0.393043	0.333400
N48	N	0.535544	0.726376	0.666733
C49	C	-0.105911	0.059960	-0.046195
C50	C	0.227422	0.393293	0.287139
C51	C	0.560755	0.726626	0.620472
O52	O	-0.131978	0.059684	-0.085538
O53	O	0.201356	0.393017	0.247795
O54	O	0.534689	0.726351	0.581129
C55	C	0.095746	0.062018	-0.046200
C56	C	0.429079	0.395351	0.287133
C57	C	0.762413	0.728684	0.620467
C58	C	0.120950	0.062285	0.000059
C59	C	0.454283	0.395618	0.333392
C60	C	0.787616	0.728952	0.666726
C61	C	0.120946	0.062301	0.092572
C62	C	0.454279	0.395634	0.425905
C63	C	0.787613	0.728967	0.759238
C64	C	0.171357	0.062819	0.092570
C65	C	0.504690	0.396152	0.425903
C66	C	0.838024	0.729485	0.759236
C67	C	0.196564	0.063070	0.046312
C68	C	0.529898	0.396403	0.379646
C69	C	0.863231	0.729737	0.712979
C70	C	0.171361	0.062803	0.000057
C71	C	0.504694	0.396136	0.333390
C72	C	0.838027	0.729470	0.666724
C73	C	0.120957	0.062264	-0.092460
C74	C	0.454290	0.395597	0.240873
C75	C	0.787623	0.728931	0.574206
C76	C	0.171374	0.062777	-0.092458
C77	C	0.504708	0.396111	0.240876
C78	C	0.838041	0.729444	0.574209
C79	C	0.196578	0.063045	-0.046199
C80	C	0.529911	0.396378	0.287135
C81	C	0.863245	0.729711	0.620468
C82	C	0.246979	0.063572	-0.046202
C83	C	0.580312	0.396906	0.287131
C84	C	0.913646	0.730239	0.620464
N85	N	0.272186	0.063835	0.000054
N86	N	0.605519	0.397168	0.333387
N87	N	0.938853	0.730502	0.666720
C88	C	0.246979	0.063584	0.046311
C89	C	0.580312	0.396917	0.379644
C90	C	0.913645	0.730250	0.712978
C91	C	-0.211784	0.058880	-0.046188
C92	C	0.121549	0.392213	0.287145
C93	C	0.454882	0.725547	0.620478
C94	C	-0.262199	0.058366	-0.046187
C95	C	0.071135	0.391700	0.287146
C96	C	0.404468	0.725033	0.620480
C97	C	-0.262199	0.058378	0.046330
C98	C	0.071134	0.391711	0.379663
C99	C	0.404467	0.725045	0.712997
C100	C	-0.211785	0.058895	0.046328
C101	C	0.121549	0.392228	0.379662
C102	C	0.454882	0.725562	0.712995
C103	C	-0.186578	0.059142	0.000068
C104	C	0.146756	0.392476	0.333401
C105	C	0.480089	0.725809	0.666734
C106	C	0.352845	0.064672	0.046303
C107	C	0.686179	0.398005	0.379637
C108	C	1.019512	0.731339	0.712970
C109	C	0.403261	0.065192	0.046297
C110	C	0.736594	0.398525	0.379631
C111	C	1.069927	0.731859	0.712964
C112	C	0.403257	0.065178	-0.046220
C113	C	0.736590	0.398511	0.287114
C114	C	1.069924	0.731844	0.620447
C115	C	0.352846	0.064660	-0.046214
C116	C	0.686179	0.397994	0.287120
C117	C	1.019513	0.731327	0.620453
C118	C	0.327642	0.064406	0.000052
C119	C	0.660975	0.397739	0.333385
C120	C	0.994308	0.731072	0.666718
O121	O	0.273090	0.063849	-0.085521
O122	O	0.606423	0.397183	0.247813
O123	O	0.939757	0.730516	0.581146
O124	O	0.273055	0.063848	0.085649
O125	O	0.606389	0.397182	0.418982
O126	O	0.939722	0.730515	0.752315
C127	C	0.045331	0.061516	0.046318
C128	C	0.378665	0.394849	0.379652
C129	C	0.711998	0.728182	0.712985
C130	C	0.020127	0.061249	0.000063
C131	C	0.353461	0.394582	0.333396
C132	C	0.686794	0.727916	0.666730
C133	C	0.045335	0.061500	-0.046194
C134	C	0.378668	0.394834	0.287139
C135	C	0.712001	0.728167	0.620472
C136	C	-0.030287	0.060735	0.000064
C137	C	0.303047	0.394069	0.333398
C138	C	0.636380	0.727402	0.666731
C139	C	-0.055494	0.060484	0.046322
C140	C	0.277839	0.393817	0.379655
C141	C	0.611173	0.727151	0.712988
C142	C	-0.030287	0.060746	0.092578
C143	C	0.303046	0.394080	0.425911
C144	C	0.636380	0.727413	0.759244
C145	C	0.020124	0.061264	0.092576
C146	C	0.353457	0.394598	0.425909
C147	C	0.686791	0.727931	0.759242
C148	C	0.020128	0.061238	-0.092450
C149	C	0.353461	0.394571	0.240883
C150	C	0.686795	0.727905	0.574216
C151	C	-0.030283	0.060720	-0.092445
C152	C	0.303050	0.394054	0.240889
C153	C	0.636383	0.727387	0.574222
C154	C	-0.055491	0.060469	-0.046187
C155	C	0.277843	0.393802	0.287146
C156	C	0.611176	0.727136	0.620479
C157	C	0.574737	-0.026628	0.000071
C158	C	0.908070	0.306706	0.333404
C159	C	1.241403	0.640039	0.666737
C160	C	0.574194	-0.080284	0.000076
C161	C	0.907527	0.253050	0.333409
C162	C	1.240861	0.586383	0.666742
C163	C	0.570787	-0.413006	-0.046206
C164	C	0.904120	-0.079672	0.287128
C165	C	1.237454	0.253661	0.620461
C166	C	0.568726	-0.614664	-0.046215
C167	C	0.902059	-0.281330	0.287118
C168	C	1.235393	0.052003	0.620452
O169	O	0.568445	-0.640740	-0.085554
O170	O	0.901779	-0.307406	0.247779
O171	O	1.235112	0.025927	0.581112
N172	N	0.568462	-0.639874	0.000041
N173	N	0.901795	-0.306541	0.333374
N174	N	1.235129	0.026792	0.666707
C175	C	0.568710	-0.614667	0.046302
C176	C	0.902044	-0.281334	0.379635
C177	C	1.235377	0.052000	0.712969
O178	O	0.568434	-0.640737	0.085645
O179	O	0.901767	-0.307403	0.418978
O180	O	1.235100	0.025930	0.752312
C181	C	0.570768	-0.413010	0.046311
C182	C	0.904101	-0.079676	0.379644
C183	C	1.237435	0.253657	0.712977
C184	C	0.571037	-0.387802	0.000052
C185	C	0.904370	-0.054469	0.333385
C186	C	1.237703	0.278864	0.666719
C187	C	0.571055	-0.387798	-0.092461
C188	C	0.904389	-0.054465	0.240873
C189	C	1.237722	0.278868	0.574206
C190	C	0.571573	-0.337387	-0.092458
C191	C	0.904907	-0.004054	0.240875
C192	C	1.238240	0.329280	0.574209
C193	C	0.571823	-0.312184	-0.046200
C194	C	0.905156	0.021150	0.287133
C195	C	1.238490	0.354483	0.620466
C196	C	0.571555	-0.337391	0.000055
C197	C	0.904888	-0.004058	0.333388
C198	C	1.238221	0.329276	0.666721
C199	C	0.571013	-0.387803	0.092571
C200	C	0.904346	-0.054469	0.425905
C201	C	1.237679	0.278864	0.759238
C202	C	0.571526	-0.337385	0.092569
C203	C	0.904859	-0.004052	0.425903
C204	C	1.238193	0.329282	0.759236
C205	C	0.571795	-0.312178	0.046311
C206	C	0.905128	0.021156	0.379644
C207	C	1.238461	0.354489	0.712977
C208	C	0.572322	-0.261777	0.046315
C209	C	0.905656	0.071557	0.379649
C210	C	1.238989	0.404890	0.712982
N211	N	0.572586	-0.236566	0.000060
N212	N	0.905919	0.096768	0.333393
N213	N	1.239253	0.430101	0.666726
C214	C	0.572336	-0.261769	-0.046198
C215	C	0.905670	0.071564	0.287135
C216	C	1.239003	0.404897	0.620469
C217	C	0.567631	-0.720540	0.046294
C218	C	0.900964	-0.387207	0.379627
C219	C	1.234298	-0.053874	0.712961
C220	C	0.567118	-0.770954	0.046292
C221	C	0.900451	-0.437621	0.379625
C222	C	1.233784	-0.104288	0.712959
C223	C	0.567132	-0.770947	-0.046225
C224	C	0.900466	-0.437614	0.287108
C225	C	1.233799	-0.104281	0.620442
C226	C	0.567649	-0.720533	-0.046222
C227	C	0.900983	-0.387199	0.287111
C228	C	1.234316	-0.053866	0.620444
C229	C	0.567895	-0.695329	0.000038
C230	C	0.901228	-0.361996	0.333372
C231	C	1.234562	-0.028663	0.666705
C232	C	0.573424	-0.155903	-0.046189
C233	C	0.906758	0.177431	0.287145
C234	C	1.240091	0.510764	0.620478
C235	C	0.573944	-0.105487	-0.046182
C236	C	0.907278	0.227846	0.287151
C237	C	1.240611	0.561179	0.620485
C238	C	0.573927	-0.105498	0.046335
C239	C	0.907260	0.227835	0.379668
C240	C	1.240594	0.561168	0.713002
C241	C	0.573410	-0.155910	0.046328
C242	C	0.906743	0.177424	0.379662
C243	C	1.240076	0.510757	0.712995
C244	C	0.573157	-0.181110	0.000062
C245	C	0.906490	0.152223	0.333396
C246	C	1.239823	0.485556	0.666729
O247	O	0.572598	-0.235669	0.085634
O248	O	0.905931	0.097665	0.418967
O249	O	1.239264	0.430998	0.752301
O250	O	0.572602	-0.235689	-0.085535
O251	O	0.905936	0.097644	0.247798
O252	O	1.239269	0.430977	0.581131
C253	C	0.570269	-0.463417	-0.046209
C254	C	0.903603	-0.130083	0.287125
C255	C	1.236936	0.203250	0.620458
C256	C	0.570001	-0.488624	0.000046
C257	C	0.903334	-0.155291	0.333380
C258	C	1.236668	0.178042	0.666713
C259	C	0.570251	-0.463421	0.046304
C260	C	0.903584	-0.130087	0.379637
C261	C	1.236917	0.203246	0.712971
C262	C	0.569487	-0.539039	0.000044
C263	C	0.902821	-0.205705	0.333378
C264	C	1.236154	0.127628	0.666711
C265	C	0.569238	-0.564242	-0.046213
C266	C	0.902571	-0.230909	0.287120
C267	C	1.235904	0.102425	0.620453
C268	C	0.569502	-0.539031	-0.092469
C269	C	0.902835	-0.205698	0.240864
C270	C	1.236168	0.127635	0.574198
C271	C	0.570020	-0.488620	-0.092466
C272	C	0.903353	-0.155287	0.240867
C273	C	1.236686	0.178046	0.574200
C274	C	0.569987	-0.488632	0.092560
C275	C	0.903320	-0.155298	0.425893
C276	C	1.236653	0.178035	0.759226
C277	C	0.569469	-0.539043	0.092553
C278	C	0.902803	-0.205709	0.425887
C279	C	1.236136	0.127624	0.759220
C280	C	0.569220	-0.564246	0.046296
C281	C	0.902553	-0.230913	0.379629
C282	C	1.235886	0.102420	0.712962
C283	C	0.658938	0.057573	0.000067
C284	C	0.992271	0.390906	0.333401
C285	C	1.325604	0.724239	0.666734
C286	C	0.712594	0.058115	0.000070
C287	C	1.045927	0.391448	0.333404
C288	C	1.379261	0.724782	0.666737
C289	C	0.566325	0.150186	0.000043
C290	C	0.899658	0.483519	0.333376
C291	C	1.232992	0.816853	0.666710
C292	C	0.566868	0.203842	0.000034
C293	C	0.900201	0.537175	0.333368
C294	C	1.233535	0.870509	0.666701
N295	N	0.570514	0.061795	0.120818
N296	N	0.903847	0.395129	0.454152
N297	N	1.237181	0.728462	0.787485
N298	N	0.570552	0.061759	-0.120704
N299	N	0.903885	0.395092	0.212629
N300	N	1.237219	0.728426	0.545963
C301	C	0.603651	0.028664	0.473342
C302	C	0.936984	0.361998	0.806675
C303	C	1.270318	0.695331	1.140008
C304	C	0.603662	0.028658	0.687000
C305	C	0.936995	0.361991	1.020334
C306	C	1.270328	0.695324	1.353667
O307	O	0.631818	0.000491	0.714630
O308	O	0.965151	0.333824	1.047963
O309	O	1.298484	0.667157	1.381297
N310	N	0.570542	0.061762	0.713712
N311	N	0.903875	0.395095	1.047046
N312	N	1.237209	0.728428	1.380379
C313	C	0.537415	0.094867	0.687007
C314	C	0.870749	0.428201	1.020340
C315	C	1.204082	0.761534	1.353673
O316	O	0.509242	0.123021	0.714630
O317	O	0.842575	0.456354	1.047963
O318	O	1.175909	0.789688	1.381296
C319	C	0.537403	0.094872	0.473349
C320	C	0.870736	0.428205	0.806682
C321	C	1.204069	0.761538	1.140016
C322	C	0.570528	0.061769	0.446640
C323	C	0.903861	0.395102	0.779973
C324	C	1.237195	0.728435	1.113306
C325	C	0.636773	-0.004436	0.446632
C326	C	0.970106	0.328897	0.779965
C327	C	1.303440	0.662231	1.113299
C328	C	0.636772	-0.004432	0.393221
C329	C	0.970105	0.328901	0.726554
C330	C	1.303439	0.662234	1.059887
C331	C	0.603649	0.028672	0.366519
C332	C	0.936982	0.362005	0.699852
C333	C	1.270315	0.695339	1.033185
C334	C	0.570527	0.061773	0.393228
C335	C	0.903860	0.395106	0.726562
C336	C	1.237193	0.728439	1.059895
C337	C	0.504274	0.127975	0.446644
C338	C	0.837607	0.461308	0.779978
C339	C	1.170941	0.794641	1.113311
C340	C	0.504273	0.127972	0.393226
C341	C	0.837606	0.461305	0.726560
C342	C	1.170940	0.794639	1.059893
C343	C	0.537398	0.094869	0.366517
C344	C	0.870731	0.428203	0.699850
C345	C	1.204065	0.761536	1.033184
C346	C	0.537402	0.094881	0.313115
C347	C	0.870735	0.428214	0.646448
C348	C	1.204069	0.761547	0.979781
N349	N	0.570522	0.061777	0.286403
N350	N	0.903855	0.395110	0.619736
N351	N	1.237188	0.728443	0.953069
C352	C	0.603645	0.028672	0.313105
C353	C	0.936978	0.362006	0.646438
C354	C	1.270312	0.695339	0.979771
C355	C	0.537425	0.094864	0.799180
C356	C	0.870758	0.428197	1.132513
C357	C	1.204092	0.761530	1.465847
C358	C	0.537429	0.094863	0.852594
C359	C	0.870762	0.428197	1.185927
C360	C	1.204095	0.761530	1.519261
C361	C	0.603675	0.028653	0.852584
C362	C	0.937008	0.361986	1.185917
C363	C	1.270341	0.695319	1.519251
C364	C	0.603673	0.028656	0.799169
C365	C	0.937006	0.361989	1.132502
C366	C	1.270339	0.695322	1.465836
C367	C	0.570545	0.061760	0.772468
C368	C	0.903878	0.395093	1.105801
C369	C	1.237211	0.728426	1.439134
C370	C	0.603640	0.028683	0.200937
C371	C	0.936973	0.362016	0.534270
C372	C	1.270307	0.695350	0.867603
C373	C	0.603637	0.028691	0.147520
C374	C	0.936971	0.362024	0.480854
C375	C	1.270304	0.695358	0.814187
C376	C	0.537390	0.094900	0.147535
C377	C	0.870723	0.428233	0.480869
C378	C	1.204056	0.761566	0.814202
C379	C	0.537394	0.094894	0.200947
C380	C	0.870727	0.428227	0.534280
C381	C	1.204061	0.761560	0.867613
C382	C	0.570521	0.061781	0.227646
C383	C	0.903855	0.395115	0.560979
C384	C	1.237188	0.728448	0.894313
O385	O	0.509257	0.123029	0.285452
O386	O	0.842591	0.456362	0.618785
O387	O	1.175924	0.789696	0.952119
O388	O	0.631807	0.000516	0.285472
O389	O	0.965140	0.333849	0.618806
O390	O	1.298474	0.667183	0.952139
C391	C	0.603652	0.028661	0.526753
C392	C	0.936986	0.361994	0.860086
C393	C	1.270319	0.695327	1.193420
C394	C	0.570530	0.061761	0.553463
C395	C	0.903864	0.395095	0.886796
C396	C	1.237197	0.728428	1.220129
C397	C	0.537407	0.094865	0.526761
C398	C	0.870740	0.428199	0.860094
C399	C	1.204074	0.761532	1.193427
C400	C	0.570534	0.061761	0.606877
C401	C	0.903867	0.395094	0.940210
C402	C	1.237201	0.728428	1.273543
C403	C	0.603657	0.028657	0.633579
C404	C	0.936991	0.361990	0.966912
C405	C	1.270324	0.695323	1.300245
C406	C	0.636777	-0.004447	0.606867
C407	C	0.970110	0.328886	0.940200
C408	C	1.303444	0.662219	1.273533
C409	C	0.636776	-0.004444	0.553455
C410	C	0.970109	0.328890	0.886788
C411	C	1.303442	0.662223	1.220122
C412	C	0.504287	0.127969	0.553473
C413	C	0.837621	0.461303	0.886806
C414	C	1.170954	0.794636	1.220139
C415	C	0.504292	0.127963	0.606884
C416	C	0.837625	0.461297	0.940218
C417	C	1.170958	0.794630	1.273551
C418	C	0.537415	0.094859	0.633586
C419	C	0.870748	0.428192	0.966920
C420	C	1.204082	0.761526	1.300253
H421	H	0.423779	0.065411	0.083969
H422	H	0.757112	0.398745	0.417302
H423	H	1.090446	0.732078	0.750635
N424	N	-0.186041	0.059178	0.093579
N425	N	0.147292	0.392511	0.426912
N426	N	0.480626	0.725845	0.760246
N427	N	-0.196394	0.093217	0.124541
N428	N	0.136939	0.426550	0.457874
N429	N	0.470272	0.759884	0.791207
H430	H	-0.178214	0.093418	0.157913
H431	H	0.155119	0.426752	0.491246
H432	H	0.488452	0.760085	0.824580
N433	N	0.327112	0.064410	0.093566
N434	N	0.660446	0.397743	0.426899
N435	N	0.993779	0.731077	0.760233
N436	N	0.349630	0.064648	0.134859
N437	N	0.682963	0.397982	0.468192
N438	N	1.016296	0.731315	0.801525
H439	H	0.331456	0.064466	0.168239
H440	H	0.664789	0.397799	0.501572
H441	H	0.998123	0.731132	0.834905
H442	H	0.567867	-0.700012	-0.083890
H443	H	0.901201	-0.366679	0.249443
H444	H	1.234534	-0.033345	0.582776
H445	H	0.570238	-0.468101	-0.130135
H446	H	0.903571	-0.134768	0.203199
H447	H	1.236905	0.198566	0.536532
H448	H	0.571790	-0.316867	-0.130126
H449	H	0.905124	0.016466	0.203207
H450	H	1.238457	0.349799	0.536540
N451	N	0.470446	0.161788	0.526210
N452	N	0.803779	0.495121	0.859543
N453	N	1.137112	0.828454	1.192877
N454	N	0.440878	0.191339	0.550072
N455	N	0.774212	0.524672	0.883405
N456	N	1.107545	0.858005	1.216738
H457	H	0.416976	0.215226	0.530820
H458	H	0.750309	0.548560	0.864153
H459	H	1.083643	0.881893	1.197486
H460	H	0.570850	-0.408313	-0.130131
H461	H	0.904184	-0.074980	0.203202
H462	H	1.237517	0.258353	0.536535
N463	N	0.670610	-0.038254	0.526169
N464	N	1.003943	0.295079	0.859502
N465	N	1.337276	0.628412	1.192835
N466	N	0.700498	-0.023133	0.496361
N467	N	1.033831	0.310201	0.829694
N468	N	1.367164	0.643534	1.163027
H469	H	0.724394	-0.047013	0.477092
H470	H	1.057728	0.286320	0.810425
H471	H	1.391061	0.619653	1.143758
H472	H	0.191874	0.063033	0.130239
H473	H	0.525207	0.396367	0.463572
H474	H	0.858541	0.729700	0.796905
N475	N	-0.056049	0.060495	0.139824
N476	N	0.277284	0.393829	0.473158
N477	N	0.610617	0.727162	0.806491
N478	N	-0.101061	0.060035	0.139812
N479	N	0.232272	0.393369	0.473145
N480	N	0.565605	0.726702	0.806479
H481	H	-0.119259	0.059857	0.173178
H482	H	0.214075	0.393190	0.506511
H483	H	0.547408	0.726523	0.839845
H484	H	0.477295	0.154929	0.371489
H485	H	0.810628	0.488262	0.704822
H486	H	1.143961	0.821596	1.038156
H487	H	0.566906	-0.791475	0.083961
H488	H	0.900239	-0.458142	0.417294
H489	H	1.233573	-0.124808	0.750627
H490	H	0.100428	0.062095	0.130242
H491	H	0.433761	0.395428	0.463575
H492	H	0.767094	0.728762	0.796909
N493	N	-0.287953	0.058131	0.093583
N494	N	0.045381	0.391464	0.426916
N495	N	0.378714	0.724797	0.760249
N496	N	-0.320804	0.091933	0.103898
N497	N	0.012530	0.425267	0.437232
N498	N	0.345863	0.758600	0.770565
H499	H	-0.338993	0.091757	0.137269
H500	H	-0.005660	0.425091	0.470602
H501	H	0.327673	0.758424	0.803936
H502	H	0.663746	-0.031396	0.468368
H503	H	0.997079	0.301938	0.801702
H504	H	1.330413	0.635271	1.135035
H505	H	0.571719	-0.316866	0.130242
H506	H	0.905052	0.016467	0.463575
H507	H	1.238385	0.349800	0.796908
H508	H	0.573195	-0.176435	0.083996
H509	H	0.906529	0.156898	0.417329
H510	H	1.239862	0.490232	0.750663
H511	H	-0.050800	0.060507	-0.130117
H512	H	0.282533	0.393840	0.203216
H513	H	0.615866	0.727173	0.536549
N514	N	0.570743	-0.413536	0.139829
N515	N	0.904076	-0.080203	0.473162
N516	N	1.237409	0.253130	0.806496
N517	N	0.570964	-0.391017	0.181122
N518	N	0.904297	-0.057684	0.514456
N519	N	1.237631	0.275649	0.847789
H520	H	0.570774	-0.409190	0.214502
H521	H	0.904107	-0.075857	0.547835
H522	H	1.237440	0.257476	0.881168
H523	H	0.566929	-0.791477	-0.083890
H524	H	0.900263	-0.458143	0.249443
H525	H	1.233596	-0.124810	0.582777
H526	H	0.574164	-0.084966	-0.083853
H527	H	0.907498	0.248368	0.249480
H528	H	1.240831	0.581701	0.582814
H529	H	0.567833	-0.700025	0.083967
H530	H	0.901167	-0.366691	0.417301
H531	H	1.234500	-0.033358	0.750634
H532	H	0.574133	-0.084969	0.083997
H533	H	0.907466	0.248364	0.417330
H534	H	1.240799	0.581698	0.750663
N535	N	0.569240	-0.564773	-0.139725
N536	N	0.902574	-0.231440	0.193608
N537	N	1.235907	0.101893	0.526941
N538	N	0.569475	-0.542265	-0.181026
N539	N	0.902808	-0.208932	0.152308
N540	N	1.236141	0.124401	0.485641
H541	H	0.569287	-0.560447	-0.214399
H542	H	0.902621	-0.227113	0.118934
H543	H	1.235954	0.106220	0.452268
N544	N	0.045865	0.061492	-0.139708
N545	N	0.379198	0.394825	0.193625
N546	N	0.712532	0.728159	0.526958
N547	N	0.023348	0.061256	-0.181001
N548	N	0.356681	0.394590	0.152332
N549	N	0.690015	0.727923	0.485665
H550	H	0.041522	0.061438	-0.214381
H551	H	0.374856	0.394771	0.118952
H552	H	0.708189	0.728104	0.452286
H553	H	0.569254	-0.559563	0.130225
H554	H	0.902588	-0.226230	0.463559
H555	H	1.235921	0.107104	0.796892
H556	H	0.510425	0.121854	0.222694
H557	H	0.843759	0.455187	0.556027
H558	H	1.177092	0.788520	0.889361
H559	H	0.100445	0.062046	-0.130130
H560	H	0.433778	0.395379	0.203204
H561	H	0.767111	0.728713	0.536537
H562	H	0.040640	0.061482	0.130245
H563	H	0.373974	0.394815	0.463578
H564	H	0.707307	0.728149	0.796911
N565	N	0.503587	0.128678	0.771900
N566	N	0.836921	0.462011	1.105234
N567	N	1.170254	0.795344	1.438567
N568	N	0.473696	0.113559	0.742098
N569	N	0.807029	0.446892	1.075432
N570	N	1.140363	0.780226	1.408765
H571	H	0.449800	0.137441	0.722832
H572	H	0.783133	0.470775	1.056166
H573	H	1.116466	0.804108	1.389499
H574	H	0.570191	-0.468116	0.130229
H575	H	0.903524	-0.134783	0.463563
H576	H	1.236858	0.198551	0.796896
N577	N	0.637474	-0.005132	0.120246
N578	N	0.970807	0.328201	0.453579
N579	N	1.304141	0.661534	0.786913
N580	N	0.667040	-0.034691	0.144098
N581	N	1.000373	0.298642	0.477431
N582	N	1.333707	0.631975	0.810764
H583	H	0.690934	-0.058582	0.124837
H584	H	1.024267	0.274752	0.458171
H585	H	1.357601	0.608085	0.791504
N586	N	0.637480	-0.005145	0.228196
N587	N	0.970813	0.328189	0.561530
N588	N	1.304146	0.661522	0.894863
N589	N	0.667048	-0.034694	0.204334
N590	N	1.000381	0.298639	0.537667
N591	N	1.333714	0.631973	0.871000
H592	H	0.690949	-0.058584	0.223585
H593	H	1.024282	0.274750	0.556919
H594	H	1.357615	0.608083	0.890252
N595	N	0.503562	0.128712	0.120246
N596	N	0.836895	0.462046	0.453580
N597	N	1.170229	0.795379	0.786913
N598	N	0.503569	0.128705	0.072556
N599	N	0.836902	0.462038	0.405889
N600	N	1.170235	0.795372	0.739222
H601	H	0.479676	0.152584	0.053281
H602	H	0.813009	0.485917	0.386614
H603	H	1.146342	0.819250	0.719947
H604	H	0.332323	0.064450	-0.083882
H605	H	0.665656	0.397784	0.249452
H606	H	0.998990	0.731117	0.582785
H607	H	-0.282716	0.058156	-0.083856
H608	H	0.050617	0.391490	0.249477
H609	H	0.383950	0.724823	0.582811
H610	H	0.663744	-0.031389	0.371477
H611	H	0.997077	0.301945	0.704810
H612	H	1.330410	0.635278	1.038144
H613	H	0.630646	0.001700	0.777425
H614	H	0.963979	0.335034	1.110759
H615	H	1.297312	0.668367	1.444092
H616	H	0.573216	-0.176415	-0.083863
H617	H	0.906549	0.156919	0.249470
H618	H	1.239883	0.490252	0.582804
H619	H	0.630646	0.001699	0.874334
H620	H	0.963979	0.335032	1.207667
H621	H	1.297312	0.668365	1.541000
N622	N	0.503596	0.128687	0.879866
N623	N	0.836929	0.462021	1.213199
N624	N	1.170262	0.795354	1.546533
N625	N	0.474026	0.158240	0.856012
N626	N	0.807359	0.491574	1.189345
N627	N	1.140692	0.824907	1.522679
H628	H	0.450128	0.182129	0.875270
H629	H	0.783462	0.515462	1.208604
H630	H	1.116795	0.848796	1.541937
N631	N	0.197115	0.063026	-0.139718
N632	N	0.530448	0.396359	0.193615
N633	N	0.863781	0.729693	0.526949
N634	N	0.174602	0.062786	-0.181013
N635	N	0.507935	0.396119	0.152320
N636	N	0.841268	0.729452	0.485654
H637	H	0.192780	0.062961	-0.214391
H638	H	0.526113	0.396295	0.118942
H639	H	0.859446	0.729628	0.452276
N640	N	0.470437	0.161796	0.473910
N641	N	0.803770	0.495129	0.807244
N642	N	1.137104	0.828462	1.140577
N643	N	0.440867	0.191347	0.450053
N644	N	0.774201	0.524680	0.783386
N645	N	1.107534	0.858013	1.116719
H646	H	0.416968	0.215235	0.469308
H647	H	0.750301	0.548569	0.802642
H648	H	1.083635	0.881902	1.135975
H649	H	0.663749	-0.031401	0.628616
H650	H	0.997082	0.301933	0.961949
H651	H	1.330416	0.635266	1.295283
H652	H	0.423790	0.065384	-0.083881
H653	H	0.757123	0.398718	0.249452
H654	H	1.090456	0.732051	0.582786
N655	N	0.470446	0.161780	0.634155
N656	N	0.803779	0.495114	0.967488
N657	N	1.137113	0.828447	1.300822
N658	N	0.425774	0.161429	0.628184
N659	N	0.759107	0.494762	0.961517
N660	N	1.092441	0.828095	1.294851
H661	H	0.401868	0.185309	0.647442
H662	H	0.735201	0.518642	0.980775
H663	H	1.068535	0.851976	1.314109
N664	N	-0.186047	0.059131	-0.093450
N665	N	0.147286	0.392465	0.239883
N666	N	0.480619	0.725798	0.573216
N667	N	-0.208565	0.058897	-0.134743
N668	N	0.124768	0.392231	0.198590
N669	N	0.458102	0.725564	0.531924
H670	H	-0.190391	0.059076	-0.168123
H671	H	0.142942	0.392410	0.165211
H672	H	0.476276	0.725743	0.498544
