data_functionalizedCrystal
_audit_creation_method	'MofGen! by Chris Wilmer'
_symmetry_space_group_name_H-M	'P1'
_symmetry_Int_Tables_number	1
_symmetry_cell_setting	triclinic
loop_
_symmetry_equiv_pos_as_xyz
  x,y,z
_cell_length_a	21.295420
_cell_length_b	21.295416
_cell_length_c	13.033288
_cell_angle_alpha	82.809210
_cell_angle_beta	97.188379
_cell_angle_gamma	89.971418
loop_
_atom_site_label
_atom_site_type_symbol
_atom_site_fract_x
_atom_site_fract_y
_atom_site_fract_z
Zn1	Zn	1.007478	0.205539	0.590887
Zn2	Zn	1.507478	0.705539	1.090887
Zn3	Zn	0.994035	0.324151	0.416123
Zn4	Zn	1.494035	0.824151	0.916123
Zn5	Zn	0.888857	0.218895	0.416148
Zn6	Zn	1.388857	0.718895	0.916148
Zn7	Zn	0.902166	0.310776	0.590823
Zn8	Zn	1.402166	0.810776	1.090823
O9	O	0.948134	0.264840	0.503495
O10	O	1.448134	0.764840	1.003495
O11	O	1.093785	0.221282	0.567721
O12	O	1.593785	0.721282	1.067721
O13	O	0.968888	0.321375	0.269885
O14	O	1.468888	0.821375	0.769885
O15	O	0.904649	0.129031	0.439365
O16	O	1.404649	0.629031	0.939365
O17	O	1.083909	0.308425	0.439323
O18	O	1.583909	0.808425	0.939323
O19	O	0.991799	0.119219	0.567745
O20	O	1.491799	0.619219	1.067745
O21	O	0.891614	0.244044	0.269903
O22	O	1.391614	0.744044	0.769903
O23	O	0.802532	0.231075	0.439303
O24	O	1.302532	0.731075	0.939303
O25	O	0.927331	0.285630	0.737073
O26	O	1.427331	0.785630	1.237073
O27	O	0.812310	0.298580	0.567636
O28	O	1.312310	0.798580	1.067636
O29	O	1.004703	0.208313	0.737120
O30	O	1.504703	0.708313	1.237120
O31	O	0.981792	0.410469	0.439261
O32	O	1.481792	0.910469	0.939261
O33	O	0.914296	0.400643	0.567612
O34	O	1.414296	0.900643	1.067612
C35	C	0.784580	0.264826	0.503465
C36	C	1.284580	0.764826	1.003465
C37	C	0.714613	0.264833	0.503477
C38	C	1.214613	0.764833	1.003477
C39	C	0.220259	0.300069	0.570254
C40	C	0.720259	0.800069	1.070254
C41	C	0.286001	0.300070	0.570243
C42	C	0.786001	0.800070	1.070243
C43	C	0.313777	0.264852	0.503528
C44	C	0.813777	0.764852	1.003528
C45	C	0.275805	0.229643	0.436801
C46	C	0.775805	0.729643	0.936801
C47	C	0.210064	0.229648	0.436806
C48	C	0.710064	0.729648	0.936806
N49	N	0.416417	0.210336	0.495667
N50	N	0.916417	0.710336	0.995667
N51	N	0.478869	0.210332	0.495668
N52	N	0.978869	0.710332	0.995668
C53	C	0.511850	0.264836	0.503506
C54	C	1.011850	0.764836	1.003506
N55	N	0.480022	0.319343	0.511363
N56	N	0.980022	0.819343	1.011363
N57	N	0.417565	0.319346	0.511368
N58	N	0.917565	0.819346	1.011368
C59	C	0.385061	0.264843	0.503514
C60	C	0.885061	0.764843	1.003514
C61	C	0.621098	0.300048	0.570212
C62	C	1.121098	0.800048	1.070212
C63	C	0.686841	0.300050	0.570194
C64	C	1.186841	0.800050	1.070194
C65	C	0.676644	0.229617	0.436757
C66	C	1.176644	0.729617	0.936757
C67	C	0.610903	0.229620	0.436770
C68	C	1.110903	0.729620	0.936770
C69	C	0.583134	0.264835	0.503503
C70	C	1.083134	0.764835	1.003503
C71	C	0.948048	0.428396	0.503449
C72	C	1.448048	0.928396	1.003449
C73	C	0.948072	0.498363	0.503464
C74	C	1.448072	0.998363	1.003464
C75	C	0.983258	0.536320	0.436703
C76	C	1.483258	1.036320	0.936703
C77	C	0.983290	0.602060	0.436731
C78	C	1.483290	1.102060	0.936731
C79	C	0.948124	0.629842	0.503510
C80	C	1.448124	1.129842	1.003510
C81	C	0.912935	0.591876	0.570285
C82	C	1.412935	1.091876	1.070285
C83	C	0.912909	0.526136	0.570262
C84	C	1.412909	1.026136	1.070262
N85	N	0.893665	0.732498	0.511474
N86	N	1.393665	1.232498	1.011474
N87	N	0.893691	0.794948	0.511490
N88	N	1.393691	1.294948	1.011490
C89	C	0.948200	0.827911	0.503584
C90	C	1.448200	1.327911	1.003584
N91	N	1.002683	0.796065	0.495642
N92	N	1.502683	1.296065	0.995642
N93	N	1.002656	0.733610	0.495621
N94	N	1.502656	1.233610	0.995621
C95	C	0.948148	0.701124	0.503542
C96	C	1.448148	1.201124	1.003542
C97	C	0.983425	0.937151	0.436849
C98	C	1.483425	1.437151	0.936849
C99	C	0.983458	1.002892	0.436885
C100	C	1.483458	1.502892	0.936885
C101	C	0.913097	0.992707	0.570433
C102	C	1.413097	1.492707	1.070433
C103	C	0.913070	0.926967	0.570403
C104	C	1.413070	1.426967	1.070403
C105	C	0.948232	0.899193	0.503606
C106	C	1.448232	1.399193	1.003606
C107	C	1.112326	0.264856	0.503526
C108	C	1.612326	0.764856	1.003526
C109	C	1.182296	0.264862	0.503539
C110	C	1.682296	0.764862	1.003539
C111	C	0.969001	0.243990	0.776076
C112	C	1.469001	0.743990	1.276076
C113	C	0.977893	0.235104	0.892233
C114	C	1.477893	0.735104	1.392233
C115	C	0.948241	1.100644	0.503583
C116	C	1.448241	1.600644	1.003583
C117	C	0.948292	1.030669	0.503666
C118	C	1.448292	1.530669	1.003666
C119	C	0.952764	0.260218	1.064052
C120	C	1.452764	0.760218	1.564052
C121	C	0.943572	0.269402	0.943997
C122	C	1.443572	0.769402	1.443997
C123	C	0.927342	0.285625	1.231975
C124	C	1.427342	0.785625	1.731975
C125	C	0.918448	0.294511	1.115818
C126	C	1.418448	0.794511	1.615818
H127	H	0.598488	0.328722	0.624549
H128	H	1.098488	0.828722	1.124549
H129	H	0.717750	0.328725	0.624518
H130	H	1.217750	0.828725	1.124518
H131	H	1.012058	0.914537	0.382462
H132	H	1.512058	1.414537	0.882462
C133	C	1.022168	1.044646	0.363442
C134	C	1.522168	1.544646	0.863442
C135	C	0.988664	1.096170	0.281375
C136	C	1.488664	1.596170	0.781375
C137	C	1.027374	1.137924	0.207931
C138	C	1.527374	1.637924	0.707931
C139	C	1.099588	1.128154	0.216552
C140	C	1.599588	1.628154	0.716552
C141	C	1.133096	1.076629	0.298622
C142	C	1.633096	1.576629	0.798622
C143	C	1.094385	1.034874	0.372067
C144	C	1.594385	1.534874	0.872067
H145	H	0.935204	1.103403	0.274990
H146	H	1.435204	1.603403	0.774990
H147	H	1.002570	1.176067	0.147177
H148	H	1.502570	1.676067	0.647177
H149	H	1.128244	1.159063	0.162184
H150	H	1.628244	1.659063	0.662184
H151	H	1.186556	1.069395	0.305008
H152	H	1.686556	1.569395	0.805008
H153	H	1.119190	0.996732	0.432821
H154	H	1.619190	1.496732	0.932821
C155	C	0.707187	0.190877	0.363364
C156	C	1.207187	0.690877	0.863364
C157	C	0.755885	0.138017	0.408778
C158	C	1.255885	0.638017	0.908778
C159	C	0.786429	0.099278	0.335377
C160	C	1.286429	0.599278	0.835377
C161	C	0.768276	0.113400	0.216562
C162	C	1.268276	0.613400	0.716562
C163	C	0.719575	0.166263	0.171141
C164	C	1.219575	0.666263	0.671141
C165	C	0.689031	0.205002	0.244543
C166	C	1.189031	0.705002	0.744543
H167	H	0.769326	0.127560	0.496738
H168	H	1.269326	0.627560	0.996738
H169	H	0.822481	0.060145	0.369001
H170	H	1.322481	0.560145	0.869001
H171	H	0.790886	0.084724	0.162226
H172	H	1.290886	0.584724	0.662226
H173	H	0.706134	0.176720	0.083182
H174	H	1.206134	0.676720	0.583182
H175	H	0.652979	0.244135	0.210919
H176	H	1.152979	0.744135	0.710919
H177	H	0.316916	0.328740	0.624573
H178	H	0.816916	0.828740	1.124573
H179	H	0.884467	1.015326	0.624810
H180	H	1.384467	1.515326	1.124810
C181	C	0.874198	0.484380	0.643699
C182	C	1.374198	0.984380	1.143699
C183	C	0.821307	0.442713	0.598320
C184	C	1.321307	0.942713	1.098320
C185	C	0.782594	0.400956	0.671756
C186	C	1.282594	0.900956	1.171756
C187	C	0.796771	0.400866	0.790571
C188	C	1.296771	0.900866	1.290571
C189	C	0.849664	0.442534	0.835955
C190	C	1.349664	0.942534	1.335955
C191	C	0.888378	0.484291	0.762519
C192	C	1.388378	0.984291	1.262519
H193	H	0.810810	0.442779	0.510361
H194	H	1.310810	0.942779	1.010361
H195	H	0.743439	0.370110	0.638159
H196	H	1.243439	0.870110	1.138159
H197	H	0.768113	0.369954	0.844932
H198	H	1.268113	0.869954	1.344932
H199	H	0.860161	0.442468	0.923914
H200	H	1.360161	0.942468	1.423914
H201	H	0.927533	0.515137	0.796117
H202	H	1.427533	1.015137	1.296117
H203	H	0.298425	0.200969	0.382480
H204	H	0.798425	0.700969	0.882480
H205	H	0.197654	0.328746	0.624589
H206	H	0.697654	0.828746	1.124589
H207	H	0.179154	0.200977	0.382479
H208	H	0.679154	0.700977	0.882479
H209	H	1.014083	0.198945	0.936789
H210	H	1.514083	0.698945	1.436789
H211	H	0.579992	0.200948	0.382448
H212	H	1.079992	0.700948	0.882448
H213	H	1.011891	0.513708	0.382315
H214	H	1.511891	1.013708	0.882315
H215	H	0.884414	0.896060	0.624762
H216	H	1.384414	1.396060	1.124762
H217	H	1.011946	0.632970	0.382366
H218	H	1.511946	1.132970	0.882366
H219	H	0.884304	0.614500	0.624658
H220	H	1.384304	1.114500	1.124658
H221	H	0.988952	0.224062	1.108612
H222	H	1.488952	0.724062	1.608612
H223	H	0.907387	0.305565	0.899440
H224	H	1.407387	0.805565	1.399440
H225	H	0.882265	0.330672	1.071257
H226	H	1.382265	0.830672	1.571257
