data_functionalizedCrystal
_audit_creation_method	'MofGen! by Chris Wilmer'
_symmetry_space_group_name_H-M	'P1'
_symmetry_Int_Tables_number	1
_symmetry_cell_setting	triclinic
loop_
_symmetry_equiv_pos_as_xyz
  x,y,z
_cell_length_a	19.077269
_cell_length_b	16.959453
_cell_length_c	19.076919
_cell_angle_alpha	87.729058
_cell_angle_beta	85.330942
_cell_angle_gamma	87.727950
loop_
_atom_site_label
_atom_site_type_symbol
_atom_site_fract_x
_atom_site_fract_y
_atom_site_fract_z
Zn1	Zn	1.061653	-0.378611	0.355267
Zn2	Zn	1.066307	-0.505685	0.237385
Zn3	Zn	0.948510	-0.368426	0.242135
Zn4	Zn	0.943738	-0.505646	0.359968
O5	O	1.005052	-0.439592	0.298689
O6	O	1.160917	-0.399747	0.335675
O7	O	1.054626	-0.483232	0.139368
O8	O	0.963568	-0.259170	0.257162
O9	O	1.164336	-0.493108	0.249067
O10	O	1.046694	-0.266653	0.340280
O11	O	0.968081	-0.382388	0.142857
O12	O	0.849231	-0.382349	0.261721
O13	O	0.955435	-0.493040	0.457992
O14	O	0.845725	-0.483164	0.348292
O15	O	1.042067	-0.399709	0.454538
O16	O	1.049999	-0.616288	0.253626
O17	O	0.959948	-0.616259	0.343687
C18	C	0.821900	-0.431648	0.306032
C19	C	0.743546	-0.428269	0.309191
C20	C	0.708515	-0.475204	0.265516
C21	C	0.634893	-0.472030	0.268493
C22	C	0.596303	-0.421916	0.315141
C23	C	0.631339	-0.374979	0.358821
C24	C	0.704960	-0.378157	0.355847
C25	C	0.375929	-0.407209	0.328881
C26	C	0.302304	-0.404032	0.331850
C27	C	0.305863	-0.501085	0.241522
C28	C	0.379485	-0.504256	0.238550
C29	C	0.414514	-0.457322	0.282232
N30	N	0.521049	-0.418668	0.318184
N31	N	0.489767	-0.460574	0.279193
C32	C	1.004979	-0.644954	0.298666
C33	C	1.005011	-0.732813	0.298677
C34	C	0.958105	-0.774098	0.345537
C35	C	1.051952	-0.774083	0.251832
C36	C	1.051986	-0.856631	0.251843
C37	C	1.005080	-0.897916	0.298703
C38	C	0.958139	-0.856654	0.345551
C39	C	1.098931	-0.897900	0.205000
C40	C	1.098968	-0.980453	0.205010
C41	C	1.052058	-1.021740	0.251867
C42	C	1.005115	-0.980472	0.298717
C43	C	0.958208	-1.021758	0.345576
C44	C	0.911261	-0.980491	0.392423
C45	C	0.911229	-0.897941	0.392408
C46	C	1.052090	-1.104290	0.251883
C47	C	0.958243	-1.104313	0.345591
C48	C	1.188920	-0.447568	0.291317
C49	C	1.267273	-0.450967	0.288175
C50	C	0.997699	-0.447506	0.482559
C51	C	0.994566	-0.450879	0.560913
C52	C	1.005144	-0.233430	0.298726
C53	C	1.005184	-0.145576	0.298742
C54	C	1.012417	-0.431654	0.115533
C55	C	1.015687	-0.428064	0.037173
C56	C	1.038196	-0.403873	0.595927
C57	C	1.035243	-0.407038	0.669549
C58	C	0.988664	-0.457214	0.708157
C59	C	0.945029	-0.504222	0.673138
C60	C	0.947978	-0.501052	0.599516
C61	C	0.975002	-0.471902	0.928533
C62	C	0.972057	-0.475070	1.002159
C63	C	1.062271	-0.377885	0.998566
C64	C	1.065220	-0.374723	0.924944
C65	C	1.021582	-0.421727	0.889931
N66	N	0.985646	-0.460453	0.783411
N67	N	1.024597	-0.418484	0.814678
H68	H	0.733481	-0.339937	0.391412
H69	H	0.277334	-0.539297	0.205960
C70	C	1.110260	-0.326173	1.037086
N71	N	1.146404	-0.287217	1.066100
H72	H	0.920045	-1.137922	0.383750
H73	H	0.599913	-0.334178	0.396807
C74	C	0.859665	-1.025916	0.443967
N75	N	0.820803	-1.060133	0.482787
H76	H	0.934124	-0.515932	1.033591
C77	C	1.150524	-0.852481	0.153458
N78	N	1.189384	-0.818268	0.114633
H79	H	1.103152	-0.333866	0.893514
H80	H	0.606374	-0.510250	0.232928
H81	H	0.873007	-0.864336	0.430549
H82	H	0.919879	-0.740497	0.383677
C83	C	1.103546	-0.728666	0.200289
N84	N	1.142407	-0.694455	0.161463
H85	H	1.090318	-1.137886	0.213745
H86	H	0.404441	-0.368993	0.364451
C87	C	0.421929	-0.559385	0.187232
N88	N	0.453897	-0.600907	0.148577
H89	H	1.137195	-1.014045	0.166864
C90	C	1.089437	-0.348674	0.553466
N91	N	1.128031	-0.307093	0.521486
H92	H	0.939480	-0.510189	0.900035
H93	H	1.070773	-0.368763	0.698054
H94	H	0.907100	-0.545074	0.704577
C95	C	0.259856	-0.348903	0.383173
N96	N	0.227884	-0.307383	0.421827
H97	H	0.912443	-0.539321	0.571009
H98	H	0.739930	-0.516010	0.227526
