data_functionalizedCrystal
_audit_creation_method	'MofGen! by Chris Wilmer'
_symmetry_space_group_name_H-M	'P1'
_symmetry_Int_Tables_number	1
_symmetry_cell_setting	triclinic
loop_
_symmetry_equiv_pos_as_xyz
  x,y,z
_cell_length_a	10.654550
_cell_length_b	12.996460
_cell_length_c	10.654550
_cell_angle_alpha	89.999886
_cell_angle_beta	95.515069
_cell_angle_gamma	90.003002
loop_
_atom_site_label
_atom_site_type_symbol
_atom_site_fract_x
_atom_site_fract_y
_atom_site_fract_z
O1	O	1.667845	0.085490	-0.176391
O2	O	1.302367	0.085509	-0.193197
O3	O	1.493509	0.085492	-0.002054
O4	O	1.476703	0.085506	-0.367533
O5	O	1.493484	-0.085642	-0.002065
O6	O	1.302342	-0.085625	-0.193208
O7	O	1.667820	-0.085644	-0.176401
Cu8	Cu	1.485079	-0.101260	-0.184806
Cu9	Cu	1.485108	0.101125	-0.184793
O10	O	1.476678	-0.085628	-0.367544
C11	C	1.255556	-0.000056	-0.191968
C12	C	1.116113	-0.000049	-0.188276
C13	C	1.036628	-0.000048	-0.300818
C14	C	0.905607	-0.000066	-0.297341
C15	C	0.933570	-0.000082	-0.068772
C16	C	1.064588	-0.000071	-0.072250
N17	N	1.485068	-0.243608	-0.184814
C18	C	1.485073	-0.336714	-0.184817
C19	C	1.485085	-0.453519	-0.184809
C20	C	1.485100	-0.546617	-0.184795
C21	C	1.485114	-0.663430	-0.184788
C22	C	1.714631	-0.000077	-0.177630
C23	C	1.854074	-0.000078	-0.181322
C24	C	1.492263	-0.000074	0.044738
C25	C	1.488571	-0.000072	0.184181
N26	N	1.485130	0.243472	-0.184774
C27	C	1.477925	-0.000059	-0.414336
C28	C	1.481616	-0.000054	-0.553779
C29	C	1.601112	-0.000078	0.263667
C30	C	1.597636	-0.000065	0.394688
C31	C	1.369066	-0.000046	0.366725
C32	C	1.372544	-0.000051	0.235706
H33	H	0.840894	-0.000067	-0.388984
H34	H	1.695588	-0.000093	0.221720
N35	N	1.251159	-0.000057	0.149957
H36	H	1.247521	0.063380	0.094971
H37	H	1.177195	-0.000092	0.202558
H38	H	1.129309	-0.000075	0.019401
N39	N	1.092211	-0.000039	-0.425951
H40	H	1.145942	0.063406	-0.432486
H41	H	1.021904	-0.000083	-0.496646
N42	N	0.877996	-0.000111	0.056366
H43	H	0.782935	-0.000118	0.041495
H44	H	0.906999	0.063326	0.105677
H45	H	1.689279	-0.000067	0.459401
H46	H	1.274601	-0.000030	0.408693
