data_functionalizedCrystal
_audit_creation_method	'MofGen! by Chris Wilmer'
_symmetry_space_group_name_H-M	'P1'
_symmetry_Int_Tables_number	1
_symmetry_cell_setting	triclinic
loop_
_symmetry_equiv_pos_as_xyz
  x,y,z
_cell_length_a	12.759401
_cell_length_b	12.645329
_cell_length_c	12.759393
_cell_angle_alpha	89.968574
_cell_angle_beta	89.981433
_cell_angle_gamma	90.017022
loop_
_atom_site_label
_atom_site_type_symbol
_atom_site_fract_x
_atom_site_fract_y
_atom_site_fract_z
Zn1	Zn	1.606231	-0.422004	-0.593984
Zn2	Zn	2.106231	0.077996	-0.093984
Zn3	Zn	1.606116	-0.599308	-0.418305
Zn4	Zn	2.106116	-0.099308	0.081695
Zn5	Zn	1.430533	-0.422056	-0.418324
Zn6	Zn	1.930533	0.077944	0.081676
Zn7	Zn	1.430512	-0.599223	-0.593946
Zn8	Zn	1.930512	-0.099223	-0.093946
O9	O	1.518348	-0.510648	-0.506140
O10	O	2.018348	-0.010648	-0.006140
O11	O	1.753237	-0.445537	-0.570688
O12	O	2.253237	0.054463	-0.070688
O13	O	1.582785	-0.575852	-0.271286
O14	O	2.082785	-0.075852	0.228714
O15	O	1.453898	-0.273702	-0.441649
O16	O	1.953898	0.226298	0.058351
O17	O	1.753152	-0.575802	-0.441617
O18	O	2.253152	-0.075802	0.058383
O19	O	1.582982	-0.273664	-0.570706
O20	O	2.082982	0.226336	-0.070706
O21	O	1.453785	-0.445626	-0.271300
O22	O	1.953785	0.054374	0.228700
O23	O	1.283510	-0.445544	-0.441612
O24	O	1.783510	0.054456	0.058388
O25	O	1.453861	-0.575657	-0.740972
O26	O	1.953861	-0.075657	-0.240972
O27	O	1.283494	-0.575707	-0.570641
O28	O	1.783494	-0.075707	-0.070641
O29	O	1.582961	-0.445455	-0.741000
O30	O	2.082961	0.054545	-0.241000
O31	O	1.582764	-0.747644	-0.441580
O32	O	2.082764	-0.247644	0.058420
O33	O	1.453749	-0.747581	-0.570623
O34	O	1.953749	-0.247581	-0.070623
C35	C	1.245381	-0.510623	-0.506125
C36	C	1.745381	-0.010623	-0.006125
C37	C	1.128604	-0.510638	-0.506144
C38	C	1.628604	-0.010638	-0.006144
C39	C	1.073779	-0.442937	-0.573455
C40	C	1.573779	0.057063	-0.073455
C41	C	0.964055	-0.442957	-0.573462
C42	C	1.464055	0.057043	-0.073462
C43	C	0.963990	-0.578388	-0.438843
C44	C	1.463990	-0.078388	0.061157
C45	C	1.073712	-0.578362	-0.438832
C46	C	1.573712	-0.078362	0.061168
C47	C	1.128671	-0.375213	-0.640767
C48	C	1.628671	0.124787	-0.140767
C49	C	1.073846	-0.307508	-0.708085
C50	C	1.573846	0.192492	-0.208085
C51	C	0.964122	-0.307528	-0.708092
C52	C	1.464122	0.192472	-0.208092
C53	C	0.909223	-0.375253	-0.640781
C54	C	1.409223	0.124747	-0.140781
C55	C	1.518270	-0.786077	-0.506118
C56	C	2.018270	-0.286077	-0.006118
C57	C	1.518333	-0.903907	-0.506144
C58	C	2.018333	-0.403907	-0.006144
C59	C	1.437131	-0.948795	-0.587278
C60	C	1.937131	-0.448795	-0.087278
C61	C	1.437468	-1.071354	-0.587630
C62	C	1.937468	-0.571354	-0.087630
C63	C	1.629255	-1.071673	-0.535976
C64	C	2.129255	-0.571673	-0.035976
C65	C	1.628688	-0.949075	-0.536531
C66	C	2.128688	-0.449075	-0.036531
C67	C	1.489784	-0.949207	-0.395046
C68	C	1.989784	-0.449207	0.104954
C69	C	1.487438	-1.071816	-0.395672
C70	C	1.987438	-0.571816	0.104328
C71	C	1.792381	-0.510673	-0.506155
C72	C	2.292381	-0.010673	-0.006155
C73	C	1.909158	-0.510684	-0.506161
C74	C	2.409158	-0.010684	-0.006161
C75	C	1.518422	-0.510541	-0.780173
C76	C	2.018422	-0.010541	-0.280173
C77	C	1.518453	-0.510495	-0.896950
C78	C	2.018453	-0.010495	-0.396950
C79	C	1.518455	-0.234142	-0.506184
C80	C	2.018455	0.265858	-0.006184
C81	C	1.518501	-0.116312	-0.506203
C82	C	2.018501	0.383688	-0.006203
C83	C	1.585685	-0.442692	-0.951828
C84	C	2.085685	0.057308	-0.451828
C85	C	1.585710	-0.442654	-1.061552
C86	C	2.085710	0.057346	-0.561552
C87	C	1.451268	-0.578230	-1.061510
C88	C	1.951268	-0.078230	-0.561510
C89	C	1.451239	-0.578262	-0.951788
C90	C	1.951239	-0.078262	-0.451788
C91	C	1.652899	-0.374925	-0.896990
C92	C	2.152899	0.125075	-0.396990
C93	C	1.720137	-0.307118	-0.951869
C94	C	2.220137	0.192882	-0.451869
C95	C	1.720162	-0.307080	-1.061593
C96	C	2.220162	0.192920	-0.561593
C97	C	1.652949	-0.374849	-1.116438
C98	C	2.152949	0.125151	-0.616438
C99	C	1.518335	-0.510678	-0.233172
C100	C	2.018335	-0.010678	0.266828
C101	C	1.518508	-0.510425	-0.116396
C102	C	2.018508	-0.010425	0.383604
H103	H	1.218014	-0.375188	-0.640769
H104	H	1.718014	0.124812	-0.140769
Br105	Br	1.732982	-0.899564	-0.442287
Br106	Br	2.232982	-0.399564	0.057713
Br107	Br	0.889485	-0.670297	-0.347500
Br108	Br	1.389485	-0.170297	0.152500
Br109	Br	1.360059	-0.670198	-1.135943
Br110	Br	1.860059	-0.170198	-0.635943
H111	H	1.118352	-0.633490	-0.384021
H112	H	1.618352	-0.133490	0.115979
H113	H	0.819878	-0.375242	-0.640769
H114	H	1.319878	0.124758	-0.140769
Br115	Br	1.811413	-0.215059	-1.136069
Br116	Br	2.311413	0.284941	-0.636069
Br117	Br	1.148348	-0.215587	-0.799419
Br118	Br	1.648348	0.284413	-0.299419
Br119	Br	1.588358	-0.900824	-0.294298
Br120	Br	2.088358	-0.400824	0.205702
H121	H	1.652963	-0.374800	-1.205783
H122	H	2.152963	0.125200	-0.705783
Br123	Br	1.811329	-0.215130	-0.877439
Br124	Br	2.311329	0.284870	-0.377439
Br125	Br	0.889719	-0.215634	-0.799438
Br126	Br	1.389719	0.284366	-0.299438
Br127	Br	1.300596	-1.121676	-0.556632
Br128	Br	1.800596	-0.621676	-0.056632
Br129	Br	1.299749	-0.899817	-0.556626
Br130	Br	1.799749	-0.399817	-0.056626
Br131	Br	1.652876	-0.374980	-0.748079
Br132	Br	2.152876	0.125020	-0.248079
H133	H	1.455822	-0.917909	-0.669131
H134	H	1.955822	-0.417909	-0.169131
Br135	Br	1.469024	-1.120112	-0.724877
Br136	Br	1.969024	-0.620112	-0.224877
H137	H	1.396477	-0.633457	-0.907105
H138	H	1.896477	-0.133457	-0.407105
Br139	Br	1.668967	-0.901265	-0.671876
Br140	Br	2.168967	-0.401265	-0.171876
H141	H	1.653887	-1.102291	-0.616305
H142	H	2.153887	-0.602291	-0.116305
Br143	Br	1.732932	-1.120170	-0.440525
Br144	Br	2.232932	-0.620170	0.059475
H145	H	1.410350	-0.918387	-0.367875
H146	H	1.910350	-0.418387	0.132125
Br147	Br	1.351580	-1.120458	-0.358238
Br148	Br	1.851580	-0.620458	0.141762
H149	H	1.542285	-1.102435	-0.332023
H150	H	2.042285	-0.602435	0.167977
