data_functionalizedCrystal
_audit_creation_method	'MofGen! by Chris Wilmer'
_symmetry_space_group_name_H-M	'P1'
_symmetry_Int_Tables_number	1
_symmetry_cell_setting	triclinic
loop_
_symmetry_equiv_pos_as_xyz
  x,y,z
_cell_length_a	33.510554
_cell_length_b	33.509711
_cell_length_c	33.506470
_cell_angle_alpha	60.004186
_cell_angle_beta	60.008358
_cell_angle_gamma	59.994760
loop_
_atom_site_label
_atom_site_type_symbol
_atom_site_fract_x
_atom_site_fract_y
_atom_site_fract_z
O1	O	0.055430	-0.583081	0.487524
O2	O	0.555430	-0.083081	0.987524
O3	O	0.020931	-0.453975	0.392819
O4	O	0.520931	0.046025	0.892819
O5	O	0.102693	-0.535652	0.392731
O6	O	0.602693	-0.035652	0.892731
O7	O	-0.026332	-0.501404	0.487613
O8	O	0.473668	-0.001404	0.987613
O9	O	0.129823	-0.508526	0.419767
O10	O	0.629823	-0.008526	0.919767
O11	O	0.048062	-0.426850	0.419856
O12	O	0.548062	0.073150	0.919856
O13	O	0.082561	-0.555956	0.514561
O14	O	0.582561	-0.055956	1.014561
Cu15	Cu	0.067789	-0.488926	0.469677
Cu16	Cu	0.567789	0.011074	0.969677
Cu17	Cu	0.035703	-0.521005	0.437703
Cu18	Cu	0.535703	-0.021005	0.937703
O19	O	0.000799	-0.474279	0.514649
O20	O	0.500799	0.025721	1.014649
N21	N	0.090357	-0.466366	0.492168
N22	N	0.590357	0.033634	0.992168
N23	N	0.013139	-0.543569	0.415212
N24	N	0.513139	-0.043569	0.915212
C25	C	0.143028	-0.279707	0.544737
C26	C	0.643028	0.220293	1.044737
C27	C	0.143165	-0.413746	0.678712
C28	C	0.643165	0.086254	1.178712
C29	C	0.143043	-0.413725	0.544739
C30	C	0.643043	0.086275	1.044739
C31	C	0.277090	-0.413694	0.544637
C32	C	0.777090	0.086306	1.044637
C33	C	0.157791	-0.323929	0.559462
C34	C	0.657791	0.176071	1.059462
C35	C	0.157869	-0.398994	0.634489
C36	C	0.657869	0.101006	1.134489
C37	C	0.232865	-0.398963	0.559407
C38	C	0.732865	0.101037	1.059407
C39	C	0.157801	-0.398982	0.559463
C40	C	0.657801	0.101018	1.059463
C41	C	0.124237	-0.223419	0.525994
C42	C	0.624237	0.276581	1.025994
C43	C	0.124262	-0.432490	0.525997
C44	C	0.624262	0.067510	1.025997
C45	C	0.176583	-0.380217	0.578205
C46	C	0.676583	0.119783	1.078205
C47	C	0.358938	-0.399566	0.501510
C48	C	0.858938	0.100434	1.001510
C49	C	0.410104	-0.416609	0.484423
C50	C	0.910104	0.083391	0.984423
C51	C	0.410135	-0.499402	0.515995
C52	C	0.910135	0.000598	1.015995
C53	C	0.358969	-0.482358	0.533084
C54	C	0.858969	0.017642	1.033084
C55	C	0.136554	-0.197822	0.475693
C56	C	0.636554	0.302178	0.975693
C57	C	0.119469	-0.146653	0.458657
C58	C	0.619469	0.353347	0.958657
C59	C	0.077755	-0.146680	0.542223
C60	C	0.577755	0.353320	1.042223
C61	C	0.094840	-0.197850	0.559260
C62	C	0.594840	0.302150	1.059260
C63	C	0.073954	-0.420144	0.538396
C64	C	0.573954	0.079856	1.038396
C65	C	0.056884	-0.437203	0.521352
C66	C	0.556884	0.062797	1.021352
C67	C	0.140427	-0.478952	0.479524
C68	C	0.640427	0.021048	0.979524
C69	C	0.157498	-0.461894	0.496561
C70	C	0.657498	0.038106	0.996561
C71	C	0.074158	-0.420182	0.760618
C72	C	0.574158	0.079818	1.260618
C73	C	0.057149	-0.437256	0.811786
C74	C	0.557149	0.062744	1.311786
C75	C	0.140732	-0.479014	0.811717
C76	C	0.640732	0.020986	1.311717
C77	C	0.157740	-0.461942	0.760547
C78	C	0.657740	0.038058	1.260547
C79	C	0.124452	-0.432525	0.734999
C80	C	0.624452	0.067475	1.234999
C81	C	0.333372	-0.432439	0.525839
C82	C	0.833372	0.067561	1.025839
C83	C	-0.020612	-0.577650	0.170305
C84	C	0.479388	-0.077650	0.670305
C85	C	-0.020943	-0.788098	0.380897
C86	C	0.479057	-0.288098	0.880897
C87	C	-0.020912	-0.577638	0.380991
C88	C	0.479088	-0.077638	0.880991
C89	C	-0.231336	-0.577418	0.380585
C90	C	0.268664	-0.077418	0.880585
C91	C	-0.129735	-0.611383	0.346870
C92	C	0.370265	-0.111383	0.846870
C93	C	-0.054722	-0.611464	0.347017
C94	C	0.445278	-0.111464	0.847017
C95	C	-0.073450	-0.630202	0.328195
C96	C	0.426550	-0.130202	0.828195
C97	C	-0.087616	-0.712029	0.371239
C98	C	0.412384	-0.212029	0.871239
C99	C	-0.070599	-0.763199	0.388315
C100	C	0.429401	-0.263199	0.888315
C101	C	0.012191	-0.763282	0.356872
C102	C	0.512191	-0.263282	0.856872
C103	C	-0.004828	-0.712113	0.339795
C104	C	0.495172	-0.212113	0.839795
C105	C	-0.155381	-0.623711	0.397158
C106	C	0.344619	-0.123711	0.897158
C107	C	-0.206547	-0.606601	0.414133
C108	C	0.293453	-0.106601	0.914133
C109	C	-0.206417	-0.564839	0.330529
C110	C	0.293583	-0.064839	0.830529
C111	C	-0.155251	-0.581949	0.313554
C112	C	0.344749	-0.081949	0.813554
C113	C	-0.067051	-0.561160	0.334643
C114	C	0.432949	-0.061160	0.834643
C115	C	-0.050026	-0.544131	0.351759
C116	C	0.449974	-0.044131	0.851759
C117	C	-0.008343	-0.627704	0.393612
C118	C	0.491657	-0.127704	0.893612
C119	C	-0.025368	-0.644736	0.376502
C120	C	0.474632	-0.144736	0.876502
C121	C	-0.066922	-0.561168	0.246303
C122	C	0.433078	-0.061168	0.746303
C123	C	-0.049794	-0.544141	0.195134
C124	C	0.450206	-0.044141	0.695134
C125	C	-0.008048	-0.627719	0.195183
C126	C	0.491952	-0.127719	0.695183
C127	C	-0.025175	-0.644745	0.246352
C128	C	0.474825	-0.144745	0.746352
C129	C	-0.054614	-0.611468	0.271911
C130	C	0.445386	-0.111468	0.771911
C131	C	-0.054732	-0.686488	0.346980
C132	C	0.445268	-0.186488	0.846980
C133	C	-0.002117	-0.558258	0.114025
C134	C	0.497883	-0.058258	0.614025
C135	C	-0.002879	-0.844379	0.399940
C136	C	0.497121	-0.344379	0.899940
C137	C	-0.002504	-0.558243	0.399473
C138	C	0.497496	-0.058243	0.899473
C139	C	-0.287615	-0.558285	0.398601
C140	C	0.212385	-0.058285	0.898601
N141	N	0.434975	-0.466279	0.491900
N142	N	0.934975	0.033721	0.991900
O143	O	0.591199	-0.470749	0.375150
O144	O	1.091199	0.029251	0.875150
O145	O	0.591395	-0.565767	0.504116
O146	O	1.091395	-0.065767	1.004116
O147	O	0.591311	-0.565550	0.422329
O148	O	1.091311	-0.065550	0.922329
O149	O	0.591283	-0.470966	0.456937
O150	O	1.091283	0.029034	0.956937
O151	O	0.510024	-0.538522	0.449509
O152	O	1.010024	-0.038522	0.949509
O153	O	0.510108	-0.538739	0.531297
O154	O	1.010108	-0.038739	1.031297
O155	O	0.509913	-0.443721	0.402330
O156	O	1.009913	0.056279	0.902330
Cu157	Cu	0.502588	-0.488762	0.469295
Cu158	Cu	1.002588	0.011238	0.969295
Cu159	Cu	0.598719	-0.520726	0.437151
Cu160	Cu	1.098719	-0.020726	0.937151
O161	O	0.509997	-0.443938	0.484117
O162	O	1.009997	0.056062	0.984117
N163	N	0.666332	-0.543209	0.414541
N164	N	1.166332	-0.043209	0.914541
N165	N	0.090323	-0.121809	0.492157
N166	N	0.590323	0.378191	0.992157
O167	O	-0.026342	0.034503	0.487582
O168	O	0.473658	0.534503	0.987582
O169	O	0.102626	0.034543	0.392540
O170	O	0.602626	0.534543	0.892540
O171	O	0.020797	0.034507	0.392812
O172	O	0.520797	0.534507	0.892812
O173	O	0.055487	0.034539	0.487310
O174	O	0.555487	0.534539	0.987310
O175	O	0.047933	-0.046785	0.419900
O176	O	0.547933	0.453215	0.919900
O177	O	0.129763	-0.046749	0.419628
O178	O	0.629763	0.453251	0.919628
O179	O	0.000794	-0.046789	0.514670
O180	O	0.500794	0.453211	1.014670
Cu181	Cu	0.067756	-0.054192	0.469623
Cu182	Cu	0.567756	0.445808	0.969623
Cu183	Cu	0.035664	0.041946	0.437588
Cu184	Cu	0.535664	0.541946	0.937588
O185	O	0.082623	-0.046753	0.514399
O186	O	0.582623	0.453247	1.014399
N187	N	0.013091	0.109564	0.415054
N188	N	0.513091	0.609564	0.915054
N189	N	0.090671	-0.466416	0.836606
N190	N	0.590671	0.033584	1.336606
O191	O	0.086120	-0.583065	0.992910
O192	O	0.586120	-0.083065	1.492910
O193	O	-0.008880	-0.454051	0.992954
O194	O	0.491120	0.045949	1.492954
O195	O	-0.008658	-0.535864	0.992931
O196	O	0.491342	-0.035864	1.492931
O197	O	0.085897	-0.501252	0.992933
O198	O	0.585897	-0.001252	1.492933
O199	O	0.018407	-0.508749	0.911642
O200	O	0.518407	-0.008749	1.411642
O201	O	0.018185	-0.426936	0.911665
O202	O	0.518185	0.073064	1.411665
O203	O	0.113185	-0.555949	0.911621
O204	O	0.613185	-0.055949	1.411621
Cu205	Cu	0.068156	-0.488967	0.904221
Cu206	Cu	0.568156	0.011033	1.404221
Cu207	Cu	0.036148	-0.521034	1.000355
Cu208	Cu	0.536148	-0.021034	1.500355
O209	O	0.112963	-0.474136	0.911644
O210	O	0.612963	0.025864	1.411644
N211	N	0.013633	-0.543590	1.067970
N212	N	0.513633	-0.043590	1.567970
C213	C	0.031262	-0.424144	0.393290
C214	C	0.531262	0.075856	0.893290
C215	C	0.132513	-0.525291	0.393180
C216	C	0.632513	-0.025291	0.893180
C217	C	0.072229	-0.585787	0.514090
C218	C	0.572229	-0.085787	1.014090
C219	C	-0.029022	-0.484640	0.514200
C220	C	0.470978	0.015360	1.014200
C221	C	0.550775	-0.565338	0.533954
C222	C	1.050775	-0.065338	1.033954
C223	C	0.550672	-0.565070	0.432670
C224	C	1.050672	-0.065070	0.932670
C225	C	0.550530	-0.444149	0.372492
C226	C	1.050530	0.055851	0.872492
C227	C	0.550635	-0.444418	0.473776
C228	C	1.050635	0.055582	0.973776
C229	C	0.132408	-0.005998	0.392963
C230	C	0.632408	0.494002	0.892963
C231	C	0.031106	-0.006142	0.393333
C232	C	0.531106	0.493858	0.893333
C233	C	-0.029021	-0.006147	0.514213
C234	C	0.470979	0.493853	1.014213
C235	C	0.072314	-0.006104	0.513878
C236	C	0.572314	0.493896	1.013878
C237	C	-0.008430	-0.424240	0.952316
C238	C	0.491570	0.075760	1.452316
C239	C	-0.008150	-0.525550	0.952271
C240	C	0.491850	-0.025550	1.452271
C241	C	0.112735	-0.585760	0.952260
C242	C	0.612735	-0.085760	1.452260
C243	C	0.112461	-0.484444	0.952286
C244	C	0.612461	0.015556	1.452286
H245	H	0.047048	-0.396226	0.739820
H246	H	0.547048	0.103774	1.239820
C247	C	-0.047816	-0.535319	0.952250
C248	C	0.452184	-0.035319	1.452250
C249	C	-0.089683	-0.493615	0.952263
C250	C	0.410317	0.006385	1.452263
C251	C	-0.126235	-0.502598	0.952250
C252	C	0.373765	-0.002598	1.452250
H253	H	-0.036580	-0.543048	0.923896
H254	H	0.463420	-0.043048	1.423896
H255	H	-0.055454	-0.561970	0.980594
H256	H	0.444546	-0.061970	1.480594
H257	H	-0.082045	-0.466972	0.923921
H258	H	0.417955	0.033028	1.423921
H259	H	-0.100933	-0.485879	0.980614
H260	H	0.399067	0.014121	1.480614
H261	H	-0.133873	-0.529249	0.980595
H262	H	0.366127	-0.029249	1.480595
H263	H	-0.114994	-0.510328	0.923896
H264	H	0.385006	-0.010328	1.423896
H265	H	-0.154647	-0.474305	0.952264
H266	H	0.345353	0.025695	1.452264
C267	C	0.550711	-0.604762	0.422886
C268	C	1.050711	-0.104762	0.922886
C269	C	0.550793	-0.646642	0.464570
C270	C	1.050793	-0.146642	0.964570
C271	C	0.550835	-0.683219	0.455574
C272	C	1.050835	-0.183219	0.955574
H273	H	0.522354	-0.593559	0.415178
H274	H	1.022354	-0.093559	0.915178
H275	H	0.579050	-0.612375	0.396219
H276	H	1.079050	-0.112375	0.896219
H277	H	0.522457	-0.639030	0.491229
H278	H	1.022457	-0.139030	0.991229
H279	H	0.579149	-0.657860	0.472285
H280	H	1.079149	-0.157860	0.972285
H281	H	0.579174	-0.690831	0.428906
H282	H	1.079174	-0.190831	0.928906
H283	H	0.522477	-0.672011	0.447864
H284	H	1.022477	-0.172011	0.947864
H285	H	0.550895	-0.711640	0.483853
H286	H	1.050895	-0.211640	0.983853
C287	C	0.181921	-0.535110	0.353468
C288	C	0.681921	-0.035110	0.853468
C289	C	0.190560	-0.574403	0.342305
C290	C	0.690560	-0.074403	0.842305
C291	C	0.236071	-0.583467	0.305730
C292	C	0.736071	-0.083467	0.805730
H293	H	0.182051	-0.506857	0.325030
H294	H	0.682051	-0.006857	0.825030
H295	H	0.206806	-0.542867	0.364674
H296	H	0.706806	-0.042867	0.864674
H297	H	0.165681	-0.566644	0.331097
H298	H	0.665681	-0.066644	0.831097
H299	H	0.190440	-0.602664	0.370732
H300	H	0.690440	-0.102664	0.870732
H301	H	0.260956	-0.591224	0.316936
H302	H	0.760956	-0.091224	0.816936
H303	H	0.236197	-0.555211	0.277294
H304	H	0.736197	-0.055211	0.777294
H305	H	0.241941	-0.610130	0.298154
H306	H	0.741941	-0.110130	0.798154
H307	H	0.550467	-0.414317	0.335455
H308	H	1.050467	0.085683	0.835455
H309	H	0.550826	-0.595166	0.570996
H310	H	1.050826	-0.095166	1.070996
H311	H	0.550629	-0.414708	0.481180
H312	H	1.050629	0.085292	0.981180
H313	H	0.169370	-0.005761	0.363053
H314	H	0.669370	0.494239	0.863053
H315	H	-0.066059	-0.006159	0.544050
H316	H	0.433941	0.493841	1.044050
H317	H	0.023675	-0.006147	0.363643
H318	H	0.523675	0.493853	0.863643
C319	C	-0.234065	-0.532952	0.294307
C320	C	0.265935	-0.032952	0.794307
C321	C	-0.221584	-0.558653	0.264941
C322	C	0.278416	-0.058653	0.764941
C323	C	-0.247038	-0.529291	0.231565
C324	C	0.252962	-0.029291	0.731565
H325	H	-0.268217	-0.524513	0.311560
H326	H	0.231783	-0.024513	0.811560
H327	H	-0.225637	-0.504042	0.274326
H328	H	0.274363	-0.004042	0.774326
H329	H	-0.230015	-0.587554	0.284920
H330	H	0.269985	-0.087554	0.784920
H331	H	-0.187436	-0.567092	0.247678
H332	H	0.312564	-0.067092	0.747678
H333	H	-0.238610	-0.500381	0.211584
H334	H	0.261390	-0.000381	0.711584
H335	H	-0.281189	-0.520853	0.248822
H336	H	0.218811	-0.020853	0.748822
H337	H	-0.238570	-0.546723	0.211634
H338	H	0.261430	-0.046723	0.711634
H339	H	0.079602	-0.622875	0.543835
H340	H	0.579602	-0.122875	1.043835
C341	C	-0.127649	-0.655748	0.433304
C342	C	0.372351	-0.155748	0.933304
C343	C	-0.098295	-0.700933	0.425997
C344	C	0.401705	-0.200933	0.925997
C345	C	-0.072747	-0.730460	0.459291
C346	C	0.427253	-0.230460	0.959291
H347	H	-0.107647	-0.640213	0.428458
H348	H	0.392353	-0.140213	0.928458
H349	H	-0.150236	-0.660670	0.465695
H350	H	0.349764	-0.160670	0.965695
H351	H	-0.075710	-0.696010	0.393614
H352	H	0.424290	-0.196010	0.893614
H353	H	-0.118285	-0.716481	0.430847
H354	H	0.381715	-0.216481	0.930847
H355	H	-0.095334	-0.735381	0.491682
H356	H	0.404666	-0.235381	0.991682
H357	H	-0.052747	-0.714921	0.454442
H358	H	0.447253	-0.214921	0.954442
H359	H	-0.052830	-0.761122	0.454341
H360	H	0.447170	-0.261122	0.954341
H361	H	0.016194	-0.427197	0.832639
H362	H	0.516194	0.072803	1.332639
H363	H	0.079744	-0.006095	0.543566
H364	H	0.579744	0.493905	1.043566
C365	C	-0.048147	-0.374813	0.952358
C366	C	0.451853	0.125187	1.452358
C367	C	-0.030638	-0.344647	0.952376
C368	C	0.469362	0.155353	1.452376
C369	C	-0.067213	-0.299113	0.952422
C370	C	0.432787	0.200887	1.452422
H371	H	-0.057065	-0.360123	0.924022
H372	H	0.442935	0.139877	1.424022
H373	H	-0.075917	-0.379078	0.980720
H374	H	0.424083	0.120922	1.480720
H375	H	-0.002876	-0.340380	0.924017
H376	H	0.497124	0.159620	1.424017
H377	H	-0.021723	-0.359321	0.980710
H378	H	0.478277	0.140679	1.480710
H379	H	-0.094983	-0.303379	0.980784
H380	H	0.405017	0.196621	1.480784
H381	H	-0.076129	-0.284429	0.924085
H382	H	0.423871	0.215571	1.424085
H383	H	-0.055340	-0.278641	0.952439
H384	H	0.444660	0.221359	1.452439
C385	C	0.152437	-0.635203	0.952264
C386	C	0.652437	-0.135203	1.452264
C387	C	0.134919	-0.665377	0.952268
C388	C	0.634919	-0.165377	1.452268
C389	C	0.171477	-0.710928	0.952277
C390	C	0.671477	-0.210928	1.452277
H391	H	0.180224	-0.630984	0.923922
H392	H	0.680224	-0.130984	1.423922
H393	H	0.161324	-0.649859	0.980620
H394	H	0.661324	-0.149859	1.480620
H395	H	0.126039	-0.650724	0.923915
H396	H	0.626039	-0.150724	1.423915
H397	H	0.107137	-0.669610	0.980609
H398	H	0.607137	-0.169610	1.480609
H399	H	0.180364	-0.725584	0.980632
H400	H	0.680364	-0.225584	1.480632
H401	H	0.199262	-0.706704	0.923934
H402	H	0.699262	-0.206704	1.423934
H403	H	0.159595	-0.731408	0.952284
H404	H	0.659595	-0.231408	1.452284
C405	C	-0.078456	-0.474811	0.553876
C406	C	0.421544	0.025189	1.053876
C407	C	-0.108585	-0.427110	0.536301
C408	C	0.391415	0.072890	1.036301
C409	C	-0.154124	-0.418035	0.572839
C410	C	0.345876	0.081965	1.072839
H411	H	-0.093167	-0.497359	0.562816
H412	H	0.406833	0.002641	1.062816
H413	H	-0.074197	-0.478457	0.581644
H414	H	0.425803	0.021543	1.081644
H415	H	-0.112845	-0.423468	0.508541
H416	H	0.387155	0.076532	1.008541
H417	H	-0.093889	-0.404551	0.527364
H418	H	0.406111	0.095449	1.027364
H419	H	-0.149865	-0.421681	0.600607
H420	H	0.350135	0.078319	1.100607
H421	H	-0.168830	-0.440586	0.581776
H422	H	0.331170	0.059414	1.081776
H423	H	-0.174570	-0.385668	0.560921
H424	H	0.325430	0.114332	1.060921
C425	C	0.152089	-0.474510	0.952178
C426	C	0.652089	0.025490	1.452178
C427	C	0.163191	-0.435204	0.910356
C428	C	0.663191	0.064796	1.410356
C429	C	0.199698	-0.426042	0.910235
C430	C	0.699698	0.073958	1.410235
H431	H	0.140858	-0.466724	0.980495
H432	H	0.640858	0.033276	1.480495
H433	H	0.180559	-0.502745	0.952139
H434	H	0.680559	-0.002745	1.452139
H435	H	0.134726	-0.406974	0.910399
H436	H	0.634726	0.093026	1.410399
H437	H	0.174430	-0.442979	0.882031
H438	H	0.674430	0.057021	1.382031
H439	H	0.228169	-0.454278	0.910197
H440	H	0.728169	0.045722	1.410197
H441	H	0.188463	-0.418258	0.938555
H442	H	0.688463	0.081742	1.438555
H443	H	0.207238	-0.399375	0.881858
H444	H	0.707238	0.100625	1.381858
C445	C	0.176951	-0.510966	0.839367
C446	C	0.676951	-0.010966	1.339367
C447	C	0.224638	-0.518131	0.805980
C448	C	0.724638	-0.018131	1.305980
C449	C	0.258014	-0.547573	0.831433
C450	C	0.758014	-0.047573	1.331433
H451	H	0.172117	-0.495391	0.859332
H452	H	0.672117	0.004609	1.359332
H453	H	0.172082	-0.541658	0.859312
H454	H	0.672082	-0.041658	1.359312
H455	H	0.229504	-0.487444	0.786044
H456	H	0.729504	0.012556	1.286044
H457	H	0.229487	-0.533711	0.786015
H458	H	0.729487	-0.033711	1.286015
H459	H	0.253146	-0.578265	0.851378
H460	H	0.753146	-0.078265	1.351378
H461	H	0.253176	-0.531995	0.851397
H462	H	0.753176	-0.031995	1.351397
H463	H	0.290373	-0.552442	0.808784
H464	H	0.790373	-0.052442	1.308784
H465	H	0.198696	-0.471996	0.739692
H466	H	0.698696	0.028004	1.239692
H467	H	0.015920	-0.427139	0.531437
H468	H	0.515920	0.072861	1.031437
C469	C	0.037790	-0.388202	0.570324
C470	C	0.537790	0.111798	1.070324
C471	C	-0.009920	-0.381029	0.577518
C472	C	0.490080	0.118971	1.077518
C473	C	-0.043247	-0.351600	0.606924
C474	C	0.456753	0.148400	1.106924
H475	H	0.042669	-0.403790	0.601009
H476	H	0.542669	0.096210	1.101009
H477	H	0.042664	-0.357511	0.554700
H478	H	0.542664	0.142489	1.054700
H479	H	-0.014792	-0.411714	0.593143
H480	H	0.485208	0.088286	1.093143
H481	H	-0.014815	-0.365435	0.546843
H482	H	0.485185	0.134565	1.046843
H483	H	-0.038374	-0.320909	0.591300
H484	H	0.461626	0.179091	1.091300
H485	H	-0.038364	-0.367192	0.637606
H486	H	0.461636	0.132808	1.137606
H487	H	-0.075622	-0.346726	0.611805
H488	H	0.424378	0.153274	1.111805
C489	C	0.021375	-0.374718	0.353609
C490	C	0.521375	0.125282	0.853609
C491	C	-0.017926	-0.366114	0.342480
C492	C	0.482074	0.133886	0.842480
C493	C	-0.027043	-0.320591	0.305924
C494	C	0.472957	0.179409	0.805924
H495	H	0.013605	-0.349827	0.364807
H496	H	0.513605	0.150173	0.864807
H497	H	0.049621	-0.374570	0.325157
H498	H	0.549621	0.125430	0.825157
H499	H	-0.046165	-0.366258	0.370926
H500	H	0.453835	0.133742	0.870926
H501	H	-0.010166	-0.390993	0.331275
H502	H	0.489834	0.109007	0.831275
H503	H	0.001202	-0.320444	0.277472
H504	H	0.501202	0.179556	0.777472
H505	H	-0.034812	-0.295704	0.317125
H506	H	0.465188	0.204296	0.817125
H507	H	-0.053707	-0.314749	0.298365
H508	H	0.446293	0.185251	0.798365
H509	H	0.167497	-0.502899	0.455559
H510	H	0.667497	-0.002899	0.955559
H511	H	0.338156	-0.509129	0.552896
H512	H	0.838156	-0.009129	1.052896
C513	C	0.212132	-0.475263	0.482999
C514	C	0.712132	0.024737	0.982999
C515	C	0.233142	-0.457855	0.432097
C516	C	0.733142	0.042145	0.932097
C517	C	0.283468	-0.470165	0.419584
C518	C	0.783468	0.029835	0.919584
H519	H	0.217602	-0.460898	0.497312
H520	H	0.717602	0.039102	0.997312
H521	H	0.226550	-0.509790	0.494720
H522	H	0.726550	-0.009790	0.994720
H523	H	0.218728	-0.423335	0.420381
H524	H	0.718728	0.076665	0.920381
H525	H	0.227685	-0.472217	0.417772
H526	H	0.727685	0.027783	0.917772
H527	H	0.297887	-0.504692	0.431305
H528	H	0.797887	-0.004692	0.931305
H529	H	0.288934	-0.455800	0.433900
H530	H	0.788934	0.044200	0.933900
H531	H	0.297731	-0.458360	0.385046
H532	H	0.797731	0.041640	0.885046
C533	C	0.437838	-0.553621	0.523926
C534	C	0.937838	-0.053621	1.023926
C535	C	0.404498	-0.578765	0.548901
C536	C	0.904498	-0.078765	1.048901
C537	C	0.430002	-0.628713	0.556220
C538	C	0.930002	-0.128713	1.056220
H539	H	0.457779	-0.558426	0.493209
H540	H	0.957779	-0.058426	0.993209
H541	H	0.457810	-0.565642	0.542677
H542	H	0.957810	-0.065642	1.042677
H543	H	0.384534	-0.566748	0.530150
H544	H	0.884534	-0.066748	1.030150
H545	H	0.384556	-0.573974	0.579623
H546	H	0.884556	-0.073974	1.079623
H547	H	0.449975	-0.640735	0.574971
H548	H	0.949975	-0.140735	1.074971
H549	H	0.449942	-0.633513	0.525501
H550	H	0.949942	-0.133513	1.025501
H551	H	0.407385	-0.645780	0.573170
H552	H	0.907385	-0.145780	1.073170
H553	H	0.430920	-0.389838	0.464614
H554	H	0.930920	0.110162	0.964614
H555	H	0.338097	-0.358917	0.495611
H556	H	0.838097	0.141083	0.995611
H557	H	0.129496	-0.125810	0.417697
H558	H	0.629496	0.374190	0.917697
C559	C	0.168443	-0.225494	0.439498
C560	C	0.668443	0.274506	0.939498
C561	C	0.175557	-0.192124	0.391799
C562	C	0.675557	0.307876	0.891799
C563	C	0.204925	-0.217599	0.358444
C564	C	0.704925	0.282401	0.858444
H565	H	0.199152	-0.245449	0.444322
H566	H	0.699152	0.254551	0.944322
H567	H	0.152822	-0.245452	0.444399
H568	H	0.652822	0.254548	0.944399
H569	H	0.191178	-0.172174	0.386899
H570	H	0.691178	0.327826	0.886899
H571	H	0.144856	-0.172168	0.386959
H572	H	0.644856	0.327832	0.886959
H573	H	0.189304	-0.237557	0.363346
H574	H	0.689304	0.262443	0.863346
H575	H	0.235632	-0.237553	0.363273
H576	H	0.735632	0.262447	0.863273
H577	H	0.209752	-0.194961	0.326077
H578	H	0.709752	0.305039	0.826077
H579	H	0.053825	-0.125861	0.569312
H580	H	0.553825	0.374139	1.069312
H581	H	-0.059824	-0.503179	0.174290
H582	H	0.440176	-0.003179	0.674290
C583	C	0.081435	-0.225551	0.613891
C584	C	0.581435	0.274449	1.113891
C585	C	0.052042	-0.192203	0.639375
C586	C	0.552042	0.307797	1.139375
C587	C	0.039688	-0.217705	0.689703
C588	C	0.539688	0.282295	1.189703
H589	H	0.064056	-0.245522	0.622358
H590	H	0.564056	0.254478	1.122358
H591	H	0.110375	-0.245495	0.622280
H592	H	0.610375	0.254505	1.122280
H593	H	0.023107	-0.172268	0.630990
H594	H	0.523107	0.327732	1.130990
H595	H	0.069411	-0.172231	0.630923
H596	H	0.569411	0.327769	1.130923
H597	H	0.068628	-0.237649	0.698092
H598	H	0.568628	0.262351	1.198092
H599	H	0.022311	-0.237675	0.698165
H600	H	0.522311	0.262325	1.198165
H601	H	0.019748	-0.195083	0.707000
H602	H	0.519748	0.304917	1.207000
H603	H	-0.090896	-0.534066	0.267110
H604	H	0.409104	-0.034066	0.767110
H605	H	0.015913	-0.654818	0.174378
H606	H	0.515913	-0.154818	0.674378
H607	H	-0.015148	-0.685706	0.267200
H608	H	0.484852	-0.185706	0.767200
C609	C	-0.063428	-0.489497	0.338239
C610	C	0.436572	0.010503	0.838239
C611	C	-0.092760	-0.464002	0.308737
C612	C	0.407240	0.035998	0.808737
C613	C	-0.105104	-0.413673	0.296262
C614	C	0.394896	0.086327	0.796262
H615	H	-0.080846	-0.481010	0.367118
H616	H	0.419154	0.018990	0.867118
H617	H	-0.034481	-0.481135	0.320902
H618	H	0.465519	0.018865	0.820902
H619	H	-0.121702	-0.472359	0.326074
H620	H	0.378298	0.027641	0.826074
H621	H	-0.075351	-0.472473	0.279853
H622	H	0.424649	0.027527	0.779853
H623	H	-0.076157	-0.405312	0.278925
H624	H	0.423843	0.094688	0.778925
H625	H	-0.122520	-0.405192	0.325143
H626	H	0.377480	0.094808	0.825143
H627	H	-0.125003	-0.396369	0.276240
H628	H	0.374997	0.103631	0.776240
H629	H	0.015562	-0.654800	0.417614
H630	H	0.515562	-0.154800	0.917614
C631	C	-0.011910	-0.699370	0.389964
C632	C	0.488090	-0.199370	0.889964
C633	C	0.017452	-0.724865	0.419437
C634	C	0.517452	-0.224865	0.919437
C635	C	0.029867	-0.775194	0.431840
C636	C	0.529867	-0.275194	0.931840
H637	H	-0.040815	-0.707792	0.407301
H638	H	0.459185	-0.207792	0.907301
H639	H	0.005509	-0.707795	0.361044
H640	H	0.505509	-0.207795	0.861044
H641	H	0.000033	-0.716443	0.448351
H642	H	0.500033	-0.216443	0.948351
H643	H	0.046364	-0.716458	0.402110
H644	H	0.546364	-0.216458	0.902110
H645	H	0.047286	-0.783619	0.402921
H646	H	0.547286	-0.283619	0.902921
H647	H	0.000959	-0.783611	0.449175
H648	H	0.500959	-0.283611	0.949175
H649	H	0.049794	-0.792498	0.451835
H650	H	0.549794	-0.292498	0.951835
H651	H	-0.090949	-0.534065	0.310634
H652	H	0.409051	-0.034065	0.810634
H653	H	0.021953	-0.691318	0.320042
H654	H	0.521953	-0.191318	0.820042
H655	H	-0.097376	-0.783993	0.408060
H656	H	0.402624	-0.283993	0.908060
C657	C	0.066396	-0.791019	0.349004
C658	C	0.566396	-0.291019	0.849004
C659	C	0.091556	-0.757698	0.324092
C660	C	0.591556	-0.257698	0.824092
C661	C	0.141489	-0.783231	0.316828
C662	C	0.641489	-0.283231	0.816828
H663	H	0.071164	-0.810980	0.379738
H664	H	0.571164	-0.310980	0.879738
H665	H	0.078435	-0.810974	0.330232
H666	H	0.578435	-0.310974	0.830232
H667	H	0.079520	-0.737751	0.342864
H668	H	0.579520	-0.237751	0.842864
H669	H	0.086802	-0.737736	0.293354
H670	H	0.586802	-0.237736	0.793354
H671	H	0.153529	-0.803187	0.298056
H672	H	0.653529	-0.303187	0.798056
H673	H	0.146253	-0.803192	0.347564
H674	H	0.646253	-0.303192	0.847564
H675	H	0.158567	-0.760627	0.299921
H676	H	0.658567	-0.260627	0.799921
H677	H	-0.128252	-0.691169	0.377093
H678	H	0.371748	-0.191169	0.877093
H679	H	-0.134369	-0.571905	0.272603
H680	H	0.365631	-0.071905	0.772603
C681	C	-0.234308	-0.620063	0.468754
C682	C	0.265692	-0.120063	0.968754
C683	C	-0.201010	-0.649514	0.494297
C684	C	0.298990	-0.149514	0.994297
C685	C	-0.226564	-0.661933	0.544613
C686	C	0.273436	-0.161933	1.044613
H687	H	-0.254271	-0.591160	0.477196
H688	H	0.245729	-0.091160	0.977196
H689	H	-0.254261	-0.637421	0.477118
H690	H	0.245739	-0.137421	0.977118
H691	H	-0.181065	-0.632156	0.485936
H692	H	0.318935	-0.132156	0.985936
H693	H	-0.181045	-0.678423	0.485870
H694	H	0.318955	-0.178423	0.985870
H695	H	-0.246517	-0.679292	0.552978
H696	H	0.253483	-0.179292	1.052978
H697	H	-0.246527	-0.633028	0.553050
H698	H	0.253473	-0.133028	1.053050
H699	H	-0.203975	-0.681921	0.561951
H700	H	0.296025	-0.181921	1.061951
