data_functionalizedCrystal
_audit_creation_method	'MofGen! by Chris Wilmer'
_symmetry_space_group_name_H-M	'P1'
_symmetry_Int_Tables_number	1
_symmetry_cell_setting	triclinic
loop_
_symmetry_equiv_pos_as_xyz
  x,y,z
_cell_length_a	10.654547
_cell_length_b	12.996460
_cell_length_c	10.654541
_cell_angle_alpha	90.005903
_cell_angle_beta	84.484992
_cell_angle_gamma	90.006286
loop_
_atom_site_label
_atom_site_type_symbol
_atom_site_fract_x
_atom_site_fract_y
_atom_site_fract_z
O1	O	1.667840	0.085584	0.176418
O2	O	1.302362	0.085582	0.193221
O3	O	1.493506	0.085577	0.002080
O4	O	1.476696	0.085589	0.367559
O5	O	1.493486	-0.085557	0.002069
O6	O	1.302342	-0.085552	0.193210
O7	O	1.667820	-0.085550	0.176407
Cu8	Cu	1.485079	-0.101177	0.184808
Cu9	Cu	1.485103	0.101209	0.184820
O10	O	1.476676	-0.085544	0.367548
C11	C	1.255554	0.000015	0.191981
C12	C	1.116111	0.000014	0.188287
N13	N	1.485071	-0.243524	0.184798
C14	C	0.854113	0.186603	0.181337
C15	C	0.919642	0.279888	0.183080
C16	C	1.050660	0.279885	0.186560
C17	C	1.116151	0.186587	0.188293
C18	C	1.050622	0.093302	0.186550
C19	C	0.919601	0.093315	0.183074
C20	C	1.050582	-0.093271	0.186545
C21	C	0.919563	-0.093271	0.183074
C22	C	1.116074	-0.186569	0.188278
C23	C	1.050543	-0.279857	0.186544
C24	C	0.919518	-0.279850	0.183065
C25	C	0.854034	-0.186556	0.181331
C26	C	1.485101	-0.663338	0.184822
C27	C	1.485089	-0.546533	0.184819
C28	C	1.485087	-0.453434	0.184811
C29	C	1.485074	-0.336622	0.184806
C30	C	1.714628	0.000020	0.177647
C31	C	1.854071	0.000027	0.181340
N32	N	1.485120	0.243556	0.184820
C33	C	1.492262	0.000011	-0.044724
C34	C	1.488571	0.000012	-0.184167
C35	C	1.717136	0.000000	-0.212136
C36	C	1.829679	-0.000008	-0.291629
C37	C	1.826203	-0.000004	-0.422647
C38	C	1.710172	0.000010	-0.474173
C39	C	1.597629	0.000018	-0.394680
C40	C	1.601117	0.000012	-0.263661
C41	C	1.369068	0.000037	-0.366712
C42	C	1.372540	0.000027	-0.235693
C43	C	1.253037	0.000052	-0.418238
C44	C	1.140491	0.000052	-0.338745
C45	C	1.143971	0.000048	-0.207719
C46	C	1.259997	0.000035	-0.156200
C47	C	1.477920	0.000024	0.414351
C48	C	1.481611	0.000029	0.553795
H49	H	0.866305	0.355849	0.181664
H50	H	1.719977	-0.000016	-0.105455
H51	H	1.046028	0.000071	-0.380709
H52	H	1.103878	-0.355812	0.187948
C53	C	1.290648	0.135793	0.301032
C54	C	1.260169	0.186579	0.192105
H55	H	1.379560	0.135781	0.303378
H56	H	1.252085	0.170260	0.373342
H57	H	1.260985	0.066886	0.300236
H58	H	1.289825	0.255488	0.192905
H59	H	1.298747	0.152113	0.119777
H60	H	0.866171	-0.355815	0.181651
C61	C	1.316959	-0.135783	0.085504
C62	C	1.260090	-0.186571	0.192107
H63	H	1.405868	-0.135782	0.087879
H64	H	1.296266	-0.170242	0.011618
H65	H	1.287323	-0.066873	0.084733
H66	H	1.289718	-0.255484	0.192874
H67	H	1.280792	-0.152114	0.266013
H68	H	1.707352	0.000025	-0.580856
H69	H	1.250215	0.000060	-0.524921
H70	H	0.747352	-0.186542	0.178506
H71	H	1.924149	-0.000028	-0.249661
H72	H	1.052324	0.000059	-0.143002
H73	H	1.262842	0.000025	-0.049520
H74	H	1.917846	-0.000003	-0.487371
H75	H	1.104013	0.355846	0.187977
C76	C	0.666432	0.288192	0.176513
C77	C	0.710084	0.186608	0.177620
H78	H	0.577511	0.288194	0.174240
H79	H	0.687212	0.322636	0.250377
H80	H	0.704957	0.322634	0.104155
H81	H	0.671565	0.152168	0.249983
H82	H	0.689292	0.152150	0.103747
