data_functionalizedCrystal
_audit_creation_method	'MofGen! by Chris Wilmer'
_symmetry_space_group_name_H-M	'P1'
_symmetry_Int_Tables_number	1
_symmetry_cell_setting	triclinic
loop_
_symmetry_equiv_pos_as_xyz
  x,y,z
_cell_length_a	11.026607
_cell_length_b	10.868271
_cell_length_c	11.792241
_cell_angle_alpha	90.005281
_cell_angle_beta	96.389716
_cell_angle_gamma	90.003487
loop_
_atom_site_label
_atom_site_type_symbol
_atom_site_fract_x
_atom_site_fract_y
_atom_site_fract_z
O1	O	1.613294	0.102332	0.475910
O2	O	1.259631	0.102332	0.421719
O3	O	1.445045	0.102323	0.285348
O4	O	1.427880	0.102341	0.612281
O5	O	1.445030	-0.102321	0.285338
O6	O	1.259616	-0.102312	0.421709
O7	O	1.613279	-0.102313	0.475901
Zn8	Zn	1.436445	-0.134804	0.448803
Zn9	Zn	1.436465	0.134824	0.448816
O10	O	1.427865	-0.102304	0.612271
C11	C	1.214347	0.000010	0.411716
C12	C	1.079437	0.000010	0.381914
N13	N	1.436440	-0.318818	0.448795
C14	C	1.006173	0.000015	0.464204
C15	C	0.866736	0.000015	0.433403
C16	C	1.436459	-0.569824	0.448813
C17	C	1.436444	-0.430147	0.448806
C18	C	1.658563	0.000012	0.485903
C19	C	1.793473	0.000020	0.515706
C20	C	1.443959	0.000002	0.242838
C21	C	1.440732	0.000003	0.116184
N22	N	1.436480	0.318838	0.448817
C23	C	1.434798	0.000023	-0.115707
C24	C	1.438095	0.000012	0.013333
C25	C	1.428951	0.000021	0.654781
C26	C	1.432178	0.000028	0.781436
H27	H	1.046678	0.000013	0.557458
C28	C	0.848171	0.000034	0.641693
H29	H	0.934712	0.000043	0.645870
H30	H	0.821775	-0.071324	0.678468
H31	H	0.821785	0.071413	0.678460
C32	C	0.812035	0.000015	0.307417
H33	H	0.725494	0.000026	0.303243
H34	H	0.838420	-0.071347	0.270635
H35	H	0.838431	0.071390	0.270655
H36	H	1.038932	0.000037	0.288660
