data_functionalizedCrystal
_audit_creation_method	'MofGen! by Chris Wilmer'
_symmetry_space_group_name_H-M	'P1'
_symmetry_Int_Tables_number	1
_symmetry_cell_setting	triclinic
loop_
_symmetry_equiv_pos_as_xyz
  x,y,z
_cell_length_a	19.188930
_cell_length_b	9.065218
_cell_length_c	7.540329
_cell_angle_alpha	90.001757
_cell_angle_beta	90.016835
_cell_angle_gamma	84.080333
loop_
_atom_site_label
_atom_site_type_symbol
_atom_site_fract_x
_atom_site_fract_y
_atom_site_fract_z
O1	O	-0.927574	-0.184174	-0.148046
O2	O	-0.427574	0.315826	0.351954
O3	O	-0.724456	-0.208967	-0.147924
O4	O	-0.224456	0.291033	0.352076
O5	O	-0.830213	0.018217	-0.147984
O6	O	-0.330213	0.518217	0.352016
O7	O	-0.821816	-0.411359	-0.147986
O8	O	-0.321816	0.088641	0.352014
O9	O	-0.830207	0.018220	0.146981
O10	O	-0.330207	0.518220	0.646981
O11	O	-0.724449	-0.208965	0.147041
O12	O	-0.224449	0.291035	0.647041
O13	O	-0.927568	-0.184171	0.146919
O14	O	-0.427568	0.315829	0.646919
Cu15	Cu	-0.826008	-0.196568	0.173912
Cu16	Cu	-0.326008	0.303432	0.673912
Cu17	Cu	-0.826015	-0.196571	-0.174918
Cu18	Cu	-0.326015	0.303429	0.325082
O19	O	-0.821810	-0.411356	0.146979
O20	O	-0.321810	0.088644	0.646979
C21	C	-0.698435	-0.208163	-0.000426
C22	C	-0.198435	0.291837	0.499574
C23	C	-0.620912	-0.205753	-0.000379
C24	C	-0.120912	0.294247	0.499621
C25	C	-0.829403	0.073177	-0.000504
C26	C	-0.329403	0.573177	0.499496
C27	C	-0.826990	0.236936	-0.000511
C28	C	-0.326990	0.736936	0.499489
C29	C	-0.953588	-0.184976	-0.000583
C30	C	-0.453588	0.315024	0.499417
C31	C	-1.031112	-0.187386	-0.000642
C32	C	-0.531112	0.312614	0.499358
C33	C	-0.577024	-0.339058	-0.000408
C34	C	-0.077024	0.160942	0.499592
C35	C	-0.504182	-0.336793	-0.000427
C36	C	-0.004182	0.163207	0.499573
C37	C	-0.475232	-0.201217	-0.000454
C38	C	0.024768	0.298783	0.499546
C39	C	-0.519130	-0.067895	-0.000415
C40	C	-0.019130	0.432105	0.499585
C41	C	-0.591970	-0.070163	-0.000378
C42	C	-0.091970	0.429837	0.499622
N43	N	-0.366449	-0.097586	-0.100914
N44	N	0.133551	0.402414	0.399086
N45	N	-0.297254	-0.095441	-0.100953
N46	N	0.202746	0.404559	0.399047
C47	C	-0.255771	-0.194375	-0.000562
C48	C	0.244229	0.305625	0.499438
N49	N	-0.286095	-0.295558	0.099847
N50	N	0.213905	0.204442	0.599847
N51	N	-0.355297	-0.297708	0.099878
N52	N	0.144703	0.202292	0.599878
C53	C	-0.396251	-0.198742	-0.000493
C54	C	0.103749	0.301258	0.499507
C55	C	-0.132899	-0.325234	-0.000610
C56	C	0.367101	0.174766	0.499390
C57	C	-0.060056	-0.322964	-0.000618
C58	C	0.439944	0.177036	0.499382
C59	C	-0.075006	-0.054061	-0.000624
C60	C	0.424994	0.445939	0.499376
C61	C	-0.147847	-0.056335	-0.000598
C62	C	0.352153	0.443665	0.499402
C63	C	-0.176789	-0.191925	-0.000599
C64	C	0.323211	0.308075	0.499401
C65	C	-0.822620	-0.466316	-0.000505
C66	C	-0.322620	0.033684	0.499495
C67	C	-0.825033	-0.630075	-0.000510
C68	C	-0.325033	-0.130075	0.499490
N69	N	-0.826008	-0.196565	0.419261
N70	N	-0.326008	0.303435	0.919261
N71	N	-0.826021	-0.196563	-0.420266
N72	N	-0.326021	0.303437	0.079734
H73	H	-0.600583	-0.449466	-0.000412
H74	H	-0.100583	0.050534	0.499588
H75	H	-0.183582	0.052216	-0.000584
H76	H	0.316418	0.552216	0.499416
H77	H	-0.468442	-0.445349	-0.000446
H78	H	0.031558	0.054651	0.499554
H79	H	-0.156464	-0.435639	-0.000584
H80	H	0.343536	0.064361	0.499416
C81	C	-0.414109	0.054976	-0.000507
C82	C	0.085891	0.554976	0.499493
C83	C	-0.487311	0.081134	-0.000455
C84	C	0.012689	0.581134	0.499545
H85	H	-0.394467	0.146985	-0.000537
H86	H	0.105533	0.646985	0.499463
H87	H	-0.399083	0.000119	0.102341
H88	H	0.100917	0.500119	0.602341
H89	H	-0.399130	0.000102	-0.103382
H90	H	0.100870	0.500102	0.396618
H91	H	-0.502290	0.135999	0.102427
H92	H	-0.002290	0.635999	0.602427
H93	H	-0.502343	0.136014	-0.103314
H94	H	-0.002343	0.636014	0.396686
C95	C	-0.599429	0.195860	-0.000393
C96	C	-0.099429	0.695860	0.499607
C97	C	-0.640217	0.076376	-0.000368
C98	C	-0.140217	0.576376	0.499632
H99	H	-0.629217	0.286326	-0.000401
H100	H	-0.129217	0.786326	0.499599
H101	H	-0.570694	0.191158	0.102453
H102	H	-0.070694	0.691158	0.602453
H103	H	-0.570722	0.191140	-0.103269
H104	H	-0.070722	0.691140	0.396731
H105	H	-0.668920	0.081091	0.102516
H106	H	-0.168920	0.581091	0.602516
H107	H	-0.668965	0.081081	-0.103224
H108	H	-0.168965	0.581081	0.396776
C109	C	-0.052600	-0.588986	-0.000653
C110	C	0.447400	-0.088986	0.499347
C111	C	-0.011811	-0.469505	-0.000651
C112	C	0.488189	0.030495	0.499349
H113	H	-0.022813	-0.679453	-0.000684
H114	H	0.477187	-0.179453	0.499316
H115	H	-0.081301	-0.584287	0.102213
H116	H	0.418699	-0.084287	0.602213
H117	H	-0.081342	-0.584258	-0.103510
H118	H	0.418658	-0.084258	0.396490
H119	H	0.016927	-0.474226	0.102214
H120	H	0.516927	0.025774	0.602214
H121	H	0.016902	-0.474206	-0.103527
H122	H	0.516902	0.025794	0.396473
H123	H	-0.051436	0.056328	-0.000756
H124	H	0.448564	0.556328	0.499244
