data_functionalizedCrystal
_audit_creation_method	'MofGen! by Chris Wilmer'
_symmetry_space_group_name_H-M	'P1'
_symmetry_Int_Tables_number	1
_symmetry_cell_setting	triclinic
loop_
_symmetry_equiv_pos_as_xyz
  x,y,z
_cell_length_a	14.971496
_cell_length_b	14.971487
_cell_length_c	9.730223
_cell_angle_alpha	89.997118
_cell_angle_beta	89.994689
_cell_angle_gamma	96.383736
loop_
_atom_site_label
_atom_site_type_symbol
_atom_site_fract_x
_atom_site_fract_y
_atom_site_fract_z
O1	O	0.116565	-1.186947	-0.114096
O2	O	0.130523	-0.926547	-0.114142
O3	O	-0.006656	-1.063722	-0.114106
O4	O	0.253743	-1.049772	-0.114133
O5	O	-0.006659	-1.063713	0.114474
O6	O	0.130519	-0.926539	0.114438
O7	O	0.116561	-1.186938	0.114484
Zn8	Zn	0.123539	-1.056737	0.150753
Zn9	Zn	0.123544	-1.056748	-0.150411
O10	O	0.253740	-1.049763	0.114447
C11	C	0.129897	-0.893218	0.000142
C12	C	0.128026	-0.793921	0.000125
C13	C	0.208614	-0.736699	0.000117
C14	C	0.206851	-0.643399	0.000134
C15	C	0.124498	-0.607324	0.000150
C16	C	0.043903	-0.664554	0.000162
C17	C	0.045667	-0.757851	0.000155
C18	C	0.040232	-0.470091	0.000175
C19	C	0.038467	-0.376787	0.000181
C20	C	0.201415	-0.355639	0.000155
C21	C	0.203180	-0.448937	0.000147
C22	C	0.122584	-0.506160	0.000157
C23	C	-0.039982	-1.063092	0.000184
C24	C	-0.139279	-1.061218	0.000185
C25	C	-0.566981	-1.053155	-0.124452
C26	C	-0.473682	-1.054921	-0.124445
C27	C	-0.427040	-1.055793	0.000159
C28	C	-0.473704	-1.054908	0.124765
C29	C	-0.567002	-1.053149	0.124757
C30	C	-0.279240	-1.058573	0.124773
C31	C	-0.185935	-1.060331	0.124781
C32	C	-0.185920	-1.060345	-0.124430
C33	C	-0.279218	-1.058585	-0.124438
C34	C	-0.325875	-1.057699	0.000169
C35	C	0.287066	-1.050393	0.000154
C36	C	0.386363	-1.052267	0.000145
N37	N	0.123536	-1.056736	0.356289
C38	C	0.117187	-0.220267	0.000189
C39	C	0.119056	-0.319565	0.000172
N40	N	0.123541	-1.056757	-0.355947
C41	C	0.062818	-1.117497	0.428231
C42	C	0.062819	-1.117506	0.572114
C43	C	0.184261	-0.995989	0.572100
C44	C	0.184256	-0.995976	0.428220
H45	H	0.270239	-0.478306	0.000121
H46	H	0.013376	-1.166982	0.630686
C47	C	-0.116986	-0.694836	0.000189
C48	C	-0.046623	-0.624903	0.000179
H49	H	-0.172873	-0.670357	0.000203
H50	H	-0.112907	-0.730780	-0.079518
H51	H	-0.112904	-0.730789	0.079905
H52	H	-0.050701	-0.588953	-0.079543
H53	H	-0.050704	-0.588944	0.079894
C54	C	0.271074	-0.203233	0.000166
C55	C	0.290009	-0.292742	0.000147
H56	H	0.325766	-0.164403	0.000162
H57	H	0.237311	-0.192287	-0.079528
H58	H	0.237314	-0.192303	0.079894
H59	H	0.323763	-0.303674	-0.079587
H60	H	0.323786	-0.303692	0.079849
H61	H	-0.317191	-1.057870	-0.225901
H62	H	-0.028592	-0.347418	0.000195
C63	C	-0.046874	-0.875044	-0.117344
C64	C	-0.042916	-0.820758	0.000159
H65	H	-0.101561	-0.913883	-0.117330
H66	H	-0.044181	-0.838204	-0.197039
H67	H	0.002431	-0.909873	-0.117338
H68	H	-0.092217	-0.785923	0.000148
H69	H	-0.045617	-0.857602	0.079874
H70	H	-0.604948	-1.052436	-0.225919
C71	C	-0.483035	-1.054741	-0.370775
C72	C	-0.422396	-1.055889	-0.261406
H73	H	-0.451371	-1.055334	-0.455331
H74	H	-0.526187	-1.106170	-0.365589
H75	H	-0.512662	-1.001931	-0.365589
H76	H	-0.392774	-1.108703	-0.266587
H77	H	-0.379228	-1.004454	-0.266595
C78	C	-0.071042	-0.985460	0.269302
C79	C	-0.134649	-1.061286	0.261733
H80	H	-0.039380	-0.986047	0.353852
H81	H	-0.029922	-0.986243	0.195086
H82	H	-0.100692	-0.932664	0.264124
H83	H	-0.104998	-1.114082	0.266901
H84	H	-0.175776	-1.060511	0.335970
H85	H	0.233699	-0.946493	0.369641
C86	C	-0.042874	-1.062862	-0.235088
C87	C	-0.134621	-1.061187	-0.261401
H88	H	-0.011199	-1.063343	-0.319647
H89	H	-0.020884	-1.011074	-0.183773
H90	H	-0.034318	-1.115315	-0.184016
H91	H	-0.143178	-1.008730	-0.312465
H92	H	-0.156618	-1.112980	-0.312738
H93	H	-0.317226	-1.057852	0.226241
H94	H	-0.435721	-1.055624	0.226220
C95	C	-0.557651	-1.053300	0.371091
C96	C	-0.618290	-1.052168	0.261718
H97	H	-0.589315	-1.052692	0.455645
H98	H	-0.528025	-1.106102	0.365925
H99	H	-0.514495	-1.001863	0.365887
H100	H	-0.661442	-1.103609	0.266916
H101	H	-0.647930	-0.999360	0.266886
H102	H	-0.025398	-0.516681	0.000185
C103	C	-0.057229	-1.237603	0.442702
C104	C	-0.003933	-1.184274	0.349164
H105	H	-0.098444	-1.278824	0.393889
H106	H	-0.019941	-1.269819	0.498803
H107	H	-0.089458	-1.200332	0.498838
H108	H	0.028302	-1.221544	0.293035
H109	H	-0.041225	-1.152055	0.293040
H110	H	0.233700	-0.946522	0.630681
H111	H	0.272475	-0.596812	0.000126
C112	C	0.369503	-0.706414	0.000107
C113	C	0.299141	-0.776347	0.000102
H114	H	0.425391	-0.730891	0.000110
H115	H	0.365428	-0.670461	-0.079596
H116	H	0.365415	-0.670469	0.079827
H117	H	0.303225	-0.812289	-0.079623
H118	H	0.303218	-0.812315	0.079814
