data_functionalizedCrystal
_audit_creation_method	'MofGen! by Chris Wilmer'
_symmetry_space_group_name_H-M	'P1'
_symmetry_Int_Tables_number	1
_symmetry_cell_setting	triclinic
loop_
_symmetry_equiv_pos_as_xyz
  x,y,z
_cell_length_a	6.817900
_cell_length_b	10.773890
_cell_length_c	10.992410
_cell_angle_alpha	95.398895
_cell_angle_beta	108.764651
_cell_angle_gamma	96.645716
loop_
_atom_site_label
_atom_site_type_symbol
_atom_site_fract_x
_atom_site_fract_y
_atom_site_fract_z
V1	V	-4.052541	-0.172595	-0.398500
O2	O	-4.075341	0.008294	-0.393068
O3	O	-3.969472	-0.342226	-0.393703
O4	O	-4.031082	-0.169940	-0.573245
O5	O	-4.013305	-0.165185	-0.212284
V6	V	-4.537170	-0.150958	-0.376479
O7	O	-4.311373	-0.220056	-0.446806
O8	O	-4.728536	-0.103497	-0.328173
O9	O	-4.397033	0.018673	-0.381276
O10	O	-4.631767	-0.331847	-0.381911
O11	O	-4.693804	-0.158368	-0.562695
O12	O	-4.335422	-0.153613	-0.201734
C13	C	-3.805167	-0.383578	-0.386882
C14	C	-3.818715	-0.522254	-0.384125
C15	C	-3.997529	-0.590117	-0.388916
C16	C	-4.011535	-0.733446	-0.386067
C17	C	-3.883756	-0.163809	-0.615904
C18	C	-3.947266	-0.162760	-0.758745
C19	C	-3.817803	-0.153210	-0.953984
C20	C	-3.751678	-0.154817	-0.805481
C21	C	-4.101306	-0.285759	-0.834357
C22	C	-4.166009	-0.284671	-0.982937
C23	C	-4.128927	-0.046502	-0.947793
C24	C	-4.058426	-0.045918	-0.798787
C25	C	-4.224678	0.060019	-0.388093
C26	C	-4.190369	0.198694	-0.390858
C27	C	-4.146089	-0.159748	-0.159068
C28	C	-4.061819	-0.160790	-0.016226
H29	H	-3.732437	-0.064160	-0.973893
H30	H	-3.868806	-0.781452	-0.379862
H31	H	-4.333106	-0.753303	-0.397075
H32	H	-3.675999	-0.570266	-0.377921
H33	H	-4.024529	-0.372509	-0.807700
H34	H	-3.634843	-0.066375	-0.753213
N35	N	-3.745859	-0.261982	-1.016220
H36	H	-3.870645	-0.316147	-1.084558
H37	H	-3.676397	-0.314335	-0.947839
N38	N	-3.636453	-0.265083	-0.771286
H39	H	-3.731483	-0.346299	-0.818162
H40	H	-3.592934	-0.266484	-0.674553
N41	N	-4.104426	-0.399296	-1.042851
H42	H	-4.035585	-0.450054	-0.972686
H43	H	-4.002934	-0.371451	-1.088241
H44	H	-4.344187	-0.295367	-1.025439
N45	N	-4.295651	-0.299353	-0.796054
H46	H	-4.285684	-0.225736	-0.729156
H47	H	-4.308040	-0.380656	-0.758340
H48	H	-4.059406	0.046901	-0.969284
N49	N	-3.911761	0.074615	-0.730927
H50	H	-3.773885	0.053635	-0.674474
H51	H	-3.976583	0.124016	-0.675271
N52	N	-4.363883	-0.052392	-1.001825
H53	H	-4.424452	-0.058977	-0.929627
H54	H	-4.426468	-0.128679	-1.070306
N55	N	-4.186599	-0.526541	-0.397157
H56	H	-4.149795	-0.433163	-0.398029
H57	H	-4.231238	-0.539910	-0.319604
N58	N	-4.247270	-0.043990	-0.755661
H59	H	-4.351137	-0.123384	-0.797250
H60	H	-4.315233	0.032094	-0.782674
