data_functionalizedCrystal
_audit_creation_method	'MofGen! by Chris Wilmer'
_symmetry_space_group_name_H-M	'P1'
_symmetry_Int_Tables_number	1
_symmetry_cell_setting	triclinic
loop_
_symmetry_equiv_pos_as_xyz
  x,y,z
_cell_length_a	14.044220
_cell_length_b	12.503552
_cell_length_c	14.519709
_cell_angle_alpha	86.474774
_cell_angle_beta	88.434511
_cell_angle_gamma	93.839891
loop_
_atom_site_label
_atom_site_type_symbol
_atom_site_fract_x
_atom_site_fract_y
_atom_site_fract_z
O1	O	1.263541	0.089211	0.217493
O2	O	0.987560	0.089238	0.209467
O3	O	1.132867	0.089214	0.079832
O4	O	1.118234	0.089235	0.347128
O5	O	1.121926	-0.089427	0.089590
O6	O	0.976619	-0.089403	0.219225
O7	O	1.252600	-0.089430	0.227250
Cu8	Cu	1.113611	-0.105728	0.224128
Cu9	Cu	1.126549	0.105535	0.212589
O10	O	1.107293	-0.089406	0.356885
C11	C	0.946769	-0.000079	0.210833
C12	C	0.841526	-0.000069	0.200356
N13	N	1.104517	-0.254319	0.232245
C14	C	0.648831	-0.000092	0.181202
C15	C	0.591324	-0.000091	0.255510
C16	C	0.484102	-0.000104	0.244853
C17	C	0.756063	-0.000079	0.191858
C18	C	1.149022	-0.526760	0.192523
C19	C	1.091149	-0.473426	0.244185
C20	C	1.098589	-0.351504	0.237540
C21	C	1.141583	-0.648693	0.199167
C22	C	1.293391	-0.000111	0.225884
C23	C	1.398634	-0.000114	0.236361
C24	C	1.126715	-0.000107	0.050296
C25	C	1.124671	-0.000107	-0.052250
N26	N	1.135650	0.254127	0.204466
C27	C	1.117148	-0.000078	-0.427754
C28	C	1.119237	-0.000087	-0.323277
C29	C	1.120909	-0.000094	-0.240005
C30	C	1.122999	-0.000100	-0.135522
C31	C	1.113446	-0.000083	0.386421
C32	C	1.115490	-0.000076	0.488967
H33	H	0.622617	-0.000080	0.327131
C34	C	1.016673	-0.535441	0.310688
N35	N	0.960585	-0.582156	0.360781
C36	C	0.606558	-0.000097	0.084451
N37	N	0.574707	-0.000096	0.011579
C38	C	1.223494	-0.464745	0.126027
N39	N	1.279584	-0.418023	0.075940
