data_functionalizedCrystal
_audit_creation_method	'MofGen! by Chris Wilmer'
_symmetry_space_group_name_H-M	'P1'
_symmetry_Int_Tables_number	1
_symmetry_cell_setting	triclinic
loop_
_symmetry_equiv_pos_as_xyz
  x,y,z
_cell_length_a	12.759401
_cell_length_b	10.686285
_cell_length_c	12.759393
_cell_angle_alpha	85.602469
_cell_angle_beta	89.979527
_cell_angle_gamma	85.633237
loop_
_atom_site_label
_atom_site_type_symbol
_atom_site_fract_x
_atom_site_fract_y
_atom_site_fract_z
Zn1	Zn	1.638395	-0.502230	-0.562006
Zn2	Zn	1.651791	-0.713271	-0.372874
Zn3	Zn	1.462700	-0.502299	-0.386337
Zn4	Zn	1.476183	-0.713181	-0.548517
O5	O	1.557267	-0.607745	-0.467433
O6	O	1.787194	-0.530234	-0.536928
O7	O	1.626671	-0.685352	-0.227634
O8	O	1.474758	-0.325714	-0.420920
O9	O	1.797036	-0.685285	-0.397973
O10	O	1.603840	-0.325663	-0.549983
O11	O	1.487747	-0.530352	-0.237525
O12	O	1.317467	-0.530264	-0.407839
O13	O	1.497738	-0.685131	-0.697331
O14	O	1.327373	-0.685198	-0.526992
O15	O	1.616914	-0.530146	-0.707242
O16	O	1.639745	-0.889836	-0.384893
O17	O	1.510727	-0.889769	-0.513937
C18	C	1.284299	-0.607730	-0.467413
C19	C	1.167524	-0.607754	-0.467428
C20	C	1.117855	-0.688551	-0.529357
C21	C	1.008132	-0.688555	-0.529378
C22	C	0.997754	-0.526963	-0.405531
C23	C	1.107476	-0.526953	-0.405517
C24	C	1.578181	-0.935587	-0.446513
C25	C	1.587224	-1.075839	-0.437599
C26	C	1.831302	-0.607762	-0.467454
C27	C	1.948079	-0.607769	-0.467462
C28	C	1.557336	-0.607621	-0.741475
C29	C	1.557365	-0.607568	-0.858255
C30	C	1.536301	-0.278624	-0.488458
C31	C	1.527366	-0.138372	-0.497417
C32	C	1.619443	-0.526807	-1.028014
C33	C	1.619426	-0.526856	-0.918287
C34	C	1.495325	-0.688246	-0.907955
C35	C	1.495349	-0.688202	-1.017680
C36	C	1.557254	-0.607778	-0.194464
C37	C	1.557406	-0.607476	-0.077707
H38	H	0.948850	-0.461180	-0.355123
H39	H	1.645385	-1.129605	-0.379554
C40	C	1.686634	-0.439048	-0.864412
C41	C	1.655779	-0.314194	-0.899067
C42	C	1.717661	-0.233264	-0.849455
H43	H	1.758432	-0.457338	-0.881195
H44	H	1.677728	-0.450540	-0.790461
H45	H	1.664694	-0.302707	-0.973002
H46	H	1.583991	-0.295864	-0.882285
H47	H	1.708755	-0.244756	-0.775504
H48	H	1.789455	-0.251566	-0.866241
H49	H	1.696728	-0.148541	-0.872954
H50	H	1.166744	-0.754341	-0.579772
C51	C	1.686639	-0.439015	-1.093251
C52	C	1.622013	-0.358083	-1.161387
C53	C	1.683880	-0.277182	-1.221485
H54	H	1.735512	-0.487122	-1.133071
H55	H	1.723562	-0.390907	-1.047974
H56	H	1.585109	-0.406186	-1.206659
H57	H	1.573142	-0.309948	-1.121595
H58	H	1.720802	-0.229074	-1.176208
H59	H	1.732749	-0.325299	-1.261299
H60	H	1.640039	-0.222252	-1.267715
C61	C	0.954138	-0.776072	-0.596757
C62	C	0.886652	-0.704730	-0.668780
C63	C	0.836907	-0.785308	-0.730881
H64	H	0.914733	-0.831020	-0.553114
H65	H	1.005583	-0.824167	-0.633688
H66	H	0.835213	-0.656657	-0.631852
H67	H	0.926031	-0.649785	-0.712446
H68	H	0.888352	-0.833402	-0.767811
H69	H	0.797508	-0.840252	-0.687229
H70	H	0.791120	-0.736914	-0.779762
C71	C	1.427933	-0.776040	-0.842960
C72	C	1.373639	-0.846712	-0.909966
C73	C	1.311564	-0.927622	-0.850132
H74	H	1.378982	-0.727946	-0.803213
H75	H	1.471614	-0.831099	-0.796674
H76	H	1.329962	-0.791660	-0.956233
H77	H	1.422564	-0.894831	-0.949713
H78	H	1.355245	-0.982681	-0.803846
H79	H	1.262620	-0.879519	-0.810388
H80	H	1.274726	-0.975591	-0.895586
H81	H	1.444830	-0.753899	-1.058140
C82	C	1.161217	-0.439178	-0.338162
C83	C	1.085150	-0.368449	-0.283917
C84	C	1.134618	-0.287592	-0.221856
H85	H	1.200531	-0.384143	-0.381819
H86	H	1.207050	-0.487351	-0.289184
H87	H	1.039336	-0.320280	-0.332889
H88	H	1.045832	-0.423451	-0.240241
H89	H	1.180451	-0.335765	-0.172878
H90	H	1.173931	-0.232565	-0.265521
H91	H	1.083015	-0.239601	-0.185037
C92	C	1.449886	-1.066858	-0.574970
C93	C	1.474723	-1.098739	-0.676935
C94	C	1.403364	-1.032889	-0.748404
H95	H	1.453848	-0.978939	-0.571026
H96	H	1.380663	-1.088504	-0.558237
H97	H	1.543929	-1.077084	-0.693664
H98	H	1.470754	-1.186647	-0.680913
H99	H	1.334141	-1.054535	-0.731670
H100	H	1.407332	-0.944973	-0.744451
H101	H	1.420201	-1.054519	-0.817593
