data_functionalizedCrystal
_audit_creation_method	'MofGen! by Chris Wilmer'
_symmetry_space_group_name_H-M	'P1'
_symmetry_Int_Tables_number	1
_symmetry_cell_setting	triclinic
loop_
_symmetry_equiv_pos_as_xyz
  x,y,z
_cell_length_a	21.295420
_cell_length_b	25.639240
_cell_length_c	21.295411
_cell_angle_alpha	89.973291
_cell_angle_beta	89.975408
_cell_angle_gamma	90.028539
loop_
_atom_site_label
_atom_site_type_symbol
_atom_site_fract_x
_atom_site_fract_y
_atom_site_fract_z
Zn1	Zn	0.962345	-0.208269	-0.355890
Zn2	Zn	1.212345	0.041731	-0.105890
Zn3	Zn	1.462345	0.291731	0.144110
Zn4	Zn	1.712345	0.541731	0.394110
Zn5	Zn	0.962244	-0.295689	-0.250606
Zn6	Zn	1.212244	-0.045689	-0.000606
Zn7	Zn	1.462244	0.204311	0.249394
Zn8	Zn	1.712244	0.454311	0.499394
Zn9	Zn	0.857069	-0.208263	-0.250635
Zn10	Zn	1.107069	0.041737	-0.000635
Zn11	Zn	1.357069	0.291737	0.249365
Zn12	Zn	1.607069	0.541737	0.499365
Zn13	Zn	0.857034	-0.295669	-0.355837
Zn14	Zn	1.107034	-0.045669	-0.105837
Zn15	Zn	1.357034	0.204331	0.144163
Zn16	Zn	1.607034	0.454331	0.394163
O17	O	0.909673	-0.251973	-0.303242
O18	O	1.159673	-0.001973	-0.053242
O19	O	1.409673	0.248027	0.196758
O20	O	1.659673	0.498027	0.446758
O21	O	1.050421	-0.219877	-0.341933
O22	O	1.300421	0.030123	-0.091933
O23	O	1.550421	0.280123	0.158067
O24	O	1.800421	0.530123	0.408067
O25	O	0.948264	-0.284098	-0.162520
O26	O	1.198264	-0.034098	0.087480
O27	O	1.448264	0.215902	0.337480
O28	O	1.698264	0.465902	0.587480
O29	O	0.871091	-0.135099	-0.264631
O30	O	1.121091	0.114901	-0.014631
O31	O	1.371091	0.364901	0.235369
O32	O	1.621091	0.614901	0.485369
O33	O	1.050347	-0.284104	-0.264582
O34	O	1.300347	-0.034104	-0.014582
O35	O	1.550347	0.215896	0.235418
O36	O	1.800347	0.465896	0.485418
O37	O	0.948437	-0.135103	-0.341961
O38	O	1.198437	0.114897	-0.091961
O39	O	1.448437	0.364897	0.158039
O40	O	1.698437	0.614897	0.408039
O41	O	0.870992	-0.219866	-0.162541
O42	O	1.120992	0.030134	0.087459
O43	O	1.370992	0.280134	0.337459
O44	O	1.620992	0.530134	0.587459
O45	O	0.768975	-0.219847	-0.264580
O46	O	1.018975	0.030153	-0.014580
O47	O	1.268975	0.280153	0.235420
O48	O	1.518975	0.530153	0.485420
O49	O	0.871032	-0.284069	-0.443934
O50	O	1.121032	-0.034069	-0.193934
O51	O	1.371032	0.215931	0.056066
O52	O	1.621032	0.465931	0.306066
O53	O	0.768949	-0.284063	-0.341872
O54	O	1.018949	-0.034063	-0.091872
O55	O	1.268949	0.215937	0.158128
O56	O	1.518949	0.465937	0.408128
O57	O	0.948404	-0.219857	-0.443972
O58	O	1.198404	0.030143	-0.193972
O59	O	1.448404	0.280143	0.056028
O60	O	1.698404	0.530143	0.306028
O61	O	0.948230	-0.368852	-0.264531
O62	O	1.198230	-0.118852	-0.014531
O63	O	1.448230	0.131148	0.235469
O64	O	1.698230	0.381148	0.485469
O65	O	0.870933	-0.368837	-0.341844
O66	O	1.120933	-0.118837	-0.091844
O67	O	1.370933	0.131163	0.158156
O68	O	1.620933	0.381163	0.408156
C69	C	0.746121	-0.251953	-0.303224
C70	C	0.996121	-0.001953	-0.053224
C71	C	1.246121	0.248047	0.196776
C72	C	1.496121	0.498047	0.446776
C73	C	0.676153	-0.251957	-0.303231
C74	C	0.926153	-0.001957	-0.053231
C75	C	1.176153	0.248043	0.196769
C76	C	1.426153	0.498043	0.446769
C77	C	0.176734	-0.218608	-0.343594
C78	C	0.426734	0.031392	-0.093594
C79	C	0.676734	0.281392	0.156406
C80	C	0.926734	0.531392	0.406406
C81	C	0.242476	-0.218605	-0.343594
C82	C	0.492476	0.031395	-0.093594
C83	C	0.742476	0.281395	0.156406
C84	C	0.992476	0.531395	0.406406
C85	C	0.275314	-0.251989	-0.303257
C86	C	0.525314	-0.001989	-0.053257
C87	C	0.775314	0.248011	0.196743
C88	C	1.025314	0.498011	0.446743
C89	C	0.242404	-0.285388	-0.262928
C90	C	0.492404	-0.035388	-0.012928
C91	C	0.742404	0.214612	0.237072
C92	C	0.992404	0.464612	0.487072
C93	C	0.176662	-0.285395	-0.262934
C94	C	0.426662	-0.035395	-0.012934
C95	C	0.676662	0.214605	0.237066
C96	C	0.926662	0.464605	0.487066
N97	N	0.378503	-0.255922	-0.248136
N98	N	0.628503	-0.005922	0.001864
N99	N	0.878503	0.244078	0.251864
N100	N	1.128503	0.494078	0.501864
N101	N	0.440955	-0.255912	-0.248133
N102	N	0.690955	-0.005912	0.001867
N103	N	0.940955	0.244088	0.251867
N104	N	1.190955	0.494088	0.501867
C105	C	0.473388	-0.251971	-0.303238
C106	C	0.723388	-0.001971	-0.053238
C107	C	0.973388	0.248029	0.196762
C108	C	1.223388	0.498029	0.446762
N109	N	0.441011	-0.248030	-0.358348
N110	N	0.691011	0.001970	-0.108348
N111	N	0.941011	0.251970	0.141652
N112	N	1.191011	0.501970	0.391652
N113	N	0.378554	-0.248036	-0.358351
N114	N	0.628554	0.001964	-0.108351
N115	N	0.878554	0.251964	0.141649
N116	N	1.128554	0.501964	0.391649
C117	C	0.346599	-0.251985	-0.303246
C118	C	0.596599	-0.001985	-0.053246
C119	C	0.846599	0.248015	0.196754
C120	C	1.096599	0.498015	0.446754
C121	C	0.577576	-0.218572	-0.343567
C122	C	0.827576	0.031428	-0.093567
C123	C	1.077576	0.281428	0.156433
C124	C	1.327576	0.531428	0.406433
C125	C	0.643320	-0.218572	-0.343568
C126	C	0.893320	0.031428	-0.093568
C127	C	1.143320	0.281428	0.156432
C128	C	1.393320	0.531428	0.406432
C129	C	0.643246	-0.285353	-0.262897
C130	C	0.893246	-0.035353	-0.012897
C131	C	1.143246	0.214647	0.237103
C132	C	1.393246	0.464647	0.487103
C133	C	0.577504	-0.285356	-0.262901
C134	C	0.827504	-0.035356	-0.012901
C135	C	1.077504	0.214644	0.237099
C136	C	1.327504	0.464644	0.487099
C137	C	0.544673	-0.251963	-0.303236
C138	C	0.794673	-0.001963	-0.053236
C139	C	1.044673	0.248037	0.196764
C140	C	1.294673	0.498037	0.446764
C141	C	0.909584	-0.387815	-0.303193
C142	C	1.159584	-0.137815	-0.053193
C143	C	1.409584	0.112185	0.196807
C144	C	1.659584	0.362185	0.446807
C145	C	0.909604	-0.445929	-0.303193
C146	C	1.159604	-0.195929	-0.053193
C147	C	1.409604	0.054071	0.196807
C148	C	1.659604	0.304071	0.446807
C149	C	0.949967	-0.806256	-0.343581
C150	C	1.199967	-0.556256	-0.093581
C151	C	1.449967	-0.306256	0.156419
C152	C	1.699967	-0.056256	0.406419
C153	C	0.949986	-0.860860	-0.343593
C154	C	1.199986	-0.610860	-0.093593
C155	C	1.449986	-0.360860	0.156407
C156	C	1.699986	-0.110860	0.406407
O157	O	0.984199	-0.889066	-0.377882
O158	O	1.234199	-0.639066	-0.127882
O159	O	1.484199	-0.389066	0.122118
O160	O	1.734199	-0.139066	0.372118
N161	N	0.909760	-0.888212	-0.303303
N162	N	1.159760	-0.638212	-0.053303
N163	N	1.409760	-0.388212	0.196697
N164	N	1.659760	-0.138212	0.446697
C165	C	0.869509	-0.860956	-0.263001
C166	C	1.119509	-0.610956	-0.013001
C167	C	1.369509	-0.360956	0.236999
C168	C	1.619509	-0.110956	0.486999
O169	O	0.835295	-0.889234	-0.228733
O170	O	1.085295	-0.639234	0.021267
O171	O	1.335295	-0.389234	0.271267
O172	O	1.585295	-0.139234	0.521267
C173	C	0.869488	-0.806352	-0.262992
C174	C	1.119488	-0.556352	-0.012992
C175	C	1.369488	-0.306352	0.237008
C176	C	1.619488	-0.056352	0.487008
C177	C	0.909720	-0.779004	-0.303281
C178	C	1.159720	-0.529004	-0.053281
C179	C	1.409720	-0.279004	0.196719
C180	C	1.659720	-0.029004	0.446719
C181	C	0.990196	-0.778908	-0.383866
C182	C	1.240196	-0.528908	-0.133866
C183	C	1.490196	-0.278908	0.116134
C184	C	1.740196	-0.028908	0.366134
C185	C	0.990178	-0.724307	-0.383853
C186	C	1.240178	-0.474307	-0.133853
C187	C	1.490178	-0.224307	0.116147
C188	C	1.740178	0.025693	0.366147
C189	C	0.949931	-0.697055	-0.343553
C190	C	1.199931	-0.447055	-0.093553
C191	C	1.449931	-0.197055	0.156447
C192	C	1.699931	0.052945	0.406447
C193	C	0.909703	-0.724404	-0.303267
C194	C	1.159703	-0.474404	-0.053267
C195	C	1.409703	-0.224404	0.196733
C196	C	1.659703	0.025596	0.446733
C197	C	0.829234	-0.779098	-0.222694
C198	C	1.079234	-0.529098	0.027306
C199	C	1.329234	-0.279098	0.277306
C200	C	1.579234	-0.029098	0.527306
C201	C	0.829216	-0.724491	-0.222689
C202	C	1.079216	-0.474491	0.027311
C203	C	1.329216	-0.224491	0.277311
C204	C	1.579216	0.025509	0.527311
C205	C	0.869448	-0.697142	-0.262978
C206	C	1.119448	-0.447142	-0.012978
C207	C	1.369448	-0.197142	0.237022
C208	C	1.619448	0.052858	0.487022
C209	C	0.869438	-0.642551	-0.262954
C210	C	1.119438	-0.392551	-0.012954
C211	C	1.369438	-0.142551	0.237046
C212	C	1.619438	0.107449	0.487046
N213	N	0.909663	-0.615200	-0.303244
N214	N	1.159663	-0.365200	-0.053244
N215	N	1.409663	-0.115200	0.196756
N216	N	1.659663	0.134800	0.446756
C217	C	0.949910	-0.642452	-0.343544
C218	C	1.199910	-0.392452	-0.093544
C219	C	1.449910	-0.142452	0.156456
C220	C	1.699910	0.107548	0.406456
C221	C	0.869556	-0.975626	-0.263024
C222	C	1.119556	-0.725626	-0.013024
C223	C	1.369556	-0.475626	0.236976
C224	C	1.619556	-0.225626	0.486976
C225	C	0.869580	-1.030229	-0.263030
C226	C	1.119580	-0.780229	-0.013030
C227	C	1.369580	-0.530229	0.236970
C228	C	1.619580	-0.280229	0.486970
C229	C	0.950056	-1.030130	-0.343623
C230	C	1.200056	-0.780130	-0.093623
C231	C	1.450056	-0.530130	0.156377
C232	C	1.700056	-0.280130	0.406377
C233	C	0.950035	-0.975526	-0.343614
C234	C	1.200035	-0.725526	-0.093614
C235	C	1.450035	-0.475526	0.156386
C236	C	1.700035	-0.225526	0.406386
C237	C	0.909782	-0.948275	-0.303315
C238	C	1.159782	-0.698275	-0.053315
C239	C	1.409782	-0.448275	0.196685
C240	C	1.659782	-0.198275	0.446685
C241	C	0.949870	-0.527787	-0.343511
C242	C	1.199870	-0.277787	-0.093511
C243	C	1.449870	-0.027787	0.156489
C244	C	1.699870	0.222213	0.406489
C245	C	0.949850	-0.473181	-0.343492
C246	C	1.199850	-0.223181	-0.093492
C247	C	1.449850	0.026819	0.156508
C248	C	1.699850	0.276819	0.406508
C249	C	0.869372	-0.473285	-0.262902
C250	C	1.119372	-0.223285	-0.012902
C251	C	1.369372	0.026715	0.237098
C252	C	1.619372	0.276715	0.487098
C253	C	0.869394	-0.527886	-0.262918
C254	C	1.119394	-0.277886	-0.012918
C255	C	1.369394	-0.027886	0.237082
C256	C	1.619394	0.222114	0.487082
C257	C	0.909645	-0.555135	-0.303228
C258	C	1.159645	-0.305135	-0.053228
C259	C	1.409645	-0.055135	0.196772
C260	C	1.659645	0.194865	0.446772
O261	O	0.835241	-0.614310	-0.228684
O262	O	1.085241	-0.364310	0.021316
O263	O	1.335241	-0.114310	0.271316
O264	O	1.585241	0.135690	0.521316
O265	O	0.984112	-0.614167	-0.377813
O266	O	1.234112	-0.364167	-0.127813
O267	O	1.484112	-0.114167	0.122187
O268	O	1.734112	0.135833	0.372187
C269	C	1.073863	-0.251993	-0.303260
C270	C	1.323863	-0.001993	-0.053260
C271	C	1.573863	0.248007	0.196740
C272	C	1.823863	0.498007	0.446740
C273	C	1.143831	-0.252002	-0.303268
C274	C	1.393831	-0.002002	-0.053268
C275	C	1.643831	0.247998	0.196732
C276	C	1.893831	0.497998	0.446732
C277	C	0.909725	-0.251962	-0.467432
C278	C	1.159725	-0.001962	-0.217432
C279	C	1.409725	0.248038	0.032568
C280	C	1.659725	0.498038	0.282568
C281	C	0.909747	-0.251957	-0.537400
C282	C	1.159747	-0.001957	-0.287400
C283	C	1.409747	0.248043	-0.037400
C284	C	1.659747	0.498043	0.212600
C285	C	0.909779	-0.115600	-0.303305
C286	C	1.159779	0.134400	-0.053305
C287	C	1.409779	0.384400	0.196695
C288	C	1.659779	0.634400	0.446695
C289	C	0.909825	-0.057486	-0.303332
C290	C	1.159825	0.192514	-0.053332
C291	C	1.409825	0.442514	0.196668
C292	C	1.659825	0.692514	0.446668
C293	C	0.950033	-0.218520	-0.570288
C294	C	1.200033	0.031480	-0.320288
C295	C	1.450033	0.281480	-0.070288
C296	C	1.700033	0.531480	0.179712
C297	C	0.950032	-0.218497	-0.636031
C298	C	1.200032	0.031503	-0.386031
C299	C	1.450032	0.281503	-0.136031
C300	C	1.700032	0.531503	0.113969
C301	C	0.909752	-0.251921	-0.668883
C302	C	1.159752	-0.001921	-0.418883
C303	C	1.409752	0.248079	-0.168883
C304	C	1.659752	0.498079	0.081117
C305	C	0.869459	-0.285360	-0.635987
C306	C	1.119459	-0.035360	-0.385987
C307	C	1.369459	0.214640	-0.135987
C308	C	1.619459	0.464640	0.114013
C309	C	0.869456	-0.285378	-0.570246
C310	C	1.119456	-0.035378	-0.320246
C311	C	1.369456	0.214622	-0.070246
C312	C	1.619456	0.464622	0.179754
N313	N	0.904893	-0.297659	-0.772093
N314	N	1.154893	-0.047659	-0.522093
N315	N	1.404893	0.202341	-0.272093
N316	N	1.654893	0.452341	-0.022093
N317	N	0.904899	-0.297640	-0.834545
N318	N	1.154899	-0.047640	-0.584545
N319	N	1.404899	0.202360	-0.334545
N320	N	1.654899	0.452360	-0.084545
C321	C	0.909756	-0.251868	-0.866958
C322	C	1.159756	-0.001868	-0.616958
C323	C	1.409756	0.248132	-0.366958
C324	C	1.659756	0.498132	-0.116958
N325	N	0.914619	-0.206114	-0.834560
N326	N	1.164619	0.043886	-0.584560
N327	N	1.414619	0.293886	-0.334560
N328	N	1.664619	0.543886	-0.084560
N329	N	0.914616	-0.206133	-0.772103
N330	N	1.164616	0.043867	-0.522103
N331	N	1.414616	0.293867	-0.272103
N332	N	1.664616	0.543867	-0.022103
C333	C	0.909750	-0.251905	-0.740168
C334	C	1.159750	-0.001905	-0.490168
C335	C	1.409750	0.248095	-0.240168
C336	C	1.659750	0.498095	0.009832
C337	C	0.950043	-0.218404	-0.971131
C338	C	1.200043	0.031596	-0.721131
C339	C	1.450043	0.281596	-0.471131
C340	C	1.700043	0.531596	-0.221131
C341	C	0.950038	-0.218380	-1.036875
C342	C	1.200038	0.031620	-0.786875
C343	C	1.450038	0.281620	-0.536875
C344	C	1.700038	0.531620	-0.286875
C345	C	0.869468	-0.285247	-1.036830
C346	C	1.119468	-0.035247	-0.786830
C347	C	1.369468	0.214753	-0.536830
C348	C	1.619468	0.464753	-0.286830
C349	C	0.869470	-0.285266	-0.971088
C350	C	1.119470	-0.035266	-0.721088
C351	C	1.369470	0.214734	-0.471088
C352	C	1.619470	0.464734	-0.221088
C353	C	0.909761	-0.251845	-0.938242
C354	C	1.159761	-0.001845	-0.688242
C355	C	1.409761	0.248155	-0.438242
C356	C	1.659761	0.498155	-0.188242
C357	C	0.909657	-0.251946	-0.139690
C358	C	1.159657	-0.001946	0.110310
C359	C	1.409657	0.248054	0.360310
C360	C	1.659657	0.498054	0.610310
C361	C	0.909757	-0.251803	-0.069723
C362	C	1.159757	-0.001803	0.180277
C363	C	1.409757	0.248197	0.430277
C364	C	1.659757	0.498197	0.680277
H365	H	0.982615	-0.450916	-0.376300
H366	H	1.232615	-0.200916	-0.126300
H367	H	1.482615	0.049084	0.123700
H368	H	1.732615	0.299084	0.373700
H369	H	1.022937	-0.702043	-0.416661
H370	H	1.272937	-0.452043	-0.166661
H371	H	1.522937	-0.202043	0.083339
H372	H	1.772937	0.047957	0.333339
Cl373	Cl	0.283684	-0.327359	-0.212221
Cl374	Cl	0.533684	-0.077359	0.037779
Cl375	Cl	0.783684	0.172641	0.287779
Cl376	Cl	1.033684	0.422641	0.537779
Cl377	Cl	0.135464	-0.176633	-0.394305
Cl378	Cl	0.385464	0.073367	-0.144305
Cl379	Cl	0.635464	0.323367	0.105695
Cl380	Cl	0.885464	0.573367	0.355695
Cl381	Cl	1.000691	-0.176387	-0.929836
Cl382	Cl	1.250691	0.073613	-0.679836
Cl383	Cl	1.500691	0.323613	-0.429836
Cl384	Cl	1.750691	0.573613	-0.179836
H385	H	0.836668	-0.312497	-0.944310
H386	H	1.086668	-0.062497	-0.694310
H387	H	1.336668	0.187503	-0.444310
H388	H	1.586668	0.437503	-0.194310
Cl389	Cl	0.818807	-0.327417	-0.528899
Cl390	Cl	1.068807	-0.077417	-0.278899
Cl391	Cl	1.318807	0.172583	-0.028899
Cl392	Cl	1.568807	0.422583	0.221101
H393	H	0.269270	-0.191409	-0.376431
H394	H	0.519270	0.058591	-0.126431
H395	H	0.769270	0.308591	0.123569
H396	H	1.019270	0.558591	0.373569
Cl397	Cl	0.684522	-0.327326	-0.212192
Cl398	Cl	0.934522	-0.077326	0.037808
Cl399	Cl	1.184522	0.172674	0.287808
Cl400	Cl	1.434522	0.422674	0.537808
H401	H	0.982642	-0.549967	-0.376340
H402	H	1.232642	-0.299967	-0.126340
H403	H	1.482642	-0.049967	0.123660
H404	H	1.732642	0.200033	0.373660
H405	H	0.836825	-1.052491	-0.230216
H406	H	1.086825	-0.802491	0.019784
H407	H	1.336825	-0.552491	0.269784
H408	H	1.586825	-0.302491	0.519784
H409	H	0.982843	-0.191149	-1.063651
H410	H	1.232843	0.058851	-0.813651
H411	H	1.482843	0.308851	-0.563651
H412	H	1.732843	0.558851	-0.313651
H413	H	1.022970	-0.801091	-0.416687
H414	H	1.272970	-0.551091	-0.166687
H415	H	1.522970	-0.301091	0.083313
H416	H	1.772970	-0.051091	0.333313
Cl417	Cl	0.818779	-0.439015	-0.212242
Cl418	Cl	1.068779	-0.189015	0.037758
Cl419	Cl	1.318779	0.060985	0.287758
Cl420	Cl	1.568779	0.310985	0.537758
H421	H	0.149874	-0.312589	-0.230095
H422	H	0.399874	-0.062589	0.019905
H423	H	0.649874	0.187411	0.269905
H424	H	0.899874	0.437411	0.519905
Cl425	Cl	0.778650	-0.813465	-0.172045
Cl426	Cl	1.028650	-0.563465	0.077955
Cl427	Cl	1.278650	-0.313465	0.327955
Cl428	Cl	1.528650	-0.063465	0.577955
Cl429	Cl	0.536300	-0.176595	-0.394274
Cl430	Cl	0.786300	0.073405	-0.144274
Cl431	Cl	1.036300	0.323405	0.105726
Cl432	Cl	1.286300	0.573405	0.355726
Cl433	Cl	1.000681	-0.176502	-0.529000
Cl434	Cl	1.250681	0.073498	-0.279000
Cl435	Cl	1.500681	0.323498	-0.029000
Cl436	Cl	1.750681	0.573498	0.221000
H437	H	0.670108	-0.191380	-0.376411
H438	H	0.920108	0.058620	-0.126411
H439	H	1.170108	0.308620	0.123589
H440	H	1.420108	0.558620	0.373589
Cl441	Cl	0.536139	-0.327330	-0.212193
Cl442	Cl	0.786139	-0.077330	0.037807
Cl443	Cl	1.036139	0.172670	0.287807
Cl444	Cl	1.286139	0.422670	0.537807
H445	H	0.982795	-0.953262	-0.376421
H446	H	1.232795	-0.703262	-0.126421
H447	H	1.482795	-0.453262	0.123579
H448	H	1.732795	-0.203262	0.373579
Cl449	Cl	1.000669	-0.176449	-0.677384
Cl450	Cl	1.250669	0.073551	-0.427384
Cl451	Cl	1.500669	0.323551	-0.177384
Cl452	Cl	1.750669	0.573551	0.072616
H453	H	0.836779	-0.953441	-0.230203
H454	H	1.086779	-0.703441	0.019797
H455	H	1.336779	-0.453441	0.269797
H456	H	1.586779	-0.203441	0.519797
Cl457	Cl	1.000651	-1.064400	-0.394287
Cl458	Cl	1.250651	-0.814400	-0.144287
Cl459	Cl	1.500651	-0.564400	0.105713
Cl460	Cl	1.750651	-0.314400	0.355713
Cl461	Cl	0.778609	-0.690235	-0.172024
Cl462	Cl	1.028609	-0.440235	0.077976
Cl463	Cl	1.278609	-0.190235	0.327976
Cl464	Cl	1.528609	0.059765	0.577976
H465	H	0.836638	-0.550154	-0.230107
H466	H	1.086638	-0.300154	0.019893
H467	H	1.336638	-0.050154	0.269893
H468	H	1.586638	0.199846	0.519893
Cl469	Cl	0.818818	-0.327376	-0.677287
Cl470	Cl	1.068818	-0.077376	-0.427287
Cl471	Cl	1.318818	0.172624	-0.177287
Cl472	Cl	1.568818	0.422624	0.072713
Cl473	Cl	0.818823	-0.327261	-1.078124
Cl474	Cl	1.068823	-0.077261	-0.828124
Cl475	Cl	1.318823	0.172739	-0.578124
Cl476	Cl	1.568823	0.422739	-0.328124
