data_functionalizedCrystal
_audit_creation_method	'MofGen! by Chris Wilmer'
_symmetry_space_group_name_H-M	'P1'
_symmetry_Int_Tables_number	1
_symmetry_cell_setting	triclinic
loop_
_symmetry_equiv_pos_as_xyz
  x,y,z
_cell_length_a	10.654550
_cell_length_b	7.540329
_cell_length_c	10.654550
_cell_angle_alpha	90.003446
_cell_angle_beta	84.484931
_cell_angle_gamma	89.999719
loop_
_atom_site_label
_atom_site_type_symbol
_atom_site_fract_x
_atom_site_fract_y
_atom_site_fract_z
O1	O	1.667839	0.147350	0.176397
O2	O	2.167839	0.647350	0.676397
O3	O	1.302360	0.147382	0.193203
O4	O	1.802360	0.647382	0.693203
O5	O	1.493502	0.147354	0.002061
O6	O	1.993502	0.647354	0.502061
O7	O	1.476696	0.147378	0.367539
O8	O	1.976696	0.647378	0.867539
O9	O	1.493491	-0.147611	0.002059
O10	O	1.993491	0.352389	0.502059
O11	O	1.302349	-0.147583	0.193201
O12	O	1.802349	0.352417	0.693201
O13	O	1.667827	-0.147616	0.176395
O14	O	2.167827	0.352384	0.676395
Cu15	Cu	1.485087	-0.174532	0.184798
Cu16	Cu	1.985087	0.325468	0.684798
Cu17	Cu	1.485100	0.174298	0.184800
Cu18	Cu	1.985100	0.674298	0.684800
O19	O	1.476685	-0.147587	0.367537
O20	O	1.976685	0.352413	0.867537
C21	C	1.255556	-0.000096	0.191968
C22	C	1.755556	0.499904	0.691968
C23	C	1.116113	-0.000084	0.188276
C24	C	1.616113	0.499916	0.688276
N25	N	1.485086	-0.419880	0.184795
N26	N	1.985086	0.080120	0.684795
C27	C	1.036628	-0.000082	0.300818
C28	C	1.536628	0.499918	0.800818
C29	C	0.905607	-0.000113	0.297341
C30	C	1.405607	0.499887	0.797341
C31	C	0.933570	-0.000141	0.068772
C32	C	1.433570	0.499859	0.568772
C33	C	1.064588	-0.000123	0.072250
C34	C	1.564588	0.499877	0.572250
C35	C	1.714631	-0.000133	0.177630
C36	C	2.214631	0.499867	0.677630
C37	C	1.854074	-0.000134	0.181322
C38	C	2.354074	0.499866	0.681322
C39	C	1.492263	-0.000128	-0.044738
C40	C	1.992263	0.499872	0.455262
C41	C	1.488571	-0.000125	-0.184181
C42	C	1.988571	0.499875	0.315819
N43	N	1.485111	0.419647	0.184793
N44	N	1.985111	0.919647	0.684793
C45	C	1.601112	-0.000134	-0.263667
C46	C	2.101112	0.499866	0.236333
C47	C	1.597636	-0.000112	-0.394688
C48	C	2.097636	0.499888	0.105312
C49	C	1.369066	-0.000079	-0.366725
C50	C	1.869066	0.499921	0.133275
C51	C	1.372544	-0.000088	-0.235706
C52	C	1.872544	0.499912	0.264294
C53	C	1.477925	-0.000102	0.414336
C54	C	1.977925	0.499898	0.914336
C55	C	1.481617	-0.000093	0.553779
C56	C	1.981617	0.499907	1.053779
H57	H	1.078574	-0.000064	0.395294
H58	H	1.578574	0.499936	0.895294
F59	F	1.149188	-0.000137	-0.047539
F60	F	1.649188	0.499863	0.452461
H61	H	1.274601	-0.000052	-0.408693
H62	H	1.774601	0.499948	0.091307
H63	H	0.840894	-0.000115	0.388984
H64	H	1.340894	0.499885	0.888984
F65	F	1.717418	-0.000118	-0.479278
F66	F	2.217418	0.499882	0.020722
F67	F	0.878722	-0.000175	-0.054705
F68	F	1.378722	0.499825	0.445295
F69	F	1.724598	-0.000171	-0.208835
F70	F	2.224598	0.499829	0.291165
F71	F	1.252755	-0.000065	-0.151106
F72	F	1.752755	0.499935	0.348894
