data_functionalizedCrystal
_audit_creation_method	'MofGen! by Chris Wilmer'
_symmetry_space_group_name_H-M	'P1'
_symmetry_Int_Tables_number	1
_symmetry_cell_setting	triclinic
loop_
_symmetry_equiv_pos_as_xyz
  x,y,z
_cell_length_a	22.010155
_cell_length_b	23.532407
_cell_length_c	23.532407
_cell_angle_alpha	82.848678
_cell_angle_beta	89.999577
_cell_angle_gamma	89.996931
loop_
_atom_site_label
_atom_site_type_symbol
_atom_site_fract_x
_atom_site_fract_y
_atom_site_fract_z
O1	O	0.050455	-0.755264	-0.069127
O2	O	0.050474	-0.589400	-0.079130
O3	O	0.050453	-0.677334	0.008803
O4	O	0.050476	-0.667330	-0.157060
O5	O	-0.050597	-0.677318	0.008790
O6	O	-0.050576	-0.589384	-0.079143
O7	O	-0.050595	-0.755248	-0.069140
Cu8	Cu	-0.059812	-0.672315	-0.074143
Cu9	Cu	0.059691	-0.672333	-0.074127
O10	O	-0.050574	-0.667314	-0.157073
C11	C	-0.000049	-0.568176	-0.078882
C12	C	-0.000042	-0.504959	-0.078116
C13	C	-0.000074	-0.677071	0.030013
C14	C	-0.000078	-0.676305	0.093230
N15	N	-0.143865	-0.672305	-0.074153
C16	C	-0.563653	-0.711273	-0.035196
C17	C	-0.627261	-0.711275	-0.035192
O18	O	-0.660160	-0.744384	-0.002076
N19	N	-0.659072	-0.672333	-0.074115
C20	C	-0.627272	-0.633382	-0.113041
O21	O	-0.660170	-0.600259	-0.146148
C22	C	-0.563665	-0.633377	-0.113042
C23	C	-0.531858	-0.672326	-0.074120
C24	C	-0.531846	-0.750217	0.003723
C25	C	-0.468243	-0.750215	0.003719
C26	C	-0.436447	-0.711268	-0.035205
C27	C	-0.468255	-0.672324	-0.074125
C28	C	-0.531866	-0.594424	-0.151965
C29	C	-0.468256	-0.594422	-0.151962
C30	C	-0.436448	-0.633370	-0.113040
C31	C	-0.372856	-0.633374	-0.113054
N32	N	-0.341045	-0.672317	-0.074130
C33	C	-0.372841	-0.711263	-0.035206
C34	C	-0.760850	-0.633395	-0.113036
C35	C	-0.824455	-0.633402	-0.113039
C36	C	-0.824440	-0.711294	-0.035188
C37	C	-0.760833	-0.711290	-0.035189
C38	C	-0.729039	-0.672337	-0.074113
C39	C	-0.239269	-0.711256	-0.035220
C40	C	-0.175660	-0.711252	-0.035229
C41	C	-0.175681	-0.633358	-0.113077
C42	C	-0.239284	-0.633364	-0.113070
C43	C	-0.271077	-0.672315	-0.074136
O44	O	-0.339916	-0.600282	-0.146151
O45	O	-0.339935	-0.744376	-0.002100
N46	N	0.143744	-0.672347	-0.074112
C47	C	-0.000071	-0.776472	-0.069388
C48	C	-0.000073	-0.839689	-0.070154
C49	C	-0.000063	-0.105856	-0.125350
C50	C	-0.000067	-0.046456	-0.124638
O51	O	-0.000083	-0.009711	-0.168424
N52	N	-0.000073	-0.023830	-0.072362
C53	C	-0.000082	-0.060607	-0.020794
O54	O	-0.000088	-0.035908	0.023737
C55	C	-0.000082	-0.120006	-0.021506
C56	C	-0.000070	-0.142629	-0.073785
C57	C	-0.000051	-0.128479	-0.177625
C58	C	-0.000046	-0.187876	-0.178336
C59	C	-0.000053	-0.224649	-0.126772
C60	C	-0.000065	-0.202025	-0.074497
C61	C	-0.000096	-0.156783	0.030062
C62	C	-0.000097	-0.216185	0.029345
C63	C	-0.000084	-0.238808	-0.022934
C64	C	-0.000067	-0.298194	-0.023643
N65	N	-0.000061	-0.320820	-0.075920
C66	C	-0.000054	-0.284048	-0.127484
C67	C	-0.000082	0.064135	-0.019302
C68	C	-0.000077	0.123533	-0.018589
C69	C	-0.000063	0.137680	-0.122434
C70	C	-0.000064	0.078281	-0.123146
C71	C	-0.000076	0.041509	-0.071578
C72	C	-0.000043	-0.408784	-0.128974
C73	C	-0.000035	-0.468186	-0.129680
C74	C	-0.000052	-0.482329	-0.025836
C75	C	-0.000057	-0.422932	-0.025129
C76	C	-0.000054	-0.386160	-0.076702
O77	O	-0.000054	-0.334974	0.020119
O78	O	-0.000055	-0.308755	-0.172007
C79	C	-0.000046	-0.667577	-0.178283
C80	C	-0.000037	-0.668343	-0.241500
C81	C	-0.000050	-0.723539	0.492333
C82	C	-0.000046	-0.722827	0.551733
O83	O	-0.000028	-0.766613	0.588478
N84	N	-0.000040	-0.670551	0.574359
C85	C	-0.000033	-0.618983	0.537582
O86	O	-0.000027	-0.574452	0.562281
C87	C	-0.000033	-0.619695	0.478182
C88	C	-0.000045	-0.671974	0.455560
C89	C	-0.000061	-0.775814	0.469710
C90	C	-0.000067	-0.776525	0.410313
C91	C	-0.000062	-0.724961	0.373540
C92	C	-0.000051	-0.672685	0.396164
C93	C	-0.000022	-0.568127	0.441406
C94	C	-0.000022	-0.568844	0.382004
C95	C	-0.000034	-0.621123	0.359381
C96	C	-0.000052	-0.621832	0.299995
N97	N	-0.000057	-0.674109	0.277368
C98	C	-0.000062	-0.725673	0.314141
C99	C	-0.000031	-0.617491	0.662324
C100	C	-0.000035	-0.616778	0.721722
C101	C	-0.000047	-0.720623	0.735869
C102	C	-0.000047	-0.721335	0.676470
C103	C	-0.000037	-0.669767	0.639698
C104	C	-0.000075	-0.727163	0.189405
C105	C	-0.000083	-0.727869	0.130003
C106	C	-0.000069	-0.624025	0.115860
C107	C	-0.000064	-0.623318	0.175257
C108	C	-0.000065	-0.674891	0.212029
O109	O	-0.000067	-0.578070	0.263215
O110	O	-0.000060	-0.770196	0.289433
H111	H	-0.149765	-0.742971	-0.003534
N112	N	-0.000022	-0.513218	0.342350
H113	H	-0.037485	-0.511191	0.317395
H114	H	0.037458	-0.511229	0.317422
N115	N	-0.433940	-0.792219	0.045704
H116	H	-0.407548	-0.817313	0.024073
H117	H	-0.463781	-0.816848	0.070350
N118	N	-0.000045	-0.776242	0.775536
H119	H	-0.037507	-0.799062	0.768298
H120	H	-0.000017	-0.767807	0.816580
N121	N	-0.273554	-0.753270	0.006768
H122	H	-0.243745	-0.777940	0.031418
H123	H	-0.299940	-0.778323	-0.014910
N124	N	-0.566134	-0.792237	0.045701
H125	H	-0.536323	-0.816906	0.070348
H126	H	-0.592512	-0.817289	0.024014
H127	H	-0.000056	-0.763906	0.658056
N128	N	-0.000094	-0.784261	0.105608
H129	H	0.037362	-0.786879	0.081275
H130	H	-0.037582	-0.786833	0.081311
N131	N	-0.000060	-0.566933	0.199662
H132	H	-0.000059	-0.534375	0.167351
H133	H	0.037406	-0.564382	0.223993
N134	N	-0.000035	-0.369123	-0.184594
H135	H	-0.037496	-0.344162	-0.186620
H136	H	-0.000003	-0.392509	-0.217786
N137	N	-0.000105	-0.255849	0.084965
H138	H	-0.037563	-0.280808	0.086979
H139	H	-0.000089	-0.232461	0.118157
H140	H	-0.000063	-0.817806	0.499645
H141	H	-0.000074	-0.819097	0.391900
H142	H	-0.000036	-0.574207	0.740136
H143	H	-0.734939	-0.743004	-0.003495
N144	N	-0.858756	-0.591393	-0.155020
H145	H	-0.903876	-0.597300	-0.149116
H146	H	-0.847637	-0.597741	-0.195390
N147	N	-0.726559	-0.591381	-0.155022
H148	H	-0.756367	-0.566715	-0.179677
H149	H	-0.700165	-0.613034	-0.180093
N150	N	-0.000026	-0.561868	0.622664
H151	H	-0.000023	-0.528647	0.646015
H152	H	-0.037487	-0.559894	0.597711
N153	N	-0.000078	-0.088822	-0.233245
H154	H	-0.000082	-0.112176	-0.266464
H155	H	0.037373	-0.063858	-0.235231
N156	N	-0.000080	-0.568411	0.076193
H157	H	-0.000087	-0.576799	0.035132
H158	H	0.037382	-0.545612	0.083476
N159	N	-0.000017	-0.511739	0.465797
H160	H	-0.000013	-0.479187	0.433480
H161	H	0.037443	-0.509182	0.490133
H162	H	-0.850339	-0.743006	-0.003493
N163	N	-0.000119	-0.132395	0.086451
H164	H	-0.000119	-0.089185	0.079088
H165	H	0.037336	-0.145872	0.109008
N166	N	-0.566163	-0.552406	-0.193937
H167	H	-0.536360	-0.527731	-0.218586
H168	H	-0.592548	-0.527359	-0.172249
H169	H	-0.000058	-0.404512	0.017441
N170	N	-0.000058	0.053880	-0.179531
H171	H	0.037401	0.029548	-0.182138
H172	H	-0.000076	0.086224	-0.212054
N173	N	-0.433963	-0.552405	-0.193942
H174	H	-0.463769	-0.527735	-0.218596
H175	H	-0.407571	-0.574058	-0.219015
H176	H	-0.000056	-0.512280	0.016146
N177	N	-0.273596	-0.591366	-0.155058
H178	H	-0.243799	-0.566696	-0.179719
H179	H	-0.299986	-0.566312	-0.133382
H180	H	-0.000060	0.167632	-0.164421
H181	H	-0.149783	-0.601650	-0.144771
N182	N	-0.000016	-0.492586	-0.186070
H183	H	-0.000013	-0.460274	-0.218626
H184	H	-0.037472	-0.516924	-0.188636
N185	N	-0.000030	-0.212272	-0.234724
H186	H	-0.000026	-0.179956	-0.267277
H187	H	-0.037488	-0.236607	-0.237292
H188	H	-0.000073	-0.769159	0.219337
H189	H	-0.000078	0.141947	0.023982
H190	H	-0.000086	0.034198	0.022693
