data_functionalizedCrystal
_audit_creation_method	'MofGen! by Chris Wilmer'
_symmetry_space_group_name_H-M	'P1'
_symmetry_Int_Tables_number	1
_symmetry_cell_setting	triclinic
loop_
_symmetry_equiv_pos_as_xyz
  x,y,z
_cell_length_a	9.565339
_cell_length_b	8.559649
_cell_length_c	8.559649
_cell_angle_alpha	110.221336
_cell_angle_beta	89.996695
_cell_angle_gamma	89.997746
loop_
_atom_site_label
_atom_site_type_symbol
_atom_site_fract_x
_atom_site_fract_y
_atom_site_fract_z
O1	O	-0.116238	-2.126864	-0.055029
O2	O	-0.116243	-1.651380	0.028753
O3	O	-0.116239	-1.931013	-0.250880
O4	O	-0.116243	-1.847231	0.224604
O5	O	0.116281	-1.931026	-0.250898
O6	O	0.116277	-1.651393	0.028735
O7	O	0.116282	-2.126878	-0.055046
Zn8	Zn	0.153197	-1.889138	-0.013159
Zn9	Zn	-0.153158	-1.889120	-0.013135
O10	O	0.116277	-1.847245	0.224587
C11	C	0.000016	-1.591077	0.035093
C12	C	0.000014	-1.411378	0.053992
N13	N	-0.362238	-1.889110	-0.013131
C14	C	0.000019	-1.937369	-0.311198
C15	C	0.000011	-1.956268	-0.490898
C16	C	-0.453434	-1.759591	0.115996
C17	C	-0.546616	-1.746493	-0.026903
C18	C	-0.546611	-1.902189	0.129718
C19	C	-0.453368	-1.875949	-0.156096
C20	C	-0.453355	-2.031696	0.000614
C21	C	-0.546495	-2.018674	-0.142398
N22	N	0.362276	-1.889162	-0.013177
C23	C	0.000020	-2.187180	-0.061387
C24	C	0.000013	-2.366879	-0.080286
C25	C	0.000017	-1.840889	0.284904
C26	C	0.000015	-1.821990	0.464604
H27	H	-0.587590	-1.625937	-0.038557
C28	C	0.000020	-2.116537	-0.783079
C29	C	0.000013	-2.130997	-0.625055
H30	H	0.000012	-2.224407	-0.865898
H31	H	0.081104	-2.057726	-0.795265
H32	H	-0.081066	-2.057693	-0.795252
H33	H	0.081105	-2.189831	-0.612878
H34	H	-0.081079	-2.189833	-0.612865
H35	H	-0.412571	-1.649989	0.225110
H36	H	-0.412357	-2.152207	0.012327
H37	H	-0.587098	-2.128246	-0.251724
C38	C	-0.251941	-1.860868	-0.317678
C39	C	-0.398321	-1.860833	-0.319214
H40	H	-0.217960	-1.851521	-0.418373
H41	H	-0.219243	-1.961766	-0.307674
H42	H	-0.219350	-1.769319	-0.225956
H43	H	-0.430913	-1.952390	-0.410930
H44	H	-0.431033	-1.759923	-0.329236
C45	C	-0.554976	-1.781275	0.427870
C46	C	-0.601941	-1.917084	0.292815
H47	H	-0.589138	-1.790460	0.528560
H48	H	-0.588260	-1.680913	0.417163
H49	H	-0.455675	-1.780368	0.429494
H50	H	-0.701243	-1.917984	0.291185
H51	H	-0.568665	-2.017472	0.303526
H52	H	0.000007	-1.466258	-0.209705
C53	C	0.000002	-1.353896	0.349135
C54	C	0.000004	-1.277223	0.228722
H55	H	-0.000013	-1.271072	0.457002
H56	H	0.081086	-1.421290	0.336043
H57	H	-0.081084	-1.421304	0.336036
H58	H	0.081096	-1.209824	0.241814
H59	H	-0.081088	-1.209800	0.241820
C60	C	-0.119537	-1.628008	-0.301907
C61	C	0.000001	-1.647268	-0.401251
H62	H	-0.119548	-1.520136	-0.219092
H63	H	-0.119528	-1.709705	-0.249919
H64	H	-0.200607	-1.641097	-0.369338
H65	H	0.081072	-1.634192	-0.333821
H66	H	0.000005	-1.565548	-0.453242
