data_functionalizedCrystal
_audit_creation_method	'MofGen! by Chris Wilmer'
_symmetry_space_group_name_H-M	'P1'
_symmetry_Int_Tables_number	1
_symmetry_cell_setting	triclinic
loop_
_symmetry_equiv_pos_as_xyz
  x,y,z
_cell_length_a	8.597187
_cell_length_b	8.559649
_cell_length_c	7.088906
_cell_angle_alpha	84.656454
_cell_angle_beta	88.662943
_cell_angle_gamma	77.625088
loop_
_atom_site_label
_atom_site_type_symbol
_atom_site_fract_x
_atom_site_fract_y
_atom_site_fract_z
O1	O	1.998348	0.287619	-0.488150
O2	O	1.547636	0.298339	-0.413910
O3	O	1.812700	0.061673	-0.457568
O4	O	1.733283	0.524285	-0.444491
O5	O	1.848128	0.029975	-0.145429
O6	O	1.583063	0.266641	-0.101770
O7	O	2.033775	0.255921	-0.176010
Cu8	Cu	1.811654	0.258387	-0.110389
Cu9	Cu	1.769757	0.295873	-0.479531
O10	O	1.768711	0.492587	-0.132351
C11	C	1.508182	0.279572	-0.248424
C12	C	1.337845	0.270860	-0.220367
C13	C	1.836432	-0.013509	-0.302493
C14	C	1.854345	-0.190303	-0.305455
C15	C	2.073228	0.274688	-0.341500
C16	C	2.243564	0.283402	-0.369569
C17	C	1.744979	0.567769	-0.287431
C18	C	1.727064	0.744565	-0.284482
N19	N	1.841134	0.232020	0.149243
N20	N	1.740277	0.322240	0.260837
H21	H	1.288246	0.253474	-0.071175
H22	H	1.977032	-0.269805	-0.325648
O23	O	1.965780	0.120281	0.225905
C24	C	2.095106	-0.159700	0.266298
C25	C	1.953894	-0.033320	0.179334
H26	H	2.085527	-0.283918	0.228712
H27	H	2.211567	-0.131295	0.207807
H28	H	2.092709	-0.157447	0.426891
H29	H	1.956139	-0.035503	0.018740
H30	H	1.837496	-0.061769	0.237974
H31	H	1.293166	0.300808	-0.518770
O32	O	1.615530	0.433894	0.184289
C33	C	1.385119	0.639866	0.242967
C34	C	1.526350	0.513503	0.329917
H35	H	1.312959	0.704242	0.360668
H36	H	1.431740	0.730861	0.141609
H37	H	1.306037	0.577954	0.162241
H38	H	1.605489	0.575275	0.410738
H39	H	1.479620	0.422519	0.431171
O40	O	1.580700	-0.160512	-0.260722
C41	C	1.378382	0.060416	-0.392093
C42	C	1.544144	-0.047004	-0.419261
H43	H	1.348789	0.152234	-0.520230
H44	H	1.285351	-0.016961	-0.376886
H45	H	1.378339	0.125569	-0.258959
H46	H	1.544343	-0.112178	-0.552397
H47	H	1.637103	0.030455	-0.434356
