data_functionalizedCrystal
_audit_creation_method	'MofGen! by Chris Wilmer'
_symmetry_space_group_name_H-M	'P1'
_symmetry_Int_Tables_number	1
_symmetry_cell_setting	triclinic
loop_
_symmetry_equiv_pos_as_xyz
  x,y,z
_cell_length_a	14.446369
_cell_length_b	12.970454
_cell_length_c	12.970454
_cell_angle_alpha	60.000396
_cell_angle_beta	90.000289
_cell_angle_gamma	59.998531
loop_
_atom_site_label
_atom_site_type_symbol
_atom_site_fract_x
_atom_site_fract_y
_atom_site_fract_z
Zr1	Zr	0.891775	1.128456	-0.135253
O2	O	0.743968	1.343553	-0.299881
O3	O	0.937086	0.913365	-0.084787
O4	O	0.937088	1.128452	-0.299875
O5	O	0.743964	1.128466	0.084873
O6	O	1.089425	1.128443	-0.299869
O7	O	0.743966	1.128465	-0.084793
O8	O	1.089421	0.743690	0.084884
O9	O	0.743968	1.513219	-0.299880
O10	O	1.070098	1.001826	-0.063258
O11	O	0.956410	1.001833	0.063358
O12	O	0.956412	1.255072	-0.189880
O13	O	0.842724	1.255079	-0.063265
Zr14	Zr	1.134734	1.128443	0.135355
Zr15	Zr	1.134735	1.128441	-0.135243
Zr16	Zr	0.891774	1.128458	0.135345
Zr17	Zr	0.891776	1.399054	-0.135251
Zr18	Zr	1.134733	0.857845	0.135353
O19	O	1.089423	1.343534	0.084889
O20	O	1.089426	1.343532	-0.299867
O21	O	0.743965	1.343555	0.084875
O22	O	1.282541	0.913346	0.299983
O23	O	1.282544	0.913344	-0.084773
O24	O	0.937083	0.913367	0.299969
O25	O	1.282544	1.128433	-0.084771
O26	O	1.089421	1.128446	0.299977
O27	O	0.937084	1.128456	0.299971
O28	O	1.282543	1.128433	0.084895
O29	O	0.937089	1.513207	-0.299872
O30	O	1.089420	0.743691	0.299974
O31	O	1.282541	0.743680	0.299982
O32	O	1.282542	0.743678	0.084892
O33	O	0.743967	1.513220	-0.084790
O34	O	0.937088	1.513209	-0.084782
O35	O	1.070097	1.001827	0.189983
O36	O	1.183785	1.001820	0.063367
O37	O	1.070099	1.255065	-0.063256
O38	O	0.956411	1.255073	0.063360
C39	C	1.013253	0.789973	0.000048
C40	C	1.013253	0.675097	0.000047
C41	C	0.709348	1.128468	0.000039
C42	C	0.606205	1.128474	0.000034
C43	C	0.387838	1.288180	-0.079424
C44	C	0.495069	1.288287	-0.079871
C45	C	0.602882	1.049139	-0.058217
C46	C	0.495113	1.050153	-0.058800
C47	C	0.496475	1.046864	0.137846
C48	C	0.602445	1.049874	0.137629
C49	C	1.317160	1.128431	0.000064
C50	C	1.420303	1.128425	0.000068
C51	C	1.013257	1.128448	-0.338426
C52	C	1.013257	1.128447	-0.453303
C53	C	1.013256	1.466926	0.000054
C54	C	1.013256	1.581802	0.000055
C55	C	1.013252	1.128451	0.338529
C56	C	1.013252	1.128452	0.453405
C57	C	1.317159	0.789954	0.000061
C58	C	1.420302	0.675072	0.000064
C59	C	1.013251	0.789975	0.338526
C60	C	1.013250	0.675100	0.453401
C61	C	1.317157	0.789956	0.338538
C62	C	1.420299	0.675075	0.453418
C63	C	0.709352	1.466943	-0.338436
C64	C	0.606210	1.581824	-0.453315
C65	C	0.709349	1.466944	0.000042
C66	C	0.606207	1.581826	0.000038
C67	C	1.013258	1.466924	-0.338423
C68	C	1.013259	1.581799	-0.453299
C69	C	1.468739	0.527638	0.093540
C70	C	1.565643	0.419679	0.093548
C71	C	1.614112	0.459157	0.000083
C72	C	1.565666	0.606606	-0.093403
C73	C	1.468760	0.714562	-0.093415
C74	C	1.468743	0.527641	0.507364
C75	C	1.565667	0.419681	0.615294
C76	C	1.614140	0.459158	0.669279
C77	C	1.565691	0.606606	0.615323
C78	C	1.468774	0.714563	0.507390
C79	C	0.557774	1.729258	-0.507272
C80	C	0.460872	1.837218	-0.615225
C81	C	0.412403	1.797740	-0.669215
C82	C	0.460847	1.650292	-0.615253
C83	C	0.557752	1.542335	-0.507307
C84	C	0.557768	1.542303	0.093520
C85	C	0.460864	1.650232	0.093543
C86	C	0.412396	1.797683	0.000077
C87	C	0.460844	1.837207	-0.093409
C88	C	0.557751	1.729279	-0.093426
H89	H	0.493310	1.350850	-0.041101
N90	N	1.416493	0.485031	0.194377
H91	H	1.347759	0.575781	0.180210
H92	H	1.473814	0.425342	0.280132
N93	N	0.408537	1.996258	-0.194198
H94	H	0.385020	2.018378	-0.280024
H95	H	0.465786	2.018267	-0.190016
H96	H	0.597214	1.422247	0.169630
N97	N	1.617866	0.260665	0.194399
H98	H	1.698434	0.211686	0.243530
H99	H	1.617623	0.211819	0.153550
N100	N	1.416471	0.485054	0.449139
H101	H	1.392986	0.425392	0.512868
H102	H	1.473741	0.425473	0.422960
N103	N	0.307875	1.914076	0.000111
H104	H	0.244184	1.903361	-0.008131
H105	H	0.284611	2.013434	-0.073280
N106	N	0.609978	1.383320	-0.449121
H107	H	0.552734	1.361276	-0.422979
H108	H	0.678731	1.321004	-0.372588
N109	N	0.408622	1.607579	0.194376
H110	H	0.339883	1.698316	0.180222
H111	H	0.465937	1.547873	0.280140
N112	N	0.610054	1.771850	-0.449061
H113	H	0.609902	1.731250	-0.359332
H114	H	0.564628	1.881641	-0.499730
N115	N	1.617910	0.260657	0.673476
H116	H	1.572484	0.252043	0.622900
H117	H	1.617771	0.211788	0.763212
N118	N	1.718626	0.342711	0.000095
H119	H	1.741948	0.243324	0.073499
H120	H	1.782270	0.353511	0.008306
N121	N	0.609986	1.771919	-0.194264
H122	H	0.564567	1.881707	-0.253467
H123	H	0.609823	1.731222	-0.243295
H124	H	0.333496	1.885660	-0.757111
N125	N	0.316366	1.371246	-0.027939
H126	H	0.304331	1.306134	0.047411
H127	H	0.240593	1.459460	-0.095488
N128	N	1.416523	0.873585	-0.194226
H129	H	1.393034	0.895674	-0.280044
H130	H	1.473810	0.895528	-0.190014
H131	H	1.605145	0.638730	-0.169500
N132	N	0.530404	0.894904	0.012933
H133	H	0.615835	0.826112	0.044787
H134	H	0.497339	0.882222	-0.044907
H135	H	0.332854	1.350573	-0.180445
H136	H	1.693055	0.371238	0.757166
N137	N	0.706561	0.893497	0.014763
H138	H	0.702632	0.844607	-0.024337
H139	H	0.709567	0.839282	0.105344
H140	H	0.492624	1.350914	-0.181505
H141	H	0.444770	1.106532	-0.160186
H142	H	1.605173	0.638729	0.659294
N143	N	1.416532	0.873578	0.449222
H144	H	1.393058	0.895628	0.512976
H145	H	1.347819	0.935893	0.372645
N146	N	0.605697	1.122139	-0.191244
H147	H	0.535080	1.159252	-0.251796
H148	H	0.674809	1.049434	-0.196964
N149	N	0.408633	1.996241	-0.673413
H150	H	0.454041	2.004857	-0.622817
H151	H	0.328062	2.045114	-0.673261
N152	N	0.430207	1.114577	0.202298
H153	H	0.402298	1.220224	0.152709
H154	H	0.480731	1.060491	0.290546
N155	N	0.601772	1.126480	0.195285
H156	H	0.599352	1.075434	0.283772
H157	H	0.532883	1.231025	0.142294
N158	N	0.707292	0.895429	0.222693
H159	H	0.758944	0.874125	0.173020
H160	H	0.684705	0.825480	0.256832
H161	H	0.523914	0.929181	0.197354
H162	H	0.421368	1.618169	-0.659227
