data_functionalizedCrystal
_audit_creation_method	'MofGen! by Chris Wilmer'
_symmetry_space_group_name_H-M	'P1'
_symmetry_Int_Tables_number	1
_symmetry_cell_setting	triclinic
loop_
_symmetry_equiv_pos_as_xyz
  x,y,z
_cell_length_a	14.519709
_cell_length_b	9.065218
_cell_length_c	13.596369
_cell_angle_alpha	90.003393
_cell_angle_beta	89.987919
_cell_angle_gamma	84.348015
loop_
_atom_site_label
_atom_site_type_symbol
_atom_site_fract_x
_atom_site_fract_y
_atom_site_fract_z
O1	O	1.225269	0.193397	0.081660
O2	O	1.558602	0.526730	0.414993
O3	O	1.891935	0.860064	0.748327
O4	O	0.956959	0.216172	0.081690
O5	O	1.290292	0.549505	0.415023
O6	O	1.623625	0.882838	0.748356
O7	O	1.096660	-0.009962	0.081671
O8	O	1.429993	0.323371	0.415005
O9	O	1.763326	0.656705	0.748338
O10	O	1.085568	0.419531	0.081678
O11	O	1.418901	0.752864	0.415012
O12	O	1.752234	1.086197	0.748345
O13	O	1.096677	-0.009974	-0.081912
O14	O	1.430010	0.323359	0.251422
O15	O	1.763344	0.656692	0.584755
O16	O	0.956976	0.216159	-0.081893
O17	O	1.290309	0.549493	0.251440
O18	O	1.623643	0.882826	0.584773
O19	O	1.225286	0.193385	-0.081923
O20	O	1.558619	0.526718	0.251410
O21	O	1.891953	0.860051	0.584744
Zn22	Zn	1.091134	0.204770	-0.107880
Zn23	Zn	1.424467	0.538103	0.225453
Zn24	Zn	1.757800	0.871437	0.558786
Zn25	Zn	1.091111	0.204786	0.107647
Zn26	Zn	1.424444	0.538120	0.440980
Zn27	Zn	1.757778	0.871453	0.774314
O28	O	1.085585	0.419518	-0.081905
O29	O	1.418918	0.752852	0.251429
O30	O	1.752252	1.086185	0.584762
C31	C	0.922600	0.215104	-0.000098
C32	C	1.255933	0.548437	0.333235
C33	C	1.589266	0.881771	0.666569
C34	C	0.820195	0.211923	-0.000087
C35	C	1.153528	0.545257	0.333247
C36	C	1.486862	0.878590	0.666580
N37	N	1.091156	0.204758	-0.254972
N38	N	1.424489	0.538091	0.078361
N39	N	1.757823	0.871425	0.411694
C40	C	1.095602	-0.064935	-0.000119
C41	C	1.428936	0.268398	0.333215
C42	C	1.762269	0.601732	0.666548
C43	C	1.092415	-0.228718	-0.000114
C44	C	1.425748	0.104615	0.333219
C45	C	1.759082	0.437949	0.666552
C46	C	0.445214	0.200214	-0.000132
C47	C	0.778547	0.533548	0.333202
C48	C	1.111880	0.866881	0.666535
C49	C	0.549545	0.203466	-0.000119
C50	C	0.882879	0.536799	0.333215
C51	C	1.216212	0.870132	0.666548
C52	C	0.632701	0.206068	-0.000108
C53	C	0.966034	0.539402	0.333225
C54	C	1.299368	0.872735	0.666558
C55	C	0.737039	0.209321	-0.000097
C56	C	1.070373	0.542654	0.333236
C57	C	1.403706	0.875987	0.666569
C58	C	1.259645	0.194452	-0.000133
C59	C	1.592978	0.527785	0.333200
C60	C	1.926312	0.861119	0.666533
C61	C	1.362049	0.197633	-0.000138
C62	C	1.695383	0.530966	0.333195
C63	C	2.028716	0.864299	0.666529
C64	C	1.086642	0.474491	-0.000113
C65	C	1.419976	0.807824	0.333221
C66	C	1.753309	1.141158	0.666554
C67	C	1.089830	0.638274	-0.000111
C68	C	1.423163	0.971608	0.333223
C69	C	1.756496	1.304941	0.666556
N70	N	1.091096	0.204787	0.254739
N71	N	1.424429	0.538120	0.588072
N72	N	1.757762	0.871453	0.921406
C73	C	1.091099	0.204788	0.343737
C74	C	1.424432	0.538121	0.677070
C75	C	1.757766	0.871455	1.010403
C76	C	1.091112	0.204785	0.455388
C77	C	1.424446	0.538118	0.788721
C78	C	1.757779	0.871451	1.122055
C79	C	1.091128	0.204774	0.544379
C80	C	1.424461	0.538107	0.877712
C81	C	1.757795	0.871441	1.211045
C82	C	1.091140	0.204768	0.656037
C83	C	1.424474	0.538102	0.989370
C84	C	1.757807	0.871435	1.322704
