data_functionalizedCrystal
_audit_creation_method	'MofGen! by Chris Wilmer'
_symmetry_space_group_name_H-M	'P1'
_symmetry_Int_Tables_number	1
_symmetry_cell_setting	triclinic
loop_
_symmetry_equiv_pos_as_xyz
  x,y,z
_cell_length_a	10.967874
_cell_length_b	14.519709
_cell_length_c	9.482900
_cell_angle_alpha	99.350820
_cell_angle_beta	68.707142
_cell_angle_gamma	84.205827
loop_
_atom_site_label
_atom_site_type_symbol
_atom_site_fract_x
_atom_site_fract_y
_atom_site_fract_z
O1	O	1.745658	0.063247	-0.558221
O2	O	1.367155	0.086856	-0.463402
O3	O	1.566440	-0.059434	-0.513311
O4	O	1.546373	0.209537	-0.508311
O5	O	1.525961	-0.029604	-0.261381
O6	O	1.326677	0.116686	-0.211471
O7	O	1.705179	0.093077	-0.306290
Cu8	Cu	1.512232	0.107605	-0.235878
Cu9	Cu	1.560103	0.072327	-0.533814
O10	O	1.505894	0.239367	-0.256381
C11	C	1.298475	0.102307	-0.325301
C12	C	1.154137	0.103893	-0.289142
C13	C	1.110756	0.089147	-0.403529
C14	C	0.961575	0.090786	-0.366160
C15	C	1.545265	-0.078856	-0.387112
C16	C	1.542462	-0.181167	-0.386409
C17	C	1.532149	-0.555812	-0.383863
C18	C	1.535013	-0.451574	-0.384569
C19	C	1.537305	-0.368493	-0.385134
C20	C	1.540170	-0.264248	-0.385844
C21	C	1.773859	0.077625	-0.444394
C22	C	1.918200	0.076038	-0.480563
C23	C	1.527070	0.258788	-0.382584
C24	C	1.529874	0.361098	-0.383297
N25	N	1.478571	0.132417	-0.026327
N26	N	1.593773	0.047508	-0.743367
C27	C	1.550165	0.079641	0.027941
C28	C	1.522169	0.100292	0.202370
H29	H	0.991496	0.062205	-0.606168
N30	N	1.696730	-0.028329	0.152950
N31	N	1.764083	-0.077935	0.203879
H32	H	1.836813	-0.131484	0.130651
H33	H	1.184057	0.075314	-0.529125
N34	N	1.062211	0.121244	-0.131570
N35	N	1.102921	0.135104	-0.024009
H36	H	1.038001	0.147358	0.087282
N37	N	1.419282	0.176169	0.306060
N38	N	1.424406	0.259256	0.287888
H39	H	1.351744	0.312845	0.361120
N40	N	1.375668	0.208269	0.077395
N41	N	1.353067	0.224933	0.218944
H42	H	1.280388	0.278505	0.292199
N43	N	1.653047	0.003775	-0.075776
N44	N	1.675640	-0.012896	-0.217322
H45	H	1.748302	-0.066479	-0.290573
H46	H	0.888275	0.104630	-0.240555
