data_functionalizedCrystal
_audit_creation_method	'MofGen! by Chris Wilmer'
_symmetry_space_group_name_H-M	'P1'
_symmetry_Int_Tables_number	1
_symmetry_cell_setting	triclinic
loop_
_symmetry_equiv_pos_as_xyz
  x,y,z
_cell_length_a	16.109301
_cell_length_b	23.532407
_cell_length_c	15.186229
_cell_angle_alpha	89.991614
_cell_angle_beta	89.999362
_cell_angle_gamma	83.155079
loop_
_atom_site_label
_atom_site_type_symbol
_atom_site_fract_x
_atom_site_fract_y
_atom_site_fract_z
O1	O	1.102555	0.073202	-0.073182
O2	O	0.860421	0.082312	-0.073197
O3	O	0.988790	-0.005148	-0.073173
O4	O	0.974187	0.160662	-0.073206
O5	O	0.988781	-0.005149	0.073284
O6	O	0.860413	0.082311	0.073260
O7	O	1.102547	0.073201	0.073275
Zn8	Zn	0.981478	0.077755	0.096521
Zn9	Zn	0.981490	0.077757	-0.096443
O10	O	0.974178	0.160660	0.073251
C11	C	0.829445	0.081942	0.000030
C12	C	0.737159	0.080836	0.000025
C13	C	0.988414	-0.026366	0.000058
C14	C	0.987296	-0.089587	0.000064
C15	C	0.514498	0.130160	0.000025
C16	C	0.427786	0.129116	0.000031
C17	C	0.448476	0.025348	0.000048
C18	C	0.535187	0.026393	0.000048
C19	C	0.568195	0.078801	0.000032
C20	C	0.394773	0.076712	0.000038
C21	C	0.300755	0.075580	0.000044
C22	C	0.662218	0.079933	0.000028
C23	C	1.056249	-0.488436	0.000021
C24	C	1.055210	-0.547840	0.000014
O25	O	1.119130	-0.584349	-0.000015
N26	N	0.978895	-0.570748	0.000010
C27	C	0.903614	-0.534248	0.000003
O28	O	0.838607	-0.559187	-0.000002
C29	C	0.904654	-0.474845	0.000004
C30	C	0.980973	-0.451941	0.000017
C31	C	1.132562	-0.465531	0.000033
C32	C	1.133601	-0.406131	0.000041
C33	C	1.058325	-0.369636	0.000037
C34	C	0.982012	-0.392541	0.000025
C35	C	0.829373	-0.438346	-0.000009
C36	C	0.830419	-0.378940	-0.000009
C37	C	0.906739	-0.356036	0.000004
C38	C	0.907774	-0.296645	0.000030
N39	N	0.984089	-0.273738	0.000034
C40	C	1.059365	-0.310233	0.000038
C41	C	0.901437	-0.658998	0.000001
C42	C	0.900396	-0.718400	0.000007
C43	C	1.051993	-0.731988	0.000016
C44	C	1.053032	-0.672585	0.000016
C45	C	0.977752	-0.636091	0.000005
C46	C	1.061539	-0.185488	0.000056
C47	C	1.062571	-0.126082	0.000068
C48	C	0.910975	-0.112499	0.000055
C49	C	0.909943	-0.171900	0.000047
C50	C	0.985232	-0.208394	0.000045
O51	O	0.843888	-0.260102	0.000055
O52	O	1.124361	-0.285285	0.000031
C53	C	1.133523	0.073570	0.000046
C54	C	1.225809	0.074677	0.000046
C55	C	0.974554	0.181878	0.000018
C56	C	0.975672	0.245100	0.000006
N57	N	0.981477	0.077754	0.228214
N58	N	0.981498	0.077754	-0.228136
C59	C	1.038337	0.039040	0.453947
C60	C	1.038340	0.039039	0.546137
C61	C	0.924631	0.116470	0.546124
C62	C	0.924625	0.116468	0.453936
C63	C	0.981483	0.077754	0.407850
C64	C	0.981492	0.077754	0.592228
C65	C	0.981494	0.077753	0.692184
C66	C	0.981480	0.077754	0.307888
H67	H	0.384069	0.170939	0.000027
H68	H	0.578910	-0.015433	0.000057
H69	H	1.115179	-0.653941	0.000026
H70	H	1.195748	-0.387488	0.000048
O71	O	1.136785	-0.103929	0.000038
C72	C	1.287037	-0.123687	0.000097
C73	C	1.203054	-0.148849	0.000113
H74	H	1.340637	-0.159992	0.000176
H75	H	1.291376	-0.096228	-0.061206
H76	H	1.291268	-0.096205	0.061379
H77	H	1.198766	-0.176356	-0.061127
H78	H	1.198751	-0.176275	0.061456
H79	H	1.084635	0.007514	0.583666
O80	O	0.828358	-0.623491	0.000120
C81	C	0.741513	-0.548576	0.076023
C82	C	0.824311	-0.588741	0.075990
H83	H	0.738206	-0.520478	0.137366
H84	H	0.738193	-0.520378	0.014774
H85	H	0.686810	-0.575169	0.075978
H86	H	0.879061	-0.562192	0.076065
H87	H	0.827558	-0.616940	0.137234
O88	O	0.416548	-0.025607	0.000091
C89	C	0.446223	-0.128421	0.000043
C90	C	0.482490	-0.070752	0.000020
H91	H	0.499519	-0.164935	-0.000033
H92	H	0.406172	-0.131548	0.061347
H93	H	0.406120	-0.131468	-0.061238
H94	H	0.522631	-0.067666	0.061259
H95	H	0.522494	-0.067650	-0.061324
O96	O	0.869438	0.154155	0.590795
C97	C	0.819930	0.253174	0.619012
C98	C	0.882471	0.210556	0.568357
H99	H	0.830457	0.298783	0.600904
H100	H	0.753386	0.245785	0.600875
H101	H	0.829686	0.246499	0.692816
H102	H	0.872791	0.217206	0.494541
H103	H	0.948992	0.217956	0.586567
O104	O	0.869509	0.154103	0.409057
C105	C	0.851166	0.231898	0.304991
C106	C	0.913674	0.189304	0.355746
H107	H	0.886849	0.260377	0.261892
H108	H	0.809846	0.207332	0.261782
H109	H	0.810519	0.259546	0.353783
H110	H	0.954376	0.161645	0.307018
H111	H	0.954936	0.213905	0.398969
H112	H	0.541371	0.172834	0.000019
O113	O	0.755213	-0.460557	-0.000184
C114	C	0.625313	-0.467054	-0.076064
C115	C	0.709285	-0.441876	-0.075983
H116	H	0.588150	-0.451951	-0.137332
H117	H	0.637432	-0.515782	-0.076124
H118	H	0.588167	-0.452035	-0.014751
H119	H	0.746474	-0.456851	-0.137286
H120	H	0.697108	-0.393150	-0.075878
O121	O	1.134652	-0.220956	-0.000097
C122	C	1.221464	-0.295917	-0.075937
C123	C	1.138645	-0.255774	-0.075891
H124	H	1.224712	-0.324087	-0.137200
H125	H	1.276212	-0.269363	-0.075982
H126	H	1.224756	-0.324049	-0.014619
H127	H	1.135272	-0.227635	-0.137199
H128	H	1.083936	-0.282363	-0.075800
H129	H	1.193864	-0.495240	0.000032
H130	H	1.113286	-0.761714	0.000015
O131	O	0.826186	-0.740551	-0.000035
C132	C	0.675935	-0.720788	0.000008
C133	C	0.759921	-0.695629	0.000042
H134	H	0.622337	-0.684480	0.000089
H135	H	0.671599	-0.748228	-0.061302
H136	H	0.671696	-0.748287	0.061282
H137	H	0.764217	-0.668104	-0.061190
H138	H	0.764220	-0.668221	0.061393
H139	H	0.847797	-0.190549	0.000061
O140	O	0.757365	-0.343408	-0.000056
C141	C	0.691769	-0.245874	0.000001
C142	C	0.774561	-0.286046	0.000031
H143	H	0.705642	-0.199488	0.000090
H144	H	0.654183	-0.254153	-0.061311
H145	H	0.654181	-0.254247	0.061273
H146	H	0.812215	-0.277696	-0.061200
H147	H	0.812083	-0.277759	0.061383
O148	O	0.837879	-0.077018	-0.000107
C149	C	0.751125	-0.002023	-0.075972
C150	C	0.833927	-0.042184	-0.075899
H151	H	0.747911	0.026159	-0.137233
H152	H	0.696361	-0.028563	-0.076039
H153	H	0.747829	0.026096	-0.014652
H154	H	0.837305	-0.070311	-0.137208
H155	H	0.888652	-0.015610	-0.075785
O156	O	1.093593	0.001376	0.409315
C157	C	1.206406	-0.075406	0.419061
C158	C	1.143862	-0.032789	0.469713
H159	H	1.247076	-0.103031	0.467872
H160	H	1.170788	-0.103903	0.375937
H161	H	1.247696	-0.050801	0.375867
H162	H	1.102556	-0.057347	0.512956
H163	H	1.179531	-0.004292	0.512782
