data_functionalizedCrystal
_audit_creation_method	'MofGen! by Chris Wilmer'
_symmetry_space_group_name_H-M	'P1'
_symmetry_Int_Tables_number	1
_symmetry_cell_setting	triclinic
loop_
_symmetry_equiv_pos_as_xyz
  x,y,z
_cell_length_a	17.038278
_cell_length_b	17.038272
_cell_length_c	15.500227
_cell_angle_alpha	93.033254
_cell_angle_beta	86.950586
_cell_angle_gamma	91.111028
loop_
_atom_site_label
_atom_site_type_symbol
_atom_site_fract_x
_atom_site_fract_y
_atom_site_fract_z
O1	O	1.052165	0.167124	-0.071953
O2	O	1.552165	0.667124	0.428047
O3	O	0.824354	0.164418	-0.071953
O4	O	1.324354	0.664418	0.428047
O5	O	0.936905	0.051866	-0.071946
O6	O	1.436905	0.551866	0.428054
O7	O	0.939614	0.279676	-0.071959
O8	O	1.439614	0.779676	0.428041
O9	O	0.930073	0.058667	0.071942
O10	O	1.430073	0.558667	0.571942
O11	O	0.817522	0.171219	0.071936
O12	O	1.317522	0.671219	0.571936
O13	O	1.045333	0.173925	0.071936
O14	O	1.545333	0.673925	0.571936
Cu15	Cu	0.930804	0.173193	0.085074
Cu16	Cu	1.430804	0.673193	0.585074
Cu17	Cu	0.938883	0.165150	-0.085091
Cu18	Cu	1.438883	0.665150	0.414909
O19	O	0.932782	0.286478	0.071929
O20	O	1.432782	0.786478	0.571929
C21	C	0.791645	0.165356	-0.000009
C22	C	1.291645	0.665356	0.499991
C23	C	0.704361	0.158009	-0.000008
C24	C	1.204361	0.658009	0.499992
C25	C	0.210936	0.112871	-0.000009
C26	C	0.710936	0.612871	0.499991
C27	C	0.292947	0.119781	-0.000004
C28	C	0.792947	0.619781	0.499996
C29	C	0.329347	0.194154	-0.000013
C30	C	0.829347	0.694154	0.499987
C31	C	0.283731	0.261622	-0.000017
C32	C	0.783731	0.761622	0.499983
C33	C	0.201721	0.254712	-0.000016
C34	C	0.701721	0.754712	0.499984
C35	C	0.576735	0.218567	-0.000012
C36	C	1.076735	0.718567	0.499988
C37	C	0.658751	0.225472	-0.000015
C38	C	1.158751	0.725472	0.499985
C39	C	0.667962	0.083630	-0.000001
C40	C	1.167962	0.583630	0.499999
C41	C	0.585950	0.076726	-0.000005
C42	C	1.085950	0.576726	0.499995
C43	C	0.540340	0.144194	-0.000005
C44	C	1.040340	0.644194	0.499995
C45	C	0.413176	0.201219	-0.000010
C46	C	0.913176	0.701219	0.499990
C47	C	0.456513	0.137129	-0.000001
C48	C	0.956513	0.637129	0.499999
C49	C	0.931026	0.025973	-0.000002
C50	C	1.431026	0.525973	0.499998
C51	C	0.923678	-0.061310	-0.000002
C52	C	1.423678	0.438690	0.499998
C53	C	0.991142	-0.106920	-0.000001
C54	C	1.491142	0.393080	0.499999
C55	C	0.984233	-0.188932	-0.000009
C56	C	1.484233	0.311068	0.499991
C57	C	0.909860	-0.225333	-0.000012
C58	C	1.409860	0.274667	0.499988
C59	C	0.842392	-0.179717	-0.000016
C60	C	1.342392	0.320283	0.499984
C61	C	0.849301	-0.097706	-0.000014
C62	C	1.349301	0.402294	0.499986
C63	C	0.885450	-0.472721	-0.000024
C64	C	1.385450	0.027279	0.499976
C65	C	0.878545	-0.554737	-0.000024
C66	C	1.378545	-0.054737	0.499976
C67	C	1.020388	-0.563947	-0.000019
C68	C	1.520388	-0.063947	0.499981
C69	C	1.027291	-0.481934	-0.000011
C70	C	1.527291	0.018066	0.499989
C71	C	0.959822	-0.436326	-0.000020
C72	C	1.459822	0.063674	0.499980
C73	C	0.902797	-0.309162	-0.000018
C74	C	1.402797	0.190838	0.499982
C75	C	0.966887	-0.352498	-0.000020
C76	C	1.466887	0.147502	0.499980
C77	C	1.078042	0.172987	-0.000010
C78	C	1.578042	0.672987	0.499990
C79	C	1.165326	0.180334	-0.000016
C80	C	1.665326	0.680334	0.499984
C81	C	0.938661	0.312370	-0.000017
C82	C	1.438661	0.812370	0.499983
C83	C	0.946009	0.399653	-0.000023
C84	C	1.446009	0.899653	0.499977
N85	N	0.925127	0.178850	0.204758
N86	N	1.425127	0.678850	0.704758
N87	N	0.944566	0.159487	-0.204775
N88	N	1.444566	0.659487	0.295225
C89	C	0.972838	0.131178	0.250038
C90	C	1.472838	0.631178	0.750038
C91	C	0.968552	0.135464	0.340611
C92	C	1.468552	0.635464	0.840611
C93	C	0.916559	0.187427	0.385902
C94	C	1.416559	0.687427	0.885902
C95	C	0.868843	0.235101	0.340616
C96	C	1.368843	0.735101	0.840616
C97	C	0.873125	0.230811	0.250045
C98	C	1.373125	0.730811	0.750045
C99	C	0.901132	0.202871	0.659368
C100	C	1.401132	0.702871	1.159368
C101	C	0.896855	0.207160	0.749945
C102	C	1.396855	0.707160	1.249945
C103	C	0.996564	0.107521	0.749933
C104	C	1.496564	0.607521	1.249933
C105	C	1.000845	0.103238	0.659361
C106	C	1.500845	0.603238	1.159361
C107	C	0.953125	0.150909	0.614083
C108	C	1.453125	0.650909	1.114083
C109	C	0.912179	0.191811	0.478482
C110	C	1.412179	0.691811	0.978482
C111	C	0.957502	0.146521	0.521505
C112	C	1.457502	0.646521	1.021505
H113	H	0.705105	0.028701	-0.000000
H114	H	1.205105	0.528701	0.500000
H115	H	1.051704	-0.077289	0.000007
H116	H	1.551704	0.422711	0.500007
H117	H	0.999832	0.104209	0.484626
H118	H	1.499832	0.604209	0.984626
H119	H	0.869846	0.234122	0.515365
H120	H	1.369846	0.734122	1.015365
H121	H	1.043182	0.060925	0.622486
H122	H	1.543182	0.560925	1.122486
H123	H	0.330080	0.064845	0.000005
H124	H	0.830080	0.564845	0.500005
H125	H	1.039169	-0.226064	-0.000007
H126	H	1.539169	0.273936	0.499993
H127	H	0.688385	0.286039	-0.000010
H128	H	1.188385	0.786039	0.499990
H129	H	0.539610	0.273504	-0.000016
H130	H	1.039610	0.773504	0.499984
H131	H	1.035413	0.068708	0.786807
H132	H	1.535413	0.568708	1.286807
H133	H	0.781835	-0.209361	-0.000024
H134	H	1.281835	0.290639	0.499976
H135	H	0.556319	0.016164	0.000002
H136	H	1.056319	0.516164	0.500002
H137	H	0.164586	0.309648	-0.000018
H138	H	0.664586	0.809648	0.499982
H139	H	1.087853	-0.452303	-0.000009
H140	H	1.587853	0.047697	0.499991
H141	H	0.817978	-0.584371	-0.000012
H142	H	1.317978	-0.084371	0.499988
H143	H	0.313374	0.322179	-0.000019
H144	H	0.813374	0.822179	0.499981
H145	H	0.830512	-0.435596	-0.000030
H146	H	1.330512	0.064404	0.499970
H147	H	0.426872	0.076574	-0.000004
H148	H	0.926872	0.576574	0.499996
H149	H	0.834272	0.269630	0.213179
H150	H	1.334272	0.769630	0.713179
H151	H	0.181305	0.052308	-0.000008
H152	H	0.681305	0.552308	0.499992
H153	H	0.442823	0.261774	-0.000020
H154	H	0.942823	0.761774	0.499980
H155	H	1.075316	-0.601090	-0.000014
H156	H	1.575316	-0.101090	0.499986
H157	H	0.794365	-0.060572	-0.000015
H158	H	1.294365	0.439428	0.499985
H159	H	1.027442	-0.322858	-0.000037
H160	H	1.527442	0.177142	0.499963
H161	H	1.007401	0.096645	0.377477
H162	H	1.507401	0.596645	0.877477
H163	H	0.842241	-0.338809	-0.000018
H164	H	1.342241	0.161191	0.499982
H165	H	1.015179	0.088868	0.213168
H166	H	1.515179	0.588868	0.713168
H167	H	0.826504	0.277408	0.377497
H168	H	1.326504	0.777408	0.877497
H169	H	0.854514	0.249477	0.786817
H170	H	1.354514	0.749477	1.286817
H171	H	0.862278	0.241688	0.622510
H172	H	1.362278	0.741688	1.122510
