data_functionalizedCrystal
_audit_creation_method	'MofGen! by Chris Wilmer'
_symmetry_space_group_name_H-M	'P1'
_symmetry_Int_Tables_number	1
_symmetry_cell_setting	triclinic
loop_
_symmetry_equiv_pos_as_xyz
  x,y,z
_cell_length_a	14.908795
_cell_length_b	14.909042
_cell_length_c	17.077395
_cell_angle_alpha	93.320244
_cell_angle_beta	93.316031
_cell_angle_gamma	89.820018
loop_
_atom_site_label
_atom_site_type_symbol
_atom_site_fract_x
_atom_site_fract_y
_atom_site_fract_z
Zn1	Zn	1.395314	-0.278772	0.500029
Zn2	Zn	1.728647	0.054561	0.833362
Zn3	Zn	2.061981	0.387894	1.166695
Zn4	Zn	1.403910	-0.429142	0.361656
Zn5	Zn	1.737243	-0.095809	0.694989
Zn6	Zn	2.070577	0.237525	1.028323
Zn7	Zn	1.244959	-0.287463	0.360780
Zn8	Zn	1.578292	0.045871	0.694114
Zn9	Zn	1.911626	0.379204	1.027447
Zn10	Zn	1.253600	-0.437751	0.484890
Zn11	Zn	1.586933	-0.104418	0.818223
Zn12	Zn	1.920266	0.228916	1.151556
O13	O	1.324446	-0.358282	0.426839
O14	O	1.657779	-0.024949	0.760172
O15	O	1.991112	0.308385	1.093505
O16	O	1.522284	-0.291479	0.488375
O17	O	1.855617	0.041854	0.821709
O18	O	2.188950	0.375187	1.155042
O19	O	1.382806	-0.410382	0.251690
O20	O	1.716139	-0.077048	0.585024
O21	O	2.049473	0.256285	0.918357
O22	O	1.257690	-0.160483	0.385221
O23	O	1.591024	0.172850	0.718555
O24	O	1.924357	0.506183	1.051888
O25	O	1.528599	-0.401955	0.386714
O26	O	1.861933	-0.068622	0.720047
O27	O	2.195266	0.264712	1.053380
O28	O	1.368155	-0.154099	0.487526
O29	O	1.701489	0.179235	0.820860
O30	O	2.034822	0.512568	1.154193
O31	O	1.266025	-0.306291	0.251047
O32	O	1.599359	0.027043	0.584380
O33	O	1.932692	0.360376	0.917714
O34	O	1.120276	-0.314639	0.370542
O35	O	1.453609	0.018695	0.703875
O36	O	1.786942	0.352028	1.037208
O37	O	1.272417	-0.416628	0.596748
O38	O	1.605751	-0.083295	0.930081
O39	O	1.939084	0.250038	1.263414
O40	O	1.126624	-0.425055	0.461724
O41	O	1.459957	-0.091722	0.795058
O42	O	1.793291	0.241612	1.128391
O43	O	1.376534	-0.299827	0.607870
O44	O	1.709868	0.033506	0.941203
O45	O	2.043201	0.366839	1.274537
O46	O	1.391185	-0.556110	0.372034
O47	O	1.724518	-0.222777	0.705367
O48	O	2.057851	0.110556	1.038701
O49	O	1.280752	-0.562435	0.462573
O50	O	1.614086	-0.229102	0.795907
O51	O	1.947419	0.104231	1.129240
C52	C	1.090824	-0.371725	0.414396
C53	C	1.424157	-0.038391	0.747729
C54	C	1.757490	0.294942	1.081062
C55	C	0.990881	-0.377497	0.409090
C56	C	1.324214	-0.044164	0.742423
C57	C	1.657547	0.289169	1.075757
C58	C	0.853299	-0.443056	0.348609
C59	C	1.186632	-0.109723	0.681943
C60	C	1.519966	0.223611	1.015276
C61	C	0.947205	-0.437636	0.353594
C62	C	1.280538	-0.104303	0.686927
C63	C	1.613872	0.229031	1.020260
C64	C	0.940643	-0.322773	0.459604
C65	C	1.273977	0.010561	0.792937
C66	C	1.607310	0.343894	1.126270
C67	C	0.846738	-0.328193	0.454619
C68	C	1.180071	0.005141	0.787952
C69	C	1.513404	0.338474	1.121286
C70	C	0.803069	-0.388337	0.399121
C71	C	1.136402	-0.055004	0.732454
C72	C	1.469736	0.278329	1.065787
C73	C	0.709162	-0.393762	0.394140
C74	C	1.042495	-0.060428	0.727474
C75	C	1.375828	0.272905	1.060807
C76	C	0.702602	-0.278894	0.500146
C77	C	1.035935	0.054439	0.833479
C78	C	1.369268	0.387773	1.166813
C79	C	0.796507	-0.273474	0.505131
C80	C	1.129841	0.059859	0.838464
C81	C	1.463174	0.393193	1.171797
C82	C	1.337863	-0.591897	0.415774
C83	C	1.671197	-0.258564	0.749108
C84	C	2.004530	0.074770	1.082441
C85	C	1.343686	-0.691834	0.411071
C86	C	1.677019	-0.358500	0.744405
C87	C	2.010352	-0.025167	1.077738
C88	C	1.239523	-0.886282	0.496420
C89	C	1.572856	-0.552949	0.829753
C90	C	1.906190	-0.219616	1.163087
C91	C	1.244991	-0.980182	0.492004
C92	C	1.578324	-0.646849	0.825337
C93	C	1.911658	-0.313515	1.158671
C94	C	1.360084	-0.973534	0.397819
C95	C	1.693418	-0.640201	0.731153
C96	C	2.026751	-0.306868	1.064486
C97	C	1.354616	-0.879635	0.402235
C98	C	1.687950	-0.546301	0.735569
C99	C	2.021283	-0.212968	1.068902
C100	C	1.294335	-0.836012	0.451538
C101	C	1.627668	-0.502679	0.784872
C102	C	1.961001	-0.169346	1.118205
C103	C	1.288872	-0.742111	0.455958
C104	C	1.622205	-0.408777	0.789292
C105	C	1.955539	-0.075444	1.122625
C106	C	1.403960	-0.735465	0.361770
C107	C	1.737294	-0.402132	0.695103
C108	C	2.070627	-0.068798	1.028436
C109	C	1.409428	-0.829364	0.357354
C110	C	1.742761	-0.496031	0.690687
C111	C	2.076095	-0.162698	1.024020
C112	C	1.558980	-0.344787	0.439331
C113	C	1.892313	-0.011454	0.772664
C114	C	2.225647	0.321879	1.105998
C115	C	1.658924	-0.339037	0.444654
C116	C	1.992258	-0.005704	0.777988
C117	C	2.325591	0.327630	1.111321
C118	C	1.324481	-0.358219	0.631588
C119	C	1.657814	-0.024885	0.964921
C120	C	1.991147	0.308448	1.298255
C121	C	1.324496	-0.358192	0.718840
C122	C	1.657829	-0.024858	1.052173
C123	C	1.991162	0.308475	1.385507
C124	C	1.311000	-0.123753	0.437965
C125	C	1.644333	0.209580	0.771298
C126	C	1.977667	0.542913	1.104631
C127	C	1.305270	-0.023811	0.442706
C128	C	1.638604	0.309522	0.776039
C129	C	1.971937	0.642855	1.109373
C130	C	1.324459	-0.358277	0.222892
C131	C	1.657792	-0.024944	0.556225
C132	C	1.991125	0.308389	0.889558
C133	C	1.324603	-0.358041	0.135661
C134	C	1.657937	-0.024707	0.468995
C135	C	1.991270	0.308626	0.802328
C136	C	1.378802	-0.297246	1.100458
C137	C	1.712135	0.036088	1.433792
C138	C	2.045469	0.369421	1.767125
C139	C	1.378786	-0.297278	1.018475
C140	C	1.712119	0.036055	1.351809
C141	C	2.045452	0.369388	1.685142
C142	C	1.324565	-0.358102	0.971697
C143	C	1.657898	-0.024769	1.305030
C144	C	1.991232	0.308564	1.638364
C145	C	1.270364	-0.418904	1.006905
C146	C	1.603697	-0.085571	1.340239
C147	C	1.937031	0.247763	1.673572
C148	C	1.270386	-0.418875	1.088887
C149	C	1.603719	-0.085542	1.422220
C150	C	1.937053	0.247792	1.755554
C151	C	1.270321	-0.418959	0.836030
C152	C	1.603654	-0.085625	1.169364
C153	C	1.936987	0.247708	1.502697
C154	C	1.270297	-0.418987	0.754043
C155	C	1.603630	-0.085654	1.087376
C156	C	1.936964	0.247680	1.420710
C157	C	1.378720	-0.297362	0.765619
C158	C	1.712053	0.035971	1.098952
C159	C	2.045387	0.369305	1.432285
C160	C	1.378742	-0.297333	0.847600
C161	C	1.712075	0.036000	1.180934
C162	C	2.045409	0.369334	1.514267
C163	C	1.324540	-0.358134	0.882803
C164	C	1.657873	-0.024800	1.216136
C165	C	1.991206	0.308533	1.549470
H166	H	0.661694	-0.234339	0.541278
H167	H	0.995027	0.098994	0.874611
H168	H	1.328361	0.432327	1.207944
F169	F	1.212633	-0.483671	0.873494
F170	F	1.545966	-0.150338	1.206827
F171	F	1.879299	0.182996	1.540160
H172	H	1.190446	-0.850764	0.536570
H173	H	1.523779	-0.517431	0.869904
H174	H	1.857112	-0.184097	1.203237
H175	H	1.448594	-0.694524	0.325226
H176	H	1.781928	-0.361190	0.658560
H177	H	2.115261	-0.027857	0.991893
H178	H	0.832075	-0.224504	0.550314
H179	H	1.165409	0.108830	0.883647
H180	H	1.498742	0.442163	1.216980
F181	F	0.662688	-0.457776	0.335079
F182	F	0.996021	-0.124443	0.668412
F183	F	1.329354	0.208890	1.001746
H184	H	1.422949	-0.247710	1.138540
H185	H	1.756282	0.085623	1.471873
H186	H	2.089615	0.418957	1.805207
F187	F	0.987134	-0.258764	0.518661
F188	F	1.320467	0.074569	0.851994
F189	F	1.653800	0.407902	1.185328
F190	F	1.436472	-0.232572	0.981014
F191	F	1.769805	0.100761	1.314347
F192	F	2.103139	0.434095	1.647680
H193	H	1.226221	-0.468432	0.968812
H194	H	1.559554	-0.135099	1.302145
H195	H	1.892888	0.198235	1.635478
H196	H	1.226253	-0.468382	1.117548
H197	H	1.559586	-0.135048	1.450881
H198	H	1.892919	0.198285	1.784214
F199	F	1.436461	-0.232607	0.897384
F200	F	1.769794	0.100726	1.230717
F201	F	2.103128	0.434059	1.564051
F202	F	1.212594	-0.483726	0.704259
F203	F	1.545927	-0.150393	1.037593
F204	F	1.879260	0.182940	1.370926
H205	H	0.817744	-0.492035	0.303426
H206	H	1.151077	-0.158702	0.636759
H207	H	1.484411	0.174631	0.970093
F208	F	1.000661	-0.495873	0.299830
F209	F	1.333994	-0.162540	0.633164
F210	F	1.667327	0.170794	0.966497
H211	H	1.239790	-0.706594	0.496105
H212	H	1.573123	-0.373261	0.829439
H213	H	1.906457	-0.039927	1.162772
H214	H	1.409154	-1.009069	0.357672
H215	H	1.742487	-0.675735	0.691005
H216	H	2.075821	-0.342402	1.024338
F217	F	1.186651	-1.033681	0.539772
F218	F	1.519984	-0.700347	0.873105
F219	F	1.853318	-0.367014	1.206438
H220	H	1.458505	-0.864895	0.317210
H221	H	1.791838	-0.531562	0.650544
H222	H	2.125172	-0.198228	0.983877
H223	H	1.422852	-0.247854	0.736953
H224	H	1.756185	0.085479	1.070286
H225	H	2.089518	0.418813	1.403620
