data_functionalizedCrystal
_audit_creation_method	'MofGen! by Chris Wilmer'
_symmetry_space_group_name_H-M	'P1'
_symmetry_Int_Tables_number	1
_symmetry_cell_setting	triclinic
loop_
_symmetry_equiv_pos_as_xyz
  x,y,z
_cell_length_a	6.817900
_cell_length_b	10.943632
_cell_length_c	16.255661
_cell_angle_alpha	93.782539
_cell_angle_beta	103.488922
_cell_angle_gamma	108.838880
loop_
_atom_site_label
_atom_site_type_symbol
_atom_site_fract_x
_atom_site_fract_y
_atom_site_fract_z
V1	V	-4.054164	-0.179673	-0.263851
O2	O	-4.013035	0.007561	-0.258849
O3	O	-4.032538	-0.355229	-0.262026
O4	O	-4.005375	-0.177380	-0.378934
O5	O	-4.040386	-0.171519	-0.141131
V6	V	-4.534372	-0.157222	-0.249175
O7	O	-4.322692	-0.228921	-0.296043
O8	O	-4.716042	-0.107974	-0.216982
O9	O	-4.332791	0.018334	-0.251000
O10	O	-4.692898	-0.344455	-0.254177
O11	O	-4.665547	-0.165375	-0.371894
O12	O	-4.359954	-0.159515	-0.134091
C13	C	-3.884065	-0.398011	-0.257858
C14	C	-3.947667	-0.541533	-0.257134
C15	C	-3.793634	-0.618667	-0.252314
C16	C	-3.888351	-0.691043	-0.183995
C17	C	-3.966305	-0.724890	-0.324171
C18	C	-4.041514	-0.612005	-0.188766
C19	C	-4.119473	-0.645859	-0.329004
C20	C	-4.214302	-0.718197	-0.260671
C21	C	-3.849415	-0.171145	-0.406985
C22	C	-3.890986	-0.170432	-0.501067
C23	C	-3.800241	-0.161915	-0.723886
C24	C	-3.973452	-0.271842	-0.793350
C25	C	-3.967166	-0.169095	-0.673315
C26	C	-3.868053	-0.057910	-0.771489
C27	C	-4.040736	-0.167798	-0.839699
C28	C	-4.139874	-0.279121	-0.741549
C29	C	-4.034398	-0.065091	-0.719673
C30	C	-4.207750	-0.175050	-0.789117
C31	C	-3.924779	-0.169844	-0.577466
C32	C	-4.083141	-0.167060	-0.935548
C33	C	-4.144608	0.061109	-0.255165
C34	C	-4.060243	0.204630	-0.255895
C35	C	-4.179257	-0.165753	-0.106036
C36	C	-4.116924	-0.166460	-0.011954
H37	H	-4.216446	-0.625310	-0.390322
C38	C	-3.925126	-0.790600	-0.400496
C39	C	-4.119399	-0.881296	-0.451724
C40	C	-4.081525	-0.941859	-0.522031
H41	H	-3.865614	-0.726543	-0.433086
H42	H	-3.827183	-0.834239	-0.380845
H43	H	-4.217307	-0.837658	-0.471375
H44	H	-4.178941	-0.945378	-0.419160
H45	H	-3.983582	-0.985498	-0.502380
H46	H	-4.022009	-0.877793	-0.554613
H47	H	-4.213327	-1.003411	-0.556793
H48	H	-4.059636	0.022324	-0.687574
H49	H	-3.627660	-0.156504	-0.695407
H50	H	-3.753538	0.035554	-0.785110
H51	H	-3.791297	-0.711559	-0.122677
C52	C	-3.939249	-0.388266	-0.836062
C53	C	-3.726231	-0.380919	-0.802838
C54	C	-3.694621	-0.488130	-0.842167
H55	H	-4.034243	-0.466831	-0.825307
H56	H	-3.967277	-0.387396	-0.896038
H57	H	-3.698225	-0.381801	-0.742877
H58	H	-3.631194	-0.302377	-0.813592
H59	H	-3.722649	-0.487261	-0.902143
H60	H	-3.789626	-0.566687	-0.831410
H61	H	-3.550083	-0.483153	-0.819637
H62	H	-4.380476	-0.180632	-0.817463
C63	C	-3.555617	-0.560441	-0.247371
C64	C	-3.450707	-0.465728	-0.174265
C65	C	-3.231455	-0.412047	-0.169686
H66	H	-3.494964	-0.627450	-0.244321
H67	H	-3.538705	-0.521241	-0.296904
H68	H	-3.467605	-0.504929	-0.124744
H69	H	-3.511294	-0.398695	-0.177299
H70	H	-3.214543	-0.372847	-0.219219
H71	H	-3.170824	-0.479065	-0.166638
H72	H	-3.160250	-0.347771	-0.120088
C73	C	-4.083497	-0.546793	-0.112463
C74	C	-4.302818	-0.598406	-0.116773
C75	C	-4.341567	-0.538349	-0.046504
H76	H	-4.001943	-0.562456	-0.060982
H77	H	-4.042593	-0.455371	-0.113365
H78	H	-4.343699	-0.689806	-0.115863
H79	H	-4.384420	-0.582744	-0.168238
H80	H	-4.300663	-0.446927	-0.047406
H81	H	-4.260001	-0.554016	0.004972
H82	H	-4.490381	-0.573351	-0.049423
C83	C	-4.452224	-0.776126	-0.265391
C84	C	-4.510126	-0.911075	-0.265391
C85	C	-4.729280	-0.964487	-0.269745
H86	H	-4.479306	-0.737101	-0.217283
H87	H	-4.534533	-0.759860	-0.316467
H88	H	-4.427843	-0.927331	-0.214322
H89	H	-4.483097	-0.950135	-0.313497
H90	H	-4.811589	-0.948221	-0.320820
H91	H	-4.756342	-0.925453	-0.221635
H92	H	-4.768600	-1.056056	-0.269753
C93	C	-4.292309	-0.403867	-0.723413
C94	C	-4.251174	-0.403144	-0.634843
C95	C	-4.391522	-0.518045	-0.618103
H96	H	-4.436755	-0.408926	-0.746255
H97	H	-4.270938	-0.477247	-0.749287
H98	H	-4.272562	-0.329783	-0.608979
H99	H	-4.106754	-0.398105	-0.611981
H100	H	-4.370152	-0.591425	-0.643977
H101	H	-4.535960	-0.523094	-0.640950
H102	H	-4.363618	-0.517575	-0.558007
