data_functionalizedCrystal
_audit_creation_method	'MofGen! by Chris Wilmer'
_symmetry_space_group_name_H-M	'P1'
_symmetry_Int_Tables_number	1
_symmetry_cell_setting	triclinic
loop_
_symmetry_equiv_pos_as_xyz
  x,y,z
_cell_length_a	15.298068
_cell_length_b	15.297327
_cell_length_c	15.297738
_cell_angle_alpha	69.242341
_cell_angle_beta	110.812604
_cell_angle_gamma	110.796215
loop_
_atom_site_label
_atom_site_type_symbol
_atom_site_fract_x
_atom_site_fract_y
_atom_site_fract_z
Zn1	Zn	1.476991	-0.243788	0.808329
Zn2	Zn	1.429962	-0.379325	0.672759
Zn3	Zn	1.294543	-0.243769	0.625852
Zn4	Zn	1.294476	-0.426128	0.808174
O5	O	1.373993	-0.323252	0.728779
O6	O	1.603809	-0.242188	0.810042
O7	O	1.392345	-0.341748	0.533498
O8	O	1.338455	-0.110731	0.630492
O9	O	1.569257	-0.341766	0.710439
O10	O	1.472498	-0.110745	0.764557
O11	O	1.292853	-0.242156	0.499035
O12	O	1.161478	-0.287539	0.630341
O13	O	1.338341	-0.421535	0.941233
O14	O	1.161429	-0.421517	0.764292
O15	O	1.472434	-0.287570	0.941347
O16	O	1.392280	-0.518574	0.710289
O17	O	1.292739	-0.552960	0.809777
C18	C	1.126953	-0.359605	0.692210
C19	C	1.021268	-0.375183	0.676592
C20	C	0.795321	-0.212152	0.840441
C21	C	0.894617	-0.197519	0.855121
C22	C	0.926285	-0.241933	0.810490
C23	C	0.858646	-0.300984	0.751177
C24	C	0.759340	-0.315624	0.736501
C25	C	0.890304	-0.345406	0.706550
C26	C	0.822665	-0.404457	0.647237
C27	C	0.723369	-0.419094	0.632564
C28	C	0.691701	-0.374679	0.677195
C29	C	0.989611	-0.330765	0.721225
C30	C	0.953630	-0.434238	0.617286
C31	C	0.854333	-0.448871	0.602606
C32	C	1.337428	-0.570262	0.765131
C33	C	1.321877	-0.675926	0.780727
C34	C	1.485579	-0.902031	0.617692
C35	C	1.500188	-0.802754	0.603034
C36	C	1.455612	-0.771042	0.647456
C37	C	1.396423	-0.838617	0.706539
C38	C	1.381805	-0.937903	0.721192
C39	C	1.351839	-0.806914	0.750956
C40	C	1.292650	-0.874489	0.810039
C41	C	1.278036	-0.973766	0.824690
C42	C	1.322612	-1.005478	0.780268
C43	C	1.366456	-0.707628	0.736302
C44	C	1.262683	-0.743500	0.839803
C45	C	1.248073	-0.842777	0.854461
C46	C	1.621998	-0.286758	0.765490
C47	C	1.727682	-0.271207	0.781135
C48	C	1.410626	-0.359775	0.976750
C49	C	1.426236	-0.375339	1.082421
C50	C	1.410730	-0.075277	0.692309
C51	C	1.426385	0.030395	0.676768
C52	C	1.337568	-0.286795	0.481769
C53	C	1.322181	-0.270936	0.376087
C54	C	1.485370	-0.434505	1.150010
C55	C	1.500043	-0.449119	1.249293
C56	C	1.455579	-0.404575	1.280996
C57	C	1.396439	-0.345413	1.213407
C58	C	1.381770	-0.330792	1.114115
C59	C	1.351979	-0.300862	1.245101
C60	C	1.292838	-0.241700	1.177512
C61	C	1.278171	-0.227082	1.078230
C62	C	1.322636	-0.271626	1.046526
C63	C	1.366648	-0.315484	1.344393
C64	C	1.263047	-0.211770	1.308498
C65	C	1.248374	-0.197156	1.209215
H66	H	0.769526	-0.176002	0.876779
C67	C	1.058713	-0.314988	0.868913
C68	C	1.035434	-0.225845	0.826624
H69	H	1.126102	-0.305049	0.878879
H70	H	1.022970	-0.356501	0.827201
H71	H	1.042869	-0.343861	0.929350
H72	H	1.051272	-0.196975	0.766183
H73	H	1.071190	-0.184317	0.868338
H74	H	1.467530	-0.416477	1.361838
C75	C	0.920200	-0.096703	0.956371
C76	C	0.968962	-0.132603	0.920303
H77	H	0.966101	-0.056618	0.996607
H78	H	0.880709	-0.149234	0.993054
H79	H	0.880732	-0.059897	0.903911
H80	H	1.008425	-0.169416	0.972763
H81	H	1.008469	-0.080065	0.883619
H82	H	1.548379	-0.747738	0.554928
H83	H	1.226844	-0.175496	1.334310
C84	C	1.209554	-1.141884	0.893109
C85	C	1.212971	-1.048047	0.889630
H86	H	1.169382	-1.187740	0.933196
H87	H	1.273100	-1.150744	0.918917
H88	H	1.183846	-1.150813	0.829571
H89	H	1.238686	-1.039116	0.953168
H90	H	1.149413	-1.039184	0.863825
H91	H	1.310722	-1.086316	0.792203
C92	C	1.503713	-0.902055	0.468122
C93	C	1.534566	-0.936872	0.568847
H94	H	1.533954	-0.923565	0.437960
H95	H	1.520891	-0.833266	0.450961
H96	H	1.435369	-0.925739	0.447134
H97	H	1.602909	-0.913183	0.589836
H98	H	1.517395	-1.005676	0.586015
H99	H	0.668299	-0.467185	0.584276
H100	H	1.414648	-0.652616	0.688197
H101	H	0.610847	-0.386598	0.665253
H102	H	0.799248	-0.496952	0.554314
H103	H	0.979412	-0.470409	0.580949
H104	H	1.200222	-0.148986	1.154171
H105	H	1.199880	-0.897810	0.902566
H106	H	1.548196	-0.497288	1.304317
C107	C	1.533049	-0.609299	0.570120
C108	C	1.471679	-0.661915	0.631354
H109	H	1.542976	-0.541926	0.560187
H110	H	1.504270	-0.625166	0.509657
H111	H	1.593528	-0.625111	0.598999
H112	H	1.411198	-0.646108	0.602472
H113	H	1.500456	-0.646041	0.691829
C114	C	1.239019	-0.607242	0.863310
C115	C	1.213684	-0.708653	0.888641
H116	H	1.208774	-0.585726	0.893462
H117	H	1.218104	-0.583644	0.794981
H118	H	1.307363	-0.583579	0.884322
H119	H	1.145340	-0.732315	0.867623
H120	H	1.234594	-0.732260	0.956984
H121	H	1.414801	-0.363653	1.399416
H122	H	1.230023	-0.178901	1.023200
H123	H	1.310692	-0.259730	0.965683
C124	C	1.508876	-0.458130	1.013739
C125	C	1.534241	-0.483461	1.115159
H126	H	1.539047	-0.488361	0.992226
H127	H	1.529854	-0.389816	0.990143
H128	H	1.440524	-0.479051	0.990067
H129	H	1.602594	-0.462533	1.138830
H130	H	1.513269	-0.551790	1.138765
H131	H	1.044673	-0.282685	0.769517
