data_functionalizedCrystal
_audit_creation_method	'MofGen! by Chris Wilmer'
_symmetry_space_group_name_H-M	'P1'
_symmetry_Int_Tables_number	1
_symmetry_cell_setting	triclinic
loop_
_symmetry_equiv_pos_as_xyz
  x,y,z
_cell_length_a	14.044220
_cell_length_b	14.044190
_cell_length_c	10.868271
_cell_angle_alpha	89.990065
_cell_angle_beta	90.000690
_cell_angle_gamma	93.190328
loop_
_atom_site_label
_atom_site_type_symbol
_atom_site_fract_x
_atom_site_fract_y
_atom_site_fract_z
O1	O	1.277174	0.230169	-0.102216
O2	O	1.000502	0.221863	-0.102247
O3	O	1.134681	0.087680	-0.102208
O4	O	1.142994	0.364352	-0.102255
O5	O	1.134669	0.087673	0.102437
O6	O	1.000489	0.221856	0.102398
O7	O	1.277161	0.230162	0.102428
Zn8	Zn	1.138823	0.226008	0.134905
Zn9	Zn	1.138840	0.226017	-0.134723
O10	O	1.142982	0.364346	0.102389
C11	C	0.964874	0.218224	0.000072
C12	C	0.858731	0.207380	0.000062
C13	C	0.664392	0.187553	0.000089
C14	C	0.613264	0.264468	0.000081
C15	C	0.505128	0.253436	0.000097
C16	C	0.772539	0.198583	0.000074
C17	C	1.131039	0.052054	0.000118
C18	C	1.120191	-0.054089	0.000127
C19	C	1.177292	-0.299547	0.000085
C20	C	1.100375	-0.248422	0.000086
C21	C	1.111404	-0.140285	0.000109
C22	C	1.166265	-0.407694	0.000062
C23	C	1.312789	0.233801	0.000107
C24	C	1.418932	0.244646	0.000109
C25	C	1.146624	0.399971	0.000061
C26	C	1.157472	0.506114	0.000044
N27	N	1.138819	0.226002	0.318919
N28	N	1.138851	0.226016	-0.318737
C29	C	1.138835	0.226015	0.569925
C30	C	1.138823	0.226010	0.430248
H31	H	0.650706	0.338602	0.000063
H32	H	0.626954	0.113425	0.000109
H33	H	1.026243	-0.285865	0.000070
O34	O	1.265657	-0.254735	0.000171
C35	C	1.257133	-0.155178	0.000161
H36	H	1.184563	-0.138234	0.038888
H37	H	1.264072	-0.127030	-0.098008
C38	C	1.425609	-0.128150	0.032886
C39	C	1.336480	-0.107339	0.080460
H40	H	1.474557	-0.098640	0.082413
H41	H	1.431354	-0.195224	0.032888
H42	H	1.431379	-0.104693	-0.048921
H43	H	1.330708	-0.130807	0.162260
H44	H	1.330737	-0.040268	0.080474
