data_functionalizedCrystal
_audit_creation_method	'MofGen! by Chris Wilmer'
_symmetry_space_group_name_H-M	'P1'
_symmetry_Int_Tables_number	1
_symmetry_cell_setting	triclinic
loop_
_symmetry_equiv_pos_as_xyz
  x,y,z
_cell_length_a	16.120530
_cell_length_b	18.050589
_cell_length_c	16.120297
_cell_angle_alpha	92.875657
_cell_angle_beta	90.128140
_cell_angle_gamma	87.123928
loop_
_atom_site_label
_atom_site_type_symbol
_atom_site_fract_x
_atom_site_fract_y
_atom_site_fract_z
Zn1	Zn	1.247404	-0.376248	-0.534587
Zn2	Zn	1.747404	0.123752	-0.034587
Zn3	Zn	1.254344	-0.494473	-0.395537
Zn4	Zn	1.754344	0.005527	0.104463
Zn5	Zn	1.115396	-0.363698	-0.388504
Zn6	Zn	1.615396	0.136302	0.111496
Zn7	Zn	1.108300	-0.493789	-0.527506
Zn8	Zn	1.608300	0.006211	-0.027506
O9	O	1.181361	-0.432052	-0.461533
O10	O	1.681361	0.067948	0.038467
O11	O	1.364691	-0.397469	-0.522048
O12	O	1.864691	0.102531	-0.022048
O13	O	1.241786	-0.472159	-0.278238
O14	O	1.741786	0.027841	0.221762
O15	O	1.132972	-0.261442	-0.407903
O16	O	1.632972	0.238558	0.092097
O17	O	1.369789	-0.484328	-0.419888
O18	O	1.869789	0.015672	0.080112
O19	O	1.229959	-0.270662	-0.515230
O20	O	1.729959	0.229338	-0.015230
O21	O	1.139701	-0.376080	-0.273071
O22	O	1.639701	0.123920	0.226929
O23	O	0.998089	-0.375417	-0.401037
O24	O	1.498089	0.124583	0.098963
O25	O	1.120879	-0.483162	-0.644811
O26	O	1.620879	0.016838	-0.144811
O27	O	0.992876	-0.470994	-0.503160
O28	O	1.492876	0.029006	-0.003160
O29	O	1.223078	-0.396806	-0.650014
O30	O	1.723078	0.103194	-0.150014
O31	O	1.234906	-0.598303	-0.413022
O32	O	1.734906	-0.098303	0.086978
O33	O	1.127608	-0.597800	-0.509979
O34	O	1.627608	-0.097800	-0.009979
C35	C	0.965310	-0.421770	-0.450568
C36	C	1.465310	0.078230	0.049432
C37	C	0.872881	-0.417390	-0.445896
C38	C	1.372881	0.082610	0.054104
C39	C	0.703653	-0.409376	-0.437374
C40	C	1.203653	0.090624	0.062626
C41	C	0.659907	-0.454785	-0.485754
C42	C	1.159907	0.045215	0.014246
C43	C	0.565742	-0.450326	-0.481012
C44	C	1.065742	0.049674	0.018988
C45	C	0.797826	-0.413834	-0.442115
C46	C	1.297826	0.086166	0.057885
C47	C	1.181261	-0.624999	-0.461515
C48	C	1.681261	-0.124999	0.038485
C49	C	1.181293	-0.707547	-0.461538
C50	C	1.681293	-0.207547	0.038462
C51	C	1.123001	-0.906753	-0.514247
C52	C	1.623001	-0.406753	-0.014247
C53	C	1.106578	-0.951975	-0.437341
C54	C	1.606578	-0.451975	0.062659
C55	C	1.181375	-0.858682	-0.461553
C56	C	1.681375	-0.358682	0.038447
C57	C	1.197838	-0.960544	-0.538470
C58	C	1.697838	-0.460544	-0.038470
C59	C	1.181451	-1.004671	-0.461574
C60	C	1.681451	-0.504671	0.038426
C61	C	1.164914	-0.902813	-0.384605
C62	C	1.664914	-0.402813	0.115395
C63	C	1.256207	-0.911381	-0.485787
C64	C	1.756207	-0.411381	0.014213
C65	C	1.239815	-0.956580	-0.408830
C66	C	1.739815	-0.456580	0.091170
C67	C	1.181328	-0.774581	-0.461542
C68	C	1.681328	-0.274581	0.038458
C69	C	1.181498	-1.088770	-0.461577
C70	C	1.681498	-0.588770	0.038423
C71	C	1.398256	-0.442375	-0.472543
C72	C	1.898256	0.057625	0.027457
C73	C	1.490683	-0.446774	-0.477234
C74	C	1.990683	0.053226	0.022766
C75	C	1.170413	-0.441308	-0.678428
C76	C	1.670413	0.058692	-0.178428
C77	C	1.165748	-0.445252	-0.770856
C78	C	1.665748	0.054748	-0.270856
C79	C	1.181483	-0.238354	-0.461572
C80	C	1.681483	0.261646	0.038428
C81	C	1.181535	-0.155811	-0.461588
C82	C	1.681535	0.344189	0.038412
C83	C	1.157199	-0.452435	-0.940081
C84	C	1.657199	0.047565	-0.440081
C85	C	1.205687	-0.411454	-0.983846
C86	C	1.705687	0.088546	-0.483846
C87	C	1.200930	-0.415451	-1.078009
C88	C	1.700930	0.084549	-0.578009
C89	C	1.161955	-0.448439	-0.845910
C90	C	1.661955	0.051561	-0.345910
C91	C	1.192314	-0.422781	-0.245485
C92	C	1.692314	0.077219	0.254515
C93	C	1.197141	-0.418635	-0.153066
C94	C	1.697141	0.081365	0.346934
H95	H	1.073570	-0.884877	-0.558738
H96	H	1.573570	-0.384877	-0.058738
N97	N	0.659588	-0.353462	-0.377783
N98	N	1.159588	0.146538	0.122217
H99	H	0.674010	-0.301666	-0.391528
H100	H	1.174010	0.198334	0.108472
H101	H	0.597606	-0.358242	-0.382831
H102	H	1.097606	0.141758	0.117169
N103	N	0.703962	-0.510728	-0.545328
N104	N	1.203962	-0.010728	-0.045328
H105	H	0.685924	-0.501122	-0.604024
H106	H	1.185924	-0.001122	-0.104024
H107	H	0.765949	-0.506003	-0.540241
H108	H	1.265949	-0.006003	-0.040241
H109	H	1.043330	-0.969970	-0.416862
H110	H	1.543330	-0.469970	0.083138
H111	H	1.250770	-0.373367	-0.950596
H112	H	1.750770	0.126633	-0.450596
N113	N	1.146415	-0.869531	-0.298422
N114	N	1.646415	-0.369531	0.201578
H115	H	1.146476	-0.813605	-0.298950
H116	H	1.646476	-0.313605	0.201050
H117	H	1.090122	-0.884671	-0.280060
H118	H	1.590122	-0.384671	0.219940
N119	N	1.305256	-0.985370	-0.349752
N120	N	1.805256	-0.485370	0.150248
H121	H	1.292741	-0.964155	-0.291706
H122	H	1.792741	-0.464155	0.208294
H123	H	1.305227	-1.041351	-0.350509
H124	H	1.805227	-0.541351	0.149491
H125	H	1.112120	-0.490519	-0.973329
H126	H	1.612120	0.009481	-0.473329
H127	H	1.319438	-0.893389	-0.506301
H128	H	1.819438	-0.393389	-0.006301
N129	N	1.216246	-0.993956	-0.624616
N130	N	1.716246	-0.493956	-0.124616
H131	H	1.172084	-0.975820	-0.664360
H132	H	1.672084	-0.475820	-0.164360
H133	H	1.272329	-0.978532	-0.643252
H134	H	1.772329	-0.478532	-0.143252
