data_functionalizedCrystal
_audit_creation_method	'MofGen! by Chris Wilmer'
_symmetry_space_group_name_H-M	'P1'
_symmetry_Int_Tables_number	1
_symmetry_cell_setting	triclinic
loop_
_symmetry_equiv_pos_as_xyz
  x,y,z
_cell_length_a	16.956984
_cell_length_b	27.732048
_cell_length_c	15.455313
_cell_angle_alpha	92.637842
_cell_angle_beta	87.518126
_cell_angle_gamma	79.348037
loop_
_atom_site_label
_atom_site_type_symbol
_atom_site_fract_x
_atom_site_fract_y
_atom_site_fract_z
O1	O	1.061316	0.017782	-0.072138
O2	O	1.561316	0.517782	0.427862
O3	O	0.828949	0.034760	-0.072141
O4	O	1.328949	0.534760	0.427859
O5	O	0.952348	-0.044381	-0.072123
O6	O	1.452348	0.455619	0.427877
O7	O	0.937916	0.096923	-0.072156
O8	O	1.437916	0.596923	0.427844
O9	O	0.945292	-0.039873	0.072138
O10	O	1.445292	0.460127	0.572138
O11	O	0.821893	0.039268	0.072120
O12	O	1.321893	0.539268	0.572120
O13	O	1.054259	0.022290	0.072124
O14	O	1.554259	0.522290	0.572124
Cu15	Cu	0.937432	0.031191	0.085294
Cu16	Cu	1.437432	0.531191	0.585294
Cu17	Cu	0.945777	0.025859	-0.085311
Cu18	Cu	1.445777	0.525859	0.414689
O19	O	0.930860	0.101431	0.072105
O20	O	1.430860	0.601431	0.572105
C21	C	0.795702	0.037884	-0.000011
C22	C	1.295702	0.537884	0.499989
C23	C	0.707150	0.040469	-0.000011
C24	C	1.207150	0.540469	0.499989
C25	C	0.675597	-0.002750	0.000000
C26	C	1.175597	0.497250	0.500000
C27	C	0.592392	-0.000318	-0.000006
C28	C	1.092392	0.499682	0.499994
C29	C	0.540741	0.045332	-0.000019
C30	C	1.040741	0.545332	0.499981
C31	C	0.572298	0.088554	-0.000033
C32	C	1.072298	0.588554	0.499967
C33	C	0.655502	0.086122	-0.000032
C34	C	1.155502	0.586122	0.499968
C35	C	0.290820	0.057371	-0.000028
C36	C	0.790820	0.557371	0.499972
C37	C	0.207612	0.059800	-0.000026
C38	C	0.707612	0.559800	0.499974
C39	C	0.227711	-0.029073	-0.000001
C40	C	0.727711	0.470927	0.499999
C41	C	0.310916	-0.031501	0.000005
C42	C	0.810916	0.468499	0.500005
C43	C	0.342466	0.011721	-0.000014
C44	C	0.842466	0.511721	0.499986
N45	N	0.455692	0.047819	-0.000023
N46	N	0.955692	0.547819	0.499977
N47	N	0.427514	0.009233	-0.000016
N48	N	0.927514	0.509233	0.499984
C49	C	0.948517	-0.060123	0.000010
C50	C	1.448517	0.439877	0.500010
C51	C	0.947604	-0.113745	0.000017
C52	C	1.447604	0.386255	0.500017
C53	C	1.014784	-0.454942	-0.000026
C54	C	1.514784	0.045058	0.499974
C55	C	1.011400	-0.656482	-0.000038
C56	C	1.511400	-0.156482	0.499962
O57	O	1.072831	-0.689915	-0.000075
O58	O	1.572831	-0.189915	0.499925
N59	N	0.938229	-0.673013	-0.000039
N60	N	1.438229	-0.173013	0.499961
C61	C	0.865899	-0.639156	-0.000042
C62	C	1.365899	-0.139156	0.499958
O63	O	0.803585	-0.657841	-0.000051
O64	O	1.303585	-0.157841	0.499949
C65	C	0.869284	-0.437617	-0.000036
C66	C	1.369284	0.062383	0.499964
C67	C	0.942460	-0.421089	-0.000027
C68	C	1.442460	0.078911	0.499973
C69	C	1.087954	-0.438413	-0.000018
C70	C	1.587954	0.061587	0.499982
C71	C	1.088799	-0.388031	-0.000010
C72	C	1.588799	0.111969	0.499990
C73	C	1.016475	-0.354178	-0.000011
C74	C	1.516475	0.145822	0.499989
C75	C	0.943305	-0.370706	-0.000019
C76	C	1.443305	0.129294	0.499981
C77	C	0.796955	-0.403761	-0.000045
C78	C	1.296955	0.096239	0.499955
C79	C	0.797808	-0.353374	-0.000045
C80	C	1.297808	0.146626	0.499955
C81	C	0.870984	-0.336845	-0.000036
C82	C	1.370984	0.163155	0.499964
C83	C	0.871825	-0.286471	-0.000011
C84	C	1.371825	0.213529	0.499989
N85	N	0.944997	-0.269940	-0.000011
N86	N	1.444997	0.230060	0.499989
C87	C	1.017321	-0.303793	-0.000011
C88	C	1.517321	0.196207	0.499989
C89	C	0.864126	-0.744967	-0.000043
C90	C	1.364126	-0.244967	0.499957
C91	C	0.863280	-0.795352	-0.000043
C92	C	1.363280	-0.295352	0.499957
C93	C	1.008781	-0.812674	-0.000041
C94	C	1.508781	-0.312674	0.499959
C95	C	1.009627	-0.762289	-0.000035
C96	C	1.509627	-0.262289	0.499965
C97	C	0.937298	-0.728436	-0.000043
C98	C	1.437298	-0.228436	0.499957
C99	C	1.019091	-0.197986	0.000006
C100	C	1.519091	0.302014	0.500006
C101	C	1.019929	-0.147599	0.000018
C102	C	1.519929	0.352401	0.500018
C103	C	0.874428	-0.130280	0.000012
C104	C	1.374428	0.369720	0.500012
C105	C	0.873589	-0.180663	0.000005
C106	C	1.373589	0.319337	0.500005
C107	C	0.945927	-0.214516	-0.000001
C108	C	1.445927	0.285484	0.499999
O109	O	0.810428	-0.253011	0.000016
O110	O	1.310428	0.246989	0.500016
O111	O	1.079627	-0.285098	-0.000020
O112	O	1.579627	0.214902	0.499980
C113	C	1.013939	-0.505324	-0.000034
C114	C	1.513939	-0.005324	0.499966
C115	C	0.940770	-0.521853	-0.000042
C116	C	1.440770	-0.021853	0.499958
C117	C	0.868445	-0.488000	-0.000042
C118	C	1.368445	0.012000	0.499958
C119	C	0.939923	-0.572238	-0.000042
C120	C	1.439923	-0.072238	0.499958
C121	C	1.012248	-0.606091	-0.000042
C122	C	1.512248	-0.106091	0.499958
C123	C	1.085419	-0.589560	-0.000041
C124	C	1.585419	-0.089560	0.499959
C125	C	1.086264	-0.539178	-0.000034
C126	C	1.586264	-0.039178	0.499966
C127	C	0.795274	-0.504531	-0.000043
C128	C	1.295274	-0.004531	0.499957
C129	C	0.794435	-0.554914	-0.000049
C130	C	1.294435	-0.054914	0.499951
C131	C	0.866759	-0.588767	-0.000049
C132	C	1.366759	-0.088767	0.499951
C133	C	1.087506	0.019166	-0.000009
C134	C	1.587506	0.519166	0.499991
C135	C	1.176059	0.016581	-0.000014
C136	C	1.676059	0.516581	0.499986
C137	C	0.934691	0.117173	-0.000030
C138	C	1.434691	0.617173	0.499970
C139	C	0.935604	0.170795	-0.000043
C140	C	1.435604	0.670795	0.499957
N141	N	0.931568	0.034940	0.205289
N142	N	1.431568	0.534940	0.705289
N143	N	0.951647	0.022106	-0.205306
N144	N	1.451647	0.522106	0.294694
C145	C	0.984011	0.001329	0.250691
C146	C	1.484011	0.501329	0.750691
C147	C	0.979583	0.004169	0.341498
C148	C	1.479583	0.504169	0.841498
C149	C	0.922717	0.040622	0.386901
C150	C	1.422717	0.540622	0.886901
C151	C	0.870269	0.074235	0.341493
C152	C	1.370269	0.574235	0.841493
C153	C	0.874693	0.071392	0.250688
C154	C	1.374693	0.571392	0.750688
C155	C	0.903623	0.052877	0.658480
C156	C	1.403623	0.552877	1.158480
C157	C	0.899204	0.055717	0.749292
C158	C	1.399204	0.555717	1.249292
C159	C	1.008518	-0.014350	0.749290
C160	C	1.508518	0.485650	1.249290
C161	C	1.012940	-0.017187	0.658483
C162	C	1.512940	0.482813	1.158483
C163	C	0.960489	0.016424	0.613083
C164	C	1.460489	0.516424	1.113083
N165	N	0.918192	0.043526	0.479721
N166	N	1.418192	0.543526	0.979721
N167	N	0.965011	0.013517	0.520265
N168	N	1.465011	0.513517	1.020265
H169	H	0.202014	-0.064261	0.000005
H170	H	0.702014	0.435739	0.500005
C171	C	0.817010	0.108364	0.200741
C172	C	1.317010	0.608364	0.700741
H173	H	0.827784	0.101448	0.140159
H174	H	1.327784	0.601448	0.640159
H175	H	0.824546	0.140763	0.215604
H176	H	1.324546	0.640763	0.715604
H177	H	0.763107	0.105683	0.215639
H178	H	1.263107	0.605683	0.715639
C179	C	0.836649	0.095816	0.799239
C180	C	1.336649	0.595816	1.299239
H181	H	0.841535	0.092697	0.859821
H182	H	1.341535	0.592697	1.359821
H183	H	0.784196	0.092206	0.784379
H184	H	1.284196	0.592206	1.284379
H185	H	0.845639	0.127284	0.784339
H186	H	1.345639	0.627284	1.284339
H187	H	0.717647	-0.039923	0.000014
H188	H	1.217647	0.460077	0.500014
H189	H	0.352965	-0.068674	0.000019
H190	H	0.852965	0.431326	0.500019
H191	H	1.077995	-0.225544	-0.000001
H192	H	1.577995	0.274456	0.499999
H193	H	1.067671	-0.840247	-0.000041
H194	H	1.567671	-0.340247	0.499959
C195	C	1.037278	-0.032799	0.391436
C196	C	1.537278	0.467201	0.891436
H197	H	1.071787	-0.054912	0.351390
H198	H	1.571787	0.445088	0.851390
H199	H	1.007113	-0.050689	0.426878
H200	H	1.507113	0.449311	0.926878
H201	H	1.068543	-0.015602	0.426841
H202	H	1.568543	0.484398	0.926841
H203	H	1.030320	-0.028353	0.213729
H204	H	1.530320	0.471647	0.713729
H205	H	0.566707	-0.035511	0.000002
H206	H	1.066707	0.464489	0.500002
H207	H	1.079520	-0.134145	0.000027
H208	H	1.579520	0.365855	0.500027
H209	H	0.803692	-0.808803	-0.000035
H210	H	1.303692	-0.308803	0.499965
C211	C	0.515488	0.138769	-0.000053
C212	C	1.015488	0.638769	0.499947
H213	H	0.546199	0.164160	-0.000069
H214	H	1.046199	0.664160	0.499931
H215	H	0.480150	0.143140	0.050252
H216	H	0.980150	0.643140	0.550252
H217	H	0.485077	0.139990	-0.050368
H218	H	0.985077	0.639990	0.449632
C219	C	0.150796	0.110017	-0.000053
C220	C	0.650796	0.610017	0.499947
H221	H	0.181503	0.135409	-0.000075
H222	H	0.681503	0.635409	0.499925
H223	H	0.115457	0.114389	0.050252
H224	H	0.615457	0.614389	0.550252
H225	H	0.120386	0.111232	-0.050369
H226	H	0.620386	0.611232	0.449631
C227	C	0.325515	0.104913	-0.000032
C228	C	0.825515	0.604913	0.499968
H229	H	0.282835	0.132448	-0.000027
H230	H	0.782835	0.632448	0.499973
H231	H	0.360017	0.104245	-0.050337
H232	H	0.860017	0.604245	0.449663
H233	H	0.355092	0.107381	0.050284
H234	H	0.855092	0.607381	0.550284
H235	H	1.145851	-0.525726	-0.000026
H236	H	1.645851	-0.025726	0.499974
C237	C	0.690210	0.133662	-0.000044
C238	C	1.190210	0.633662	0.499956
H239	H	0.647532	0.161198	-0.000044
H240	H	1.147532	0.661198	0.499956
H241	H	0.724710	0.132987	-0.050352
H242	H	1.224710	0.632987	0.449648
H243	H	0.719789	0.136133	0.050268
H244	H	1.219789	0.636133	0.550268
H245	H	0.815543	-0.102708	0.000014
H246	H	1.315543	0.397292	0.500014
C247	C	1.075488	-0.057288	0.608545
C248	C	1.575488	0.442712	1.108545
H249	H	1.106083	-0.076902	0.648591
H250	H	1.606083	0.423098	1.148591
H251	H	1.110206	-0.042317	0.573104
H252	H	1.610206	0.457683	1.073104
H253	H	1.048758	-0.077392	0.573141
H254	H	1.548758	0.422608	1.073141
C255	C	1.169294	-0.369857	-0.000017
C256	C	1.669294	0.130143	0.499983
H257	H	1.212241	-0.397240	-0.000028
H258	H	1.712241	0.102760	0.499972
H259	H	1.170201	-0.348994	0.050287
H260	H	1.670201	0.151006	0.550287
H261	H	1.175107	-0.352133	-0.050333
H262	H	1.675107	0.147867	0.449667
C263	C	1.164974	-0.626805	-0.000048
C264	C	1.664974	-0.126805	0.499952
H265	H	1.153983	-0.659178	-0.000061
H266	H	1.653983	-0.159178	0.499939
H267	H	1.192552	-0.620546	0.050257
H268	H	1.692552	-0.120546	0.550257
H269	H	1.197460	-0.623675	-0.050363
H270	H	1.697460	-0.123675	0.449637
H271	H	1.146853	-0.465973	-0.000021
H272	H	1.646853	0.034027	0.499979
H273	H	0.823964	0.103914	0.378466
H274	H	1.323964	0.603914	0.878466
C275	C	1.066202	-0.051324	0.799228
C276	C	1.566202	0.448676	1.299228
H277	H	1.100705	-0.073439	0.759181
H278	H	1.600705	0.426561	1.259181
H279	H	1.036028	-0.069209	0.834667
H280	H	1.536028	0.430791	1.334667
H281	H	1.097475	-0.034133	0.834635
H282	H	1.597475	0.465867	1.334635
C283	C	1.090119	-0.744112	-0.000033
C284	C	1.590119	-0.244112	0.499967
H285	H	1.133068	-0.771494	-0.000037
H286	H	1.633068	-0.271494	0.499963
H287	H	1.091018	-0.723248	0.050271
H288	H	1.591018	-0.223248	0.550271
H289	H	1.095938	-0.726389	-0.050349
H290	H	1.595938	-0.226389	0.449651
C291	C	0.784558	-0.707734	-0.000039
C292	C	1.284558	-0.207734	0.499961
H293	H	0.740865	-0.724800	-0.000030
H294	H	1.240865	-0.224800	0.499970
H295	H	0.784313	-0.689284	-0.050344
H296	H	1.284313	-0.189284	0.449656
H297	H	0.779403	-0.686153	0.050277
H298	H	1.279403	-0.186153	0.550277
C299	C	0.845936	0.089851	0.608551
C300	C	1.345936	0.589851	1.108551
H301	H	0.811443	0.111971	0.648599
H302	H	1.311443	0.611971	1.148599
H303	H	0.814665	0.072664	0.573143
H304	H	1.314665	0.572664	1.073143
H305	H	0.876114	0.107739	0.573113
H306	H	1.376114	0.607739	1.073113
H307	H	0.734842	-0.568365	-0.000049
H308	H	1.234842	-0.068365	0.499951
H309	H	0.737368	-0.417209	-0.000057
H310	H	1.237368	0.082791	0.499943
C311	C	0.718244	-0.316138	-0.000050
C312	C	1.218244	0.183862	0.499950
H313	H	0.674547	-0.333201	-0.000050
H314	H	1.174547	0.166799	0.499950
H315	H	0.718009	-0.297689	-0.050354
H316	H	1.218009	0.202311	0.449646
H317	H	0.713085	-0.294557	0.050266
H318	H	1.213085	0.205443	0.550266
H319	H	0.814002	-0.194120	0.000021
H320	H	1.314002	0.305880	0.500021
C321	C	0.715712	-0.467298	-0.000034
C322	C	1.215712	0.032702	0.499966
H323	H	0.672018	-0.484364	-0.000028
H324	H	1.172018	0.015636	0.499972
H325	H	0.715466	-0.448846	-0.050335
H326	H	1.215466	0.051154	0.449665
H327	H	0.710558	-0.445720	0.050286
H328	H	1.210558	0.054280	0.550286
