data_functionalizedCrystal
_audit_creation_method	'MofGen! by Chris Wilmer'
_symmetry_space_group_name_H-M	'P1'
_symmetry_Int_Tables_number	1
_symmetry_cell_setting	triclinic
loop_
_symmetry_equiv_pos_as_xyz
  x,y,z
_cell_length_a	19.288867
_cell_length_b	19.188930
_cell_length_c	17.766277
_cell_angle_alpha	89.988508
_cell_angle_beta	89.992126
_cell_angle_gamma	83.140925
loop_
_atom_site_label
_atom_site_type_symbol
_atom_site_fract_x
_atom_site_fract_y
_atom_site_fract_z
O1	O	0.921359	0.087106	-0.062576
O2	O	0.719099	0.098854	-0.062585
O3	O	0.826066	-0.008676	-0.062566
O4	O	0.814392	0.194636	-0.062595
O5	O	0.826047	-0.008682	0.062623
O6	O	0.719080	0.098849	0.062604
O7	O	0.921340	0.087100	0.062612
Cu8	Cu	0.820208	0.092974	0.074039
Cu9	Cu	0.820231	0.092980	-0.074011
O10	O	0.814373	0.194631	0.062593
C11	C	0.693213	0.098473	0.000009
C12	C	0.616110	0.097338	0.000006
C13	C	0.825678	-0.034690	0.000031
C14	C	0.824543	-0.112194	0.000037
C15	C	0.060554	0.089162	-0.068224
C16	C	0.133001	0.090225	-0.068227
C17	C	0.169220	0.090756	0.000013
C18	C	0.132987	0.090207	0.068261
C19	C	0.060542	0.089137	0.068262
C20	C	0.278543	0.133342	0.052287
C21	C	0.350986	0.134416	0.052283
C22	C	0.392666	0.094052	0.000013
C23	C	0.361892	0.052624	-0.052267
C24	C	0.289447	0.051554	-0.052266
C25	C	0.247775	0.091916	0.000019
C26	C	0.507447	0.095749	-0.068234
C27	C	0.579896	0.096807	-0.068235
C28	C	0.579879	0.096797	0.068255
C29	C	0.507432	0.095731	0.068254
C30	C	0.471220	0.095211	0.000007
C31	C	0.887308	-0.157122	0.000044
C32	C	0.886242	-0.229946	0.000031
C33	C	0.822408	-0.257838	0.000028
C34	C	0.759635	-0.212900	0.000018
C35	C	0.760703	-0.140078	0.000022
N36	N	0.773608	-0.365842	0.042630
N37	N	0.772597	-0.435020	0.042627
C38	C	0.819186	-0.477247	0.000013
N39	N	0.866834	-0.447683	-0.042590
N40	N	0.867846	-0.378498	-0.042583
C41	C	0.821243	-0.336801	0.000023
C42	C	0.880799	-0.601139	0.000005
C43	C	0.879730	-0.673964	-0.000012
C44	C	0.753122	-0.656917	-0.000018
C45	C	0.754192	-0.584094	-0.000009
C46	C	0.818033	-0.556210	0.000006
C47	C	0.947226	0.087481	0.000017
C48	C	1.024329	0.088617	0.000015
C49	C	0.814761	0.220644	-0.000005
C50	C	0.815896	0.298149	-0.000016
N51	N	0.820198	0.092969	0.178169
N52	N	0.820247	0.092980	-0.178142
C53	C	0.867578	0.045378	0.217564
C54	C	0.867582	0.045375	0.296366
C55	C	0.820213	0.092975	0.335770
C56	C	0.772824	0.140569	0.296365
C57	C	0.772816	0.140566	0.217564
C58	C	0.810918	0.156591	0.460598
C59	C	0.810931	0.156595	0.539397
C60	C	0.820231	0.092983	0.578816
C61	C	0.829534	0.029365	0.539427
C62	C	0.829527	0.029362	0.460626
C63	C	0.820215	0.092983	0.421215
C64	C	0.867618	0.045384	0.703657
C65	C	0.867617	0.045380	0.782461
C66	C	0.772862	0.140581	0.782458
C67	C	0.772860	0.140579	0.703656
C68	C	0.820241	0.092982	0.664260
H69	H	0.031074	0.088735	-0.123796
H70	H	0.930843	-0.710545	-0.000011
Cl71	Cl	0.178518	0.090873	0.154048
H72	H	0.939292	-0.134424	0.000053
Cl73	Cl	0.675283	-0.527609	-0.000013
Cl74	Cl	0.841232	-0.050610	0.588973
H75	H	0.937354	-0.266534	0.000033
H76	H	0.803333	0.208395	0.428510
Cl77	Cl	0.178550	0.090912	-0.154020
H78	H	0.031048	0.088696	0.123832
Cl79	Cl	0.679386	-0.247964	0.000008
H80	H	0.906157	0.006620	0.185491
H81	H	0.906166	0.006619	0.328448
Cl82	Cl	0.625437	0.097485	-0.154029
H83	H	0.709591	-0.103497	0.000018
H84	H	0.932782	-0.578435	0.000014
Cl85	Cl	0.841213	-0.050611	0.411111
Cl86	Cl	0.250762	-0.000528	-0.117983
H87	H	0.906198	0.006622	0.814537
H88	H	0.701147	-0.679626	-0.000024
H89	H	0.906197	0.006626	0.671580
Cl90	Cl	0.461920	0.095089	-0.154029
H91	H	0.734233	0.179322	0.185488
Cl92	Cl	0.713307	0.200416	0.831988
Cl93	Cl	0.713297	0.200414	0.654125
Cl94	Cl	0.713270	0.200407	0.345899
Cl95	Cl	0.414281	0.001880	-0.117987
Cl96	Cl	0.625406	0.097454	0.154044
Cl97	Cl	0.799241	0.236571	0.588907
Cl98	Cl	0.461889	0.095057	0.154045
H99	H	0.244613	0.166207	0.094861
Cl100	Cl	0.389665	0.186503	0.118000
