data_functionalizedCrystal
_audit_creation_method	'MofGen! by Chris Wilmer'
_symmetry_space_group_name_H-M	'P1'
_symmetry_Int_Tables_number	1
_symmetry_cell_setting	triclinic
loop_
_symmetry_equiv_pos_as_xyz
  x,y,z
_cell_length_a	14.519709
_cell_length_b	10.654541
_cell_length_c	9.730217
_cell_angle_alpha	90.000068
_cell_angle_beta	89.995799
_cell_angle_gamma	95.917963
loop_
_atom_site_label
_atom_site_type_symbol
_atom_site_fract_x
_atom_site_fract_y
_atom_site_fract_z
O1	O	0.129520	-1.666593	-0.114251
O2	O	0.141863	-1.300995	-0.114263
O3	O	0.001504	-1.493488	-0.114245
O4	O	0.269880	-1.474101	-0.114270
O5	O	0.001502	-1.493482	0.114335
O6	O	0.141862	-1.300990	0.114317
O7	O	0.129519	-1.666587	0.114329
Zn8	Zn	0.135690	-1.483787	0.150615
Zn9	Zn	0.135692	-1.483795	-0.150549
O10	O	0.269879	-1.474095	0.114310
C11	C	-0.032862	-1.492581	0.000046
C12	C	-0.135257	-1.489874	0.000046
C13	C	0.140957	-1.254203	0.000025
C14	C	0.138247	-1.114786	0.000021
C15	C	0.130425	-1.713380	0.000037
C16	C	0.133135	-1.852797	0.000033
C17	C	-0.510204	-1.479906	0.000010
C18	C	-0.405882	-1.482674	0.000021
C19	C	-0.322734	-1.484890	0.000030
C20	C	-0.218405	-1.487658	0.000037
C21	C	0.304244	-1.475002	0.000017
C22	C	0.406639	-1.477709	0.000007
N23	N	0.135689	-1.483791	0.356151
C24	C	0.306085	-1.085201	-0.000012
C25	C	0.388727	-1.004912	-0.000034
C26	C	0.386175	-0.873919	-0.000035
C27	C	0.300972	-0.823213	-0.000010
C28	C	0.218330	-0.903502	0.000012
C29	C	0.220891	-1.034496	0.000009
C30	C	0.050493	-0.933086	0.000055
C31	C	0.053043	-1.064080	0.000046
C32	C	-0.034710	-0.882380	0.000080
C33	C	-0.117354	-0.962669	0.000092
C34	C	-0.114798	-1.093670	0.000091
C35	C	-0.029599	-1.144369	0.000068
N36	N	0.135686	-1.483801	-0.356086
C37	C	0.011436	-1.654312	0.356159
C38	C	-0.050687	-1.739581	0.428102
C39	C	-0.050688	-1.739594	0.571982
C40	C	0.011440	-1.654326	0.643921
C41	C	0.073564	-1.569057	0.571978
C42	C	0.073559	-1.569056	0.428095
C43	C	0.197810	-1.398532	0.571971
C44	C	0.197816	-1.398523	0.428091
C45	C	0.259938	-1.313264	0.643910
C46	C	0.322067	-1.227999	0.571967
C47	C	0.322066	-1.227991	0.428078
C48	C	0.259940	-1.313254	0.356147
H49	H	0.308172	-1.191861	-0.000042
H50	H	-0.186720	-0.921373	0.000111
H51	H	-0.182096	-1.159035	0.000114
C52	C	0.011616	-1.654153	0.199946
C53	C	0.079332	-1.561250	0.152338
C54	C	0.079531	-1.561079	0.008443
H55	H	-0.047392	-1.636801	0.167229
H56	H	0.024842	-1.734413	0.167345
H57	H	0.066100	-1.481008	0.184925
H58	H	0.138350	-1.578581	0.185018
H59	H	0.092757	-1.641339	-0.024158
H60	H	0.020520	-1.543730	-0.024261
H61	H	0.125481	-1.498054	-0.023877
H62	H	-0.101277	-1.809023	0.630559
H63	H	0.011428	-1.654332	0.761076
H64	H	0.372643	-1.158575	0.630549
H65	H	0.372650	-1.158550	0.369509
H66	H	0.458098	-1.046212	-0.000051
C67	C	0.476000	-0.786949	-0.000132
C68	C	0.551164	-0.859384	-0.000185
C69	C	0.633924	-0.779312	-0.000293
H70	H	0.478626	-0.735201	0.079554
H71	H	0.478533	-0.735257	-0.079878
H72	H	0.548633	-0.911054	0.079554
H73	H	0.548568	-0.911129	-0.079864
H74	H	0.636456	-0.727619	-0.080040
H75	H	0.636540	-0.727568	0.079394
H76	H	0.684932	-0.828446	-0.000342
H77	H	0.259936	-1.313260	0.238993
H78	H	-0.101273	-1.809004	0.369517
H79	H	0.298901	-0.716550	0.000005
H80	H	-0.036782	-0.775717	0.000086
H81	H	0.259931	-1.313273	0.761065
H82	H	-0.027510	-1.251028	0.000051
