data_functionalizedCrystal
_audit_creation_method	'MofGen! by Chris Wilmer'
_symmetry_space_group_name_H-M	'P1'
_symmetry_Int_Tables_number	1
_symmetry_cell_setting	triclinic
loop_
_symmetry_equiv_pos_as_xyz
  x,y,z
_cell_length_a	18.050590
_cell_length_b	19.077432
_cell_length_c	19.076929
_cell_angle_alpha	89.937710
_cell_angle_beta	87.700738
_cell_angle_gamma	87.716786
loop_
_atom_site_label
_atom_site_type_symbol
_atom_site_fract_x
_atom_site_fract_y
_atom_site_fract_z
Zn1	Zn	1.131490	-0.295894	0.385775
Zn2	Zn	1.141368	-0.408689	0.263549
Zn3	Zn	1.012089	-0.291179	0.268314
Zn4	Zn	1.012440	-0.413343	0.381051
O5	O	1.074347	-0.352276	0.324672
O6	O	1.236726	-0.310882	0.369544
O7	O	1.128206	-0.389180	0.165849
O8	O	1.023647	-0.193474	0.287867
O9	O	1.243984	-0.393752	0.279746
O10	O	1.111370	-0.196938	0.374165
O11	O	1.033225	-0.302846	0.169350
O12	O	0.908209	-0.307359	0.283286
O13	O	1.024245	-0.401684	0.480010
O14	O	0.908467	-0.397112	0.366113
O15	O	1.111710	-0.315395	0.483481
O16	O	1.128547	-0.507637	0.275165
O17	O	1.033824	-0.511056	0.361493
C18	C	0.881391	-0.352229	0.324705
C19	C	0.798844	-0.352227	0.324734
C20	C	1.082315	-0.534843	0.317314
C21	C	1.085790	-0.612947	0.314190
C22	C	1.038075	-0.651445	0.357631
C23	C	1.041344	-0.724832	0.354693
C24	C	1.092333	-0.759720	0.308316
C25	C	1.140050	-0.721217	0.264870
C26	C	1.136777	-0.647831	0.267805
C27	C	1.107411	-0.979005	0.294718
C28	C	1.110682	-1.052396	0.291787
C29	C	1.011975	-1.056006	0.381610
C30	C	1.008709	-0.982619	0.384544
C31	C	1.056424	-0.944123	0.341095
N32	N	1.095677	-0.834733	0.305313
N33	N	1.053075	-0.869111	0.344095
C34	C	0.599566	-0.401165	0.369659
C35	C	0.546641	-0.337786	0.389524
C36	C	0.647717	-0.352265	0.324698
C37	C	0.553561	-0.415680	0.304831
C38	C	0.501735	-0.352307	0.324665
C39	C	0.595877	-0.288854	0.344598
C40	C	0.602804	-0.366789	0.259874
C41	C	0.549901	-0.303366	0.279717
C42	C	0.731813	-0.352241	0.324719
C43	C	0.417640	-0.352323	0.324644
C44	C	1.268056	-0.352324	0.324640
C45	C	1.350603	-0.352344	0.324627
C46	C	1.066915	-0.359584	0.507955
C47	C	1.063748	-0.362698	0.586059
C48	C	1.066367	-0.168997	0.332074
C49	C	1.062967	-0.090894	0.335229
C50	C	1.081790	-0.344946	0.142105
C51	C	1.085092	-0.341634	0.064009
C52	C	1.041041	-0.385091	1.025507
C53	C	1.044013	-0.382154	0.952120
C54	C	1.091042	-0.335764	0.917237
C55	C	1.135095	-0.292302	0.955745
C56	C	1.132118	-0.295236	1.029130
C57	C	1.104824	-0.322170	0.697952
C58	C	1.107800	-0.319242	0.624561
C59	C	1.016716	-0.409093	0.620942
C60	C	1.013747	-0.412025	0.694329
C61	C	1.057797	-0.368561	0.732830
N62	N	1.094083	-0.332763	0.842224
N63	N	1.054752	-0.371559	0.807842
H64	H	0.996558	-0.623044	0.395399
C65	C	0.528291	-0.488103	0.282143
C66	C	0.586298	-0.547424	0.264249
C67	C	0.561030	-0.619848	0.241567
C68	C	0.477754	-0.632950	0.236778
C69	C	0.419741	-0.573626	0.254672
C70	C	0.445009	-0.501203	0.277354
H71	H	0.647949	-0.537727	0.267794
H72	H	0.603975	-0.663763	0.228321
H73	H	0.459048	-0.686562	0.219987
H74	H	0.358090	-0.583324	0.251127
H75	H	0.402064	-0.457288	0.290600
H76	H	1.146096	-0.281461	0.596162
H77	H	1.173383	-0.254527	0.927337
H78	H	1.152208	-1.080800	0.254022
C79	C	1.159894	-0.936661	0.246928
C80	C	1.214682	-0.887364	0.279426
C81	C	1.267165	-0.845014	0.231633
C82	C	1.264860	-0.851959	0.151342
C83	C	1.210070	-0.901257	0.118840
C84	C	1.157587	-0.943608	0.166633
H85	H	1.216390	-0.882221	0.338866
H86	H	1.307724	-0.808520	0.255693
H87	H	1.303711	-0.820608	0.115963
H88	H	1.208361	-0.906401	0.059400
H89	H	1.117027	-0.980102	0.142573
H90	H	0.528235	-0.261985	0.241683
C91	C	1.153283	-0.274362	0.740294
C92	C	1.238369	-0.279718	0.729956
C93	C	1.286831	-0.231905	0.772300
C94	C	1.250207	-0.178737	0.824982
C95	C	1.165117	-0.173379	0.835322
C96	C	1.116655	-0.221191	0.792978
H97	H	1.265484	-0.319078	0.690956
H98	H	1.349820	-0.235872	0.764645
H99	H	1.286081	-0.143343	0.856327
H100	H	1.138001	-0.134018	0.874322
H101	H	1.053665	-0.217224	0.800633
H102	H	0.975452	-0.449802	0.722725
H103	H	1.167987	-0.259846	1.060478
C104	C	1.189265	-0.605480	0.220021
C105	C	1.186965	-0.612421	0.139730
C106	C	1.239452	-0.570070	0.091941
C107	C	1.294240	-0.520778	0.124445
C108	C	1.296544	-0.513834	0.204740
C109	C	1.244056	-0.556185	0.252528
H110	H	1.146405	-0.648912	0.115665
H111	H	1.237747	-0.575210	0.032501
H112	H	1.333095	-0.489427	0.089069
H113	H	1.337103	-0.477343	0.228805
H114	H	1.245761	-0.551045	0.311969
C115	C	0.636011	-0.383393	0.185856
C116	C	0.584494	-0.397630	0.125490
C117	C	0.617703	-0.414243	0.051472
C118	C	0.702430	-0.416621	0.037818
C119	C	0.753952	-0.402384	0.098185
C120	C	0.720743	-0.385770	0.172204
H121	H	0.521770	-0.395870	0.135596
H122	H	0.579563	-0.424782	0.006784
H123	H	0.727013	-0.428919	-0.016975
H124	H	0.816676	-0.404143	0.088080
H125	H	0.758884	-0.375231	0.216892
C126	C	0.988856	-0.767175	0.402483
C127	C	0.904223	-0.756907	0.397105
C128	C	0.851731	-0.799248	0.444897
C129	C	0.883871	-0.851857	0.498069
C130	C	0.968509	-0.862127	0.503450
C131	C	1.021001	-0.819786	0.455657
H132	H	0.880427	-0.717961	0.357742
H133	H	0.789076	-0.791645	0.440914
H134	H	0.845013	-0.883200	0.533448
H135	H	0.992305	-0.901074	0.542812
H136	H	1.083656	-0.827389	0.459640
C137	C	0.629022	-0.456939	0.421082
C138	C	0.605959	-0.452236	0.499584
C139	C	0.635416	-0.508006	0.551008
C140	C	0.687936	-0.568479	0.523929
C141	C	0.711001	-0.573185	0.445423
C142	C	0.681544	-0.517415	0.393999
H143	H	0.567079	-0.407468	0.519632
H144	H	0.618342	-0.504522	0.609123
H145	H	0.709742	-0.609763	0.561996
H146	H	0.749882	-0.617953	0.425375
H147	H	0.698619	-0.520899	0.335884
C148	C	0.513461	-0.321206	0.463561
C149	C	0.464183	-0.374402	0.501797
C150	C	0.431007	-0.357827	0.575836
C151	C	0.447109	-0.288057	0.611640
C152	C	0.496389	-0.234856	0.573404
C153	C	0.529565	-0.251431	0.499365
H154	H	0.452261	-0.426054	0.475293
H155	H	0.394527	-0.397210	0.604140
H156	H	0.422550	-0.275787	0.666448
H157	H	0.508311	-0.183204	0.599908
H158	H	0.566045	-0.212048	0.471061
H159	H	1.002748	-0.422870	1.053903
H160	H	0.967190	-0.954215	0.422308
C161	C	0.995545	-0.429960	0.909781
C162	C	0.910462	-0.424600	0.920141
C163	C	0.861984	-0.472408	0.877810
C164	C	0.898590	-0.525577	0.825118
C165	C	0.983678	-0.530939	0.814755
C166	C	1.032155	-0.483131	0.857087
H167	H	0.883360	-0.385240	0.959149
H168	H	0.798996	-0.468438	0.885481
H169	H	0.862704	-0.560967	0.793781
H170	H	1.010780	-0.570300	0.775747
H171	H	1.095143	-0.487101	0.849415
H172	H	0.980852	-0.444478	0.589586
C173	C	0.959488	-1.098353	0.429397
C174	C	0.963082	-1.179075	0.426172
C175	C	0.910590	-1.221421	0.473961
C176	C	0.854504	-1.183046	0.524974
C177	C	0.850908	-1.102320	0.528200
C178	C	0.903399	-1.059974	0.480412
H179	H	1.004602	-1.207486	0.388408
H180	H	0.913253	-1.281180	0.471572
H181	H	0.815646	-1.214394	0.560349
H182	H	0.809387	-1.073909	0.565965
H183	H	0.900737	-1.000215	0.482801
C184	C	0.621008	-0.216408	0.367369
C185	C	0.599947	-0.150648	0.324517
C186	C	0.625078	-0.078205	0.347289
C187	C	0.671271	-0.071522	0.412914
C188	C	0.692335	-0.137284	0.455771
C189	C	0.667204	-0.209727	0.432998
H190	H	0.565749	-0.155594	0.275933
H191	H	0.609484	-0.029524	0.315563
H192	H	0.689874	-0.017895	0.429772
H193	H	0.726532	-0.132338	0.504354
H194	H	0.682798	-0.258409	0.464724
H195	H	1.181563	-0.749628	0.227106
