data_functionalizedCrystal
_audit_creation_method	'MofGen! by Chris Wilmer'
_symmetry_space_group_name_H-M	'P1'
_symmetry_Int_Tables_number	1
_symmetry_cell_setting	triclinic
loop_
_symmetry_equiv_pos_as_xyz
  x,y,z
_cell_length_a	14.044220
_cell_length_b	10.723024
_cell_length_c	9.198806
_cell_angle_alpha	89.997988
_cell_angle_beta	90.000900
_cell_angle_gamma	88.828374
loop_
_atom_site_label
_atom_site_type_symbol
_atom_site_fract_x
_atom_site_fract_y
_atom_site_fract_z
O1	O	1.259664	0.301050	-0.120731
O2	O	1.759664	0.801050	0.379269
O3	O	0.983624	0.290186	-0.120768
O4	O	1.483624	0.790186	0.379232
O5	O	1.128011	0.114679	-0.120743
O6	O	1.628011	0.614679	0.379257
O7	O	1.115277	0.476557	-0.120756
O8	O	1.615277	0.976557	0.379244
O9	O	1.128000	0.114677	0.121042
O10	O	1.628000	0.614677	0.621042
O11	O	0.983612	0.290184	0.121017
O12	O	1.483612	0.790184	0.621017
O13	O	1.259652	0.301048	0.121054
O14	O	1.759652	0.801048	0.621054
Cu15	Cu	1.121631	0.295616	0.143112
Cu16	Cu	1.621631	0.795616	0.643112
Cu17	Cu	1.121645	0.295618	-0.142826
Cu18	Cu	1.621645	0.795618	0.357174
O19	O	1.115265	0.476555	0.121029
O20	O	1.615265	0.976555	0.621029
C21	C	1.127079	0.068086	0.000147
C22	C	1.627079	0.568086	0.500147
C23	C	1.124306	-0.070746	0.000142
C24	C	1.624306	0.429254	0.500142
C25	C	0.948273	0.285430	0.000120
C26	C	1.448273	0.785430	0.500120
C27	C	0.842955	0.271245	0.000106
C28	C	1.342955	0.771245	0.500106
C29	C	1.205097	-0.137646	0.000151
C30	C	1.705097	0.362354	0.500151
C31	C	1.202234	-0.281136	0.000145
C32	C	1.702234	0.218864	0.500145
C33	C	0.650125	0.245313	0.000135
C34	C	1.150125	0.745313	0.500135
C35	C	0.593146	0.345915	0.000138
C36	C	1.093146	0.845915	0.500138
C37	C	0.485848	0.331486	0.000155
C38	C	0.985848	0.831486	0.500155
C39	C	0.757432	0.259740	0.000119
C40	C	1.257432	0.759740	0.500119
C41	C	1.295003	0.305804	0.000163
C42	C	1.795003	0.805804	0.500163
C43	C	1.400321	0.319989	0.000168
C44	C	1.900321	0.819989	0.500168
C45	C	1.116197	0.523149	0.000135
C46	C	1.616197	1.023149	0.500135
C47	C	1.118970	0.661980	0.000131
C48	C	1.618970	1.161980	0.500131
N49	N	1.121629	0.295615	0.344226
N50	N	1.621629	0.795615	0.844226
N51	N	1.121655	0.295610	-0.343940
N52	N	1.621655	0.795610	0.156060
C53	C	1.182253	0.221572	0.416434
C54	C	1.682253	0.721572	0.916434
C55	C	1.182267	0.221570	0.583846
C56	C	1.682267	0.721570	1.083846
H57	H	1.276386	-0.088691	0.000169
H58	H	1.776386	0.411309	0.500169
H59	H	1.069733	0.358998	0.406346
H60	H	1.569733	0.858998	0.906346
O61	O	0.612351	0.129549	0.000195
O62	O	1.112351	0.629549	0.500195
C63	C	0.686456	0.038837	0.000140
C64	C	1.186456	0.538837	0.500140
H65	H	0.753956	0.081163	0.045917
H66	H	1.253956	0.581163	0.545917
H67	H	0.665153	-0.043657	0.070326
H68	H	1.165153	0.456343	0.570326
H69	H	0.700183	0.005650	-0.115862
H70	H	1.200183	0.505650	0.384138
O71	O	0.631233	0.461505	0.000024
O72	O	1.131233	0.961505	0.500024
C73	C	0.731439	0.450371	0.000030
C74	C	1.231439	0.950371	0.500030
H75	H	0.753916	0.355449	-0.045706
H76	H	1.253916	0.855449	0.454294
H77	H	0.762381	0.527195	-0.070216
H78	H	1.262381	1.027195	0.429784
H79	H	0.759050	0.459467	0.116012
H80	H	1.259050	0.959467	0.616012
O81	O	1.284661	-0.349925	0.000088
O82	O	1.784661	0.150075	0.500088
C83	C	1.263452	-0.477878	0.000119
C84	C	1.763452	0.022122	0.500119
H85	H	1.188901	-0.491042	-0.045663
H86	H	1.688901	0.008958	0.454337
H87	H	1.317541	-0.530901	-0.070074
H88	H	1.817541	-0.030901	0.429926
H89	H	1.266765	-0.515155	0.116115
H90	H	1.766765	-0.015155	0.616115
H91	H	1.049803	-0.280515	0.000134
H92	H	1.549803	0.219485	0.500134
H93	H	1.234142	0.158178	0.354317
H94	H	1.734142	0.658178	0.854317
O95	O	1.039312	-0.129277	-0.000067
O96	O	1.539312	0.370723	0.499933
C97	C	1.032711	-0.204395	-0.125314
C98	C	1.532711	0.295605	0.374686
H99	H	1.107288	-0.228380	-0.167054
H100	H	1.607288	0.271620	0.332946
H101	H	0.994436	-0.293966	-0.097163
H102	H	1.494436	0.206034	0.402837
H103	H	0.991072	-0.151587	-0.213002
H104	H	1.491072	0.348413	0.286998
H105	H	1.069753	0.359009	0.593974
H106	H	1.569753	0.859009	1.093974
H107	H	1.234174	0.158184	0.645941
H108	H	1.734174	0.658184	1.145941
