data_functionalizedCrystal
_audit_creation_method	'MofGen! by Chris Wilmer'
_symmetry_space_group_name_H-M	'P1'
_symmetry_Int_Tables_number	1
_symmetry_cell_setting	triclinic
loop_
_symmetry_equiv_pos_as_xyz
  x,y,z
_cell_length_a	12.645331
_cell_length_b	12.645330
_cell_length_c	13.033327
_cell_angle_alpha	82.823818
_cell_angle_beta	97.187803
_cell_angle_gamma	90.011625
loop_
_atom_site_label
_atom_site_type_symbol
_atom_site_fract_x
_atom_site_fract_y
_atom_site_fract_z
Zn1	Zn	1.696718	-0.498407	0.590893
Zn2	Zn	2.196718	0.001593	1.090893
Zn3	Zn	1.674155	-0.653117	0.416151
Zn4	Zn	2.174155	-0.153117	0.916151
Zn5	Zn	1.496974	-0.475866	0.416162
Zn6	Zn	1.996974	0.024134	0.916162
Zn7	Zn	1.519423	-0.675619	0.590842
Zn8	Zn	2.019423	-0.175619	1.090842
O9	O	1.596817	-0.575752	0.503512
O10	O	2.096817	-0.075752	1.003512
O11	O	1.842074	-0.518945	0.567729
O12	O	2.342074	-0.018945	1.067729
O13	O	1.631814	-0.610754	0.269918
O14	O	2.131814	-0.110754	0.769918
O15	O	1.523518	-0.330512	0.439366
O16	O	2.023518	0.169488	0.939366
O17	O	1.825497	-0.632610	0.439347
O18	O	2.325497	-0.132610	0.939347
O19	O	1.670269	-0.347073	0.567740
O20	O	2.170269	0.152927	1.067740
O21	O	1.501639	-0.480529	0.269926
O22	O	2.001639	0.019471	0.769926
O23	O	1.351602	-0.502348	0.439317
O24	O	1.851602	-0.002348	0.939317
O25	O	1.561780	-0.670962	0.737083
O26	O	2.061780	-0.170962	1.237083
O27	O	1.368096	-0.649105	0.567654
O28	O	1.868096	-0.149105	1.067654
O29	O	1.692037	-0.540765	0.737120
O30	O	2.192037	-0.040765	1.237120
O31	O	1.653582	-0.804446	0.439299
O32	O	2.153582	-0.304446	0.939299
O33	O	1.539901	-0.820978	0.567643
O34	O	2.039901	-0.320978	1.067643
C35	C	1.321384	-0.575723	0.503482
C36	C	1.821384	-0.075723	1.003482
C37	C	1.203555	-0.575739	0.503494
C38	C	1.703555	-0.075739	1.003494
C39	C	1.025637	-0.483095	0.423202
C40	C	1.525637	0.016905	0.923202
C41	C	1.148151	-0.483262	0.422848
C42	C	1.648151	0.016738	0.922848
C43	C	1.155178	-0.683526	0.473409
C44	C	1.655178	-0.183526	0.973409
C45	C	1.032509	-0.683006	0.472861
C46	C	1.532509	-0.183006	0.972861
C47	C	1.050630	-0.561700	0.614179
C48	C	1.550630	-0.061700	1.114179
C49	C	1.173157	-0.559125	0.613565
C50	C	1.673157	-0.059125	1.113565
C51	C	1.596761	-0.851179	0.503487
C52	C	2.096761	-0.351179	1.003487
C53	C	1.596839	-0.969012	0.503512
C54	C	2.096839	-0.469012	1.003512
C55	C	1.668203	-1.126110	0.422606
C56	C	2.168203	-0.626110	0.922606
C57	C	1.668494	-1.003575	0.422804
C58	C	2.168494	-0.503575	0.922804
C59	C	1.641297	-1.027627	0.613665
C60	C	2.141297	-0.527627	1.113665
C61	C	1.641891	-1.150170	0.613235
C62	C	2.141891	-0.650170	1.113235
C63	C	1.481124	-1.132699	0.475350
C64	C	1.981124	-0.632699	0.975350
C65	C	1.481343	-1.009775	0.472879
C66	C	1.981343	-0.509775	0.972879
C67	C	1.873327	-0.575782	0.503543
C68	C	2.373327	-0.075782	1.003543
C69	C	1.991158	-0.575795	0.503556
C70	C	2.491158	-0.075795	1.003556
C71	C	1.631930	-0.610887	0.776079
C72	C	2.131930	-0.110887	1.276079
C73	C	1.646892	-0.625860	0.892231
C74	C	2.146892	-0.125860	1.392231
C75	C	1.596906	-0.299253	0.503560
C76	C	2.096906	0.200747	1.003560
C77	C	1.596943	-0.181426	0.503580
C78	C	2.096943	0.318574	1.003580
C79	C	1.589155	-0.568102	0.944019
C80	C	2.089155	-0.068102	1.444019
C81	C	1.604619	-0.583576	1.064068
C82	C	2.104619	-0.083576	1.564068
C83	C	1.561835	-0.540779	1.232005
C84	C	2.061835	-0.040779	1.732005
C85	C	1.546874	-0.525810	1.115853
C86	C	2.046874	-0.025810	1.615853
H87	H	1.180668	-0.402888	0.441705
H88	H	1.680668	0.097112	0.941705
H89	H	0.998563	-0.402446	0.441857
H90	H	1.498563	0.097554	0.941857
H91	H	1.023243	-0.485223	0.641539
H92	H	1.523243	0.014777	1.141539
H93	H	1.707769	-0.686765	0.936769
H94	H	2.207769	-0.186765	1.436769
H95	H	0.984316	-0.491121	0.341708
H96	H	1.484316	0.008879	0.841708
F97	F	0.981480	-0.700813	0.367157
F98	F	1.481480	-0.200813	0.867157
F99	F	1.172654	-0.493938	0.315698
F100	F	1.672654	0.006062	0.815698
H101	H	1.448077	-0.970304	0.391816
H102	H	1.948077	-0.470304	0.891816
H103	H	1.010065	-0.753648	0.528835
H104	H	1.510065	-0.253648	1.028835
F105	F	1.202824	-0.775411	0.547511
F106	F	1.702824	-0.275411	1.047511
F107	F	1.181804	-0.702025	0.368838
F108	F	1.681804	-0.202025	0.868838
F109	F	1.577991	-1.199484	0.694774
F110	F	2.077991	-0.699484	1.194774
F111	F	1.215014	-0.455550	0.643227
F112	F	1.715014	0.044450	1.143227
F113	F	1.509592	-0.488484	0.885810
F114	F	2.009592	0.011516	1.385810
H115	H	1.753991	-0.976582	0.441476
H116	H	2.253991	-0.476582	0.941476
F117	F	1.431848	-1.159900	0.372190
F118	F	1.931848	-0.659900	0.872190
H119	H	1.211926	-0.622857	0.676636
H120	H	1.711926	-0.122857	1.176636
F121	F	1.411497	-1.180573	0.552433
F122	F	1.911497	-0.680573	1.052433
F123	F	1.022818	-0.650177	0.692436
F124	F	1.522818	-0.150177	1.192436
H125	H	1.665500	-0.644485	1.108602
H126	H	2.165500	-0.144485	1.608602
F127	F	1.629978	-1.150908	0.315534
F128	F	2.129978	-0.650908	0.815534
F129	F	1.629939	-0.950563	0.316059
F130	F	2.129939	-0.450563	0.816059
H131	H	1.485988	-0.464904	1.071320
H132	H	1.985988	0.035096	1.571320
H133	H	1.753226	-1.159227	0.441069
H134	H	2.253226	-0.659227	0.941069
H135	H	1.726971	-1.181773	0.637148
H136	H	2.226971	-0.681773	1.137148
H137	H	1.591588	-1.006484	0.675613
H138	H	2.091588	-0.506484	1.175613
F139	F	1.751360	-0.991496	0.645444
F140	F	2.251360	-0.491496	1.145444
H141	H	1.424237	-0.986221	0.527532
H142	H	1.924237	-0.486221	1.027532
