data_functionalizedCrystal
_audit_creation_method	'MofGen! by Chris Wilmer'
_symmetry_space_group_name_H-M	'P1'
_symmetry_Int_Tables_number	1
_symmetry_cell_setting	triclinic
loop_
_symmetry_equiv_pos_as_xyz
  x,y,z
_cell_length_a	12.759401
_cell_length_b	12.594516
_cell_length_c	12.759393
_cell_angle_alpha	89.971602
_cell_angle_beta	90.020938
_cell_angle_gamma	89.971744
loop_
_atom_site_label
_atom_site_type_symbol
_atom_site_fract_x
_atom_site_fract_y
_atom_site_fract_z
Zn1	Zn	1.606179	0.423647	0.594035
Zn2	Zn	1.606033	0.601663	0.418362
Zn3	Zn	1.430477	0.423704	0.418371
Zn4	Zn	1.430432	0.601589	0.593999
O5	O	1.518280	0.512651	0.506192
O6	O	1.753180	0.447269	0.570744
O7	O	1.582703	0.578111	0.271342
O8	O	1.453864	0.274751	0.441692
O9	O	1.753073	0.578057	0.441677
O10	O	1.582951	0.274709	0.570752
O11	O	1.453723	0.447365	0.271348
O12	O	1.283450	0.447293	0.441657
O13	O	1.453788	0.577930	0.741025
O14	O	1.283417	0.577985	0.570690
O15	O	1.582908	0.447197	0.741052
O16	O	1.582659	0.750599	0.441642
O17	O	1.453646	0.750545	0.570682
C18	C	1.245313	0.512638	0.506171
C19	C	1.128536	0.512658	0.506187
C20	C	1.073685	0.580813	0.573269
C21	C	0.963960	0.580817	0.573290
C22	C	0.963949	0.444509	0.439138
C23	C	1.073672	0.444500	0.439123
C24	C	1.518160	0.789192	0.506180
C25	C	1.518205	0.907497	0.506210
C26	C	1.448016	0.976759	0.576345
C27	C	1.422402	1.047629	0.480477
C28	C	1.543877	1.047427	0.602093
C29	C	1.492541	0.976808	0.410291
C30	C	1.614060	0.976601	0.531971
C31	C	1.588483	1.047438	0.436038
C32	C	1.792313	0.512665	0.506213
C33	C	1.909090	0.512671	0.506223
C34	C	1.518359	0.512549	0.780225
C35	C	1.518392	0.512505	0.897002
C36	C	1.518383	1.235030	0.506225
C37	C	1.518308	1.116725	0.506236
C38	C	1.518262	0.512676	0.233224
C39	C	1.518432	0.512420	0.116448
C40	C	1.585630	0.444422	0.951879
C41	C	1.585648	0.444376	1.061604
C42	C	1.451187	0.580506	1.061563
C43	C	1.451165	0.580546	0.951841
H44	H	1.118333	0.388994	0.384496
O45	O	1.127028	0.647123	0.638270
C46	C	1.190458	0.715778	0.578338
H47	H	1.157350	0.722260	0.495584
H48	H	1.191686	0.797734	0.616204
H49	H	1.273626	0.682860	0.574764
O50	O	1.385736	0.646536	0.898480
C51	C	1.317919	0.585954	0.834990
H52	H	1.311482	0.502113	0.868070
H53	H	1.237043	0.624444	0.833723
H54	H	1.350390	0.582316	0.751841
H55	H	1.470776	0.945916	0.329193
H56	H	1.640368	0.389016	0.907233
O57	O	1.569615	1.084310	0.698892
C58	C	1.495334	1.048320	0.772561
H59	H	1.455293	0.973852	0.741386
H60	H	1.536475	1.029153	0.849612
H61	H	1.434172	1.112850	0.786256
H62	H	1.647884	1.078276	0.376669
H63	H	0.919265	0.389018	0.384535
O64	O	0.910840	0.647125	0.638485
C65	C	0.982798	0.707255	0.697690
H66	H	1.060987	0.710882	0.654636
H67	H	0.951067	0.791133	0.708760
H68	H	0.994528	0.668377	0.777547
H69	H	1.396455	0.635905	1.106226
H70	H	1.341388	1.078851	0.458710
O71	O	1.376960	0.939776	0.646882
C72	C	1.276059	0.975996	0.619348
H73	H	1.274133	0.995908	0.532203
H74	H	1.216083	0.911307	0.636810
H75	H	1.256370	1.050059	0.666766
H76	H	1.695055	0.945381	0.553785
O77	O	1.651064	0.378208	1.114749
C78	C	1.710371	0.318146	1.042814
H79	H	1.713968	0.361775	0.964596
H80	H	1.793162	0.306788	1.074531
H81	H	1.671944	0.237309	1.031145
