data_functionalizedCrystal
_audit_creation_method	'MofGen! by Chris Wilmer'
_symmetry_space_group_name_H-M	'P1'
_symmetry_Int_Tables_number	1
_symmetry_cell_setting	triclinic
loop_
_symmetry_equiv_pos_as_xyz
  x,y,z
_cell_length_a	19.805407
_cell_length_b	25.639240
_cell_length_c	19.805399
_cell_angle_alpha	90.035908
_cell_angle_beta	90.017803
_cell_angle_gamma	90.030074
loop_
_atom_site_label
_atom_site_type_symbol
_atom_site_fract_x
_atom_site_fract_y
_atom_site_fract_z
Zn1	Zn	1.034706	-0.208200	0.382648
Zn2	Zn	1.534706	0.291800	0.882648
Zn3	Zn	1.034608	-0.295634	0.269444
Zn4	Zn	1.534608	0.204366	0.769444
Zn5	Zn	0.921520	-0.208211	0.269477
Zn6	Zn	1.421520	0.291789	0.769477
Zn7	Zn	0.921471	-0.295602	0.382594
Zn8	Zn	1.421471	0.204398	0.882594
O9	O	0.978076	-0.251912	0.326041
O10	O	1.478076	0.248088	0.826041
O11	O	1.129409	-0.219808	0.367641
O12	O	1.629409	0.280192	0.867641
O13	O	1.019586	-0.284055	0.174732
O14	O	1.519586	0.215945	0.674732
O15	O	0.936596	-0.135044	0.284526
O16	O	1.436596	0.364956	0.784526
O17	O	1.129338	-0.284045	0.284470
O18	O	1.629338	0.215955	0.784470
O19	O	1.019753	-0.135037	0.367672
O20	O	1.519753	0.364963	0.867672
O21	O	0.936501	-0.219825	0.174756
O22	O	1.436501	0.280175	0.674756
O23	O	0.826797	-0.219794	0.284473
O24	O	1.326797	0.280206	0.784473
O25	O	0.936513	-0.283991	0.477318
O26	O	1.436513	0.216009	0.977318
O27	O	0.826761	-0.284001	0.367580
O28	O	1.326761	0.215999	0.867580
O29	O	1.019705	-0.219777	0.477358
O30	O	1.519705	0.280223	0.977358
O31	O	1.019539	-0.368795	0.284417
O32	O	1.519539	0.131205	0.784417
O33	O	0.936418	-0.368772	0.367548
O34	O	1.436418	0.131228	0.867548
C35	C	0.802220	-0.251896	0.326024
C36	C	1.302220	0.248104	0.826024
C37	C	0.726988	-0.251901	0.326033
C38	C	1.226988	0.248099	0.826033
C39	C	0.691682	-0.218512	0.369406
C40	C	1.191682	0.281488	0.869406
C41	C	0.620994	-0.218515	0.369409
C42	C	1.120994	0.281485	0.869409
C43	C	0.585613	-0.251910	0.326041
C44	C	1.085613	0.248090	0.826041
C45	C	0.620924	-0.285300	0.282664
C46	C	1.120924	0.214700	0.782664
C47	C	0.691611	-0.285295	0.282658
C48	C	1.191611	0.214705	0.782658
C49	C	0.335851	-0.285324	0.282684
C50	C	0.835851	0.214676	0.782684
C51	C	0.265159	-0.285328	0.282695
C52	C	0.765159	0.214672	0.782695
C53	C	0.265233	-0.218544	0.369435
C54	C	0.765233	0.281456	0.869435
C55	C	0.335921	-0.218538	0.369430
C56	C	0.835921	0.281462	0.869430
C57	C	0.371225	-0.251927	0.326050
C58	C	0.871225	0.248073	0.826050
C59	C	0.447874	-0.251923	0.326046
C60	C	0.947874	0.248077	0.826046
C61	C	0.508966	-0.251917	0.326048
C62	C	1.008966	0.248083	0.826048
C63	C	0.977981	-0.387755	0.325988
C64	C	1.477981	0.112245	0.825988
C65	C	0.978002	-0.445869	0.325988
C66	C	1.478002	0.054131	0.825988
C67	C	1.021398	-0.806189	0.369413
C68	C	1.521398	-0.306189	0.869413
C69	C	1.021418	-0.860793	0.369427
C70	C	1.521418	-0.360793	0.869427
O71	O	1.058201	-0.888994	0.406295
O72	O	1.558201	-0.388994	0.906295
N73	N	0.978170	-0.888151	0.326106
N74	N	1.478170	-0.388151	0.826106
C75	C	0.934895	-0.860901	0.282773
C76	C	1.434895	-0.360901	0.782773
O77	O	0.898112	-0.889185	0.245927
O78	O	1.398112	-0.389185	0.745927
C79	C	0.934873	-0.806298	0.282764
C80	C	1.434873	-0.306298	0.782764
C81	C	0.978128	-0.778943	0.326083
C82	C	1.478128	-0.278943	0.826083
C83	C	1.064649	-0.778834	0.412729
C84	C	1.564649	-0.278834	0.912729
C85	C	1.064629	-0.724234	0.412715
C86	C	1.564629	-0.224234	0.912715
C87	C	1.021359	-0.696988	0.369384
C88	C	1.521359	-0.196988	0.869384
C89	C	0.978108	-0.724343	0.326068
C90	C	1.478108	-0.224343	0.826068
C91	C	0.891595	-0.779049	0.239435
C92	C	1.391595	-0.279049	0.739435
C93	C	0.891575	-0.724442	0.239429
C94	C	1.391575	-0.224442	0.739429
C95	C	0.934830	-0.697088	0.282748
C96	C	1.434830	-0.197088	0.782748
C97	C	0.934819	-0.642497	0.282722
C98	C	1.434819	-0.142497	0.782722
N99	N	0.978066	-0.615139	0.326043
N100	N	1.478066	-0.115139	0.826043
C101	C	1.021336	-0.642385	0.369374
C102	C	1.521336	-0.142385	0.869374
C103	C	0.934946	-0.975572	0.282798
C104	C	1.434946	-0.475572	0.782798
C105	C	0.934972	-1.030174	0.282804
C106	C	1.434972	-0.530174	0.782804
C107	C	1.021493	-1.030063	0.369459
C108	C	1.521493	-0.530063	0.869459
C109	C	1.021470	-0.975459	0.369449
C110	C	1.521470	-0.475459	0.869449
C111	C	0.978193	-0.948214	0.326119
C112	C	1.478193	-0.448214	0.826119
C113	C	1.021293	-0.527720	0.369339
C114	C	1.521293	-0.027720	0.869339
C115	C	1.021272	-0.473114	0.369318
C116	C	1.521272	0.026886	0.869318
C117	C	0.934748	-0.473231	0.282666
C118	C	1.434748	0.026769	0.782666
C119	C	0.934772	-0.527831	0.282684
C120	C	1.434772	-0.027831	0.782684
C121	C	0.978046	-0.555075	0.326026
C122	C	1.478046	-0.055075	0.826026
O123	O	0.898053	-0.614261	0.245875
O124	O	1.398053	-0.114261	0.745875
O125	O	1.058108	-0.614095	0.406220
O126	O	1.558108	-0.114095	0.906220
C127	C	1.154619	-0.251929	0.326058
C128	C	1.654619	0.248071	0.826058
C129	C	1.229851	-0.251936	0.326065
C130	C	1.729851	0.248064	0.826065
C131	C	0.978114	-0.251879	0.502584
C132	C	1.478114	0.248121	1.002584
C133	C	0.978131	-0.251865	0.577816
C134	C	1.478131	0.248135	1.077816
C135	C	0.978191	-0.115539	0.326109
C136	C	1.478191	0.384461	0.826109
C137	C	0.978240	-0.057425	0.326138
C138	C	1.478240	0.442575	0.826138
C139	C	0.978078	-0.251907	0.150185
C140	C	1.478078	0.248093	0.650185
C141	C	0.978193	-0.251774	0.074953
C142	C	1.478193	0.248226	0.574953
C143	C	1.021450	-0.218427	0.613182
C144	C	1.521450	0.281573	1.113182
C145	C	1.021457	-0.218412	0.683870
C146	C	1.521457	0.281588	1.183870
C147	C	0.978147	-0.251838	0.719191
C148	C	1.478147	0.248162	1.219191
C149	C	0.934823	-0.285277	0.683820
C150	C	1.434823	0.214723	1.183820
C151	C	0.934813	-0.285289	0.613133
C152	C	1.434813	0.214711	1.113133
C153	C	0.934861	-0.285228	0.968894
C154	C	1.434861	0.214772	1.468894
C155	C	0.934876	-0.285215	1.039586
C156	C	1.434876	0.214785	1.539586
C157	C	1.021505	-0.218351	1.039631
C158	C	1.521505	0.281649	1.539631
C159	C	1.021495	-0.218363	0.968944
C160	C	1.521495	0.281637	1.468944
C161	C	0.978169	-0.251800	0.933579
C162	C	1.478169	0.248200	1.433579
C163	C	0.978161	-0.251816	0.856930
C164	C	1.478161	0.248184	1.356930
C165	C	0.978158	-0.251825	0.795838
C166	C	1.478158	0.248175	1.295838
H167	H	0.592111	-0.312489	0.247350
H168	H	1.092111	0.187511	0.747350
Br169	Br	0.739693	-0.173191	0.428270
Br170	Br	1.239693	0.326809	0.928270
Br171	Br	0.876041	-0.330638	0.731755
Br172	Br	1.376041	0.169362	1.231755
H173	H	1.056725	-1.052256	0.404743
H174	H	1.556725	-0.552256	0.904743
Br175	Br	0.876278	-1.067292	0.224000
Br176	Br	1.376278	-0.567292	0.724000
Br177	Br	0.217316	-0.173230	0.428309
Br178	Br	0.717316	0.326770	0.928309
H179	H	0.899605	-0.312435	1.068342
H180	H	1.399605	0.187565	1.568342
Br181	Br	1.080306	-0.172970	1.087630
Br182	Br	1.580306	0.327030	1.587630
H183	H	0.899555	-0.550105	0.247405
H184	H	1.399555	-0.050105	0.747405
Br185	Br	0.832837	-0.687470	0.180622
Br186	Br	1.332837	-0.187470	0.680622
Br187	Br	1.080236	-0.173065	0.565253
Br188	Br	1.580236	0.326935	1.065253
H189	H	0.899531	-0.312512	0.584339
H190	H	1.399531	0.187488	1.084339
Br191	Br	1.080282	-0.173054	0.731865
Br192	Br	1.580282	0.326946	1.231865
H193	H	0.899706	-0.953392	0.247508
H194	H	1.399706	-0.453392	0.747508
Br195	Br	0.573081	-0.173199	0.428275
Br196	Br	1.073081	0.326801	0.928275
Br197	Br	0.383934	-0.173218	0.428292
Br198	Br	0.883934	0.326782	0.928292
Br199	Br	1.123377	-0.815801	0.471547
Br200	Br	1.623377	-0.315801	0.971547
H201	H	1.056765	-0.191146	0.940189
H202	H	1.556765	0.308854	1.440189
H203	H	0.899592	-0.312463	0.940108
H204	H	1.399592	0.187537	1.440108
H205	H	0.236353	-0.312524	0.247377
H206	H	0.736353	0.187476	0.747377
Br207	Br	0.383756	-0.330623	0.223794
Br208	Br	0.883756	0.169377	0.723794
Br209	Br	1.079982	-0.435993	0.428110
Br210	Br	1.579982	0.064007	0.928110
Br211	Br	0.739528	-0.330610	0.223791
Br212	Br	1.239528	0.169390	0.723791
Br213	Br	1.080024	-0.564684	0.428160
Br214	Br	1.580024	-0.064684	0.928160
H215	H	0.899520	-0.451039	0.247385
H216	H	1.399520	0.048961	0.747385
H217	H	1.099849	-0.701965	0.447991
H218	H	1.599849	-0.201965	0.947991
Br219	Br	0.832886	-0.816160	0.180642
Br220	Br	1.332886	-0.316160	0.680642
Br221	Br	1.080175	-0.938341	0.428241
Br222	Br	1.580175	-0.438341	0.928241
