data_functionalizedCrystal
_audit_creation_method	'MofGen! by Chris Wilmer'
_symmetry_space_group_name_H-M	'P1'
_symmetry_Int_Tables_number	1
_symmetry_cell_setting	triclinic
loop_
_symmetry_equiv_pos_as_xyz
  x,y,z
_cell_length_a	27.732048
_cell_length_b	10.654550
_cell_length_c	9.730223
_cell_angle_alpha	90.003749
_cell_angle_beta	89.993758
_cell_angle_gamma	96.436222
loop_
_atom_site_label
_atom_site_type_symbol
_atom_site_fract_x
_atom_site_fract_y
_atom_site_fract_z
O1	O	0.067884	-1.664980	-0.114419
O2	O	0.074351	-1.299230	-0.114399
O3	O	0.000792	-1.493465	-0.114384
O4	O	0.141444	-1.470746	-0.114435
O5	O	0.000793	-1.493462	0.114196
O6	O	0.074353	-1.299228	0.114181
O7	O	0.067886	-1.664978	0.114161
Zn8	Zn	0.071120	-1.482102	0.150463
Zn9	Zn	0.071117	-1.482105	-0.150701
O10	O	0.141445	-1.470743	0.114145
C11	C	-0.017217	-1.492987	-0.000090
C12	C	-0.070881	-1.491551	-0.000078
C13	C	0.073878	-1.252451	-0.000106
C14	C	0.072457	-1.113067	-0.000097
C15	C	0.068360	-1.711757	-0.000135
C16	C	0.069780	-1.851141	-0.000153
C17	C	-0.409038	-1.597290	-0.000155
C18	C	-0.610731	-1.591962	-0.000174
O19	O	-0.641384	-1.688653	-0.000239
N20	N	-0.630572	-1.476789	-0.000166
C21	C	-0.599986	-1.362940	-0.000163
O22	O	-0.621490	-1.264856	-0.000171
C23	C	-0.398294	-1.368269	-0.000154
C24	C	-0.378456	-1.483449	-0.000147
C25	C	-0.389199	-1.712461	-0.000150
C26	C	-0.338779	-1.713792	-0.000138
C27	C	-0.308197	-1.599951	-0.000131
C28	C	-0.328036	-1.484780	-0.000135
C29	C	-0.367709	-1.254421	-0.000160
C30	C	-0.317284	-1.255764	-0.000161
C31	C	-0.297446	-1.370944	-0.000155
C32	C	-0.247034	-1.372271	-0.000115
N33	N	-0.227193	-1.487444	-0.000123
C34	C	-0.257775	-1.601284	-0.000131
C35	C	-0.705877	-1.360150	-0.000165
C36	C	-0.756300	-1.358817	-0.000164
C37	C	-0.767041	-1.587840	-0.000178
C38	C	-0.716618	-1.589171	-0.000169
C39	C	-0.686036	-1.475323	-0.000172
C40	C	-0.151888	-1.604070	-0.000104
C41	C	-0.101463	-1.605391	-0.000086
C42	C	-0.090726	-1.376369	-0.000080
C43	C	-0.141147	-1.375047	-0.000090
C44	C	-0.171727	-1.488908	-0.000107
O45	O	-0.216352	-1.275631	-0.000065
O46	O	-0.236261	-1.699354	-0.000153
C47	C	-0.459458	-1.595959	-0.000167
C48	C	-0.479296	-1.480788	-0.000172
C49	C	-0.448715	-1.366948	-0.000164
C50	C	-0.529719	-1.479455	-0.000172
C51	C	-0.560301	-1.593296	-0.000179
C52	C	-0.540460	-1.708469	-0.000187
C53	C	-0.490040	-1.709800	-0.000175
C54	C	-0.468556	-1.251774	-0.000157
C55	C	-0.518976	-1.250453	-0.000167
C56	C	-0.549558	-1.364293	-0.000175
C57	C	0.159454	-1.471221	-0.000152
C58	C	0.213118	-1.472657	-0.000172
C59	C	0.115768	-1.031761	-0.000133
C60	C	0.114430	-0.900796	-0.000156
C61	C	0.026466	-0.932457	-0.000114
C62	C	0.027805	-1.063419	-0.000080
C63	C	0.166553	-1.013480	-0.000163
C64	C	0.165215	-0.882516	-0.000187
N65	N	0.071121	-1.482110	0.355999
N66	N	0.071112	-1.482108	-0.356238
C67	C	0.038560	-1.568138	0.427932
C68	C	0.038554	-1.568135	0.571815
C69	C	0.103675	-1.396071	0.571820
C70	C	0.103678	-1.396069	0.427939
C71	C	0.000964	-1.667482	0.427930
C72	C	0.000959	-1.667479	0.571813
H73	H	-0.085314	-1.699189	-0.000077
N74	N	-0.021694	-0.878916	-0.000110
H75	H	-0.040686	-0.908610	0.084638
H76	H	-0.015933	-0.783622	-0.000186
N77	N	-0.435573	-1.128987	-0.000142
H78	H	-0.441995	-1.078690	-0.084871
H79	H	-0.442024	-1.078803	0.084654
N80	N	0.187976	-1.059809	-0.130887
H81	H	0.217721	-1.102481	-0.108177
H82	H	0.163187	-1.122066	-0.177942
N83	N	0.190550	-0.826152	-0.126920
H84	H	0.218805	-0.763287	-0.098750
H85	H	0.202790	-0.895536	-0.183411
H86	H	-0.176781	-1.696787	-0.000123
N87	N	0.011930	-1.794850	0.623535
H88	H	0.042391	-1.784127	0.681216
H89	H	-0.016107	-1.834001	0.681144
N90	N	0.192861	-1.051227	0.126546
H91	H	0.170388	-1.111995	0.183115
H92	H	0.222188	-1.093309	0.098240
N93	N	-0.162548	-1.250823	-0.000092
H94	H	-0.183237	-1.245160	0.084633
H95	H	-0.135495	-1.178981	-0.000133
H96	H	0.130181	-1.326018	0.630409
N97	N	0.016551	-1.787611	0.368793
H98	H	0.015984	-1.783225	0.265126
H99	H	0.050517	-1.797862	0.400912
H100	H	0.180563	-0.836198	0.098492
N101	N	-0.057737	-1.253588	-0.000034
H102	H	-0.022785	-1.271919	-0.000022
H103	H	-0.064193	-1.203336	-0.084765
H104	H	-0.772447	-1.265026	-0.000146
H105	H	-0.700469	-1.682961	-0.000165
H106	H	-0.322632	-1.807584	-0.000139
N107	N	-0.045547	-1.629058	0.630949
H108	H	-0.068013	-1.610492	0.553695
H109	H	-0.061721	-1.700013	0.689386
N110	N	-0.672896	-1.237348	-0.000166
H111	H	-0.693121	-1.164195	-0.000157
H112	H	-0.651745	-1.232907	0.084573
H113	H	-0.414094	-1.805169	-0.000162
H114	H	-0.791950	-1.680533	-0.000184
H115	H	-0.383852	-1.160629	-0.000173
H116	H	-0.292386	-1.163052	-0.000166
H117	H	-0.473893	-1.803591	-0.000170
H118	H	0.130188	-1.326007	0.369373
H119	H	-0.565369	-1.801162	-0.000187
H120	H	-0.535123	-1.156652	-0.000160
H121	H	-0.007463	-1.129616	-0.000032
N122	N	-0.048243	-1.641152	0.376206
H123	H	-0.055606	-1.555967	0.410775
H124	H	-0.048226	-1.641216	0.272410
