data_functionalizedCrystal
_audit_creation_method	'MofGen! by Chris Wilmer'
_symmetry_space_group_name_H-M	'P1'
_symmetry_Int_Tables_number	1
_symmetry_cell_setting	triclinic
loop_
_symmetry_equiv_pos_as_xyz
  x,y,z
_cell_length_a	16.120530
_cell_length_b	12.827892
_cell_length_c	16.120297
_cell_angle_alpha	87.123928
_cell_angle_beta	89.871860
_cell_angle_gamma	87.111104
loop_
_atom_site_label
_atom_site_type_symbol
_atom_site_fract_x
_atom_site_fract_y
_atom_site_fract_z
Zn1	Zn	1.247499	-0.529438	0.534590
Zn2	Zn	1.497499	-0.279438	0.784590
Zn3	Zn	1.747499	-0.029438	1.034590
Zn4	Zn	1.997499	0.220562	1.284590
Zn5	Zn	1.254468	-0.695798	0.395541
Zn6	Zn	1.504468	-0.445798	0.645541
Zn7	Zn	1.754468	-0.195798	0.895541
Zn8	Zn	2.004468	0.054202	1.145541
Zn9	Zn	1.115487	-0.511779	0.388507
Zn10	Zn	1.365487	-0.261779	0.638507
Zn11	Zn	1.615487	-0.011779	0.888507
Zn12	Zn	1.865487	0.238221	1.138507
Zn13	Zn	1.108424	-0.694836	0.527510
Zn14	Zn	1.358424	-0.444836	0.777510
Zn15	Zn	1.608424	-0.194836	1.027510
Zn16	Zn	1.858424	0.055164	1.277510
O17	O	1.181470	-0.607963	0.461537
O18	O	1.431470	-0.357963	0.711537
O19	O	1.681470	-0.107963	0.961537
O20	O	1.931470	0.142037	1.211537
O21	O	1.364790	-0.559299	0.522052
O22	O	1.614790	-0.309299	0.772052
O23	O	1.864790	-0.059299	1.022052
O24	O	2.114790	0.190701	1.272052
O25	O	1.241904	-0.664400	0.278242
O26	O	1.491904	-0.414400	0.528242
O27	O	1.741904	-0.164400	0.778242
O28	O	1.991904	0.085600	1.028242
O29	O	1.133038	-0.367889	0.407905
O30	O	1.383038	-0.117889	0.657905
O31	O	1.633038	0.132111	0.907905
O32	O	1.883038	0.382111	1.157905
O33	O	1.369911	-0.681523	0.419892
O34	O	1.619911	-0.431523	0.669892
O35	O	1.869911	-0.181523	0.919892
O36	O	2.119911	0.068477	1.169892
O37	O	1.230026	-0.380863	0.515232
O38	O	1.480026	-0.130863	0.765232
O39	O	1.730026	0.119137	1.015232
O40	O	1.980026	0.369137	1.265232
O41	O	1.139796	-0.529202	0.273075
O42	O	1.389796	-0.279202	0.523075
O43	O	1.639796	-0.029202	0.773075
O44	O	1.889796	0.220798	1.023075
O45	O	0.998183	-0.528269	0.401040
O46	O	1.248183	-0.278269	0.651040
O47	O	1.498183	-0.028269	0.901040
O48	O	1.748183	0.221731	1.151040
O49	O	1.121000	-0.679883	0.644815
O50	O	1.371000	-0.429883	0.894815
O51	O	1.621000	-0.179883	1.144815
O52	O	1.871000	0.070117	1.394815
O53	O	0.992994	-0.662760	0.503164
O54	O	1.242994	-0.412760	0.753164
O55	O	1.492994	-0.162760	1.003164
O56	O	1.742994	0.087240	1.253164
O57	O	1.223178	-0.558366	0.650017
O58	O	1.473178	-0.308366	0.900017
O59	O	1.723178	-0.058366	1.150017
O60	O	1.973178	0.191634	1.400017
O61	O	1.235056	-0.841903	0.413027
O62	O	1.485056	-0.591903	0.663027
O63	O	1.735056	-0.341903	0.913027
O64	O	1.985056	-0.091903	1.163027
O65	O	1.127758	-0.841196	0.509984
O66	O	1.377758	-0.591196	0.759984
O67	O	1.627758	-0.341196	1.009984
O68	O	1.877758	-0.091196	1.259984
C69	C	1.181418	-0.879469	0.461520
C70	C	1.431418	-0.629469	0.711520
C71	C	1.681418	-0.379469	0.961520
C72	C	1.931418	-0.129469	1.211520
C73	C	1.181471	-0.995627	0.461544
C74	C	1.431471	-0.745627	0.711544
C75	C	1.681471	-0.495627	0.961544
C76	C	1.931471	-0.245627	1.211544
C77	C	0.965416	-0.593495	0.450571
C78	C	1.215416	-0.343495	0.700571
C79	C	1.465416	-0.093495	0.950571
C80	C	1.715416	0.156505	1.200571
C81	C	0.872986	-0.587331	0.445899
C82	C	1.122986	-0.337331	0.695899
C83	C	1.372986	-0.087331	0.945899
C84	C	1.622986	0.162669	1.195899
C85	C	1.234622	-1.047734	0.413626
C86	C	1.484622	-0.797734	0.663626
C87	C	1.734622	-0.547734	0.913626
C88	C	1.984622	-0.297734	1.163626
C89	C	1.234678	-1.167789	0.413650
C90	C	1.484678	-0.917789	0.663650
C91	C	1.734678	-0.667789	0.913650
C92	C	1.984678	-0.417789	1.163650
C93	C	0.703755	-0.576055	0.437377
C94	C	0.953755	-0.326055	0.687377
C95	C	1.203755	-0.076055	0.937377
C96	C	1.453755	0.173945	1.187377
C97	C	0.660021	-0.639952	0.485757
C98	C	0.910021	-0.389952	0.735757
C99	C	1.160021	-0.139952	0.985757
C100	C	1.410021	0.110048	1.235757
C101	C	0.565855	-0.633677	0.481016
C102	C	0.815855	-0.383677	0.731016
C103	C	1.065855	-0.133677	0.981016
C104	C	1.315855	0.116323	1.231016
C105	C	0.797930	-0.582328	0.442118
C106	C	1.047930	-0.332328	0.692118
C107	C	1.297930	-0.082328	0.942118
C108	C	1.547930	0.167672	1.192118
C109	C	1.398367	-0.622489	0.472546
C110	C	1.648367	-0.372489	0.722546
C111	C	1.898367	-0.122489	0.972546
C112	C	2.148367	0.127511	1.222546
C113	C	1.490796	-0.628679	0.477238
C114	C	1.740796	-0.378679	0.727238
C115	C	1.990796	-0.128679	0.977238
C116	C	2.240796	0.121321	1.227238
C117	C	1.170524	-0.620987	0.678432
C118	C	1.420524	-0.370987	0.928432
C119	C	1.670524	-0.120987	1.178432
C120	C	1.920524	0.129013	1.428432
C121	C	1.165859	-0.626537	0.770859
C122	C	1.415859	-0.376537	1.020859
C123	C	1.665859	-0.126537	1.270859
C124	C	1.915859	0.123463	1.520859
C125	C	1.181543	-0.335400	0.461574
C126	C	1.431543	-0.085400	0.711574
C127	C	1.681543	0.164600	0.961574
C128	C	1.931543	0.414600	1.211574
C129	C	1.181574	-0.219250	0.461589
C130	C	1.431574	0.030750	0.711589
C131	C	1.681574	0.280750	0.961589
C132	C	1.931574	0.530750	1.211589
C133	C	1.192421	-0.594917	0.245488
C134	C	1.442421	-0.344917	0.495488
C135	C	1.692421	-0.094917	0.745488
C136	C	1.942421	0.155083	0.995488
C137	C	1.197246	-0.589084	0.153069
C138	C	1.447246	-0.339084	0.403069
C139	C	1.697246	-0.089084	0.653069
C140	C	1.947246	0.160916	0.903069
C141	C	1.157313	-0.636645	0.940085
C142	C	1.407313	-0.386645	1.190085
C143	C	1.657313	-0.136645	1.440085
C144	C	1.907313	0.113355	1.690085
C145	C	1.205790	-0.578979	0.983850
C146	C	1.455790	-0.328979	1.233850
C147	C	1.705790	-0.078979	1.483850
C148	C	1.955790	0.171021	1.733850
C149	C	1.201035	-0.584603	1.078012
C150	C	1.451035	-0.334603	1.328012
C151	C	1.701035	-0.084603	1.578012
C152	C	1.951035	0.165397	1.828012
C153	C	1.162067	-0.631022	0.845913
C154	C	1.412067	-0.381022	1.095913
C155	C	1.662067	-0.131022	1.345913
C156	C	1.912067	0.118978	1.595913
H157	H	1.280181	-1.212599	0.372623
H158	H	1.530181	-0.962599	0.622623
H159	H	1.780181	-0.712599	0.872623
H160	H	2.030181	-0.462599	1.122623
H161	H	1.250863	-0.525384	0.950599
H162	H	1.500863	-0.275384	1.200599
H163	H	1.750863	-0.025384	1.450599
H164	H	2.000863	0.224616	1.700599
H165	H	1.112243	-0.690235	0.973333
H166	H	1.362243	-0.440235	1.223333
H167	H	1.612243	-0.190235	1.473333
H168	H	1.862243	0.059765	1.723333
N169	N	1.121296	-1.159909	0.515940
N170	N	1.371296	-0.909909	0.765940
N171	N	1.621296	-0.659909	1.015940
N172	N	1.871296	-0.409909	1.265940
H173	H	1.085865	-1.210752	0.547936
H174	H	1.335865	-0.960752	0.797936
H175	H	1.585865	-0.710752	1.047936
H176	H	1.835865	-0.460752	1.297936
H177	H	1.084562	-1.110073	0.480067
H178	H	1.334562	-0.860073	0.730067
H179	H	1.584562	-0.610073	0.980067
H180	H	1.834562	-0.360073	1.230067
N181	N	1.294855	-0.989109	0.359263
N182	N	1.544855	-0.739109	0.609263
N183	N	1.794855	-0.489109	0.859263
N184	N	2.044855	-0.239109	1.109263
H185	H	1.286279	-0.911655	0.366954
H186	H	1.536279	-0.661655	0.616954
H187	H	1.786279	-0.411655	0.866954
H188	H	2.036279	-0.161655	1.116954
H189	H	1.284983	-1.003743	0.299199
H190	H	1.534983	-0.753743	0.549199
H191	H	1.784983	-0.503743	0.799199
H192	H	2.034983	-0.253743	1.049199
H193	H	0.670479	-0.516644	0.392400
H194	H	0.920479	-0.266644	0.642400
H195	H	1.170479	-0.016644	0.892400
H196	H	1.420479	0.233356	1.142400
H197	H	0.693300	-0.699366	0.530739
H198	H	0.943300	-0.449366	0.780739
H199	H	1.193300	-0.199366	1.030739
H200	H	1.443300	0.050634	1.280739
N201	N	1.121240	-1.054256	0.515905
N202	N	1.371240	-0.804256	0.765905
N203	N	1.621240	-0.554256	1.015905
N204	N	1.871240	-0.304256	1.265905
H205	H	1.085760	-1.002988	0.547878
H206	H	1.335760	-0.752988	0.797878
H207	H	1.585760	-0.502988	1.047878
H208	H	1.835760	-0.252988	1.297878
H209	H	1.153167	-1.104065	0.556111
H210	H	1.403167	-0.854065	0.806111
H211	H	1.653167	-0.604065	1.056111
H212	H	1.903167	-0.354065	1.306111
