data_functionalizedCrystal
_audit_creation_method	'MofGen! by Chris Wilmer'
_symmetry_space_group_name_H-M	'P1'
_symmetry_Int_Tables_number	1
_symmetry_cell_setting	triclinic
loop_
_symmetry_equiv_pos_as_xyz
  x,y,z
_cell_length_a	21.606444
_cell_length_b	14.446369
_cell_length_c	21.606444
_cell_angle_alpha	90.002213
_cell_angle_beta	60.001331
_cell_angle_gamma	59.997435
loop_
_atom_site_label
_atom_site_type_symbol
_atom_site_fract_x
_atom_site_fract_y
_atom_site_fract_z
Zr1	Zr	0.677418	0.891754	-0.081179
O2	O	0.806546	0.743935	-0.180005
O3	O	0.548297	0.937070	-0.050886
O4	O	0.677421	0.937058	-0.180005
O5	O	0.677418	0.743955	0.050967
O6	O	0.677415	1.089395	-0.180001
O7	O	0.677422	0.743947	-0.050887
O8	O	0.446436	1.089416	0.050968
O9	O	0.908397	0.743933	-0.180002
O10	O	0.601400	1.070082	-0.037960
O11	O	0.601401	0.956400	0.038049
O12	O	0.753427	0.956387	-0.113971
O13	O	0.753428	0.842705	-0.037961
Zr14	Zr	0.677402	1.134726	0.081273
Zr15	Zr	0.677409	1.134714	-0.081173
Zr16	Zr	0.677411	0.891766	0.081267
Zr17	Zr	0.839859	0.891751	-0.081174
Zr18	Zr	0.514962	1.134729	0.081267
O19	O	0.806524	1.089411	0.050980
O20	O	0.806534	1.089393	-0.179997
O21	O	0.806536	0.743953	0.050972
O22	O	0.548274	1.282545	0.180099
O23	O	0.548284	1.282528	-0.050878
O24	O	0.548287	0.937087	0.180090
O25	O	0.677403	1.282526	-0.050874
O26	O	0.677400	1.089422	0.180098
O27	O	0.677405	0.937085	0.180095
O28	O	0.677398	1.282533	0.050981
O29	O	0.908390	0.937054	-0.179997
O30	O	0.446431	1.089426	0.180091
O31	O	0.446424	1.282547	0.180096
O32	O	0.446429	1.282537	0.050973
O33	O	0.908392	0.743943	-0.050879
O34	O	0.908385	0.937064	-0.050875
O35	O	0.601393	1.070094	0.114065
O36	O	0.601392	1.183775	0.038055
O37	O	0.753420	1.070080	-0.037956
O38	O	0.753421	0.956398	0.038054
C39	C	0.474222	1.013243	0.000040
C40	C	0.405262	1.013244	0.000038
C41	C	0.372864	1.072583	-0.039639
C42	C	0.308064	1.072587	-0.039634
C43	C	0.275668	1.013245	0.000044
C44	C	0.308069	0.953905	0.039727
C45	C	0.372863	0.953909	0.039726
C46	C	0.046759	0.953892	0.039733
C47	C	-0.018038	0.953890	0.039729
C48	C	-0.018040	1.072570	-0.039627
C49	C	0.046755	1.072573	-0.039628
C50	C	0.079147	1.013239	0.000057
C51	C	0.149409	1.013237	0.000053
C52	C	0.205411	1.013240	0.000045
C53	C	0.677422	0.709334	0.000039
C54	C	0.677425	0.606191	0.000037
C55	C	0.773299	0.387817	-0.047661
C56	C	0.773364	0.495049	-0.047929
C57	C	0.629802	0.602866	-0.034934
C58	C	0.630410	0.495097	-0.035284
C59	C	0.628431	0.496469	0.082766
C60	C	0.630238	0.602438	0.082636
C61	C	0.880598	1.013237	0.000053
C62	C	0.949559	1.013236	0.000056
C63	C	0.677419	1.013225	-0.203148
C64	C	0.677422	1.013219	-0.272110
C65	C	0.677399	1.317146	0.000054
C66	C	0.677395	1.420289	0.000057
C67	C	0.756778	0.953871	-0.344185
C68	C	0.756776	0.953881	-0.408980
C69	C	0.677416	1.013233	-0.401698
C70	C	0.598054	1.072589	-0.329615
C71	C	0.598057	1.072585	-0.264822
C72	C	0.598039	1.072607	-0.590918
C73	C	0.598041	1.072603	-0.655719
C74	C	0.756757	0.953903	-0.735077
C75	C	0.756761	0.953899	-0.670283
C76	C	0.677399	1.013259	-0.598206
C77	C	0.677402	1.013249	-0.527949
C78	C	0.677412	1.013237	-0.471954
C79	C	0.677402	1.013256	0.203242
C80	C	0.677399	1.013261	0.272204
C81	C	0.474211	1.317149	0.000048
C82	C	0.405247	1.420293	0.000048
C83	C	0.474214	1.013259	0.203235
C84	C	0.405251	1.013265	0.272195
C85	C	0.474202	1.317165	0.203242
C86	C	0.405236	1.420314	0.272205
C87	C	0.880618	0.709315	-0.203149
C88	C	0.949585	0.606166	-0.272111
C89	C	0.880610	0.709331	0.000046
C90	C	0.949573	0.606187	0.000046
C91	C	0.880607	1.013222	-0.203141
C92	C	0.949570	1.013215	-0.272101
C93	C	0.372865	1.409384	-0.039638
C94	C	0.308075	1.506290	-0.039653
C95	C	0.275664	1.614103	0.000023
C96	C	0.308053	1.625010	0.039710
C97	C	0.372846	1.528106	0.039720
C98	C	0.372861	1.072615	0.344266
C99	C	0.308072	1.072616	0.409067
C100	C	0.275669	1.013274	0.401797
C101	C	0.308065	0.953917	0.329719
C102	C	0.372857	0.953910	0.264919
C103	C	0.372848	1.528105	0.264914
C104	C	0.308055	1.625034	0.329706
C105	C	0.275647	1.614170	0.401787
C106	C	0.308041	1.506367	0.409077
C107	C	0.372837	1.409441	0.344286
C108	C	0.981981	0.498375	-0.264821
C109	C	1.046794	0.401446	-0.329612
C110	C	1.079205	0.412311	-0.401694
C111	C	1.046807	0.520113	-0.408983
C112	C	0.981999	0.617039	-0.344192
C113	C	0.981963	0.617096	0.039725
C114	C	1.046770	0.520191	0.039722
C115	C	1.079184	0.412377	0.000044
C116	C	1.046792	0.401470	-0.039640
C117	C	0.981990	0.498374	-0.039641
C118	C	0.981952	1.072569	-0.264806
C119	C	1.046742	1.072585	-0.329596
C120	C	1.079153	1.013240	-0.401679
C121	C	1.046764	0.953885	-0.408972
C122	C	0.981971	0.953876	-0.344184
H123	H	-0.044423	1.120888	-0.071938
F124	F	0.206684	1.717338	0.470738
H125	H	0.810919	0.493290	-0.024654
H126	H	0.399236	1.120938	0.350200
H127	H	0.222911	1.013290	0.454567
F128	F	0.947480	0.731830	0.081957
H129	H	1.073133	0.529093	0.072040
F130	F	0.273614	1.494658	-0.081892
F131	F	0.407331	1.539693	0.188206
H132	H	0.533437	1.120913	-0.206135
H133	H	0.222905	1.693000	0.000010
F134	F	1.081204	1.135756	-0.321818
F135	F	0.822498	0.317290	-0.017159
F136	F	0.407318	0.890744	0.188217
F137	F	1.081261	0.286726	-0.321838
H138	H	0.399253	1.321606	-0.071956
H139	H	0.281654	1.712805	0.072013
F140	F	1.081295	0.286717	-0.081864
F141	F	-0.052516	0.890729	0.081964
H142	H	1.131911	1.013256	-0.454428
H143	H	0.533413	1.120939	-0.649782
H144	H	0.955613	0.905538	-0.350134
F145	F	0.538742	0.705894	0.133015
H146	H	0.399241	1.120899	-0.071954
H147	H	0.399203	1.537004	0.072042
F148	F	0.273587	1.739754	0.321932
F149	F	1.081272	0.890722	-0.485695
H150	H	0.821378	0.905572	-0.793771
H151	H	0.533417	1.120942	-0.532239
H152	H	0.281645	1.497538	0.467774
F153	F	0.407296	1.294724	0.352057
F154	F	0.513593	1.135760	-0.321867
H155	H	0.281702	1.120956	0.467750
F156	F	0.273570	0.890766	0.321992
H157	H	0.955620	0.489476	-0.071951
F158	F	0.947497	0.486787	-0.188112
F159	F	1.148179	0.309142	-0.470644
F160	F	0.841245	0.890696	-0.351945
F161	F	0.947523	0.731756	-0.351963
H162	H	1.073204	0.528945	-0.467679
H163	H	0.073122	0.905583	0.072050
F164	F	0.947470	1.135737	-0.188096
F165	F	0.537599	0.705170	0.008306
H166	H	1.131950	0.333480	0.000051
H167	H	0.281685	1.120905	-0.071942
H168	H	0.281682	0.905595	0.072038
F169	F	0.081234	1.135727	-0.081863
H170	H	0.821396	0.905556	-0.467665
F171	F	0.822261	0.315944	-0.126929
F172	F	0.407341	0.890755	0.081957
H173	H	0.810961	0.492597	-0.108942
F174	F	0.674658	0.429279	-0.114836
H175	H	0.659114	0.446447	0.111980
F176	F	0.538443	0.529935	0.007199
H177	H	0.662883	0.604996	-0.095219
H178	H	0.557783	0.523912	0.118489
F179	F	0.675613	0.601784	0.116791
H180	H	0.821384	0.905563	-0.676220
