data_functionalizedCrystal
_audit_creation_method	'MofGen! by Chris Wilmer'
_symmetry_space_group_name_H-M	'P1'
_symmetry_Int_Tables_number	1
_symmetry_cell_setting	triclinic
loop_
_symmetry_equiv_pos_as_xyz
  x,y,z
_cell_length_a	23.532407
_cell_length_b	23.532357
_cell_length_c	15.500227
_cell_angle_alpha	92.804145
_cell_angle_beta	87.176055
_cell_angle_gamma	82.838519
loop_
_atom_site_label
_atom_site_type_symbol
_atom_site_fract_x
_atom_site_fract_y
_atom_site_fract_z
O1	O	0.757910	0.066480	-0.071899
O2	O	1.091243	0.399813	0.261434
O3	O	1.424577	0.733146	0.594767
O4	O	0.592045	0.076482	-0.071914
O5	O	0.925379	0.409816	0.261419
O6	O	1.258712	0.743149	0.594752
O7	O	0.679994	-0.011452	-0.071889
O8	O	1.013327	0.321881	0.261445
O9	O	1.346660	0.655215	0.594778
O10	O	0.669962	0.154414	-0.071925
O11	O	1.003295	0.487747	0.261408
O12	O	1.336629	0.821081	0.594742
O13	O	0.674657	-0.006137	0.071999
O14	O	1.007990	0.327197	0.405332
O15	O	1.341323	0.660530	0.738665
O16	O	0.586709	0.081798	0.071973
O17	O	0.920042	0.415131	0.405306
O18	O	1.253375	0.748464	0.738639
O19	O	0.752573	0.071795	0.071988
O20	O	1.085907	0.405128	0.405321
O21	O	1.419240	0.738462	0.738655
Cu22	Cu	0.669154	0.077282	0.085118
Cu23	Cu	1.002487	0.410615	0.418452
Cu24	Cu	1.335820	0.743948	0.751785
Cu25	Cu	0.675465	0.070996	-0.085045
Cu26	Cu	1.008798	0.404329	0.248288
Cu27	Cu	1.342132	0.737662	0.581622
O28	O	0.664625	0.159729	0.071962
O29	O	0.997958	0.493063	0.405295
O30	O	1.331292	0.826396	0.738629
C31	C	0.568161	0.078885	0.000027
C32	C	0.901494	0.412219	0.333361
C33	C	1.234828	0.745552	0.666694
C34	C	0.504944	0.078119	0.000023
C35	C	0.838278	0.411452	0.333356
C36	C	1.171611	0.744786	0.666689
C37	C	0.238786	0.022924	0.000058
C38	C	0.572119	0.356257	0.333392
C39	C	0.905452	0.689590	0.666725
C40	C	0.298186	0.023635	0.000058
C41	C	0.631519	0.356968	0.333391
C42	C	0.964852	0.690302	0.666724
O43	O	0.334937	-0.020150	0.000097
O44	O	0.668270	0.313183	0.333431
O45	O	1.001603	0.646516	0.666764
N46	N	0.320803	0.075912	0.000040
N47	N	0.654136	0.409245	0.333374
N48	N	0.987470	0.742579	0.666707
C49	C	0.284017	0.127481	0.000032
C50	C	0.617350	0.460815	0.333366
C51	C	0.950683	0.794148	0.666699
O52	O	0.308709	0.172012	0.000018
O53	O	0.642042	0.505346	0.333352
O54	O	0.975376	0.838679	0.666685
C55	C	0.224617	0.126769	0.000039
C56	C	0.557951	0.460103	0.333372
C57	C	0.891284	0.793436	0.666705
C58	C	0.202004	0.074489	0.000047
C59	C	0.535337	0.407822	0.333381
C60	C	0.868670	0.741155	0.666714
C61	C	0.216171	-0.029353	0.000068
C62	C	0.549505	0.303981	0.333401
C63	C	0.882838	0.637314	0.666734
C64	C	0.156775	-0.030064	0.000067
C65	C	0.490109	0.303269	0.333400
C66	C	0.823442	0.636603	0.666733
C67	C	0.119994	0.021501	0.000056
C68	C	0.453327	0.354835	0.333389
C69	C	0.786660	0.688168	0.666722
C70	C	0.142608	0.073778	0.000046
C71	C	0.475941	0.407111	0.333380
C72	C	0.809275	0.740444	0.666713
C73	C	0.187832	0.178338	0.000037
C74	C	0.521165	0.511672	0.333370
C75	C	0.854499	0.845005	0.666703
C76	C	0.128429	0.177622	0.000044
C77	C	0.461763	0.510955	0.333377
C78	C	0.795096	0.844289	0.666711
C79	C	0.105816	0.125341	0.000053
C80	C	0.439149	0.458675	0.333386
C81	C	0.772482	0.792008	0.666719
C82	C	0.046430	0.124631	0.000034
C83	C	0.379763	0.457965	0.333367
C84	C	0.713097	0.791298	0.666701
N85	N	0.023813	0.072354	0.000052
N86	N	0.357146	0.405688	0.333385
N87	N	0.690479	0.739021	0.666718
C88	C	0.060594	0.020789	0.000062
C89	C	0.393928	0.354123	0.333396
C90	C	0.727261	0.687456	0.666729
C91	C	0.408759	0.128972	0.000020
C92	C	0.742093	0.462306	0.333353
C93	C	1.075426	0.795639	0.666687
C94	C	0.468158	0.129684	0.000007
C95	C	0.801491	0.463018	0.333341
C96	C	1.134824	0.796351	0.666674
C97	C	0.482323	0.025838	0.000034
C98	C	0.815656	0.359171	0.333368
C99	C	1.148989	0.692505	0.666701
C100	C	0.422923	0.025126	0.000041
C101	C	0.756257	0.358460	0.333374
C102	C	1.089590	0.691793	0.666708
C103	C	0.386142	0.076695	0.000037
C104	C	0.719475	0.410029	0.333371
C105	C	1.052809	0.743362	0.666704
C106	C	-0.064142	0.019300	0.000059
C107	C	0.269191	0.352633	0.333392
C108	C	0.602525	0.685966	0.666726
C109	C	-0.123544	0.018593	0.000054
C110	C	0.209790	0.351926	0.333388
C111	C	0.543123	0.685259	0.666721
C112	C	-0.137704	0.122439	0.000032
C113	C	0.195630	0.455772	0.333365
C114	C	0.528963	0.789106	0.666698
C115	C	-0.078307	0.123146	0.000032
C116	C	0.255026	0.456479	0.333365
C117	C	0.588360	0.789813	0.666698
C118	C	-0.041527	0.071572	0.000048
C119	C	0.291806	0.404905	0.333382
C120	C	0.625140	0.738238	0.666715
O121	O	0.009644	0.168394	-0.000002
O122	O	0.342978	0.501727	0.333331
O123	O	0.676311	0.835061	0.666665
O124	O	0.035893	-0.023734	0.000088
O125	O	0.369227	0.309599	0.333421
O126	O	0.702560	0.642933	0.666754
C127	C	0.677074	-0.030011	0.000058
C128	C	1.010407	0.303322	0.333391
C129	C	1.343741	0.636656	0.666724
C130	C	0.676319	-0.093229	0.000066
C131	C	1.009653	0.240104	0.333399
C132	C	1.342986	0.573438	0.666732
C133	C	0.674493	-0.488140	-0.078414
C134	C	1.007827	-0.154806	0.254919
C135	C	1.341160	0.178527	0.588252
C136	C	0.673776	-0.547539	-0.078419
C137	C	1.007110	-0.214206	0.254914
C138	C	1.340443	0.119128	0.588247
O139	O	0.675860	-0.580720	-0.145123
O140	O	1.009193	-0.247386	0.188210
O141	O	1.342527	0.085947	0.521543
N142	N	0.670512	-0.574353	0.000012
N143	N	1.003845	-0.241020	0.333346
N144	N	1.337178	0.092314	0.666679
C145	C	0.667958	-0.541763	0.078454
C146	C	1.001291	-0.208430	0.411788
C147	C	1.334625	0.124903	0.745121
O148	O	0.665115	-0.570025	0.145166
O149	O	0.998448	-0.236691	0.478500
O150	O	1.331781	0.096642	0.811833
C151	C	0.668671	-0.482364	0.078458
C152	C	1.002004	-0.149031	0.411792
C153	C	1.335338	0.184302	0.745125
C154	C	0.671942	-0.455554	0.000022
C155	C	1.005275	-0.122221	0.333355
C156	C	1.338608	0.211112	0.666688
C157	C	0.677763	-0.461329	-0.156845
C158	C	1.011097	-0.127996	0.176489
C159	C	1.344430	0.205337	0.509822
C160	C	0.678481	-0.401934	-0.156839
C161	C	1.011815	-0.068601	0.176494
C162	C	1.345148	0.264733	0.509827
C163	C	0.675930	-0.369349	-0.078404
C164	C	1.009263	-0.036015	0.254930
C165	C	1.342596	0.297318	0.588263
C166	C	0.672660	-0.396159	0.000027
C167	C	1.005993	-0.062826	0.333360
C168	C	1.339326	0.270508	0.666694
C169	C	0.666113	-0.449775	0.156899
C170	C	0.999447	-0.116442	0.490233
C171	C	1.332780	0.216892	0.823566
C172	C	0.666826	-0.390372	0.156897
C173	C	1.000159	-0.057039	0.490230
C174	C	1.333493	0.276295	0.823563
C175	C	0.670097	-0.363562	0.078460
C176	C	1.003430	-0.030229	0.411793
C177	C	1.336763	0.303104	0.745127
C178	C	0.670826	-0.304178	0.078468
C179	C	1.004159	0.029155	0.411801
C180	C	1.337493	0.362488	0.745135
N181	N	0.674091	-0.277364	0.000036
N182	N	1.007424	0.055969	0.333370
N183	N	1.340757	0.389302	0.666703
C184	C	0.676643	-0.309950	-0.078400
C185	C	1.009976	0.023384	0.254934
C186	C	1.343309	0.356717	0.588267
C187	C	0.666460	-0.666505	0.078440
C188	C	0.999793	-0.333172	0.411773
C189	C	1.333127	0.000161	0.745106
C190	C	0.665751	-0.725904	0.078437
C191	C	0.999084	-0.392571	0.411770
C192	C	1.332418	-0.059237	0.745103
C193	C	0.671568	-0.731676	-0.078437
C194	C	1.004902	-0.398342	0.254896
C195	C	1.338235	-0.065009	0.588229
C196	C	0.672281	-0.672276	-0.078433
C197	C	1.005615	-0.338943	0.254900
C198	C	1.338948	-0.005610	0.588233
C199	C	0.669725	-0.639691	0.000008
C200	C	1.003058	-0.306358	0.333341
C201	C	1.336391	0.026975	0.666675
C202	C	0.678151	-0.185215	-0.078382
C203	C	1.011484	0.148118	0.254951
C204	C	1.344817	0.481452	0.588284
C205	C	0.678871	-0.125814	-0.078370
C206	C	1.012204	0.207519	0.254963
C207	C	1.345538	0.540852	0.588297
C208	C	0.673051	-0.120047	0.078503
C209	C	1.006384	0.213286	0.411837
C210	C	1.339717	0.546619	0.745170
C211	C	0.672333	-0.179443	0.078492
C212	C	1.005667	0.153890	0.411825
C213	C	1.339000	0.487223	0.745158
C214	C	0.674882	-0.212025	0.000042
C215	C	1.008215	0.121308	0.333375
C216	C	1.341549	0.454641	0.666708
O217	O	0.668742	-0.270961	0.145138
O218	O	1.002075	0.062372	0.478471
O219	O	1.335408	0.395705	0.811805
O220	O	0.679478	-0.281679	-0.145100
O221	O	1.012811	0.051654	0.188233
O222	O	1.346145	0.384987	0.521566
C223	C	0.776458	0.069392	0.000044
C224	C	1.109791	0.402725	0.333377
C225	C	1.443124	0.736059	0.666711
C226	C	0.839675	0.070158	0.000043
C227	C	1.173008	0.403491	0.333377
C228	C	1.506341	0.736825	0.666710
C229	C	0.667545	0.178288	0.000014
C230	C	1.000878	0.511621	0.333347
C231	C	1.334211	0.844955	0.666681
C232	C	0.668300	0.241506	0.000000
C233	C	1.001633	0.574839	0.333334
C234	C	1.334966	0.908173	0.666667
N235	N	0.664719	0.081702	0.204802
N236	N	0.998052	0.415036	0.538135
N237	N	1.331385	0.748369	0.871469
N238	N	0.679904	0.066570	-0.204728
N239	N	1.013238	0.399904	0.128605
N240	N	1.346571	0.733237	0.461938
C241	C	0.701998	0.044455	0.250090
C242	C	1.035332	0.377788	0.583423
C243	C	1.368665	0.711122	0.916756
C244	C	0.698649	0.047804	0.340661
C245	C	1.031983	0.381137	0.673995
C246	C	1.365316	0.714470	1.007328
C247	C	0.658023	0.088403	0.385944
C248	C	0.991357	0.421736	0.719277
C249	C	1.324690	0.755069	1.052611
C250	C	0.620740	0.125652	0.340650
C251	C	0.954073	0.458985	0.673983
C252	C	1.287407	0.792318	1.007317
C253	C	0.624086	0.122300	0.250080
C254	C	0.957420	0.455633	0.583413
C255	C	1.290753	0.788967	0.916747
C256	C	0.645968	0.100468	0.659407
C257	C	0.979301	0.433801	0.992741
C258	C	1.312634	0.767134	1.326074
C259	C	0.642625	0.103818	0.749984
C260	C	0.975958	0.437151	1.083317
C261	C	1.309292	0.770484	1.416651
C262	C	0.720534	0.025969	0.749989
C263	C	1.053867	0.359302	1.083322
C264	C	1.387201	0.692635	1.416656
C265	C	0.723879	0.022623	0.659417
C266	C	1.057213	0.355956	0.992750
C267	C	1.390546	0.689289	1.326084
C268	C	0.686594	0.059870	0.614131
C269	C	1.019927	0.393203	0.947464
C270	C	1.353261	0.726536	1.280798
C271	C	0.654600	0.091828	0.478523
C272	C	0.987934	0.425161	0.811856
C273	C	1.321267	0.758494	1.145190
C274	C	0.690015	0.056442	0.521554
C275	C	1.023348	0.389775	0.854887
C276	C	1.356681	0.723108	1.188220
H277	H	0.512281	-0.016149	0.000043
H278	H	0.845615	0.317184	0.333377
H279	H	1.178948	0.650518	0.666710
C280	C	0.597930	0.148480	0.799793
C281	C	0.931263	0.481813	1.133126
C282	C	1.264596	0.815147	1.466460
N283	N	0.564267	0.182118	0.837309
N284	N	0.897600	0.515452	1.170643
N285	N	1.230934	0.848785	1.503976
H286	H	-0.034202	-0.022697	0.000072
H287	H	0.299131	0.310636	0.333406
H288	H	0.632465	0.643969	0.666739
H289	H	0.663096	-0.747728	0.142308
H290	H	0.996430	-0.414395	0.475641
H291	H	1.329763	-0.081062	0.808975
C292	C	0.674369	-0.767530	-0.164719
C293	C	1.007703	-0.434197	0.168614
C294	C	1.341036	-0.100863	0.501948
N295	N	0.676478	-0.794537	-0.229702
N296	N	1.009811	-0.461204	0.103631
N297	N	1.343145	-0.127870	0.436964
H298	H	0.664380	-0.639978	0.142320
H299	H	0.997713	-0.306645	0.475653
H300	H	1.331046	0.026689	0.808987
H301	H	0.615609	0.130797	0.622543
H302	H	0.948943	0.464130	0.955876
H303	H	1.282276	0.797463	1.289209
H304	H	-0.141952	-0.023982	0.000059
H305	H	0.191381	0.309351	0.333392
H306	H	0.524715	0.642684	0.666726
H307	H	0.663451	-0.471593	0.220771
H308	H	0.996784	-0.138260	0.554105
H309	H	1.330118	0.195074	0.887438
H310	H	0.587658	0.158707	0.377524
H311	H	0.920992	0.492040	0.710858
H312	H	1.254325	0.825373	1.044191
C313	C	0.664016	-0.354532	0.243191
C314	C	0.997349	-0.021199	0.576524
C315	C	1.330682	0.312134	0.909858
N316	N	0.661901	-0.327539	0.308187
N317	N	0.995235	0.005794	0.641521
N318	N	1.328568	0.339127	0.974854
C319	C	0.131908	-0.087576	0.000097
C320	C	0.465241	0.245757	0.333430
C321	C	0.798575	0.579090	0.666764
N322	N	0.113182	-0.130898	0.000128
N323	N	0.446515	0.202436	0.333461
N324	N	0.779848	0.535769	0.666795
H325	H	0.593729	0.152630	0.213208
H326	H	0.927062	0.485963	0.546541
H327	H	1.260396	0.819297	0.879874
C328	C	0.761541	-0.015005	0.799811
C329	C	1.094874	0.318329	1.133144
C330	C	1.428207	0.651662	1.466477
N331	N	0.792426	-0.045870	0.837337
N332	N	1.125760	0.287464	1.170670
N333	N	1.459093	0.620797	1.504004
C334	C	0.734697	0.011779	0.471740
C335	C	1.068030	0.345112	0.805073
C336	C	1.401364	0.678446	1.138407
N337	N	0.768352	-0.021861	0.434213
N338	N	1.101686	0.311472	0.767546
N339	N	1.435019	0.644806	1.100879
C340	C	0.668741	-0.208936	0.164776
C341	C	1.002074	0.124398	0.498109
C342	C	1.335408	0.457731	0.831442
N343	N	0.666030	-0.231144	0.229766
N344	N	0.999363	0.102189	0.563100
N345	N	1.332696	0.435522	0.896433
C346	C	0.256623	-0.086084	0.000076
C347	C	0.589957	0.247249	0.333409
C348	C	0.923290	0.580583	0.666743
N349	N	0.287088	-0.128818	0.000075
N350	N	0.620422	0.204515	0.333408
N351	N	0.953755	0.537849	0.666742
H352	H	0.404516	-0.017445	0.000049
H353	H	0.737849	0.315888	0.333382
H354	H	1.071183	0.649221	0.666715
C355	C	0.493026	0.187197	-0.000009
C356	C	0.826359	0.520530	0.333324
C357	C	1.159692	0.853863	0.666657
N358	N	0.511754	0.230518	-0.000015
N359	N	0.845087	0.563851	0.333318
N360	N	1.178420	0.897184	0.666652
H361	H	0.621523	0.124885	0.515400
H362	H	0.954856	0.458219	0.848733
H363	H	1.288190	0.791552	1.182066
C364	C	0.368304	0.185706	0.000007
C365	C	0.701638	0.519039	0.333340
C366	C	1.034971	0.852372	0.666673
N367	N	0.337837	0.228438	-0.000002
N368	N	0.671170	0.561771	0.333331
N369	N	1.004503	0.895104	0.666664
H370	H	0.206233	0.220911	0.000026
H371	H	0.539566	0.554244	0.333359
H372	H	0.872900	0.887577	0.666693
C373	C	-0.053431	0.180656	0.000013
C374	C	0.279902	0.513990	0.333346
C375	C	0.613236	0.847323	0.666679
N376	N	-0.034699	0.223975	0.000006
N377	N	0.298635	0.557308	0.333339
N378	N	0.631968	0.890642	0.666673
C379	C	0.087973	0.234354	0.000037
C380	C	0.421306	0.567687	0.333371
C381	C	0.754639	0.901020	0.666704
N382	N	0.057502	0.277084	0.000029
N383	N	0.390835	0.610417	0.333363
N384	N	0.724169	0.943750	0.666696
C385	C	-0.178175	0.179158	0.000025
C386	C	0.155159	0.512491	0.333359
C387	C	0.488492	0.845825	0.666692
N388	N	-0.208660	0.221879	0.000029
N389	N	0.124674	0.555213	0.333362
N390	N	0.458007	0.888546	0.666695
C391	C	0.670238	-0.084192	0.164779
C392	C	1.003572	0.249142	0.498112
C393	C	1.336905	0.582475	0.831445
N394	N	0.668114	-0.057183	0.229762
N395	N	1.001447	0.276151	0.563095
N396	N	1.334781	0.609484	0.896428
C397	C	0.680964	-0.221048	-0.164681
C398	C	1.014297	0.112285	0.168652
C399	C	1.347631	0.445618	0.501985
N400	N	0.683089	-0.248038	-0.229682
N401	N	1.016423	0.085295	0.103652
N402	N	1.349756	0.418628	0.436985
H403	H	0.681536	-0.103989	-0.142246
H404	H	1.014869	0.229344	0.191088
H405	H	1.348202	0.562678	0.524421
H406	H	0.681142	-0.380111	-0.220711
H407	H	1.014476	-0.046777	0.112622
H408	H	1.347809	0.286556	0.445956
H409	H	0.674944	-0.650452	-0.142304
H410	H	1.008277	-0.317119	0.191030
H411	H	1.341610	0.016215	0.524363
H412	H	0.735082	0.011397	0.213226
H413	H	1.068416	0.344731	0.546560
H414	H	1.401749	0.678064	0.879893
C415	C	0.680595	-0.497168	-0.243138
C416	C	1.013928	-0.163834	0.090195
C417	C	1.347262	0.169499	0.423528
N418	N	0.682741	-0.524159	-0.308140
N419	N	1.016075	-0.190826	0.025193
N420	N	1.349408	0.142508	0.358526
H421	H	0.729005	0.017474	0.377534
H422	H	1.062338	0.350807	0.710867
H423	H	1.395671	0.684140	1.044201
C424	C	0.768568	-0.022042	0.609613
C425	C	1.101902	0.311291	0.942946
C426	C	1.435235	0.644624	1.276279
N427	N	0.802229	-0.055684	0.572100
N428	N	1.135562	0.277649	0.905434
N429	N	1.468896	0.610982	1.238767
