data_functionalizedCrystal
_audit_creation_method	'MofGen! by Chris Wilmer'
_symmetry_space_group_name_H-M	'P1'
_symmetry_Int_Tables_number	1
_symmetry_cell_setting	triclinic
loop_
_symmetry_equiv_pos_as_xyz
  x,y,z
_cell_length_a	17.699104
_cell_length_b	11.026607
_cell_length_c	16.776229
_cell_angle_alpha	89.996140
_cell_angle_beta	89.991971
_cell_angle_gamma	95.938767
loop_
_atom_site_label
_atom_site_type_symbol
_atom_site_fract_x
_atom_site_fract_y
_atom_site_fract_z
O1	O	1.025161	0.153522	-0.066302
O2	O	1.525161	0.653522	0.433698
O3	O	0.807523	0.173453	-0.066300
O4	O	1.307523	0.673453	0.433700
O5	O	0.898305	-0.013115	-0.066298
O6	O	1.398305	0.486885	0.433702
O7	O	0.934380	0.340089	-0.066304
O8	O	1.434380	0.840089	0.433696
O9	O	0.898288	-0.013126	0.066278
O10	O	1.398288	0.486874	0.566278
O11	O	0.807506	0.173442	0.066276
O12	O	1.307506	0.673442	0.566276
O13	O	1.025144	0.153510	0.066274
O14	O	1.525144	0.653510	0.566274
Zn15	Zn	0.916323	0.163474	0.087324
Zn16	Zn	1.416323	0.663474	0.587324
Zn17	Zn	0.916345	0.163489	-0.087351
Zn18	Zn	1.416345	0.663489	0.412649
O19	O	0.934363	0.340078	0.066272
O20	O	1.434363	0.840078	0.566272
C21	C	0.779220	0.172729	-0.000012
C22	C	1.279220	0.672729	0.499988
C23	C	0.694906	0.170573	-0.000011
C24	C	1.194906	0.670573	0.499989
C25	C	0.183411	0.267929	-0.000021
C26	C	0.683411	0.767929	0.499979
C27	C	0.262632	0.269947	-0.000023
C28	C	0.762632	0.769947	0.499977
C29	C	0.296202	0.160425	-0.000021
C30	C	0.796202	0.660425	0.499979
C31	C	0.250547	0.048877	-0.000025
C32	C	0.750547	0.548877	0.499975
C33	C	0.171327	0.046860	-0.000028
C34	C	0.671327	0.546860	0.499972
C35	C	0.570030	0.057008	-0.000012
C36	C	1.070030	0.557008	0.499988
C37	C	0.649255	0.059033	-0.000007
C38	C	1.149255	0.559033	0.499993
C39	C	0.661335	0.280094	-0.000007
C40	C	1.161335	0.780094	0.499993
C41	C	0.582115	0.278078	-0.000011
C42	C	1.082115	0.778078	0.499989
C43	C	0.536467	0.166531	-0.000019
C44	C	1.036467	0.666531	0.499981
C45	C	0.450566	0.164344	-0.000018
C46	C	0.950566	0.664344	0.499982
C47	C	0.382101	0.162610	-0.000017
C48	C	0.882101	0.662610	0.499983
C49	C	0.891641	-0.058312	-0.000011
C50	C	1.391641	0.441688	0.499989
C51	C	0.871801	-0.192970	-0.000014
C52	C	1.371801	0.307030	0.499986
C53	C	0.926582	-0.266931	-0.000015
C54	C	1.426582	0.233069	0.499985
C55	C	0.906078	-0.406107	-0.000018
C56	C	1.406078	0.093893	0.499982
C57	C	1.053448	0.154234	-0.000016
C58	C	1.553448	0.654234	0.499984
C59	C	1.137762	0.156390	-0.000022
C60	C	1.637762	0.656390	0.499978
C61	C	0.941027	0.385276	-0.000017
C62	C	1.441027	0.885276	0.499983
C63	C	0.960866	0.519934	-0.000020
C64	C	1.460866	1.019934	0.499980
N65	N	0.916313	0.163463	0.206536
N66	N	1.416313	0.663463	0.706536
N67	N	0.916360	0.163491	-0.206562
N68	N	1.416360	0.663491	0.293438
C69	C	0.956531	0.080885	0.248254
C70	C	1.456531	0.580885	0.748254
C71	C	0.956535	0.080884	0.331706
C72	C	1.456535	0.580884	0.831706
C73	C	0.916325	0.163468	0.373439
C74	C	1.416325	0.663468	0.873439
C75	C	0.876102	0.246050	0.331715
C76	C	1.376102	0.746050	0.831715
C77	C	0.876094	0.246044	0.248264
C78	C	1.376094	0.746044	0.748264
C79	C	0.876132	0.246074	0.668262
C80	C	1.376132	0.746074	1.168262
C81	C	0.876145	0.246076	0.751718
C82	C	1.376145	0.746076	1.251718
C83	C	0.956574	0.080913	0.751704
C84	C	1.456574	0.580913	1.251704
C85	C	0.956566	0.080908	0.668253
C86	C	1.456566	0.580908	1.168253
C87	C	0.916340	0.163485	0.626537
C88	C	1.416340	0.663485	1.126537
C89	C	0.916335	0.163484	0.536048
C90	C	1.416335	0.663484	1.036048
C91	C	0.916334	0.163476	0.463925
C92	C	1.416334	0.663476	0.963925
H93	H	0.134160	-0.043966	-0.000031
H94	H	0.634160	0.456034	0.499969
Cl95	Cl	0.141217	0.405623	-0.000017
Cl96	Cl	0.641217	0.905623	0.499983
Cl97	Cl	0.512653	-0.083223	-0.000041
Cl98	Cl	1.012653	0.416777	0.499959
H99	H	1.022949	-0.440358	-0.000080
H100	H	1.522949	0.059642	0.499920
Cl101	Cl	1.022430	-0.205624	-0.000021
Cl102	Cl	1.522430	0.294376	0.499979
Cl103	Cl	0.775953	-0.254277	-0.000021
Cl104	Cl	1.275953	0.245723	0.499979
H105	H	0.843343	0.313287	0.214298
H106	H	1.343343	0.813287	0.714298
Cl107	Cl	0.718726	0.420328	-0.000003
Cl108	Cl	1.218726	0.920328	0.499997
H109	H	0.843399	0.313328	0.785696
H110	H	1.343399	0.813328	1.285696
H111	H	0.989325	0.013670	0.785678
H112	H	1.489325	0.513670	1.285678
H113	H	0.989279	0.013640	0.214280
H114	H	1.489279	0.513640	0.714280
H115	H	0.989283	0.013641	0.365672
H116	H	1.489283	0.513641	0.865672
Cl117	Cl	0.320017	0.410174	-0.000026
Cl118	Cl	0.820017	0.910174	0.499974
H119	H	0.554787	0.367262	-0.000008
H120	H	1.054787	0.867262	0.499992
Cl121	Cl	0.810226	-0.467408	-0.000025
Cl122	Cl	1.310226	0.032592	0.499975
H123	H	0.989312	0.013664	0.634277
H124	H	1.489312	0.513664	1.134277
Cl125	Cl	0.292749	-0.088809	-0.000024
Cl126	Cl	0.792749	0.411191	0.499976
H127	H	0.843380	0.313313	0.634303
H128	H	1.343380	0.813313	1.134303
H129	H	0.676585	-0.030159	-0.000007
H130	H	1.176585	0.469841	0.499993
H131	H	0.843357	0.313288	0.365698
H132	H	1.343357	0.813288	0.865698
