data_functionalizedCrystal
_audit_creation_method	'MofGen! by Chris Wilmer'
_symmetry_space_group_name_H-M	'P1'
_symmetry_Int_Tables_number	1
_symmetry_cell_setting	triclinic
loop_
_symmetry_equiv_pos_as_xyz
  x,y,z
_cell_length_a	21.395362
_cell_length_b	29.839131
_cell_length_c	21.395355
_cell_angle_alpha	89.979828
_cell_angle_beta	89.956060
_cell_angle_gamma	90.057297
loop_
_atom_site_label
_atom_site_type_symbol
_atom_site_fract_x
_atom_site_fract_y
_atom_site_fract_z
Zn1	Zn	0.957813	-0.178715	-0.354578
Zn2	Zn	1.457813	0.321285	0.145422
Zn3	Zn	0.957696	-0.253830	-0.249798
Zn4	Zn	1.457696	0.246170	0.250202
Zn5	Zn	0.853028	-0.178736	-0.249780
Zn6	Zn	1.353028	0.321264	0.250220
Zn7	Zn	0.852977	-0.253840	-0.354503
Zn8	Zn	1.352977	0.246160	0.145497
O9	O	0.905378	-0.216280	-0.302165
O10	O	1.405378	0.283720	0.197835
O11	O	1.045475	-0.188667	-0.340718
O12	O	1.545475	0.311333	0.159282
O13	O	0.943783	-0.243874	-0.162117
O14	O	1.443783	0.256126	0.337883
O15	O	0.866998	-0.115866	-0.263706
O16	O	1.366998	0.384134	0.236294
O17	O	1.045389	-0.243853	-0.263737
O18	O	1.545389	0.256147	0.236263
O19	O	0.943983	-0.115851	-0.340701
O20	O	1.443983	0.384149	0.159299
O21	O	0.866884	-0.188702	-0.162104
O22	O	1.366884	0.311298	0.337896
O23	O	0.765343	-0.188711	-0.263632
O24	O	1.265343	0.311289	0.236368
O25	O	0.866912	-0.243869	-0.442191
O26	O	1.366912	0.256131	0.057809
O27	O	0.765306	-0.243889	-0.340571
O28	O	1.265306	0.256111	0.159429
O29	O	0.943934	-0.188676	-0.442246
O30	O	1.443934	0.311324	0.057754
O31	O	0.943735	-0.316699	-0.263663
O32	O	1.443735	0.183301	0.236337
O33	O	0.866798	-0.316705	-0.340589
O34	O	1.366798	0.183295	0.159411
C35	C	0.742591	-0.216304	-0.302092
C36	C	1.242591	0.283696	0.197908
C37	C	0.672950	-0.216325	-0.302076
C38	C	1.172950	0.283675	0.197924
C39	C	0.640233	-0.245094	-0.342078
C40	C	1.140233	0.254906	0.157922
C41	C	0.574798	-0.245083	-0.342106
C42	C	1.074798	0.254917	0.157894
C43	C	0.542081	-0.216308	-0.302120
C44	C	1.042081	0.283692	0.197880
C45	C	0.574805	-0.187533	-0.262115
C46	C	1.074805	0.312467	0.237885
C47	C	0.640239	-0.187541	-0.262093
C48	C	1.140239	0.312459	0.237907
C49	C	0.438357	-0.212688	-0.245715
C50	C	0.938357	0.287312	0.254285
C51	C	0.372925	-0.212683	-0.245736
C52	C	0.872925	0.287317	0.254264
C53	C	0.340261	-0.216278	-0.302189
C54	C	0.840261	0.283722	0.197811
C55	C	0.373038	-0.219889	-0.358623
C56	C	0.873038	0.280111	0.141377
C57	C	0.438472	-0.219897	-0.358601
C58	C	0.938472	0.280103	0.141399
C59	C	0.471129	-0.216295	-0.302140
C60	C	0.971129	0.283705	0.197860
C61	C	0.236592	-0.245037	-0.342226
C62	C	0.736592	0.254963	0.157774
C63	C	0.171155	-0.245023	-0.342254
C64	C	0.671155	0.254977	0.157746
C65	C	0.171164	-0.187475	-0.262258
C66	C	0.671164	0.312525	0.237742
C67	C	0.236599	-0.187487	-0.262235
C68	C	0.736599	0.312513	0.237765
C69	C	0.269309	-0.216270	-0.302218
C70	C	0.769309	0.283730	0.197782
C71	C	0.905265	-0.333003	-0.302133
C72	C	1.405265	0.166997	0.197867
C73	C	0.905274	-0.382937	-0.302141
C74	C	1.405274	0.117063	0.197859
C75	C	0.945512	-0.692564	-0.262168
C76	C	1.445512	-0.192564	0.237832
C77	C	0.945589	-0.880237	-0.262192
C78	C	1.445589	-0.380237	0.237808
O79	O	0.979711	-0.904488	-0.228181
O80	O	1.479711	-0.404488	0.271819
N81	N	0.905508	-0.903722	-0.302212
N82	N	1.405508	-0.403722	0.197788
C83	C	0.865408	-0.880286	-0.342231
C84	C	1.365408	-0.380286	0.157769
O85	O	0.831323	-0.904567	-0.376276
O86	O	1.331323	-0.404567	0.123724
C87	C	0.865334	-0.692614	-0.342210
C88	C	1.365334	-0.192614	0.157790
C89	C	0.905414	-0.669131	-0.302183
C90	C	1.405414	-0.169131	0.197817
C91	C	0.985588	-0.669082	-0.222145
C92	C	1.485588	-0.169082	0.277855
C93	C	0.985566	-0.622166	-0.222136
C94	C	1.485566	-0.122166	0.277864
C95	C	0.945468	-0.598733	-0.262152
C96	C	1.445468	-0.098733	0.237848
C97	C	0.905391	-0.622216	-0.302175
C98	C	1.405391	-0.122216	0.197825
C99	C	0.825238	-0.669178	-0.382232
C100	C	1.325238	-0.169178	0.117768
C101	C	0.825224	-0.622257	-0.382224
C102	C	1.325224	-0.122257	0.117776
C103	C	0.865303	-0.598775	-0.342197
C104	C	1.365303	-0.098775	0.157803
C105	C	0.865271	-0.551867	-0.342182
C106	C	1.365271	-0.051867	0.157818
N107	N	0.905352	-0.528383	-0.302162
N108	N	1.405352	-0.028383	0.197838
C109	C	0.945450	-0.551816	-0.262147
C110	C	1.445450	-0.051816	0.237853
C111	C	0.865449	-0.978816	-0.342239
C112	C	1.365449	-0.478816	0.157761
C113	C	0.865466	-1.025734	-0.342244
C114	C	1.365466	-0.525734	0.157756
C115	C	0.945649	-1.025683	-0.262205
C116	C	1.445649	-0.525683	0.237795
C117	C	0.945627	-0.978764	-0.262198
C118	C	1.445627	-0.478764	0.237802
C119	C	0.905530	-0.955332	-0.302219
C120	C	1.405530	-0.455332	0.197781
C121	C	0.945400	-0.453290	-0.262132
C122	C	1.445400	0.046710	0.237868
C123	C	0.945373	-0.406370	-0.262126
C124	C	1.445373	0.093630	0.237874
C125	C	0.865193	-0.406426	-0.342167
C126	C	1.365193	0.093574	0.157833
C127	C	0.865218	-0.453342	-0.342171
C128	C	1.365218	0.046658	0.157829
C129	C	0.905327	-0.476772	-0.302152
C130	C	1.405327	0.023228	0.197848
O131	O	0.831172	-0.527587	-0.376180
O132	O	1.331172	-0.027587	0.123820
O133	O	0.979540	-0.527526	-0.228117
O134	O	1.479540	-0.027526	0.271883
C135	C	0.945534	-0.739480	-0.262176
C136	C	1.445534	-0.239480	0.237824
C137	C	0.905458	-0.762962	-0.302199
C138	C	1.405458	-0.262962	0.197801
C139	C	0.865359	-0.739529	-0.342214
C140	C	1.365359	-0.239529	0.157786
C141	C	0.905475	-0.809880	-0.302204
C142	C	1.405475	-0.309880	0.197796
C143	C	0.945574	-0.833313	-0.262189
C144	C	1.445574	-0.333313	0.237811
C145	C	0.985655	-0.809828	-0.222169
C146	C	1.485655	-0.309828	0.277831
C147	C	0.985633	-0.762913	-0.222161
C148	C	1.485633	-0.262913	0.277839
C149	C	0.825278	-0.763014	-0.382234
C150	C	1.325278	-0.263014	0.117766
C151	C	0.825303	-0.809929	-0.382238
C152	C	1.325303	-0.309929	0.117762
C153	C	0.865402	-0.833362	-0.342223
C154	C	1.365402	-0.333362	0.157777
C155	C	1.068802	-0.216257	-0.302238
C156	C	1.568802	0.283743	0.197762
C157	C	1.138443	-0.216247	-0.302269
C158	C	1.638443	0.283753	0.197731
C159	C	0.905431	-0.216271	-0.465588
C160	C	1.405431	0.283729	0.034412
C161	C	0.905453	-0.216267	-0.535229
C162	C	1.405453	0.283733	-0.035229
C163	C	0.905509	-0.099102	-0.302210
C164	C	1.405509	0.400898	0.197790
C165	C	0.905565	-0.049167	-0.302229
C166	C	1.405565	0.450833	0.197771
C167	C	0.945556	-0.187527	-0.567972
C168	C	1.445556	0.312473	-0.067972
C169	C	0.945556	-0.187507	-0.633408
C170	C	1.445556	0.312493	-0.133408
C171	C	0.905458	-0.216237	-0.666098
C172	C	1.405458	0.283763	-0.166098
C173	C	0.865346	-0.244979	-0.633347
C174	C	1.365346	0.255021	-0.133347
C175	C	0.865344	-0.244994	-0.567912
C176	C	1.365344	0.255006	-0.067912
C177	C	0.900471	-0.256689	-0.769760
C178	C	1.400471	0.243311	-0.269760
C179	C	0.900478	-0.256674	-0.835193
C180	C	1.400478	0.243326	-0.335193
C181	C	0.905461	-0.216189	-0.867918
C182	C	1.405461	0.283811	-0.367918
C183	C	0.910451	-0.175717	-0.835203
C184	C	1.410451	0.324283	-0.335203
C185	C	0.910449	-0.175733	-0.769769
C186	C	1.410449	0.324267	-0.269769
C187	C	0.905455	-0.216223	-0.737050
C188	C	1.405455	0.283777	-0.237050
C189	C	0.945566	-0.187425	-0.971614
C190	C	1.445566	0.312575	-0.471614
C191	C	0.945561	-0.187405	-1.037051
C192	C	1.445561	0.312595	-0.537051
C193	C	0.865355	-0.244881	-1.036988
C194	C	1.365355	0.255119	-0.536988
C195	C	0.865357	-0.244897	-0.971553
C196	C	1.365357	0.255103	-0.471553
C197	C	0.905466	-0.216170	-0.938870
C198	C	1.405466	0.283830	-0.438870
C199	C	0.905363	-0.216257	-0.139377
C200	C	1.405363	0.283743	0.360623
C201	C	0.905462	-0.216134	-0.069736
C202	C	1.405462	0.283866	0.430264
H203	H	0.666862	-0.268532	-0.374636
H204	H	1.166862	0.231468	0.125364
H205	H	0.792661	-0.829045	-0.414832
H206	H	1.292661	-0.329045	0.085168
H207	H	0.978211	-0.164101	-0.660072
H208	H	1.478211	0.335899	-0.160072
C209	C	0.785950	-0.411178	-0.421295
C210	C	1.285950	0.088822	0.078705
C211	C	0.821125	-0.380663	-0.386157
C212	C	1.321125	0.119337	0.113843
H213	H	0.758745	-0.395271	-0.448454
H214	H	1.258745	0.104729	0.051546
H215	H	0.813246	-0.429447	-0.445291
H216	H	1.313246	0.070553	0.054709
H217	H	0.761995	-0.429508	-0.393969
H218	H	1.261995	0.070492	0.106031
H219	H	0.845083	-0.362336	-0.413483
H220	H	1.345083	0.137664	0.086517
H221	H	0.793825	-0.362387	-0.362159
H222	H	1.293825	0.137613	0.137841
H223	H	0.832795	-0.959741	-0.374830
H224	H	1.332795	-0.459741	0.125170
H225	H	0.548163	-0.164102	-0.229560
H226	H	1.048163	0.335898	0.270440
C227	C	0.746019	-0.767787	-0.461338
C228	C	1.246019	-0.267787	0.038662
C229	C	0.781192	-0.737261	-0.426216
C230	C	1.281192	-0.237261	0.073784
H231	H	0.718796	-0.751889	-0.488487
H232	H	1.218796	-0.251889	0.011513
H233	H	0.773315	-0.786049	-0.485343
H234	H	1.273315	-0.286049	0.014657
H235	H	0.722085	-0.786122	-0.434000
H236	H	1.222085	-0.286122	0.066000
H237	H	0.805131	-0.718928	-0.453554
H238	H	1.305131	-0.218928	0.046446
H239	H	0.753893	-0.718991	-0.402209
H240	H	1.253893	-0.218991	0.097791
C241	C	0.150965	-0.165481	-0.156221
C242	C	0.650965	0.334519	0.343779
C243	C	0.135221	-0.155842	-0.218296
C244	C	0.635221	0.344158	0.281704
H245	H	0.128778	-0.145949	-0.129080
H246	H	0.628778	0.354051	0.370920
H247	H	0.140172	-0.195651	-0.146985
H248	H	0.640172	0.304349	0.353015
H249	H	0.194621	-0.161374	-0.150499
H250	H	0.694621	0.338626	0.349501
H251	H	0.091565	-0.159953	-0.224019
H252	H	0.591565	0.340047	0.275981
H253	H	0.146009	-0.125666	-0.227535
H254	H	0.646009	0.374334	0.272465
H255	H	0.144519	-0.268450	-0.374833
H256	H	0.644519	0.231550	0.125167
C257	C	0.740547	-0.162004	-0.226540
C258	C	1.240547	0.337996	0.273460
C259	C	0.676206	-0.155918	-0.218117
C260	C	1.176206	0.344082	0.281883
H261	H	0.762751	-0.142479	-0.199392
H262	H	1.262751	0.357521	0.300608
H263	H	0.751204	-0.192177	-0.217287
H264	H	1.251204	0.307823	0.282713
H265	H	0.751323	-0.155475	-0.268652
H266	H	1.251323	0.344525	0.231348
H267	H	0.665429	-0.162450	-0.176005
H268	H	1.165429	0.337550	0.323995
H269	H	0.665544	-0.125737	-0.227365
H270	H	1.165544	0.374263	0.272635
H271	H	0.263237	-0.164062	-0.229657
H272	H	0.763237	0.335938	0.270343
H273	H	0.978010	-0.387252	-0.229529
H274	H	1.478010	0.112748	0.270471
C275	C	0.920297	-0.095707	-0.776344
C276	C	1.420297	0.404293	-0.276344
C277	C	0.915924	-0.131248	-0.733808
C278	C	1.415924	0.368752	-0.233808
H279	H	0.923671	-0.068245	-0.754141
H280	H	1.423671	0.431755	-0.254141
H281	H	0.956201	-0.099642	-0.801888
H282	H	1.456201	0.400358	-0.301888
H283	H	0.883979	-0.095128	-0.801842
H284	H	1.383979	0.404872	-0.301842
H285	H	0.952245	-0.131830	-0.708312
H286	H	1.452245	0.368170	-0.208312
H287	H	0.880016	-0.127313	-0.708252
H288	H	1.380016	0.372687	-0.208252
C289	C	0.829757	-0.270386	-1.137263
C290	C	1.329757	0.229614	-0.637263
C291	C	0.821285	-0.276466	-1.072914
C292	C	1.321285	0.223534	-0.572914
H293	H	0.802552	-0.289889	-1.159442
H294	H	1.302552	0.210111	-0.659442
H295	H	0.820613	-0.240205	-1.147980
H296	H	1.320613	0.259795	-0.647980
H297	H	0.871852	-0.276948	-1.148008
H298	H	1.371852	0.223052	-0.648008
H299	H	0.779191	-0.269901	-1.062168
H300	H	1.279191	0.230099	-0.562168
H301	H	0.830424	-0.306654	-1.062192
H302	H	1.330424	0.193346	-0.562192
C303	C	1.024648	-0.448513	-0.183009
C304	C	1.524648	0.051487	0.316991
C305	C	0.989483	-0.479040	-0.218139
C306	C	1.489483	0.020960	0.281861
H307	H	1.051857	-0.464411	-0.155845
H308	H	1.551857	0.035589	0.344155
H309	H	1.048591	-0.430184	-0.210336
H310	H	1.548591	0.069816	0.289664
H311	H	0.997341	-0.430246	-0.159014
H312	H	1.497341	0.069754	0.340986
H313	H	1.016790	-0.497305	-0.242138
H314	H	1.516790	0.002695	0.257862
H315	H	0.965538	-0.497377	-0.190808
H316	H	1.465538	0.002623	0.309192
C317	C	0.458345	-0.244729	-0.144739
C318	C	0.958345	0.255271	0.355261
C319	C	0.474263	-0.208742	-0.183658
C320	C	0.974263	0.291258	0.316342
H321	H	0.480516	-0.242294	-0.106432
H322	H	0.980516	0.257706	0.393568
H323	H	0.414691	-0.244203	-0.136674
H324	H	0.914691	0.255797	0.363326
H325	H	0.469045	-0.272097	-0.164714
H326	H	0.969045	0.227903	0.335286
H327	H	0.463559	-0.181375	-0.163685
H328	H	0.963559	0.318625	0.336315
H329	H	0.517927	-0.209264	-0.191722
H330	H	1.017927	0.290736	0.308278
C331	C	1.029861	-0.181191	-0.898100
C332	C	1.529861	0.318809	-0.398100
C333	C	0.989652	-0.155847	-0.935687
C334	C	1.489652	0.344153	-0.435687
H335	H	1.057080	-0.161696	-0.875925
H336	H	1.557080	0.338304	-0.375925
H337	H	1.005979	-0.198308	-0.869232
H338	H	1.505979	0.301692	-0.369232
H339	H	1.053800	-0.200754	-0.923654
H340	H	1.553800	0.299246	-0.423654
H341	H	0.965710	-0.136286	-0.910132
H342	H	1.465710	0.363714	-0.410132
H343	H	1.013536	-0.138723	-0.964558
H344	H	1.513536	0.361277	-0.464558
H345	H	1.018204	-0.603050	-0.189545
H346	H	1.518204	-0.103050	0.310455
C347	C	1.064831	-0.664306	-0.143025
C348	C	1.564831	-0.164306	0.356975
C349	C	1.029666	-0.694834	-0.178151
C350	C	1.529666	-0.194834	0.321849
H351	H	1.092039	-0.680203	-0.115858
H352	H	1.592039	-0.180203	0.384142
H353	H	1.088777	-0.645979	-0.170354
H354	H	1.588777	-0.145979	0.329646
H355	H	1.037525	-0.646036	-0.119032
H356	H	1.537525	-0.146036	0.380968
H357	H	1.056972	-0.713102	-0.202147
H358	H	1.556972	-0.213102	0.297853
H359	H	1.005719	-0.713168	-0.150818
H360	H	1.505719	-0.213168	0.349182
H361	H	0.792598	-0.688290	-0.414823
H362	H	1.292598	-0.188290	0.085177
H363	H	0.346444	-0.222815	-0.404593
H364	H	0.846444	0.277185	0.095407
H365	H	1.018303	-0.828916	-0.189585
H366	H	1.518303	-0.328916	0.310415
C367	C	1.024882	-0.983436	-0.183084
C368	C	1.524882	-0.483436	0.316916
C369	C	0.989687	-0.952954	-0.218203
C370	C	1.489687	-0.452954	0.281797
H371	H	1.052087	-0.967503	-0.155926
H372	H	1.552087	-0.467503	0.344074
H373	H	0.997600	-1.001766	-0.159088
H374	H	1.497600	-0.501766	0.340912
H375	H	1.048838	-1.001708	-0.210423
H376	H	1.548838	-0.501708	0.289577
H377	H	0.965727	-0.934685	-0.190865
H378	H	1.465727	-0.434685	0.309135
H379	H	1.016973	-0.934617	-0.242201
H380	H	1.516973	-0.434617	0.257799
H381	H	0.914510	-0.142751	-0.861847
H382	H	1.414510	0.357249	-0.361847
C383	C	1.024835	-0.130713	-0.574612
C384	C	1.524835	0.369287	-0.074612
C385	C	0.989637	-0.155945	-0.532048
C386	C	1.489637	0.344055	-0.032048
H387	H	1.052045	-0.111213	-0.552431
H388	H	1.552045	0.388787	-0.052431
H389	H	1.048780	-0.150278	-0.600147
H390	H	1.548780	0.349722	-0.100147
H391	H	0.997550	-0.113528	-0.600117
H392	H	1.497550	0.386472	-0.100117
H393	H	1.016922	-0.173132	-0.506545
H394	H	1.516922	0.326868	-0.006545
H395	H	0.965690	-0.136378	-0.506502
H396	H	1.465690	0.363622	-0.006502
H397	H	0.978217	-0.163998	-1.063709
H398	H	1.478217	0.336002	-0.563709
C399	C	0.501118	-0.305514	-0.350674
C400	C	1.001118	0.194486	0.149326
C401	C	0.538828	-0.276710	-0.386079
C402	C	1.038828	0.223290	0.113921
H403	H	0.478912	-0.325037	-0.377823
H404	H	0.978912	0.174963	0.122177
H405	H	0.526587	-0.322669	-0.323328
H406	H	1.026587	0.177331	0.176672
H407	H	0.472272	-0.288367	-0.326869
H408	H	0.972272	0.211633	0.173131
H409	H	0.567677	-0.293857	-0.409881
H410	H	1.067677	0.206143	0.090119
H411	H	0.513357	-0.259553	-0.413436
H412	H	1.013357	0.240447	0.086564
C413	C	0.981341	-1.097585	-0.226750
C414	C	1.481341	-0.597585	0.273250
C415	C	0.989773	-1.051446	-0.218267
C416	C	1.489773	-0.551446	0.281733
H417	H	1.008599	-1.113491	-0.199644
H418	H	1.508599	-0.613491	0.300356
H419	H	0.939271	-1.105328	-0.217480
H420	H	1.439271	-0.605328	0.282520
H421	H	0.990445	-1.105228	-0.268880
H422	H	1.490445	-0.605228	0.231120
H423	H	0.980665	-1.043803	-0.176138
H424	H	1.480665	-0.543803	0.323862
H425	H	1.031852	-1.043700	-0.227533
H426	H	1.531852	-0.543700	0.272467
C427	C	0.458787	-0.187868	-0.459562
C428	C	0.958787	0.312132	0.040438
C429	C	0.474500	-0.223858	-0.420630
C430	C	0.974500	0.276142	0.079370
H431	H	0.481032	-0.190311	-0.497855
H432	H	0.981032	0.309689	0.002145
H433	H	0.415148	-0.188382	-0.467655
H434	H	0.915148	0.311618	0.032345
H435	H	0.469534	-0.160502	-0.439582
H436	H	0.969534	0.339498	0.060418
H437	H	0.463748	-0.251223	-0.440608
H438	H	0.963748	0.248777	0.059392
H439	H	0.518148	-0.223348	-0.412538
H440	H	1.018148	0.276652	0.087462
H441	H	0.263226	-0.268472	-0.374785
H442	H	0.763226	0.231528	0.125215
C443	C	0.838672	-0.322324	-0.749548
C444	C	1.338672	0.177676	-0.249548
C445	C	0.894940	-0.301180	-0.733765
C446	C	1.394940	0.198820	-0.233765
H447	H	0.835244	-0.349786	-0.727320
H448	H	1.335244	0.150214	-0.227320
H449	H	0.804636	-0.303406	-0.738832
H450	H	1.304636	0.196594	-0.238832
H451	H	0.837982	-0.328125	-0.793195
H452	H	1.337982	0.171875	-0.293195
H453	H	0.895628	-0.295375	-0.690117
H454	H	1.395628	0.204625	-0.190117
H455	H	0.928985	-0.320101	-0.744476
H456	H	1.428985	0.179899	-0.244476
C457	C	0.299218	-0.246666	-0.175509
C458	C	0.799218	0.253334	0.324491
C459	C	0.336904	-0.208721	-0.183703
C460	C	0.836904	0.291279	0.316297
H461	H	0.276987	-0.244222	-0.137208
H462	H	0.776987	0.255778	0.362792
H463	H	0.270401	-0.248805	-0.209125
H464	H	0.770401	0.251195	0.290875
H465	H	0.324712	-0.272705	-0.174625
H466	H	0.824712	0.227295	0.325375
H467	H	0.311410	-0.182683	-0.184591
H468	H	0.811410	0.317317	0.315409
H469	H	0.365725	-0.206578	-0.150078
H470	H	0.865725	0.293422	0.349922
C471	C	0.786082	-0.301707	-0.978066
C472	C	1.286082	0.198293	-0.478066
C473	C	0.821278	-0.276494	-0.935557
C474	C	1.321278	0.223506	-0.435557
H475	H	0.758869	-0.321215	-0.955842
H476	H	1.258869	0.178785	-0.455842
H477	H	0.762140	-0.282131	-1.003570
H478	H	1.262140	0.217869	-0.503570
H479	H	0.813368	-0.318882	-1.003608
H480	H	1.313368	0.181118	-0.503608
H481	H	0.793991	-0.259317	-0.910018
H482	H	1.293991	0.240683	-0.410018
H483	H	0.845221	-0.296072	-0.910043
H484	H	1.345221	0.203928	-0.410043
H485	H	0.832824	-1.044850	-0.374832
H486	H	1.332824	-0.544850	0.125168
H487	H	0.792573	-0.603181	-0.414816
H488	H	1.292573	-0.103181	0.085184
H489	H	0.832696	-0.268369	-0.659967
H490	H	1.332696	0.231631	-0.159967
C491	C	0.856496	-0.506086	-0.426446
C492	C	1.356496	-0.006086	0.073554
C493	C	0.821161	-0.479159	-0.386162
C494	C	1.321161	0.020841	0.113838
H495	H	0.829298	-0.522025	-0.453604
H496	H	1.329298	-0.022025	0.046396
H497	H	0.883765	-0.487746	-0.450441
H498	H	1.383765	0.012254	0.049559
H499	H	0.880380	-0.526755	-0.402610
H500	H	1.380380	-0.026755	0.097390
H501	H	0.797279	-0.458488	-0.409998
H502	H	1.297279	0.041512	0.090002
H503	H	0.793880	-0.497501	-0.362165
H504	H	1.293880	0.002499	0.137835
C505	C	0.945204	-0.329009	-0.855351
C506	C	1.445204	0.170991	-0.355351
C507	C	0.894997	-0.301163	-0.871143
C508	C	1.394997	0.198837	-0.371143
H509	H	0.941818	-0.356477	-0.877540
H510	H	1.441818	0.143523	-0.377540
H511	H	0.983358	-0.314639	-0.866108
H512	H	1.483358	0.185361	-0.366108
H513	H	0.944480	-0.334803	-0.811696
H514	H	1.444480	0.165197	-0.311696
H515	H	0.895724	-0.295366	-0.914798
H516	H	1.395724	0.204634	-0.414798
H517	H	0.856833	-0.315536	-0.860390
H518	H	1.356833	0.184464	-0.360390
H519	H	1.018269	-0.743797	-0.189567
H520	H	1.518269	-0.243797	0.310433
C521	C	0.786068	-0.301807	-0.574425
C522	C	1.286068	0.198193	-0.074425
C523	C	0.821265	-0.276593	-0.531917
C524	C	1.321265	0.223407	-0.031917
H525	H	0.758861	-0.321318	-0.552200
H526	H	1.258861	0.178682	-0.052200
H527	H	0.762121	-0.282231	-0.599924
H528	H	1.262121	0.217769	-0.099924
H529	H	0.813354	-0.318979	-0.599971
H530	H	1.313354	0.181021	-0.099971
H531	H	0.793979	-0.259420	-0.506374
H532	H	1.293979	0.240580	-0.006374
H533	H	0.845214	-0.296172	-0.506407
H534	H	1.345214	0.203828	-0.006407
