data_functionalizedCrystal
_audit_creation_method	'MofGen! by Chris Wilmer'
_symmetry_space_group_name_H-M	'P1'
_symmetry_Int_Tables_number	1
_symmetry_cell_setting	triclinic
loop_
_symmetry_equiv_pos_as_xyz
  x,y,z
_cell_length_a	16.974897
_cell_length_b	13.339070
_cell_length_c	15.455313
_cell_angle_alpha	93.394339
_cell_angle_beta	83.675220
_cell_angle_gamma	99.482345
loop_
_atom_site_label
_atom_site_type_symbol
_atom_site_fract_x
_atom_site_fract_y
_atom_site_fract_z
O1	O	1.082547	0.119883	-0.148039
O2	O	1.582547	0.619883	0.351961
O3	O	0.855391	0.137262	-0.132112
O4	O	1.355391	0.637262	0.367888
O5	O	0.942899	-0.018544	-0.138245
O6	O	1.442899	0.481456	0.361755
O7	O	0.995039	0.275689	-0.141906
O8	O	1.495039	0.775689	0.358094
O9	O	0.937887	-0.009671	0.006368
O10	O	1.437887	0.490329	0.506368
O11	O	0.850379	0.146135	0.012501
O12	O	1.350379	0.646135	0.512501
O13	O	1.077535	0.128756	-0.003426
O14	O	1.577535	0.628756	0.496574
Cu15	Cu	0.963499	0.138256	0.017742
Cu16	Cu	1.463499	0.638256	0.517742
Cu17	Cu	0.969427	0.127762	-0.153280
Cu18	Cu	1.469427	0.627762	0.346720
O19	O	0.990027	0.284562	0.002707
O20	O	1.490027	0.784562	0.502707
C21	C	0.823218	0.141200	-0.057725
C22	C	1.323218	0.641200	0.442275
C23	C	0.734815	0.139701	-0.051527
C24	C	1.234815	0.639701	0.448473
C25	C	0.696009	0.134163	-0.127437
C26	C	1.196009	0.634163	0.372563
C27	C	0.612947	0.132772	-0.121600
C28	C	1.112947	0.632772	0.378400
C29	C	0.568692	0.136912	-0.039852
C30	C	1.068692	0.636912	0.460148
C31	C	0.607505	0.142454	0.036064
C32	C	1.107505	0.642454	0.536064
C33	C	0.690566	0.143852	0.030226
C34	C	1.190566	0.643852	0.530226
C35	C	0.319984	0.133256	-0.013941
C36	C	0.819984	0.633256	0.486059
C37	C	0.236917	0.131854	-0.008109
C38	C	0.736917	0.631854	0.491891
C39	C	0.242366	0.122175	-0.165773
C40	C	0.742366	0.622175	0.334227
C41	C	0.325427	0.123567	-0.171604
C42	C	0.825427	0.623567	0.328396
C43	C	0.364233	0.129114	-0.095688
C44	C	0.864233	0.629114	0.404312
N45	N	0.483790	0.135487	-0.033884
N46	N	0.983790	0.635487	0.466116
N47	N	0.449135	0.130546	-0.101657
N48	N	0.949135	0.630546	0.398343
C49	C	0.931585	-0.051748	-0.065322
C50	C	1.431585	0.448252	0.434678
C51	C	0.905332	-0.163902	-0.063485
C52	C	1.405332	0.336098	0.436515
C53	C	1.109463	-0.529843	-0.077797
C54	C	1.609463	-0.029843	0.422203
C55	C	1.134131	-0.424468	-0.079519
C56	C	1.634131	0.075532	0.420481
C57	C	1.076933	-0.359322	-0.075511
C58	C	1.576933	0.140678	0.424489
C59	C	0.995063	-0.399560	-0.069780
C60	C	1.495063	0.100440	0.430220
C61	C	0.970392	-0.504944	-0.068052
C62	C	1.470392	-0.004944	0.431948
C63	C	0.937863	-0.334423	-0.065765
C64	C	1.437863	0.165577	0.434235
C65	C	0.855993	-0.374661	-0.060035
C66	C	1.355993	0.125339	0.439965
C67	C	0.831326	-0.480035	-0.058307
C68	C	1.331326	0.019965	0.441693
C69	C	0.888524	-0.545182	-0.062315
C70	C	1.388524	-0.045182	0.437685
C71	C	0.962534	-0.229039	-0.067494
C72	C	1.462534	0.270961	0.432506
C73	C	0.823464	-0.204140	-0.057748
C74	C	1.323464	0.295860	0.442252
C75	C	0.798795	-0.309514	-0.056027
C76	C	1.298795	0.190486	0.443973
C77	C	1.109709	0.124818	-0.077815
C78	C	1.609709	0.624818	0.422185
C79	C	1.198111	0.126316	-0.084019
C80	C	1.698111	0.626316	0.415981
C81	C	1.001341	0.317765	-0.070218
C82	C	1.501341	0.817765	0.429782
C83	C	1.027594	0.429919	-0.072061
C84	C	1.527594	0.929919	0.427939
N85	N	0.959336	0.145636	0.138029
N86	N	1.459336	0.645636	0.638029
N87	N	0.973595	0.120374	-0.273568
N88	N	1.473595	0.620374	0.226432
C89	C	0.996536	0.079468	0.180816
C90	C	1.496536	0.579468	0.680816
C91	C	0.993396	0.085058	0.271844
C92	C	1.493396	0.585058	0.771844
C93	C	0.953062	0.156822	0.320083
C94	C	1.453062	0.656822	0.820083
C95	C	0.915857	0.222993	0.277290
C96	C	1.415857	0.722993	0.777290
C97	C	0.918992	0.217397	0.186264
C98	C	1.418992	0.717397	0.686264
C99	C	0.939525	0.180949	0.592613
C100	C	1.439525	0.680949	1.092613
C101	C	0.936395	0.186542	0.683645
C102	C	1.436395	0.686542	1.183645
C103	C	1.013933	0.048605	0.678193
C104	C	1.513933	0.548605	1.178193
C105	C	1.017068	0.043020	0.587165
C106	C	1.517068	0.543020	1.087165
C107	C	0.979860	0.109187	0.544381
C108	C	1.479860	0.609187	1.044381
N109	N	0.949854	0.162540	0.413128
N110	N	1.449854	0.662540	0.913128
N111	N	0.983063	0.103463	0.451338
N112	N	1.483063	0.603463	0.951338
H113	H	0.581355	0.128263	-0.183415
H114	H	1.081355	0.628263	0.316585
C115	C	0.374100	0.118996	-0.261533
C116	C	0.874100	0.618996	0.238467
N117	N	0.410758	0.115543	-0.329268
N118	N	0.910758	0.615543	0.170732
H119	H	0.351569	0.137766	0.047876
H120	H	0.851569	0.637766	0.547876
C121	C	1.172370	-0.601509	-0.082200
C122	C	1.672370	-0.101509	0.417800
N123	N	1.219756	-0.655490	-0.085515
N124	N	1.719756	-0.155490	0.414485
H125	H	0.883011	0.281422	0.316572
H126	H	1.383011	0.781422	0.816572
C127	C	0.199673	0.116083	-0.249275
C128	C	0.699673	0.616083	0.250725
N129	N	0.167518	0.111499	-0.312172
N130	N	0.667518	0.611499	0.187828
C131	C	0.861392	-0.661101	-0.060412
C132	C	1.361392	-0.161101	0.439588
N133	N	0.840958	-0.748414	-0.058973
N134	N	1.340958	-0.248414	0.441027
H135	H	0.903548	0.244985	0.722918
H136	H	1.403548	0.744985	1.222918
H137	H	0.776888	-0.151097	-0.054480
H138	H	1.276888	0.348903	0.445520
C139	C	1.104072	-0.243407	-0.077411
C140	C	1.604072	0.256593	0.422589
N141	N	1.124517	-0.156097	-0.078848
N142	N	1.624517	0.343903	0.421152
C143	C	0.898726	0.253867	0.545553
C144	C	1.398726	0.753867	1.045553
N145	N	0.868042	0.308838	0.510101
N146	N	1.368042	0.808838	1.010101
C147	C	0.741266	-0.524293	-0.051995
C148	C	1.241266	-0.024293	0.448005
N149	N	0.673433	-0.557626	-0.047241
N150	N	1.173433	-0.057626	0.452759
H151	H	0.732135	-0.342291	-0.051360
H152	H	1.232135	0.157709	0.448640
H153	H	0.888699	0.271277	0.151428
H154	H	1.388699	0.771277	0.651428
H155	H	0.200890	0.135254	0.058463
H156	H	0.700890	0.635254	0.558463
C157	C	0.733252	0.149941	0.113734
C158	C	1.233252	0.649941	0.613734
N159	N	0.765402	0.154529	0.176634
N160	N	1.265402	0.654529	0.676634
C161	C	0.744682	0.129608	-0.217367
C162	C	1.244682	0.629608	0.282633
N163	N	0.781340	0.126180	-0.285105
N164	N	1.281340	0.626180	0.214895
C165	C	1.034295	0.012243	0.318907
C166	C	1.534295	0.512243	0.818907
N167	N	1.065092	-0.042614	0.354355
N168	N	1.565092	0.457386	0.854355
C169	C	1.040907	0.000521	0.127761
C170	C	1.540907	0.500521	0.627761
N171	N	1.074325	-0.058948	0.087803
N172	N	1.574325	0.441052	0.587803
H173	H	0.571467	0.145830	0.102625
H174	H	1.071467	0.645830	0.602625
H175	H	1.049912	-0.015416	0.547891
H176	H	1.549912	0.484584	1.047891
C177	C	1.224185	-0.380214	-0.085823
C178	C	1.724185	0.119786	0.414177
N179	N	1.292019	-0.346882	-0.090573
N180	N	1.792019	0.153118	0.409427
H181	H	1.029193	-0.196288	-0.072159
H182	H	1.529193	0.303712	0.427841
C183	C	1.054851	-0.024182	0.725264
C184	C	1.554851	0.475818	1.225264
N185	N	1.085668	-0.079012	0.760719
N186	N	1.585668	0.420988	1.260719
