data_functionalizedCrystal
_audit_creation_method	'MofGen! by Chris Wilmer'
_symmetry_space_group_name_H-M	'P1'
_symmetry_Int_Tables_number	1
_symmetry_cell_setting	triclinic
loop_
_symmetry_equiv_pos_as_xyz
  x,y,z
_cell_length_a	16.959455
_cell_length_b	16.625546
_cell_length_c	16.959455
_cell_angle_alpha	90.011449
_cell_angle_beta	90.005786
_cell_angle_gamma	90.019415
loop_
_atom_site_label
_atom_site_type_symbol
_atom_site_fract_x
_atom_site_fract_y
_atom_site_fract_z
Zn1	Zn	1.208304	-0.321217	0.446898
Zn2	Zn	1.708304	0.178783	0.946898
Zn3	Zn	1.208241	-0.456015	0.314715
Zn4	Zn	1.708241	0.043985	0.814715
Zn5	Zn	1.076152	-0.321193	0.314736
Zn6	Zn	1.576152	0.178807	0.814736
Zn7	Zn	1.076092	-0.456004	0.446854
Zn8	Zn	1.576092	0.043996	0.946854
O9	O	1.142197	-0.388607	0.380801
O10	O	1.642197	0.111393	0.880801
O11	O	1.318906	-0.339113	0.429374
O12	O	1.818906	0.160887	0.929374
O13	O	1.190718	-0.438126	0.204107
O14	O	1.690718	0.061874	0.704107
O15	O	1.093734	-0.208364	0.332294
O16	O	1.593734	0.291636	0.832294
O17	O	1.318860	-0.438149	0.332259
O18	O	1.818860	0.061851	0.832259
O19	O	1.190826	-0.208381	0.429393
O20	O	1.690826	0.291619	0.929393
O21	O	1.093673	-0.339072	0.204122
O22	O	1.593673	0.160928	0.704122
O23	O	0.965533	-0.339061	0.332251
O24	O	1.465533	0.160939	0.832251
O25	O	1.093631	-0.438129	0.557470
O26	O	1.593631	0.061871	1.057470
O27	O	0.965489	-0.438106	0.429318
O28	O	1.465489	0.061894	0.929318
O29	O	1.190767	-0.339102	0.557503
O30	O	1.690767	0.160898	1.057503
O31	O	1.190659	-0.568846	0.332216
O32	O	1.690659	-0.068846	0.832216
O33	O	1.093570	-0.568838	0.429298
O34	O	1.593570	-0.068838	0.929298
C35	C	0.936831	-0.388581	0.380782
C36	C	1.436831	0.111419	0.880782
C37	C	0.848974	-0.388589	0.380793
C38	C	1.348974	0.111411	0.880793
C39	C	1.142122	-0.598098	0.380767
C40	C	1.642122	-0.098098	0.880767
C41	C	1.142163	-0.687719	0.380780
C42	C	1.642163	-0.187719	0.880780
C43	C	0.477497	-0.336992	0.330364
C44	C	0.977497	0.163008	0.830364
C45	C	0.477500	-0.440288	0.431283
C46	C	0.977500	0.059712	0.931283
C47	C	0.560046	-0.440277	0.431278
C48	C	1.060046	0.059723	0.931278
C49	C	0.601321	-0.388623	0.380814
C50	C	1.101321	0.111377	0.880814
C51	C	0.560051	-0.336981	0.330355
C52	C	1.060051	0.163019	0.830355
C53	C	0.601322	-0.491924	0.481730
C54	C	1.101322	0.008076	0.981730
C55	C	0.683873	-0.491915	0.481727
C56	C	1.183873	0.008085	0.981727
C57	C	0.725150	-0.440257	0.431267
C58	C	1.225150	0.059743	0.931267
C59	C	0.683875	-0.388612	0.380806
C60	C	1.183875	0.111388	0.880806
C61	C	0.725150	-0.336958	0.330343
C62	C	1.225150	0.163042	0.830343
C63	C	0.683876	-0.285308	0.279886
C64	C	1.183876	0.214692	0.779886
C65	C	0.601328	-0.285322	0.279895
C66	C	1.101328	0.214678	0.779895
C67	C	0.807699	-0.440242	0.431257
C68	C	1.307699	0.059758	0.931257
C69	C	0.807704	-0.336946	0.330335
C70	C	1.307704	0.163054	0.830335
C71	C	1.142300	-1.015895	0.380862
C72	C	1.642300	-0.515895	0.880862
C73	C	1.142260	-0.924586	0.380841
C74	C	1.642260	-0.424586	0.880841
C75	C	1.142231	-0.851810	0.380821
C76	C	1.642231	-0.351810	0.880821
C77	C	1.142191	-0.760496	0.380801
C78	C	1.642191	-0.260496	0.880801
C79	C	1.348365	-0.388634	0.380819
C80	C	1.848365	0.111366	0.880819
C81	C	1.436222	-0.388646	0.380827
C82	C	1.936222	0.111354	0.880827
C83	C	1.142199	-0.388617	0.586969
C84	C	1.642199	0.111383	1.086969
C85	C	1.142200	-0.388621	0.674825
C86	C	1.642200	0.111379	1.174825
C87	C	1.142294	-0.178298	0.380851
C88	C	1.642294	0.321702	0.880851
C89	C	1.142335	-0.088677	0.380873
C90	C	1.642335	0.411323	0.880873
C91	C	1.091627	-0.440183	0.716084
C92	C	1.591627	0.059817	1.216084
C93	C	1.192769	-0.337058	0.716120
C94	C	1.692769	0.162942	1.216120
C95	C	1.192769	-0.337057	0.798666
C96	C	1.692769	0.162943	1.298666
C97	C	1.142196	-0.388618	0.839925
C98	C	1.642196	0.111382	1.339925
C99	C	1.091624	-0.440181	0.798637
C100	C	1.591624	0.059819	1.298637
C101	C	1.243335	-0.285489	0.839960
C102	C	1.743335	0.214511	1.339960
C103	C	1.243335	-0.285485	0.922511
C104	C	1.743335	0.214515	1.422511
C105	C	1.192766	-0.337051	0.963771
C106	C	1.692766	0.162949	1.463771
C107	C	1.142192	-0.388617	0.922478
C108	C	1.642192	0.111383	1.422478
C109	C	1.091620	-0.440179	0.963737
C110	C	1.591620	0.059821	1.463737
C111	C	1.041049	-0.491749	0.922446
C112	C	1.541049	0.008251	1.422446
C113	C	1.041054	-0.491748	0.839897
C114	C	1.541054	0.008252	1.339897
C115	C	1.192761	-0.337053	1.046319
C116	C	1.692761	0.162947	1.546319
C117	C	1.091616	-0.440178	1.046290
C118	C	1.591616	0.059822	1.546290
C119	C	1.142189	-0.388617	1.175434
C120	C	1.642189	0.111383	1.675434
C121	C	1.142188	-0.388615	1.087578
C122	C	1.642188	0.111385	1.587578
H123	H	0.841305	-0.294878	0.289245
H124	H	1.341305	0.205122	0.789245
Br125	Br	1.023002	-0.510171	0.660050
Br126	Br	1.523002	-0.010171	1.160050
H127	H	1.284505	-0.243507	0.806361
H128	H	1.784505	0.256493	1.306361
Br129	Br	0.421487	-0.266893	0.261896
Br130	Br	0.921487	0.233107	0.761896
H131	H	0.567710	-0.533983	0.522809
H132	H	1.067710	-0.033983	1.022809
Br133	Br	1.311983	-0.215518	0.978541
Br134	Br	1.811983	0.284482	1.478541
Br135	Br	0.739881	-0.562008	0.550203
Br136	Br	1.239881	-0.062008	1.050203
H137	H	1.050436	-0.482169	1.079877
H138	H	1.550436	0.017831	1.579877
Br139	Br	0.863710	-0.510339	0.499721
Br140	Br	1.363710	-0.010339	0.999721
H141	H	1.233940	-0.295075	0.682523
H142	H	1.733940	0.204925	1.182523
Br143	Br	0.545309	-0.215232	0.211425
Br144	Br	1.045309	0.284768	0.711425
Br145	Br	0.972410	-0.561716	0.978449
Br146	Br	1.472410	-0.061716	1.478449
Br147	Br	0.972424	-0.561724	0.783856
Br148	Br	1.472424	-0.061724	1.283856
H149	H	1.233928	-0.295059	1.079935
H150	H	1.733928	0.204941	1.579935
H151	H	0.717494	-0.243255	0.238795
H152	H	1.217494	0.256745	0.738795
H153	H	0.443888	-0.482347	0.472363
H154	H	0.943888	0.017653	0.972363
