data_functionalizedCrystal
_audit_creation_method	'MofGen! by Chris Wilmer'
_symmetry_space_group_name_H-M	'P1'
_symmetry_Int_Tables_number	1
_symmetry_cell_setting	triclinic
loop_
_symmetry_equiv_pos_as_xyz
  x,y,z
_cell_length_a	15.944499
_cell_length_b	14.421503
_cell_length_c	12.811415
_cell_angle_alpha	95.426546
_cell_angle_beta	83.761523
_cell_angle_gamma	90.010221
loop_
_atom_site_label
_atom_site_type_symbol
_atom_site_fract_x
_atom_site_fract_y
_atom_site_fract_z
O1	O	1.115024	0.088526	0.135094
O2	O	0.870526	0.089923	0.151841
O3	O	0.998925	0.076372	-0.009324
O4	O	0.986625	0.102077	0.296259
O5	O	0.998903	-0.077849	-0.009300
O6	O	0.870505	-0.064298	0.151865
O7	O	1.115002	-0.065696	0.135118
Cu8	Cu	0.992751	-0.079078	0.143494
Cu9	Cu	0.992777	0.103306	0.143465
O10	O	0.986604	-0.052145	0.296283
C11	C	0.839218	0.012754	0.151167
C12	C	0.745963	0.012577	0.149111
N13	N	0.992740	-0.207358	0.143513
C14	C	0.454751	0.020467	0.242744
C15	C	0.515622	0.092413	0.194060
C16	C	0.410300	0.011970	0.141644
C17	C	0.515587	-0.059639	0.194056
C18	C	0.575222	0.012267	0.145318
C19	C	0.469944	0.083977	0.092932
C20	C	0.469902	-0.068142	0.092942
C21	C	0.530756	0.003817	0.044184
C22	C	0.315293	0.011800	0.139530
C23	C	0.670228	0.012443	0.147424
C24	C	0.933358	-0.450749	0.218002
C25	C	1.009330	-0.510835	0.238361
C26	C	0.992760	-0.396522	0.143488
C27	C	0.916808	-0.520527	0.123153
C28	C	0.992773	-0.579245	0.143466
C29	C	1.068771	-0.455244	0.163894
C30	C	0.976199	-0.464933	0.048645
C31	C	1.052226	-0.524995	0.068964
C32	C	0.992752	-0.291259	0.143503
C33	C	0.992790	-0.684505	0.143450
C34	C	1.146310	0.011476	0.135792
C35	C	1.239565	0.011659	0.137848
C36	C	0.998224	-0.004026	-0.048415
C37	C	0.996159	-0.013821	-0.164931
N38	N	0.992795	0.231585	0.143438
C39	C	0.992286	0.135924	-0.383892
C40	C	0.990346	0.126725	-0.493370
C41	C	0.990331	-0.041418	-0.493364
C42	C	0.992272	-0.032218	-0.383887
C43	C	0.993250	0.056455	-0.329155
C44	C	0.995197	0.065653	-0.219677
C45	C	0.995177	-0.102488	-0.219673
C46	C	0.993236	-0.111687	-0.329150
C47	C	0.987304	0.028256	0.335374
C48	C	0.989369	0.038057	0.451890
H49	H	0.421711	0.027598	0.326646
C50	C	0.830034	-0.559187	0.099919
H51	H	0.836490	-0.600683	0.037353
H52	H	0.793561	-0.509185	0.090848
H53	H	0.806523	-0.591560	0.157227
H54	H	0.995996	0.137856	-0.175116
C55	C	1.120165	-0.568542	-0.016176
H56	H	1.174067	-0.546018	-0.001562
H57	H	1.108855	-0.552077	-0.083368
H58	H	1.119498	-0.634406	-0.016102
H59	H	0.535877	0.160293	0.236814
H60	H	0.993090	0.208125	-0.339330
C61	C	0.989300	0.214140	-0.553580
H62	H	0.990170	0.268265	-0.505302
H63	H	0.939623	0.214724	-0.588284
H64	H	1.037479	0.213369	-0.604292
H65	H	0.449826	0.144743	0.050200
H66	H	0.449629	-0.136025	0.050226
H67	H	0.995965	-0.167198	-0.175094
H68	H	0.563642	-0.003207	-0.039794
H69	H	0.962155	-0.444484	-0.031526
H70	H	0.535801	-0.120325	0.236844
H71	H	0.992436	-0.183883	-0.373727
H72	H	0.883174	-0.418348	0.281066
H73	H	1.023350	-0.531261	0.318558
H74	H	1.133023	-0.426733	0.181180
C75	C	0.989258	-0.138947	-0.553582
H76	H	0.987970	-0.133040	-0.626622
H77	H	0.940653	-0.171322	-0.527631
H78	H	1.038508	-0.172646	-0.543657
