data_functionalizedCrystal
_audit_creation_method	'MofGen! by Chris Wilmer'
_symmetry_space_group_name_H-M	'P1'
_symmetry_Int_Tables_number	1
_symmetry_cell_setting	triclinic
loop_
_symmetry_equiv_pos_as_xyz
  x,y,z
_cell_length_a	15.995350
_cell_length_b	15.995350
_cell_length_c	12.996460
_cell_angle_alpha	89.998059
_cell_angle_beta	90.002563
_cell_angle_gamma	83.492375
loop_
_atom_site_label
_atom_site_type_symbol
_atom_site_fract_x
_atom_site_fract_y
_atom_site_fract_z
O1	O	1.110988	0.107921	0.085474
O2	O	1.444322	0.441254	0.418808
O3	O	1.777655	0.774588	0.752141
O4	O	0.867213	0.121248	0.085495
O5	O	1.200546	0.454582	0.418828
O6	O	1.533880	0.787915	0.752162
O7	O	0.995764	-0.007303	0.085483
O8	O	1.329098	0.326030	0.418817
O9	O	1.662431	0.659364	0.752150
O10	O	0.982437	0.236472	0.085486
O11	O	1.315770	0.569806	0.418820
O12	O	1.649104	0.903139	0.752153
O13	O	0.995748	-0.007296	-0.085651
O14	O	1.329081	0.326038	0.247683
O15	O	1.662415	0.659371	0.581016
O16	O	0.867196	0.121256	-0.085639
O17	O	1.200530	0.454589	0.247695
O18	O	1.533863	0.787923	0.581028
O19	O	1.110972	0.107928	-0.085659
O20	O	1.444305	0.441262	0.247674
O21	O	1.777638	0.774595	0.581007
Cu22	Cu	0.989083	0.114593	-0.101275
Cu23	Cu	1.322416	0.447926	0.232058
Cu24	Cu	1.655749	0.781259	0.565392
Cu25	Cu	0.989102	0.114584	0.101111
Cu26	Cu	1.322435	0.447917	0.434444
Cu27	Cu	1.655769	0.781251	0.767777
O28	O	0.982420	0.236480	-0.085648
O29	O	1.315754	0.569813	0.247686
O30	O	1.649087	0.903146	0.581019
C31	C	0.836010	0.120701	-0.000069
C32	C	1.169343	0.454034	0.333264
C33	C	1.502677	0.787368	0.666598
C34	C	0.743060	0.119049	-0.000061
C35	C	1.076393	0.452383	0.333272
C36	C	1.409726	0.785716	0.666606
C37	C	0.995205	-0.038494	-0.000082
C38	C	1.328538	0.294839	0.333252
C39	C	1.661872	0.628173	0.666585
C40	C	0.993553	-0.131444	-0.000076
C41	C	1.326887	0.201889	0.333258
C42	C	1.660220	0.535222	0.666591
C43	C	0.405312	0.113117	-0.000083
C44	C	0.738645	0.446450	0.333251
C45	C	1.071979	0.779784	0.666584
C46	C	0.452746	0.021565	-0.000466
C47	C	0.786079	0.354899	0.332868
C48	C	1.119413	0.688232	0.666201
C49	C	0.549436	0.023217	-0.000073
C50	C	0.882770	0.356551	0.333261
C51	C	1.216103	0.689884	0.666594
C52	C	0.572873	0.116060	-0.000073
C53	C	0.906206	0.449393	0.333261
C54	C	1.239539	0.782726	0.666594
C55	C	0.531795	0.161212	0.097650
C56	C	0.865128	0.494545	0.430983
C57	C	1.198462	0.827879	0.764316
C58	C	0.435159	0.158912	0.097724
C59	C	0.768493	0.492245	0.431058
C60	C	1.101826	0.825579	0.764391
C61	C	0.434801	0.160812	-0.096887
C62	C	0.768135	0.494145	0.236446
C63	C	1.101468	0.827479	0.569780
C64	C	0.531747	0.160790	-0.098171
C65	C	0.865080	0.494124	0.235162
C66	C	1.198413	0.827457	0.568495
C67	C	0.667570	0.117727	-0.000063
C68	C	1.000903	0.451061	0.333270
C69	C	1.334237	0.784394	0.666603
C70	C	0.310614	0.111452	-0.000085
C71	C	0.643948	0.444785	0.333248
C72	C	0.977281	0.778119	0.666582
C73	C	0.987621	-0.469192	-0.000079
C74	C	1.320954	-0.135859	0.333255
C75	C	1.654288	0.197475	0.666588
C76	C	0.896069	-0.421758	0.000313
C77	C	1.229403	-0.088425	0.333646
C78	C	1.562736	0.244909	0.666980
C79	C	0.897721	-0.325068	-0.000073
C80	C	1.231055	0.008266	0.333260
C81	C	1.564388	0.341599	0.666594
C82	C	0.990564	-0.301631	-0.000077
C83	C	1.323897	0.031702	0.333257
C84	C	1.657230	0.365035	0.666590
C85	C	1.035711	-0.342705	-0.097804
C86	C	1.369044	-0.009371	0.235529
C87	C	1.702377	0.323962	0.568862
C88	C	1.033411	-0.439340	-0.097886
C89	C	1.366744	-0.106007	0.235447
C90	C	1.700078	0.227326	0.568781
C91	C	1.035321	-0.439707	0.096725
C92	C	1.368654	-0.106374	0.430058
C93	C	1.701988	0.226960	0.763392
C94	C	1.035299	-0.342762	0.098017
C95	C	1.368633	-0.009428	0.431350
C96	C	1.701966	0.323905	0.764683
C97	C	0.992231	-0.206934	-0.000079
C98	C	1.325565	0.126399	0.333254
C99	C	1.658898	0.459733	0.666588
C100	C	0.985956	-0.563890	-0.000083
C101	C	1.319289	-0.230556	0.333250
C102	C	1.652623	0.102777	0.666583
C103	C	1.142175	0.108476	-0.000093
C104	C	1.475508	0.441809	0.333241
C105	C	1.808841	0.775142	0.666574
C106	C	1.235125	0.110127	-0.000094
C107	C	1.568458	0.443461	0.333239
C108	C	1.901792	0.776794	0.666573
C109	C	0.982980	0.267671	-0.000080
C110	C	1.316313	0.601004	0.333253
C111	C	1.649646	0.934337	0.666586
C112	C	0.984631	0.360621	-0.000080
C113	C	1.317965	0.693954	0.333254
C114	C	1.651298	1.027288	0.666587
N115	N	0.989075	0.114598	-0.243622
N116	N	1.322408	0.447932	0.089711
N117	N	1.655742	0.781265	0.423045
C118	C	0.989079	0.114601	-0.336728
C119	C	1.322412	0.447934	-0.003395
C120	C	1.655745	0.781267	0.329939
C121	C	0.989086	0.114595	-0.453533
C122	C	1.322420	0.447928	-0.120200
C123	C	1.655753	0.781262	0.213134
C124	C	0.989097	0.114586	-0.546631
C125	C	1.322430	0.447919	-0.213298
C126	C	1.655764	0.781252	0.120035
C127	C	0.989106	0.114581	-0.663444
C128	C	1.322439	0.447914	-0.330111
C129	C	1.655773	0.781248	0.003223
N130	N	0.989116	0.114572	0.243458
N131	N	1.322450	0.447905	0.576791
N132	N	1.655783	0.781238	0.910124
H133	H	0.577858	-0.012275	-0.070124
H134	H	0.911192	0.321058	0.263209
H135	H	1.244525	0.654392	0.596542
F136	F	0.851002	-0.288638	-0.091787
F137	F	1.184335	0.044695	0.241547
F138	F	1.517669	0.378029	0.574880
H139	H	0.859484	-0.440293	0.070396
H140	H	1.192817	-0.106959	0.403729
H141	H	1.526150	0.226374	0.737062
F142	F	1.123549	-0.481221	0.097582
F143	F	1.456882	-0.147888	0.430916
F144	F	1.790215	0.185445	0.764249
H145	H	0.559056	0.127830	-0.170466
H146	H	0.892390	0.461163	0.162867
H147	H	1.225723	0.794496	0.496201
H148	H	0.545920	0.229421	0.101283
H149	H	0.879254	0.562754	0.434617
H150	H	1.212587	0.896087	0.767950
F151	F	0.992487	-0.306761	0.192527
F152	F	1.325820	0.026572	0.525861
F153	F	1.659154	0.359906	0.859194
F154	F	0.996200	-0.466549	0.193543
F155	F	1.329534	-0.133215	0.526876
F156	F	1.662867	0.200118	0.860210
F157	F	0.990359	-0.463260	-0.193365
F158	F	1.323692	-0.129926	0.139968
F159	F	1.657026	0.203407	0.473301
H160	H	1.100627	-0.471588	-0.102323
H161	H	1.433960	-0.138255	0.231011
H162	H	1.767293	0.195078	0.564344
F163	F	0.393006	0.246766	0.103522
F164	F	0.726339	0.580099	0.436855
F165	F	1.059673	0.913432	0.770188
F166	F	0.411235	0.115865	0.193205
F167	F	0.744569	0.449199	0.526538
F168	F	1.077902	0.782532	0.859871
H169	H	0.434217	-0.015027	-0.070546
H170	H	0.767551	0.318306	0.262787
H171	H	1.100884	0.651639	0.596121
F172	F	0.585836	-0.023306	0.091794
F173	F	0.919170	0.310028	0.425127
F174	F	1.252503	0.643361	0.758460
H175	H	0.560176	0.129845	0.170376
H176	H	0.893510	0.463178	0.503710
H177	H	1.226843	0.796512	0.837043
H178	H	0.547111	0.228494	-0.104074
H179	H	0.880445	0.561827	0.229260
H180	H	1.213778	0.895161	0.562593
F181	F	0.393288	0.249040	-0.097752
F182	F	0.726622	0.582373	0.235582
F183	F	1.059955	0.915707	0.568915
H184	H	0.433159	-0.014865	0.069228
H185	H	0.766492	0.318468	0.402561
H186	H	1.099826	0.651802	0.735894
H187	H	0.414259	0.130885	-0.170958
H188	H	0.747592	0.464218	0.162375
H189	H	1.080926	0.797551	0.495709
F190	F	0.851334	-0.287919	0.091494
F191	F	1.184667	0.045414	0.424827
F192	F	1.518001	0.378747	0.758161
H193	H	0.859632	-0.441349	-0.069373
H194	H	1.192966	-0.108016	0.263960
H195	H	1.526299	0.225318	0.597293
H196	H	1.103919	-0.328579	-0.101441
H197	H	1.437253	0.004755	0.231892
H198	H	1.770586	0.338088	0.565225
H199	H	1.004340	-0.314320	-0.170527
H200	H	1.337674	0.019013	0.162806
H201	H	1.671007	0.352347	0.496139
F202	F	1.123794	-0.322679	0.105732
F203	F	1.457128	0.010654	0.439065
F204	F	1.790461	0.343988	0.772399
