data_functionalizedCrystal
_audit_creation_method	'MofGen! by Chris Wilmer'
_symmetry_space_group_name_H-M	'P1'
_symmetry_Int_Tables_number	1
_symmetry_cell_setting	triclinic
loop_
_symmetry_equiv_pos_as_xyz
  x,y,z
_cell_length_a	18.215407
_cell_length_b	13.897448
_cell_length_c	18.215399
_cell_angle_alpha	89.973672
_cell_angle_beta	89.980167
_cell_angle_gamma	90.018140
loop_
_atom_site_label
_atom_site_type_symbol
_atom_site_fract_x
_atom_site_fract_y
_atom_site_fract_z
Zn1	Zn	1.125109	-0.384013	-0.416124
Zn2	Zn	1.125033	-0.545323	-0.293061
Zn3	Zn	1.002041	-0.384045	-0.293072
Zn4	Zn	1.002023	-0.545269	-0.416086
O5	O	1.063551	-0.464663	-0.354586
O6	O	1.228083	-0.405421	-0.399811
O7	O	1.108693	-0.523965	-0.190078
O8	O	1.018406	-0.249059	-0.309415
O9	O	1.228027	-0.523934	-0.309398
O10	O	1.108823	-0.249036	-0.399821
O11	O	1.018332	-0.405474	-0.190086
O12	O	0.899055	-0.405422	-0.309378
O13	O	1.018374	-0.523843	-0.519076
O14	O	0.899041	-0.523873	-0.399757
O15	O	1.108805	-0.405369	-0.519103
O16	O	1.108675	-0.680297	-0.309361
O17	O	1.018300	-0.680258	-0.399747
C18	C	0.872345	-0.464646	-0.354565
C19	C	0.790546	-0.464662	-0.354573
C20	C	0.602364	-0.526437	-0.401574
C21	C	0.525506	-0.526440	-0.401583
C22	C	0.525490	-0.402906	-0.307614
C23	C	0.602348	-0.402899	-0.307609
C24	C	0.640783	-0.464670	-0.354588
C25	C	0.487067	-0.464680	-0.354602
C26	C	0.403733	-0.464683	-0.354612
C27	C	0.724122	-0.464666	-0.354579
C28	C	1.063498	-0.715277	-0.354565
C29	C	1.063542	-0.822491	-0.354580
C30	C	1.063619	-1.018786	-0.354626
C31	C	1.063574	-0.909553	-0.354603
C32	C	1.255504	-0.464680	-0.354607
C33	C	1.337303	-0.464687	-0.354617
C34	C	1.063596	-0.464596	-0.546539
C35	C	1.063615	-0.464568	-0.628338
C36	C	1.063625	-0.213070	-0.354623
C37	C	1.063657	-0.105856	-0.354639
C38	C	1.110720	-0.402821	-0.816547
C39	C	1.110728	-0.402792	-0.893406
C40	C	1.016563	-0.526166	-0.893366
C41	C	1.016551	-0.526188	-0.816509
C42	C	1.063634	-0.464517	-0.778101
C43	C	1.063654	-0.464466	-0.931818
C44	C	1.063663	-0.464436	-1.015151
C45	C	1.063624	-0.464546	-0.694762
C46	C	1.063549	-0.464659	-0.163380
C47	C	1.063672	-0.464416	-0.081581
H48	H	0.633629	-0.352595	-0.269347
O49	O	0.639587	-0.586462	-0.447282
C50	C	0.589193	-0.640994	-0.488743
H51	H	0.534415	-0.601493	-0.491343
H52	H	0.611420	-0.651372	-0.546713
H53	H	0.580994	-0.714211	-0.461702
O54	O	1.156502	-0.342994	-0.930835
C55	C	1.204037	-0.397896	-0.975284
H56	H	1.178065	-0.470992	-0.986780
H57	H	1.213913	-0.358587	-1.029338
H58	H	1.258570	-0.408505	-0.945677
O59	O	0.488154	-0.586305	-0.447303
C60	C	0.443715	-0.531473	-0.494901
H61	H	0.466894	-0.455508	-0.499546
H62	H	0.442862	-0.566455	-0.551490
H63	H	0.385457	-0.528116	-0.472158
H64	H	0.978232	-0.576378	-0.924647
H65	H	1.149055	-0.352601	-0.785279
O66	O	0.970787	-0.586217	-0.779271
C67	C	0.929225	-0.640634	-0.829649
H68	H	0.959374	-0.643963	-0.884442
H69	H	0.921352	-0.716638	-0.807424
H70	H	0.873343	-0.605307	-0.837818
O71	O	0.488039	-0.342998	-0.262003
C72	C	0.411964	-0.356229	-0.272095
H73	H	0.401462	-0.430712	-0.296097
H74	H	0.382732	-0.349593	-0.216981
H75	H	0.390182	-0.299084	-0.311364
