data_functionalizedCrystal
_audit_creation_method	'MofGen! by Chris Wilmer'
_symmetry_space_group_name_H-M	'P1'
_symmetry_Int_Tables_number	1
_symmetry_cell_setting	triclinic
loop_
_symmetry_equiv_pos_as_xyz
  x,y,z
_cell_length_a	11.792240
_cell_length_b	10.654550
_cell_length_c	9.130313
_cell_angle_alpha	89.993418
_cell_angle_beta	89.990792
_cell_angle_gamma	84.339159
loop_
_atom_site_label
_atom_site_type_symbol
_atom_site_fract_x
_atom_site_fract_y
_atom_site_fract_z
O1	O	-0.159412	-1.667389	0.121954
O2	O	-0.174600	-1.301867	0.121933
O3	O	-0.001856	-1.493498	0.121899
O4	O	-0.332156	-1.475758	0.121987
O5	O	-0.001866	-1.493485	-0.121699
O6	O	-0.174611	-1.301854	-0.121666
O7	O	-0.159422	-1.667375	-0.121645
Cu8	Cu	-0.167017	-1.484613	-0.143898
Cu9	Cu	-0.167005	-1.484629	0.144186
O10	O	-0.332166	-1.475744	-0.121611
C11	C	0.040432	-1.492377	0.000092
C12	C	0.166454	-1.489042	0.000067
C13	C	-0.173490	-1.255066	0.000131
C14	C	-0.170154	-1.115632	0.000121
C15	C	-0.160532	-1.714177	0.000161
C16	C	-0.163869	-1.853611	0.000180
C17	C	0.397180	-1.482908	0.000043
C18	C	0.268787	-1.486316	0.000057
C19	C	0.625545	-1.476865	0.000147
C20	C	0.499524	-1.480201	0.000027
N21	N	-0.167025	-1.484612	-0.346521
C22	C	-0.271863	-1.035858	0.000169
C23	C	-0.268721	-0.904847	0.000194
C24	C	-0.062152	-0.933394	0.000127
C25	C	-0.065295	-1.064404	0.000092
C26	C	-0.391124	-1.019376	0.000214
C27	C	-0.387982	-0.888364	0.000238
C28	C	-0.236501	-1.561245	-0.423163
C29	C	-0.236480	-1.561263	-0.576500
C30	C	-0.097505	-1.408005	-0.576539
C31	C	-0.097521	-1.407994	-0.423205
C32	C	-0.316740	-1.649723	-0.423141
C33	C	-0.316719	-1.649741	-0.576478
N34	N	-0.166988	-1.484641	0.346809
H35	H	0.017527	-1.129352	0.000032
C36	C	-0.448525	-0.831834	0.138088
H37	H	-0.475561	-0.897488	0.194761
H38	H	-0.510937	-0.773610	0.109968
H39	H	-0.396370	-0.789551	0.194626
C40	C	-0.279058	-1.783629	-0.366890
H41	H	-0.263538	-1.838706	-0.447808
H42	H	-0.338141	-1.812701	-0.309080
H43	H	-0.212227	-1.782089	-0.309094
C44	C	-0.432195	-1.596016	-0.358880
H45	H	-0.428270	-1.597839	-0.254963
H46	H	-0.490098	-1.645583	-0.391000
H47	H	-0.449437	-1.511480	-0.391014
C48	C	-0.454150	-1.058822	-0.137480
H49	H	-0.477926	-0.986144	-0.194095
H50	H	-0.518911	-1.099425	-0.109143
H51	H	-0.404483	-1.115223	-0.194162
C52	C	-0.268545	-1.777662	-0.640708
H53	H	-0.247112	-1.834618	-0.563206
H54	H	-0.203742	-1.766371	-0.699275
H55	H	-0.325078	-1.810923	-0.699254
C56	C	0.053186	-0.877044	0.000105
H57	H	0.113310	-0.943322	0.000063
H58	H	0.058713	-0.826552	0.085061
H59	H	0.058699	-0.826511	-0.084846
C60	C	-0.021137	-1.323661	-0.338896
H61	H	-0.031105	-1.334618	-0.236592
H62	H	-0.041529	-1.237891	-0.364071
H63	H	0.056347	-1.346449	-0.363996
H64	H	-0.429094	-1.054929	0.105396
H65	H	-0.424029	-0.842585	-0.104920
H66	H	-0.406221	-1.618556	-0.618097
C67	C	-0.021070	-1.323713	-0.660889
H68	H	0.020306	-1.278073	-0.593278
H69	H	-0.067096	-1.266239	-0.720714
H70	H	0.030750	-1.374829	-0.720695
