data_functionalizedCrystal
_audit_creation_method	'MofGen! by Chris Wilmer'
_symmetry_space_group_name_H-M	'P1'
_symmetry_Int_Tables_number	1
_symmetry_cell_setting	triclinic
loop_
_symmetry_equiv_pos_as_xyz
  x,y,z
_cell_length_a	16.109302
_cell_length_b	27.732048
_cell_length_c	15.186229
_cell_angle_alpha	89.991324
_cell_angle_beta	89.994701
_cell_angle_gamma	83.052218
loop_
_atom_site_label
_atom_site_type_symbol
_atom_site_fract_x
_atom_site_fract_y
_atom_site_fract_z
O1	O	1.102361	0.062132	-0.073278
O2	O	1.602361	0.562132	0.426722
O3	O	0.860203	0.069863	-0.073272
O4	O	1.360203	0.569863	0.426728
O5	O	0.988803	-0.004368	-0.073258
O6	O	1.488803	0.495632	0.426742
O7	O	0.973761	0.136363	-0.073292
O8	O	1.473761	0.636363	0.426708
O9	O	0.988795	-0.004369	0.073199
O10	O	1.488795	0.495631	0.573199
O11	O	0.860195	0.069862	0.073185
O12	O	1.360195	0.569862	0.573185
O13	O	1.102352	0.062131	0.073179
O14	O	1.602352	0.562131	0.573179
Zn15	Zn	0.981272	0.065996	0.096436
Zn16	Zn	1.481272	0.565996	0.596436
Zn17	Zn	0.981283	0.065998	-0.096528
Zn18	Zn	1.481283	0.565998	0.403472
O19	O	0.973753	0.136362	0.073166
O20	O	1.473753	0.636362	0.573166
C21	C	0.829228	0.069550	-0.000043
C22	C	1.329228	0.569550	0.499957
C23	C	0.736944	0.068610	-0.000040
C24	C	1.236944	0.568610	0.499960
C25	C	0.524626	0.066438	0.079786
C26	C	1.024626	0.566438	0.579786
C27	C	0.437917	0.065551	0.079783
C28	C	0.937917	0.565551	0.579783
C29	C	0.437936	0.065554	-0.079893
C30	C	0.937936	0.565554	0.420107
C31	C	0.524645	0.066438	-0.079889
C32	C	1.024645	0.566438	0.420111
C33	C	0.567987	0.066883	-0.000047
C34	C	1.067987	0.566883	0.499953
C35	C	0.394569	0.065111	-0.000053
C36	C	0.894569	0.565111	0.499947
C37	C	0.300555	0.064149	-0.000057
C38	C	0.800555	0.564149	0.499943
C39	C	0.662007	0.067844	-0.000043
C40	C	1.162007	0.567844	0.499957
C41	C	0.988483	-0.022376	-0.000027
C42	C	1.488483	0.477624	0.499973
C43	C	0.987532	-0.076035	-0.000020
C44	C	1.487532	0.423965	0.499980
C45	C	1.057541	-0.414557	-0.000067
C46	C	1.557541	0.085443	0.499933
C47	C	1.054013	-0.616232	-0.000079
C48	C	1.554013	-0.116232	0.499921
O49	O	1.118031	-0.647219	-0.000119
O50	O	1.618031	-0.147219	0.499881
N51	N	0.977759	-0.635675	-0.000076
N52	N	1.477759	-0.135675	0.499924
C53	C	0.902381	-0.604696	-0.000077
C54	C	1.402381	-0.104696	0.499923
O55	O	0.837441	-0.625861	-0.000084
O56	O	1.337441	-0.125861	0.499916
C57	C	0.905910	-0.403022	-0.000071
C58	C	1.405910	0.096978	0.499929
C59	C	0.982169	-0.383582	-0.000064
C60	C	1.482169	0.116418	0.499936
C61	C	1.133794	-0.395117	-0.000062
C62	C	1.633794	0.104883	0.499938
C63	C	1.134675	-0.344701	-0.000054
C64	C	1.634675	0.155299	0.499946
C65	C	1.059303	-0.313726	-0.000051
C66	C	1.559303	0.186274	0.499949
C67	C	0.983050	-0.333167	-0.000057
C68	C	1.483050	0.166833	0.499943
C69	C	0.830533	-0.372044	-0.000077
C70	C	1.330533	0.127956	0.499923
C71	C	0.831422	-0.321623	-0.000078
C72	C	1.331422	0.178377	0.499922
C73	C	0.907681	-0.302183	-0.000072
C74	C	1.407681	0.197817	0.499928
C75	C	0.908559	-0.251776	-0.000046
C76	C	1.408559	0.248224	0.499954
N77	N	0.984813	-0.232333	-0.000049
N78	N	1.484813	0.267667	0.499951
C79	C	1.060185	-0.263308	-0.000051
C80	C	1.560185	0.236692	0.499949
C81	C	0.900534	-0.710577	-0.000078
C82	C	1.400534	-0.210577	0.499922
C83	C	0.899652	-0.760996	-0.000078
C84	C	1.399652	-0.260996	0.499922
C85	C	1.051284	-0.772528	-0.000082
C86	C	1.551284	-0.272528	0.499918
C87	C	1.052165	-0.722109	-0.000076
C88	C	1.552165	-0.222109	0.499924
C89	C	0.976788	-0.691134	-0.000081
C90	C	1.476788	-0.191134	0.499919
C91	C	1.062030	-0.157431	-0.000034
C92	C	1.562030	0.342569	0.499966
C93	C	1.062904	-0.107010	-0.000023
C94	C	1.562904	0.392990	0.499977
C95	C	0.911272	-0.095482	-0.000023
C96	C	1.411272	0.404518	0.499977
C97	C	0.910397	-0.145898	-0.000030
C98	C	1.410397	0.354102	0.499970
C99	C	0.985783	-0.176872	-0.000038
C100	C	1.485783	0.323128	0.499962
O101	O	0.844576	-0.220760	-0.000016
O102	O	1.344576	0.279240	0.499984
O103	O	1.125116	-0.242134	-0.000064
O104	O	1.625116	0.257866	0.499936
C105	C	1.056660	-0.464973	-0.000075
C106	C	1.556660	0.035027	0.499925
C107	C	0.980407	-0.484413	-0.000080
C108	C	1.480407	0.015587	0.499920
C109	C	0.905035	-0.453438	-0.000078
C110	C	1.405035	0.046562	0.499922
C111	C	0.979524	-0.534832	-0.000080
C112	C	1.479524	-0.034832	0.499920
C113	C	1.054896	-0.565807	-0.000082
C114	C	1.554896	-0.065807	0.499918
C115	C	1.131150	-0.546364	-0.000085
C116	C	1.631150	-0.046364	0.499915
C117	C	1.132032	-0.495948	-0.000077
C118	C	1.632032	0.004052	0.499923
C119	C	0.828780	-0.472881	-0.000075
C120	C	1.328780	0.027119	0.499925
C121	C	0.827905	-0.523298	-0.000082
C122	C	1.327905	-0.023298	0.499918
C123	C	0.903277	-0.554273	-0.000084
C124	C	1.403277	-0.054273	0.499916
C125	C	1.133328	0.062444	-0.000052
C126	C	1.633328	0.562444	0.499948
C127	C	1.225611	0.063384	-0.000061
C128	C	1.725611	0.563384	0.499939
C129	C	0.974073	0.154370	-0.000067
C130	C	1.474073	0.654370	0.499933
C131	C	0.975023	0.208029	-0.000080
C132	C	1.475023	0.708029	0.499920
N133	N	0.981271	0.065995	0.228128
N134	N	1.481271	0.565995	0.728128
N135	N	0.981292	0.065995	-0.228221
N136	N	1.481292	0.565995	0.271779
C137	C	1.038234	0.033137	0.453857
C138	C	1.538234	0.533137	0.953857
C139	C	1.038236	0.033135	0.546047
C140	C	1.538236	0.533135	1.046047
C141	C	0.924323	0.098855	0.546044
C142	C	1.424323	0.598855	1.046044
C143	C	0.924317	0.098854	0.453856
C144	C	1.424317	0.598854	0.953856
C145	C	0.981277	0.065995	0.407765
C146	C	1.481277	0.565995	0.907765
C147	C	0.981285	0.065995	0.592143
C148	C	1.481285	0.565995	1.092143
C149	C	0.981288	0.065994	0.692099
C150	C	1.481288	0.565994	1.192099
C151	C	0.981274	0.065995	0.307802
C152	C	1.481274	0.565995	0.807802
H153	H	1.125006	-0.091186	-0.000015
H154	H	1.625006	0.408814	0.499985
Br155	Br	1.153574	-0.814575	-0.000088
Br156	Br	1.653574	-0.314575	0.499912
H157	H	0.837554	-0.776819	-0.000068
H158	H	1.337554	-0.276819	0.499932
Br159	Br	0.583445	0.067040	0.188142
Br160	Br	1.083445	0.567040	0.688142
H161	H	1.123416	-0.182644	-0.000044
H162	H	1.623416	0.317356	0.499956
H163	H	0.559950	0.066799	-0.144902
H164	H	1.059950	0.566799	0.355098
H165	H	0.877948	0.125609	0.583580
H166	H	1.377948	0.625609	1.083580
Br167	Br	1.115534	-0.011462	0.608599
Br168	Br	1.615534	0.488538	1.108599
Br169	Br	1.238175	-0.318327	-0.000070
Br170	Br	1.738175	0.181673	0.499930
H171	H	0.402616	0.065189	0.144791
H172	H	0.902616	0.565189	0.644791
Br173	Br	0.379114	0.064936	-0.188244
Br174	Br	0.879114	0.564936	0.311756
Br175	Br	0.847007	0.143446	0.391294
Br176	Br	1.347007	0.643446	0.891294
H177	H	1.114262	-0.706285	-0.000071
H178	H	1.614262	-0.206285	0.499929
H179	H	0.839149	-0.685362	-0.000082
H180	H	1.339149	-0.185362	0.499918
Br181	Br	1.236099	-0.437146	-0.000066
Br182	Br	1.736099	0.062854	0.499934
H183	H	0.768434	-0.387863	-0.000088
H184	H	1.268434	0.112137	0.499912
Br185	Br	0.729118	-0.279589	-0.000088
Br186	Br	1.229118	0.220411	0.499912
Br187	Br	0.806902	-0.172282	-0.000018
Br188	Br	1.306902	0.327718	0.499982
Br189	Br	1.233440	-0.588411	-0.000082
Br190	Br	1.733440	-0.088411	0.499918
Br191	Br	0.808987	-0.053435	-0.000019
Br192	Br	1.308987	0.446565	0.499981
Br193	Br	0.726479	-0.430851	-0.000076
Br194	Br	1.226479	0.069149	0.499924
H195	H	1.194130	-0.480125	-0.000072
H196	H	1.694130	0.019875	0.499928
Br197	Br	0.724401	-0.549673	-0.000083
Br198	Br	1.224401	-0.049673	0.499917
H199	H	1.084613	0.006380	0.416332
H200	H	1.584613	0.506380	0.916332
