data_functionalizedCrystal
_audit_creation_method	'MofGen! by Chris Wilmer'
_symmetry_space_group_name_H-M	'P1'
_symmetry_Int_Tables_number	1
_symmetry_cell_setting	triclinic
loop_
_symmetry_equiv_pos_as_xyz
  x,y,z
_cell_length_a	10.654550
_cell_length_b	11.792241
_cell_length_c	9.730223
_cell_angle_alpha	89.995449
_cell_angle_beta	89.999957
_cell_angle_gamma	84.339173
loop_
_atom_site_label
_atom_site_type_symbol
_atom_site_fract_x
_atom_site_fract_y
_atom_site_fract_z
O1	O	1.667388	0.159420	-0.114188
O2	O	1.301867	0.174608	-0.114213
O3	O	1.493498	0.001864	-0.114190
O4	O	1.475757	0.332164	-0.114211
O5	O	1.493485	0.001859	0.114390
O6	O	1.301854	0.174603	0.114367
O7	O	1.667376	0.159415	0.114392
Zn8	Zn	1.484613	0.167008	0.150671
Zn9	Zn	1.484629	0.167015	-0.150493
O10	O	1.475745	0.332159	0.114369
C11	C	1.255066	0.173491	0.000074
C12	C	1.115632	0.170154	0.000064
C13	C	1.492377	-0.040432	0.000099
C14	C	1.489042	-0.166453	0.000098
C15	C	1.035859	0.271863	0.000062
C16	C	0.904847	0.268721	0.000086
C17	C	0.933394	0.062152	0.000109
C18	C	1.064403	0.065295	0.000095
C19	C	1.482908	-0.397180	0.000074
C20	C	1.486316	-0.268787	0.000087
C21	C	1.714177	0.160533	0.000102
C22	C	1.853611	0.163869	0.000103
C23	C	1.476865	0.374455	0.000077
C24	C	1.480201	0.500477	0.000069
N25	N	1.484611	0.167003	0.356208
N26	N	1.484641	0.167011	-0.356029
C27	C	1.569494	0.090545	0.428144
C28	C	1.569507	0.090545	0.572027
C29	C	1.399749	0.243473	0.572025
C30	C	1.399731	0.243466	0.428145
H31	H	0.839900	0.351543	0.000087
H32	H	1.638625	0.028285	0.630593
O33	O	0.878136	-0.050940	0.000141
H34	H	0.910125	-0.099870	-0.093014
O35	O	1.091106	0.384961	0.000052
H36	H	1.150093	0.391348	-0.093125
O37	O	1.150460	-0.044409	0.000100
H38	H	1.092831	-0.117852	0.000105
H39	H	1.638607	0.028283	0.369576
O40	O	1.308216	0.325955	0.649611
H41	H	1.322498	0.313126	0.761747
H42	H	1.330603	0.305728	0.369570
