data_functionalizedCrystal
_audit_creation_method	'MofGen! by Chris Wilmer'
_symmetry_space_group_name_H-M	'P1'
_symmetry_Int_Tables_number	1
_symmetry_cell_setting	triclinic
loop_
_symmetry_equiv_pos_as_xyz
  x,y,z
_cell_length_a	10.654550
_cell_length_b	15.995350
_cell_length_c	9.130313
_cell_angle_alpha	90.000982
_cell_angle_beta	89.996220
_cell_angle_gamma	83.988639
loop_
_atom_site_label
_atom_site_type_symbol
_atom_site_fract_x
_atom_site_fract_y
_atom_site_fract_z
O1	O	1.666298	0.117599	-0.121912
O2	O	1.300673	0.128803	-0.121888
O3	O	1.493480	0.001371	-0.121899
O4	O	1.473491	0.245030	-0.121900
O5	O	1.493478	0.001375	0.121700
O6	O	1.300671	0.128807	0.121711
O7	O	1.666295	0.117602	0.121687
Cu8	Cu	1.483483	0.123205	0.143942
Cu9	Cu	1.483486	0.123201	-0.144142
O10	O	1.473488	0.245034	0.121698
C11	C	1.253885	0.127982	-0.000085
C12	C	1.114473	0.125521	-0.000076
C13	C	1.034008	0.200551	-0.000098
C14	C	0.903017	0.198233	-0.000123
C15	C	0.932971	0.045849	-0.000111
C16	C	1.063959	0.048168	-0.000075
C17	C	1.084522	0.277904	-0.000099
C18	C	1.004055	0.352940	-0.000122
C19	C	0.873064	0.350622	-0.000147
C20	C	0.822541	0.273268	-0.000149
C21	C	1.492652	-0.029827	-0.000102
C22	C	1.490175	-0.122791	-0.000110
C23	C	1.481278	-0.460591	-0.000105
C24	C	1.343964	-0.413954	-0.000642
C25	C	1.346442	-0.317249	-0.000093
C26	C	1.485691	-0.293004	-0.000108
C27	C	1.553417	-0.333687	0.138991
C28	C	1.549968	-0.430342	0.139108
C29	C	1.552807	-0.430688	-0.137910
C30	C	1.552775	-0.333743	-0.139748
C31	C	1.488192	-0.198292	-0.000106
C32	C	1.478780	-0.555303	-0.000098
C33	C	1.713084	0.118423	-0.000119
C34	C	1.852495	0.120884	-0.000137
C35	C	1.474316	0.276232	-0.000101
C36	C	1.476793	0.369197	-0.000103
N37	N	1.483490	0.123207	0.346564
N38	N	1.483488	0.123192	-0.346765
C39	C	1.568887	0.066800	0.423211
C40	C	1.568883	0.066789	0.576548
C41	C	1.398083	0.179602	0.576578
C42	C	1.398081	0.179607	0.423244
C43	C	1.654296	0.010399	0.346532
C44	C	1.739700	-0.046012	0.423179
C45	C	1.739697	-0.046022	0.576516
C46	C	1.654289	0.010379	0.653206
H47	H	1.129477	-0.012928	-0.000061
H48	H	1.506376	-0.305577	0.242515
O49	O	1.670294	-0.468030	0.146455
C50	C	1.739119	-0.444087	0.024258
H51	H	1.692782	-0.381936	-0.020939
H52	H	1.840059	-0.436372	0.058874
H53	H	1.740170	-0.494590	-0.063971
H54	H	1.654048	-0.461861	-0.138855
O55	O	0.883956	-0.029308	0.000131
C56	C	0.925063	-0.075103	0.126281
H57	H	0.952284	-0.029888	0.214477
H58	H	0.845699	-0.111188	0.168599
H59	H	1.010441	-0.121266	0.097779
H60	H	1.507914	-0.451490	-0.243339
O61	O	1.673912	-0.314670	-0.149534
C62	C	1.700768	-0.263791	-0.029807
H63	H	1.633503	-0.273859	0.064150
H64	H	1.802173	-0.281453	0.007554
H65	H	1.688345	-0.194923	-0.064308
H66	H	1.289082	-0.432806	-0.100393
H67	H	1.328542	0.225538	0.360837
H68	H	1.191179	0.279800	-0.000085
H69	H	1.809230	-0.091937	0.360730
H70	H	1.654308	0.010404	0.221678
H71	H	1.655720	-0.318967	0.144153
H72	H	1.045200	0.415918	-0.000108
O73	O	1.493908	-0.301629	-0.262667
C74	C	1.554948	-0.338625	-0.387329
H75	H	1.607753	-0.401791	-0.356115
H76	H	1.481797	-0.348553	-0.475014
H77	H	1.624649	-0.295450	-0.431664
H78	H	1.809228	-0.091960	0.638920
O79	O	0.794771	0.423452	-0.000362
C80	C	0.718159	0.426673	-0.126562
H81	H	0.711545	0.360172	-0.168616
H82	H	0.619704	0.457294	-0.098215
H83	H	0.761275	0.465158	-0.214900
H84	H	1.654285	0.010361	0.778063
O85	O	1.315179	0.234505	0.650906
C86	C	1.335601	0.317521	0.613475
H87	H	1.384004	0.317723	0.502140
H88	H	1.241204	0.358170	0.608243
H89	H	1.398107	0.343800	0.699771
H90	H	0.715878	0.271387	-0.000147
O91	O	1.282344	-0.284459	0.119030
C92	C	1.156408	-0.303908	0.112751
H93	H	1.150908	-0.361704	0.040917
H94	H	1.122317	-0.317335	0.227896
H95	H	1.094162	-0.248413	0.064364
O96	O	1.283036	-0.283822	-0.119202
C97	C	1.341312	-0.317834	-0.247739
H98	H	1.396912	-0.380859	-0.221496
H99	H	1.266059	-0.327352	-0.333135
H100	H	1.408086	-0.272795	-0.292526
O101	O	1.278972	-0.437758	0.117819
C102	C	1.357037	-0.496424	0.201153
H103	H	1.460218	-0.488620	0.177483
H104	H	1.337086	-0.485240	0.322643
H105	H	1.336934	-0.562851	0.170720
O106	O	1.491239	-0.452582	0.263254
C107	C	1.574666	-0.508465	0.345590
H108	H	1.676134	-0.499707	0.314714
H109	H	1.559705	-0.494971	0.467298
H110	H	1.555619	-0.575905	0.321338
