data_functionalizedCrystal
_audit_creation_method	'MofGen! by Chris Wilmer'
_symmetry_space_group_name_H-M	'P1'
_symmetry_Int_Tables_number	1
_symmetry_cell_setting	triclinic
loop_
_symmetry_equiv_pos_as_xyz
  x,y,z
_cell_length_a	19.188879
_cell_length_b	19.188930
_cell_length_c	16.098538
_cell_angle_alpha	87.256730
_cell_angle_beta	87.296763
_cell_angle_gamma	96.865574
loop_
_atom_site_label
_atom_site_type_symbol
_atom_site_fract_x
_atom_site_fract_y
_atom_site_fract_z
O1	O	-0.084027	0.929278	-0.069542
O2	O	0.415973	1.429278	0.430458
O3	O	-0.095764	0.725962	-0.069487
O4	O	0.404236	1.225962	0.430513
O5	O	0.011762	0.833505	-0.069490
O6	O	0.511762	1.333505	0.430510
O7	O	-0.191552	0.821736	-0.069539
O8	O	0.308448	1.321736	0.430461
O9	O	0.005505	0.827223	0.069023
O10	O	0.505505	1.327223	0.569023
O11	O	-0.102021	0.719680	0.069026
O12	O	0.397979	1.219680	0.569026
O13	O	-0.090283	0.922996	0.068971
O14	O	0.409717	1.422996	0.568971
Zn15	Zn	-0.097145	0.820341	0.090990
Zn16	Zn	0.402855	1.320341	0.590990
Zn17	Zn	-0.088902	0.828618	-0.091507
Zn18	Zn	0.411098	1.328618	0.408493
O19	O	-0.197809	0.815454	0.068974
O20	O	0.302191	1.315454	0.568974
C21	C	-0.098513	0.696810	-0.000223
C22	C	0.401487	1.196810	0.499777
C23	C	-0.097373	0.619305	-0.000201
C24	C	0.402627	1.119305	0.499799
C25	C	-0.160464	0.574371	-0.000230
C26	C	0.339536	1.074371	0.499770
C27	C	-0.159392	0.501547	-0.000238
C28	C	0.340608	1.001547	0.499762
C29	C	-0.095224	0.473662	-0.000236
C30	C	0.404776	0.973662	0.499764
C31	C	-0.032125	0.518606	-0.000203
C32	C	0.467875	1.018606	0.499797
C33	C	-0.033199	0.591427	-0.000185
C34	C	0.466801	1.091427	0.499815
N35	N	-0.044046	0.367830	-0.047399
N36	N	0.455954	0.867830	0.452601
N37	N	-0.043029	0.298653	-0.047418
N38	N	0.456971	0.798653	0.452582
C39	C	-0.091984	0.254257	-0.000286
C40	C	0.408016	0.754257	0.499714
N41	N	-0.142003	0.281651	0.046854
N42	N	0.357997	0.781651	0.546854
N43	N	-0.143021	0.350835	0.046869
N44	N	0.356979	0.850835	0.546869
C45	C	-0.094052	0.394701	-0.000254
C46	C	0.405948	0.894701	0.499746
C47	C	-0.153917	0.130359	-0.000323
C48	C	0.346083	0.630359	0.499677
C49	C	-0.152842	0.057534	-0.000326
C50	C	0.347158	0.557534	0.499674
C51	C	-0.025573	0.074595	-0.000299
C52	C	0.474427	0.574595	0.499701
C53	C	-0.026650	0.147417	-0.000287
C54	C	0.473350	0.647417	0.499713
C55	C	-0.090824	0.175295	-0.000303
C56	C	0.409176	0.675295	0.499697
C57	C	-0.220692	0.818970	-0.000290
C58	C	0.279308	1.318970	0.499710
C59	C	-0.298198	0.820098	-0.000310
C60	C	0.201802	1.320098	0.499690
C61	C	-0.337991	0.817220	0.075198
C62	C	0.162009	1.317220	0.575198
C63	C	-0.410814	0.818297	0.075212
C64	C	0.089186	1.318297	0.575212
C65	C	-0.443840	0.822266	-0.000286
C66	C	0.056160	1.322266	0.499714
C67	C	-0.404038	0.825140	-0.075804
C68	C	0.095962	1.325140	0.424196
C69	C	-0.331217	0.824056	-0.075816
C70	C	0.168783	1.324056	0.424184
N71	N	-0.550322	0.866251	-0.056477
N72	N	-0.050322	1.366251	0.443523
N73	N	-0.619499	0.867282	-0.056461
N74	N	-0.119499	1.367282	0.443539
C75	C	-0.663246	0.825531	-0.000254
C76	C	-0.163246	1.325531	0.499746
N77	N	-0.635202	0.782719	0.055948
N78	N	-0.135202	1.282719	0.555948
N79	N	-0.566019	0.781690	0.055934
N80	N	-0.066019	1.281690	0.555934
C81	C	-0.522802	0.823442	-0.000281
C82	C	-0.022802	1.323442	0.499719
C83	C	-0.782003	0.823820	0.075274
C84	C	-0.282003	1.323820	0.575274
C85	C	-0.854829	0.824893	0.075285
C86	C	-0.354829	1.324893	0.575285
C87	C	-0.848050	0.831744	-0.075732
C88	C	-0.348050	1.331744	0.424268
C89	C	-0.775227	0.830664	-0.075741
C90	C	-0.275227	1.330664	0.424259
C91	C	-0.742208	0.826705	-0.000236
C92	C	-0.242208	1.326705	0.499764
C93	C	0.034645	0.829988	-0.000229
C94	C	0.534645	1.329988	0.499771
C95	C	0.112150	0.828861	-0.000213
C96	C	0.612150	1.328861	0.499787
C97	C	-0.087535	0.952149	-0.000295
C98	C	0.412465	1.452149	0.499705
C99	C	-0.088674	1.029654	-0.000322
C100	C	0.411326	1.529654	0.499678
N101	N	-0.102771	0.814697	0.215540
N102	N	0.397229	1.314697	0.715540
N103	N	-0.083271	0.834267	-0.216056
N104	N	0.416729	1.334267	0.283944
C105	C	-0.057149	0.860359	0.259124
C106	C	0.442851	1.360359	0.759124
C107	C	-0.061090	0.856418	0.346313
C108	C	0.438910	1.356418	0.846313
C109	C	-0.110658	0.806817	0.389916
C110	C	0.389342	1.306817	0.889916
C111	C	-0.156282	0.761150	0.346326
C112	C	0.343718	1.261150	0.846326
C113	C	-0.152337	0.765089	0.259139
C114	C	0.347663	1.265089	0.759139
C115	C	-0.124950	0.792539	0.653167
C116	C	0.375050	1.292539	1.153167
C117	C	-0.128893	0.788605	0.740360
C118	C	0.371107	1.288605	1.240360
C119	C	-0.033700	0.883872	0.740341
C120	C	0.466300	1.383872	1.240341
C121	C	-0.029762	0.887809	0.653151
C122	C	0.470238	1.387809	1.153151
C123	C	-0.075383	0.842140	0.609569
C124	C	0.424617	1.342140	1.109569
C125	C	-0.114690	0.802788	0.479038
C126	C	0.385310	1.302788	0.979038
C127	C	-0.071348	0.846166	0.520449
C128	C	0.428652	1.346166	1.020449
H129	H	0.026675	0.051894	-0.000348
H130	H	0.526675	0.551894	0.499652
H131	H	-0.155050	0.762404	0.514547
H132	H	0.344950	1.262404	1.014547
Br133	Br	0.054960	0.480764	-0.000190
Br134	Br	0.554960	0.980764	0.499810
H135	H	-0.212719	0.597063	-0.000244
H136	H	0.287281	1.097063	0.499756
H137	H	-0.210770	0.464955	-0.000259
H138	H	0.289230	0.964955	0.499741
Br139	Br	-0.238474	-0.003451	-0.000357
Br140	Br	0.261526	0.496549	0.499643
Br141	Br	-0.196173	0.721287	0.799531
Br142	Br	0.303827	1.221287	1.299531
H143	H	-0.311111	0.813996	0.136680
H144	H	0.188889	1.313996	0.636680
H145	H	-0.443222	0.815941	0.136701
H146	H	0.056778	1.315941	0.636701
Br147	Br	0.058979	0.208404	-0.000251
Br148	Br	0.558979	0.708404	0.499749
Br149	Br	-0.892867	0.837096	-0.178196
Br150	Br	-0.392867	1.337096	0.321804
Br151	Br	-0.448856	0.830528	-0.178266
Br152	Br	0.051144	1.330528	0.321734
Br153	Br	0.000828	0.918386	0.405465
Br154	Br	0.500828	1.418386	0.905465
H155	H	0.018179	0.628014	-0.000163
H156	H	0.518179	1.128014	0.499837
Br157	Br	-0.277208	0.827961	-0.178298
Br158	Br	0.222792	1.327961	0.321702
H159	H	-0.206171	0.153057	-0.000323
H160	H	0.293829	0.653057	0.499677
H161	H	-0.196639	0.720761	0.381833
H162	H	0.303361	1.220761	0.881833
Br163	Br	0.028213	0.945847	0.799491
Br164	Br	0.528213	1.445847	1.299491
Br165	Br	-0.908838	0.820971	0.177769
Br166	Br	-0.408838	1.320971	0.677769
H167	H	-0.755118	0.820591	0.136755
H168	H	-0.255118	1.320591	0.636755
Br169	Br	-0.721218	0.834574	-0.178222
Br170	Br	-0.221218	1.334574	0.321778
H171	H	-0.016788	0.900752	0.223627
H172	H	0.483212	1.400752	0.723627
Br173	Br	0.037506	0.955127	0.593974
Br174	Br	0.537506	1.455127	1.093974
H175	H	-0.162098	0.755354	0.617689
H176	H	0.337902	1.255354	1.117689
H177	H	-0.030987	0.886548	0.484945
H178	H	0.469013	1.386548	0.984945
Br179	Br	-0.214251	0.703112	0.199989
Br180	Br	0.285749	1.203112	0.699989
