data_functionalizedCrystal
_audit_creation_method	'MofGen! by Chris Wilmer'
_symmetry_space_group_name_H-M	'P1'
_symmetry_Int_Tables_number	1
_symmetry_cell_setting	triclinic
loop_
_symmetry_equiv_pos_as_xyz
  x,y,z
_cell_length_a	12.827893
_cell_length_b	12.645330
_cell_length_c	12.645324
_cell_angle_alpha	89.968234
_cell_angle_beta	89.979213
_cell_angle_gamma	90.017662
loop_
_atom_site_label
_atom_site_type_symbol
_atom_site_fract_x
_atom_site_fract_y
_atom_site_fract_z
Zn1	Zn	1.597669	-0.421960	-0.599385
Zn2	Zn	1.597551	-0.599269	-0.422125
Zn3	Zn	1.422905	-0.422020	-0.422136
Zn4	Zn	1.422888	-0.599181	-0.599347
O5	O	1.510253	-0.510608	-0.510748
O6	O	1.743889	-0.445492	-0.575882
O7	O	1.574342	-0.575818	-0.273779
O8	O	1.446144	-0.273665	-0.445669
O9	O	1.743803	-0.575760	-0.445650
O10	O	1.574542	-0.273620	-0.575893
O11	O	1.446030	-0.445594	-0.273787
O12	O	1.276667	-0.445509	-0.445632
O13	O	1.446115	-0.575611	-0.747699
O14	O	1.276654	-0.575669	-0.575828
O15	O	1.574526	-0.445407	-0.747727
O16	O	1.574325	-0.747605	-0.445613
O17	O	1.446001	-0.747540	-0.575818
C18	C	1.238743	-0.510587	-0.510728
C19	C	1.122590	-0.510604	-0.510744
C20	C	1.070827	-0.575112	-0.575070
C21	C	0.950777	-0.575131	-0.575089
C22	C	1.510177	-0.786037	-0.510733
C23	C	1.510240	-0.903867	-0.510762
C24	C	1.429844	-1.071435	-0.592926
C25	C	1.429433	-0.948876	-0.592662
C26	C	1.480425	-0.948475	-0.399042
C27	C	1.479934	-1.071073	-0.399540
C28	C	1.620943	-1.070953	-0.539413
C29	C	1.620265	-0.948346	-0.541856
C30	C	1.782823	-0.510629	-0.510769
C31	C	1.898976	-0.510638	-0.510778
C32	C	1.510332	-0.510492	-0.787254
C33	C	1.510365	-0.510443	-0.905084
C34	C	1.510358	-0.234102	-0.510786
C35	C	1.510403	-0.116272	-0.510802
C36	C	1.591462	-0.428769	-1.072665
C37	C	1.591203	-0.428474	-0.950105
C38	C	1.400272	-0.480085	-0.949566
C39	C	1.400765	-0.479465	-1.072165
C40	C	1.538467	-0.622595	-1.072281
C41	C	1.540876	-0.622031	-0.949675
C42	C	1.510235	-0.510646	-0.235318
C43	C	1.510404	-0.510396	-0.117489
H44	H	1.448328	-1.100837	-0.676039
H45	H	1.348407	-1.102338	-0.574214
H46	H	1.078030	-0.455386	-0.455691
H47	H	0.943485	-0.455411	-0.455700
H48	H	1.683446	-0.917702	-0.486397
H49	H	1.648141	-1.101787	-0.619495
C50	C	0.890653	-0.649716	-0.649518
H51	H	0.938726	-0.690172	-0.689866
H52	H	0.848115	-0.609160	-0.695733
H53	H	0.848036	-0.695842	-0.608874
C54	C	1.318733	-0.909377	-0.567042
H55	H	1.273840	-0.968259	-0.556745
H56	H	1.293624	-0.867644	-0.624083
H57	H	1.320438	-0.867872	-0.504468
C58	C	1.466912	-0.708614	-0.908284
H59	H	1.416225	-0.677704	-0.863071
H60	H	1.505819	-0.759787	-0.869989
H61	H	1.433037	-0.741755	-0.966267
H62	H	1.448088	-0.918712	-0.675503
C63	C	1.370773	-1.109843	-0.366809
H64	H	1.327143	-1.050665	-0.353338
H65	H	1.376126	-1.151725	-0.304664
H66	H	1.341695	-1.151039	-0.422250
H67	H	1.536063	-1.100738	-0.336265
C68	C	1.702115	-0.454117	-1.112500
H69	H	1.749862	-0.403955	-1.084551
H70	H	1.703364	-0.450969	-1.187546
H71	H	1.721393	-0.523066	-1.089960
H72	H	1.115387	-0.630321	-0.630132
C73	C	1.557165	-0.909092	-0.314116
H74	H	1.608189	-0.864985	-0.346116
H75	H	1.590400	-0.967945	-0.281822
H76	H	1.520247	-0.870027	-0.262024
H77	H	1.400461	-0.917867	-0.374366
H78	H	1.376977	-0.397449	-1.100775
C79	C	1.566101	-0.316197	-0.910499
H80	H	1.556012	-0.270591	-0.969337
H81	H	1.622368	-0.290810	-0.868802
H82	H	1.504417	-0.317920	-0.868935
C83	C	1.650654	-0.908941	-0.652919
H84	H	1.596526	-0.865558	-0.680232
H85	H	1.660864	-0.967813	-0.698382
H86	H	1.713317	-0.869114	-0.648654
C87	C	1.702001	-1.110017	-0.458541
H88	H	1.668700	-1.153746	-0.407593
H89	H	1.732788	-1.050999	-0.424149
H90	H	1.754504	-1.149398	-0.493967
H91	H	1.672838	-0.447486	-0.920031
C92	C	1.566680	-0.317106	-1.114287
H93	H	1.507148	-0.320015	-1.158860
H94	H	1.624547	-0.291067	-1.153312
H95	H	1.553033	-0.271348	-1.056357
H96	H	1.338314	-0.536332	-1.101814
C97	C	1.316458	-0.557922	-0.910164
H98	H	1.347937	-0.609746	-0.866126
H99	H	1.284581	-0.591558	-0.969013
H100	H	1.265154	-0.520478	-0.871023
H101	H	1.376049	-0.398984	-0.918872
H102	H	1.617343	-0.650232	-1.103263
H103	H	1.621894	-0.644922	-0.920601
C104	C	1.458721	-0.704760	-1.111446
H105	H	1.408566	-0.670912	-1.155137
H106	H	1.424734	-0.736109	-1.052489
H107	H	1.493669	-0.757939	-1.150900
