data_functionalizedCrystal
_audit_creation_method	'MofGen! by Chris Wilmer'
_symmetry_space_group_name_H-M	'P1'
_symmetry_Int_Tables_number	1
_symmetry_cell_setting	triclinic
loop_
_symmetry_equiv_pos_as_xyz
  x,y,z
_cell_length_a	16.974897
_cell_length_b	12.811415
_cell_length_c	15.455313
_cell_angle_alpha	87.254642
_cell_angle_beta	83.675220
_cell_angle_gamma	83.375521
loop_
_atom_site_label
_atom_site_type_symbol
_atom_site_fract_x
_atom_site_fract_y
_atom_site_fract_z
O1	O	1.057037	0.123912	-0.155999
O2	O	1.557037	0.623912	0.344001
O3	O	0.826183	0.141876	-0.141225
O4	O	1.326183	0.641876	0.358775
O5	O	0.946845	-0.019168	-0.137014
O6	O	1.446845	0.480832	0.362986
O7	O	0.936375	0.284956	-0.160210
O8	O	1.436375	0.784956	0.339790
O9	O	0.939945	-0.009996	0.007010
O10	O	1.439945	0.490004	0.507010
O11	O	0.819283	0.151047	0.002799
O12	O	1.319283	0.651047	0.502799
O13	O	1.050137	0.133083	-0.011974
O14	O	1.550137	0.633083	0.488026
Cu15	Cu	0.934080	0.142903	0.008563
Cu16	Cu	1.434080	0.642903	0.508563
Cu17	Cu	0.942240	0.132057	-0.161762
Cu18	Cu	1.442240	0.632057	0.338238
O19	O	0.929475	0.294127	-0.016185
O20	O	1.429475	0.794127	0.483815
C21	C	0.793171	0.145946	-0.067100
C22	C	1.293171	0.645946	0.432900
C23	C	0.705088	0.144397	-0.060802
C24	C	1.205088	0.644397	0.439198
C25	C	0.667460	0.138673	-0.136344
C26	C	1.167460	0.638673	0.363656
C27	C	0.584694	0.137235	-0.130415
C28	C	1.084694	0.637235	0.369585
C29	C	0.539559	0.141514	-0.048942
C30	C	1.039559	0.641514	0.451058
C31	C	0.577192	0.147242	0.026606
C32	C	1.077192	0.647242	0.526606
C33	C	0.659956	0.148687	0.020675
C34	C	1.159956	0.648687	0.520675
C35	C	0.291629	0.137735	-0.022788
C36	C	0.791629	0.637735	0.477212
C37	C	0.208860	0.136286	-0.016863
C38	C	0.708860	0.636286	0.483137
C39	C	0.216368	0.126281	-0.173885
C40	C	0.716368	0.626281	0.326115
C41	C	0.299133	0.127721	-0.179808
C42	C	0.799133	0.627721	0.320192
C43	C	0.336759	0.133454	-0.104260
C44	C	0.836759	0.633454	0.395740
N45	N	0.454959	0.140041	-0.042880
N46	N	0.954959	0.640041	0.457120
N47	N	0.421356	0.134934	-0.110324
N48	N	0.921356	0.634934	0.389676
C49	C	0.942597	-0.053487	-0.061886
C50	C	1.442597	0.446513	0.438114
C51	C	0.940209	-0.169411	-0.052603
C52	C	1.440209	0.330589	0.447397
C53	C	0.943232	-0.397233	-0.192191
C54	C	1.443232	0.102767	0.307809
C55	C	0.940989	-0.506154	-0.183473
C56	C	1.440989	-0.006154	0.316527
C57	C	0.933474	-0.496176	-0.026448
C58	C	1.433474	0.003824	0.473552
C59	C	0.935717	-0.387255	-0.035167
C60	C	1.435717	0.112745	0.464833
C61	C	0.940597	-0.337787	-0.118041
C62	C	1.440597	0.162213	0.381959
C63	C	0.942846	-0.228865	-0.126759
C64	C	1.442846	0.271135	0.373241
C65	C	0.935326	-0.218888	0.030265
C66	C	1.435326	0.281112	0.530265
C67	C	0.933083	-0.327809	0.038983
C68	C	1.433083	0.172191	0.538983
C69	C	1.083148	0.129013	-0.086102
C70	C	1.583148	0.629013	0.413898
C71	C	1.171232	0.130562	-0.092405
C72	C	1.671232	0.630562	0.407595
C73	C	0.933723	0.328446	-0.091315
C74	C	1.433723	0.828446	0.408685
C75	C	0.936111	0.444370	-0.100604
C76	C	1.436111	0.944370	0.399396
N77	N	0.928346	0.150531	0.128360
N78	N	1.428346	0.650531	0.628360
N79	N	0.947980	0.124420	-0.281560
N80	N	1.447980	0.624420	0.218440
C81	C	0.979626	0.082139	0.175540
C82	C	1.479626	0.582139	0.675540
C83	C	0.975297	0.087917	0.266197
C84	C	1.475297	0.587917	0.766197
C85	C	0.919692	0.162093	0.309672
C86	C	1.419692	0.662093	0.809672
C87	C	0.868406	0.230488	0.262485
C88	C	1.368406	0.730488	0.762485
C89	C	0.872732	0.224704	0.171831
C90	C	1.372732	0.724704	0.671831
C91	C	0.901021	0.187031	0.580600
C92	C	1.401021	0.687031	1.080600
C93	C	0.896700	0.192812	0.671261
C94	C	1.396700	0.692812	1.171261
C95	C	1.003590	0.050239	0.674966
C96	C	1.503590	0.550239	1.174966
C97	C	1.007914	0.044466	0.584309
C98	C	1.507914	0.544466	1.084309
C99	C	0.956626	0.112857	0.537131
C100	C	1.456626	0.612857	1.037131
N101	N	0.915267	0.168004	0.402337
N102	N	1.415267	0.668004	0.902337
N103	N	0.961047	0.106941	0.444468
N104	N	1.461047	0.606941	0.944468
H105	H	0.335878	0.124229	-0.246151
H106	H	0.835878	0.624229	0.253849
H107	H	0.946822	-0.188591	-0.194239
H108	H	1.446822	0.311409	0.305761
H109	H	0.929494	-0.536470	0.041024
H110	H	1.429494	-0.036470	0.541024
F111	F	0.948436	-0.344586	-0.280391
F112	F	1.448436	0.155414	0.219609
F113	F	0.837515	0.271768	0.717523
F114	F	1.337515	0.771768	1.217523
H115	H	1.053192	-0.015934	0.548914
H116	H	1.553192	0.484066	1.048914
F117	F	1.029873	0.015126	0.316410
F118	F	1.529873	0.515126	0.816410
H119	H	0.943131	-0.554551	-0.243853
H120	H	1.443131	-0.054551	0.256147
H121	H	0.704204	0.135185	-0.202688
H122	H	1.204204	0.635185	0.297312
H123	H	1.045346	-0.005443	0.713387
H124	H	1.545346	0.494557	1.213387
F125	F	0.846439	0.259820	0.530396
F126	F	1.346439	0.759820	1.030396
H127	H	0.929106	-0.368100	0.106457
H128	H	1.429106	0.131900	0.606457
H129	H	0.185724	0.121616	-0.235391
H130	H	0.685724	0.621616	0.264609
H131	H	0.823127	0.290881	0.297888
H132	H	1.323127	0.790881	0.797888
H133	H	0.933184	-0.170476	0.090643
H134	H	1.433184	0.329524	0.590643
F135	F	1.038813	0.003194	0.129279
F136	F	1.538813	0.503194	0.629279
F137	F	0.818150	0.297494	0.121620
F138	F	1.318150	0.797494	0.621620
H139	H	0.554062	0.132574	-0.191930
H140	H	1.054062	0.632574	0.308070
H141	H	0.172110	0.139800	0.049484
H142	H	0.672110	0.639800	0.549484
F143	F	0.331662	0.143836	0.057618
F144	F	0.831662	0.643836	0.557618
F145	F	0.700001	0.154783	0.101078
F146	F	1.200001	0.654783	0.601078
H147	H	0.540435	0.150732	0.092943
H148	H	1.040435	0.650732	0.592943
