data_functionalizedCrystal
_audit_creation_method	'MofGen! by Chris Wilmer'
_symmetry_space_group_name_H-M	'P1'
_symmetry_Int_Tables_number	1
_symmetry_cell_setting	triclinic
loop_
_symmetry_equiv_pos_as_xyz
  x,y,z
_cell_length_a	18.215407
_cell_length_b	16.120484
_cell_length_c	18.215399
_cell_angle_alpha	92.869789
_cell_angle_beta	89.982632
_cell_angle_gamma	92.922890
loop_
_atom_site_label
_atom_site_type_symbol
_atom_site_fract_x
_atom_site_fract_y
_atom_site_fract_z
Zn1	Zn	1.110210	-0.331972	-0.430915
Zn2	Zn	1.103876	-0.471394	-0.314084
Zn3	Zn	0.987141	-0.331992	-0.307869
Zn4	Zn	0.980869	-0.471340	-0.437112
O5	O	1.045524	-0.401675	-0.372495
O6	O	1.212353	-0.350481	-0.415425
O7	O	1.088366	-0.452933	-0.210277
O8	O	1.008742	-0.215324	-0.318996
O9	O	1.207700	-0.452913	-0.329590
O10	O	1.099160	-0.215309	-0.409398
O11	O	1.002601	-0.350515	-0.205710
O12	O	0.883326	-0.350463	-0.325005
O13	O	0.998051	-0.452822	-0.539273
O14	O	0.878717	-0.452841	-0.419960
O15	O	1.093078	-0.350429	-0.534720
O16	O	1.082283	-0.588052	-0.335599
O17	O	0.991910	-0.588013	-0.425987
C18	C	0.854319	-0.401649	-0.372481
C19	C	0.772519	-0.401658	-0.372493
C20	C	0.586742	-0.348431	-0.417267
C21	C	0.509883	-0.348439	-0.417270
C22	C	0.505056	-0.454941	-0.327737
C23	C	0.581914	-0.454929	-0.327731
C24	C	0.622755	-0.401676	-0.372500
C25	C	0.469038	-0.401695	-0.372509
C26	C	0.385704	-0.401703	-0.372512
C27	C	0.706095	-0.401666	-0.372497
C28	C	1.035749	-0.618282	-0.382156
C29	C	1.031634	-0.710948	-0.386314
C30	C	1.024126	-0.880610	-0.393920
C31	C	1.067053	-0.921899	-0.351082
C32	C	1.062876	-1.016304	-0.355314
C33	C	1.028303	-0.786196	-0.389689
C34	C	1.237476	-0.401701	-0.372510
C35	C	1.319274	-0.401712	-0.372516
C36	C	1.045571	-0.401617	-0.564445
C37	C	1.045591	-0.401593	-0.646243
C38	C	1.055357	-0.184221	-0.362812
C39	C	1.059548	-0.091555	-0.358686
C40	C	1.095091	-0.348227	-0.832066
C41	C	1.095101	-0.348203	-0.908923
C42	C	0.996150	-0.454829	-0.913653
C43	C	0.996137	-0.454849	-0.836797
C44	C	1.045612	-0.401549	-0.796005
C45	C	1.045634	-0.401505	-0.949719
C46	C	1.045645	-0.401479	-1.033052
C47	C	1.045601	-0.401573	-0.712667
C48	C	1.045522	-0.401672	-0.181289
C49	C	1.045655	-0.401461	-0.099481
H50	H	0.480566	-0.305081	-0.453722
H51	H	0.984241	-0.916159	-0.433769
H52	H	0.619993	-0.305066	-0.453718
Cl53	Cl	0.453708	-0.521888	-0.271462
H54	H	0.955871	-0.498226	-0.946875
H55	H	1.106941	-0.886347	-0.311229
H56	H	0.611236	-0.498288	-0.291273
Cl57	Cl	1.157312	-0.281173	-0.954254
H58	H	0.955840	-0.498269	-0.807436
H59	H	1.135374	-0.304824	-0.798855
