data_functionalizedCrystal
_audit_creation_method	'MofGen! by Chris Wilmer'
_symmetry_space_group_name_H-M	'P1'
_symmetry_Int_Tables_number	1
_symmetry_cell_setting	triclinic
loop_
_symmetry_equiv_pos_as_xyz
  x,y,z
_cell_length_a	15.944564
_cell_length_b	9.730223
_cell_length_c	10.654551
_cell_angle_alpha	89.998531
_cell_angle_beta	96.005352
_cell_angle_gamma	90.004285
loop_
_atom_site_label
_atom_site_type_symbol
_atom_site_fract_x
_atom_site_fract_y
_atom_site_fract_z
O1	O	-1.115451	0.114138	0.162037
O2	O	-0.871018	0.114171	0.181989
O3	O	-0.998854	0.114154	-0.010799
O4	O	-0.987615	0.114154	0.354824
O5	O	-0.998853	-0.114426	-0.010794
O6	O	-0.871017	-0.114409	0.181994
O7	O	-1.115450	-0.114442	0.162042
Zn8	Zn	-0.993233	-0.150718	0.172019
Zn9	Zn	-0.993235	0.150446	0.172012
O10	O	-0.987614	-0.114425	0.354829
C11	C	-0.839719	-0.000115	0.181160
C12	C	-0.746459	-0.000102	0.178669
N13	N	-0.993238	-0.356254	0.172022
C14	C	-1.049858	-0.428187	0.086685
C15	C	-1.049856	-0.572070	0.086669
C16	C	-0.936610	-0.572074	0.257340
C17	C	-0.936609	-0.428193	0.257349
C18	C	-1.106487	-0.356248	0.001358
C19	C	-1.163112	-0.428181	-0.083985
C20	C	-1.163110	-0.572064	-0.084001
C21	C	-1.106482	-0.644014	0.001328
C22	C	-0.530877	-0.000128	0.053209
C23	C	-0.470195	0.112574	0.111455
C24	C	-0.575708	-0.000118	0.174161
C25	C	-0.470216	-0.112788	0.111488
C26	C	-0.410771	-0.000140	0.169798
C27	C	-0.516255	0.112677	0.232440
C28	C	-0.516282	-0.112786	0.232456
C29	C	-0.455618	-0.000057	0.290790
C30	C	-0.670724	-0.000104	0.176671
C31	C	-0.315756	-0.000143	0.167297
C32	C	-0.146750	-0.000153	0.162853
C33	C	-0.240014	-0.000157	0.165294
C34	C	-0.998028	-0.000132	-0.057583
C35	C	-0.995558	-0.000123	-0.196995
N36	N	-0.993237	0.355983	0.171999
C37	C	-0.994401	0.124474	-0.262495
C38	C	-0.992073	0.124468	-0.393485
C39	C	-0.992065	-0.124743	-0.393465
C40	C	-0.994386	-0.124735	-0.262476
C41	C	-0.995573	0.249086	-0.197014
C42	C	-0.994416	0.373693	-0.262514
C43	C	-0.992089	0.373687	-0.393504
C44	C	-0.990918	0.249074	-0.458994
C45	C	-0.988440	-0.000136	0.401614
C46	C	-0.990909	-0.000136	0.541026
H47	H	-1.106495	-0.239091	0.001365
Br48	Br	-0.401318	0.000040	0.458258
H49	H	-0.995362	0.475148	-0.209181
Br50	Br	-0.859764	-0.669717	0.373137
Br51	Br	-1.239948	-0.669689	-0.199833
Br52	Br	-0.998740	0.249101	-0.019243
H53	H	-1.209212	-0.369593	-0.153464
H54	H	-0.991112	-0.226196	-0.446798
Br55	Br	-0.436187	0.271389	0.026193
H56	H	-0.991138	0.475148	-0.446829
H57	H	-0.989010	0.249079	-0.565653
Br58	Br	-0.585423	0.000048	-0.114113
H59	H	-0.995311	-0.226193	-0.209141
H60	H	-1.106480	-0.761173	0.001300
H61	H	-0.536709	-0.208072	0.283574
Br62	Br	-0.859760	-0.330565	0.373160
Br63	Br	-0.550056	0.271659	0.317642
H64	H	-0.449833	-0.208066	0.060310
