data_functionalizedCrystal
_audit_creation_method	'MofGen! by Chris Wilmer'
_symmetry_space_group_name_H-M	'P1'
_symmetry_Int_Tables_number	1
_symmetry_cell_setting	triclinic
loop_
_symmetry_equiv_pos_as_xyz
  x,y,z
_cell_length_a	13.635800
_cell_length_b	7.190339
_cell_length_c	17.457951
_cell_angle_alpha	74.589353
_cell_angle_beta	106.366297
_cell_angle_gamma	119.388276
loop_
_atom_site_label
_atom_site_type_symbol
_atom_site_fract_x
_atom_site_fract_y
_atom_site_fract_z
V1	V	1.894936	0.299375	-0.248588
O2	O	1.845735	-0.009972	-0.244437
O3	O	1.914989	0.589364	-0.246328
O4	O	1.799240	0.296706	-0.357260
O5	O	1.962286	0.284712	-0.132737
V6	V	2.140281	0.262144	-0.234799
O7	O	2.017707	0.381042	-0.278834
O8	O	2.242609	0.180477	-0.204552
O9	O	2.008624	-0.027845	-0.237058
O10	O	2.248181	0.571491	-0.238950
O11	O	2.131630	0.276807	-0.350650
O12	O	2.124374	0.264812	-0.126126
V13	V	2.394936	0.299375	-0.248588
O14	O	2.345735	-0.009972	-0.244437
O15	O	2.414989	0.589364	-0.246328
O16	O	2.299240	0.296706	-0.357260
O17	O	2.462286	0.284712	-0.132737
V18	V	2.640281	0.262144	-0.234799
O19	O	2.517707	0.381042	-0.278834
O20	O	2.742609	0.180477	-0.204552
O21	O	2.508624	-0.027845	-0.237058
O22	O	2.748181	0.571491	-0.238950
O23	O	2.631630	0.276807	-0.350650
O24	O	2.624374	0.264812	-0.126126
C25	C	1.850574	0.660000	-0.242266
C26	C	1.908199	0.901539	-0.241124
C27	C	2.408194	0.901537	-0.241132
C28	C	2.350566	0.659991	-0.242262
C29	C	1.702918	0.286680	-0.383766
C30	C	1.665610	0.286417	-0.472603
C31	C	2.052370	0.274846	-0.099616
C32	C	2.079297	0.275098	-0.010778
C33	C	2.202918	0.286680	-0.383766
C34	C	2.165610	0.286417	-0.472603
C35	C	2.552370	0.274846	-0.099616
C36	C	2.579297	0.275098	-0.010778
C37	C	1.738082	0.296998	-0.518375
C38	C	1.703035	0.296723	-0.601845
C39	C	1.595519	0.285883	-0.639543
C40	C	1.523040	0.275295	-0.593765
C41	C	1.558085	0.275555	-0.510296
C42	C	2.004588	0.285945	0.026912
C43	C	2.029900	0.286204	0.110383
C44	C	2.129925	0.275631	0.156162
C45	C	2.204636	0.264776	0.118466
C46	C	2.179320	0.264502	0.034997
C47	C	2.215005	0.275288	0.406233
C48	C	2.240318	0.275570	0.489707
C49	C	2.065579	0.296994	0.481618
C50	C	2.040274	0.296732	0.398147
C51	C	2.114984	0.285866	0.360459
N52	N	2.155801	0.275902	0.241483
N53	N	2.089102	0.285579	0.275141
C54	C	2.504566	0.285914	0.026899
C55	C	2.529845	0.286125	0.110372
C56	C	2.629860	0.275536	0.156166
C57	C	2.704594	0.264712	0.118483
C58	C	2.679310	0.264486	0.035012
H59	H	1.825633	0.305831	-0.487692
F60	F	2.450297	0.297659	0.150461
F61	F	2.656756	0.275784	0.245003
F62	F	1.933818	0.307994	0.349431
H63	H	2.786025	0.256084	0.155780
F64	F	1.480944	0.264316	-0.461592
F65	F	2.398115	0.297185	-0.021823
F66	F	2.758865	0.253000	-0.005080
F67	F	1.558238	0.285614	-0.728382
F68	F	1.408619	0.263780	-0.633900
F69	F	1.898134	0.297214	-0.021803
H70	H	1.969070	0.295064	0.141065
H71	H	1.762067	0.305353	-0.639107
F72	F	2.311090	0.253518	0.167190
F73	F	1.986073	0.308552	0.521734
H74	H	2.275841	0.266434	0.375558
F75	F	2.346781	0.264315	0.538427
F76	F	2.258830	0.252937	-0.005114
