data_functionalizedCrystal
_audit_creation_method	'MofGen! by Chris Wilmer'
_symmetry_space_group_name_H-M	'P1'
_symmetry_Int_Tables_number	1
_symmetry_cell_setting	triclinic
loop_
_symmetry_equiv_pos_as_xyz
  x,y,z
_cell_length_a	16.120530
_cell_length_b	16.120484
_cell_length_c	16.120297
_cell_angle_alpha	95.614431
_cell_angle_beta	89.871860
_cell_angle_gamma	89.832673
loop_
_atom_site_label
_atom_site_type_symbol
_atom_site_fract_x
_atom_site_fract_y
_atom_site_fract_z
Zn1	Zn	1.224987	0.422264	0.554813
Zn2	Zn	1.724987	0.922264	1.054813
Zn3	Zn	1.224883	0.554948	0.422118
Zn4	Zn	1.724883	1.054948	0.922118
Zn5	Zn	1.093726	0.408180	0.408056
Zn6	Zn	1.593726	0.908180	0.908056
Zn7	Zn	1.078880	0.554181	0.554051
Zn8	Zn	1.578880	1.054181	1.054051
O9	O	1.155619	0.484893	0.484760
O10	O	1.655619	0.984893	0.984760
O11	O	1.341009	0.446081	0.543415
O12	O	1.841009	0.946081	1.043415
O13	O	1.213654	0.529906	0.303620
O14	O	1.713654	1.029906	0.803620
O15	O	1.117395	0.293418	0.421958
O16	O	1.617395	0.793418	0.921958
O17	O	1.340932	0.543563	0.445925
O18	O	1.840932	1.043563	0.945925
O19	O	1.213832	0.303765	0.529780
O20	O	1.713832	0.803765	1.029780
O21	O	1.117294	0.422076	0.293289
O22	O	1.617294	0.922076	0.793289
O23	O	0.975721	0.421332	0.421218
O24	O	1.475721	0.921332	0.921218
O25	O	1.092092	0.542255	0.670785
O26	O	1.592092	1.042255	1.170785
O27	O	0.964814	0.528598	0.528480
O28	O	1.464814	1.028598	1.028480
O29	O	1.199436	0.445336	0.671345
O30	O	1.699436	0.945336	1.171345
O31	O	1.199258	0.671477	0.445185
O32	O	1.699258	1.171477	0.945185
O33	O	1.091990	0.670913	0.542116
O34	O	1.591990	1.170913	1.042116
C35	C	0.940181	0.473354	0.473241
C36	C	1.440181	0.973354	0.973241
C37	C	0.848013	0.468438	0.468334
C38	C	1.348013	0.968438	0.968334
C39	C	1.144023	0.701438	0.495113
C40	C	1.644023	1.201438	0.995113
C41	C	1.139137	0.794083	0.499574
C42	C	1.639137	1.294083	0.999574
C43	C	0.679262	0.459445	0.459381
C44	C	1.179262	0.959445	0.959381
C45	C	0.632810	0.510407	0.510202
C46	C	1.132810	1.010407	1.010202
C47	C	0.538911	0.505403	0.505220
C48	C	1.038911	1.005403	1.005220
C49	C	0.773169	0.464448	0.464361
C50	C	1.273169	0.964448	0.964361
C51	C	1.144119	0.495281	0.702152
C52	C	1.644119	0.995281	1.202152
C53	C	1.139219	0.499708	0.794791
C54	C	1.639219	0.999708	1.294791
C55	C	1.371899	0.496479	0.496324
C56	C	1.871899	0.996479	0.996324
C57	C	1.464064	0.501416	0.501252
C58	C	1.964064	1.001416	1.001252
C59	C	1.167282	0.267505	0.474385
C60	C	1.667282	0.767505	0.974385
C61	C	1.172251	0.174867	0.469964
C62	C	1.672251	0.674867	0.969964
C63	C	1.130220	0.963706	0.507736
C64	C	1.630220	1.463706	1.007736
C65	C	1.181166	1.005249	0.461804
C66	C	1.681166	1.505249	0.961804
C67	C	1.176204	1.099633	0.466346
C68	C	1.676204	1.599633	0.966346
C69	C	1.135180	0.869313	0.503196
C70	C	1.635180	1.369313	1.003196
C71	C	1.167125	0.474489	0.268213
C72	C	1.667125	0.974489	0.768213
C73	C	1.172198	0.469836	0.175571
C74	C	1.672198	0.969836	0.675571
C75	C	1.130243	0.507770	0.964403
C76	C	1.630243	1.007770	1.464403
C77	C	1.181172	0.461776	1.005965
C78	C	1.681172	0.961776	1.505965
C79	C	1.176177	0.466262	1.100342
C80	C	1.676177	0.966262	1.600342
C81	C	1.135236	0.503285	0.870017
C82	C	1.635236	1.003285	1.370017
H83	H	0.648511	0.412060	0.412135
H84	H	1.148511	0.912060	0.912135
O85	O	1.073847	1.005932	0.558763
O86	O	1.573847	1.505932	1.058763
C87	C	1.051573	1.109059	0.675340
C88	C	1.551573	1.609059	1.175340
C89	C	1.115503	1.061298	0.617606
C90	C	1.615503	1.561298	1.117606
H91	H	1.085229	1.153821	0.722941
H92	H	1.585229	1.653821	1.222941
H93	H	1.008185	1.145785	0.636688
H94	H	1.508185	1.645785	1.136688
H95	H	1.013973	1.062877	0.709170
H96	H	1.513973	1.562877	1.209170
H97	H	1.153162	1.107422	0.583764
H98	H	1.653162	1.607422	1.083764
H99	H	1.158836	1.024559	0.656303
H100	H	1.658836	1.524559	1.156303
O101	O	0.669624	0.566921	0.566497
O102	O	1.169624	1.066921	1.066497
C103	C	0.798142	0.623441	0.622904
C104	C	1.298142	1.123441	1.122904
C105	C	0.756554	0.559415	0.559103
C106	C	1.256554	1.059415	1.059103
H107	H	0.868430	0.617382	0.616959
H108	H	1.368430	1.117382	1.116959
H109	H	0.778412	0.689052	0.610486
H110	H	1.278412	1.189052	1.110486
H111	H	0.778362	0.611246	0.688547
H112	H	1.278362	1.111246	1.188547
H113	H	0.776313	0.571532	0.493435
H114	H	1.276313	1.071532	0.993435
H115	H	0.776283	0.493825	0.571593
H116	H	1.276283	0.993825	1.071593
H117	H	1.228524	0.419031	0.970668
H118	H	1.728524	0.919031	1.470668
O119	O	1.073830	0.558749	1.006636
O120	O	1.573830	1.058749	1.506636
C121	C	1.017311	0.609693	1.140578
C122	C	1.517311	1.109693	1.640578
C123	C	1.081246	0.551936	1.092842
C124	C	1.581246	1.051936	1.592842
H125	H	1.023273	0.604191	1.210283
H126	H	1.523273	1.104191	1.710283
H127	H	1.029154	0.676904	1.127585
H128	H	1.529154	1.176904	1.627585
H129	H	0.952128	0.590695	1.119194
H130	H	1.452128	1.090695	1.619194
H131	H	1.146455	0.570858	1.114198
H132	H	1.646455	1.070858	1.614198
H133	H	1.069331	0.484739	1.105836
H134	H	1.569331	0.984739	1.605836
O135	O	1.237754	0.963168	0.410913
O136	O	1.737754	1.463168	0.910913
C137	C	1.382350	0.941868	0.376790
C138	C	1.882350	1.441868	0.876790
C139	C	1.318362	0.989575	0.434496
C140	C	1.818362	1.489575	0.934496
H141	H	1.447535	0.963212	0.395825
H142	H	1.947535	1.463212	0.895825
H143	H	1.376410	0.872144	0.382169
H144	H	1.876410	1.372144	0.882169
H145	H	1.370467	0.954971	0.309608
H146	H	1.870467	1.454971	0.809608
H147	H	1.330204	0.976541	0.501702
H148	H	1.830204	1.476541	1.001702
H149	H	1.324317	1.059284	0.429045
H150	H	1.824317	1.559284	0.929045
