data_functionalizedCrystal
_audit_creation_method	'MofGen! by Chris Wilmer'
_symmetry_space_group_name_H-M	'P1'
_symmetry_Int_Tables_number	1
_symmetry_cell_setting	triclinic
loop_
_symmetry_equiv_pos_as_xyz
  x,y,z
_cell_length_a	10.967819
_cell_length_b	11.026607
_cell_length_c	9.130313
_cell_angle_alpha	89.997484
_cell_angle_beta	77.867167
_cell_angle_gamma	96.381100
loop_
_atom_site_label
_atom_site_type_symbol
_atom_site_fract_x
_atom_site_fract_y
_atom_site_fract_z
O1	O	1.694026	0.170553	-0.549378
O2	O	2.194026	0.670553	-0.049378
O3	O	1.334390	0.186868	-0.458606
O4	O	1.834390	0.686868	0.041394
O5	O	1.484402	0.001809	-0.496464
O6	O	1.984402	0.501809	0.003536
O7	O	1.544014	0.355612	-0.511520
O8	O	2.044014	0.855612	-0.011520
O9	O	1.484387	0.001803	-0.252861
O10	O	1.984387	0.501803	0.247139
O11	O	1.334375	0.186863	-0.215003
O12	O	1.834375	0.686863	0.284997
O13	O	1.694012	0.170548	-0.305776
O14	O	2.194012	0.670548	0.194224
Cu15	Cu	1.514192	0.178705	-0.238147
Cu16	Cu	2.014192	0.678705	0.261853
Cu17	Cu	1.514209	0.178711	-0.526235
Cu18	Cu	2.014209	0.678711	-0.026235
O19	O	1.544000	0.355607	-0.267918
O20	O	2.044000	0.855607	0.232082
C21	C	1.287626	0.185677	-0.325003
C22	C	1.787626	0.685677	0.174997
C23	C	1.148301	0.182120	-0.289838
C24	C	1.648301	0.682120	0.210162
C25	C	0.942203	0.176874	-0.364037
C26	C	1.442203	0.676874	0.135963
C27	C	1.086201	0.180541	-0.400373
C28	C	1.586201	0.680541	0.099627
C29	C	1.473397	-0.043497	-0.371888
C30	C	1.973397	0.456503	0.128112
C31	C	1.440613	-0.178484	-0.363619
C32	C	1.940613	0.321516	0.136381
C33	C	1.531135	-0.251534	-0.386469
C34	C	2.031135	0.248466	0.113531
C35	C	1.497253	-0.391051	-0.377922
C36	C	1.997253	0.108949	0.122078
C37	C	1.740776	0.171739	-0.439381
C38	C	2.240776	0.671739	0.060619
C39	C	1.880100	0.175295	-0.474556
C40	C	2.380100	0.675295	0.025444
C41	C	1.555005	0.400912	-0.392496
C42	C	2.055005	0.900912	0.107504
C43	C	1.587789	0.535900	-0.400775
C44	C	2.087789	1.035900	0.099225
N45	N	1.514189	0.178699	-0.035523
N46	N	2.014189	0.678699	0.464477
N47	N	1.514220	0.178707	-0.728860
N48	N	2.014220	0.678707	-0.228860
C49	C	1.580651	0.096790	0.024356
C50	C	2.080651	0.596790	0.524356
C51	C	1.580663	0.096790	0.177690
C52	C	2.080663	0.596790	0.677690
C53	C	1.447750	0.260620	0.211252
C54	C	1.947750	0.760620	0.711252
C55	C	1.447732	0.260613	0.057922
C56	C	1.947732	0.760613	0.557922
H57	H	1.139634	0.181912	-0.521901
H58	H	1.639634	0.681912	-0.021901
Br59	Br	1.702119	-0.183634	-0.429640
Br60	Br	2.202119	0.316366	0.070360
H61	H	1.634763	0.030089	-0.051724
H62	H	2.134763	0.530089	0.448276
H63	H	1.394664	-0.431793	-0.352038
H64	H	1.894664	0.068207	0.147962
Br65	Br	1.269629	-0.246385	-0.320484
Br66	Br	1.769629	0.253615	0.179516
Br67	Br	1.059259	0.179862	-0.087279
Br68	Br	1.559259	0.679862	0.412721
H69	H	1.690378	-0.423360	-0.426779
H70	H	2.190378	0.076640	0.073221
H71	H	0.933538	0.176666	-0.596076
H72	H	1.433538	0.676666	-0.096076
H73	H	1.634780	0.030091	0.226438
H74	H	2.134780	0.530091	0.726438
Br75	Br	0.853153	0.174619	-0.161488
Br76	Br	1.353153	0.674619	0.338512
H77	H	1.393644	0.327314	0.287350
H78	H	1.893644	0.827314	0.787350
Br79	Br	1.357516	0.371774	-0.023350
Br80	Br	1.857516	0.871774	0.476650
