data_functionalizedCrystal
_audit_creation_method	'MofGen! by Chris Wilmer'
_symmetry_space_group_name_H-M	'P1'
_symmetry_Int_Tables_number	1
_symmetry_cell_setting	triclinic
loop_
_symmetry_equiv_pos_as_xyz
  x,y,z
_cell_length_a	8.559649
_cell_length_b	15.995350
_cell_length_c	7.681481
_cell_angle_alpha	84.260013
_cell_angle_beta	94.913240
_cell_angle_gamma	76.635520
loop_
_atom_site_label
_atom_site_type_symbol
_atom_site_fract_x
_atom_site_fract_y
_atom_site_fract_z
O1	O	2.105023	-0.019508	-0.146402
O2	O	1.639818	0.023734	-0.146408
O3	O	1.885137	-0.120592	-0.146403
O4	O	1.859704	0.124818	-0.146407
O5	O	1.915332	-0.138392	0.146455
O6	O	1.670013	0.005934	0.146450
O7	O	2.135218	-0.037308	0.146457
Zn8	Zn	1.907409	-0.018513	0.192951
Zn9	Zn	1.867627	0.004939	-0.192902
O10	O	1.889898	0.107018	0.146452
C11	C	1.595386	0.018111	0.000020
C12	C	1.418005	0.027866	0.000017
C13	C	1.899183	-0.160619	0.000023
C14	C	1.896030	-0.253366	0.000013
C15	C	1.884710	-0.590386	0.000019
C16	C	1.709930	-0.531678	-0.000641
C17	C	1.713151	-0.435230	0.000019
C18	C	1.890325	-0.423187	0.000015
C19	C	1.993741	-0.479970	0.167249
C20	C	1.989366	-0.576332	0.167389
C21	C	1.958639	-0.556680	-0.165646
C22	C	1.958369	-0.459598	-0.167856
C23	C	1.893508	-0.328694	0.000018
C24	C	1.881533	-0.684880	0.000027
C25	C	2.179650	-0.031685	0.000025
C26	C	2.357029	-0.041439	0.000016
C27	C	1.875853	0.147046	0.000022
C28	C	1.879005	0.239793	0.000020
N29	N	1.934572	-0.034520	0.456286
N30	N	1.840477	0.020939	-0.456237
H31	H	1.440525	-0.108235	0.000008
C32	C	1.710704	0.097410	0.442185
C33	C	1.601319	0.161484	0.543361
C34	C	1.471543	0.237957	0.441770
C35	C	1.451153	0.250357	0.239003
C36	C	1.560541	0.186282	0.137816
C37	C	1.690317	0.109809	0.239407
H38	H	1.616410	0.152306	0.693471
H39	H	1.390567	0.285389	0.516676
H40	H	1.355086	0.306967	0.163800
H41	H	1.545450	0.195459	-0.012294
H42	H	1.771293	0.062376	0.164501
C43	C	1.305209	0.118114	0.000013
C44	C	1.169685	0.154900	-0.152065
C45	C	1.056890	0.245146	-0.152069
C46	C	1.079618	0.298606	0.000004
C47	C	1.215148	0.261819	0.152093
C48	C	1.327943	0.171573	0.152097
H49	H	1.152855	0.115326	-0.264648
H50	H	0.956562	0.272377	-0.264656
H51	H	0.996120	0.365411	0.000000
H52	H	1.231978	0.301394	0.264676
H53	H	1.428271	0.144342	0.264684
H54	H	1.882609	-0.420778	-0.291571
C55	C	1.863820	-0.569053	-0.336889
C56	C	1.718037	-0.609931	-0.328478
C57	C	1.623201	-0.622303	-0.499709
C58	C	1.674147	-0.593797	-0.679351
C59	C	1.819938	-0.552917	-0.687769
C60	C	1.914774	-0.540544	-0.516538
H61	H	1.680317	-0.631035	-0.195489
H62	H	1.515277	-0.652566	-0.493476
H63	H	1.603944	-0.602956	-0.806106
H64	H	1.857658	-0.531812	-0.820757
H65	H	2.022698	-0.510282	-0.522770
C66	C	2.064352	-0.110996	0.557871
C67	C	2.085127	-0.123224	0.760639
C68	C	2.214904	-0.199698	0.862224
C69	C	2.323906	-0.263944	0.761041
C70	C	2.303134	-0.251718	0.558263
C71	C	2.173357	-0.175244	0.456678
H72	H	2.004434	-0.075663	0.835550
H73	H	2.230280	-0.208748	1.012334
H74	H	2.419974	-0.320555	0.836241
H75	H	2.383826	-0.299279	0.483351
H76	H	2.157980	-0.166194	0.306567
H77	H	1.633053	-0.395166	-0.119861
H78	H	1.627735	-0.538430	-0.120568
H79	H	1.652706	-0.554050	0.118616
H80	H	1.939418	-0.598191	0.292403
H81	H	1.657339	-0.410279	0.120102
H82	H	2.118419	-0.617289	0.174974
H83	H	2.086530	-0.451930	-0.177957
H84	H	2.087336	-0.596656	-0.166773
H85	H	1.946720	-0.455304	0.291703
H86	H	2.124547	-0.474592	0.173465
