data_functionalizedCrystal
_audit_creation_method	'MofGen! by Chris Wilmer'
_symmetry_space_group_name_H-M	'P1'
_symmetry_Int_Tables_number	1
_symmetry_cell_setting	triclinic
loop_
_symmetry_equiv_pos_as_xyz
  x,y,z
_cell_length_a	10.723024
_cell_length_b	6.394989
_cell_length_c	9.198806
_cell_angle_alpha	90.000201
_cell_angle_beta	90.004274
_cell_angle_gamma	85.482790
loop_
_atom_site_label
_atom_site_type_symbol
_atom_site_fract_x
_atom_site_fract_y
_atom_site_fract_z
O1	O	-1.660298	-0.293022	-0.120894
O2	O	-1.297443	-0.321070	-0.120893
O3	O	-1.484021	-0.003055	-0.120895
O4	O	-1.473720	-0.611036	-0.120893
O5	O	-1.484006	-0.003054	0.120890
O6	O	-1.297428	-0.321069	0.120892
O7	O	-1.660282	-0.293021	0.120891
Cu8	Cu	-1.478854	-0.307045	0.142968
Cu9	Cu	-1.478872	-0.307046	-0.142971
O10	O	-1.473705	-0.611035	0.120892
C11	C	-1.250914	-0.319028	-0.000001
C12	C	-1.112295	-0.312921	-0.000001
C13	C	-1.039201	-0.490865	-0.000000
C14	C	-0.895931	-0.484558	-0.000001
C15	C	-0.706811	-0.295062	-0.000001
C16	C	-0.845430	-0.301169	-0.000001
C17	C	-1.481977	0.074796	-0.000008
C18	C	-1.475752	0.311120	-0.000009
N19	N	-1.478850	-0.307043	0.344082
N20	N	-1.478885	-0.307031	-0.344085
C21	C	-1.557183	-0.172929	0.416279
C22	C	-1.557202	-0.172922	0.583691
H23	H	-1.068806	-0.155907	-0.000038
C24	C	-1.647769	-0.017810	0.332364
C25	C	-1.647502	-0.017835	0.164959
C26	C	-1.738092	0.137291	0.081050
C27	C	-1.828949	0.292442	0.164547
C28	C	-1.829218	0.292474	0.331962
C29	C	-1.738628	0.137348	0.415870
H30	H	-1.580242	-0.132693	0.103141
H31	H	-1.737892	0.137266	-0.042881
H32	H	-1.896009	0.407276	0.102433
H33	H	-1.896478	0.407331	0.393780
H34	H	-1.738828	0.137372	0.539802
H35	H	-1.624270	-0.058109	0.645777
H36	H	-1.411822	-0.421866	0.593839
H37	H	-0.833115	-0.636892	-0.000006
C38	C	-1.388265	-0.462160	0.428000
C39	C	-1.439913	-0.622265	0.532664
C40	C	-1.349325	-0.777388	0.616578
C41	C	-1.207089	-0.772406	0.595826
C42	C	-1.155434	-0.612295	0.491157
C43	C	-1.246022	-0.457172	0.407244
H44	H	-1.545211	-0.625958	0.548030
H45	H	-1.387564	-0.895912	0.694061
H46	H	-1.140030	-0.887237	0.657944
H47	H	-1.050135	-0.608602	0.475791
H48	H	-1.207782	-0.338648	0.329761
H49	H	-1.082689	-0.647879	0.000008
H50	H	-0.908239	-0.148827	-0.000011
