data_functionalizedCrystal
_audit_creation_method	'MofGen! by Chris Wilmer'
_symmetry_space_group_name_H-M	'P1'
_symmetry_Int_Tables_number	1
_symmetry_cell_setting	triclinic
loop_
_symmetry_equiv_pos_as_xyz
  x,y,z
_cell_length_a	19.077105
_cell_length_b	16.120484
_cell_length_c	19.076919
_cell_angle_alpha	95.046610
_cell_angle_beta	90.076224
_cell_angle_gamma	90.738523
loop_
_atom_site_label
_atom_site_type_symbol
_atom_site_fract_x
_atom_site_fract_y
_atom_site_fract_z
Zn1	Zn	1.040337	-0.403262	-0.456942
Zn2	Zn	1.039017	-0.537287	-0.344927
Zn3	Zn	0.928051	-0.392095	-0.334278
Zn4	Zn	0.916861	-0.536784	-0.457659
O5	O	0.981066	-0.467357	-0.398451
O6	O	1.138276	-0.425924	-0.446240
O7	O	1.028428	-0.513564	-0.245000
O8	O	0.948182	-0.276934	-0.345793
O9	O	1.137306	-0.524392	-0.363943
O10	O	1.030678	-0.285138	-0.435913
O11	O	0.946902	-0.406892	-0.237176
O12	O	0.828452	-0.406405	-0.346488
O13	O	0.929109	-0.523535	-0.556078
O14	O	0.820230	-0.512707	-0.437136
O15	O	1.019827	-0.425436	-0.555551
O16	O	1.017576	-0.653863	-0.364638
O17	O	0.927829	-0.653494	-0.447462
C18	C	0.798901	-0.458290	-0.390734
C19	C	0.720969	-0.454433	-0.387451
C20	C	0.680093	-0.508043	-0.433036
C21	C	0.606867	-0.504408	-0.429953
C22	C	0.574519	-0.447165	-0.381281
C23	C	0.615400	-0.393548	-0.335694
C24	C	0.688624	-0.397180	-0.338781
C25	C	0.355979	-0.430354	-0.367000
C26	C	0.282749	-0.426728	-0.363916
C27	C	0.274222	-0.537586	-0.458176
C28	C	0.347448	-0.541217	-0.461255
C29	C	0.388323	-0.487598	-0.415670
N30	N	0.499670	-0.443449	-0.378128
N31	N	0.463169	-0.491310	-0.418828
C32	C	0.971363	-0.683924	-0.407299
C33	C	0.967276	-0.776577	-0.411111
C34	C	0.959816	-0.946215	-0.418084
C35	C	1.002442	-0.987665	-0.378836
C36	C	0.998291	-1.082058	-0.382716
C37	C	0.963966	-0.851814	-0.414205
C38	C	1.163943	-0.476459	-0.406199
C39	C	1.241874	-0.480338	-0.409501
C40	C	0.973367	-0.475675	-0.582072
C41	C	0.970086	-0.479220	-0.660321
C42	C	0.990826	-0.249946	-0.389585
C43	C	0.994984	-0.157298	-0.385807
C44	C	1.015774	-0.429813	-0.696809
C45	C	1.012683	-0.433140	-0.770331
C46	C	0.963906	-0.485879	-0.807364
C47	C	0.918214	-0.535288	-0.770871
C48	C	0.921302	-0.531956	-0.697350
C49	C	0.949602	-0.501317	-1.027278
C50	C	0.946518	-0.504647	-1.100804
C51	C	1.040987	-0.402498	-1.100259
C52	C	1.044074	-0.399174	-1.026737
C53	C	0.998378	-0.448580	-0.990250
N54	N	0.960747	-0.489283	-0.882516
N55	N	1.001535	-0.445171	-0.915099
C56	C	0.988779	-0.459013	-0.215544
C57	C	0.992206	-0.455240	-0.137292
H58	H	0.256414	-0.380104	-0.324285
H59	H	1.078188	-0.362273	-1.129975
C60	C	0.899331	-0.555635	-0.987131
C61	C	0.928873	-0.620287	-0.940520
C62	C	0.878594	-0.674593	-0.900362
C63	C	0.798773	-0.664246	-0.906815
C64	C	0.769227	-0.599591	-0.953429
C65	C	0.819506	-0.545286	-0.993587
H66	H	0.987964	-0.627949	-0.935741
H67	H	0.900466	-0.722455	-0.865855
H68	H	0.761554	-0.704447	-0.877087
H69	H	0.710136	-0.591930	-0.958208
H70	H	0.797634	-0.497424	-1.028093
H71	H	0.920208	-0.981617	-0.454597
H72	H	1.055495	-0.386870	-0.666662
H73	H	0.721905	-0.353521	-0.301664
H74	H	1.042052	-0.952260	-0.342319
H75	H	0.373781	-0.587832	-0.500887
C76	C	0.561907	-0.563388	-0.480095
C77	C	0.509916	-0.624887	-0.450045
C78	C	0.464957	-0.683872	-0.500189
C79	C	0.471989	-0.681357	-0.580383
C80	C	0.523982	-0.619855	-0.610436
C81	C	0.568941	-0.560870	-0.560292
H82	H	0.504709	-0.626751	-0.390677
H83	H	0.426468	-0.729400	-0.477941
H84	H	0.438708	-0.725021	-0.617502
H85	H	0.529190	-0.617991	-0.669804
H86	H	0.607430	-0.515342	-0.582540
C87	C	0.229259	-0.596558	-0.508322
C88	C	0.148715	-0.592566	-0.504935
C89	C	0.103752	-0.651537	-0.555086
C90	C	0.139334	-0.714500	-0.608626
C91	C	0.219883	-0.718495	-0.612015
C92	C	0.264845	-0.659523	-0.561864
H93	H	0.122371	-0.545954	-0.465300
H94	H	0.044125	-0.648579	-0.552577
H95	H	0.106050	-0.758154	-0.645751
H96	H	0.246226	-0.765106	-0.651650
H97	H	0.324473	-0.662481	-0.564373
C98	C	1.062942	-0.378790	-0.810465
C99	C	1.142766	-0.389105	-0.804017
C100	C	1.193027	-0.334749	-0.844148
C101	C	1.163463	-0.270077	-0.890727
C102	C	1.083634	-0.259758	-0.897177
C103	C	1.033374	-0.314115	-0.857046
H104	H	1.164655	-0.436982	-0.769534
H105	H	1.252121	-0.342388	-0.839373
H106	H	1.200669	-0.229839	-0.920435
H107	H	1.061746	-0.211881	-0.931660
H108	H	0.974279	-0.306476	-0.861821
H109	H	1.083794	-0.356231	-0.996590
H110	H	0.389251	-0.386700	-0.329877
H111	H	0.706425	-0.554659	-0.472667
C112	C	0.892881	-0.562690	-1.141544
C113	C	0.842634	-0.617056	-1.101414
C114	C	0.789013	-0.675112	-1.142156
C115	C	0.785639	-0.678802	-1.223028
C116	C	0.835889	-0.624435	-1.263163
C117	C	0.889510	-0.566379	-1.222421
H118	H	0.845129	-0.614326	-1.041543
H119	H	0.751815	-0.715359	-1.112444
H120	H	0.745946	-0.721779	-1.253187
H121	H	0.833393	-0.627165	-1.323034
H122	H	0.926707	-0.526132	-1.252132
C123	C	0.871048	-0.586306	-0.657207
C124	C	0.791223	-0.575997	-0.663654
C125	C	0.740967	-0.630345	-0.623511
C126	C	0.770535	-0.695004	-0.576921
C127	C	0.850365	-0.705316	-0.570472
C128	C	0.900621	-0.650967	-0.610615
H129	H	0.769331	-0.528130	-0.698145
H130	H	0.681872	-0.622711	-0.628285
H131	H	0.733332	-0.735236	-0.547205
H132	H	0.872257	-0.753182	-0.535981
H133	H	0.959716	-0.658601	-0.605841
H134	H	0.878496	-0.578226	-0.801029
H135	H	0.589056	-0.346936	-0.296068
