data_functionalizedCrystal
_audit_creation_method	'MofGen! by Chris Wilmer'
_symmetry_space_group_name_H-M	'P1'
_symmetry_Int_Tables_number	1
_symmetry_cell_setting	triclinic
loop_
_symmetry_equiv_pos_as_xyz
  x,y,z
_cell_length_a	12.759401
_cell_length_b	12.759393
_cell_length_c	12.759393
_cell_angle_alpha	90.028574
_cell_angle_beta	89.981504
_cell_angle_gamma	89.985012
loop_
_atom_site_label
_atom_site_type_symbol
_atom_site_fract_x
_atom_site_fract_y
_atom_site_fract_z
Zn1	Zn	1.606254	0.418200	-0.594003
Zn2	Zn	1.606148	0.593919	-0.418332
Zn3	Zn	1.430556	0.418255	-0.418343
Zn4	Zn	1.430545	0.593838	-0.593974
O5	O	1.518376	0.506053	-0.506163
O6	O	1.753261	0.441520	-0.570708
O7	O	1.582816	0.570674	-0.271313
O8	O	1.453912	0.271227	-0.441661
O9	O	1.753183	0.570620	-0.441644
O10	O	1.582997	0.271186	-0.570718
O11	O	1.453810	0.441614	-0.271320
O12	O	1.283534	0.441536	-0.441632
O13	O	1.453892	0.570482	-0.740999
O14	O	1.283525	0.570536	-0.570668
O15	O	1.582986	0.441442	-0.741020
O16	O	1.582805	0.740929	-0.441615
O17	O	1.453790	0.740870	-0.570658
C18	C	1.245409	0.506034	-0.506149
C19	C	1.128632	0.506051	-0.506168
C20	C	1.518313	0.779021	-0.506155
C21	C	1.518382	0.895797	-0.506187
C22	C	1.073793	0.573329	-0.573245
C23	C	0.964069	0.573342	-0.573257
C24	C	0.964033	0.438796	-0.439104
C25	C	1.073755	0.438779	-0.439098
C26	C	1.073813	0.651011	-0.650694
C27	C	0.964089	0.651024	-0.650706
C28	C	1.652827	0.895806	-0.371915
C29	C	1.720076	0.950671	-0.304795
C30	C	1.720138	1.060392	-0.304831
C31	C	1.652945	1.115251	-0.371996
C32	C	1.585695	1.060386	-0.439116
C33	C	1.585639	0.950662	-0.439071
C34	C	1.451258	1.060378	-0.573392
C35	C	1.451189	0.950656	-0.573352
C36	C	1.384065	1.115237	-0.640557
C37	C	1.316808	1.060372	-0.707673
C38	C	1.316748	0.950644	-0.707634
C39	C	1.383940	0.895791	-0.640472
C40	C	1.792409	0.506073	-0.506178
C41	C	1.909186	0.506082	-0.506184
C42	C	1.518450	0.505947	-0.780196
C43	C	1.518481	0.505902	-0.896973
C44	C	1.518468	1.232020	-0.506210
C45	C	1.518507	1.115243	-0.506272
C46	C	1.585709	0.438704	-0.951848
C47	C	1.585734	0.438666	-1.061572
C48	C	1.451300	0.573033	-1.061537
C49	C	1.451270	0.573065	-0.951815
C50	C	1.663327	0.361132	-0.951869
C51	C	1.663352	0.361094	-1.061594
C52	C	1.518363	0.506083	-0.233196
C53	C	1.518535	0.505832	-0.116420
H54	H	1.118400	0.383988	-0.384484
H55	H	1.103621	0.629311	-0.732100
C56	C	0.904259	0.365887	-0.366318
C57	C	0.796431	0.380318	-0.380659
C58	C	0.741338	0.313184	-0.313612
H59	H	0.922127	0.295267	-0.381739
H60	H	0.922153	0.381193	-0.295679
H61	H	0.778544	0.365005	-0.451282
H62	H	0.778532	0.450924	-0.365230
H63	H	0.759232	0.328491	-0.242973
H64	H	0.759215	0.242569	-0.329038
H65	H	0.668172	0.322974	-0.323326
H66	H	1.107827	0.728263	-0.621414
C67	C	1.378312	0.645901	-0.892046
C68	C	1.392648	0.631538	-0.784217
C69	C	1.325444	0.698608	-0.729126
H70	H	1.393592	0.716533	-0.909887
H71	H	1.307711	0.630494	-0.909967
H72	H	1.463233	0.646952	-0.766303
H73	H	1.377360	0.560920	-0.766345
H74	H	1.254843	0.683201	-0.747047
H75	H	1.340730	0.769236	-0.746975
H76	H	1.335155	0.688865	-0.655959
C77	C	0.924554	0.759544	-0.621393
C78	C	1.010065	0.825910	-0.603451
C79	C	0.973687	0.925878	-0.576434
H80	H	0.883240	0.786788	-0.676987
H81	H	0.883198	0.755093	-0.559625
H82	H	1.051405	0.830364	-0.665212
H83	H	1.051389	0.798700	-0.547853
H84	H	0.932330	0.921427	-0.514666
H85	H	0.932372	0.953112	-0.632032
H86	H	1.031700	0.970917	-0.564248
H87	H	1.396577	0.627712	-1.106202
C88	C	1.634223	0.252592	-0.912382
C89	C	1.616451	0.186166	-0.997922
C90	C	1.589624	0.086180	-0.961587
H91	H	1.689856	0.225437	-0.871054
H92	H	1.572429	0.256982	-0.871049
H93	H	1.678237	0.181773	-1.039238
H94	H	1.560813	0.213287	-1.039259
H95	H	1.527830	0.090569	-0.920254
H96	H	1.645261	0.059035	-0.920259
H97	H	1.577552	0.041100	-1.019619
H98	H	1.634238	0.283785	-1.095637
C99	C	1.384243	1.234363	-0.640798
C100	C	1.411050	1.270557	-0.740849
C101	C	1.411237	1.380291	-0.741108
H102	H	1.316501	1.259389	-0.622656
H103	H	1.433947	1.259224	-0.591254
H104	H	1.361348	1.245708	-0.790378
H105	H	1.478793	1.245560	-0.759011
H106	H	1.460941	1.405151	-0.691564
H107	H	1.343493	1.405306	-0.722963
H108	H	1.429434	1.404862	-0.808988
H109	H	1.740598	0.390300	-0.917835
H110	H	0.930091	0.621980	-0.728056
C111	C	1.792847	0.891051	-0.231744
C112	C	1.733350	0.828188	-0.164320
C113	C	1.800350	0.773266	-0.097004
H114	H	1.838604	0.848090	-0.271829
H115	H	1.832889	0.939407	-0.191713
H116	H	1.693325	0.779838	-0.204347
H117	H	1.687596	0.871123	-0.124212
H118	H	1.840392	0.821622	-0.056974
H119	H	1.846103	0.730311	-0.137099
H120	H	1.759991	0.730614	-0.051244
H121	H	1.383891	0.806450	-0.640427
H122	H	1.744722	0.382886	-1.091373
C123	C	1.793190	1.119777	-0.231845
C124	C	1.852006	1.048257	-0.173000
C125	C	1.919302	1.102924	-0.105746
H126	H	1.839062	1.162515	-0.271970
H127	H	1.753064	1.162627	-0.185997
H128	H	1.892130	1.005426	-0.218842
H129	H	1.806163	1.005518	-0.132854
H130	H	1.879176	1.145774	-0.059898
H131	H	1.965167	1.145660	-0.145879
H132	H	1.959210	1.054407	-0.065805
H133	H	1.652770	0.806465	-0.371866
C134	C	1.243826	1.119742	-0.780705
C135	C	1.184929	1.048214	-0.839493
C136	C	1.117696	1.102872	-0.906792
H137	H	1.198002	1.162628	-0.740615
H138	H	1.284001	1.162444	-0.826587
H139	H	1.144757	1.005531	-0.793618
H140	H	1.230725	1.005327	-0.879605
H141	H	1.157871	1.145573	-0.952673
H142	H	1.071879	1.145755	-0.866693
H143	H	1.077734	1.054349	-0.946694
C144	C	1.243672	0.890948	-0.780342
C145	C	1.176334	0.828043	-0.720789
C146	C	1.109011	0.773032	-0.787734
H147	H	1.203570	0.939218	-0.820368
H148	H	1.283789	0.848012	-0.826117
H149	H	1.136221	0.870975	-0.675031
H150	H	1.216407	0.779753	-0.680765
H151	H	1.149128	0.730096	-0.833509
H152	H	1.068916	0.821310	-0.827756
H153	H	1.063321	0.730338	-0.747337
H154	H	1.653010	1.204592	-0.372028
