data_functionalizedCrystal
_audit_creation_method	'MofGen! by Chris Wilmer'
_symmetry_space_group_name_H-M	'P1'
_symmetry_Int_Tables_number	1
_symmetry_cell_setting	triclinic
loop_
_symmetry_equiv_pos_as_xyz
  x,y,z
_cell_length_a	9.065218
_cell_length_b	10.654550
_cell_length_c	9.130313
_cell_angle_alpha	89.997082
_cell_angle_beta	89.997322
_cell_angle_gamma	84.750408
loop_
_atom_site_label
_atom_site_type_symbol
_atom_site_fract_x
_atom_site_fract_y
_atom_site_fract_z
O1	O	0.207235	1.668660	-0.121773
O2	O	0.226979	1.303260	-0.121780
O3	O	0.002423	1.493513	-0.121774
O4	O	0.431791	1.478407	-0.121780
O5	O	0.002417	1.493500	0.121825
O6	O	0.226972	1.303247	0.121819
O7	O	0.207228	1.668647	0.121826
Cu8	Cu	0.217100	1.485946	0.144065
Cu9	Cu	0.217107	1.485961	-0.144019
O10	O	0.431784	1.478394	0.121819
C11	C	-0.052559	1.492055	0.000024
C12	C	-0.216378	1.487714	0.000016
C13	C	0.225526	1.256450	0.000019
C14	C	0.221188	1.116989	0.000016
C15	C	0.208681	1.715457	0.000024
C16	C	0.213019	1.854918	0.000017
C17	C	0.486766	1.479852	0.000019
C18	C	0.650585	1.484193	0.000016
N19	N	0.217093	1.485944	0.346687
C20	C	0.080804	1.933880	0.000013
C21	C	0.084888	2.064917	0.000018
C22	C	0.353413	2.038017	0.000024
C23	C	0.349328	1.906983	0.000029
N24	N	0.217102	1.485973	-0.346642
C25	C	0.117702	1.570217	0.423342
C26	C	0.117703	1.570229	0.576679
C27	C	0.316498	1.401691	0.576693
C28	C	0.316489	1.401674	0.423359
H29	H	-0.030188	1.891493	0.000006
O30	O	0.010505	1.661137	0.659343
H31	H	-0.061804	1.607476	0.729209
O32	O	-0.057718	2.150082	0.000023
H33	H	-0.062274	2.210440	-0.099254
O34	O	0.423719	1.310816	0.659386
H35	H	0.407042	1.324995	0.778888
O36	O	0.500430	2.094171	0.000021
H37	H	0.481062	2.198554	0.000001
O38	O	0.423684	1.310758	0.340676
H39	H	0.406960	1.324891	0.221173
O40	O	0.491936	1.821800	0.000042
H41	H	0.557108	1.840484	-0.099250
O42	O	0.010486	1.661088	0.340639
H43	H	-0.058637	1.719680	0.419709
