data_functionalizedCrystal
_audit_creation_method	'MofGen! by Chris Wilmer'
_symmetry_space_group_name_H-M	'P1'
_symmetry_Int_Tables_number	1
_symmetry_cell_setting	triclinic
loop_
_symmetry_equiv_pos_as_xyz
  x,y,z
_cell_length_a	18.101398
_cell_length_b	21.295417
_cell_length_c	18.101389
_cell_angle_alpha	89.977434
_cell_angle_beta	89.975673
_cell_angle_gamma	90.025773
loop_
_atom_site_label
_atom_site_type_symbol
_atom_site_fract_x
_atom_site_fract_y
_atom_site_fract_z
Zn1	Zn	1.132124	-0.250755	-0.418817
Zn2	Zn	1.132021	-0.356008	-0.294967
Zn3	Zn	1.008283	-0.250748	-0.294979
Zn4	Zn	1.008235	-0.355981	-0.418755
O5	O	1.070166	-0.303373	-0.356880
O6	O	1.235743	-0.264731	-0.402409
O7	O	1.115584	-0.342054	-0.191335
O8	O	1.024774	-0.162660	-0.311437
O9	O	1.235668	-0.342060	-0.311417
O10	O	1.115759	-0.162664	-0.402421
O11	O	1.024674	-0.264720	-0.191344
O12	O	0.904644	-0.264694	-0.311377
O13	O	1.024692	-0.342014	-0.522397
O14	O	0.904609	-0.342008	-0.402315
O15	O	1.115713	-0.264705	-0.522442
O16	O	1.115538	-0.444094	-0.311357
O17	O	1.024592	-0.444074	-0.402304
C18	C	0.877755	-0.303348	-0.356841
C19	C	0.795441	-0.303352	-0.356842
C20	C	0.496350	-0.303391	-0.356904
C21	C	0.527673	-0.254504	-0.299967
C22	C	0.613291	-0.254635	-0.299724
C23	C	0.644733	-0.303371	-0.356873
C24	C	0.613615	-0.369679	-0.335543
C25	C	0.527970	-0.369407	-0.335147
C26	C	0.527965	-0.286547	-0.435305
C27	C	0.613615	-0.285070	-0.434877
C28	C	0.728592	-0.303364	-0.356857
C29	C	0.412491	-0.303403	-0.356919
C30	C	1.070069	-0.466925	-0.356839
C31	C	1.070095	-0.536893	-0.356846
C32	C	1.117492	-0.569749	-0.309538
C33	C	1.117527	-0.635491	-0.309555
C34	C	1.070151	-0.668375	-0.356871
C35	C	1.022751	-0.635511	-0.404188
C36	C	1.022722	-0.569770	-0.404175
N37	N	1.005367	-0.771637	-0.362504
N38	N	1.005396	-0.834089	-0.362512
C39	C	1.070234	-0.866450	-0.356914
N40	N	1.135044	-0.834001	-0.351293
N41	N	1.135014	-0.771543	-0.351282
C42	C	1.070177	-0.739661	-0.356891
C43	C	1.117673	-0.970592	-0.309622
C44	C	1.117709	-1.036335	-0.309644
C45	C	1.022926	-1.036354	-0.404273
C46	C	1.022897	-0.970612	-0.404255
C47	C	1.070269	-0.937734	-0.356925
C48	C	1.263328	-0.303399	-0.356919
C49	C	1.345642	-0.303410	-0.356935
C50	C	1.070209	-0.303357	-0.550042
C51	C	1.070227	-0.303350	-0.632356
C52	C	1.070283	-0.139183	-0.356937
C53	C	1.070334	-0.069215	-0.356961
C54	C	1.070270	-0.303232	-0.931447
C55	C	1.012805	-0.351719	-0.900093
C56	C	1.012960	-0.351944	-0.814475
C57	C	1.070248	-0.303291	-0.783064
C58	C	1.148274	-0.321303	-0.814168
C59	C	1.147953	-0.321621	-0.899813
C60	C	1.050388	-0.236626	-0.899877
C61	C	1.048652	-0.237011	-0.814226
C62	C	1.070240	-0.303323	-0.699205
C63	C	1.070283	-0.303202	-1.015306
C64	C	1.070166	-0.303344	-0.164469
C65	C	1.070291	-0.303173	-0.082155
H66	H	0.507959	-0.383693	-0.277832
N67	N	0.639124	-0.223858	-0.455070
N68	N	0.620469	-0.200436	-0.515577
H69	H	0.638485	-0.157203	-0.529837
H70	H	0.991232	-0.223428	-0.793895
H71	H	1.156126	-0.662248	-0.271032
N72	N	0.639178	-0.416594	-0.385934
N73	N	0.706884	-0.426404	-0.393065
H74	H	0.724940	-0.459536	-0.428655
N75	N	0.500922	-0.226944	-0.459643
N76	N	0.520206	-0.205645	-0.521054
H77	H	0.501108	-0.163548	-0.538237
N78	N	1.166059	-0.936991	-0.261290
N79	N	1.140018	-0.900345	-0.214066
H80	H	1.174192	-0.876614	-0.179934
N81	N	0.974485	-0.937048	-0.452586
N82	N	0.979364	-0.944357	-0.520927
H83	H	0.945174	-0.920654	-0.555067
N84	N	0.638959	-0.268619	-0.226853
N85	N	0.678378	-0.315886	-0.215869
H86	H	0.696507	-0.325765	-0.164401
N87	N	0.501979	-0.416659	-0.384887
N88	N	0.518878	-0.472893	-0.374611
H89	H	0.500524	-0.506268	-0.409735
N90	N	0.640471	-0.387901	-0.264412
N91	N	0.626339	-0.354952	-0.209052
H92	H	0.645304	-0.367818	-0.158813
H93	H	0.984125	-0.543018	-0.442700
N94	N	0.501857	-0.192634	-0.316556
N95	N	0.460070	-0.183846	-0.370533
H96	H	0.441830	-0.140149	-0.382249
H97	H	1.026087	-0.401314	-0.793988
N98	N	1.166141	-1.069889	-0.261322
N99	N	1.208434	-1.040524	-0.219073
H100	H	1.242641	-1.064221	-0.184946
H101	H	0.635021	-0.318083	-0.479573
N102	N	0.639700	-0.192950	-0.316467
N103	N	0.679276	-0.164326	-0.271006
H104	H	0.697928	-0.120758	-0.282823
H105	H	0.506124	-0.265512	-0.242211
H106	H	0.507709	-0.322155	-0.477728
N107	N	1.165885	-0.536177	-0.261190
N108	N	1.208203	-0.565526	-0.218954
H109	H	1.242382	-0.541815	-0.184808
H110	H	0.984178	-0.662290	-0.442715
N111	N	0.939998	-0.337717	-0.925904
N112	N	0.911162	-0.285869	-0.911261
H113	H	0.859740	-0.275978	-0.929496
N114	N	1.203423	-0.278389	-0.788648
N115	N	1.185794	-0.233946	-0.747150
H116	H	1.224743	-0.203637	-0.729125
H117	H	0.984355	-1.063127	-0.442802
N118	N	0.940375	-0.337800	-0.788097
N119	N	0.889247	-0.327694	-0.832941
H120	H	0.837980	-0.317708	-0.814316
N121	N	1.169104	-0.382703	-0.924871
N122	N	1.183997	-0.424800	-0.879106
H123	H	1.198936	-0.467941	-0.896799
H124	H	1.025801	-0.400788	-0.921614
N125	N	1.097320	-0.189287	-0.787387
N126	N	1.102578	-0.179489	-0.719511
H127	H	1.136956	-0.145787	-0.700551
H128	H	1.192220	-0.287839	-0.920557
N129	N	1.169780	-0.381734	-0.787258
N130	N	1.127778	-0.411640	-0.745182
H131	H	1.142963	-0.454321	-0.726176
N132	N	0.980253	-0.216045	-0.926963
N133	N	0.944068	-0.250223	-0.969870
H134	H	0.894533	-0.235694	-0.989002
N135	N	1.102899	-0.191313	-0.925318
N136	N	1.154761	-0.207916	-0.966519
H137	H	1.191850	-0.175918	-0.984490
