data_functionalizedCrystal
_audit_creation_method	'MofGen! by Chris Wilmer'
_symmetry_space_group_name_H-M	'P1'
_symmetry_Int_Tables_number	1
_symmetry_cell_setting	triclinic
loop_
_symmetry_equiv_pos_as_xyz
  x,y,z
_cell_length_a	18.215407
_cell_length_b	16.120444
_cell_length_c	18.215399
_cell_angle_alpha	87.129468
_cell_angle_beta	90.016899
_cell_angle_gamma	92.923917
loop_
_atom_site_label
_atom_site_type_symbol
_atom_site_fract_x
_atom_site_fract_y
_atom_site_fract_z
Zn1	Zn	1.110204	-0.331973	0.430910
Zn2	Zn	1.610204	0.168027	0.930910
Zn3	Zn	1.103869	-0.471395	0.314081
Zn4	Zn	1.603869	0.028605	0.814081
Zn5	Zn	0.987136	-0.331993	0.307864
Zn6	Zn	1.487136	0.168007	0.807864
Zn7	Zn	0.980861	-0.471342	0.437110
Zn8	Zn	1.480861	0.028658	0.937110
O9	O	1.045517	-0.401676	0.372491
O10	O	1.545517	0.098324	0.872491
O11	O	1.212347	-0.350482	0.415419
O12	O	1.712347	0.149518	0.915419
O13	O	1.088358	-0.452934	0.210273
O14	O	1.588358	0.047066	0.710273
O15	O	1.008739	-0.215325	0.318990
O16	O	1.508739	0.284675	0.818990
O17	O	1.207693	-0.452915	0.329585
O18	O	1.707693	0.047085	0.829585
O19	O	1.099157	-0.215310	0.409391
O20	O	1.599157	0.284690	0.909391
O21	O	1.002595	-0.350516	0.205706
O22	O	1.502595	0.149484	0.705706
O23	O	0.883320	-0.350464	0.325002
O24	O	1.383320	0.149536	0.825002
O25	O	0.998044	-0.452823	0.539270
O26	O	1.498044	0.047177	1.039270
O27	O	0.878710	-0.452843	0.419958
O28	O	1.378710	0.047157	0.919958
O29	O	1.093072	-0.350430	0.534715
O30	O	1.593072	0.149570	1.034715
O31	O	1.082274	-0.588054	0.335597
O32	O	1.582274	-0.088054	0.835597
O33	O	0.991901	-0.588015	0.425986
O34	O	1.491901	-0.088015	0.925986
C35	C	0.854312	-0.401650	0.372479
C36	C	1.354312	0.098350	0.872479
C37	C	0.772513	-0.401659	0.372492
C38	C	1.272513	0.098341	0.872492
C39	C	0.505070	-0.455072	0.421874
C40	C	1.005070	0.044928	0.921874
C41	C	0.581929	-0.455065	0.421870
C42	C	1.081929	0.044935	0.921870
C43	C	0.586706	-0.348299	0.323122
C44	C	1.086706	0.151701	0.823122
C45	C	0.509848	-0.348311	0.323123
C46	C	1.009848	0.151689	0.823123
C47	C	0.469032	-0.401696	0.372503
C48	C	0.969032	0.098304	0.872503
C49	C	0.622749	-0.401677	0.372498
C50	C	1.122749	0.098323	0.872498
C51	C	0.706083	-0.401669	0.372494
C52	C	1.206083	0.098331	0.872494
C53	C	0.385692	-0.401705	0.372507
C54	C	0.885692	0.098295	0.872507
C55	C	1.035739	-0.618285	0.382155
C56	C	1.535739	-0.118285	0.882155
C57	C	1.031623	-0.710951	0.386314
C58	C	1.531623	-0.210951	0.886314
C59	C	1.067050	-0.921893	0.351076
C60	C	1.567050	-0.421893	0.851076
C61	C	1.024121	-0.880608	0.393914
C62	C	1.524121	-0.380608	0.893914
C63	C	1.028296	-0.786202	0.389684
C64	C	1.528296	-0.286202	0.889684
C65	C	1.062876	-1.016307	0.355305
C66	C	1.562876	-0.516307	0.855305
C67	C	1.237469	-0.401702	0.372504
C68	C	1.737469	0.098298	0.872504
C69	C	1.319268	-0.401713	0.372510
C70	C	1.819268	0.098287	0.872510
C71	C	1.045565	-0.401618	0.564442
C72	C	1.545565	0.098382	1.064442
C73	C	1.045585	-0.401594	0.646239
C74	C	1.545585	0.098406	1.146239
C75	C	1.055354	-0.184221	0.362806
C76	C	1.555354	0.315779	0.862806
C77	C	1.059546	-0.091555	0.358678
C78	C	1.559546	0.408445	0.858678
C79	C	1.045515	-0.401673	0.181285
C80	C	1.545515	0.098327	0.681285
C81	C	1.045648	-0.401463	0.099477
C82	C	1.545648	0.098537	0.599477
C83	C	1.095085	-0.348228	0.832061
C84	C	1.595085	0.151772	1.332061
C85	C	1.095095	-0.348204	0.908918
C86	C	1.595095	0.151796	1.408918
C87	C	0.996143	-0.454831	0.913650
C88	C	1.496143	0.045169	1.413650
C89	C	0.996130	-0.454850	0.836794
C90	C	1.496130	0.045150	1.336794
C91	C	1.045605	-0.401550	0.796001
C92	C	1.545605	0.098450	1.296001
C93	C	1.045628	-0.401506	0.949715
C94	C	1.545628	0.098494	1.449715
C95	C	1.045638	-0.401480	1.033048
C96	C	1.545638	0.098520	1.533048
C97	C	1.045594	-0.401575	0.712663
C98	C	1.545594	0.098425	1.212663
H99	H	0.611267	-0.498530	0.462072
H100	H	1.111267	0.001470	0.962072
Br101	Br	0.642103	-0.275847	0.256112
Br102	Br	1.142103	0.224153	0.756112
Br103	Br	1.162229	-0.275891	0.776701
Br104	Br	1.662229	0.224109	1.276701
H105	H	0.955863	-0.498228	0.946873
H106	H	1.455863	0.001772	1.446873
H107	H	0.984234	-0.916163	0.433767
H108	H	1.484234	-0.416163	0.933767
Br109	Br	0.460934	-0.275872	0.256110
Br110	Br	0.960934	0.224128	0.756110
Br111	Br	0.928967	-0.527214	0.787851
Br112	Br	1.428967	-0.027214	1.287851
Br113	Br	1.133528	-0.862634	0.284655
Br114	Br	1.633528	-0.362634	0.784655
H115	H	1.135386	-0.304782	0.938274
H116	H	1.635386	0.195218	1.438274
H117	H	0.471839	-0.498542	0.462082
H118	H	0.971839	0.001458	0.962082
