data_functionalizedCrystal
_audit_creation_method	'MofGen! by Chris Wilmer'
_symmetry_space_group_name_H-M	'P1'
_symmetry_Int_Tables_number	1
_symmetry_cell_setting	triclinic
loop_
_symmetry_equiv_pos_as_xyz
  x,y,z
_cell_length_a	10.540558
_cell_length_b	27.732064
_cell_length_c	9.616153
_cell_angle_alpha	89.989566
_cell_angle_beta	89.999257
_cell_angle_gamma	96.408732
loop_
_atom_site_label
_atom_site_type_symbol
_atom_site_fract_x
_atom_site_fract_y
_atom_site_fract_z
O1	O	-0.151132	0.641872	0.115378
O2	O	-0.174074	0.501225	0.115432
O3	O	0.022241	0.574752	0.115419
O4	O	-0.347447	0.568344	0.115392
O5	O	0.022260	0.574757	-0.115873
O6	O	-0.174054	0.501229	-0.115859
O7	O	-0.151113	0.641876	-0.115913
Zn8	Zn	-0.162581	0.571553	-0.152609
Zn9	Zn	-0.162606	0.571548	0.152128
O10	O	-0.347427	0.568349	-0.115900
C11	C	-0.173579	0.483217	-0.000206
C12	C	-0.172119	0.429553	-0.000184
C13	C	0.069532	0.574272	-0.000220
C14	C	0.210417	0.572829	-0.000199
C15	C	0.391454	0.517649	0.000358
C16	C	0.244901	0.519113	-0.000176
C17	C	0.273203	0.598680	-0.132283
C18	C	0.419667	0.596843	-0.132380
C19	C	0.420210	0.597930	0.130641
C20	C	0.273251	0.598429	0.132374
C21	C	-0.046169	0.051684	-0.000254
C22	C	-0.051542	0.253379	-0.000219
O23	O	0.046191	0.284013	-0.000263
N24	N	-0.167953	0.273242	-0.000221
C25	C	-0.283029	0.242678	-0.000241
O26	O	-0.382167	0.264201	-0.000257
C27	C	-0.277655	0.040985	-0.000287
C28	C	-0.161236	0.021125	-0.000271
C29	C	0.070239	0.031823	-0.000239
C30	C	0.071581	-0.018597	-0.000241
C31	C	-0.043486	-0.049157	-0.000257
C32	C	-0.159894	-0.029296	-0.000272
C33	C	-0.392729	0.010423	-0.000317
C34	C	-0.391375	-0.040003	-0.000332
C35	C	-0.274957	-0.059864	-0.000316
C36	C	-0.273619	-0.110276	-0.000290
N37	N	-0.157209	-0.130140	-0.000287
C38	C	-0.042142	-0.099580	-0.000271
C39	C	-0.285842	0.348571	-0.000214
C40	C	-0.287186	0.398994	-0.000201
C41	C	-0.055699	0.409690	-0.000180
C42	C	-0.054357	0.359266	-0.000184
C43	C	-0.169432	0.328707	-0.000212
C44	C	-0.039332	-0.205467	-0.000273
C45	C	-0.038000	-0.255893	-0.000268
C46	C	-0.269487	-0.266585	-0.000296
C47	C	-0.270819	-0.216164	-0.000293
C48	C	-0.155732	-0.185606	-0.000286
O49	O	-0.371300	-0.140940	-0.000260
O50	O	0.056982	-0.121112	-0.000286
C51	C	-0.047511	0.102105	-0.000253
C52	C	-0.163920	0.121966	-0.000268
C53	C	-0.278987	0.091406	-0.000284
C54	C	-0.165264	0.172389	-0.000254
C55	C	-0.050197	0.202949	-0.000238
C56	C	0.066213	0.183085	-0.000235
C57	C	0.067555	0.132665	-0.000237
C58	C	-0.395398	0.111270	-0.000286
C59	C	-0.396731	0.161691	-0.000283
C60	C	-0.281664	0.192250	-0.000267
C61	C	0.605279	0.568822	-0.000235
C62	C	0.464388	0.570247	-0.000180
C63	C	-0.151607	0.659884	-0.000272
C64	C	-0.153067	0.713548	-0.000284
N65	N	-0.162614	0.571544	0.360102
N66	N	-0.162562	0.571561	-0.360583
C67	C	-0.267725	0.532260	0.580479
C68	C	-0.267489	0.532108	0.419312
C69	C	-0.030279	0.560200	0.418591
C70	C	-0.030867	0.559927	0.579809
C71	C	-0.188552	0.622317	0.579967
C72	C	-0.191598	0.621980	0.418740
H73	H	0.419128	0.496428	0.095085
O74	O	-0.086964	0.661062	0.630456
H75	H	-0.035788	0.678732	0.539794
O76	O	0.075838	0.597072	0.367759
H77	H	0.124271	0.615946	0.458229
H78	H	-0.119934	0.652618	0.378431
O79	O	-0.393587	-0.299553	-0.000315
H80	H	-0.474770	-0.277275	-0.000314
O81	O	0.245851	0.650932	-0.138823
H82	H	0.291255	0.668363	-0.233053
O83	O	0.187272	0.492160	0.125220
H84	H	0.264069	0.477960	0.186790
O85	O	0.430237	0.489655	-0.124394
H86	H	0.501231	0.513041	-0.186781
O87	O	0.484992	0.649320	0.131826
H88	H	0.548355	0.655140	0.039748
O89	O	-0.000385	0.510882	0.629634
H90	H	0.087626	0.515463	0.693865
O91	O	-0.398476	0.541151	0.631824
H92	H	-0.400421	0.539445	0.747135
H93	H	0.451003	0.580543	0.230758
H94	H	0.202267	0.498633	-0.095009
O95	O	0.194363	0.064778	-0.000217
H96	H	0.199323	0.088014	-0.094485
O97	O	0.455952	0.571534	-0.263135
H98	H	0.368928	0.560717	-0.325698
H99	H	0.166381	-0.034763	-0.000233
H100	H	0.049703	0.587446	0.618795
H101	H	-0.250965	0.494446	0.380766
H102	H	-0.365617	-0.199993	-0.000305
O103	O	0.068412	0.442656	-0.000188
H104	H	0.073333	0.465882	0.094077
H105	H	-0.288955	0.630576	0.380537
O106	O	-0.515494	-0.072965	-0.000355
H107	H	-0.596663	-0.050680	-0.000353
O108	O	-0.246154	0.482655	0.634154
H109	H	-0.230702	0.458534	0.545093
H110	H	0.469307	0.635473	-0.138383
O111	O	0.193121	0.111246	-0.000244
H112	H	0.272897	0.140973	-0.000249
O113	O	0.190320	0.216054	-0.000231
H114	H	0.246076	0.208943	0.094045
H115	H	-0.006707	0.523593	0.378224
H116	H	0.040442	0.343100	-0.000172
O117	O	-0.313581	0.636654	0.633821
H118	H	-0.358595	0.607760	0.703569
O119	O	0.217932	0.573410	0.261812
H120	H	0.262831	0.591715	0.355043
O121	O	-0.522304	0.183110	-0.000319
H122	H	-0.602084	0.153384	-0.000350
H123	H	0.229835	0.580726	-0.230568
O124	O	0.243429	0.650307	0.142926
H125	H	0.183094	0.658693	0.053440
H126	H	-0.489102	0.086392	-0.000301
O127	O	-0.397812	0.541128	0.366927
H128	H	-0.470214	0.512099	0.405663
O129	O	0.087569	-0.277315	-0.000269
H130	H	0.167353	-0.247590	-0.000277
H131	H	0.054383	-0.180592	-0.000267
H132	H	-0.381986	0.415159	-0.000195
H133	H	-0.379556	0.323693	-0.000235
H134	H	-0.487529	0.026584	-0.000324
