data_functionalizedCrystal
_audit_creation_method	'MofGen! by Chris Wilmer'
_symmetry_space_group_name_H-M	'P1'
_symmetry_Int_Tables_number	1
_symmetry_cell_setting	triclinic
loop_
_symmetry_equiv_pos_as_xyz
  x,y,z
_cell_length_a	21.295420
_cell_length_b	21.295418
_cell_length_c	19.805399
_cell_angle_alpha	90.029354
_cell_angle_beta	89.983906
_cell_angle_gamma	89.968030
loop_
_atom_site_label
_atom_site_type_symbol
_atom_site_fract_x
_atom_site_fract_y
_atom_site_fract_z
Zn1	Zn	0.962288	0.250644	-0.382704
Zn2	Zn	0.962200	0.355916	-0.269515
Zn3	Zn	0.857027	0.250661	-0.269530
Zn4	Zn	0.856975	0.355877	-0.382663
O5	O	0.909622	0.303274	-0.326103
O6	O	1.050366	0.264618	-0.367700
O7	O	0.948234	0.341977	-0.174800
O8	O	0.871049	0.162570	-0.284566
O9	O	1.050301	0.341961	-0.284540
O10	O	0.948383	0.162557	-0.367714
O11	O	0.870964	0.264647	-0.174811
O12	O	0.768931	0.264609	-0.284526
O13	O	0.870959	0.341894	-0.477385
O14	O	0.768892	0.341910	-0.367645
O15	O	0.948333	0.264580	-0.477415
O16	O	0.948183	0.444000	-0.284501
O17	O	0.870874	0.443971	-0.367630
C18	C	0.746071	0.303257	-0.326083
C19	C	0.676103	0.303265	-0.326091
C20	C	0.909531	0.466826	-0.326074
C21	C	0.909549	0.536794	-0.326085
C22	C	0.176641	0.343599	-0.369340
C23	C	0.242384	0.343600	-0.369333
C24	C	0.275263	0.303289	-0.326124
C25	C	0.242395	0.262986	-0.282906
C26	C	0.176654	0.262991	-0.282910
N27	N	0.378508	0.248172	-0.321032
N28	N	0.440959	0.248169	-0.321033
C29	C	0.473338	0.303271	-0.326110
N30	N	0.440906	0.358378	-0.331199
N31	N	0.378449	0.358381	-0.331202
C32	C	0.346549	0.303279	-0.326115
C33	C	0.577484	0.343574	-0.369314
C34	C	0.643228	0.343576	-0.369302
C35	C	0.643238	0.262957	-0.282878
C36	C	0.577495	0.262961	-0.282886
C37	C	0.544622	0.303269	-0.326108
C38	C	0.949901	1.036192	-0.369467
C39	C	0.949888	0.970450	-0.369458
C40	C	0.909649	0.937634	-0.326130
C41	C	0.869431	0.970565	-0.282795
C42	C	0.869449	1.036306	-0.282801
N43	N	0.854522	0.834462	-0.320874
N44	N	0.854507	0.772011	-0.320872
C45	C	0.909594	0.739559	-0.326109
N46	N	0.964697	0.771918	-0.331361
N47	N	0.964712	0.834375	-0.331366
C48	C	0.909625	0.866348	-0.326119
C49	C	0.949799	0.635350	-0.369428
C50	C	0.949788	0.569606	-0.369414
C51	C	0.869325	0.569722	-0.282755
C52	C	0.869341	0.635465	-0.282765
C53	C	0.909578	0.668275	-0.326105
C54	C	1.073813	0.303292	-0.326123
C55	C	1.143781	0.303300	-0.326131
C56	C	0.909708	1.139084	-0.326140
C57	C	0.909685	1.069116	-0.326141
C58	C	0.909650	0.303231	-0.502646
C59	C	0.909662	0.303212	-0.577878
C60	C	0.869439	0.262943	-0.613227
C61	C	0.869447	0.262930	-0.683915
C62	C	0.909683	0.303185	-0.719253
C63	C	0.949908	0.343459	-0.683899
C64	C	0.949895	0.343474	-0.613212
C65	C	0.949958	0.343400	-0.968972
C66	C	0.949968	0.343381	-1.039664
C67	C	0.869509	0.262857	-1.039676
C68	C	0.869497	0.262871	-0.968989
C69	C	0.909719	0.303148	-0.933641
C70	C	0.909709	0.303161	-0.856992
C71	C	0.909697	0.303169	-0.795900
C72	C	0.909631	0.303273	-0.150247
C73	C	0.909741	0.303114	-0.075015
H74	H	0.269144	0.376416	-0.404522
C75	C	0.994226	0.387666	-1.078535
H76	H	1.018176	0.411659	-1.047359
H77	H	1.021676	0.363584	-1.106119
H78	H	0.970125	0.415083	-1.106100
H79	H	0.982540	0.542799	-0.404694
H80	H	0.550740	0.230142	-0.247703
C81	C	0.994060	0.671446	-0.417093
H82	H	0.988305	0.715315	-0.410899
H83	H	1.036359	0.660645	-0.407231
H84	H	0.984811	0.660652	-0.462562
C85	C	0.825060	0.533632	-0.235096
H86	H	0.830806	0.489763	-0.241300
H87	H	0.834301	0.544424	-0.189629
H88	H	0.782760	0.544436	-0.244966
C89	C	0.278559	0.218643	-0.235380
H90	H	0.322419	0.224407	-0.241571
H91	H	0.267769	0.227803	-0.189885
H92	H	0.267807	0.176359	-0.245371
C93	C	0.140506	0.218655	-0.235382
H94	H	0.169501	0.194644	-0.209649
H95	H	0.114835	0.242701	-0.205849
H96	H	0.114885	0.191256	-0.261335
C97	C	0.825255	0.218562	-1.078561
H98	H	0.831017	0.224323	-1.125721
H99	H	0.834492	0.176270	-1.066993
H100	H	0.782951	0.227780	-1.066964
C101	C	0.825166	0.934473	-0.235135
H102	H	0.801219	0.963500	-0.209328
H103	H	0.797714	0.908837	-0.260996
H104	H	0.849262	0.908823	-0.205665
C105	C	0.825096	0.671683	-0.235113
H106	H	0.801125	0.642725	-0.209310
H107	H	0.849200	0.697327	-0.205649
H108	H	0.797657	0.697335	-0.260985
C109	C	0.541321	0.387874	-0.416893
H110	H	0.570310	0.411870	-0.442633
H111	H	0.515720	0.363791	-0.446417
H112	H	0.515632	0.415289	-0.390989
C113	C	0.825174	0.218667	-0.574362
H114	H	0.801214	0.194688	-0.605541
H115	H	0.849260	0.191245	-0.546794
H116	H	0.797724	0.242759	-0.546781
H117	H	0.982702	0.376202	-0.940200
H118	H	0.982665	0.376238	-0.712676
C119	C	0.825205	0.218630	-0.722797
H120	H	0.801248	0.194652	-0.691627
H121	H	0.797763	0.242697	-0.750362
H122	H	0.849315	0.191199	-0.750382
H123	H	0.669982	0.376397	-0.404486
H124	H	0.836735	0.230090	-0.940220
C125	C	0.994141	0.387771	-0.574327
H126	H	1.018109	0.411739	-0.605496
H127	H	0.970036	0.415200	-0.546742
H128	H	1.021583	0.363698	-0.546762
H129	H	0.149880	0.376424	-0.404532
H130	H	0.982670	1.062902	-0.404753
H131	H	0.670007	0.230137	-0.247694
H132	H	0.982638	0.943639	-0.404741
C133	C	0.825204	1.072524	-0.235145
H134	H	0.801234	1.043566	-0.209340
H135	H	0.849308	1.098170	-0.205683
H136	H	0.797764	1.098174	-0.261018
