data_functionalizedCrystal
_audit_creation_method	'MofGen! by Chris Wilmer'
_symmetry_space_group_name_H-M	'P1'
_symmetry_Int_Tables_number	1
_symmetry_cell_setting	triclinic
loop_
_symmetry_equiv_pos_as_xyz
  x,y,z
_cell_length_a	20.919309
_cell_length_b	15.698487
_cell_length_c	20.919309
_cell_angle_alpha	62.593614
_cell_angle_beta	90.173912
_cell_angle_gamma	57.440736
loop_
_atom_site_label
_atom_site_type_symbol
_atom_site_fract_x
_atom_site_fract_y
_atom_site_fract_z
Zr1	Zr	0.644061	0.859723	-0.056702
O2	O	0.541833	1.037434	-0.158923
O3	O	0.675400	0.682011	-0.025368
O4	O	0.680602	0.845871	-0.153724
O5	O	0.532527	0.884501	0.070684
O6	O	0.790065	0.834944	-0.149620
O7	O	0.536631	0.873574	-0.030568
O8	O	0.780760	0.541829	0.079985
O9	O	0.541833	1.177616	-0.158921
O10	O	0.770457	0.746952	-0.008939
O11	O	0.685703	0.763261	0.063561
O12	O	0.691828	0.956184	-0.087561
O13	O	0.607074	0.972493	-0.015061
Zr14	Zr	0.812098	0.859722	0.111327
Zr15	Zr	0.818643	0.842296	-0.050157
Zr16	Zr	0.637517	0.877149	0.104782
Zr17	Zr	0.644061	1.083296	-0.056699
Zr18	Zr	0.812099	0.636148	0.111324
O19	O	0.780759	1.037433	0.079993
O20	O	0.790065	1.012655	-0.149617
O21	O	0.532527	1.062212	0.070686
O22	O	0.914327	0.682010	0.213549
O23	O	0.923632	0.657233	-0.016061
O24	O	0.666095	0.706789	0.204242
O25	O	0.923632	0.834944	-0.016058
O26	O	0.775558	0.873573	0.208349
O27	O	0.666094	0.884500	0.204245
O28	O	0.919529	0.845870	0.085193
O29	O	0.680601	1.163764	-0.153718
O30	O	0.775558	0.555681	0.208344
O31	O	0.914327	0.541829	0.213546
O32	O	0.919529	0.527977	0.085188
O33	O	0.536630	1.191467	-0.030563
O34	O	0.675399	1.177615	-0.025360
O35	O	0.764332	0.763260	0.142186
O36	O	0.849086	0.746952	0.069686
O37	O	0.770456	0.956184	-0.008936
O38	O	0.685703	0.972492	0.063564
C39	C	0.728080	0.580066	0.027308
C40	C	0.728080	0.485153	0.027306
C41	C	0.509705	0.881520	0.019125
C42	C	0.435591	0.888919	0.016347
C43	C	0.728078	0.311372	0.027320
C44	C	0.728077	0.408076	0.027314
C45	C	0.441813	0.783180	0.056077
C46	C	0.372172	0.790138	0.053465
C47	C	0.296310	0.902836	0.011116
C48	C	0.290089	1.008583	-0.028615
C49	C	0.359729	1.001624	-0.025998
C50	C	0.083988	0.929313	0.001164
C51	C	0.014346	0.936265	-0.001452
C52	C	0.096435	0.717819	0.080629
C53	C	0.166073	0.710869	0.083239
C54	C	0.159846	0.816616	0.043511
C55	C	0.225124	0.909952	0.008443
C56	C	0.231030	0.809500	0.046189
C57	C	0.946455	0.837924	0.035500
C58	C	1.020569	0.830526	0.038279
C59	C	0.736266	0.837925	-0.174680
C60	C	0.739044	0.830527	-0.243234
C61	C	0.728079	1.139378	0.027317
C62	C	0.728079	1.234291	0.027319
C63	C	0.699307	0.936266	-0.316481
C64	C	0.701928	0.929307	-0.380892
C65	C	0.744282	0.816608	-0.372055
C66	C	0.784024	0.710862	-0.298800
C67	C	0.781407	0.717821	-0.234390
C68	C	0.754241	0.790130	-0.564477
C69	C	0.756852	0.783179	-0.628894
C70	C	0.674757	1.001625	-0.710982
C71	C	0.672141	1.008575	-0.646567
C72	C	0.711886	0.902828	-0.573318
C73	C	0.746960	0.809493	-0.437892
C74	C	0.709212	0.909944	-0.507482
C75	C	0.719894	0.881520	0.229305
C76	C	0.717115	0.888917	0.297859
C77	C	0.946455	0.558268	0.035495
C78	C	1.020570	0.455957	0.038272
C79	C	0.719894	0.601863	0.229300
C80	C	0.717116	0.514348	0.297853
C81	C	0.938269	0.580065	0.237488
C82	C	1.009605	0.485152	0.308819
C83	C	0.517891	1.139379	-0.182862
C84	C	0.446555	1.234292	-0.254194
C85	C	0.509705	1.161177	0.019130
C86	C	0.435590	1.263488	0.016353
C87	C	0.736266	1.117581	-0.174675
C88	C	0.739044	1.205096	-0.243228
C89	C	1.014331	0.407910	-0.001472
C90	C	1.083964	0.311789	0.001122
C91	C	1.159833	0.263712	0.043465
C92	C	1.166070	0.311768	0.083211
C93	C	1.096439	0.407892	0.080612
C94	C	0.756854	0.473251	0.371095
C95	C	0.754241	0.391035	0.435513
C96	C	0.711893	0.349911	0.426689
C97	C	0.672149	0.391017	0.353439
C98	C	0.674759	0.473238	0.289022
C99	C	1.087353	0.432066	0.304473
C100	C	1.154388	0.342896	0.371491
C101	C	1.143673	0.306808	0.442853
C102	C	1.065917	0.359903	0.447198
C103	C	0.998884	0.449077	0.380181
C104	C	0.368807	1.287389	-0.249848
C105	C	0.301772	1.376587	-0.316865
C106	C	0.312487	1.412680	-0.388228
C107	C	0.390243	1.359579	-0.392572
C108	C	0.457276	1.270389	-0.325556
C109	C	0.441829	1.311543	0.056090
C110	C	0.372197	1.407686	0.053478
C111	C	0.296327	1.455767	0.011133
C112	C	0.290091	1.407707	-0.028609
C113	C	0.359722	1.311571	-0.026002
C114	C	0.781399	1.246193	-0.234379
C115	C	0.784025	1.328410	-0.298785
C116	C	0.744291	1.369535	-0.372039
C117	C	0.701934	1.328429	-0.380886
C118	C	0.699313	1.246207	-0.316481
H119	H	0.503580	0.691409	0.090565
H120	H	1.227852	0.272609	0.117685
Cl121	Cl	0.837271	1.380077	-0.287645
H122	H	0.101495	0.631725	0.112974
H123	H	0.818514	0.619100	-0.291609
H124	H	0.669584	1.361925	-0.440539
H125	H	1.096093	0.461435	0.246372
H126	H	1.101529	0.447000	0.112981
Cl127	Cl	0.810100	0.524929	0.382208
Cl128	Cl	0.800196	0.667820	-0.426790
Cl129	Cl	0.831359	1.194509	-0.142295
Cl130	Cl	1.052460	0.314519	0.536917
H131	H	0.642401	0.506688	0.229388
H132	H	1.217694	0.299674	0.367940
Cl133	Cl	0.618917	0.339303	0.342359
H134	H	0.078908	1.015419	-0.031199
Cl135	Cl	0.208798	1.576623	0.007864
Cl136	Cl	0.708622	0.246544	0.507680
Cl137	Cl	0.804212	0.339371	0.527589
H138	H	0.257897	1.485305	-0.442792
H139	H	1.198262	0.234195	0.497417
H140	H	0.637654	1.100345	-0.653771
Cl141	Cl	0.380056	1.468079	0.103449
Cl142	Cl	1.247363	0.142865	0.046727
H143	H	0.746431	1.436485	-0.424476
Cl144	Cl	0.351904	1.134559	-0.075944
Cl145	Cl	0.194718	1.150263	-0.081848
Cl146	Cl	0.901145	0.515797	0.385658
H147	H	0.664819	1.212755	-0.323697
H148	H	0.377246	0.704035	0.085819
H149	H	0.360067	1.258008	-0.191747
H150	H	0.228308	1.446869	-0.063086
Cl151	Cl	0.204031	1.443320	-0.311386
Cl152	Cl	0.403700	1.404962	-0.482292
Cl153	Cl	1.076105	0.251391	-0.048844
H154	H	0.520581	1.227157	-0.329103
H155	H	0.503599	1.272404	0.090578
Cl156	Cl	0.326399	0.667828	0.099432
H157	H	0.354631	1.272448	-0.058359
H158	H	-0.047426	1.028042	-0.035940
Cl159	Cl	0.261440	0.569185	0.136479
H160	H	0.163349	1.001711	-0.026037
H161	H	0.669572	1.015410	-0.440531
Cl162	Cl	0.646059	1.077951	-0.327600
H163	H	0.642400	1.087718	-0.770626
H164	H	0.791341	0.691402	-0.621690
H165	H	0.786604	0.704023	-0.504843
Cl166	Cl	0.831374	0.584886	-0.142306
H167	H	0.674731	1.001702	-0.514674
H168	H	0.952561	0.447052	-0.035962
