data_functionalizedCrystal
_audit_creation_method	'MofGen! by Chris Wilmer'
_symmetry_space_group_name_H-M	'P1'
_symmetry_Int_Tables_number	1
_symmetry_cell_setting	triclinic
loop_
_symmetry_equiv_pos_as_xyz
  x,y,z
_cell_length_a	18.215407
_cell_length_b	10.686203
_cell_length_c	18.215399
_cell_angle_alpha	94.390030
_cell_angle_beta	89.983176
_cell_angle_gamma	94.365226
loop_
_atom_site_label
_atom_site_type_symbol
_atom_site_fract_x
_atom_site_fract_y
_atom_site_fract_z
Zn1	Zn	1.147603	0.502315	-0.393721
Zn2	Zn	1.647603	1.002315	0.106279
Zn3	Zn	1.156992	0.713340	-0.261246
Zn4	Zn	1.656992	1.213340	0.238754
Zn5	Zn	1.024544	0.502365	-0.270666
Zn6	Zn	1.524544	1.002365	0.229334
Zn7	Zn	1.033972	0.713261	-0.384275
Zn8	Zn	1.533972	1.213261	0.115725
O9	O	1.090778	0.607821	-0.327477
O10	O	1.590778	1.107821	0.172523
O11	O	1.251833	0.530320	-0.376159
O12	O	1.751833	1.030320	0.123841
O13	O	1.139406	0.685408	-0.159509
O14	O	1.639406	1.185408	0.340491
O15	O	1.032993	0.325783	-0.294885
O16	O	1.532993	0.825783	0.205115
O17	O	1.258731	0.685360	-0.278830
O18	O	1.758731	1.185360	0.221170
O19	O	1.123404	0.325746	-0.385293
O20	O	1.623404	0.825746	0.114707
O21	O	1.042097	0.530406	-0.166430
O22	O	1.542097	1.030406	0.333570
O23	O	0.922810	0.530329	-0.285725
O24	O	1.422810	1.030329	0.214275
O25	O	1.049062	0.685225	-0.488514
O26	O	1.549062	1.185225	0.011486
O27	O	0.929737	0.685273	-0.369193
O28	O	1.429737	1.185273	0.130807
O29	O	1.132546	0.530244	-0.495454
O30	O	1.632546	1.030244	0.004546
O31	O	1.148549	0.889906	-0.269671
O32	O	1.648549	1.389906	0.230329
O33	O	1.058166	0.889847	-0.360059
O34	O	1.558166	1.389847	0.139941
C35	C	0.899571	0.607799	-0.327457
C36	C	1.399571	1.107799	0.172543
C37	C	0.817773	0.607820	-0.327464
C38	C	1.317773	1.107820	0.172536
C39	C	0.633210	0.688627	-0.370861
C40	C	1.133210	1.188627	0.129139
C41	C	0.556352	0.688631	-0.370870
C42	C	1.056352	1.188631	0.129130
C43	C	0.549098	0.527037	-0.284108
C44	C	1.049098	1.027037	0.215892
C45	C	0.625955	0.527028	-0.284103
C46	C	1.125955	1.027028	0.215897
C47	C	0.668010	0.607830	-0.327478
C48	C	1.168010	1.107830	0.172522
C49	C	0.514294	0.607843	-0.327492
C50	C	1.014294	1.107843	0.172508
C51	C	0.430961	0.607847	-0.327501
C52	C	0.930961	1.107847	0.172499
C53	C	0.751348	0.607825	-0.327470
C54	C	1.251348	1.107825	0.172530
C55	C	1.105419	0.935661	-0.312834
C56	C	1.605419	1.435661	0.187166
C57	C	1.111750	1.075912	-0.306594
C58	C	1.611750	1.575912	0.193406
C59	C	1.282732	0.607843	-0.327497
C60	C	1.782732	1.107843	0.172503
C61	C	1.364531	0.607853	-0.327506
C62	C	1.864531	1.107853	0.172494
C63	C	1.090808	0.607720	-0.519434
C64	C	1.590808	1.107720	-0.019434
C65	C	1.090821	0.607677	-0.601235
C66	C	1.590821	1.107677	-0.101235
C67	C	1.076092	1.278700	-0.342201
C68	C	1.576092	1.778700	0.157799
C69	C	1.069816	1.138449	-0.348495
C70	C	1.569816	1.638449	0.151505
C71	C	1.040189	0.526913	-0.793036
C72	C	1.540189	1.026913	-0.293036
C73	C	1.040201	0.526887	-0.869896
C74	C	1.540201	1.026887	-0.369896
C75	C	1.141534	0.688291	-0.862679
C76	C	1.641534	1.188291	-0.362679
C77	C	1.141518	0.688321	-0.785820
C78	C	1.641518	1.188321	-0.285820
C79	C	1.090847	0.607625	-0.751001
C80	C	1.590847	1.107625	-0.251001
C81	C	1.090874	0.607569	-0.904720
C82	C	1.590874	1.107569	-0.404720
C83	C	1.090887	0.607542	-0.988055
C84	C	1.590887	1.107542	-0.488055
C85	C	1.090833	0.607654	-0.667661
C86	C	1.590833	1.107654	-0.167661
C87	C	1.090786	0.607830	-0.136270
C88	C	1.590786	1.107830	0.363730
C89	C	1.090900	0.607517	-0.054486
C90	C	1.590900	1.107517	0.445514
H91	H	0.528022	0.754422	-0.406198
H92	H	1.028022	1.254422	0.093802
H93	H	0.654289	0.461226	-0.248776
H94	H	1.154289	0.961226	0.251224
H95	H	0.514848	0.461253	-0.248792
H96	H	1.014848	0.961253	0.251208
O97	O	1.021312	1.074270	-0.397075
O98	O	1.521312	1.574270	0.102925
C99	C	1.059777	0.997901	-0.447992
C100	C	1.559777	1.497901	0.052008
H101	H	1.119506	1.037612	-0.450844
H102	H	1.619506	1.537612	0.049156
H103	H	1.033051	0.996250	-0.504677
H104	H	1.533051	1.496250	-0.004677
H105	H	1.057876	0.898090	-0.429631
H106	H	1.557876	1.398090	0.070369
H107	H	1.152493	1.129674	-0.265938
H108	H	1.652493	1.629674	0.234062
O109	O	0.990893	0.448498	-0.759327
O110	O	1.490893	0.948498	-0.259327
C111	C	0.946195	0.377235	-0.812915
C112	C	1.446195	0.877235	-0.312915
H113	H	0.945968	0.428898	-0.865389
H114	H	1.445968	0.928898	-0.365389
H115	H	0.887605	0.363789	-0.791308
H116	H	1.387605	0.863789	-0.291308
H117	H	0.968866	0.281397	-0.825379
H118	H	1.468866	0.781397	-0.325379
H119	H	0.998950	0.461164	-0.904118
H120	H	1.498950	0.961164	-0.404118
H121	H	1.182771	0.754052	-0.751594
H122	H	1.682771	1.254052	-0.251594
O123	O	0.673950	0.767145	-0.413068
O124	O	1.173950	1.267145	0.086932
C125	C	0.626751	0.838478	-0.451347
C126	C	1.126751	1.338478	0.048653
H127	H	0.569657	0.786805	-0.456252
H128	H	1.069657	1.286805	0.043748
H129	H	0.649583	0.852050	-0.508711
H130	H	1.149583	1.352050	-0.008711
H131	H	0.622847	0.934259	-0.420034
H132	H	1.122847	1.434259	0.079966
O133	O	1.190727	0.766550	-0.896623
O134	O	1.690727	1.266550	-0.396623
C135	C	1.179869	0.749239	-0.973474
C136	C	1.679869	1.249239	-0.473474
H137	H	1.151424	0.651854	-0.988328
H138	H	1.651424	1.151854	-0.488328
H139	H	1.235382	0.757790	-1.002305
H140	H	1.735382	1.257790	-0.502305
H141	H	1.144022	0.824072	-0.991933
H142	H	1.644022	1.324072	-0.491933
