data_functionalizedCrystal
_audit_creation_method	'MofGen! by Chris Wilmer'
_symmetry_space_group_name_H-M	'P1'
_symmetry_Int_Tables_number	1
_symmetry_cell_setting	triclinic
loop_
_symmetry_equiv_pos_as_xyz
  x,y,z
_cell_length_a	14.519731
_cell_length_b	12.996460
_cell_length_c	14.519709
_cell_angle_alpha	90.005823
_cell_angle_beta	83.684499
_cell_angle_gamma	89.993340
loop_
_atom_site_label
_atom_site_type_symbol
_atom_site_fract_x
_atom_site_fract_y
_atom_site_fract_z
O1	O	1.223840	0.085571	0.120987
O2	O	1.723840	0.585571	0.620987
O3	O	0.955366	0.085573	0.135203
O4	O	1.455366	0.585573	0.635203
O5	O	1.096721	0.085563	-0.006143
O6	O	1.596721	0.585563	0.493857
O7	O	1.082485	0.085582	0.262333
O8	O	1.582485	0.585582	0.762333
O9	O	1.096739	-0.085571	-0.006151
O10	O	1.596739	0.414429	0.493849
O11	O	0.955384	-0.085561	0.135195
O12	O	1.455384	0.414439	0.635195
O13	O	1.223858	-0.085563	0.120979
O14	O	1.723858	0.414437	0.620979
Cu15	Cu	1.089623	-0.101187	0.128086
Cu16	Cu	1.589623	0.398813	0.628086
Cu17	Cu	1.089601	0.101198	0.128095
Cu18	Cu	1.589601	0.601198	0.628095
O19	O	1.082503	-0.085552	0.262324
O20	O	1.582503	0.414448	0.762324
C21	C	0.921016	0.000006	0.134532
C22	C	1.421016	0.500006	0.634532
C23	C	0.818635	0.000007	0.132536
C24	C	1.318635	0.500007	0.632536
C25	C	0.735491	0.000011	0.130915
C26	C	1.235491	0.500011	0.630915
C27	C	0.631182	0.000011	0.128888
C28	C	1.131182	0.500011	0.628888
C29	C	0.548043	0.000011	0.127280
C30	C	1.048043	0.500011	0.627280
C31	C	0.443728	0.000013	0.125253
C32	C	0.943728	0.500013	0.625253
C33	C	1.096067	-0.000004	-0.040507
C34	C	1.596067	0.499996	0.459493
C35	C	1.094079	-0.000005	-0.142889
C36	C	1.594079	0.499995	0.357111
C37	C	1.258209	0.000007	0.121649
C38	C	1.758209	0.500007	0.621649
C39	C	1.360589	0.000013	0.123645
C40	C	1.860589	0.500013	0.623645
N41	N	1.089645	-0.243535	0.128079
N42	N	1.589645	0.256465	0.628079
N43	N	1.089587	0.243545	0.128095
N44	N	1.589587	0.743545	0.628095
C45	C	1.089590	0.336651	0.128096
C46	C	1.589590	0.836651	0.628096
C47	C	1.089602	0.453456	0.128095
C48	C	1.589602	0.953456	0.628095
C49	C	1.089618	0.546555	0.128088
C50	C	1.589618	1.046555	0.628088
C51	C	1.089629	0.663367	0.128085
C52	C	1.589629	1.163367	0.628085
C53	C	1.086759	0.000022	-0.517785
C54	C	1.586759	0.500022	-0.017785
C55	C	1.088792	0.000014	-0.413477
C56	C	1.588792	0.500014	0.086523
C57	C	1.090419	0.000008	-0.330340
C58	C	1.590419	0.500008	0.169660
C59	C	1.092452	0.000002	-0.226025
C60	C	1.592452	0.500002	0.273975
C61	C	1.083157	0.000017	0.296688
C62	C	1.583157	0.500017	0.796688
C63	C	1.085146	0.000024	0.399070
C64	C	1.585146	0.500024	0.899070
