data_functionalizedCrystal
_audit_creation_method	'MofGen! by Chris Wilmer'
_symmetry_space_group_name_H-M	'P1'
_symmetry_Int_Tables_number	1
_symmetry_cell_setting	triclinic
loop_
_symmetry_equiv_pos_as_xyz
  x,y,z
_cell_length_a	19.188930
_cell_length_b	14.853567
_cell_length_c	13.930277
_cell_angle_alpha	90.004245
_cell_angle_beta	89.990320
_cell_angle_gamma	96.610144
loop_
_atom_site_label
_atom_site_type_symbol
_atom_site_fract_x
_atom_site_fract_y
_atom_site_fract_z
O1	O	0.091155	-1.195862	-0.079776
O2	O	0.102014	-0.933342	-0.079794
O3	O	-0.005046	-1.072177	-0.079766
O4	O	0.198215	-1.057026	-0.079804
O5	O	-0.005048	-1.072158	0.079896
O6	O	0.102012	-0.933322	0.079868
O7	O	0.091153	-1.195842	0.079886
Zn8	Zn	0.096582	-1.064579	0.105227
Zn9	Zn	0.096585	-1.064605	-0.105135
O10	O	0.198213	-1.057007	0.079858
C11	C	-0.031060	-1.071677	0.000068
C12	C	-0.108569	-1.070204	0.000076
C13	C	0.101521	-0.899746	0.000035
C14	C	0.100046	-0.799671	0.000029
N15	N	0.096579	-1.064569	0.248793
C16	C	-0.153221	-1.151668	0.000086
C17	C	-0.226050	-1.150285	0.000071
C18	C	-0.254223	-1.067432	0.000065
C19	C	-0.209561	-0.985957	0.000049
C20	C	-0.136734	-0.987343	0.000055
N21	N	-0.362440	-1.004095	0.054396
N22	N	-0.431623	-1.002783	0.054393
C23	C	-0.473645	-1.063251	0.000045
N24	N	-0.443873	-1.125093	-0.054287
N25	N	-0.374684	-1.126407	-0.054279
C26	C	-0.333190	-1.065920	0.000058
C27	C	-0.597267	-1.143220	0.000037
C28	C	-0.670096	-1.141833	0.000015
C29	C	-0.653606	-0.977503	0.000003
C30	C	-0.580778	-0.978893	0.000015
C31	C	-0.552613	-1.061754	0.000036
C32	C	0.224226	-1.057507	0.000022
C33	C	0.301736	-1.058980	0.000008
C34	C	0.091646	-1.229438	0.000055
C35	C	0.093120	-1.329513	0.000055
C36	C	0.030218	-0.387525	0.000064
C37	C	0.157407	-0.365537	0.000039
C38	C	0.158794	-0.459563	0.000036
C39	C	0.095891	-0.517574	0.000045
C40	C	0.031602	-0.481560	0.000058
C41	C	0.223081	-0.495585	0.000013
C42	C	0.224470	-0.589616	0.000009
C43	C	0.161567	-0.647629	0.000025
C44	C	0.097276	-0.611610	0.000039
C45	C	0.034373	-0.669621	0.000048
C46	C	-0.029919	-0.633603	0.000069
C47	C	-0.031301	-0.539574	0.000074
C48	C	0.162949	-0.741659	0.000020
C49	C	0.035757	-0.763656	0.000042
N50	N	0.096582	-1.064623	-0.248701
C51	C	0.143972	-1.003126	0.701050
C52	C	0.049192	-1.126108	0.701044
C53	C	0.049190	-1.126098	0.600548
C54	C	0.096580	-1.064601	0.550299
C55	C	0.143973	-1.003115	0.600545
C56	C	0.001803	-1.187588	0.550295
C57	C	0.001799	-1.187581	0.449793
C58	C	0.049187	-1.126079	0.399541
C59	C	0.096581	-1.064590	0.449794
C60	C	0.143971	-1.003094	0.399544
C61	C	0.191363	-0.941600	0.449794
C62	C	0.191361	-0.941614	0.550293
C63	C	0.049189	-1.126065	0.299043
C64	C	0.143972	-1.003083	0.299039
H65	H	-0.130295	-1.219140	0.000100
H66	H	-0.676543	-0.910043	-0.000007
H67	H	0.276821	-0.618933	-0.000008
O68	O	0.218525	-0.309224	-0.000144
C69	C	0.326830	-0.261692	-0.082851
C70	C	0.257631	-0.325508	-0.082776
H71	H	0.358473	-0.274848	-0.149642
H72	H	0.314836	-0.188283	-0.082910
H73	H	0.358433	-0.274745	-0.016008
H74	H	0.225994	-0.312537	-0.149607
H75	H	0.269673	-0.398897	-0.082667
H76	H	-0.015466	-0.810884	0.000053
O77	O	-0.569818	-1.223649	-0.000083
C78	C	-0.497178	-1.320607	-0.082814
C79	C	-0.528203	-1.229483	-0.082785
H80	H	-0.463538	-1.325361	-0.149682
H81	H	-0.463461	-1.325371	-0.016036
H82	H	-0.541616	-1.378583	-0.082772
H83	H	-0.483810	-1.171454	-0.082860
H84	H	-0.561938	-1.224797	-0.149557
O85	O	0.284198	-0.439269	-0.000170
C86	C	0.392496	-0.391721	-0.082885
C87	C	0.323300	-0.455542	-0.082809
H88	H	0.424137	-0.404868	-0.149681
H89	H	0.380499	-0.318313	-0.082935
H90	H	0.424104	-0.404776	-0.016048
H91	H	0.291658	-0.442568	-0.149635
H92	H	0.335346	-0.528929	-0.082709
H93	H	-0.262413	-1.216625	0.000075
O94	O	0.237331	-0.881899	0.400829
C95	C	0.279362	-0.827436	0.245995
C96	C	0.227257	-0.895077	0.301332
H97	H	0.271246	-0.838080	0.165542
H98	H	0.270161	-0.755248	0.265687
H99	H	0.335295	-0.838948	0.265798
H100	H	0.171304	-0.883649	0.281559
H101	H	0.236520	-0.967242	0.281635
O102	O	-0.537498	-0.899674	0.000060
C103	C	-0.528830	-0.736538	-0.000007
C104	C	-0.577924	-0.826190	-0.000032
H105	H	-0.561494	-0.677103	-0.000102
H106	H	-0.494346	-0.733010	0.066830
H107	H	-0.494296	-0.733137	-0.066806
H108	H	-0.612501	-0.829652	0.066722
H109	H	-0.612359	-0.829681	-0.066914
O110	O	-0.237007	-0.905531	-0.000083
C111	C	-0.309618	-0.808588	-0.082842
C112	C	-0.278596	-0.899714	-0.082794
H113	H	-0.343237	-0.803847	-0.149717
H114	H	-0.343355	-0.803807	-0.016071
H115	H	-0.265179	-0.750613	-0.082802
H116	H	-0.322990	-0.957741	-0.082868
H117	H	-0.244840	-0.904416	-0.149559
O118	O	-0.032276	-0.352649	-0.000047
C119	C	-0.141390	-0.342633	-0.082770
C120	C	-0.070648	-0.382208	-0.082751
H121	H	-0.172427	-0.366500	-0.149640
H122	H	-0.172527	-0.366572	-0.015994
H123	H	-0.131560	-0.265464	-0.082718
H124	H	-0.080413	-0.459377	-0.082838
H125	H	-0.039533	-0.358197	-0.149522
O126	O	0.237371	-0.881976	0.599255
C127	C	0.279351	-0.827467	0.754085
C128	C	0.227217	-0.895064	0.698752
H129	H	0.271150	-0.838012	0.834538
H130	H	0.335305	-0.838989	0.734378
H131	H	0.270160	-0.755304	0.734291
H132	H	0.236344	-0.967254	0.718516
H133	H	0.171281	-0.883462	0.718463
H134	H	-0.100377	-0.921003	0.000047
O135	O	-0.090975	-0.690052	-0.000052
C136	C	-0.163235	-0.808945	-0.082799
C137	C	-0.094060	-0.745080	-0.082769
H138	H	-0.165759	-0.853438	-0.149678
H139	H	-0.165771	-0.853584	-0.016033
H140	H	-0.209414	-0.767039	-0.082735
H141	H	-0.047843	-0.786914	-0.082866
H142	H	-0.091586	-0.700438	-0.149529
H143	H	-0.083644	-0.510239	0.000114
O144	O	0.225436	-0.776542	-0.000129
C145	C	0.334548	-0.786569	-0.082908
C146	C	0.263808	-0.746988	-0.082849
H147	H	0.365585	-0.762706	-0.149789
H148	H	0.365688	-0.762629	-0.016144
H149	H	0.324715	-0.863737	-0.082860
H150	H	0.273577	-0.669819	-0.082930
H151	H	0.232691	-0.770999	-0.149607
H152	H	0.182561	-0.953001	0.258132
O153	O	-0.044306	-1.247342	0.401133
C154	C	-0.138290	-1.369359	0.411743
C155	C	-0.086124	-1.301718	0.466970
H156	H	-0.172104	-1.413353	0.464948
H157	H	-0.173275	-1.330617	0.364739
H158	H	-0.108071	-1.414227	0.364643
H159	H	-0.116286	-1.256833	0.514121
H160	H	-0.051140	-1.340517	0.513913
O161	O	0.003093	-1.185827	0.250379
C162	C	-0.090882	-1.307858	0.260984
C163	C	-0.038723	-1.240209	0.316214
H164	H	-0.124694	-1.351856	0.314188
H165	H	-0.125870	-1.269122	0.213978
H166	H	-0.060657	-1.352720	0.213888
H167	H	-0.068891	-1.195329	0.363363
H168	H	-0.003737	-1.279001	0.363160
O169	O	0.003061	-1.185798	0.749752
C170	C	-0.118272	-1.239046	0.780583
C171	C	-0.066100	-1.171416	0.725336
H172	H	-0.174200	-1.227430	0.760878
H173	H	-0.109140	-1.311237	0.760795
H174	H	-0.110092	-1.228498	0.861037
H175	H	-0.074249	-1.181882	0.644869
H176	H	-0.075245	-1.099249	0.745203
H177	H	-0.706452	-1.208174	0.000018
H178	H	0.182556	-0.953056	0.741966
H179	H	-0.036778	-1.237662	0.591211
