data_functionalizedCrystal
_audit_creation_method	'MofGen! by Chris Wilmer'
_symmetry_space_group_name_H-M	'P1'
_symmetry_Int_Tables_number	1
_symmetry_cell_setting	triclinic
loop_
_symmetry_equiv_pos_as_xyz
  x,y,z
_cell_length_a	8.597227
_cell_length_b	13.930277
_cell_length_c	8.559649
_cell_angle_alpha	90.003218
_cell_angle_beta	102.378032
_cell_angle_gamma	82.289768
loop_
_atom_site_label
_atom_site_type_symbol
_atom_site_fract_x
_atom_site_fract_y
_atom_site_fract_z
O1	O	-2.053825	0.249726	0.237940
O2	O	-1.594674	0.211745	0.256223
O3	O	-1.864701	0.234080	0.015110
O4	O	-1.783798	0.227390	0.479054
O5	O	-1.864669	0.074416	0.015104
O6	O	-1.594642	0.052080	0.256218
O7	O	-2.053793	0.090061	0.237934
Zn8	Zn	-1.824212	0.045720	0.247075
Zn9	Zn	-1.824255	0.256085	0.247083
O10	O	-1.783766	0.067725	0.479048
C11	C	-1.536421	0.127095	0.254262
C12	C	-1.362894	0.112741	0.248408
N13	N	-1.824194	-0.097847	0.247069
C14	C	-1.704688	-0.560002	0.353805
C15	C	-1.943867	-0.540187	0.140348
C16	C	-1.943849	-0.439693	0.140343
C17	C	-1.824250	-0.399348	0.247072
C18	C	-1.704669	-0.459498	0.353806
C19	C	-2.063437	-0.379535	0.033621
C20	C	-2.063424	-0.279034	0.033613
C21	C	-1.943818	-0.238688	0.140336
C22	C	-1.824231	-0.298845	0.247073
C23	C	-1.704632	-0.258500	0.353802
C24	C	-1.585038	-0.318656	0.460533
C25	C	-1.585062	-0.419153	0.460529
C26	C	-1.943793	-0.138191	0.140340
C27	C	-1.704613	-0.157997	0.353803
C28	C	-1.112043	0.174709	0.239908
C29	C	-1.285560	0.189058	0.245799
C30	C	-1.870816	0.154757	-0.044328
C31	C	-1.889066	0.156272	-0.221424
N32	N	-1.824287	0.399654	0.247076
C33	C	-1.777651	0.147051	0.538485
C34	C	-1.759401	0.145542	0.715581
H35	H	-1.296342	0.036420	0.246168
O36	O	-2.072861	-0.583694	0.025238
H37	H	-2.052781	-0.663682	0.043164
O38	O	-1.575616	-0.114475	0.468908
H39	H	-1.580580	-0.133338	0.593565
O40	O	-1.593850	0.131842	-0.176408
H41	H	-1.527563	0.191427	-0.200213
O42	O	-1.456019	-0.275142	0.575623
H43	H	-1.476098	-0.195155	0.557672
H44	H	-1.352100	0.265373	0.248058
H45	H	-1.487694	-0.468137	0.547427
H46	H	-1.607312	-0.608983	0.440700
O47	O	-2.192431	-0.423043	-0.081486
H48	H	-2.172338	-0.503033	-0.063566
H49	H	-2.160803	-0.230061	-0.053294
H50	H	-2.014048	0.166603	-0.302983
O51	O	-2.072761	-0.073308	0.025235
H52	H	-2.155925	-0.118246	-0.048983
