data_functionalizedCrystal
_audit_creation_method	'MofGen! by Chris Wilmer'
_symmetry_space_group_name_H-M	'P1'
_symmetry_Int_Tables_number	1
_symmetry_cell_setting	triclinic
loop_
_symmetry_equiv_pos_as_xyz
  x,y,z
_cell_length_a	14.908782
_cell_length_b	14.908520
_cell_length_c	21.395355
_cell_angle_alpha	93.280325
_cell_angle_beta	93.278225
_cell_angle_gamma	89.837842
loop_
_atom_site_label
_atom_site_type_symbol
_atom_site_fract_x
_atom_site_fract_y
_atom_site_fract_z
Zn1	Zn	1.353936	-0.437324	-0.317418
Zn2	Zn	1.345143	-0.587659	-0.219019
Zn3	Zn	1.203568	-0.428655	-0.218345
Zn4	Zn	1.194872	-0.578973	-0.329445
O5	O	1.274380	-0.508153	-0.271057
O6	O	1.478588	-0.464529	-0.299613
O7	O	1.326322	-0.566575	-0.131253
O8	O	1.230833	-0.303981	-0.226172
O9	O	1.472128	-0.574980	-0.227320
O10	O	1.341308	-0.310350	-0.298960
O11	O	1.222307	-0.449755	-0.130759
O12	O	1.076595	-0.441332	-0.237835
O13	O	1.216013	-0.560175	-0.415526
O14	O	1.070207	-0.551770	-0.319460
O15	O	1.332876	-0.456106	-0.406689
O16	O	1.317891	-0.712332	-0.238982
O17	O	1.207487	-0.705950	-0.320112
C18	C	1.040778	-0.494668	-0.279880
C19	C	0.940840	-0.488921	-0.283670
C20	C	1.260815	-0.741767	-0.280938
C21	C	1.255095	-0.841713	-0.285184
C22	C	0.746329	-0.592976	-0.215384
C23	C	0.652428	-0.587579	-0.218944
C24	C	0.659138	-0.472735	-0.294351
C25	C	0.753038	-0.478132	-0.290792
C26	C	0.796630	-0.538254	-0.251306
C27	C	0.890532	-0.543646	-0.247744
C28	C	0.897240	-0.428807	-0.323155
C29	C	0.803340	-0.423410	-0.326714
C30	C	1.359427	-1.036113	-0.208740
C31	C	1.354055	-1.130021	-0.212727
C32	C	1.238984	-1.123439	-0.297146
C33	C	1.244356	-1.029531	-0.293159
C34	C	1.304579	-0.985871	-0.248954
C35	C	1.309945	-0.891961	-0.244965
C36	C	1.194880	-0.885381	-0.329387
C37	C	1.189508	-0.979289	-0.333373
C38	C	1.508894	-0.521691	-0.262200
C39	C	1.608830	-0.527460	-0.258425
C40	C	1.274455	-0.508139	-0.434477
C41	C	1.274488	-0.508133	-0.504116
C42	C	1.288021	-0.273628	-0.261149
C43	C	1.293835	-0.173687	-0.256928
C44	C	1.335336	-0.453942	-0.532229
C45	C	1.335337	-0.453903	-0.597663
C46	C	1.274498	-0.508072	-0.634982
C47	C	1.213638	-0.562267	-0.606862
C48	C	1.213633	-0.562297	-0.541429
C49	C	1.262698	-0.588624	-0.742350
C50	C	1.262709	-0.588595	-0.807781
C51	C	1.274509	-0.507977	-0.836798
C52	C	1.286316	-0.427387	-0.800376
C53	C	1.286311	-0.427417	-0.734943
C54	C	1.274497	-0.508045	-0.705933
C55	C	1.335362	-0.453740	-0.935862
C56	C	1.335357	-0.453699	-1.001297
C57	C	1.213662	-0.562071	-1.010495
C58	C	1.213663	-0.562103	-0.945060
C59	C	1.274518	-0.507939	-0.907748
C60	C	1.274360	-0.508105	-0.108268
C61	C	1.274516	-0.507867	-0.038611
H62	H	0.926023	-0.592598	-0.215591
C63	C	1.173631	-1.171015	-0.345074
C64	C	1.180657	-1.264008	-0.339946
C65	C	1.120458	-1.307864	-0.384081
H66	H	1.187571	-1.156450	-0.386062
H67	H	1.114080	-1.152258	-0.337494
H68	H	1.240194	-1.282758	-0.347531
H69	H	1.166708	-1.278600	-0.298968
H70	H	1.060907	-1.289106	-0.376501
H71	H	1.134404	-1.293291	-0.425066
H72	H	1.125211	-1.370963	-0.380604
C73	C	1.424715	-0.988536	-0.160767
C74	C	1.417664	-0.895541	-0.165873
C75	C	1.477785	-0.851686	-0.121684
H76	H	1.484286	-1.007242	-0.168293
H77	H	1.410696	-1.003154	-0.119797
H78	H	1.431689	-0.880930	-0.206834
H79	H	1.358107	-0.876809	-0.158342
H80	H	1.463766	-0.866303	-0.080715
H81	H	1.537352	-0.870399	-0.129214
H82	H	1.473003	-0.788584	-0.125139
H83	H	1.150216	-0.844463	-0.362130
H84	H	1.252850	-0.654241	-0.718738
H85	H	1.398720	-1.170925	-0.179981
C86	C	1.298968	-0.339969	-0.695327
C87	C	1.223594	-0.324194	-0.660125
C88	C	1.235220	-0.243650	-0.623619
H89	H	1.305961	-0.291868	-0.721902
H90	H	1.350988	-0.344143	-0.667855
H91	H	1.171588	-0.320014	-0.687594
H92	H	1.216587	-0.372275	-0.633538
H93	H	1.287241	-0.247824	-0.596147
H94	H	1.242215	-0.195555	-0.650198
H95	H	1.184086	-0.232941	-0.599726
C96	C	0.793496	-0.658336	-0.172503
C97	C	0.729344	-0.705119	-0.141814
C98	C	0.772758	-0.765345	-0.102313
H99	H	0.832101	-0.626088	-0.142346
H100	H	0.827847	-0.699716	-0.196687
H101	H	0.695007	-0.663744	-0.117631
H102	H	0.690735	-0.737384	-0.171955
H103	H	0.807110	-0.806726	-0.126497
H104	H	0.811363	-0.733091	-0.072160
H105	H	0.729238	-0.797101	-0.081490
C106	C	1.401332	-0.395195	-0.491612
C107	C	1.388310	-0.406820	-0.428290
C108	C	1.449083	-0.352713	-0.390853
H109	H	1.391722	-0.333993	-0.500201
H110	H	1.461008	-0.411823	-0.500575
H111	H	1.328648	-0.390188	-0.419330
H112	H	1.397927	-0.468011	-0.419681
H113	H	1.508759	-0.369340	-0.399817
H114	H	1.439467	-0.291513	-0.399448
H115	H	1.440261	-0.360599	-0.347886
H116	H	1.384886	-0.409769	-0.620557
H117	H	1.140479	-1.014850	-0.369365
H118	H	1.295926	-0.361741	-0.824000
C119	C	1.401461	-0.394830	-0.895454
C120	C	1.454730	-0.347336	-0.934082
C121	C	1.515621	-0.293050	-0.896883
H122	H	1.438722	-0.431402	-0.869907
H123	H	1.369366	-0.353635	-0.869568
H124	H	1.486823	-0.388526	-0.959957
H125	H	1.417494	-0.310747	-0.959628
H126	H	1.483526	-0.251855	-0.870997
H127	H	1.552876	-0.329630	-0.871338
H128	H	1.551766	-0.260813	-0.923086
C129	C	1.401278	-0.394730	-1.031853
C130	C	1.353723	-0.334120	-1.068866
C131	C	1.414418	-0.279772	-1.097015
H132	H	1.438478	-0.431266	-1.057415
H133	H	1.437501	-0.362426	-1.000273
H134	H	1.317515	-0.366420	-1.100442
H135	H	1.316527	-0.297564	-1.043318
H136	H	1.450642	-0.247468	-1.065435
H137	H	1.451615	-0.316315	-1.122575
H138	H	1.382161	-0.238636	-1.122127
H139	H	1.358979	-0.856414	-0.208970
C140	C	1.147714	-0.620865	-1.051112
C141	C	1.160758	-0.609260	-1.114434
C142	C	1.100031	-0.663418	-1.151871
H143	H	1.088025	-0.604288	-1.042182
H144	H	1.157375	-0.682061	-1.042490
H145	H	1.151090	-0.548078	-1.123052
H146	H	1.220435	-0.625843	-1.123383
H147	H	1.109692	-0.724614	-1.143250
H148	H	1.040345	-0.646836	-1.142936
H149	H	1.108878	-0.655558	-1.194839
H150	H	1.164119	-0.606237	-0.922171
C151	C	0.597761	-0.647100	-0.180052
C152	C	0.540554	-0.701723	-0.219949
C153	C	0.490190	-0.756578	-0.184144
H154	H	0.563026	-0.610645	-0.152716
H155	H	0.637144	-0.683729	-0.156043
H156	H	0.501176	-0.665099	-0.243948
H157	H	0.575265	-0.738198	-0.247285
H158	H	0.529572	-0.793206	-0.160135
H159	H	0.455460	-0.720115	-0.156810
H160	H	0.451375	-0.793652	-0.211209
C161	C	1.249832	-0.676176	-0.847215
C162	C	1.239460	-0.746778	-0.807802
C163	C	1.227583	-0.827470	-0.844105
H164	H	1.300870	-0.687173	-0.871148
H165	H	1.197759	-0.672026	-0.874639
H166	H	1.291528	-0.750928	-0.780389
H167	H	1.188422	-0.735811	-0.783869
H168	H	1.175509	-0.823321	-0.871529
H169	H	1.278622	-0.838458	-0.868036
H170	H	1.220535	-0.875382	-0.817369
H171	H	1.164100	-0.606369	-0.637251
C172	C	1.147675	-0.621300	-0.510937
C173	C	1.162096	-0.711387	-0.529881
C174	C	1.101363	-0.765770	-0.501796
H175	H	1.087989	-0.604768	-0.523347
H176	H	1.156394	-0.613624	-0.466620
H177	H	1.153369	-0.719059	-0.574188
H178	H	1.221769	-0.727947	-0.517471
H179	H	1.110082	-0.758093	-0.457479
H180	H	1.041681	-0.749230	-0.514208
H181	H	1.111144	-0.826900	-0.514641
C182	C	0.611963	-0.407450	-0.337286
C183	C	0.676110	-0.360695	-0.367999
C184	C	0.632685	-0.300558	-0.407564
H185	H	0.577581	-0.366039	-0.313163
H186	H	0.573385	-0.439790	-0.367423
H187	H	0.714673	-0.328356	-0.337866
H188	H	0.710496	-0.402082	-0.392133
H189	H	0.594107	-0.332898	-0.437701
H190	H	0.598304	-0.259153	-0.383437
H191	H	0.676201	-0.268833	-0.428412
H192	H	0.767834	-0.374463	-0.358864
H193	H	0.938206	-0.384243	-0.352402
