data_functionalizedCrystal
_audit_creation_method	'MofGen! by Chris Wilmer'
_symmetry_space_group_name_H-M	'P1'
_symmetry_Int_Tables_number	1
_symmetry_cell_setting	triclinic
loop_
_symmetry_equiv_pos_as_xyz
  x,y,z
_cell_length_a	18.215407
_cell_length_b	19.121063
_cell_length_c	18.215398
_cell_angle_alpha	92.412350
_cell_angle_beta	89.980536
_cell_angle_gamma	92.469446
loop_
_atom_site_label
_atom_site_type_symbol
_atom_site_fract_x
_atom_site_fract_y
_atom_site_fract_z
Zn1	Zn	1.112556	-0.279631	-0.428597
Zn2	Zn	1.612556	0.220369	0.071403
Zn3	Zn	1.107209	-0.397081	-0.310773
Zn4	Zn	1.607209	0.102919	0.189227
Zn5	Zn	0.989488	-0.279649	-0.305545
Zn6	Zn	1.489488	0.220351	0.194455
Zn7	Zn	0.984200	-0.397047	-0.433796
Zn8	Zn	1.484200	0.102953	0.066204
O9	O	1.048363	-0.338352	-0.369678
O10	O	1.548363	0.161648	0.130322
O11	O	1.214830	-0.295218	-0.412979
O12	O	1.714830	0.204782	0.087021
O13	O	1.091569	-0.381525	-0.207096
O14	O	1.591569	0.118475	0.292904
O15	O	1.010264	-0.181362	-0.317504
O16	O	1.510264	0.318638	0.182496
O17	O	1.210902	-0.381508	-0.326414
O18	O	1.710902	0.118492	0.173586
O19	O	1.100681	-0.181349	-0.407910
O20	O	1.600681	0.318651	0.092090
O21	O	1.005080	-0.295248	-0.203255
O22	O	1.505080	0.204752	0.296745
O23	O	0.885803	-0.295215	-0.322546
O24	O	1.385803	0.204785	0.177454
O25	O	1.001251	-0.381450	-0.536090
O26	O	1.501251	0.118550	-0.036090
O27	O	0.881917	-0.381467	-0.416771
O28	O	1.381917	0.118533	0.083229
O29	O	1.095553	-0.295185	-0.532270
O30	O	1.595553	0.204815	-0.032270
O31	O	1.086441	-0.495361	-0.331456
O32	O	1.586441	0.004639	0.168544
O33	O	0.996066	-0.495337	-0.421841
O34	O	1.496066	0.004663	0.078159
C35	C	0.857157	-0.338340	-0.369656
C36	C	1.357157	0.161660	0.130344
C37	C	0.775358	-0.338352	-0.369665
C38	C	1.275358	0.161648	0.130335
C39	C	0.585157	-0.383334	-0.418672
C40	C	1.085157	0.116666	0.081328
C41	C	0.508298	-0.383336	-0.418682
C42	C	1.008298	0.116664	0.081318
C43	C	0.512321	-0.293383	-0.320700
C44	C	1.012321	0.206617	0.179300
C45	C	0.589178	-0.293378	-0.320694
C46	C	1.089178	0.206622	0.179306
C47	C	0.625594	-0.338357	-0.369680
C48	C	1.125594	0.161643	0.130320
C49	C	0.471878	-0.338365	-0.369694
C50	C	0.971878	0.161635	0.130306
C51	C	0.388544	-0.338367	-0.369704
C52	C	0.888544	0.161633	0.130296
C53	C	0.708933	-0.338354	-0.369671
C54	C	1.208933	0.161646	0.130329
C55	C	1.040119	-0.520833	-0.377796
C56	C	1.540119	-0.020833	0.122204
C57	C	1.036660	-0.598899	-0.381293
C58	C	1.536660	-0.098899	0.118707
C59	C	1.082124	-0.635565	-0.335917
C60	C	1.582124	-0.135565	0.164083
C61	C	1.078875	-0.708916	-0.339211
C62	C	1.578875	-0.208916	0.160789
C63	C	1.030157	-0.745601	-0.387878
C64	C	1.530157	-0.245601	0.112122
C65	C	0.984691	-0.708930	-0.433259
C66	C	1.484691	-0.208930	0.066741
C67	C	0.987944	-0.635580	-0.429968
C68	C	1.487944	-0.135580	0.070032
C69	C	1.017982	-0.967071	-0.400169
C70	C	1.517982	-0.467071	0.099831
C71	C	1.014730	-1.040427	-0.403454
C72	C	1.514730	-0.540427	0.096546
C73	C	1.108916	-1.040407	-0.309407
C74	C	1.608916	-0.540407	0.190593
C75	C	1.112162	-0.967056	-0.306117
C76	C	1.612162	-0.467056	0.193883
C77	C	1.066698	-0.930392	-0.351501
C78	C	1.566698	-0.430392	0.148499
C79	C	1.026833	-0.820578	-0.391244
C80	C	1.526833	-0.320578	0.108756
C81	C	1.070026	-0.855416	-0.348138
C82	C	1.570026	-0.355416	0.151862
C83	C	1.240315	-0.338365	-0.369700
C84	C	1.740315	0.161635	0.130300
C85	C	1.322114	-0.338370	-0.369709
C86	C	1.822114	0.161630	0.130291
C87	C	1.048409	-0.338312	-0.561629
C88	C	1.548409	0.161688	-0.061629
C89	C	1.048428	-0.338294	-0.643427
C90	C	1.548428	0.161706	-0.143427
C91	C	1.056659	-0.155158	-0.361544
C92	C	1.556659	0.344842	0.138456
C93	C	1.060194	-0.077092	-0.358078
C94	C	1.560194	0.422908	0.141922
C95	C	1.093500	-0.383132	-0.910485
C96	C	1.593500	0.116868	-0.410485
C97	C	1.093488	-0.383157	-0.833627
C98	C	1.593488	0.116843	-0.333627
C99	C	1.003417	-0.293321	-0.829611
C100	C	1.503417	0.206679	-0.329611
C101	C	1.003426	-0.293301	-0.906468
C102	C	1.503426	0.206699	-0.406468
C103	C	1.048472	-0.338205	-0.946903
C104	C	1.548472	0.161795	-0.446903
C105	C	1.048451	-0.338250	-0.793189
C106	C	1.548451	0.161750	-0.293189
C107	C	1.048437	-0.338276	-0.709856
C108	C	1.548437	0.161724	-0.209856
C109	C	1.048485	-0.338180	-1.030241
C110	C	1.548485	0.161820	-0.530241
C111	C	1.048363	-0.338342	-0.178471
C112	C	1.548363	0.161658	0.321529
C113	C	1.048495	-0.338161	-0.096664
C114	C	1.548495	0.161839	0.403336
H115	H	1.121792	-0.605701	-0.296284
H116	H	1.621792	-0.105701	0.203716
C117	C	0.953882	-0.243918	-0.785126
C118	C	1.453882	0.256082	-0.285126
N119	N	0.916576	-0.206701	-0.751619
N120	N	1.416576	0.293299	-0.251619
C121	C	0.472256	-0.243912	-0.266815
C122	C	0.972256	0.256088	0.233185
N123	N	0.442079	-0.206651	-0.226226
N124	N	0.942079	0.293349	0.273774
H125	H	0.475377	-0.419960	-0.458577
H126	H	0.975377	0.080040	0.041423
C127	C	1.128885	-0.749245	-0.289288
C128	C	1.628885	-0.249245	0.210712
N129	N	1.166554	-0.779620	-0.251683
N130	N	1.666554	-0.279620	0.248317
C131	C	0.953892	-0.243873	-0.946529
C132	C	1.453892	0.256127	-0.446529
N133	N	0.916584	-0.206645	-0.976704
N134	N	1.416584	0.293355	-0.476704
H135	H	0.622104	-0.256748	-0.280799
H136	H	1.122104	0.243252	0.219201
H137	H	1.130178	-0.419697	-0.943405
H138	H	1.630178	0.080303	-0.443405
H139	H	1.151831	-0.937189	-0.266489
H140	H	1.651831	-0.437189	0.233511
H141	H	0.614805	-0.419957	-0.458561
H142	H	1.114805	0.080043	0.041439
C143	C	0.961139	-1.080779	-0.456999
C144	C	1.461139	-0.580779	0.043001
N145	N	0.920777	-1.111172	-0.497327
N146	N	1.420777	-0.611172	0.002673
C147	C	1.158924	-1.080744	-0.259490
C148	C	1.658924	-0.580744	0.240510
N149	N	1.196594	-1.111125	-0.221892
N150	N	1.696594	-0.611125	0.278108
H151	H	0.980962	-0.937225	-0.437121
H152	H	1.480962	-0.437225	0.062879
C153	C	0.973236	-0.860939	-0.444768
C154	C	1.473236	-0.360939	0.055232
N155	N	0.932866	-0.891341	-0.485081
N156	N	1.432866	-0.391341	0.014919
C157	C	1.143039	-0.432565	-0.793571
C158	C	1.643039	0.067435	-0.293571
N159	N	1.180368	-0.469777	-0.763401
N160	N	1.680368	0.030223	-0.263401
C161	C	0.937930	-0.595249	-0.479886
C162	C	1.437930	-0.095249	0.020114
N163	N	0.900260	-0.564872	-0.517488
N164	N	1.400260	-0.064872	-0.017488
H165	H	0.945027	-0.738805	-0.472888
H166	H	1.445027	-0.238805	0.027112
H167	H	1.109695	-0.825545	-0.308516
H168	H	1.609695	-0.325545	0.191484
