data_functionalizedCrystal
_audit_creation_method	'MofGen! by Chris Wilmer'
_symmetry_space_group_name_H-M	'P1'
_symmetry_Int_Tables_number	1
_symmetry_cell_setting	triclinic
loop_
_symmetry_equiv_pos_as_xyz
  x,y,z
_cell_length_a	29.839131
_cell_length_b	21.295418
_cell_length_c	21.295411
_cell_angle_alpha	89.956262
_cell_angle_beta	90.020364
_cell_angle_gamma	89.942767
loop_
_atom_site_label
_atom_site_type_symbol
_atom_site_fract_x
_atom_site_fract_y
_atom_site_fract_z
Zn1	Zn	-0.178715	-0.962308	0.356239
Zn2	Zn	0.321285	-0.462308	0.856239
Zn3	Zn	-0.253830	-0.962190	0.250967
Zn4	Zn	0.246170	-0.462190	0.750967
Zn5	Zn	-0.178736	-0.857031	0.250949
Zn6	Zn	0.321264	-0.357031	0.750949
Zn7	Zn	-0.253839	-0.856981	0.356163
Zn8	Zn	0.246161	-0.356981	0.856163
O9	O	-0.216280	-0.909628	0.303580
O10	O	0.283720	-0.409628	0.803580
O11	O	-0.188667	-1.050382	0.342314
O12	O	0.311333	-0.550382	0.842314
O13	O	-0.243874	-0.948213	0.162875
O14	O	0.256126	-0.448213	0.662875
O15	O	-0.115866	-0.871067	0.264940
O16	O	0.384134	-0.371067	0.764940
O17	O	-0.243854	-1.050295	0.264971
O18	O	0.256146	-0.550295	0.764971
O19	O	-0.115851	-0.948413	0.342296
O20	O	0.384149	-0.448413	0.842296
O21	O	-0.188703	-0.870953	0.162862
O22	O	0.311297	-0.370953	0.662862
O23	O	-0.188711	-0.768935	0.264867
O24	O	0.311289	-0.268935	0.764867
O25	O	-0.243869	-0.870981	0.444263
O26	O	0.256131	-0.370981	0.944263
O27	O	-0.243889	-0.768898	0.342167
O28	O	0.256111	-0.268898	0.842167
O29	O	-0.188675	-0.948364	0.444319
O30	O	0.311325	-0.448364	0.944319
O31	O	-0.316699	-0.948164	0.264897
O32	O	0.183301	-0.448164	0.764897
O33	O	-0.316705	-0.870866	0.342185
O34	O	0.183295	-0.370866	0.842185
C35	C	-0.216304	-0.746076	0.303507
C36	C	0.283696	-0.246076	0.803507
C37	C	-0.216325	-0.676108	0.303491
C38	C	0.283675	-0.176108	0.803491
C39	C	-0.333003	-0.909514	0.303548
C40	C	0.166997	-0.409514	0.803548
C41	C	-0.382937	-0.909523	0.303556
C42	C	0.117063	-0.409523	0.803556
C43	C	-0.216271	-0.909680	0.467770
C44	C	0.283729	-0.409680	0.967770
C45	C	-0.216267	-0.909702	0.537738
C46	C	0.283733	-0.409702	1.037738
C47	C	-0.692564	-0.949949	0.263395
C48	C	-0.192564	-0.449949	0.763395
C49	C	-0.880238	-0.950027	0.263419
C50	C	-0.380238	-0.450027	0.763419
O51	O	-0.904489	-0.984309	0.229249
O52	O	-0.404489	-0.484309	0.729249
N53	N	-0.903722	-0.909758	0.303627
N54	N	-0.403722	-0.409758	0.803627
C55	C	-0.880286	-0.869470	0.343835
C56	C	-0.380286	-0.369470	0.843835
O57	O	-0.904567	-0.835225	0.378039
O58	O	-0.404567	-0.335225	0.878039
C59	C	-0.692614	-0.869396	0.343813
C60	C	-0.192614	-0.369396	0.843813
C61	C	-0.669131	-0.909663	0.303598
C62	C	-0.169131	-0.409663	0.803598
C63	C	-0.669082	-0.990214	0.223184
C64	C	-0.169082	-0.490214	0.723184
C65	C	-0.622167	-0.990192	0.223176
C66	C	-0.122167	-0.490192	0.723176
C67	C	-0.598734	-0.949905	0.263379
C68	C	-0.098734	-0.449905	0.763379
C69	C	-0.622216	-0.909641	0.303590
C70	C	-0.122216	-0.409641	0.803590
C71	C	-0.669178	-0.829111	0.384023
C72	C	-0.169178	-0.329111	0.884023
C73	C	-0.622257	-0.829097	0.384015
C74	C	-0.122257	-0.329097	0.884015
C75	C	-0.598775	-0.869364	0.343800
C76	C	-0.098775	-0.369364	0.843800
C77	C	-0.551867	-0.869332	0.343785
C78	C	-0.051867	-0.369332	0.843785
N79	N	-0.528383	-0.909601	0.303577
N80	N	-0.028383	-0.409601	0.803577
C81	C	-0.551816	-0.949887	0.263374
C82	C	-0.051816	-0.449887	0.763374
C83	C	-0.978816	-0.869511	0.343842
C84	C	-0.478816	-0.369511	0.843842
C85	C	-1.025734	-0.869528	0.343847
C86	C	-0.525734	-0.369528	0.843847
C87	C	-1.025683	-0.950087	0.263432
C88	C	-0.525683	-0.450087	0.763432
C89	C	-0.978764	-0.950065	0.263425
C90	C	-0.478764	-0.450065	0.763425
C91	C	-0.955332	-0.909780	0.303634
C92	C	-0.455332	-0.409780	0.803634
C93	C	-0.453290	-0.949837	0.263359
C94	C	0.046710	-0.449837	0.763359
C95	C	-0.406370	-0.949810	0.263353
C96	C	0.093630	-0.449810	0.763353
C97	C	-0.406426	-0.869254	0.343770
C98	C	0.093574	-0.369254	0.843770
C99	C	-0.453341	-0.869279	0.343774
C100	C	0.046659	-0.369279	0.843774
C101	C	-0.476772	-0.909576	0.303567
C102	C	0.023228	-0.409576	0.803567
O103	O	-0.527587	-0.835073	0.377942
O104	O	-0.027587	-0.335073	0.877942
O105	O	-0.527526	-0.984137	0.229185
O106	O	-0.027526	-0.484137	0.729185
C107	C	-0.739480	-0.949972	0.263403
C108	C	-0.239480	-0.449972	0.763403
C109	C	-0.762962	-0.909707	0.303614
C110	C	-0.262962	-0.409707	0.803614
C111	C	-0.739529	-0.869421	0.343817
C112	C	-0.239529	-0.369421	0.843817
C113	C	-0.809880	-0.909725	0.303619
C114	C	-0.309880	-0.409725	0.803619
C115	C	-0.833313	-0.950012	0.263416
C116	C	-0.333313	-0.450012	0.763416
C117	C	-0.809829	-0.990281	0.223208
C118	C	-0.309829	-0.490281	0.723208
C119	C	-0.762913	-0.990258	0.223200
C120	C	-0.262913	-0.490258	0.723200
C121	C	-0.763014	-0.829152	0.384025
C122	C	-0.263014	-0.329152	0.884025
C123	C	-0.809929	-0.829177	0.384029
C124	C	-0.309929	-0.329177	0.884029
C125	C	-0.833362	-0.869463	0.343826
C126	C	-0.333362	-0.369463	0.843826
C127	C	-0.099102	-0.909759	0.303625
C128	C	0.400898	-0.409759	0.803625
C129	C	-0.049167	-0.909815	0.303644
C130	C	0.450833	-0.409815	0.803644
C131	C	-0.216257	-1.073818	0.303653
C132	C	0.283743	-0.573818	0.803653
C133	C	-0.216247	-1.143786	0.303684
C134	C	0.283753	-0.643786	0.803684
C135	C	-0.245094	-0.643238	0.343681
C136	C	0.254906	-0.143238	0.843681
C137	C	-0.245083	-0.577496	0.343710
C138	C	0.254917	-0.077496	0.843710
C139	C	-0.216307	-0.544625	0.303536
C140	C	0.283693	-0.044625	0.803536
C141	C	-0.187532	-0.577503	0.263343
C142	C	0.312468	-0.077503	0.763343
C143	C	-0.187541	-0.643244	0.263321
C144	C	0.312459	-0.143244	0.763321
N145	N	-0.212791	-0.441350	0.248479
N146	N	0.287209	0.058650	0.748479
N147	N	-0.212785	-0.378899	0.248502
N148	N	0.287215	0.121101	0.748502
C149	C	-0.216279	-0.346551	0.303603
C150	C	0.283721	0.153449	0.803603
N151	N	-0.219787	-0.379013	0.358681
N152	N	0.280213	0.120987	0.858681
N153	N	-0.219795	-0.441470	0.358657
N154	N	0.280205	0.058530	0.858657
C155	C	-0.216294	-0.473340	0.303557
C156	C	0.283706	0.026660	0.803557
C157	C	-0.245037	-0.242396	0.343827
C158	C	0.254963	0.257604	0.843827
C159	C	-0.245023	-0.176652	0.343857
C160	C	0.254977	0.323348	0.843857
C161	C	-0.187475	-0.176660	0.263485
C162	C	0.312525	0.323340	0.763485
C163	C	-0.187487	-0.242403	0.263461
C164	C	0.312513	0.257597	0.763461
C165	C	-0.216271	-0.275266	0.303632
C166	C	0.283729	0.224734	0.803632
C167	C	-0.216257	-0.909612	0.140028
C168	C	0.283743	-0.409612	0.640028
C169	C	-0.216135	-0.909712	0.070060
C170	C	0.283865	-0.409712	0.570060
C171	C	-0.187526	-0.949994	0.570635
C172	C	0.312474	-0.449994	1.070635
C173	C	-0.187507	-0.949993	0.636377
C174	C	0.312493	-0.449993	1.136377
C175	C	-0.216236	-0.909707	0.669221
C176	C	0.283764	-0.409707	1.169221
C177	C	-0.244978	-0.869407	0.636316
C178	C	0.255022	-0.369407	1.136316
C179	C	-0.244994	-0.869405	0.570575
C180	C	0.255006	-0.369405	1.070575
N181	N	-0.255537	-0.904840	0.772436
N182	N	0.244463	-0.404840	1.272436
N183	N	-0.255521	-0.904846	0.834887
N184	N	0.244479	-0.404846	1.334887
C185	C	-0.216190	-0.909711	0.867295
C186	C	0.283810	-0.409711	1.367295
N187	N	-0.176875	-0.914582	0.834893
N188	N	0.323125	-0.414582	1.334893
N189	N	-0.176891	-0.914580	0.772436
N190	N	0.323109	-0.414580	1.272436
C191	C	-0.216222	-0.909705	0.740506
C192	C	0.283778	-0.409705	1.240506
C193	C	-0.187426	-0.950004	0.971478
C194	C	0.312574	-0.450004	1.471478
C195	C	-0.187406	-0.949999	1.037221
C196	C	0.312594	-0.449999	1.537221
C197	C	-0.244882	-0.869416	1.037159
C198	C	0.255118	-0.369416	1.537159
C199	C	-0.244898	-0.869418	0.971417
C200	C	0.255102	-0.369418	1.471417
C201	C	-0.216171	-0.909716	0.938580
C202	C	0.283829	-0.409716	1.438580
H203	H	-0.387253	-0.982600	0.230603
H204	H	0.112747	-0.482600	0.730603
O205	O	-1.048443	-0.989159	0.224308
O206	O	-0.548443	-0.489159	0.724308
C207	C	-1.062839	-1.019839	0.117298
C208	C	-0.562839	-0.519839	0.617298
C209	C	-1.037032	-0.975540	0.161515
C210	C	-0.537032	-0.475540	0.661515
H211	H	-1.053615	-1.008853	0.066522
H212	H	-0.553615	-0.508853	0.566522
H213	H	-1.100407	-1.012913	0.124183
H214	H	-0.600407	-0.512913	0.624183
H215	H	-1.053578	-1.070585	0.128462
H216	H	-0.553578	-0.570585	0.628462
H217	H	-1.046256	-0.924778	0.150379
H218	H	-0.546256	-0.424778	0.650379
H219	H	-0.999470	-0.982521	0.154622
H220	H	-0.499470	-0.482521	0.654622
O221	O	-0.159676	-0.989184	0.538702
O222	O	0.340324	-0.489184	1.038702
C223	C	-0.153613	-1.074124	0.464484
C224	C	0.346387	-0.574124	0.964484
C225	C	-0.185209	-1.029803	0.500627
C226	C	0.314791	-0.529803	1.000627
H227	H	-0.174242	-1.106967	0.433681
H228	H	0.325758	-0.606967	0.933681
H229	H	-0.133066	-1.102968	0.499255
H230	H	0.366934	-0.602968	0.999255
H231	H	-0.130131	-1.045213	0.433724
H232	H	0.369869	-0.545213	0.933724
H233	H	-0.208717	-1.058666	0.531388
H234	H	0.291283	-0.558666	1.031388
H235	H	-0.205723	-1.000957	0.465821
H236	H	0.294277	-0.500957	0.965821
H237	H	-0.268531	-0.669992	0.376392
H238	H	0.231469	-0.169992	0.876392
O239	O	-0.159574	-0.989196	0.668245
O240	O	0.340426	-0.489196	1.168245
C241	C	-0.102556	-1.069104	0.661374
C242	C	0.397444	-0.569104	1.161374
C243	C	-0.134173	-1.024750	0.625209
C244	C	0.365827	-0.524750	1.125209
H245	H	-0.082005	-1.097852	0.626595
H246	H	0.417995	-0.597852	1.126595
H247	H	-0.123153	-1.102036	0.692157
H248	H	0.376847	-0.602036	1.192157
H249	H	-0.079081	-1.040224	0.692151
H250	H	0.420919	-0.540224	1.192151
H251	H	-0.157655	-1.053580	0.594397
H252	H	0.342345	-0.553580	1.094397
H253	H	-0.113549	-0.991817	0.594465
H254	H	0.386451	-0.491817	1.094465
O255	O	-0.272935	-0.830365	0.668245
O256	O	0.227065	-0.330365	1.168245
C257	C	-0.333558	-0.821832	0.742485
C258	C	0.166442	-0.321832	1.242485
C259	C	-0.301932	-0.866123	0.706356
C260	C	0.198068	-0.366123	1.206356
H261	H	-0.357003	-0.850724	0.773317
H262	H	0.142997	-0.350724	1.273317
H263	H	-0.354136	-0.793044	0.707705
H264	H	0.145864	-0.293044	1.207705
H265	H	-0.312921	-0.788929	0.773215
H266	H	0.187079	-0.288929	1.273215
H267	H	-0.322534	-0.899063	0.675626
H268	H	0.177466	-0.399063	1.175626
H269	H	-0.281352	-0.894867	0.741170
H270	H	0.218648	-0.394867	1.241170
O271	O	-0.272884	-0.830349	0.939486
O272	O	0.227116	-0.330349	1.439486
C273	C	-0.349310	-0.799676	0.919377
C274	C	0.150690	-0.299676	1.419377
C275	C	-0.317667	-0.843976	0.955565
C276	C	0.182333	-0.343976	1.455565
H277	H	-0.385523	-0.810669	0.932373
H278	H	0.114477	-0.310669	1.432373
H279	H	-0.344426	-0.806594	0.866742
H280	H	0.155574	-0.306594	1.366742
H281	H	-0.341401	-0.748931	0.932261
H282	H	0.158599	-0.248931	1.432261
H283	H	-0.325557	-0.894738	0.942734
H284	H	0.174443	-0.394738	1.442734
H285	H	-0.322557	-0.837003	1.008192
H286	H	0.177443	-0.337003	1.508192
H287	H	-0.268397	-0.836591	0.543791
H288	H	0.231603	-0.336591	1.043791
O289	O	-0.159546	-0.989167	1.069251
O290	O	0.340454	-0.489167	1.569251
C291	C	-0.153471	-1.074180	1.143519
C292	C	0.346529	-0.574180	1.643519
C293	C	-0.185074	-1.029855	1.107294
C294	C	0.314926	-0.529855	1.607294
H295	H	-0.174099	-1.107097	1.174276
H296	H	0.325901	-0.607097	1.674276
H297	H	-0.129984	-1.045337	1.174315
H298	H	0.370016	-0.545337	1.674315
H299	H	-0.132932	-1.102951	1.108746
H300	H	0.367068	-0.602951	1.608746
H301	H	-0.205643	-1.001075	1.142022
H302	H	0.294357	-0.501075	1.642022
H303	H	-0.208532	-1.058735	1.076489
H304	H	0.291468	-0.558735	1.576489
H305	H	-0.959647	-0.982855	0.230679
H306	H	-0.459647	-0.482855	0.730679
H307	H	-0.268450	-0.149891	0.376588
H308	H	0.231550	0.350109	0.876588
H309	H	-0.164112	-0.670006	0.230593
H310	H	0.335888	-0.170006	0.730593
O311	O	-0.475977	-0.988999	0.224241
O312	O	0.024023	-0.488999	0.724241
C313	C	-0.470962	-1.068918	0.144501
C314	C	0.029038	-0.568918	0.644501
C315	C	-0.445213	-1.024594	0.188762
C316	C	0.054787	-0.524594	0.688762
H317	H	-0.446100	-1.097717	0.115814
H318	H	0.053900	-0.597717	0.615814
H319	H	-0.492952	-1.040074	0.111508
H320	H	0.007048	-0.540074	0.611508
H321	H	-0.492899	-1.101807	0.173450
H322	H	0.007101	-0.601807	0.673450
H323	H	-0.423251	-0.991696	0.159864
H324	H	0.076749	-0.491696	0.659864
H325	H	-0.423251	-1.053477	0.221757
H326	H	0.076749	-0.553477	0.721757
H327	H	-0.164032	-0.982813	0.944741
H328	H	0.335968	-0.482813	1.444741
H329	H	-0.268269	-0.836608	1.063899
H330	H	0.231731	-0.336608	1.563899
H331	H	-0.688157	-1.023023	0.190445
H332	H	-0.188157	-0.523023	0.690445
O333	O	-0.599429	-1.029373	0.184097
O334	O	-0.099429	-0.529373	0.684097
C335	C	-0.604347	-1.109260	0.104321
C336	C	-0.104347	-0.609260	0.604321
C337	C	-0.630149	-1.064923	0.148555
C338	C	-0.130149	-0.564923	0.648555
H339	H	-0.629173	-1.138004	0.075564
H340	H	-0.129173	-0.638004	0.575564
H341	H	-0.582357	-1.142196	0.133233
H342	H	-0.082357	-0.642196	0.633233
H343	H	-0.582405	-1.080366	0.071388
H344	H	-0.082405	-0.580366	0.571388
H345	H	-0.652116	-1.093766	0.181497
H346	H	-0.152116	-0.593766	0.681497
H347	H	-0.652111	-1.031986	0.119604
H348	H	-0.152111	-0.531986	0.619604
O349	O	-1.048473	-0.830388	0.382966
O350	O	-0.548473	-0.330388	0.882966
C351	C	-1.043559	-0.750460	0.462701
C352	C	-0.543559	-0.250460	0.962701
C353	C	-1.017754	-0.794763	0.418437
C354	C	-0.517754	-0.294763	0.918437
H355	H	-1.018734	-0.721636	0.491381
H356	H	-0.518734	-0.221636	0.991381
H357	H	-1.065475	-0.779321	0.495700
H358	H	-0.565475	-0.279321	0.995700
H359	H	-1.065576	-0.717592	0.433755
H360	H	-0.565576	-0.217592	0.933755
H361	H	-0.995713	-0.827640	0.447332
H362	H	-0.495713	-0.327640	0.947332
H363	H	-0.995866	-0.765862	0.385436
H364	H	-0.495866	-0.265862	0.885436
H365	H	-0.959741	-0.836704	0.376586
H366	H	-0.459741	-0.336704	0.876586
H367	H	-0.603181	-0.796292	0.416761
H368	H	-0.103181	-0.296292	0.916761
O369	O	-0.691960	-0.790064	0.423183
O370	O	-0.191960	-0.290064	0.923183
C371	C	-0.706268	-0.759449	0.530231
C372	C	-0.206268	-0.259449	1.030231
C373	C	-0.680450	-0.803719	0.485950
C374	C	-0.180450	-0.303719	0.985950
H375	H	-0.696965	-0.770464	0.580987
H376	H	-0.196965	-0.270464	1.080987
H377	H	-0.743834	-0.766375	0.523396
H378	H	-0.243834	-0.266375	1.023396
H379	H	-0.697095	-0.708696	0.519084
H380	H	-0.197095	-0.208696	1.019084
H381	H	-0.689585	-0.854489	0.497070
H382	H	-0.189585	-0.354489	0.997070
H383	H	-0.642890	-0.796738	0.492793
H384	H	-0.142890	-0.296738	0.992793
O385	O	-0.476085	-0.830142	0.382895
O386	O	0.023915	-0.330142	0.882895
C387	C	-0.471179	-0.750217	0.462633
C388	C	0.028821	-0.250217	0.962633
C389	C	-0.445370	-0.794511	0.418364
C390	C	0.054630	-0.294511	0.918364
H391	H	-0.446357	-0.721388	0.491313
H392	H	0.053643	-0.221388	0.991313
H393	H	-0.493090	-0.779086	0.495632
H394	H	0.006910	-0.279086	0.995632
H395	H	-0.493202	-0.717353	0.433690
H396	H	0.006798	-0.217353	0.933690
H397	H	-0.423323	-0.827383	0.447256
H398	H	0.076677	-0.327383	0.947256
H399	H	-0.423488	-0.765603	0.385363
H400	H	0.076512	-0.265603	0.885363
H401	H	-0.164043	-0.149898	0.230778
H402	H	0.335957	0.350102	0.730778
H403	H	-0.268510	-0.550728	0.376440
H404	H	0.231490	-0.050728	0.876440
O405	O	-0.383589	-0.830181	0.382802
O406	O	0.116411	-0.330181	0.882802
C407	C	-0.311326	-0.794437	0.418401
C408	C	0.188674	-0.294437	0.918401
C409	C	-0.337134	-0.838724	0.374171
C410	C	0.162866	-0.338724	0.874171
H411	H	-0.273763	-0.801320	0.411428
H412	H	0.226237	-0.301320	0.911428
H413	H	-0.320489	-0.805476	0.469188
H414	H	0.179511	-0.305476	0.969188
H415	H	-0.320625	-0.743692	0.407297
H416	H	0.179375	-0.243692	0.907297
H417	H	-0.327849	-0.889484	0.385218
H418	H	0.172151	-0.389484	0.885218
H419	H	-0.327970	-0.827632	0.323396
H420	H	0.172030	-0.327632	0.823396
O421	O	-0.832668	-0.790037	0.423156
O422	O	-0.332668	-0.290037	0.923156
C423	C	-0.827754	-0.710116	0.502897
C424	C	-0.327754	-0.210116	1.002897
C425	C	-0.801949	-0.754412	0.458626
C426	C	-0.301949	-0.254412	0.958626
H427	H	-0.802929	-0.681291	0.531577
H428	H	-0.302929	-0.181291	1.031577
H429	H	-0.849666	-0.738982	0.535896
H430	H	-0.349666	-0.238982	1.035896
H431	H	-0.849775	-0.677248	0.473956
H432	H	-0.349775	-0.177248	0.973956
H433	H	-0.779904	-0.787288	0.487516
H434	H	-0.279904	-0.287288	0.987516
H435	H	-0.780065	-0.725506	0.425625
H436	H	-0.280065	-0.225506	0.925625
O437	O	-0.740175	-1.029436	0.184118
O438	O	-0.240175	-0.529436	0.684118
C439	C	-0.745094	-1.109314	0.104333
C440	C	-0.245094	-0.609314	0.604333
C441	C	-0.770896	-1.064984	0.148573
C442	C	-0.270896	-0.564984	0.648573
H443	H	-0.769920	-1.138056	0.075574
H444	H	-0.269920	-0.638056	0.575574
H445	H	-0.723101	-1.142251	0.133239
H446	H	-0.223101	-0.642251	0.633239
H447	H	-0.723153	-1.080415	0.071401
H448	H	-0.223153	-0.580415	0.571401
H449	H	-0.792861	-1.093832	0.181514
H450	H	-0.292861	-0.593832	0.681514
H451	H	-0.792860	-1.032045	0.119628
H452	H	-0.292860	-0.532045	0.619628
H453	H	-0.164062	-0.269165	0.230731
H454	H	0.335938	0.230835	0.730731
H455	H	-0.828916	-1.023082	0.190472
H456	H	-0.328916	-0.523082	0.690472
H457	H	-0.743938	-0.796346	0.416764
H458	H	-0.243938	-0.296346	0.916764
O459	O	-0.159646	-0.545549	0.224248
O460	O	0.340354	-0.045549	0.724248
C461	C	-0.153506	-0.471219	0.139319
C462	C	0.346494	0.028781	0.639319
C463	C	-0.185141	-0.507377	0.183546
C464	C	0.314859	-0.007377	0.683546
H465	H	-0.174106	-0.440338	0.106409
H466	H	0.325894	0.059662	0.606409
H467	H	-0.132954	-0.505982	0.110542
H468	H	0.367046	-0.005982	0.610542
H469	H	-0.130032	-0.440537	0.168300
H470	H	0.369968	0.059463	0.668300
H471	H	-0.208642	-0.538060	0.154613
H472	H	0.291358	-0.038060	0.654613
H473	H	-0.205662	-0.472581	0.212324
H474	H	0.294338	0.027419	0.712324
H475	H	-0.268472	-0.269155	0.376540
H476	H	0.231528	0.230845	0.876540
