data_functionalizedCrystal
_audit_creation_method	'MofGen! by Chris Wilmer'
_symmetry_space_group_name_H-M	'P1'
_symmetry_Int_Tables_number	1
_symmetry_cell_setting	triclinic
loop_
_symmetry_equiv_pos_as_xyz
  x,y,z
_cell_length_a	21.395362
_cell_length_b	16.120531
_cell_length_c	21.395355
_cell_angle_alpha	92.877227
_cell_angle_beta	90.043940
_cell_angle_gamma	87.050851
loop_
_atom_site_label
_atom_site_type_symbol
_atom_site_fract_x
_atom_site_fract_y
_atom_site_fract_z
Zn1	Zn	0.945215	0.331659	0.367200
Zn2	Zn	1.445215	0.831659	0.867200
Zn3	Zn	0.939803	0.471058	0.267724
Zn4	Zn	1.439803	0.971058	0.767724
Zn5	Zn	0.840428	0.331698	0.262403
Zn6	Zn	1.340428	0.831698	0.762403
Zn7	Zn	0.835084	0.471075	0.372430
Zn8	Zn	1.335084	0.971075	0.872430
O9	O	0.890133	0.401372	0.317439
O10	O	1.390133	0.901372	0.817439
O11	O	1.032176	0.350127	0.354043
O12	O	1.532176	0.850127	0.854043
O13	O	0.926592	0.452580	0.179341
O14	O	1.426592	0.952580	0.679341
O15	O	0.858830	0.215024	0.271888
O16	O	1.358830	0.715024	0.771888
O17	O	1.028200	0.452543	0.280959
O18	O	1.528200	0.952543	0.780959
O19	O	0.935817	0.214995	0.348883
O20	O	1.435817	0.714995	0.848883
O21	O	0.853582	0.350193	0.175431
O22	O	1.353582	0.850193	0.675431
O23	O	0.752041	0.350210	0.276960
O24	O	1.252041	0.850210	0.776960
O25	O	0.849721	0.452572	0.459414
O26	O	1.349721	0.952572	0.959414
O27	O	0.748114	0.452609	0.357796
O28	O	1.248114	0.952609	0.857796
O29	O	0.930634	0.350144	0.455571
O30	O	1.430634	0.850144	0.955571
O31	O	0.921410	0.587729	0.286030
O32	O	1.421410	1.087729	0.786030
O33	O	0.844473	0.587741	0.362956
O34	O	1.344473	1.087741	0.862956
C35	C	0.727343	0.401416	0.317368
C36	C	1.227343	0.901416	0.817368
C37	C	0.657700	0.401455	0.317353
C38	C	1.157700	0.901455	0.817353
C39	C	0.622956	0.454845	0.359388
C40	C	1.122956	0.954845	0.859388
C41	C	0.557522	0.454825	0.359415
C42	C	1.057522	0.954825	0.859415
C43	C	0.526833	0.401423	0.317397
C44	C	1.026833	0.901423	0.817397
C45	C	0.561586	0.348023	0.275359
C46	C	1.061586	0.848023	0.775359
C47	C	0.627019	0.348039	0.275338
C48	C	1.127019	0.848039	0.775338
C49	C	0.423365	0.394707	0.260736
C50	C	0.923365	0.894707	0.760736
C51	C	0.357932	0.394696	0.260757
C52	C	0.857932	0.894696	0.760757
C53	C	0.325015	0.401369	0.317464
C54	C	0.825015	0.901369	0.817464
C55	C	0.357537	0.408069	0.374152
C56	C	0.857537	0.908069	0.874152
C57	C	0.422971	0.408085	0.374131
C58	C	0.922971	0.908085	0.874131
C59	C	0.455882	0.401399	0.317416
C60	C	0.955882	0.901399	0.817416
C61	C	0.219319	0.454740	0.359531
C62	C	0.719319	0.954740	0.859531
C63	C	0.153883	0.454713	0.359559
C64	C	0.653883	0.954713	0.859559
C65	C	0.157948	0.347915	0.275498
C66	C	0.657948	0.847915	0.775498
C67	C	0.223383	0.347937	0.275476
C68	C	0.723383	0.847937	0.775476
C69	C	0.254064	0.401354	0.317491
C70	C	0.754064	0.901354	0.817491
C71	C	0.881791	0.617986	0.325652
C72	C	1.381791	1.117986	0.825652
C73	C	0.878280	0.710654	0.329186
C74	C	1.378280	1.210654	0.829186
C75	C	0.871874	0.880320	0.335651
C76	C	1.371874	1.380320	0.835651
C77	C	0.908415	0.921584	0.299192
C78	C	1.408415	1.421584	0.799192
C79	C	0.904850	1.015992	0.302789
C80	C	1.404850	1.515992	0.802789
C81	C	0.875438	0.785903	0.332055
C82	C	1.375438	1.285903	0.832055
C83	C	1.053558	0.401329	0.317511
C84	C	1.553558	0.901329	0.817511
C85	C	1.123200	0.401310	0.317541
C86	C	1.623200	0.901310	0.817541
C87	C	0.890185	0.401355	0.480862
C88	C	1.390185	0.901355	0.980862
C89	C	0.890208	0.401348	0.550503
C90	C	1.390208	0.901348	1.050503
C91	C	0.898501	1.183913	0.309197
C92	C	1.398501	1.683913	0.809197
C93	C	0.902010	1.091245	0.305655
C94	C	1.402010	1.591245	0.805655
C95	C	0.890118	0.401329	0.154650
C96	C	1.390118	0.901329	0.654650
C97	C	0.890226	0.401101	0.085000
C98	C	1.390226	0.901101	0.585000
C99	C	0.932337	0.348011	0.581216
C100	C	1.432337	0.848011	1.081216
C101	C	0.932338	0.347976	0.646650
C102	C	1.432338	0.847976	1.146650
C103	C	0.890215	0.401291	0.681369
C104	C	1.390215	0.901291	1.181369
C105	C	0.848077	0.454632	0.650648
C106	C	1.348077	0.954632	1.150648
C107	C	0.848074	0.454660	0.585215
C108	C	1.348074	0.954660	1.085215
C109	C	0.882377	0.476362	0.787888
C110	C	1.382377	0.976362	1.287888
C111	C	0.882385	0.476335	0.853320
C112	C	1.382385	0.976335	1.353320
C113	C	0.890222	0.401203	0.883187
C114	C	1.390222	0.901203	1.383187
C115	C	0.898065	0.326096	0.847613
C116	C	1.398065	0.826096	1.347613
C117	C	0.898061	0.326124	0.782180
C118	C	1.398061	0.826124	1.282180
C119	C	0.890214	0.401266	0.752321
C120	C	1.390214	0.901266	1.252321
C121	C	0.932355	0.347823	0.984851
C122	C	1.432355	0.847823	1.484851
C123	C	0.932351	0.347786	1.050286
C124	C	1.432351	0.847786	1.550286
C125	C	0.848093	0.454449	1.054283
C126	C	1.348093	0.954449	1.554283
C127	C	0.848094	0.454479	0.988849
C128	C	1.348094	0.954479	1.488849
C129	C	0.890228	0.401167	0.954137
C130	C	1.390228	0.901167	1.454137
H131	H	0.647933	0.498340	0.393601
H132	H	1.147933	0.998340	0.893601
O133	O	0.802655	0.512015	0.955721
O134	O	1.302655	1.012015	1.455721
H135	H	0.809726	0.503073	0.904389
H136	H	1.309726	1.003073	1.404389
O137	O	0.528491	0.290441	0.230025
O138	O	1.028491	0.790441	0.730025
H139	H	0.477153	0.299411	0.237093
H140	H	0.977153	0.799411	0.737093
H141	H	0.529228	0.498301	0.393646
H142	H	1.029228	0.998301	0.893646
O143	O	0.826881	0.927439	0.380563
O144	O	1.326881	1.427439	0.880563
H145	H	0.853435	0.967060	0.413953
H146	H	1.353435	1.467060	0.913953
H147	H	0.244301	0.498230	0.393746
H148	H	0.744301	0.998230	0.893746
H149	H	0.450161	0.389270	0.214555
H150	H	0.950161	0.889270	0.714555
O151	O	0.977791	0.290322	0.947402
O152	O	1.477791	0.790322	1.447402
H153	H	0.969566	0.224885	0.957456
H154	H	1.469566	0.724885	1.457456
H155	H	0.813764	0.498092	0.560209
H156	H	1.313764	0.998092	1.060209
O157	O	0.116400	0.512411	0.404819
O158	O	0.616400	1.012411	0.904819
H159	H	0.148729	0.549600	0.433996
H160	H	0.648729	1.049600	0.933996
O161	O	0.664499	0.290467	0.229988
O162	O	1.164499	0.790467	0.729988
H163	H	0.632169	0.253334	0.200769
H164	H	1.132169	0.753334	0.700769
O165	O	0.802659	0.511952	1.091725
O166	O	1.302659	1.011952	1.591725
H167	H	0.754036	0.497663	1.078588
H168	H	1.254036	0.997663	1.578588
H169	H	0.330738	0.413500	0.420329
H170	H	0.830738	0.913500	0.920329
O171	O	0.953402	0.874471	0.254264
O172	O	1.453402	1.374471	0.754264
H173	H	0.926838	0.834868	0.220870
H174	H	1.426838	1.334868	0.720870
O175	O	0.458047	0.415295	0.435270
O176	O	0.958047	0.915295	0.935270
H177	H	0.485660	0.471781	0.436345
H178	H	0.985660	0.971781	0.936345
H179	H	0.966646	0.304600	0.552958
H180	H	1.466646	0.804600	1.052958
H181	H	0.966644	0.304538	0.671662
H182	H	1.466644	0.804538	1.171662
O183	O	0.906516	0.245124	0.743808
O184	O	1.406516	0.745124	1.243808
H185	H	0.911965	0.192871	0.775564
H186	H	1.411965	0.692871	1.275564
O187	O	0.906502	0.245049	0.879814
O188	O	1.406502	0.745049	1.379814
H189	H	0.905174	0.257641	0.931289
H190	H	1.405174	0.757641	1.431289
O191	O	0.124859	0.290322	0.230171
O192	O	0.624859	0.790322	0.730171
H193	H	0.073521	0.299284	0.237244
H194	H	0.573521	0.799284	0.737244
O195	O	0.977794	0.290257	1.083418
O196	O	1.477794	0.790257	1.583418
H197	H	1.007094	0.253200	1.048285
H198	H	1.507094	0.753200	1.548285
O199	O	0.873919	0.557337	0.891688
O200	O	1.373919	1.057337	1.391688
H201	H	0.868454	0.609584	0.859929
H202	H	1.368454	1.109584	1.359929
O203	O	0.873915	0.557401	0.755676
O204	O	1.373915	1.057401	1.255676
H205	H	0.868469	0.609621	0.791404
H206	H	1.368469	1.109621	1.291404
H207	H	0.331457	0.389246	0.214598
H208	H	0.831457	0.889246	0.714598
H209	H	0.251672	0.304465	0.241244
H210	H	0.751672	0.804465	0.741244
O211	O	0.802641	0.512137	0.688089
O212	O	1.302641	1.012137	1.188089
H213	H	0.809724	0.503162	0.738750
H214	H	1.309724	1.003162	1.238750
