data_functionalizedCrystal
_audit_creation_method	'MofGen! by Chris Wilmer'
_symmetry_space_group_name_H-M	'P1'
_symmetry_Int_Tables_number	1
_symmetry_cell_setting	triclinic
loop_
_symmetry_equiv_pos_as_xyz
  x,y,z
_cell_length_a	14.853566
_cell_length_b	17.019294
_cell_length_c	13.330367
_cell_angle_alpha	86.116384
_cell_angle_beta	89.995295
_cell_angle_gamma	83.514243
loop_
_atom_site_label
_atom_site_type_symbol
_atom_site_fract_x
_atom_site_fract_y
_atom_site_fract_z
O1	O	1.196090	0.102985	-0.092252
O2	O	0.933597	0.115254	-0.093328
O3	O	1.072166	-0.005705	-0.082866
O4	O	1.057522	0.223944	-0.102715
O5	O	1.072146	-0.005708	0.083982
O6	O	0.933577	0.115252	0.073519
O7	O	1.196070	0.102982	0.074595
Cu8	Cu	1.064822	0.109117	0.089292
Cu9	Cu	1.064846	0.109120	-0.108025
O10	O	1.057502	0.223942	0.064133
C11	C	0.900000	0.114697	-0.009859
C12	C	0.799921	0.113032	-0.009721
C13	C	0.376766	0.105989	-0.100043
C14	C	0.376765	0.105987	0.081860
C15	C	0.470795	0.107550	0.081722
C16	C	0.517815	0.108335	-0.009300
C17	C	0.470804	0.107555	-0.100184
C18	C	0.517812	0.108338	0.172604
C19	C	0.611847	0.109903	0.172469
C20	C	0.658869	0.110682	0.081446
C21	C	0.611853	0.109901	-0.009441
C22	C	0.658872	0.110686	-0.100464
C23	C	0.611859	0.109900	-0.191352
C24	C	0.517826	0.108334	-0.191207
C25	C	0.752901	0.112247	0.081301
C26	C	0.752910	0.112252	-0.100605
C27	C	1.071600	-0.035096	0.003096
C28	C	1.069934	-0.122669	0.010658
C29	C	1.069164	-0.163804	-0.076737
C30	C	1.067593	-0.246087	-0.069629
C31	C	1.066797	-0.287233	0.024876
C32	C	1.067565	-0.246092	0.112278
C33	C	1.069130	-0.163810	0.105168
C34	C	1.062066	-0.535671	0.050892
C35	C	1.060503	-0.617959	0.057995
C36	C	1.060530	-0.617949	-0.123912
C37	C	1.062100	-0.535666	-0.131013
C38	C	1.062862	-0.494531	-0.043611
C39	C	1.065194	-0.371340	0.032144
C40	C	1.064459	-0.410425	-0.050881
C41	C	1.229667	0.103539	-0.008876
C42	C	1.329747	0.105205	-0.009021
C43	C	1.058067	0.253333	-0.021831
C44	C	1.059733	0.340905	-0.029400
N45	N	1.064812	0.109114	0.228073
N46	N	1.064863	0.109116	-0.246806
C47	C	1.003485	0.162660	0.696065
C48	C	1.126231	0.055574	0.705295
C49	C	1.126220	0.055571	0.600277
C50	C	1.064842	0.109115	0.543148
C51	C	1.003474	0.162660	0.591037
C52	C	1.187593	0.002032	0.552380
C53	C	1.187586	0.002028	0.447356
C54	C	1.126203	0.055568	0.390225
C55	C	1.064832	0.109115	0.438120
C56	C	1.003454	0.162659	0.380990
C57	C	0.942078	0.216203	0.428884
C58	C	0.942091	0.216201	0.533906
C59	C	1.126190	0.055571	0.285203
C60	C	1.003444	0.162660	0.275962
H61	H	0.791187	0.112888	-0.174727
H62	H	0.479521	0.107705	0.246709
O63	O	0.875910	0.273955	0.585566
H64	H	0.805642	0.263792	0.566319
H65	H	1.062704	-0.502191	0.122061
H66	H	1.069744	-0.130317	0.176335
O67	O	1.064362	-0.415731	0.134069
H68	H	1.002240	-0.446266	0.141056
O69	O	1.066755	-0.290467	-0.163881
H70	H	1.004615	-0.320979	-0.165584
O71	O	0.937292	0.220414	0.747710
H72	H	0.947609	0.211425	0.830336
H73	H	0.650153	0.110544	-0.265463
O74	O	0.467121	0.107497	-0.289232
H75	H	0.393833	0.106288	-0.273841
O76	O	1.062939	-0.491284	-0.232943
H77	H	1.062127	-0.533711	-0.292522
O78	O	1.066724	-0.290467	0.214212
H79	H	1.065523	-0.354596	0.204476
H80	H	0.338484	0.105346	-0.174042
O81	O	0.326273	0.105289	0.180171
H82	H	0.336438	0.159369	0.218881
O83	O	1.065312	-0.366052	-0.152811
H84	H	1.127445	-0.335531	-0.159792
O85	O	0.937245	0.220413	0.214343
H86	H	0.894577	0.257645	0.265293
O87	O	0.875884	0.273954	0.367256
H88	H	0.833210	0.311191	0.418195
H89	H	1.176207	0.011984	0.751813
O90	O	1.059653	-0.662331	0.159939
H91	H	1.120368	-0.706769	0.168134
H92	H	1.237570	-0.041558	0.598898
H93	H	1.237561	-0.041571	0.408367
O94	O	1.192364	-0.002177	0.233531
H95	H	1.262634	0.007976	0.252783
O96	O	0.662552	0.110766	0.270490
H97	H	0.614057	0.109960	0.333805
H98	H	0.791174	0.112895	0.155300
H99	H	1.069816	-0.130309	-0.153693
H100	H	1.059907	-0.651450	-0.195069
