data_functionalizedCrystal
_audit_creation_method	'MofGen! by Chris Wilmer'
_symmetry_space_group_name_H-M	'P1'
_symmetry_Int_Tables_number	1
_symmetry_cell_setting	triclinic
loop_
_symmetry_equiv_pos_as_xyz
  x,y,z
_cell_length_a	19.121063
_cell_length_b	16.625548
_cell_length_c	16.625539
_cell_angle_alpha	89.977655
_cell_angle_beta	87.591339
_cell_angle_gamma	87.531074
loop_
_atom_site_label
_atom_site_type_symbol
_atom_site_fract_x
_atom_site_fract_y
_atom_site_fract_z
Zn1	Zn	-0.279615	-1.218958	0.469616
Zn2	Zn	0.220385	-0.718958	0.969616
Zn3	Zn	-0.397073	-1.213097	0.340525
Zn4	Zn	0.102927	-0.713097	0.840525
Zn5	Zn	-0.279639	-1.084118	0.334794
Zn6	Zn	0.220361	-0.584118	0.834794
Zn7	Zn	-0.397030	-1.078328	0.475308
Zn8	Zn	0.102970	-0.578328	0.975308
O9	O	-0.338339	-1.148625	0.405061
O10	O	0.161661	-0.648625	0.905061
O11	O	-0.295204	-1.331012	0.452508
O12	O	0.204796	-0.831012	0.952508
O13	O	-0.381523	-1.195958	0.226934
O14	O	0.118477	-0.695958	0.726934
O15	O	-0.181352	-1.106882	0.347897
O16	O	0.318648	-0.606882	0.847897
O17	O	-0.381499	-1.326706	0.357665
O18	O	0.118501	-0.826706	0.857665
O19	O	-0.181334	-1.205947	0.446951
O20	O	0.318666	-0.705947	0.946951
O21	O	-0.295245	-1.101198	0.222723
O22	O	0.204755	-0.601198	0.722723
O23	O	-0.295204	-0.970518	0.353417
O24	O	0.204796	-0.470518	0.853417
O25	O	-0.381426	-1.097012	0.587384
O26	O	0.118574	-0.597012	1.087384
O27	O	-0.381450	-0.966264	0.456653
O28	O	0.118550	-0.466264	0.956653
O29	O	-0.295162	-1.200332	0.583202
O30	O	0.204838	-0.700332	1.083202
O31	O	-0.495351	-1.190343	0.363185
O32	O	0.004649	-0.690343	0.863185
O33	O	-0.495320	-1.091329	0.462210
O34	O	0.004680	-0.591329	0.962210
C35	C	-0.338325	-0.939135	0.405031
C36	C	0.161675	-0.439135	0.905031
C37	C	-0.338336	-0.849513	0.405038
C38	C	0.161664	-0.349513	0.905038
C39	C	-0.520820	-1.139593	0.413955
C40	C	-0.020820	-0.639593	0.913955
C41	C	-0.598886	-1.135803	0.417787
C42	C	-0.098886	-0.635803	0.917787
C43	C	-0.338335	-0.521338	0.405062
C44	C	0.161665	-0.021338	0.905062
C45	C	-0.338333	-0.612646	0.405053
C46	C	0.161667	-0.112646	0.905053
C47	C	-0.338336	-0.685423	0.405050
C48	C	0.161664	-0.185423	0.905050
C49	C	-0.338334	-0.776737	0.405042
C50	C	0.161666	-0.276737	0.905042
C51	C	-0.635554	-1.185614	0.368073
C52	C	-0.135554	-0.685614	0.868073
C53	C	-0.708906	-1.182054	0.371681
C54	C	-0.208906	-0.682054	0.871681
C55	C	-0.745587	-1.128679	0.425000
C56	C	-0.245587	-0.628679	0.925000
C57	C	-0.708913	-1.078866	0.474720
C58	C	-0.208913	-0.578866	0.974720
C59	C	-0.635563	-1.082430	0.471115
C60	C	-0.135563	-0.582430	0.971115
C61	C	-0.967056	-1.115339	0.438466
C62	C	-0.467056	-0.615339	0.938466
C63	C	-1.040412	-1.111777	0.442066
C64	C	-0.540412	-0.611777	0.942066
C65	C	-1.040399	-1.214966	0.339028
C66	C	-0.540399	-0.714966	0.839028
C67	C	-0.967048	-1.218523	0.335424
C68	C	-0.467048	-0.718523	0.835424
C69	C	-0.930380	-1.168713	0.385147
C70	C	-0.430380	-0.668713	0.885147
C71	C	-0.820564	-1.125037	0.428688
C72	C	-0.320564	-0.625037	0.928688
C73	C	-0.855405	-1.172359	0.381462
C74	C	-0.355405	-0.672359	0.881462
C75	C	-0.155146	-1.157714	0.396150
C76	C	0.344854	-0.657714	0.896150
C77	C	-0.077080	-1.161587	0.392352
C78	C	0.422920	-0.661587	0.892352
C79	C	-0.338287	-1.148680	0.615367
C80	C	0.161713	-0.648680	1.115367
C81	C	-0.338265	-1.148703	0.704987
C82	C	0.161735	-0.648703	1.204987
C83	C	-0.338349	-0.358933	0.405083
C84	C	0.161651	0.141067	0.905083
C85	C	-0.338341	-0.448555	0.405072
C86	C	0.161659	0.051445	0.905072
C87	C	-0.338341	-1.148619	0.195570
C88	C	0.161659	-0.648619	0.695570
C89	C	-0.338165	-1.148762	0.105941
C90	C	0.161835	-0.648762	0.605941
C91	C	-0.338186	-1.148745	1.033159
C92	C	0.161814	-0.648745	1.533159
C93	C	-0.338210	-1.148731	0.941852
C94	C	0.161790	-0.648731	1.441852
C95	C	-0.338226	-1.148724	0.869076
C96	C	0.161774	-0.648724	1.369076
C97	C	-0.338249	-1.148710	0.777763
C98	C	0.161751	-0.648710	1.277763
H99	H	-0.605693	-1.229074	0.324651
H100	H	-0.105693	-0.729074	0.824651
C101	C	-0.926732	-1.060587	0.493204
C102	C	-0.426732	-0.560587	0.993204
N103	N	-0.896357	-1.019361	0.534451
N104	N	-0.396357	-0.519361	1.034451
C105	C	-0.749265	-1.020150	0.533369
C106	C	-0.249265	-0.520150	1.033369
N107	N	-0.779658	-0.975920	0.577541
N108	N	-0.279658	-0.475920	1.077541
C109	C	-0.595228	-1.027635	0.525805
C110	C	-0.095228	-0.527635	1.025805
N111	N	-0.564849	-0.986363	0.567001
N112	N	-0.064849	-0.486363	1.067001
C113	C	-0.815053	-1.231069	0.322811
C114	C	-0.315053	-0.731069	0.822811
N115	N	-0.784654	-1.275286	0.278632
N116	N	-0.284654	-0.775286	0.778632
H117	H	-0.738758	-1.222615	0.331198
H118	H	-0.238758	-0.722615	0.831198
H119	H	-0.937183	-1.261985	0.292008
H120	H	-0.437183	-0.761985	0.792008
C121	C	-1.080739	-1.269756	0.284340
C122	C	-0.580739	-0.769756	0.784340
N123	N	-1.111123	-1.311027	0.243148
N124	N	-0.611123	-0.811027	0.743148
C125	C	-1.080759	-1.053062	0.500729
C126	C	-0.580759	-0.553062	1.000729
N127	N	-1.111150	-1.008842	0.544913
N128	N	-0.611150	-0.508842	1.044913
H129	H	-0.850438	-1.081577	0.472100
H130	H	-0.350438	-0.581577	0.972100
