data_functionalizedCrystal
_audit_creation_method	'MofGen! by Chris Wilmer'
_symmetry_space_group_name_H-M	'P1'
_symmetry_Int_Tables_number	1
_symmetry_cell_setting	triclinic
loop_
_symmetry_equiv_pos_as_xyz
  x,y,z
_cell_length_a	25.639242
_cell_length_b	12.827892
_cell_length_c	12.827885
_cell_angle_alpha	90.029786
_cell_angle_beta	89.977793
_cell_angle_gamma	89.992304
loop_
_atom_site_label
_atom_site_type_symbol
_atom_site_fract_x
_atom_site_fract_y
_atom_site_fract_z
Zn1	Zn	0.799350	0.416197	-0.590930
Zn2	Zn	0.799297	0.590974	-0.416191
Zn3	Zn	0.711915	0.416224	-0.416195
Zn4	Zn	0.711907	0.590873	-0.590882
O5	O	0.755617	0.503567	-0.503549
O6	O	0.872508	0.439412	-0.567769
O7	O	0.787687	0.567847	-0.269955
O8	O	0.723538	0.269985	-0.439396
O9	O	0.872469	0.567821	-0.439389
O10	O	0.787777	0.269965	-0.567774
O11	O	0.723487	0.439459	-0.269958
O12	O	0.638748	0.439361	-0.439349
O13	O	0.723526	0.567648	-0.737124
O14	O	0.638743	0.567675	-0.567691
O15	O	0.787770	0.439314	-0.737160
O16	O	0.787680	0.737197	-0.439342
O17	O	0.723474	0.737123	-0.567686
C18	C	0.619775	0.503511	-0.503516
C19	C	0.561661	0.503512	-0.503526
C20	C	0.310496	0.436824	-0.570519
C21	C	0.365100	0.436814	-0.570513
O22	O	0.393361	0.380067	-0.627466
N23	N	0.392387	0.503555	-0.503561
C24	C	0.365067	0.570319	-0.436619
O25	O	0.393290	0.627088	-0.379671
C26	C	0.310463	0.570334	-0.436631
C27	C	0.283179	0.503580	-0.503579
C28	C	0.283211	0.370077	-0.637463
C29	C	0.228611	0.370086	-0.637468
C30	C	0.201295	0.436842	-0.570528
C31	C	0.228579	0.503589	-0.503584
C32	C	0.283144	0.637102	-0.369694
C33	C	0.228537	0.637112	-0.369712
C34	C	0.201253	0.570358	-0.436661
C35	C	0.146662	0.570355	-0.436648
N36	N	0.119375	0.503613	-0.503600
C37	C	0.146691	0.436857	-0.570540
C38	C	0.479737	0.570284	-0.436600
C39	C	0.534340	0.570265	-0.436582
C40	C	0.534369	0.436761	-0.570478
C41	C	0.479766	0.436775	-0.570490
C42	C	0.452450	0.503542	-0.503552
C43	C	0.032026	0.436881	-0.570543
C44	C	-0.022579	0.436893	-0.570539
C45	C	-0.022604	0.570400	-0.436647
C46	C	0.031997	0.570385	-0.436647
C47	C	0.059310	0.503622	-0.503604
O48	O	0.118366	0.627075	-0.379728
O49	O	0.118461	0.380108	-0.627488
C50	C	0.755585	0.775077	-0.503531
C51	C	0.755618	0.891230	-0.503558
C52	C	0.755653	0.503467	-0.776120
C53	C	0.755668	0.503424	-0.892273
C54	C	0.891990	0.503625	-0.503584
C55	C	0.950104	0.503649	-0.503599
C56	C	0.755664	0.230997	-0.503591
C57	C	0.755684	0.114844	-0.503609
C58	C	0.787427	0.943017	-0.440120
C59	C	0.787463	1.063067	-0.440146
C60	C	0.787461	0.439908	-0.944075
C61	C	0.787478	0.439862	-1.064126
C62	C	0.755612	0.503592	-0.232040
C63	C	0.755698	0.503340	-0.115887
H64	H	-0.044855	0.624748	-0.382142
C65	C	0.824250	0.366394	-1.124306
N66	N	0.851947	0.311053	-1.169637
C67	C	0.824182	0.882851	-0.366716
N68	N	0.851866	0.837534	-0.311425
H69	H	0.206300	0.691486	-0.315205
H70	H	0.728479	0.557725	-1.071345
H71	H	0.728415	0.935770	-0.557894
C72	C	0.718909	0.576840	-0.952422
N73	N	0.691220	0.632140	-0.997724
C74	C	0.718892	1.054688	-0.576988
N75	N	0.691180	1.009371	-0.632259
C76	C	-0.052589	0.363459	-0.644194
N77	N	-0.075190	0.308152	-0.699672
C78	C	0.824253	1.123230	-0.366767
N79	N	0.851964	1.168547	-0.311497
H80	H	0.054212	0.624732	-0.382123
C81	C	0.564428	0.363334	-0.644122
N82	N	0.587069	0.308035	-0.699588
C83	C	0.824217	0.366485	-0.883927
N84	N	0.851903	0.311181	-0.838624
C85	C	0.062063	0.363431	-0.644193
N86	N	0.084687	0.308103	-0.699659
C87	C	0.449758	0.363349	-0.644145
N88	N	0.427160	0.308044	-0.699628
C89	C	0.313251	0.296626	-0.711103
N90	N	0.335873	0.241291	-0.766565
C91	C	0.564346	0.643689	-0.362923
N92	N	0.586945	0.699000	-0.307446
C93	C	0.198606	0.296661	-0.711127
N94	N	0.176009	0.241358	-0.766616
C95	C	0.313144	0.710542	-0.296048
N96	N	0.335740	0.765863	-0.240575
C97	C	0.449695	0.643722	-0.362942
N98	N	0.427070	0.699035	-0.307461
