data_functionalizedCrystal
_audit_creation_method	'MofGen! by Chris Wilmer'
_symmetry_space_group_name_H-M	'P1'
_symmetry_Int_Tables_number	1
_symmetry_cell_setting	triclinic
loop_
_symmetry_equiv_pos_as_xyz
  x,y,z
_cell_length_a	10.540539
_cell_length_b	11.026607
_cell_length_c	10.065875
_cell_angle_alpha	100.731764
_cell_angle_beta	81.165690
_cell_angle_gamma	96.555754
loop_
_atom_site_label
_atom_site_type_symbol
_atom_site_fract_x
_atom_site_fract_y
_atom_site_fract_z
O1	O	-1.737937	-0.153654	0.113423
O2	O	-1.372062	-0.169796	0.113440
O3	O	-1.524676	0.015190	0.113428
O4	O	-1.585324	-0.338641	0.113435
O5	O	-1.495607	-0.020227	-0.113559
O6	O	-1.342994	-0.205214	-0.113547
O7	O	-1.708868	-0.189071	-0.113563
Zn8	Zn	-1.521316	-0.202766	-0.149594
Zn9	Zn	-1.559615	-0.156102	0.149470
O10	O	-1.556255	-0.374058	-0.113551
C11	C	-1.309960	-0.186294	-0.000051
C12	C	-1.168219	-0.182671	-0.000045
C13	C	-1.498953	0.042790	-0.000063
C14	C	-1.465601	0.177794	-0.000057
C15	C	-1.770971	-0.172573	-0.000069
C16	C	-1.912713	-0.176195	-0.000066
C17	C	-0.954321	-0.043949	-0.000578
C18	C	-1.101810	-0.047539	-0.000052
C19	C	-1.137390	-0.227478	0.129571
C20	C	-0.989848	-0.222851	0.129666
C21	C	-0.956905	-0.265876	-0.128460
C22	C	-1.103942	-0.267386	-0.130159
C23	C	-1.581978	-0.401657	-0.000057
C24	C	-1.615331	-0.536659	-0.000055
N25	N	-1.495187	-0.234612	-0.353698
C26	C	-1.557694	0.250801	-0.000059
C27	C	-1.523225	0.390335	-0.000053
C28	C	-1.550514	-0.167174	-0.421481
C29	C	-1.530416	-0.191694	-0.578646
N30	N	-1.585752	-0.124246	0.353574
H31	H	-1.121317	-0.010867	-0.092967
Cl32	Cl	-1.304471	0.240771	-0.000036
H33	H	-1.662054	0.210003	-0.000072
Cl34	Cl	-0.949810	-0.371475	0.138755
H35	H	-1.418858	0.431127	-0.000039
H36	H	-1.468160	-0.267582	-0.636962
Cl37	Cl	-1.682194	-0.007333	-0.556401
Cl38	Cl	-1.776471	0.400375	-0.000056
H39	H	-0.963517	-0.159669	0.226554
H40	H	-1.612756	-0.091282	-0.363161
H41	H	-1.432934	-0.310495	-0.412019
H42	H	-0.902138	-0.005068	-0.093534
H43	H	-0.924307	0.023633	0.091858
H44	H	-1.144188	0.018514	0.093022
H45	H	-1.182437	-0.167251	0.226033
Cl46	Cl	-1.206454	-0.379514	0.137056
H47	H	-1.122218	-0.234840	-0.226049
Cl48	Cl	-0.873994	-0.222020	-0.280150
H49	H	-1.148746	-0.367127	-0.137983
Cl50	Cl	-0.916827	-0.416781	-0.129811
