data_functionalizedCrystal
_audit_creation_method	'MofGen! by Chris Wilmer'
_symmetry_space_group_name_H-M	'P1'
_symmetry_Int_Tables_number	1
_symmetry_cell_setting	triclinic
loop_
_symmetry_equiv_pos_as_xyz
  x,y,z
_cell_length_a	18.215407
_cell_length_b	25.639240
_cell_length_c	18.215399
_cell_angle_alpha	89.960373
_cell_angle_beta	89.983176
_cell_angle_gamma	90.033205
loop_
_atom_site_label
_atom_site_type_symbol
_atom_site_fract_x
_atom_site_fract_y
_atom_site_fract_z
Zn1	Zn	1.125010	-0.208137	-0.416068
Zn2	Zn	1.124908	-0.295577	-0.292982
Zn3	Zn	1.001949	-0.208158	-0.293016
Zn4	Zn	1.001891	-0.295544	-0.416007
O5	O	1.063439	-0.251854	-0.354518
O6	O	1.227981	-0.219742	-0.399752
O7	O	1.108578	-0.284003	-0.190002
O8	O	1.018340	-0.134990	-0.309379
O9	O	1.227906	-0.283983	-0.309322
O10	O	1.108752	-0.134975	-0.399785
O11	O	1.018241	-0.219777	-0.190027
O12	O	0.898957	-0.219745	-0.309319
O13	O	1.018242	-0.283927	-0.519000
O14	O	0.898915	-0.283947	-0.399681
O15	O	1.108697	-0.219710	-0.519045
O16	O	1.108523	-0.368738	-0.309262
O17	O	1.018143	-0.368714	-0.399648
C18	C	0.872233	-0.251845	-0.354497
C19	C	0.790434	-0.251854	-0.354506
C20	C	0.602238	-0.285337	-0.401498
C21	C	0.525379	-0.285338	-0.401507
C22	C	0.525393	-0.218381	-0.307555
C23	C	0.602251	-0.218377	-0.307550
C24	C	0.640671	-0.251858	-0.354520
C25	C	0.486955	-0.251864	-0.354535
C26	C	0.403621	-0.251865	-0.354544
C27	C	0.724010	-0.251856	-0.354512
C28	C	1.063335	-0.387697	-0.354461
C29	C	1.063358	-0.445811	-0.354461
C30	C	1.110541	-0.806128	-0.401678
C31	C	1.110562	-0.860732	-0.401693
O32	O	1.150555	-0.888929	-0.441779
N33	N	1.063542	-0.888093	-0.354590
C34	C	1.016491	-0.860848	-0.307474
O35	O	0.976498	-0.889135	-0.267410
C36	C	1.016466	-0.806244	-0.307463
C37	C	1.063495	-0.778886	-0.354564
C38	C	1.157565	-0.778769	-0.448776
C39	C	1.157544	-0.724168	-0.448760
C40	C	1.110499	-0.696926	-0.401646
C41	C	1.063474	-0.724285	-0.354548
C42	C	0.969412	-0.779000	-0.260351
C43	C	0.969391	-0.724393	-0.260345
C44	C	1.016420	-0.697034	-0.307446
C45	C	1.016408	-0.642443	-0.307418
N46	N	1.063428	-0.615081	-0.354521
C47	C	1.110474	-0.642323	-0.401635
C48	C	1.016546	-0.975518	-0.307500
C49	C	1.016574	-1.030121	-0.307507
C50	C	1.110644	-1.030001	-0.401727
C51	C	1.110620	-0.975398	-0.401717
C52	C	1.063566	-0.948157	-0.354604
C53	C	1.110427	-0.527658	-0.401597
C54	C	1.110404	-0.473053	-0.401575
C55	C	1.016331	-0.473177	-0.307357
C56	C	1.016356	-0.527778	-0.307377
C57	C	1.063407	-0.555017	-0.354503
O58	O	0.976434	-0.614211	-0.267354
O59	O	1.150454	-0.614029	-0.441698
C60	C	1.255392	-0.251864	-0.354540
C61	C	1.337191	-0.251868	-0.354549
C62	C	1.063474	-0.251813	-0.546471
C63	C	1.063489	-0.251795	-0.628270
C64	C	1.063564	-0.115481	-0.354592
C65	C	1.063617	-0.057367	-0.354624
C66	C	1.016490	-0.218330	-0.816478
C67	C	1.016503	-0.218319	-0.893337
C68	C	1.110576	-0.285198	-0.893301
C69	C	1.110559	-0.285210	-0.816443
C70	C	1.063517	-0.251773	-0.778034
C71	C	1.063547	-0.251750	-0.931750
C72	C	1.063561	-0.251739	-1.015084
C73	C	1.063502	-0.251785	-0.694695
C74	C	1.063447	-0.251858	-0.163312
C75	C	1.063575	-0.251729	-0.081514
H76	H	0.633544	-0.191112	-0.269296
Cl77	Cl	0.957349	-0.176297	-0.768195
H78	H	1.148735	-0.549830	-0.439977
Cl79	Cl	0.957371	-0.176280	-0.941664
H80	H	1.148876	-0.312420	-0.924583
Cl81	Cl	1.169532	-0.438662	-0.460791
Cl82	Cl	1.216664	-0.689783	-0.507982
H83	H	1.195875	-0.800943	-0.487146
Cl84	Cl	1.169742	-0.941010	-0.460933
H85	H	0.633517	-0.312598	-0.439746
H86	H	1.148856	-0.312446	-0.785141
Cl87	Cl	0.910235	-0.690151	-0.201113
H88	H	1.148950	-1.052191	-0.440092
Cl89	Cl	0.477066	-0.327427	-0.460568
H90	H	0.978067	-0.550054	-0.269017
H91	H	0.494102	-0.191123	-0.269313
H92	H	0.978232	-0.953341	-0.269129
Cl93	Cl	0.957459	-1.064508	-0.248281
Cl94	Cl	0.910283	-0.813380	-0.201137
H95	H	0.978029	-0.450988	-0.268995
