data_functionalizedCrystal
_audit_creation_method	'MofGen! by Chris Wilmer'
_symmetry_space_group_name_H-M	'P1'
_symmetry_Int_Tables_number	1
_symmetry_cell_setting	triclinic
loop_
_symmetry_equiv_pos_as_xyz
  x,y,z
_cell_length_a	18.050590
_cell_length_b	18.050583
_cell_length_c	12.759399
_cell_angle_alpha	90.033268
_cell_angle_beta	89.995719
_cell_angle_gamma	89.999666
loop_
_atom_site_label
_atom_site_type_symbol
_atom_site_fract_x
_atom_site_fract_y
_atom_site_fract_z
Zn1	Zn	1.135368	-0.419617	0.418495
Zn2	Zn	1.135305	-0.295434	0.594218
Zn3	Zn	1.011185	-0.295475	0.418520
Zn4	Zn	1.011164	-0.419616	0.594099
O5	O	1.073255	-0.357536	0.506333
O6	O	1.239284	-0.403127	0.441844
O7	O	1.118823	-0.191515	0.570971
O8	O	1.027694	-0.311961	0.271496
O9	O	1.239238	-0.311890	0.570947
O10	O	1.118930	-0.403167	0.271477
O11	O	1.027632	-0.191545	0.441887
O12	O	0.907258	-0.311960	0.441772
O13	O	1.027657	-0.523541	0.570745
O14	O	0.907242	-0.403166	0.570769
O15	O	1.118910	-0.523542	0.441729
O16	O	1.118802	-0.311889	0.741223
O17	O	1.027596	-0.403125	0.741136
C18	C	0.880303	-0.357568	0.506261
C19	C	0.797758	-0.357599	0.506256
C20	C	1.073288	-0.551241	0.506221
C21	C	1.073302	-0.633787	0.506173
C22	C	0.598320	-0.407079	0.576605
C23	C	0.548912	-0.425350	0.480804
C24	C	0.646627	-0.357563	0.506315
C25	C	0.548954	-0.339290	0.602171
C26	C	0.500642	-0.357529	0.506380
C27	C	0.598306	-0.375870	0.410462
C28	C	0.598353	-0.289778	0.531894
C29	C	0.548967	-0.308024	0.436026
C30	C	0.730725	-0.357584	0.506278
C31	C	0.416546	-0.357508	0.506405
C32	C	1.122975	-0.833238	0.435981
C33	C	1.055237	-0.882651	0.410249
C34	C	1.073332	-0.784918	0.506155
C35	C	1.141097	-0.882587	0.531820
C36	C	1.073367	-0.930903	0.506136
C37	C	1.005558	-0.833243	0.480374
C38	C	1.091464	-0.833175	0.601990
C39	C	1.023679	-0.882565	0.576295
C40	C	1.073313	-0.700819	0.506164
C41	C	1.073378	-1.014999	0.506127
C42	C	1.266961	-0.357504	0.506406
C43	C	1.349507	-0.357490	0.506437
C44	C	1.073210	-0.357519	0.779300
C45	C	1.073258	-0.357536	0.896077
C46	C	1.073266	-0.164583	0.506369
C47	C	1.073395	-0.082038	0.506121
C48	C	1.073321	-0.357569	0.232300
C49	C	1.073349	-0.357583	0.115523
C50	C	1.120804	-0.310083	0.950949
C51	C	1.120851	-0.310108	1.060673
C52	C	1.025802	-0.405041	1.060643
C53	C	1.025759	-0.405019	0.950921
C54	C	1.208512	-0.283659	1.210577
C55	C	1.256051	-0.236195	1.265453
C56	C	1.267484	-0.163731	1.229920
C57	C	1.231368	-0.138716	1.139513
C58	C	1.183824	-0.186177	1.084643
C59	C	1.172405	-0.258651	1.120174
C60	C	0.938097	-0.431461	0.801015
C61	C	0.890549	-0.478918	0.746143
C62	C	0.879108	-0.551383	0.781673
C63	C	0.915210	-0.576395	0.872084
C64	C	0.962759	-0.528938	0.926957
C65	C	0.974201	-0.456473	0.891418
H66	H	0.527195	-0.482660	0.459189
H67	H	0.948248	-0.811658	0.458564
H68	H	1.159482	-0.271421	0.906298
H69	H	0.981664	-0.904086	0.635631
C70	C	0.705264	-0.213490	0.561711
C71	C	0.627700	-0.212435	0.561104
H72	H	0.723381	-0.165740	0.579746
H73	H	0.722125	-0.248645	0.611672
H74	H	0.722889	-0.226791	0.494117
H75	H	0.610075	-0.199140	0.628700
H76	H	0.610832	-0.177269	0.511141
H77	H	0.840387	-0.590022	0.736987
C78	C	1.245884	-0.955638	0.479263
C79	C	1.218440	-0.911847	0.561144
H80	H	1.293634	-0.973695	0.497359
H81	H	1.213400	-0.996211	0.467617
H82	H	1.249240	-0.926698	0.417284
H83	H	1.215078	-0.940789	0.623120
H84	H	1.250932	-0.871268	0.572802
H85	H	0.527271	-0.323852	0.683208
H86	H	1.106810	-0.811428	0.683021
C87	C	0.969980	-0.954705	0.307850
C88	C	1.034556	-0.912012	0.300839
H89	H	0.957219	-0.972830	0.240303
H90	H	0.978217	-0.995233	0.353841
H91	H	0.930706	-0.924999	0.334144
H92	H	1.073832	-0.941719	0.274552
H93	H	1.026324	-0.871477	0.254832
C94	C	0.602626	-0.534598	0.629693
C95	C	0.627586	-0.463666	0.656709
H96	H	0.620700	-0.569533	0.679139
H97	H	0.550011	-0.535286	0.629832
H98	H	0.620253	-0.547085	0.561791
H99	H	0.609955	-0.451177	0.724608
H100	H	0.680212	-0.462976	0.656581
H101	H	0.619894	-0.391375	0.329400
H102	H	0.905895	-0.635403	0.901014
H103	H	0.527433	-0.266135	0.376543
C104	C	1.160400	-0.828967	0.255505
C105	C	1.179555	-0.803989	0.355824
H106	H	1.195326	-0.810904	0.206020
H107	H	1.160493	-0.881583	0.254508
H108	H	1.112394	-0.811343	0.237946
H109	H	1.227559	-0.821617	0.373386
H110	H	1.179470	-0.751362	0.356824
C111	C	1.164200	-0.085060	0.965666
C112	C	1.144130	-0.158691	0.985269
H113	H	1.139700	-0.068094	0.904309
H114	H	1.150233	-0.055057	1.023567
H115	H	1.216280	-0.082096	0.955811
H116	H	1.092050	-0.161654	0.995132
H117	H	1.158092	-0.188702	0.927354
H118	H	1.240675	-0.079706	1.110596
C119	C	1.349025	-0.148814	1.377089
C120	C	1.319742	-0.111558	1.290236
H121	H	1.381292	-0.116609	1.414321
H122	H	1.309810	-0.164025	1.421810
H123	H	1.375843	-0.191071	1.354033
H124	H	1.292919	-0.069304	1.313293
H125	H	1.358963	-0.096337	1.245507
H126	H	1.285457	-0.256568	1.339063
C127	C	1.263592	-0.401284	1.251085
C128	C	1.195953	-0.363317	1.249637
H129	H	1.255836	-0.450459	1.275210
H130	H	1.283742	-0.402558	1.182339
H131	H	1.297065	-0.376586	1.296705
H132	H	1.162481	-0.388012	1.204011
H133	H	1.175792	-0.362046	1.318394
C134	C	0.983658	-0.447220	1.228827
C135	C	0.973585	-0.457225	1.120932
H136	H	0.951415	-0.479433	1.266042
H137	H	1.033549	-0.458128	1.246747
H138	H	0.972828	-0.397315	1.246865
H139	H	0.984420	-0.507128	1.102892
H140	H	0.923682	-0.446322	1.103004
H141	H	0.992159	-0.549310	1.000571
C142	C	0.774097	-0.455797	0.661309
C143	C	0.850862	-0.451430	0.646758
H144	H	0.749599	-0.438825	0.599953
H145	H	0.760483	-0.505741	0.674621
H146	H	0.760148	-0.425776	0.719211
H147	H	0.864812	-0.481456	0.588860
H148	H	0.864481	-0.401477	0.633433
H149	H	0.947415	-0.372455	0.772071
