data_functionalizedCrystal
_audit_creation_method	'MofGen! by Chris Wilmer'
_symmetry_space_group_name_H-M	'P1'
_symmetry_Int_Tables_number	1
_symmetry_cell_setting	triclinic
loop_
_symmetry_equiv_pos_as_xyz
  x,y,z
_cell_length_a	11.169417
_cell_length_b	21.295417
_cell_length_c	11.169409
_cell_angle_alpha	89.958601
_cell_angle_beta	89.980176
_cell_angle_gamma	90.031386
loop_
_atom_site_label
_atom_site_type_symbol
_atom_site_fract_x
_atom_site_fract_y
_atom_site_fract_z
Zn1	Zn	1.834794	-0.250543	-0.678467
Zn2	Zn	2.334794	0.249457	-0.178467
Zn3	Zn	1.834613	-0.355832	-0.477752
Zn4	Zn	2.334613	0.144168	0.022248
Zn5	Zn	1.634080	-0.250582	-0.477802
Zn6	Zn	2.134080	0.249418	0.022198
Zn7	Zn	1.634017	-0.355780	-0.678397
Zn8	Zn	2.134017	0.144220	-0.178397
O9	O	1.734376	-0.303184	-0.578105
O10	O	2.234376	0.196816	-0.078105
O11	O	2.002720	-0.264516	-0.651851
O12	O	2.502720	0.235484	-0.151851
O13	O	1.807962	-0.341908	-0.309809
O14	O	2.307962	0.158092	0.190191
O15	O	1.660807	-0.162487	-0.504470
O16	O	2.160807	0.337513	-0.004470
O17	O	2.002587	-0.341870	-0.504386
O18	O	2.502587	0.158130	-0.004386
O19	O	1.808271	-0.162459	-0.651898
O20	O	2.308271	0.337541	-0.151898
O21	O	1.660632	-0.264581	-0.309845
O22	O	2.160632	0.235419	0.190155
O23	O	1.466122	-0.264531	-0.504402
O24	O	1.966122	0.235469	-0.004402
O25	O	1.660700	-0.341783	-0.846356
O26	O	2.160700	0.158217	-0.346356
O27	O	1.466076	-0.341820	-0.651779
O28	O	1.966076	0.158180	-0.151779
O29	O	1.808210	-0.264466	-0.846408
O30	O	2.308210	0.235534	-0.346408
O31	O	1.807901	-0.443914	-0.504318
O32	O	2.307901	0.056086	-0.004318
O33	O	1.660524	-0.443877	-0.651731
O34	O	2.160524	0.056123	-0.151731
C35	C	1.422551	-0.303175	-0.578089
C36	C	1.922551	0.196825	-0.078089
C37	C	1.289151	-0.303186	-0.578111
C38	C	1.789151	0.196814	-0.078111
C39	C	1.734219	-0.466736	-0.578038
C40	C	2.234219	0.033264	-0.078038
C41	C	1.734261	-0.536704	-0.578050
C42	C	2.234261	-0.036704	-0.078050
C43	C	1.811069	-0.569569	-0.501371
C44	C	2.311069	-0.069569	-0.001371
C45	C	1.811125	-0.635312	-0.501398
C46	C	2.311125	-0.135312	-0.001398
C47	C	1.734352	-0.668187	-0.578091
C48	C	2.234352	-0.168187	-0.078091
C49	C	1.657539	-0.635313	-0.654785
C50	C	2.157539	-0.135313	-0.154785
C51	C	1.657494	-0.569572	-0.654765
C52	C	2.157494	-0.069572	-0.154765
N53	N	1.629362	-0.771452	-0.587235
N54	N	2.129362	-0.271452	-0.087235
N55	N	1.629409	-0.833904	-0.587248
N56	N	2.129409	-0.333904	-0.087248
C57	C	1.734487	-0.866261	-0.578160
C58	C	2.234487	-0.366261	-0.078160
N59	N	1.839518	-0.833808	-0.569035
N60	N	2.339518	-0.333808	-0.069035
N61	N	1.839470	-0.771351	-0.569016
N62	N	2.339470	-0.271351	-0.069016
C63	C	1.734394	-0.739472	-0.578123
C64	C	2.234394	-0.239472	-0.078123
C65	C	1.811362	-0.970412	-0.501506
C66	C	2.311362	-0.470412	-0.001506
C67	C	1.811420	-1.036156	-0.501541
C68	C	2.311420	-0.536156	-0.001541
C69	C	1.657824	-1.036156	-0.654923
C70	C	2.157824	-0.536156	-0.154923
C71	C	1.657776	-0.970413	-0.654894
C72	C	2.157776	-0.470413	-0.154894
C73	C	1.734543	-0.937546	-0.578179
C74	C	2.234543	-0.437546	-0.078179
C75	C	2.047418	-0.303194	-0.578121
C76	C	2.547418	0.196806	-0.078121
C77	C	2.180818	-0.303199	-0.578128
C78	C	2.680818	0.196801	-0.078128
C79	C	1.734468	-0.303114	-0.891147
C80	C	2.234468	0.196886	-0.391147
C81	C	1.734507	-0.303085	-1.024547
C82	C	2.234507	0.196915	-0.524547
C83	C	1.734567	-0.138994	-0.578198
C84	C	2.234567	0.361006	-0.078198
C85	C	1.734648	-0.069026	-0.578237
C86	C	2.234648	0.430974	-0.078237
C87	C	1.734353	-0.303209	-0.266280
C88	C	2.234353	0.196791	0.233720
C89	C	1.734547	-0.303061	-0.132880
C90	C	2.234547	0.196939	0.367120
H91	H	1.873675	-0.662076	-0.438956
H92	H	2.373675	-0.162076	0.061044
O93	O	1.574736	-0.670770	-0.737505
O94	O	2.074736	-0.170770	-0.237505
H95	H	1.521324	-0.636869	-0.790830
H96	H	2.021324	-0.136869	-0.290830
H97	H	1.595227	-0.943653	-0.717328
H98	H	2.095227	-0.443653	-0.217328
O99	O	1.574627	-0.534118	-0.737449
O100	O	2.074627	-0.034118	-0.237449
H101	H	1.521240	-0.568020	-0.790778
H102	H	2.021240	-0.068020	-0.290778
H103	H	1.873874	-0.943650	-0.439044
H104	H	2.373874	-0.443650	0.060956
H105	H	1.873973	-1.062914	-0.439102
H106	H	2.373973	-0.562914	0.060898
O107	O	1.893880	-0.534117	-0.418649
O108	O	2.393880	-0.034117	0.081351
H109	H	1.947309	-0.568020	-0.365343
H110	H	2.447309	-0.068020	0.134657
H111	H	1.595319	-1.062922	-0.717374
H112	H	2.095319	-0.562922	-0.217374
