data_functionalizedCrystal
_audit_creation_method	'MofGen! by Chris Wilmer'
_symmetry_space_group_name_H-M	'P1'
_symmetry_Int_Tables_number	1
_symmetry_cell_setting	triclinic
loop_
_symmetry_equiv_pos_as_xyz
  x,y,z
_cell_length_a	10.654550
_cell_length_b	14.044220
_cell_length_c	9.730223
_cell_angle_alpha	89.997406
_cell_angle_beta	89.996251
_cell_angle_gamma	88.836890
loop_
_atom_site_label
_atom_site_type_symbol
_atom_site_fract_x
_atom_site_fract_y
_atom_site_fract_z
O1	O	1.681222	0.133227	-0.114408
O2	O	1.317019	0.145921	-0.114387
O3	O	1.493654	0.001554	-0.114384
O4	O	1.504587	0.277595	-0.114411
O5	O	1.493652	0.001557	0.114196
O6	O	1.317017	0.145925	0.114193
O7	O	1.681220	0.133231	0.114172
Zn8	Zn	1.499118	0.139578	0.150474
Zn9	Zn	1.499121	0.139574	-0.150689
O10	O	1.504585	0.277598	0.114169
C11	C	1.270127	0.144991	-0.000094
C12	C	1.130403	0.142202	-0.000085
C13	C	1.059459	0.227203	-0.000114
C14	C	0.928175	0.224578	-0.000137
C15	C	0.938790	0.051942	-0.000109
C16	C	1.070072	0.054569	-0.000076
C17	C	1.053329	0.326873	-0.000136
C18	C	0.922045	0.324247	-0.000159
C19	C	1.488867	-0.033790	-0.000093
C20	C	1.474592	-0.139110	-0.000090
C21	C	1.448493	-0.331943	-0.000108
C22	C	1.549741	-0.388911	-0.000119
C23	C	1.535219	-0.496210	-0.000129
C24	C	1.463013	-0.224634	-0.000098
C25	C	1.728113	0.134161	-0.000124
C26	C	1.867836	0.136950	-0.000142
C27	C	1.509372	0.312942	-0.000125
C28	C	1.523648	0.418262	-0.000137
N29	N	1.499126	0.139581	0.356011
N30	N	1.499123	0.139563	-0.356226
C31	C	1.577364	0.075677	0.427938
C32	C	1.577359	0.075666	0.571821
C33	C	1.420876	0.203470	0.571837
C34	C	1.420875	0.203477	0.427956
C35	C	1.667713	0.001893	0.427931
C36	C	1.667708	0.001881	0.571814
H37	H	0.889652	-0.019406	-0.000123
O38	O	0.876675	0.369175	-0.114149
C39	C	0.798380	0.446519	-0.074490
H40	H	0.824073	0.469882	0.033946
H41	H	0.696242	0.423893	-0.076627
C42	C	0.784561	0.501315	-0.307943
C43	C	0.816126	0.530015	-0.174765
H44	H	0.795502	0.552819	-0.369800
H45	H	0.837306	0.449205	-0.334665
H46	H	0.699448	0.482460	-0.309705
H47	H	0.901241	0.548858	-0.173001
H48	H	0.763395	0.582131	-0.148045
H49	H	1.357156	0.255504	0.369394
O50	O	1.666230	-0.351077	0.000075
C51	C	1.731866	-0.381593	0.118478
H52	H	1.690073	-0.450499	0.157932
H53	H	1.723588	-0.324452	0.201383
C54	C	1.922530	-0.314407	0.034071
C55	C	1.871207	-0.399042	0.082522
H56	H	2.008483	-0.325166	0.011896
H57	H	1.878310	-0.293844	-0.045697
H58	H	1.915620	-0.266797	0.103166
H59	H	1.878103	-0.446645	0.013422
H60	H	1.915431	-0.419613	0.162278
H61	H	1.357165	0.255492	0.630430
H62	H	1.638943	-0.071017	0.388885
O63	O	0.871321	0.360087	0.117702
C64	C	0.915584	0.306301	0.230723
H65	H	1.008183	0.269220	0.202416
H66	H	0.843585	0.250646	0.259051
C67	C	0.822377	0.418363	0.388922
C68	C	0.936114	0.372826	0.354157
H69	H	0.835035	0.459397	0.465064
H70	H	0.792551	0.454598	0.312778
H71	H	0.762389	0.371975	0.412519
H72	H	0.996094	0.419214	0.330544
H73	H	0.965950	0.336600	0.430300
H74	H	1.761218	0.024996	0.383296
O75	O	1.332051	-0.369842	-0.000342
C76	C	1.266364	-0.339296	-0.118695
H77	H	1.336244	-0.318173	-0.201449
H78	H	1.203415	-0.275355	-0.091916
C79	C	1.099423	-0.446783	-0.070729
C80	C	1.185250	-0.420846	-0.172372
H81	H	1.049383	-0.497084	-0.103837
H82	H	1.143674	-0.467360	0.009011
H83	H	1.046977	-0.393491	-0.048422
H84	H	1.237704	-0.474134	-0.194665
H85	H	1.141005	-0.400280	-0.252118
H86	H	1.630271	-0.067018	0.616438
O87	O	1.784878	0.021150	0.618245
C88	C	1.870487	-0.049001	0.569846
H89	H	1.830958	-0.083649	0.473602
H90	H	1.886112	-0.105469	0.652606
C91	C	2.044844	0.040006	0.653402
C92	C	1.996298	-0.002544	0.535187
H93	H	2.122452	0.068661	0.632028
H94	H	1.987168	0.087267	0.686014
H95	H	2.057854	-0.007058	0.722358
H96	H	1.983274	0.044522	0.466240
H97	H	2.053975	-0.049796	0.502562
H98	H	1.086577	0.365855	0.095526
O99	O	1.139177	-0.027912	0.000020
C100	C	1.267988	-0.006806	0.000012
H101	H	1.281347	0.067737	0.043274
H102	H	1.305523	-0.010161	-0.109640
C103	C	1.323536	-0.171472	0.036549
C104	C	1.339945	-0.079919	0.089696
H105	H	1.367925	-0.216573	0.091865
H106	H	1.236754	-0.185692	0.036550
H107	H	1.354815	-0.174253	-0.054826
H108	H	1.308652	-0.077135	0.181063
H109	H	1.426724	-0.065700	0.089713
H110	H	1.092175	0.358608	-0.098826
