data_functionalizedCrystal
_audit_creation_method	'MofGen! by Chris Wilmer'
_symmetry_space_group_name_H-M	'P1'
_symmetry_Int_Tables_number	1
_symmetry_cell_setting	triclinic
loop_
_symmetry_equiv_pos_as_xyz
  x,y,z
_cell_length_a	28.938199
_cell_length_b	28.937346
_cell_length_c	28.934044
_cell_angle_alpha	60.005004
_cell_angle_beta	60.009897
_cell_angle_gamma	59.994060
loop_
_atom_site_label
_atom_site_type_symbol
_atom_site_fract_x
_atom_site_fract_y
_atom_site_fract_z
O1	O	0.064043	-0.675186	0.564597
O2	O	0.024124	-0.525682	0.454913
O3	O	0.118795	-0.620275	0.454833
O4	O	-0.030629	-0.580593	0.564678
O5	O	0.150204	-0.588870	0.486157
O6	O	0.055533	-0.494276	0.486238
O7	O	0.095452	-0.643780	0.595921
Cu8	Cu	0.078360	-0.566161	0.543940
Cu9	Cu	0.041215	-0.603301	0.506895
O10	O	0.000780	-0.549187	0.596002
N11	N	0.104487	-0.540042	0.569998
N12	N	0.015094	-0.629425	0.480837
C13	C	0.165467	-0.323909	0.630915
C14	C	0.165587	-0.479117	0.786068
C15	C	0.165481	-0.479095	0.630906
C16	C	0.320696	-0.479083	0.630835
C17	C	0.182557	-0.375118	0.647971
C18	C	0.182626	-0.462038	0.734858
C19	C	0.269485	-0.462018	0.647928
C20	C	0.182566	-0.462025	0.647966
C21	C	0.143714	-0.258726	0.609206
C22	C	0.143738	-0.500820	0.609192
C23	C	0.204309	-0.440300	0.669680
C24	C	0.415481	-0.462740	0.580919
C25	C	0.474732	-0.482485	0.561145
C26	C	0.474757	-0.578356	0.597704
C27	C	0.415508	-0.558609	0.617479
C28	C	0.157989	-0.229089	0.550957
C29	C	0.138212	-0.169834	0.531225
C30	C	0.089890	-0.169857	0.627992
C31	C	0.109667	-0.229112	0.647725
C32	C	0.085482	-0.486515	0.623535
C33	C	0.065722	-0.506265	0.603789
C34	C	0.162467	-0.554625	0.555370
C35	C	0.182230	-0.534875	0.575110
C36	C	0.085661	-0.486557	0.880902
C37	C	0.065952	-0.506323	0.940155
C38	C	0.162734	-0.554693	0.940102
C39	C	0.182441	-0.534928	0.880847
C40	C	0.143904	-0.500859	0.851249
C41	C	0.385871	-0.500801	0.609083
C42	C	-0.110907	-0.668480	0.441278
C43	C	-0.024049	-0.668588	0.441475
C44	C	-0.045729	-0.690282	0.419668
C45	C	-0.062146	-0.785032	0.469507
C46	C	-0.042446	-0.844287	0.489286
C47	C	0.053426	-0.844399	0.452899
C48	C	0.033725	-0.785144	0.433120
C49	C	-0.140617	-0.682751	0.499509
C50	C	-0.199867	-0.662928	0.519152
C51	C	-0.199694	-0.614571	0.422330
C52	C	-0.140443	-0.634393	0.402687
C53	C	-0.038320	-0.610337	0.427144
C54	C	-0.018610	-0.590621	0.446974
C55	C	0.029642	-0.687402	0.495454
C56	C	0.009933	-0.707121	0.475630
C57	C	-0.038148	-0.610347	0.324832
C58	C	-0.018301	-0.590634	0.265579
C59	C	0.030035	-0.687421	0.265643
C60	C	0.010190	-0.707133	0.324897
C61	C	-0.023903	-0.668595	0.354491
C62	C	-0.024062	-0.755463	0.441426
N63	N	0.503527	-0.540005	0.569810
O64	O	0.684453	-0.545211	0.434650
O65	O	0.684643	-0.655237	0.584005
O66	O	0.684567	-0.654986	0.489282
O67	O	0.684529	-0.545462	0.529373
O68	O	0.590438	-0.623674	0.520735
O69	O	0.590513	-0.623924	0.615457
O70	O	0.590323	-0.513899	0.466102
Cu71	Cu	0.581823	-0.566053	0.543652
Cu72	Cu	0.693143	-0.603083	0.506456
O73	O	0.590399	-0.514149	0.560825
N74	N	0.771439	-0.629131	0.480292
N75	N	0.104456	-0.141061	0.570015
O76	O	-0.030629	0.039964	0.564688
O77	O	0.118732	0.039984	0.454661
O78	O	0.023980	0.039958	0.454946
O79	O	0.064123	0.039990	0.564403
O80	O	0.055392	-0.054179	0.486321
O81	O	0.150144	-0.054153	0.486036
O82	O	0.000784	-0.054173	0.596063
Cu83	Cu	0.078332	-0.062759	0.543914
Cu84	Cu	0.041183	0.048570	0.506810
O85	O	0.095535	-0.054147	0.595778
N86	N	0.015053	0.126872	0.480710
N87	N	0.104760	-0.540096	0.968910
O88	O	0.099447	-0.675167	1.149923
O89	O	-0.010552	-0.525757	1.149951
O90	O	-0.010297	-0.620493	1.149918
O91	O	0.099192	-0.580431	1.149956
O92	O	0.021064	-0.589100	1.055785
O93	O	0.020809	-0.494365	1.055818
O94	O	0.130808	-0.643774	1.055790
Cu95	Cu	0.078672	-0.566203	1.047209
Cu96	Cu	0.041584	-0.603328	1.158532
O97	O	0.130553	-0.549038	1.055823
N98	N	0.015495	-0.629442	1.236831
C99	C	0.036087	-0.491140	0.455465
C100	C	0.153325	-0.608283	0.455364
C101	C	0.083488	-0.678322	0.595370
C102	C	-0.033750	-0.561180	0.595470
C103	C	0.637601	-0.654732	0.618548
C104	C	0.637509	-0.654422	0.501245
C105	C	0.637362	-0.514403	0.431560
C106	C	0.637458	-0.514713	0.548862
C107	C	0.153215	-0.006966	0.455158
C108	C	0.035916	-0.007114	0.455550
C109	C	-0.033739	-0.007106	0.595527
C110	C	0.083600	-0.007076	0.595174
C111	C	-0.010020	-0.491238	1.102888
C112	C	-0.009698	-0.608550	1.102828
C113	C	0.130276	-0.678293	1.102853
C114	C	0.129961	-0.560974	1.102892
H115	H	0.054276	-0.458811	0.856808
O116	O	0.637191	-0.473138	0.380434
C117	C	0.588420	-0.425466	0.387940
H118	H	0.554388	-0.439138	0.429400
H119	H	0.572010	-0.405209	0.351248
H120	H	0.599423	-0.393503	0.389243
H121	H	0.637525	-0.688829	0.492664
O122	O	0.204480	-0.618375	0.414159
C123	C	0.197035	-0.612020	0.366471
H124	H	0.155572	-0.618242	0.380105
H125	H	0.233731	-0.644906	0.346277
H126	H	0.195780	-0.567775	0.334472
O127	O	-0.084954	-0.007004	0.636687
C128	C	-0.127638	0.041739	0.617335
H129	H	-0.108361	0.075812	0.582079
H130	H	-0.161409	0.058113	0.653820
H131	H	-0.147658	0.030707	0.600458
H132	H	-0.044554	-0.448327	1.102896
O133	O	0.204303	-0.006619	0.413897
C134	C	0.239511	-0.006513	0.434223
H135	H	0.212289	0.011124	0.470688
H136	H	0.266404	0.021039	0.398680
H137	H	0.268310	-0.051613	0.449737
H138	H	0.164358	-0.552401	1.102897
H139	H	-0.076669	-0.552723	0.629962
O140	O	-0.111862	-0.715802	0.536940
C141	C	-0.077596	-0.688914	0.528501
H142	H	-0.068640	-0.657628	0.483531
H143	H	-0.035971	-0.722033	0.535175
H144	H	-0.100469	-0.665338	0.559973
O145	O	0.093748	-0.007044	0.636256
C146	C	0.045169	-0.007065	0.685112
H147	H	0.006243	0.010749	0.672767
H148	H	0.040223	0.020270	0.706185
H149	H	0.049758	-0.052228	0.715892
H150	H	0.027560	-0.448192	0.421017
O151	O	0.025586	-0.007165	0.414600
C152	C	-0.030051	-0.007170	0.435229
H153	H	-0.044926	-0.024974	0.483440
H154	H	-0.030867	-0.034526	0.418021
H155	H	-0.059348	0.037984	0.420906
O156	O	0.171460	-0.729480	1.102766
C157	C	0.184612	-0.739625	1.053995
H158	H	0.147198	-0.713211	1.037740
H159	H	0.193859	-0.786429	1.064944
H160	H	0.223413	-0.727438	1.019863
H161	H	0.229870	-0.546579	0.856706
O162	O	0.637519	-0.473735	0.559135
C163	C	0.686304	-0.493201	0.572402
H164	H	0.702601	-0.541450	0.588634
H165	H	0.675360	-0.476852	0.606461
H166	H	0.720401	-0.477043	0.532839
O167	O	0.009354	-0.492346	0.968868
C168	C	-0.020428	-0.458047	0.930034
H169	H	0.007810	-0.436500	0.887791
H170	H	-0.059966	-0.424525	0.947172
H171	H	-0.033212	-0.485378	0.923736
O172	O	0.200246	-0.587800	0.968766
C173	C	0.255880	-0.596173	0.929887
H174	H	0.255743	-0.589539	0.887655
H175	H	0.284029	-0.641115	0.946984
H176	H	0.272853	-0.564638	0.923585
O177	O	0.093741	-0.729596	0.636398
C178	C	0.149369	-0.764698	0.615866
H179	H	0.164297	-0.749274	0.567656
H180	H	0.150139	-0.810068	0.633155
H181	H	0.178652	-0.763138	0.630185
H182	H	-0.044080	-0.617108	1.102779
O183	O	0.048014	-0.453417	0.656611
C184	C	-0.007641	-0.445034	0.665040
H185	H	-0.007557	-0.451649	0.629322
H186	H	-0.035778	-0.400097	0.665364
H187	H	-0.024591	-0.476578	0.707251
O188	O	0.009146	-0.492474	0.617740
C189	C	-0.005145	-0.542268	0.647571
H190	H	0.033909	-0.579491	0.636859
H191	H	-0.039518	-0.536971	0.634980
H192	H	-0.021381	-0.550609	0.694996
H193	H	0.229667	-0.546519	0.563426
O194	O	0.199939	-0.587684	0.522251
C195	C	0.255594	-0.596088	0.513843
H196	H	0.255491	-0.560367	0.520465
H197	H	0.283700	-0.596389	0.468898
H198	H	0.272596	-0.638303	0.545366
H199	H	0.498884	-0.625426	0.604536
O200	O	0.386834	-0.595658	0.644805
C201	C	0.425703	-0.650915	0.647982
H202	H	0.467923	-0.648653	0.612973
H203	H	0.408580	-0.675238	0.642626
H204	H	0.432036	-0.673535	0.690913
H205	H	0.498841	-0.451490	0.538213
O206	O	0.386779	-0.406569	0.572740
C207	C	0.425623	-0.377210	0.543629
H208	H	0.467871	-0.407621	0.550449
H209	H	0.408510	-0.341476	0.560408
H210	H	0.431897	-0.358792	0.496490
H211	H	0.637649	-0.689271	0.661445
H212	H	0.149834	-0.145702	0.483792
O213	O	0.191035	-0.257767	0.513463
C214	C	0.199400	-0.218900	0.457817
H215	H	0.163667	-0.176667	0.457943
H216	H	0.199691	-0.236017	0.429692
H217	H	0.241604	-0.212588	0.440821
O218	O	0.095769	-0.257940	0.704300
C219	C	0.065975	-0.292255	0.718650
H220	H	0.045863	-0.274397	0.685290
H221	H	0.031497	-0.292968	0.761693
H222	H	0.096472	-0.337148	0.720573
O223	O	0.056888	-0.141151	0.665465
C224	C	0.086848	-0.155621	0.699685
H225	H	0.121350	-0.198637	0.700244
H226	H	0.056475	-0.157663	0.744630
H227	H	0.106944	-0.122264	0.681855
O228	O	-0.032222	-0.534030	0.236862
C229	C	-0.066558	-0.504246	0.275692
H230	H	-0.088157	-0.532472	0.317905
H231	H	-0.100033	-0.464682	0.258502
H232	H	-0.039250	-0.491502	0.282066
H233	H	-0.065911	-0.578960	0.348925
H234	H	0.021795	-0.754566	0.349042
O235	O	0.063159	-0.724936	0.236988
C236	C	0.071459	-0.780573	0.275874
H237	H	0.064772	-0.780454	0.318134
H238	H	0.116395	-0.808755	0.258830
H239	H	0.039921	-0.797500	0.282104
H240	H	-0.065985	-0.578958	0.399332
H241	H	-0.030233	-0.543188	0.435308
H242	H	0.057315	-0.718782	0.523258
H243	H	0.021552	-0.754553	0.487300
H244	H	0.064741	-0.761071	0.410254
H245	H	0.100481	-0.868567	0.446139
O246	O	-0.079530	-0.872924	0.516641
C247	C	-0.134762	-0.834019	0.519755
H248	H	-0.137025	-0.791775	0.515810
H249	H	-0.166101	-0.851070	0.562109
H250	H	-0.145823	-0.827754	0.483865
H251	H	-0.224058	-0.674545	0.566571
O252	O	-0.118254	-0.756132	0.477467
C253	C	-0.126205	-0.721876	0.424527
H254	H	-0.085430	-0.713061	0.391577
H255	H	-0.161759	-0.680177	0.427886
H256	H	-0.137857	-0.744689	0.411309
H257	H	-0.223743	-0.586821	0.390905
H258	H	-0.116252	-0.622767	0.355267
