data_functionalizedCrystal
_audit_creation_method	'MofGen! by Chris Wilmer'
_symmetry_space_group_name_H-M	'P1'
_symmetry_Int_Tables_number	1
_symmetry_cell_setting	triclinic
loop_
_symmetry_equiv_pos_as_xyz
  x,y,z
_cell_length_a	12.645323
_cell_length_b	13.897449
_cell_length_c	13.897448
_cell_angle_alpha	90.018972
_cell_angle_beta	90.028168
_cell_angle_gamma	90.021328
loop_
_atom_site_label
_atom_site_type_symbol
_atom_site_fract_x
_atom_site_fract_y
_atom_site_fract_z
Zn1	Zn	-0.599384	-1.474708	0.383974
Zn2	Zn	-0.266051	-1.141375	0.717308
Zn3	Zn	0.067283	-0.808042	1.050641
Zn4	Zn	-0.422114	-1.474601	0.545289
Zn5	Zn	-0.088780	-1.141267	0.878623
Zn6	Zn	0.244553	-0.807934	1.211956
Zn7	Zn	-0.422132	-1.313396	0.384013
Zn8	Zn	-0.088799	-0.980062	0.717347
Zn9	Zn	0.244534	-0.646729	1.050680
Zn10	Zn	-0.599333	-1.313379	0.545233
Zn11	Zn	-0.266000	-0.980046	0.878566
Zn12	Zn	0.067333	-0.646712	1.211899
O13	O	-0.510741	-1.394021	0.464627
O14	O	-0.177408	-1.060688	0.797961
O15	O	0.155926	-0.727354	1.131294
O16	O	-0.575882	-1.609676	0.405380
O17	O	-0.242549	-1.276342	0.738714
O18	O	0.090785	-0.943009	1.072047
O19	O	-0.273769	-1.453178	0.523936
O20	O	0.059564	-1.119845	0.857269
O21	O	0.392898	-0.786512	1.190602
O22	O	-0.445674	-1.334846	0.249027
O23	O	-0.112341	-1.001513	0.582360
O24	O	0.220992	-0.668180	0.915693
O25	O	-0.445642	-1.609596	0.523898
O26	O	-0.112309	-1.276263	0.857231
O27	O	0.221024	-0.942930	1.190564
O28	O	-0.575900	-1.453362	0.248998
O29	O	-0.242567	-1.120028	0.582331
O30	O	0.090767	-0.786695	0.915665
O31	O	-0.273783	-1.334742	0.405447
O32	O	0.059551	-1.001408	0.738780
O33	O	0.392884	-0.668075	1.072114
O34	O	-0.445625	-1.178412	0.405392
O35	O	-0.112292	-0.845079	0.738726
O36	O	0.221042	-0.511745	1.072059
O37	O	-0.747687	-1.334818	0.523801
O38	O	-0.414354	-1.001485	0.857135
O39	O	-0.081021	-0.668151	1.190468
O40	O	-0.575814	-1.178400	0.523839
O41	O	-0.242481	-0.845066	0.857173
O42	O	0.090853	-0.511733	1.190506
O43	O	-0.747725	-1.453346	0.405326
O44	O	-0.414391	-1.120012	0.738659
O45	O	-0.081058	-0.786679	1.071992
O46	O	-0.445593	-1.453162	0.680263
O47	O	-0.112260	-1.119829	1.013597
O48	O	0.221073	-0.786496	1.346930
O49	O	-0.575796	-1.334713	0.680222
O50	O	-0.242462	-1.001380	1.013555
O51	O	0.090871	-0.668047	1.346888
C52	C	-0.510717	-1.143407	0.464615
C53	C	-0.177383	-0.810073	0.797948
C54	C	0.155950	-0.476740	1.131281
C55	C	-0.510731	-1.036193	0.464632
C56	C	-0.177398	-0.702859	0.797966
C57	C	0.155935	-0.369526	1.131299
C58	C	-0.510710	-1.393951	0.715242
C59	C	-0.177377	-1.060617	1.048575
C60	C	0.155956	-0.727284	1.381908
C61	C	-0.510732	-1.394009	0.822456
C62	C	-0.177399	-1.060675	1.155789
C63	C	0.155934	-0.727342	1.489122
C64	C	-0.787246	-1.394092	0.464553
C65	C	-0.453913	-1.060759	0.797886
C66	C	-0.120580	-0.727425	1.131219
C67	C	-0.905076	-1.394122	0.464521
C68	C	-0.571743	-1.060789	0.797854
C69	C	-0.238410	-0.727456	1.131188
C70	C	-1.072617	-1.319326	0.538703
C71	C	-0.739284	-0.985993	0.872036
C72	C	-0.405951	-0.652660	1.205370
C73	C	-0.950057	-1.319522	0.539070
C74	C	-0.616724	-0.986189	0.872404
C75	C	-0.283391	-0.652856	1.205737
C76	C	-0.949592	-1.495758	0.492106
C77	C	-0.616259	-1.162425	0.825439
C78	C	-0.282925	-0.829091	1.158772
C79	C	-1.072190	-1.495348	0.492571
C80	C	-0.738857	-1.162014	0.825904
C81	C	-0.405523	-0.828681	1.159238
C82	C	-1.072281	-1.368243	0.362340
C83	C	-0.738948	-1.034910	0.695673
C84	C	-0.405615	-0.701577	1.029006
C85	C	-0.949675	-1.365976	0.362952
C86	C	-0.616342	-1.032642	0.696285
C87	C	-0.283008	-0.699309	1.029619
C88	C	-0.235311	-1.394006	0.464632
C89	C	0.098022	-1.060672	0.797965
C90	C	0.431356	-0.727339	1.131299
C91	C	-0.117482	-1.394162	0.464392
C92	C	0.215852	-1.060829	0.797725
C93	C	0.549185	-0.727496	1.131059
C94	C	-0.510766	-1.645614	0.464641
C95	C	-0.177432	-1.312281	0.797974
C96	C	0.155901	-0.978947	1.131308
C97	C	-0.510776	-1.752828	0.464647
C98	C	-0.177443	-1.419494	0.797980
C99	C	0.155890	-1.086161	1.131313
C100	C	-0.510759	-0.839898	0.464636
C101	C	-0.177426	-0.506564	0.797969
C102	C	0.155907	-0.173231	1.131302
C103	C	-0.510741	-0.949130	0.464631
C104	C	-0.177408	-0.615797	0.797964
C105	C	0.155926	-0.282463	1.131297
C106	C	-0.510795	-1.394118	0.213034
C107	C	-0.177462	-1.060785	0.546368
C108	C	0.155872	-0.727451	0.879701
C109	C	-0.510818	-1.394159	0.105820
C110	C	-0.177485	-1.060826	0.439154
C111	C	0.155849	-0.727493	0.772487
C112	C	-0.510799	-1.394110	1.018751
C113	C	-0.177466	-1.060777	1.352084
C114	C	0.155868	-0.727443	1.685417
C115	C	-0.510765	-1.394051	0.909518
C116	C	-0.177432	-1.060718	1.242852
C117	C	0.155901	-0.727384	1.576185
H118	H	-1.102094	-1.243736	0.521608
H119	H	-0.768760	-0.910403	0.854941
H120	H	-0.435427	-0.577070	1.188274
O121	O	-1.113433	-1.341765	0.638293
O122	O	-0.780099	-1.008431	0.971626
O123	O	-0.446766	-0.675098	1.304960
H124	H	-1.081294	-1.288516	0.690183
H125	H	-0.747961	-0.955182	1.023517
H126	H	-0.414628	-0.621849	1.356850
H127	H	-1.101870	-1.552997	0.440796
H128	H	-0.768537	-1.219664	0.774129
H129	H	-0.435204	-0.886330	1.107463
H130	H	-1.103189	-1.295421	0.337195
H131	H	-0.769856	-0.962088	0.670528
H132	H	-0.436522	-0.628754	1.003862
H133	H	-0.920738	-1.336632	0.614726
H134	H	-0.587405	-1.003299	0.948060
H135	H	-0.254071	-0.669966	1.281393
O136	O	-0.911005	-1.571608	0.422689
O137	O	-0.577672	-1.238274	0.756023
O138	O	-0.244339	-0.904941	1.089356
H139	H	-0.865316	-1.626895	0.462591
H140	H	-0.531983	-1.293562	0.795925
H141	H	-0.198649	-0.960228	1.129258
O142	O	-0.911121	-1.266911	0.335374
O143	O	-0.577788	-0.933578	0.668708
O144	O	-0.244454	-0.600245	1.002041
H145	H	-0.860402	-1.237835	0.393755
H146	H	-0.527069	-0.904501	0.727088
H147	H	-0.193736	-0.571168	1.060422
O148	O	-0.908952	-1.525365	0.589893
O149	O	-0.575618	-1.192032	0.923226
O150	O	-0.242285	-0.858699	1.256559
H151	H	-0.857062	-1.467863	0.619003
H152	H	-0.523729	-1.134529	0.952337
H153	H	-0.190395	-0.801196	1.285670
O154	O	-0.910189	-1.219696	0.516178
O155	O	-0.576856	-0.886363	0.849511
O156	O	-0.243523	-0.553029	1.182845
H157	H	-0.939615	-1.168410	0.571233
H158	H	-0.606281	-0.835077	0.904566
H159	H	-0.272948	-0.501744	1.237900
O160	O	-0.909135	-1.432903	0.285728
O161	O	-0.575802	-1.099570	0.619062
O162	O	-0.242468	-0.766236	0.952395
H163	H	-0.856336	-1.487521	0.318683
H164	H	-0.523002	-1.154187	0.652016
H165	H	-0.189669	-0.820854	0.985349
O166	O	-1.110096	-1.524432	0.591391
O167	O	-0.776762	-1.191099	0.924724
O168	O	-0.443429	-0.857765	1.258057
H169	H	-1.040861	-1.538653	0.638398
H170	H	-0.707528	-1.205320	0.971731
H171	H	-0.374195	-0.871987	1.305065
O172	O	-1.110716	-1.440433	0.288994
O173	O	-0.777383	-1.107099	0.622327
O174	O	-0.444049	-0.773766	0.955661
H175	H	-1.161764	-1.494513	0.324987
H176	H	-0.828430	-1.161180	0.658320
H177	H	-0.495097	-0.827846	0.991654
