data_functionalizedCrystal
_audit_creation_method	'MofGen! by Chris Wilmer'
_symmetry_space_group_name_H-M	'P1'
_symmetry_Int_Tables_number	1
_symmetry_cell_setting	triclinic
loop_
_symmetry_equiv_pos_as_xyz
  x,y,z
_cell_length_a	10.489741
_cell_length_b	16.992694
_cell_length_c	16.053833
_cell_angle_alpha	92.723321
_cell_angle_beta	87.144041
_cell_angle_gamma	92.396301
loop_
_atom_site_label
_atom_site_type_symbol
_atom_site_fract_x
_atom_site_fract_y
_atom_site_fract_z
O1	O	0.265520	-1.038940	0.069324
O2	O	0.262549	-0.810637	0.069348
O3	O	0.078889	-0.929984	0.069331
O4	O	0.449180	-0.919594	0.069342
O5	O	0.089082	-0.935941	-0.069528
O6	O	0.272743	-0.816594	-0.069510
O7	O	0.275713	-1.044897	-0.069535
Zn8	Zn	0.275846	-0.931691	-0.091569
Zn9	Zn	0.262416	-0.923843	0.091383
O10	O	0.459373	-0.925550	-0.069517
C11	C	0.263826	-0.784381	-0.000078
C12	C	0.252430	-0.697272	-0.000068
C13	C	0.036386	-0.932177	-0.000098
C14	C	-0.105448	-0.929830	-0.000096
C15	C	0.274436	-1.071153	-0.000107
C16	C	0.285831	-1.158261	-0.000110
C17	C	-0.180196	-0.853893	-0.000082
C18	C	-0.264171	-0.892701	-0.068550
C19	C	-0.274194	-0.886847	0.068353
C20	C	-0.187551	-0.968672	-0.068621
C21	C	-0.197571	-0.962804	0.068344
C22	C	-0.281513	-1.001669	-0.000141
C23	C	0.501876	-0.923357	-0.000086
C24	C	0.643710	-0.925704	-0.000083
N25	N	0.285012	-0.937053	-0.216429
C26	C	0.362379	-0.647653	-0.000066
C27	C	0.351666	-0.565806	-0.000078
C28	C	0.231001	-0.533580	-0.000086
C29	C	0.121044	-0.583207	-0.000091
C30	C	0.131759	-0.665052	-0.000085
C31	C	0.186590	-0.289733	-0.000110
C32	C	0.175882	-0.207881	-0.000113
C33	C	0.406505	-0.190486	-0.000101
C34	C	0.417210	-0.272334	-0.000090
C35	C	0.307253	-0.321953	-0.000100
N36	N	0.220047	-0.449920	-0.000096
N37	N	0.318209	-0.405612	-0.000096
C38	C	0.332330	-0.964629	-0.740060
C39	C	0.325909	-0.960882	-0.652653
C40	C	0.240392	-0.910997	-0.608946
C41	C	0.161299	-0.864851	-0.652649
C42	C	0.167727	-0.868594	-0.740054
C43	C	0.212347	-0.894650	-0.347537
C44	C	0.205923	-0.890912	-0.260126
C45	C	0.370536	-0.986942	-0.260137
C46	C	0.376951	-0.990684	-0.347543
C47	C	0.297863	-0.944535	-0.391239
N48	N	0.233824	-0.907168	-0.519602
N49	N	0.304438	-0.948360	-0.480581
N50	N	0.253240	-0.918487	0.216243
H51	H	-0.135972	-0.791461	-0.000144
N52	N	0.045731	-0.173121	-0.000117
H53	H	-0.022302	-0.216973	-0.000123
H54	H	0.040047	-0.141753	-0.051593
N55	N	0.067986	-0.343234	-0.000108
H56	H	0.063506	-0.375364	0.051369
H57	H	0.071126	-0.379746	-0.051615
H58	H	0.103326	-0.831019	-0.775631
N59	N	0.127029	-0.844887	-0.394657
H60	H	0.144074	-0.854822	-0.456660
H61	H	0.145240	-0.787317	-0.379364
H62	H	-0.325497	-1.064161	-0.000186
H63	H	-0.312204	-0.852223	0.126244
H64	H	0.441198	-0.525408	-0.000074
H65	H	0.091674	-0.824230	-0.617055
N66	N	-0.158354	-1.002042	0.145007
H67	H	-0.196791	-1.057523	0.145550
H68	H	-0.189828	-0.971035	0.196661
N69	N	0.113676	-0.837110	-0.212979
H70	H	0.134088	-0.780819	-0.228165
H71	H	0.121651	-0.841819	-0.150995
H72	H	0.460637	-0.673884	-0.000058
N73	N	0.547354	-0.307089	-0.000065
H74	H	0.615383	-0.263235	-0.000061
H75	H	0.560618	-0.342889	-0.051534
N76	N	0.525096	-0.136970	-0.000092
H77	H	0.500004	-0.080231	-0.000098
H78	H	0.581101	-0.149695	-0.051566
N79	N	-0.137384	-1.014468	-0.145396
H80	H	-0.211113	-1.033642	-0.180142
H81	H	-0.090195	-1.061148	-0.127988
N82	N	-0.303326	-0.853425	-0.145211
H83	H	-0.399565	-0.852586	-0.144918
H84	H	-0.270309	-0.883792	-0.196885
N85	N	-0.009103	-0.548455	-0.000114
H86	H	0.000790	-0.489076	-0.000117
H87	H	-0.061372	-0.564344	0.051359
N88	N	0.013173	-0.718575	-0.000094
H89	H	-0.064894	-0.685742	-0.000100
H90	H	0.008811	-0.750699	0.051382
H91	H	0.401963	-1.005253	-0.775640
H92	H	0.390311	-0.998456	-0.617079
H93	H	0.446586	-1.031307	-0.383124
H94	H	0.434926	-1.024513	-0.224550
