data_functionalizedCrystal
_audit_creation_method	'MofGen! by Chris Wilmer'
_symmetry_space_group_name_H-M	'P1'
_symmetry_Int_Tables_number	1
_symmetry_cell_setting	triclinic
loop_
_symmetry_equiv_pos_as_xyz
  x,y,z
_cell_length_a	10.540539
_cell_length_b	9.016244
_cell_length_c	10.540539
_cell_angle_alpha	89.999933
_cell_angle_beta	95.474508
_cell_angle_gamma	90.005301
loop_
_atom_site_label
_atom_site_type_symbol
_atom_site_fract_x
_atom_site_fract_y
_atom_site_fract_z
O1	O	1.685893	0.123263	-0.178895
O2	O	1.316480	0.123280	-0.195751
O3	O	1.509614	0.123269	-0.002617
O4	O	1.492759	0.123274	-0.372030
O5	O	1.509586	-0.123411	-0.002621
O6	O	1.316452	-0.123400	-0.195755
O7	O	1.685865	-0.123418	-0.178900
Cu8	Cu	1.501156	-0.145933	-0.187328
Cu9	Cu	1.501189	0.145795	-0.187323
O10	O	1.492730	-0.123407	-0.372034
C11	C	1.269163	-0.000058	-0.194489
C12	C	1.128215	-0.000051	-0.190707
N13	N	1.501141	-0.351119	-0.187331
C14	C	0.944788	-0.000628	-0.045790
C15	C	1.091406	-0.000057	-0.049624
C16	C	1.066558	0.140811	-0.258600
C17	C	0.920014	0.140914	-0.253785
C18	C	0.919493	-0.139608	-0.256660
C19	C	1.066475	-0.141455	-0.257960
C20	C	1.397510	-0.586146	-0.290298
C21	C	1.397739	-0.414255	-0.290684
C22	C	1.633864	-0.413464	-0.217464
C23	C	1.633298	-0.585409	-0.218193
C24	C	1.473367	-0.585663	-0.053892
C25	C	1.470322	-0.413709	-0.054757
C26	C	1.733182	-0.000077	-0.180161
C27	C	1.874130	-0.000074	-0.183943
C28	C	1.508336	-0.000068	0.044684
C29	C	1.504554	-0.000060	0.185632
N30	N	1.501213	0.350982	-0.187310
C31	C	1.494008	-0.000066	-0.419335
C32	C	1.497790	-0.000064	-0.560283
C33	C	1.359637	0.000500	0.369059
C34	C	1.363471	-0.000055	0.222441
C35	C	1.572434	-0.140930	0.247287
C36	C	1.567619	-0.141049	0.393832
C37	C	1.570520	0.139473	0.394355
C38	C	1.571820	0.141336	0.247373
H39	H	1.134008	-0.101034	0.003797
H40	H	1.372684	-0.372962	-0.031916
O41	O	1.420900	-0.643352	-0.420677
H42	H	1.437227	-0.548346	-0.484084
H43	H	1.378630	-0.629106	-0.025213
H44	H	1.107425	-0.245664	-0.208362
O45	O	0.906911	-0.134437	0.028047
H46	H	0.837312	-0.201976	-0.032924
H47	H	1.090700	-0.149959	-0.360819
O48	O	1.708075	0.152604	0.215297
H49	H	1.773050	0.151219	0.304586
O50	O	1.573469	-0.639530	0.047692
H51	H	1.668795	-0.601239	0.024973
O52	O	0.904780	0.132422	0.027741
H53	H	0.989671	0.201447	0.057346
O54	O	1.665562	-0.638520	-0.347124
H55	H	1.585551	-0.706088	-0.392250
O56	O	1.146729	0.133928	0.021636
H57	H	1.197014	0.204359	-0.043953
O58	O	1.292224	-0.134048	0.167113
H59	H	1.254902	-0.198709	0.245097
O60	O	1.421448	-0.359728	-0.421795
H61	H	1.515108	-0.401369	-0.446428
H62	H	0.872045	0.147309	-0.355250
O63	O	1.096170	0.147783	-0.395839
H64	H	1.155292	0.050695	-0.417161
O65	O	1.122972	0.279677	-0.196117
H66	H	1.078622	0.378523	-0.244956
O67	O	1.510124	0.280931	0.436187
H68	H	1.477280	0.348107	0.351093
H69	H	0.891816	0.246209	-0.203602
H70	H	0.887935	-0.246381	-0.211004
H71	H	0.872266	-0.140559	-0.358564
H72	H	1.672424	0.140416	0.441581
H73	H	1.299123	-0.372106	-0.272553
O74	O	1.266466	-0.640985	-0.266681
H75	H	1.273842	-0.713646	-0.181292
H76	H	1.712941	-0.626995	-0.146204
H77	H	1.712919	-0.372564	-0.144501
H78	H	1.658762	-0.370386	-0.313702
H79	H	1.540849	-0.370737	0.025564
O80	O	1.292698	0.133682	0.165991
H81	H	1.255416	0.199337	0.243409
O82	O	1.285802	0.134288	0.406961
H83	H	1.346776	0.201811	0.476569
O84	O	1.286092	-0.132564	0.409041
H85	H	1.347509	-0.199102	0.479017
H86	H	1.522153	0.245547	0.206517
H87	H	1.669083	-0.147444	0.441800
O88	O	1.501132	-0.280518	0.431202
H89	H	1.402897	-0.282974	0.382818
O90	O	1.709670	-0.147905	0.217671
H91	H	1.731001	-0.050812	0.158548
H92	H	1.525258	-0.245756	0.204686
