data_functionalizedCrystal
_audit_creation_method	'MofGen! by Chris Wilmer'
_symmetry_space_group_name_H-M	'P1'
_symmetry_Int_Tables_number	1
_symmetry_cell_setting	triclinic
loop_
_symmetry_equiv_pos_as_xyz
  x,y,z
_cell_length_a	6.817900
_cell_length_b	7.190339
_cell_length_c	28.767571
_cell_angle_alpha	82.584400
_cell_angle_beta	89.999044
_cell_angle_gamma	119.388276
loop_
_atom_site_label
_atom_site_type_symbol
_atom_site_fract_x
_atom_site_fract_y
_atom_site_fract_z
V1	V	3.967722	0.296434	-0.144649
O2	O	3.866349	-0.012864	-0.142234
O3	O	4.006211	0.586450	-0.143335
O4	O	3.854077	0.292480	-0.207884
O5	O	4.019536	0.283142	-0.077238
V6	V	4.448545	0.259367	-0.136626
O7	O	4.234902	0.377744	-0.162250
O8	O	4.631562	0.178057	-0.119026
O9	O	4.186849	-0.030649	-0.137940
O10	O	4.667315	0.568664	-0.139041
O11	O	4.514128	0.272659	-0.204038
O12	O	4.338984	0.263321	-0.073391
C13	C	3.680397	0.282140	-0.223308
C14	C	3.669339	0.280827	-0.275001
C15	C	3.874476	0.657134	-0.140971
C16	C	3.988908	0.898687	-0.140307
C17	C	3.628765	0.276026	-0.464289
C18	C	3.640046	0.277362	-0.411623
C19	C	3.649052	0.278429	-0.369647
C20	C	3.660332	0.279760	-0.316977
C21	C	4.176010	0.273667	-0.057965
C22	C	4.166305	0.274970	-0.006272
C23	C	4.158424	0.276027	0.035709
C24	C	4.148516	0.277345	0.088376
C25	C	4.140604	0.278395	0.130353
C26	C	4.130696	0.279717	0.183023
C27	C	4.113088	0.282087	0.276693
C28	C	4.122784	0.280767	0.225000
V29	V	3.840567	0.296400	0.355355
O30	O	3.775002	0.283125	0.422766
O31	O	3.950113	0.292432	0.292119
O32	O	4.102257	0.586424	0.356664
O33	O	3.621805	-0.012903	0.357775
V34	V	3.321367	0.259312	0.363383
O35	O	3.657537	0.377695	0.337755
O36	O	3.054188	0.177996	0.380986
O37	O	3.435032	0.263290	0.426616
O38	O	3.269532	0.272581	0.295972
O39	O	3.422729	0.568609	0.360963
O40	O	3.282888	-0.030703	0.362071
C41	C	3.608719	0.273642	0.442038
C42	C	3.619791	0.274970	0.493730
C43	C	4.307150	0.657104	0.359027
C44	C	4.442733	0.898659	0.359688
