data_functionalizedCrystal
_audit_creation_method	'MofGen! by Chris Wilmer'
_symmetry_space_group_name_H-M	'P1'
_symmetry_Int_Tables_number	1
_symmetry_cell_setting	triclinic
loop_
_symmetry_equiv_pos_as_xyz
  x,y,z
_cell_length_a	13.897449
_cell_length_b	13.031981
_cell_length_c	13.032268
_cell_angle_alpha	90.931652
_cell_angle_beta	82.836706
_cell_angle_gamma	97.192993
loop_
_atom_site_label
_atom_site_type_symbol
_atom_site_fract_x
_atom_site_fract_y
_atom_site_fract_z
Zn1	Zn	1.355981	-0.483291	0.529405
Zn2	Zn	1.361018	-0.633478	0.335576
Zn3	Zn	1.217395	-0.461500	0.357453
Zn4	Zn	1.177077	-0.655247	0.507500
O5	O	1.277868	-0.558379	0.432483
O6	O	1.491629	-0.503223	0.503705
O7	O	1.360947	-0.592435	0.194565
O8	O	1.250544	-0.320452	0.398585
O9	O	1.495329	-0.613565	0.361300
O10	O	1.352363	-0.336462	0.524918
O11	O	1.255428	-0.466083	0.210637
O12	O	1.077067	-0.487191	0.377345
O13	O	1.181828	-0.650666	0.654319
O14	O	1.047446	-0.629536	0.487584
O15	O	1.313268	-0.524331	0.670413
O16	O	1.321853	-0.780304	0.340059
O17	O	1.186712	-0.796297	0.466371
C18	C	1.250477	-0.825625	0.398487
C19	C	1.238843	-0.939958	0.383977
C20	C	1.027258	-0.558362	0.432462
C21	C	0.920040	-0.558383	0.432474
C22	C	1.283988	-0.998777	0.440077
C23	C	1.271965	-1.116947	0.425082
C24	C	0.723741	-0.558390	0.432500
C25	C	0.832977	-0.558382	0.432483
C26	C	1.529456	-0.558396	0.432506
C27	C	1.636668	-0.558404	0.432515
C28	C	1.242489	-0.592358	0.700724
C29	C	1.227413	-0.606838	0.815032
C30	C	1.305389	-0.290092	0.466635
C31	C	1.317116	-0.175764	0.481189
C32	C	1.313172	-0.524458	0.165295
C33	C	1.328465	-0.509688	0.051025
C34	C	1.285725	-0.550785	0.873958
C35	C	1.270144	-0.565749	0.992101
H36	H	1.224405	-1.154070	0.365952
H37	H	1.165949	-0.665898	0.852051
C38	C	1.211585	-0.951291	0.205583
C39	C	1.174646	-0.990065	0.304151
H40	H	1.171946	-0.982220	0.156304
H41	H	1.276605	-0.966904	0.188397
H42	H	1.211241	-0.878452	0.205199
H43	H	1.174997	-1.062904	0.304537
H44	H	1.109609	-0.974460	0.321342
H45	H	1.208676	-0.624814	1.029115
H46	H	1.347180	-0.491714	0.836941
C47	C	1.371872	-0.356105	0.947729
C48	C	1.411430	-0.429923	1.001083
H49	H	1.423090	-0.306861	0.916897
H50	H	1.328393	-0.322050	0.994650
H51	H	1.337320	-0.389341	0.895445
H52	H	1.445977	-0.396688	1.053373
H53	H	1.454926	-0.463981	0.954158
C54	C	1.347673	-0.841303	0.519303
C55	C	1.348186	-0.948668	0.519901
H56	H	1.387312	-0.810372	0.568580
H57	H	1.282649	-0.825706	0.536500
H58	H	1.372725	-0.815018	0.452423
H59	H	1.323127	-0.974955	0.586779
H60	H	1.413223	-0.964273	0.502710
H61	H	1.364667	-1.138643	0.540327
