data_functionalizedCrystal
_audit_creation_method	'MofGen! by Chris Wilmer'
_symmetry_space_group_name_H-M	'P1'
_symmetry_Int_Tables_number	1
_symmetry_cell_setting	triclinic
loop_
_symmetry_equiv_pos_as_xyz
  x,y,z
_cell_length_a	16.959455
_cell_length_b	19.121111
_cell_length_c	16.959447
_cell_angle_alpha	87.591305
_cell_angle_beta	89.980656
_cell_angle_gamma	87.530667
loop_
_atom_site_label
_atom_site_type_symbol
_atom_site_fract_x
_atom_site_fract_y
_atom_site_fract_z
Zn1	Zn	1.194930	0.279618	-0.460371
Zn2	Zn	1.694930	0.779618	0.039629
Zn3	Zn	1.189187	0.397079	-0.333827
Zn4	Zn	1.689187	0.897079	0.166173
Zn5	Zn	1.062752	0.279645	-0.328204
Zn6	Zn	1.562752	0.779645	0.171796
Zn7	Zn	1.057066	0.397031	-0.465957
Zn8	Zn	1.557066	0.897031	0.034043
O9	O	1.125984	0.338343	-0.397090
O10	O	1.625984	0.838343	0.102910
O11	O	1.304779	0.295209	-0.443600
O12	O	1.804779	0.795209	0.056400
O13	O	1.172391	0.381533	-0.222471
O14	O	1.672391	0.881533	0.277529
O15	O	1.085069	0.181357	-0.341046
O16	O	1.585069	0.681357	0.158954
O17	O	1.300559	0.381507	-0.350628
O18	O	1.800559	0.881507	0.149372
O19	O	1.182180	0.181338	-0.438148
O20	O	1.682180	0.681338	0.061852
O21	O	1.079499	0.295254	-0.218341
O22	O	1.579499	0.795254	0.281659
O23	O	0.951387	0.295207	-0.346463
O24	O	1.451387	0.795207	0.153537
O25	O	1.075378	0.381425	-0.575826
O26	O	1.575378	0.881425	-0.075826
O27	O	0.947210	0.381450	-0.447669
O28	O	1.447210	0.881450	0.052331
O29	O	1.176667	0.295162	-0.571722
O30	O	1.676667	0.795162	-0.071722
O31	O	1.166878	0.495357	-0.356045
O32	O	1.666878	0.995357	0.143955
O33	O	1.069809	0.495322	-0.453121
O34	O	1.569809	0.995322	0.046879
C35	C	0.920618	0.338327	-0.397062
C36	C	1.420618	0.838327	0.102938
C37	C	0.832761	0.338336	-0.397070
C38	C	1.332761	0.838336	0.102930
C39	C	0.793642	0.293369	-0.344455
C40	C	1.293642	0.793369	0.155545
C41	C	0.789327	0.383308	-0.449698
C42	C	1.289327	0.883308	0.050302
C43	C	0.706781	0.383317	-0.449710
C44	C	1.206781	0.883317	0.050290
C45	C	0.667661	0.338350	-0.397094
C46	C	1.167661	0.838350	0.102906
C47	C	0.711088	0.293375	-0.344467
C48	C	1.211088	0.793375	0.155533
C49	C	0.663348	0.428286	-0.502342
C50	C	1.163348	0.928286	-0.002342
C51	C	0.580796	0.428295	-0.502357
C52	C	1.080796	0.928295	-0.002357
C53	C	0.541675	0.383331	-0.449736
C54	C	1.041675	0.883331	0.050264
C55	C	0.585107	0.338355	-0.397106
C56	C	1.085107	0.838355	0.102894
C57	C	0.545988	0.293388	-0.344490
C58	C	1.045988	0.793388	0.155510
C59	C	0.589418	0.248415	-0.291856
C60	C	1.089418	0.748415	0.208144
C61	C	0.671967	0.248411	-0.291846
C62	C	1.171967	0.748411	0.208154
C63	C	0.459127	0.383335	-0.449746
C64	C	0.959127	0.883335	0.050254
C65	C	0.463434	0.293393	-0.344502
C66	C	0.963434	0.793393	0.155498
C67	C	1.117124	0.520824	-0.405816
C68	C	1.617124	1.020824	0.094184
C69	C	1.113407	0.598889	-0.409576
C70	C	1.613407	1.098889	0.090424
C71	C	1.162238	0.635560	-0.360842
C72	C	1.662238	1.135560	0.139158
C73	C	1.158746	0.708911	-0.364382
C74	C	1.658746	1.208911	0.135618
C75	C	1.106419	0.745590	-0.416654
C76	C	1.606419	1.245590	0.083346
C77	C	1.057585	0.708914	-0.465393
C78	C	1.557585	1.208914	0.034607
C79	C	1.061082	0.635565	-0.461856
C80	C	1.561082	1.135565	0.038144
C81	C	1.093335	0.967059	-0.429864
C82	C	1.593335	1.467059	0.070136
C83	C	1.089841	1.040414	-0.433395
C84	C	1.589841	1.540414	0.066605
C85	C	1.191003	1.040406	-0.332385
C86	C	1.691003	1.540406	0.167615
C87	C	1.194491	0.967055	-0.328850
C88	C	1.694491	1.467055	0.171150
C89	C	1.145661	0.930385	-0.377592
C90	C	1.645661	1.430385	0.122408
C91	C	1.102846	0.820567	-0.420272
C92	C	1.602846	1.320567	0.079728
C93	C	1.149238	0.855410	-0.373977
C94	C	1.649238	1.355410	0.126023
C95	C	1.332151	0.338361	-0.397118
C96	C	1.832151	0.838361	0.102882
C97	C	1.420007	0.338368	-0.397130
C98	C	1.920007	0.838368	0.102870
C99	C	1.126029	0.338285	-0.603255
C100	C	1.626029	0.838285	-0.103255
C101	C	1.126048	0.338260	-0.691111
C102	C	1.626048	0.838260	-0.191111
C103	C	1.134892	1.155151	-0.388357
C104	C	1.634892	1.655151	0.111643
C105	C	1.138672	1.077085	-0.384661
C106	C	1.638672	1.577085	0.115339
C107	C	1.077757	0.293265	-1.060439
C108	C	1.577757	0.793265	-0.560439
C109	C	1.174485	0.383108	-1.064728
C110	C	1.674485	0.883108	-0.564728
C111	C	1.174471	0.383124	-0.982182
C112	C	1.674471	0.883124	-0.482182
C113	C	1.126098	0.338211	-0.938762
C114	C	1.626098	0.838211	-0.438762
C115	C	1.077739	0.293281	-0.977886
C116	C	1.577739	0.793281	-0.477886
C117	C	1.222823	0.428058	-0.943052
C118	C	1.722823	0.928058	-0.443052
C119	C	1.222810	0.428077	-0.860502
C120	C	1.722810	0.928077	-0.360502
C121	C	1.174440	0.383159	-0.817080
C122	C	1.674440	0.883159	-0.317080
C123	C	1.126080	0.338227	-0.856209
C124	C	1.626080	0.838227	-0.356209
C125	C	1.077707	0.293314	-0.812788
C126	C	1.577707	0.793314	-0.312788
C127	C	1.029351	0.248378	-0.851916
C128	C	1.529351	0.748378	-0.351916
C129	C	1.029370	0.248364	-0.934464
C130	C	1.529370	0.748364	-0.434464
C131	C	1.174421	0.383173	-0.734532
C132	C	1.674421	0.883173	-0.234532
C133	C	1.077689	0.293331	-0.730235
C134	C	1.577689	0.793331	-0.230235
C135	C	1.125987	0.338351	-0.191724
C136	C	1.625987	0.838351	0.308276
C137	C	1.126130	0.338178	-0.103860
C138	C	1.626130	0.838178	0.396140
H139	H	0.557557	0.211799	-0.249020
H140	H	1.057557	0.711799	0.250980
H141	H	1.014983	0.738784	-0.507957
H142	H	1.514983	1.238784	-0.007957
H143	H	0.707335	0.211796	-0.248995
H144	H	1.207335	0.711796	0.251005
O145	O	0.840475	0.244861	-0.287687
O146	O	1.340475	0.744861	0.212313
H147	H	0.904450	0.252406	-0.296517
H148	H	1.404450	0.752406	0.203483
O149	O	0.977232	0.199887	-0.976662
O150	O	1.477232	0.699887	-0.476662
H151	H	0.985373	0.207422	-1.041357
H152	H	1.485373	0.707422	-0.541357
H153	H	0.821183	0.419915	-0.492538
H154	H	1.321183	0.919915	0.007462
H155	H	0.695205	0.464893	-0.545181
H156	H	1.195205	0.964893	-0.045181
O157	O	0.533950	0.476894	-0.559019
O158	O	1.033950	0.976894	-0.059019
H159	H	0.575020	0.508197	-0.595564
H160	H	1.075020	1.008197	-0.095564
H161	H	0.423770	0.419947	-0.492605
H162	H	0.923770	0.919947	0.007395
O163	O	1.218680	0.596000	-0.304467
O164	O	1.718680	1.096000	0.195533
H165	H	1.252055	0.633825	-0.271181
H166	H	1.752055	1.133825	0.228819
H167	H	1.060240	0.850439	-0.462830
H168	H	1.560240	1.350439	0.037170
H169	H	1.213862	0.419679	-1.100086
H170	H	1.713862	0.919679	-0.600086
O171	O	1.211409	0.748466	-0.311815
O172	O	1.711409	1.248466	0.188185
H173	H	1.248374	0.710638	-0.274866
H174	H	1.748374	1.210638	0.225134
O175	O	1.250937	0.927493	-0.272479
O176	O	1.750937	1.427493	0.227521
H177	H	1.284313	0.965316	-0.239191
H178	H	1.784313	1.465316	0.260809
O179	O	0.421233	0.244899	-0.287751
O180	O	0.921233	0.744899	0.212249
H181	H	0.439747	0.189786	-0.298765
H182	H	0.939747	0.689786	0.201235
H183	H	1.021319	0.605708	-0.501541
H184	H	1.521319	1.105708	-0.001541
H185	H	1.262196	0.464632	-0.978412
H186	H	1.762196	0.964632	-0.478412
H187	H	1.038389	0.256677	-1.092300
H188	H	1.538389	0.756677	-0.592300
O189	O	1.274978	0.476526	-0.818300
O190	O	1.774978	0.976526	-0.318300
H191	H	1.308624	0.507747	-0.862362
H192	H	1.808624	1.007747	-0.362362
H193	H	1.230759	1.070270	-0.292703
H194	H	1.730759	1.570270	0.207297
H195	H	1.047239	1.070276	-0.475975
H196	H	1.547239	1.570276	0.024025
H197	H	1.053574	0.937209	-0.469550
H198	H	1.553574	1.437209	0.030450
O199	O	1.025516	0.244882	-0.683409
O200	O	1.525516	0.744882	-0.183409
H201	H	1.033629	0.252438	-0.619434
H202	H	1.533629	0.752438	-0.119434
H203	H	1.191846	0.825544	-0.331420
H204	H	1.691846	1.325544	0.168580
O205	O	1.226570	0.431637	-0.692333
O206	O	1.726570	0.931637	-0.192333
H207	H	1.218430	0.424106	-0.627638
H208	H	1.718430	0.924106	-0.127638
H209	H	0.989962	0.211813	-0.816552
H210	H	1.489962	0.711813	-0.316552
