data_functionalizedCrystal
_audit_creation_method	'MofGen! by Chris Wilmer'
_symmetry_space_group_name_H-M	'P1'
_symmetry_Int_Tables_number	1
_symmetry_cell_setting	triclinic
loop_
_symmetry_equiv_pos_as_xyz
  x,y,z
_cell_length_a	6.817900
_cell_length_b	12.200722
_cell_length_c	14.858572
_cell_angle_alpha	93.924192
_cell_angle_beta	104.524003
_cell_angle_gamma	107.140920
loop_
_atom_site_label
_atom_site_type_symbol
_atom_site_fract_x
_atom_site_fract_y
_atom_site_fract_z
V1	V	-4.056917	-0.159435	-0.290059
V2	V	-3.723584	0.173898	0.043274
V3	V	-3.390250	0.507232	0.376607
O4	O	-4.024805	0.006919	-0.284436
O5	O	-3.691472	0.340252	0.048897
O6	O	-3.358139	0.673585	0.382230
O7	O	-4.026550	-0.315419	-0.288173
O8	O	-3.693217	0.017915	0.045160
O9	O	-3.359884	0.351248	0.378493
O10	O	-4.013309	-0.157309	-0.416520
O11	O	-3.679976	0.176025	-0.083186
O12	O	-3.346642	0.509358	0.250147
O13	O	-4.038138	-0.152286	-0.155201
O14	O	-3.704805	0.181048	0.178132
O15	O	-3.371472	0.514381	0.511465
V16	V	-4.537587	-0.139499	-0.273917
V17	V	-4.204254	0.193835	0.059416
V18	V	-3.870921	0.527168	0.392749
O19	O	-4.324433	-0.203167	-0.325468
O20	O	-3.991100	0.130166	0.007865
O21	O	-3.657766	0.463500	0.341198
O22	O	-4.720269	-0.095767	-0.238509
O23	O	-4.386935	0.237567	0.094825
O24	O	-4.053602	0.570900	0.428158
O25	O	-4.344748	0.016485	-0.275803
O26	O	-4.011414	0.349818	0.057530
O27	O	-3.678081	0.683151	0.390863
O28	O	-4.687096	-0.305852	-0.279541
O29	O	-4.353762	0.027481	0.053793
O30	O	-4.020429	0.360814	0.387126
O31	O	-4.673763	-0.146648	-0.408775
O32	O	-4.340430	0.186685	-0.075442
O33	O	-4.007096	0.520019	0.257891
O34	O	-4.357989	-0.141625	-0.147457
O35	O	-4.024656	0.191708	0.185876
O36	O	-3.691322	0.525041	0.519210
C37	C	-3.875783	-0.353434	-0.283623
C38	C	-3.542450	-0.020100	0.049711
C39	C	-3.209116	0.313233	0.383044
C40	C	-3.932273	-0.480954	-0.282924
C41	C	-3.598940	-0.147621	0.050410
C42	C	-3.265607	0.185712	0.383743
C43	C	-3.978143	-0.584514	-0.282347
C44	C	-3.644810	-0.251180	0.050986
C45	C	-3.311476	0.082153	0.384320
C46	C	-4.035709	-0.714434	-0.281629
C47	C	-3.702375	-0.381101	0.051705
C48	C	-3.369042	-0.047768	0.385038
C49	C	-3.858891	-0.151747	-0.447340
C50	C	-3.525558	0.181586	-0.114007
C51	C	-3.192225	0.514919	0.219327
C52	C	-3.904640	-0.151041	-0.550723
C53	C	-3.571306	0.182292	-0.217389
C54	C	-3.237973	0.515626	0.115944
C55	C	-4.072081	-0.148459	-0.929289
C56	C	-3.738747	0.184875	-0.595956
C57	C	-3.405414	0.518208	-0.262623
C58	C	-4.025485	-0.149177	-0.823960
C59	C	-3.692152	0.184156	-0.490627
C60	C	-3.358818	0.517489	-0.157294
C61	C	-3.988362	-0.149751	-0.740009
C62	C	-3.655028	0.183582	-0.406676
C63	C	-3.321695	0.516916	-0.073343
C64	C	-3.941763	-0.150467	-0.634674
C65	C	-3.608430	0.182866	-0.301340
C66	C	-3.275096	0.516199	0.031993
C67	C	-4.158857	0.054494	-0.280351
C68	C	-3.825524	0.387827	0.052982
C69	C	-3.492191	0.721161	0.386315
C70	C	-4.081606	0.182013	-0.281057
C71	C	-3.748272	0.515347	0.052277
C72	C	-3.414939	0.848680	0.385610
C73	C	-4.175749	-0.147190	-0.116632
C74	C	-3.842416	0.186143	0.216702
C75	C	-3.509082	0.519476	0.550035
C76	C	-4.109238	-0.147891	-0.013248
C77	C	-3.775905	0.185442	0.320085
C78	C	-3.442572	0.518776	0.653418
