data_functionalizedCrystal
_audit_creation_method	'MofGen! by Chris Wilmer'
_symmetry_space_group_name_H-M	'P1'
_symmetry_Int_Tables_number	1
_symmetry_cell_setting	triclinic
loop_
_symmetry_equiv_pos_as_xyz
  x,y,z
_cell_length_a	16.625545
_cell_length_b	17.077404
_cell_length_c	17.077396
_cell_angle_alpha	89.980499
_cell_angle_beta	89.971947
_cell_angle_gamma	90.024262
loop_
_atom_site_label
_atom_site_type_symbol
_atom_site_fract_x
_atom_site_fract_y
_atom_site_fract_z
Zn1	Zn	0.320997	-1.200048	0.443845
Zn2	Zn	0.570997	-0.950048	0.693845
Zn3	Zn	0.820997	-0.700048	0.943845
Zn4	Zn	1.070997	-0.450048	1.193845
Zn5	Zn	0.455839	-1.199953	0.312580
Zn6	Zn	0.705839	-0.949953	0.562580
Zn7	Zn	0.955839	-0.699953	0.812580
Zn8	Zn	1.205839	-0.449953	1.062580
Zn9	Zn	0.321025	-1.068780	0.312593
Zn10	Zn	0.571025	-0.818780	0.562593
Zn11	Zn	0.821025	-0.568780	0.812593
Zn12	Zn	1.071025	-0.318780	1.062593
Zn13	Zn	0.455792	-1.068746	0.443804
Zn14	Zn	0.705792	-0.818746	0.693804
Zn15	Zn	0.955792	-0.568746	0.943804
Zn16	Zn	1.205792	-0.318746	1.193804
O17	O	0.388413	-1.134382	0.378205
O18	O	0.638413	-0.884382	0.628205
O19	O	0.888413	-0.634382	0.878205
O20	O	1.138413	-0.384382	1.128205
O21	O	0.338892	-1.309883	0.426444
O22	O	0.588892	-1.059883	0.676444
O23	O	0.838892	-0.809883	0.926444
O24	O	1.088892	-0.559883	1.176444
O25	O	0.437988	-1.182527	0.202735
O26	O	0.687988	-0.932527	0.452735
O27	O	0.937988	-0.682527	0.702735
O28	O	1.187988	-0.432527	0.952735
O29	O	0.208189	-1.086248	0.330027
O30	O	0.458189	-0.836248	0.580027
O31	O	0.708189	-0.586248	0.830027
O32	O	0.958189	-0.336248	1.080027
O33	O	0.437960	-1.309812	0.330005
O34	O	0.687960	-1.059812	0.580005
O35	O	0.937960	-0.809812	0.830005
O36	O	1.187960	-0.559812	1.080005
O37	O	0.208168	-1.182690	0.426457
O38	O	0.458168	-0.932690	0.676457
O39	O	0.708168	-0.682690	0.926457
O40	O	0.958168	-0.432690	1.176457
O41	O	0.338940	-1.086155	0.202744
O42	O	0.588940	-0.836155	0.452744
O43	O	0.838940	-0.586155	0.702744
O44	O	1.088940	-0.336155	0.952744
O45	O	0.338894	-0.958929	0.329986
O46	O	0.588894	-0.708929	0.579986
O47	O	0.838894	-0.458929	0.829986
O48	O	1.088894	-0.208929	1.079986
O49	O	0.437879	-1.086189	0.553656
O50	O	0.687879	-0.836189	0.803656
O51	O	0.937879	-0.586189	1.053656
O52	O	1.187879	-0.336189	1.303656
O53	O	0.437906	-0.958903	0.426386
O54	O	0.687906	-0.708903	0.676386
O55	O	0.937906	-0.458903	0.926386
O56	O	1.187906	-0.208903	1.176386
O57	O	0.338846	-1.182656	0.553687
O58	O	0.588846	-0.932656	0.803687
O59	O	0.838846	-0.682656	1.053687
O60	O	1.088846	-0.432656	1.303687
O61	O	0.568666	-1.182493	0.329964
O62	O	0.818666	-0.932493	0.579964
O63	O	1.068666	-0.682493	0.829964
O64	O	1.318666	-0.432493	1.079964
O65	O	0.568630	-1.086096	0.426374
O66	O	0.818630	-0.836096	0.676374
O67	O	1.068630	-0.586096	0.926374
O68	O	1.318630	-0.336096	1.176374
C69	C	0.597904	-1.134302	0.378180
C70	C	0.847904	-0.884302	0.628180
C71	C	1.097904	-0.634302	0.878180
C72	C	1.347904	-0.384302	1.128180
C73	C	0.687525	-1.134339	0.378196
C74	C	0.937525	-0.884339	0.628196
C75	C	1.187525	-0.634339	0.878196
C76	C	1.437525	-0.384339	1.128196
C77	C	0.388399	-0.930434	0.378184
C78	C	0.638399	-0.680434	0.628184
C79	C	0.888399	-0.430434	0.878184
C80	C	1.138399	-0.180434	1.128184
C81	C	0.388412	-0.843184	0.378193
C82	C	0.638412	-0.593184	0.628193
C83	C	0.888412	-0.343184	0.878193
C84	C	1.138412	-0.093184	1.128193
C85	C	0.388354	-1.134429	0.582950
C86	C	0.638354	-0.884429	0.832950
C87	C	0.888354	-0.634429	1.082950
C88	C	1.138354	-0.384429	1.332950
C89	C	0.388329	-1.134449	0.670200
C90	C	0.638329	-0.884449	0.920200
C91	C	0.888329	-0.634449	1.170200
C92	C	1.138329	-0.384449	1.420200
C93	C	1.015701	-1.134468	0.378290
C94	C	1.265701	-0.884468	0.628290
C95	C	1.515701	-0.634468	0.878290
C96	C	1.765701	-0.384468	1.128290
C97	C	0.924392	-1.134429	0.378266
C98	C	1.174392	-0.884429	0.628266
C99	C	1.424392	-0.634429	0.878266
C100	C	1.674392	-0.384429	1.128266
C101	C	0.851616	-1.134403	0.378242
C102	C	1.101616	-0.884403	0.628242
C103	C	1.351616	-0.634403	0.878242
C104	C	1.601616	-0.384403	1.128242
C105	C	0.760302	-1.134366	0.378219
C106	C	1.010302	-0.884366	0.628219
C107	C	1.260302	-0.634366	0.878219
C108	C	1.510302	-0.384366	1.128219
C109	C	1.178104	-1.134477	0.378257
C110	C	1.428104	-0.884477	0.628257
C111	C	1.678104	-0.634477	0.878257
C112	C	1.928104	-0.384477	1.128257
C113	C	1.088483	-1.134500	0.378303
C114	C	1.338483	-0.884500	0.628303
C115	C	1.588483	-0.634500	0.878303
C116	C	1.838483	-0.384500	1.128303
C117	C	0.388428	-1.339126	0.378228
C118	C	0.638428	-1.089126	0.628228
C119	C	0.888428	-0.839126	0.878228
C120	C	1.138428	-0.589126	1.128228
C121	C	0.388435	-1.426376	0.378237
C122	C	0.638435	-1.176376	0.628237
C123	C	0.888435	-0.926376	0.878237
C124	C	1.138435	-0.676376	1.128237
C125	C	0.440045	-0.802201	0.428308
C126	C	0.690045	-0.552201	0.678308
C127	C	0.940045	-0.302201	0.928308
C128	C	1.190045	-0.052201	1.178308
C129	C	0.440047	-0.720221	0.428321
C130	C	0.690047	-0.470221	0.678321
C131	C	0.940047	-0.220221	0.928321
C132	C	1.190047	0.029779	1.178321
C133	C	0.388419	-0.679225	0.378214
C134	C	0.638419	-0.429225	0.628214
C135	C	0.888419	-0.179225	0.878214
C136	C	1.138419	0.070775	1.128214
C137	C	0.336780	-0.720213	0.328097
C138	C	0.586780	-0.470213	0.578097
C139	C	0.836780	-0.220213	0.828097
C140	C	1.086780	0.029787	1.078097
C141	C	0.336774	-0.802192	0.328089
C142	C	0.586774	-0.552192	0.578089
C143	C	0.836774	-0.302192	0.828089
C144	C	1.086774	-0.052192	1.078089
C145	C	0.336795	-0.549343	0.328115
C146	C	0.586795	-0.299343	0.578115
C147	C	0.836795	-0.049343	0.828115
C148	C	1.086795	0.200657	1.078115
C149	C	0.336801	-0.467359	0.328122
C150	C	0.586801	-0.217359	0.578122
C151	C	0.836801	0.032641	0.828122
C152	C	1.086801	0.282641	1.078122
C153	C	0.440068	-0.467372	0.428347
C154	C	0.690068	-0.217372	0.678347
C155	C	0.940068	0.032628	0.928347
C156	C	1.190068	0.282628	1.178347
C157	C	0.440063	-0.549351	0.428339
C158	C	0.690063	-0.299351	0.678339
C159	C	0.940063	-0.049351	0.928339
C160	C	1.190063	0.200649	1.178339
C161	C	0.388425	-0.590334	0.378221
C162	C	0.638425	-0.340334	0.628221
C163	C	0.888425	-0.090334	0.878221
C164	C	1.138425	0.159666	1.128221
C165	C	0.388414	-1.134380	0.174258
C166	C	0.638414	-0.884380	0.424258
C167	C	0.888414	-0.634380	0.674258
C168	C	1.138414	-0.384380	0.924258
C169	C	0.388212	-1.134511	0.087008
C170	C	0.638212	-0.884511	0.337008
C171	C	0.888212	-0.634511	0.587008
C172	C	1.138212	-0.384511	0.837008
C173	C	0.336758	-1.184682	0.711207
C174	C	0.586758	-0.934682	0.961207
C175	C	0.836758	-0.684682	1.211207
C176	C	1.086758	-0.434682	1.461207
C177	C	0.336731	-1.184691	0.793187
C178	C	0.586731	-0.934691	1.043187
C179	C	0.836731	-0.684691	1.293187
C180	C	1.086731	-0.434691	1.543187
C181	C	0.388280	-1.134472	0.834159
C182	C	0.638280	-0.884472	1.084159
C183	C	0.888280	-0.634472	1.334159
C184	C	1.138280	-0.384472	1.584159
C185	C	0.439853	-1.084234	0.793146
C186	C	0.689853	-0.834234	1.043146
C187	C	0.939853	-0.584234	1.293146
C188	C	1.189853	-0.334234	1.543146
C189	C	0.439875	-1.084221	0.711167
C190	C	0.689875	-0.834221	0.961167
C191	C	0.939875	-0.584221	1.211167
C192	C	1.189875	-0.334221	1.461167
C193	C	0.439804	-1.084265	0.964016
C194	C	0.689804	-0.834265	1.214016
C195	C	0.939804	-0.584265	1.464016
C196	C	1.189804	-0.334265	1.714016
C197	C	0.439783	-1.084279	1.046001
C198	C	0.689783	-0.834279	1.296001
C199	C	0.939783	-0.584279	1.546001
C200	C	1.189783	-0.334279	1.796001
C201	C	0.336660	-1.184736	1.046037
C202	C	0.586660	-0.934736	1.296037
C203	C	0.836660	-0.684736	1.546037
C204	C	1.086660	-0.434736	1.796037
C205	C	0.336682	-1.184723	0.964058
C206	C	0.586682	-0.934723	1.214058
C207	C	0.836682	-0.684723	1.464058
C208	C	1.086682	-0.434723	1.714058
C209	C	0.388257	-1.134486	0.923050
C210	C	0.638257	-0.884486	1.173050
C211	C	0.888257	-0.634486	1.423050
C212	C	1.138257	-0.384486	1.673050
H213	H	0.482090	-0.835574	0.469108
H214	H	0.732090	-0.585574	0.719108
H215	H	0.982090	-0.335574	0.969108
H216	H	1.232090	-0.085574	1.219108
H217	H	0.482093	-0.686856	0.469128
H218	H	0.732093	-0.436856	0.719128
H219	H	0.982093	-0.186856	0.969128
H220	H	1.232093	0.063144	1.219128
H221	H	0.294739	-1.225598	0.826572
H222	H	0.544739	-0.975598	1.076572
H223	H	0.794739	-0.725598	1.326572
H224	H	1.044739	-0.475598	1.576572
H225	H	0.481789	-1.043344	0.930631
H226	H	0.731789	-0.793344	1.180631
H227	H	0.981789	-0.543344	1.430631
H228	H	1.231789	-0.293344	1.680631
H229	H	0.294725	-0.835559	0.287284
H230	H	0.544725	-0.585559	0.537284
H231	H	0.794725	-0.335559	0.787284
H232	H	1.044725	-0.085559	1.037284
H233	H	0.481861	-1.043308	0.677780
H234	H	0.731861	-0.793308	0.927780
H235	H	0.981861	-0.543308	1.177780
H236	H	1.231861	-0.293308	1.427780
H237	H	0.482108	-0.582728	0.469137
H238	H	0.732108	-0.332728	0.719137
H239	H	0.982108	-0.082728	0.969137
H240	H	1.232108	0.167272	1.219137
H241	H	0.294665	-1.225640	1.079429
H242	H	0.544665	-0.975640	1.329429
H243	H	0.794665	-0.725640	1.579429
H244	H	1.044665	-0.475640	1.829429
H245	H	0.294783	-1.225579	0.677854
H246	H	0.544783	-0.975579	0.927854
H247	H	0.794783	-0.725579	1.177854
H248	H	1.044783	-0.475579	1.427854
H249	H	0.294739	-0.582709	0.287311
H250	H	0.544739	-0.332709	0.537311
H251	H	0.794739	-0.082709	0.787311
H252	H	1.044739	0.167291	1.037311
H253	H	0.481757	-1.043384	1.079358
H254	H	0.731757	-0.793384	1.329358
H255	H	0.981757	-0.543384	1.579358
H256	H	1.231757	-0.293384	1.829358
H257	H	0.481822	-1.043341	0.826512
H258	H	0.731822	-0.793341	1.076512
H259	H	0.981822	-0.543341	1.326512
H260	H	1.231822	-0.293341	1.576512
H261	H	0.482112	-0.433999	0.469158
H262	H	0.732112	-0.183999	0.719158
H263	H	0.982112	0.066001	0.969158
H264	H	1.232112	0.316001	1.219158
H265	H	0.294752	-0.433982	0.287330
H266	H	0.544752	-0.183982	0.537330
H267	H	0.794752	0.066018	0.787330
H268	H	1.044752	0.316018	1.037330
H269	H	0.294739	-0.686828	0.287302
H270	H	0.544739	-0.436828	0.537302
H271	H	0.794739	-0.186828	0.787302
H272	H	1.044739	0.063172	1.037302
H273	H	0.294711	-1.225621	0.930701
H274	H	0.544711	-0.975621	1.180701
H275	H	0.794711	-0.725621	1.430701
H276	H	1.044711	-0.475621	1.680701
