data_functionalizedCrystal
_audit_creation_method	'MofGen! by Chris Wilmer'
_symmetry_space_group_name_H-M	'P1'
_symmetry_Int_Tables_number	1
_symmetry_cell_setting	triclinic
loop_
_symmetry_equiv_pos_as_xyz
  x,y,z
_cell_length_a	17.699083
_cell_length_b	15.944551
_cell_length_c	16.776229
_cell_angle_alpha	89.992397
_cell_angle_beta	89.998886
_cell_angle_gamma	83.390877
loop_
_atom_site_label
_atom_site_type_symbol
_atom_site_fract_x
_atom_site_fract_y
_atom_site_fract_z
O1	O	1.004260	0.106222	-0.066178
O2	O	0.783905	0.120042	-0.066204
O3	O	0.900100	-0.009156	-0.066183
O4	O	0.888065	0.235419	-0.066199
O5	O	0.900084	-0.009164	0.066393
O6	O	0.783890	0.120034	0.066372
O7	O	1.004244	0.106214	0.066398
Zn8	Zn	0.894065	0.113123	0.087435
Zn9	Zn	0.894085	0.113133	-0.087241
O10	O	0.888050	0.235411	0.066377
C11	C	0.755700	0.119542	0.000080
C12	C	0.671679	0.118057	0.000071
C13	C	0.899593	-0.040453	0.000105
C14	C	0.898095	-0.133696	0.000105
C15	C	0.623187	0.193893	0.000066
C16	C	0.544242	0.192492	0.000076
C17	C	0.513789	0.115254	0.000086
C18	C	0.562287	0.039412	0.000093
C19	C	0.641231	0.040814	0.000088
C20	C	0.243914	0.033758	0.000113
C21	C	0.164964	0.032362	0.000115
C22	C	0.146925	0.185436	0.000101
C23	C	0.225869	0.186837	0.000096
C24	C	0.274360	0.110996	0.000108
C25	C	0.359962	0.112516	0.000098
C26	C	0.428189	0.113733	0.000090
C27	C	0.822492	-0.348393	0.000085
C28	C	0.857592	-0.409488	0.065458
C29	C	0.895385	-0.304416	0.000099
C30	C	0.857624	-0.409464	-0.065252
C31	C	0.892762	-0.469323	0.000089
C32	C	0.930505	-0.364283	0.065525
C33	C	0.930527	-0.364252	-0.065244
C34	C	0.965680	-0.425329	0.000145
C35	C	0.896894	-0.209417	0.000105
C36	C	0.891259	-0.564321	0.000089
C37	C	1.032450	0.106713	0.000112
C38	C	1.116471	0.108199	0.000116
C39	C	0.888557	0.266708	0.000087
C40	C	0.890055	0.359951	0.000082
N41	N	0.894056	0.113115	0.206646
N42	N	0.894099	0.113134	-0.206452
C43	C	0.945523	0.055930	0.248372
C44	C	0.945527	0.055929	0.331824
C45	C	0.894068	0.113118	0.373549
C46	C	0.842595	0.170306	0.331816
C47	C	0.842588	0.170302	0.248366
C48	C	0.842623	0.170323	0.668364
C49	C	0.842636	0.170324	0.751820
C50	C	0.945562	0.055949	0.751822
C51	C	0.945555	0.055945	0.668372
C52	C	0.894080	0.113130	0.626647
C53	C	0.894075	0.113129	0.536158
C54	C	0.894076	0.113124	0.464036
H55	H	0.504763	0.254246	0.000072
O56	O	1.037935	-0.465010	0.000335
C57	C	1.076070	-0.441963	0.069339
H58	H	1.032613	-0.419969	0.117286
H59	H	1.111313	-0.388549	0.054371
C60	C	1.182198	-0.545666	0.041274
C61	C	1.128823	-0.518659	0.100167
H62	H	1.214741	-0.592973	0.060289
H63	H	1.156507	-0.561191	-0.005217
H64	H	1.211559	-0.501147	0.028807
H65	H	1.099456	-0.563174	0.112626
H66	H	1.154509	-0.503143	0.146661
H67	H	0.987430	0.009363	0.214406
H68	H	0.800712	0.216886	0.634398
H69	H	0.987435	0.009364	0.365798
O70	O	0.820734	-0.433501	0.131298
C71	C	0.757621	-0.474081	0.107826
H72	H	0.767147	-0.499988	0.044844
H73	H	0.704125	-0.426861	0.109074
C74	C	0.736379	-0.515376	0.242937
C75	C	0.748081	-0.547202	0.165583
H76	H	0.730491	-0.560479	0.278566
H77	H	0.778897	-0.488034	0.258752
H78	H	0.691799	-0.476027	0.243966
H79	H	0.792665	-0.586542	0.164554
H80	H	0.705570	-0.574553	0.149770
O81	O	0.291119	-0.039834	0.000147
C82	C	0.367329	-0.022043	0.000121
H83	H	0.370364	0.043921	0.025221
H84	H	0.390154	-0.025265	-0.063485
C85	C	0.411915	-0.168385	0.021278
C86	C	0.415643	-0.087369	0.052113
H87	H	0.441719	-0.208682	0.053346
H88	H	0.360571	-0.180372	0.021292
H89	H	0.430935	-0.171057	-0.031727
H90	H	0.396615	-0.084694	0.105112
H91	H	0.466985	-0.075383	0.052109
O92	O	0.792680	0.225828	0.372468
C93	C	0.803710	0.213559	0.455072
H94	H	0.863882	0.182082	0.466468
H95	H	0.760876	0.171491	0.478769
C96	C	0.718436	0.338165	0.483905
C97	C	0.792342	0.299511	0.497901
H98	H	0.711420	0.391183	0.510325
H99	H	0.711002	0.346430	0.428253
H100	H	0.682749	0.303099	0.503652
H101	H	0.828027	0.334571	0.478145
H102	H	0.799781	0.291254	0.553551
H103	H	0.800678	0.216867	0.214393
O104	O	0.688368	-0.032831	0.000230
C105	C	0.734588	-0.036595	0.068881
H106	H	0.705679	0.006414	0.116870
H107	H	0.791994	-0.014970	0.053353
C108	C	0.782085	-0.180842	0.041082
C109	C	0.746576	-0.128023	0.100025
H110	H	0.789484	-0.237239	0.060292
H111	H	0.750949	-0.178306	-0.005171
H112	H	0.829920	-0.162811	0.028147
H113	H	0.698739	-0.146048	0.112951
H114	H	0.777705	-0.130564	0.146281
H115	H	0.961304	-0.344360	0.120853
O116	O	0.820952	-0.433322	-0.131269
C117	C	0.858743	-0.409124	-0.200075
H118	H	0.920348	-0.401625	-0.184720
H119	H	0.829172	-0.346542	-0.223191
C120	C	0.781086	-0.486571	-0.283610
C121	C	0.856753	-0.477368	-0.264753
H122	H	0.779856	-0.528664	-0.323509
H123	H	0.755623	-0.502871	-0.237255
H124	H	0.756452	-0.434415	-0.302869
H125	H	0.881383	-0.529521	-0.245485
H126	H	0.882220	-0.461078	-0.311107
H127	H	0.107434	0.247189	0.000096
H128	H	0.761987	-0.314958	0.000143
O129	O	0.967183	-0.340185	-0.131190
C130	C	0.917406	-0.282980	-0.175994
H131	H	0.870722	-0.251626	-0.135481
H132	H	0.890744	-0.318386	-0.225753
C133	C	1.019453	-0.253530	-0.262202
C134	C	0.962117	-0.215015	-0.212442
H135	H	1.047032	-0.211607	-0.284688
H136	H	1.052988	-0.292072	-0.232019
H137	H	0.997225	-0.283033	-0.303661
H138	H	0.984346	-0.185521	-0.170978
H139	H	0.928586	-0.176466	-0.242619
H140	H	0.987460	0.009380	0.634402
O141	O	0.255482	0.261847	-0.000061
C142	C	0.300615	0.267230	-0.068720
H143	H	0.281943	0.223370	-0.116701
H144	H	0.362871	0.247734	-0.053200
C145	C	0.313974	0.412561	-0.040938
C146	C	0.291036	0.358697	-0.099872
H147	H	0.308069	0.468983	-0.060152
H148	H	0.283569	0.408935	0.005321
H149	H	0.365853	0.396305	-0.028010
H150	H	0.239156	0.374947	-0.112791
H151	H	0.321432	0.362328	-0.146133
O152	O	0.995630	0.000356	0.792232
C153	C	1.041034	-0.050133	0.737508
H154	H	1.041886	-0.015692	0.678019
H155	H	1.016456	-0.112496	0.728640
C156	C	1.121633	-0.109867	0.843137
C157	C	1.122685	-0.067563	0.770073
H158	H	1.171998	-0.120622	0.863225
H159	H	1.091042	-0.075854	0.880006
H160	H	1.101148	-0.161831	0.835737
H161	H	1.143160	-0.015595	0.777476
H162	H	1.153281	-0.101567	0.733206
O163	O	0.652640	0.268997	0.000091
C164	C	0.592907	0.335630	0.000071
H165	H	0.539280	0.312189	0.025175
H166	H	0.581734	0.359019	-0.063534
C167	C	0.681060	0.437277	0.021221
C168	C	0.615196	0.408489	0.052062
H169	H	0.694809	0.482222	0.053289
H170	H	0.721304	0.392386	0.021232
H171	H	0.671740	0.456762	-0.031782
H172	H	0.624519	0.388995	0.105060
H173	H	0.574954	0.453379	0.052061
O174	O	0.135507	-0.042745	0.000165
C175	C	0.195233	-0.109385	0.000155
H176	H	0.248865	-0.085953	0.025250
H177	H	0.206402	-0.132774	-0.063445
C178	C	0.107070	-0.211020	0.021337
C179	C	0.172939	-0.182241	0.052166
H180	H	0.093317	-0.255963	0.053416
H181	H	0.066830	-0.166124	0.021340
H182	H	0.116386	-0.230505	-0.031663
H183	H	0.163619	-0.162748	0.105160
H184	H	0.213177	-0.227136	0.052172
O185	O	0.792567	0.225907	0.792229
C186	C	0.747142	0.276391	0.737508
H187	H	0.746282	0.241954	0.678026
H188	H	0.771707	0.338761	0.728619
C189	C	0.666559	0.336102	0.843147
C190	C	0.665498	0.293802	0.770093
H191	H	0.616198	0.346846	0.863248
H192	H	0.697164	0.302092	0.880015
H193	H	0.687033	0.388072	0.835730
H194	H	0.645033	0.241829	0.777513
H195	H	0.634888	0.327803	0.733227
H196	H	0.537486	-0.023476	0.000112
