data_functionalizedCrystal
_audit_creation_method	'MofGen! by Chris Wilmer'
_symmetry_space_group_name_H-M	'P1'
_symmetry_Int_Tables_number	1
_symmetry_cell_setting	triclinic
loop_
_symmetry_equiv_pos_as_xyz
  x,y,z
_cell_length_a	10.654550
_cell_length_b	16.992695
_cell_length_c	9.730223
_cell_angle_alpha	89.998169
_cell_angle_beta	89.996251
_cell_angle_gamma	87.576563
loop_
_atom_site_label
_atom_site_type_symbol
_atom_site_fract_x
_atom_site_fract_y
_atom_site_fract_z
O1	O	1.677356	0.110186	-0.114405
O2	O	1.312785	0.120685	-0.114384
O3	O	1.493609	0.001285	-0.114383
O4	O	1.496532	0.229586	-0.114405
O5	O	1.493607	0.001288	0.114196
O6	O	1.312783	0.120688	0.114196
O7	O	1.677354	0.110189	0.114175
Zn8	Zn	1.495068	0.115439	0.150477
Zn9	Zn	1.495071	0.115435	-0.150686
O10	O	1.496530	0.229589	0.114174
C11	C	1.265919	0.119915	-0.000091
C12	C	1.126277	0.117609	-0.000082
C13	C	1.052866	0.187910	-0.000109
C14	C	0.921658	0.185738	-0.000132
C15	C	0.937282	0.042959	-0.000108
C16	C	1.068488	0.045131	-0.000075
C17	C	1.043844	0.270342	-0.000129
C18	C	0.912636	0.268171	-0.000152
C19	C	1.489848	-0.027947	-0.000093
C20	C	1.478628	-0.115052	-0.000093
C21	C	1.586879	-0.164704	-0.000098
C22	C	1.576330	-0.246548	-0.000111
C23	C	1.457529	-0.278738	-0.000108
C24	C	1.349270	-0.229080	-0.000107
C25	C	1.359820	-0.147237	-0.000105
C26	C	1.413802	-0.522574	-0.000124
C27	C	1.403260	-0.604422	-0.000123
C28	C	1.630321	-0.621884	-0.000129
C29	C	1.640861	-0.540040	-0.000118
C30	C	1.532602	-0.490389	-0.000124
N31	N	1.446743	-0.362396	-0.000116
N32	N	1.543389	-0.406733	-0.000126
C33	C	1.724220	0.110959	-0.000121
C34	C	1.863862	0.113265	-0.000139
C35	C	1.500291	0.258821	-0.000119
C36	C	1.511510	0.345926	-0.000128
N37	N	1.495075	0.115441	0.356014
N38	N	1.495073	0.115427	-0.356223
C39	C	1.575168	0.062589	0.427940
C40	C	1.575164	0.062580	0.571823
C41	C	1.414971	0.168281	0.571841
C42	C	1.414970	0.168286	0.427961
C43	C	1.667658	0.001565	0.427931
C44	C	1.667654	0.001556	0.571814
H45	H	1.075960	0.302583	0.095534
C46	C	1.797992	0.019363	0.623703
C47	C	1.884944	-0.038267	0.575517
C48	C	2.005019	-0.021885	0.623276
H49	H	1.798168	0.019335	0.721325
H50	H	1.820295	0.069596	0.591138
H51	H	1.862647	-0.088486	0.608089
H52	H	1.884807	-0.038249	0.477900
H53	H	2.027323	0.028348	0.590712
H54	H	2.005182	-0.021912	0.720898
H55	H	2.064032	-0.060979	0.590580
H56	H	1.081769	0.296589	-0.098819
C57	C	1.748002	-0.675660	-0.000071
C58	C	1.854299	-0.629951	-0.000043
C59	C	1.962733	-0.679462	0.000022
H60	H	1.748783	-0.707963	-0.079763
H61	H	1.748681	-0.707942	0.079669
H62	H	1.853620	-0.597683	-0.079775
H63	H	1.853560	-0.597650	0.079643
H64	H	1.963413	-0.711744	0.079762
H65	H	1.963501	-0.711762	-0.079671
H66	H	2.034868	-0.648456	0.000054
C67	C	1.147975	-0.031282	-0.000097
C68	C	1.069280	-0.095216	-0.000133
C69	C	1.142458	-0.165622	-0.000168
H70	H	1.199476	-0.033506	0.079608
H71	H	1.199486	-0.033454	-0.079824
H72	H	1.017791	-0.093044	0.079587
H73	H	1.017779	-0.093018	-0.079832
H74	H	1.193969	-0.167795	-0.079895
H75	H	1.193956	-0.167838	0.079539
H76	H	1.089075	-0.209010	-0.000205
H77	H	0.869116	0.293084	0.098529
C78	C	1.296117	-0.468805	-0.000040
C79	C	1.189824	-0.514517	0.000009
C80	C	1.081386	-0.465009	0.000111
H81	H	1.295326	-0.436495	-0.079726
H82	H	1.295445	-0.436531	0.079706
H83	H	1.190495	-0.546778	-0.079729
H84	H	1.190573	-0.546826	0.079689
H85	H	1.080713	-0.432735	0.079856
H86	H	1.080607	-0.432701	-0.079577
H87	H	1.009253	-0.496017	0.000156
H88	H	1.683620	-0.138501	-0.000092
C89	C	0.860804	0.309579	-0.127828
C90	C	0.960271	0.337078	-0.205902
C91	C	0.912573	0.375219	-0.323526
H92	H	0.806559	0.352753	-0.101444
H93	H	0.815235	0.273615	-0.181058
H94	H	1.005820	0.373040	-0.152682
H95	H	1.014524	0.293921	-0.232321
H96	H	0.867004	0.339255	-0.376756
H97	H	0.858328	0.418389	-0.297128
H98	H	0.980054	0.393875	-0.376520
H99	H	1.664480	-0.286971	-0.000112
C100	C	1.769771	-0.504990	-0.000344
C101	C	1.782454	-0.458495	-0.117925
C102	C	1.901184	-0.426189	-0.118166
H103	H	1.832844	-0.546204	-0.000422
H104	H	1.778625	-0.473384	0.079326
H105	H	1.773612	-0.490099	-0.197575
H106	H	1.719409	-0.417268	-0.117872
H107	H	1.910038	-0.394583	-0.038496
H108	H	1.964248	-0.467408	-0.118240
H109	H	1.909801	-0.394633	-0.197936
C110	C	1.327954	0.225751	0.350116
C111	C	1.257829	0.272040	0.443924
C112	C	1.177665	0.324993	0.372265
H113	H	1.272715	0.197313	0.293988
H114	H	1.376391	0.258722	0.294015
H115	H	1.209396	0.239073	0.500002
H116	H	1.313035	0.300495	0.500056
H117	H	1.226102	0.357964	0.316164
H118	H	1.122434	0.296548	0.316139
H119	H	1.130084	0.356411	0.435902
C120	C	1.327935	0.225530	0.650136
C121	C	1.246852	0.183284	0.732762
C122	C	1.166667	0.235997	0.804918
H123	H	1.280114	0.257031	0.586849
H124	H	1.376371	0.258437	0.706346
H125	H	1.198420	0.150391	0.676557
H126	H	1.294638	0.151786	0.796075
H127	H	1.215104	0.268904	0.861128
H128	H	1.118855	0.267494	0.741621
H129	H	1.111651	0.207341	0.860998
H130	H	0.890215	-0.016050	-0.000123
C131	C	1.631849	-0.078800	0.375940
C132	C	1.511861	-0.095112	0.424066
C133	C	1.478822	-0.169130	0.376189
H134	H	1.690887	-0.117921	0.408445
H135	H	1.631770	-0.078816	0.278300
H136	H	1.511949	-0.095102	0.521685
H137	H	1.452796	-0.056010	0.391565
H138	H	1.478743	-0.169146	0.278550
H139	H	1.537868	-0.208245	0.408698
H140	H	1.397404	-0.180204	0.408825
C141	C	1.791316	0.027219	0.368353
C142	C	1.769459	0.094569	0.287502
C143	C	1.883340	0.118245	0.232624
H144	H	1.827550	-0.013936	0.313294
H145	H	1.847154	0.038763	0.441043
H146	H	1.713641	0.083021	0.214822
H147	H	1.733242	0.135739	0.342530
H148	H	1.939178	0.129789	0.305314
H149	H	1.919566	0.077086	0.177571
H150	H	1.868527	0.163948	0.177771
C151	C	1.620185	-0.074349	0.631385
C152	C	1.513851	-0.057155	0.712277
C153	C	1.470080	-0.127059	0.767153
H154	H	1.683985	-0.099155	0.686417
H155	H	1.598801	-0.108622	0.558695
H156	H	1.535239	-0.022896	0.784956
H157	H	1.450026	-0.032359	0.657276
H158	H	1.448696	-0.161332	0.694464
H159	H	1.533888	-0.151861	0.822179
H160	H	1.397922	-0.115404	0.822034
H161	H	1.306513	-0.630628	-0.000099
H162	H	1.252539	-0.255296	-0.000114
H163	H	1.271671	-0.106811	-0.000101
