data_functionalizedCrystal
_audit_creation_method	'MofGen! by Chris Wilmer'
_symmetry_space_group_name_H-M	'P1'
_symmetry_Int_Tables_number	1
_symmetry_cell_setting	triclinic
loop_
_symmetry_equiv_pos_as_xyz
  x,y,z
_cell_length_a	15.944551
_cell_length_b	23.532407
_cell_length_c	15.021413
_cell_angle_alpha	89.999348
_cell_angle_beta	89.997174
_cell_angle_gamma	83.173708
loop_
_atom_site_label
_atom_site_type_symbol
_atom_site_fract_x
_atom_site_fract_y
_atom_site_fract_z
O1	O	1.113910	0.073442	-0.073949
O2	O	0.869284	0.082498	-0.073972
O3	O	0.998974	-0.004933	-0.073943
O4	O	0.984220	0.160873	-0.073977
O5	O	0.998953	-0.004921	0.074121
O6	O	0.869263	0.082510	0.074092
O7	O	1.113889	0.073455	0.074116
Zn8	Zn	0.991573	0.077985	0.097612
Zn9	Zn	0.991600	0.077968	-0.097469
O10	O	0.984200	0.160886	0.074087
C11	C	0.837983	0.082128	0.000057
C12	C	0.744746	0.081001	0.000049
C13	C	0.998588	-0.026144	0.000091
C14	C	0.997458	-0.089366	0.000098
C15	C	0.530369	0.024113	0.000078
C16	C	0.469137	0.050524	-0.072931
C17	C	0.574038	0.078962	0.000060
C18	C	0.469138	0.050549	0.073049
C19	C	0.409142	0.076989	0.000075
C20	C	0.514033	0.105388	-0.073009
C21	C	0.514041	0.105405	0.073036
C22	C	0.452826	0.131856	0.000010
C23	C	0.669030	0.080097	0.000051
C24	C	0.314150	0.075858	0.000077
C25	C	1.067121	-0.488199	0.000056
C26	C	1.066072	-0.547603	0.000049
O27	O	1.130650	-0.584098	0.000022
N28	N	0.988971	-0.570528	0.000042
C29	C	0.912915	-0.534045	0.000033
O30	O	0.847239	-0.558999	0.000026
C31	C	0.913965	-0.474642	0.000034
C32	C	0.991071	-0.451721	0.000049
C33	C	1.144220	-0.465277	0.000070
C34	C	1.145269	-0.405877	0.000079
C35	C	1.069219	-0.369399	0.000073
C36	C	0.992120	-0.392320	0.000058
C37	C	0.837910	-0.438160	0.000018
C38	C	0.838967	-0.378754	0.000018
C39	C	0.916072	-0.355832	0.000034
C40	C	0.917118	-0.296442	0.000060
N41	N	0.994219	-0.273517	0.000067
C42	C	1.070269	-0.309995	0.000073
C43	C	0.910716	-0.658796	0.000031
C44	C	0.909664	-0.718198	0.000037
C45	C	1.062821	-0.731752	0.000050
C46	C	1.063872	-0.672349	0.000051
C47	C	0.987816	-0.635871	0.000037
C48	C	1.072466	-0.185250	0.000092
C49	C	1.073508	-0.125844	0.000104
C50	C	0.920352	-0.112295	0.000085
C51	C	0.919309	-0.171696	0.000078
C52	C	0.995373	-0.208173	0.000078
O53	O	0.852574	-0.259913	0.000083
O54	O	1.135935	-0.285033	0.000069
C55	C	1.145190	0.073824	0.000084
C56	C	1.238427	0.074951	0.000087
C57	C	0.984586	0.182097	0.000051
C58	C	0.985715	0.245318	0.000038
N59	N	0.991561	0.077995	0.230750
N60	N	0.991619	0.077953	-0.230606
C61	C	0.931583	0.118404	0.470420
C62	C	1.007390	0.129461	0.529759
C63	C	0.991582	0.077981	0.412357
C64	C	0.915796	0.066938	0.529760
C65	C	0.991596	0.077969	0.587781
C66	C	1.067428	0.089063	0.470389
C67	C	0.975783	0.026518	0.470385
C68	C	1.051645	0.037552	0.529697
C69	C	0.991573	0.077990	0.311300
C70	C	0.991614	0.077960	0.688836
H71	H	0.449230	0.027320	-0.134645
C72	C	1.156136	-0.225369	0.000099
C73	C	1.176468	-0.268072	0.076984
C74	C	1.260137	-0.308191	0.076998
C75	C	1.323473	-0.305606	0.000126
C76	C	1.303141	-0.262900	-0.076765
C77	C	1.219473	-0.222782	-0.076779
H78	H	1.129582	-0.269987	0.133894
H79	H	1.275187	-0.339804	0.133918
H80	H	1.385409	-0.335304	0.000136
H81	H	1.350028	-0.260985	-0.133675
H82	H	1.204423	-0.191169	-0.133699
H83	H	0.533834	0.128564	-0.134800
H84	H	0.858434	-0.082584	0.000084
H85	H	0.962383	-0.016985	0.444284
C86	C	0.863108	0.164619	0.435247
C87	C	0.850034	0.172768	0.334272
C88	C	0.781565	0.218984	0.299098
C89	C	0.726170	0.257050	0.364898
C90	C	0.739242	0.248902	0.465879
C91	C	0.807712	0.202687	0.501054
H92	H	0.891042	0.144588	0.285557
H93	H	0.771888	0.225015	0.224344
H94	H	0.675484	0.291261	0.338859
H95	H	0.698234	0.277082	0.514594
H96	H	0.817388	0.196656	0.575807
C97	C	0.407503	0.193411	-0.000060
C98	C	0.422626	0.234574	0.076406
C99	C	0.377301	0.296128	0.076328
C100	C	0.316852	0.316518	-0.000215
C101	C	0.301726	0.275354	-0.076687
C102	C	0.347051	0.213801	-0.076609
H103	H	0.467377	0.219480	0.133073
H104	H	0.388499	0.326600	0.132938
H105	H	0.283300	0.362084	-0.000273
H106	H	0.256976	0.290448	-0.133354
H107	H	0.335854	0.183329	-0.133219
C108	C	0.829207	0.054320	0.564990
C109	C	0.749046	0.094699	0.541591
C110	C	0.662455	0.082087	0.576818
C111	C	0.656026	0.029096	0.635443
C112	C	0.736190	-0.011286	0.658844
C113	C	0.822780	0.001326	0.623618
H114	H	0.753803	0.133929	0.498191
H115	H	0.603113	0.111981	0.559495
H116	H	0.591927	0.019760	0.661520
H117	H	0.731433	-0.050517	0.702245
H118	H	0.882123	-0.028569	0.640941
H119	H	1.208056	-0.387220	0.000088
C120	C	0.834498	-0.196917	0.000057
C121	C	0.812696	-0.235903	0.076921
C122	C	0.727884	-0.261121	0.076885
C123	C	0.664876	-0.247354	-0.000015
C124	C	0.686676	-0.208367	-0.076885
C125	C	0.771487	-0.183148	-0.076849
H126	H	0.859340	-0.246096	0.133853
H127	H	0.711746	-0.289983	0.133790
H128	H	0.602093	-0.266022	-0.000042
H129	H	0.640032	-0.198173	-0.133817
H130	H	0.787625	-0.154287	-0.133754
H131	H	1.020766	0.172977	0.555839
H132	H	1.102446	0.003360	0.555561
H133	H	1.131539	0.098450	0.444420
C134	C	0.540976	0.136724	0.156411
C135	C	0.474213	0.160790	0.224979
C136	C	0.501152	0.192101	0.308362
C137	C	0.594855	0.199347	0.323178
C138	C	0.661625	0.175280	0.254609
C139	C	0.634685	0.143968	0.171225
H140	H	0.404843	0.155427	0.214013
H141	H	0.451724	0.209917	0.359122
H142	H	0.614797	0.222525	0.384904
H143	H	0.730995	0.180643	0.265574
H144	H	0.684113	0.126152	0.120465
C145	C	0.575891	-0.037388	-0.000003
C146	C	0.524211	-0.088662	-0.000861
C147	C	0.569734	-0.150162	-0.000947
C148	C	0.666936	-0.160387	-0.000175
C149	C	0.718621	-0.109111	0.000683
C150	C	0.673098	-0.047612	0.000769
H151	H	0.452252	-0.081094	-0.001432
H152	H	0.531473	-0.188119	-0.001582
H153	H	0.700634	-0.205912	-0.000239
H154	H	0.790580	-0.116679	0.001254
H155	H	0.711359	-0.009654	0.001404
C156	C	0.442255	0.019208	0.156435
C157	C	0.509249	-0.005784	0.224120
C158	C	0.482370	-0.037129	0.307501
C159	C	0.388497	-0.043482	0.323197
C160	C	0.321497	-0.018489	0.255510
C161	C	0.348377	0.012856	0.172129
H162	H	0.578745	-0.001082	0.212502
H163	H	0.531968	-0.055631	0.357607
H164	H	0.368600	-0.066686	0.384920
H165	H	0.252002	-0.023191	0.267128
H166	H	0.298778	0.031358	0.122023
C167	C	1.158330	-0.100632	0.000116
C168	C	1.221352	-0.114400	0.077004
C169	C	1.306170	-0.089191	0.077014
C170	C	1.327966	-0.050214	0.000136
C171	C	1.264942	-0.036444	-0.076758
C172	C	1.180124	-0.061653	-0.076768
H173	H	1.205219	-0.143255	0.133919
H174	H	1.352825	-0.099384	0.133937
H175	H	1.390754	-0.031552	0.000143
H176	H	1.281075	-0.007589	-0.133673
H177	H	1.133469	-0.051460	-0.133690
H178	H	1.206153	-0.494973	0.000072
C179	C	1.148688	-0.647138	0.000060
C180	C	1.170468	-0.608165	0.076946
C181	C	1.255288	-0.582958	0.076953
C182	C	1.318328	-0.596724	0.000073
C183	C	1.296549	-0.635699	-0.076819
C184	C	1.211729	-0.660906	-0.076825
H185	H	1.123801	-0.597973	0.133862
H186	H	1.271410	-0.554107	0.133874
H187	H	1.381117	-0.578065	0.000078
H188	H	1.343216	-0.645891	-0.133735
H189	H	1.195607	-0.689758	-0.133746
H190	H	1.124746	-0.761464	0.000052
H191	H	0.846878	-0.736855	0.000039
C192	C	0.827047	-0.618673	0.000032
C193	C	0.763733	-0.621253	-0.076855
C194	C	0.680066	-0.581134	-0.076854
C195	C	0.659712	-0.538434	0.000033
C196	C	0.723027	-0.535852	0.076926
C197	C	0.806695	-0.575972	0.076925
H198	H	0.778799	-0.652864	-0.133776
H199	H	0.633195	-0.583046	-0.133775
H200	H	0.597776	-0.508736	0.000034
H201	H	0.707962	-0.504242	0.133848
H202	H	0.853565	-0.574060	0.133846
H203	H	0.775123	-0.456812	0.000000
H204	H	0.777032	-0.349056	0.000006
