data_functionalizedCrystal
_audit_creation_method	'MofGen! by Chris Wilmer'
_symmetry_space_group_name_H-M	'P1'
_symmetry_Int_Tables_number	1
_symmetry_cell_setting	triclinic
loop_
_symmetry_equiv_pos_as_xyz
  x,y,z
_cell_length_a	19.805407
_cell_length_b	18.101396
_cell_length_c	19.805399
_cell_angle_alpha	89.975513
_cell_angle_beta	90.017803
_cell_angle_gamma	89.965660
loop_
_atom_site_label
_atom_site_type_symbol
_atom_site_fract_x
_atom_site_fract_y
_atom_site_fract_z
Zn1	Zn	1.034686	0.294900	0.382702
Zn2	Zn	1.284686	0.544900	0.632702
Zn3	Zn	1.534686	0.794900	0.882702
Zn4	Zn	1.784686	1.044900	1.132702
Zn5	Zn	1.034580	0.418743	0.269520
Zn6	Zn	1.284580	0.668743	0.519520
Zn7	Zn	1.534580	0.918743	0.769520
Zn8	Zn	1.784580	1.168743	1.019520
Zn9	Zn	0.921500	0.294914	0.269530
Zn10	Zn	1.171500	0.544914	0.519530
Zn11	Zn	1.421500	0.794914	0.769530
Zn12	Zn	1.671500	1.044914	1.019530
Zn13	Zn	0.921443	0.418698	0.382670
Zn14	Zn	1.171443	0.668698	0.632670
Zn15	Zn	1.421443	0.918698	0.882670
Zn16	Zn	1.671443	1.168698	1.132670
O17	O	0.978052	0.356814	0.326106
O18	O	1.228052	0.606814	0.576106
O19	O	1.478052	0.856814	0.826106
O20	O	1.728052	1.106814	1.076106
O21	O	1.129388	0.311341	0.367697
O22	O	1.379388	0.561341	0.617697
O23	O	1.629388	0.811341	0.867697
O24	O	1.879388	1.061341	1.117697
O25	O	1.019559	0.402342	0.174805
O26	O	1.269559	0.652342	0.424805
O27	O	1.519559	0.902342	0.674805
O28	O	1.769559	1.152342	0.924805
O29	O	0.936583	0.191280	0.284560
O30	O	1.186583	0.441280	0.534560
O31	O	1.436583	0.691280	0.784560
O32	O	1.686583	0.941280	1.034560
O33	O	1.129310	0.402328	0.284543
O34	O	1.379310	0.652328	0.534543
O35	O	1.629310	0.902328	0.784543
O36	O	1.879310	1.152328	1.034543
O37	O	1.019740	0.191269	0.367707
O38	O	1.269740	0.441269	0.617707
O39	O	1.519740	0.691269	0.867707
O40	O	1.769740	0.941269	1.117707
O41	O	0.936480	0.311366	0.174812
O42	O	1.186480	0.561366	0.424812
O43	O	1.436480	0.811366	0.674812
O44	O	1.686480	1.061366	0.924812
O45	O	0.826776	0.311322	0.284529
O46	O	1.076776	0.561322	0.534529
O47	O	1.326776	0.811322	0.784529
O48	O	1.576776	1.061322	1.034529
O49	O	0.936485	0.402251	0.477391
O50	O	1.186485	0.652251	0.727391
O51	O	1.436485	0.902251	0.977391
O52	O	1.686485	1.152251	1.227391
O53	O	0.826734	0.402265	0.367653
O54	O	1.076734	0.652265	0.617653
O55	O	1.326734	0.902265	0.867653
O56	O	1.576734	1.152265	1.117653
O57	O	1.019684	0.311297	0.477415
O58	O	1.269684	0.561297	0.727415
O59	O	1.519684	0.811297	0.977415
O60	O	1.769684	1.061297	1.227415
O61	O	1.019503	0.522370	0.284512
O62	O	1.269503	0.772370	0.534512
O63	O	1.519503	1.022370	0.784512
O64	O	1.769503	1.272370	1.034512
O65	O	0.936382	0.522337	0.367643
O66	O	1.186382	0.772337	0.617643
O67	O	1.436382	1.022337	0.867643
O68	O	1.686382	1.272337	1.117643
C69	C	0.802196	0.356791	0.326089
C70	C	1.052196	0.606791	0.576089
C71	C	1.302196	0.856791	0.826089
C72	C	1.552196	1.106791	1.076089
C73	C	0.726964	0.356799	0.326098
C74	C	0.976964	0.606799	0.576098
C75	C	1.226964	0.856799	0.826098
C76	C	1.476964	1.106799	1.076098
C77	C	0.691661	0.309505	0.369463
C78	C	0.941661	0.559505	0.619463
C79	C	1.191661	0.809505	0.869463
C80	C	1.441661	1.059505	1.119463
C81	C	0.620973	0.309509	0.369465
C82	C	0.870973	0.559509	0.619465
C83	C	1.120973	0.809509	0.869465
C84	C	1.370973	1.059509	1.119465
C85	C	0.585589	0.356811	0.326106
C86	C	0.835589	0.606811	0.576106
C87	C	1.085589	0.856811	0.826106
C88	C	1.335589	1.106811	1.076106
C89	C	0.620896	0.404106	0.282737
C90	C	0.870896	0.654106	0.532737
C91	C	1.120896	0.904106	0.782737
C92	C	1.370896	1.154106	1.032737
C93	C	0.691584	0.404098	0.282732
C94	C	0.941584	0.654098	0.532732
C95	C	1.191584	0.904098	0.782732
C96	C	1.441584	1.154098	1.032732
C97	C	0.335823	0.404139	0.282758
C98	C	0.585823	0.654139	0.532758
C99	C	0.835823	0.904139	0.782758
C100	C	1.085823	1.154139	1.032758
C101	C	0.265131	0.404146	0.282768
C102	C	0.515131	0.654146	0.532768
C103	C	0.765131	0.904146	0.782768
C104	C	1.015131	1.154146	1.032768
C105	C	0.265212	0.309551	0.369492
C106	C	0.515212	0.559551	0.619492
C107	C	0.765212	0.809551	0.869492
C108	C	1.015212	1.059551	1.119492
C109	C	0.335899	0.309543	0.369486
C110	C	0.585899	0.559543	0.619486
C111	C	0.835899	0.809543	0.869486
C112	C	1.085899	1.059543	1.119486
C113	C	0.371201	0.356835	0.326115
C114	C	0.621201	0.606835	0.576115
C115	C	0.871201	0.856835	0.826115
C116	C	1.121201	1.106835	1.076115
C117	C	0.447850	0.356829	0.326111
C118	C	0.697850	0.606829	0.576111
C119	C	0.947850	0.856829	0.826111
C120	C	1.197850	1.106829	1.076111
C121	C	0.508941	0.356821	0.326113
C122	C	0.758941	0.606821	0.576113
C123	C	1.008941	0.856821	0.826113
C124	C	1.258941	1.106821	1.076113
C125	C	0.977943	0.549225	0.326088
C126	C	1.227943	0.799225	0.576088
C127	C	1.477943	1.049225	0.826088
C128	C	1.727943	1.299225	1.076088
C129	C	0.977959	0.631539	0.326103
C130	C	1.227959	0.881539	0.576103
C131	C	1.477959	1.131539	0.826103
C132	C	1.727959	1.381539	1.076103
C133	C	0.978079	0.930630	0.326142
C134	C	1.228079	1.180630	0.576142
C135	C	1.478079	1.430630	0.826142
C136	C	1.728079	1.680630	1.076142
C137	C	0.925906	0.899314	0.378575
C138	C	1.175906	1.149314	0.628575
C139	C	1.425906	1.399314	0.878575
C140	C	1.675906	1.649314	1.128575
C141	C	0.925666	0.813696	0.378411
C142	C	1.175666	1.063696	0.628411
C143	C	1.425666	1.313696	0.878411
C144	C	1.675666	1.563696	1.128411
C145	C	0.978019	0.782247	0.326123
C146	C	1.228019	1.032247	0.576123
C147	C	1.478019	1.282247	0.826123
C148	C	1.728019	1.532247	1.076123
C149	C	0.958706	0.813394	0.254789
C150	C	1.208706	1.063394	0.504789
C151	C	1.458706	1.313394	0.754789
C152	C	1.708706	1.563394	1.004789
C153	C	0.958361	0.899040	0.255104
C154	C	1.208361	1.149040	0.505104
C155	C	1.458361	1.399040	0.755104
C156	C	1.708361	1.649040	1.005104
C157	C	1.049683	0.898978	0.344414
C158	C	1.299683	1.148978	0.594414
C159	C	1.549683	1.398978	0.844414
C160	C	1.799683	1.648978	1.094414
C161	C	1.049270	0.813327	0.345978
C162	C	1.299270	1.063327	0.595978
C163	C	1.549270	1.313327	0.845978
C164	C	1.799270	1.563327	1.095978
C165	C	0.977987	0.698388	0.326108
C166	C	1.227987	0.948388	0.576108
C167	C	1.477987	1.198388	0.826108
C168	C	1.727987	1.448388	1.076108
C169	C	0.978110	1.014489	0.326152
C170	C	1.228110	1.264489	0.576152
C171	C	1.478110	1.514489	0.826152
C172	C	1.728110	1.764489	1.076152
C173	C	1.154595	0.356838	0.326123
C174	C	1.404595	0.606838	0.576123
C175	C	1.654595	0.856838	0.826123
C176	C	1.904595	1.106838	1.076123
C177	C	1.229827	0.356848	0.326130
C178	C	1.479827	0.606848	0.576130
C179	C	1.729827	0.856848	0.826130
C180	C	1.979827	1.106848	1.076130
C181	C	0.978090	0.356767	0.502648
C182	C	1.228090	0.606767	0.752648
C183	C	1.478090	0.856767	1.002648
C184	C	1.728090	1.106767	1.252648
C185	C	0.978106	0.356747	0.577881
C186	C	1.228106	0.606747	0.827881
C187	C	1.478106	0.856747	1.077881
C188	C	1.728106	1.106747	1.327881
C189	C	0.978156	1.163652	0.326141
C190	C	1.228156	1.413652	0.576141
C191	C	1.478156	1.663652	0.826141
C192	C	1.728156	1.913652	1.076141
C193	C	0.978140	1.081338	0.326163
C194	C	1.228140	1.331338	0.576163
C195	C	1.478140	1.581338	0.826163
C196	C	1.728140	1.831338	1.076163
C197	C	0.978053	0.356807	0.150250
C198	C	1.228053	0.606807	0.400250
C199	C	1.478053	0.856807	0.650250
C200	C	1.728053	1.106807	0.900250
C201	C	0.978168	0.356618	0.075018
C202	C	1.228168	0.606618	0.325018
C203	C	1.478168	0.856618	0.575018
C204	C	1.728168	1.106618	0.825018
C205	C	1.021429	0.309385	0.613238
C206	C	1.271429	0.559385	0.863238
C207	C	1.521429	0.809385	1.113238
C208	C	1.771429	1.059385	1.363238
C209	C	1.021436	0.309364	0.683926
C210	C	1.271436	0.559364	0.933926
C211	C	1.521436	0.809364	1.183926
C212	C	1.771436	1.059364	1.433926
C213	C	0.978123	0.356709	0.719256
C214	C	1.228123	0.606709	0.969256
C215	C	1.478123	0.856709	1.219256
C216	C	1.728123	1.106709	1.469256
C217	C	0.934796	0.404073	0.683894
C218	C	1.184796	0.654073	0.933894
C219	C	1.434796	0.904073	1.183894
C220	C	1.684796	1.154073	1.433894
C221	C	0.934786	0.404090	0.613207
C222	C	1.184786	0.654090	0.863207
C223	C	1.434786	0.904090	1.113207
C224	C	1.684786	1.154090	1.363207
C225	C	0.934834	0.404004	0.968967
C226	C	1.184834	0.654004	1.218967
C227	C	1.434834	0.904004	1.468967
C228	C	1.684834	1.154004	1.718967
C229	C	0.934849	0.403985	1.039659
C230	C	1.184849	0.653985	1.289659
C231	C	1.434849	0.903985	1.539659
C232	C	1.684849	1.153985	1.789659
C233	C	1.021484	0.309278	1.039687
C234	C	1.271484	0.559278	1.289687
C235	C	1.521484	0.809278	1.539687
C236	C	1.771484	1.059278	1.789687
C237	C	1.021474	0.309295	0.969000
C238	C	1.271474	0.559295	1.219000
C239	C	1.521474	0.809295	1.469000
C240	C	1.771474	1.059295	1.719000
C241	C	0.978145	0.356656	0.933644
C242	C	1.228145	0.606656	1.183644
C243	C	1.478145	0.856656	1.433644
C244	C	1.728145	1.106656	1.683644
C245	C	0.978137	0.356678	0.856995
C246	C	1.228137	0.606678	1.106995
C247	C	1.478137	0.856678	1.356995
C248	C	1.728137	1.106678	1.606995
C249	C	0.978134	0.356691	0.795903
C250	C	1.228134	0.606691	1.045903
C251	C	1.478134	0.856691	1.295903
C252	C	1.728134	1.106691	1.545903
H253	H	0.364557	0.442648	0.247443
H254	H	0.614557	0.692648	0.497443
H255	H	0.864557	0.942648	0.747443
H256	H	1.114557	1.192648	0.997443
H257	H	0.873154	0.920898	0.366624
H258	H	1.123154	1.170898	0.616624
H259	H	1.373154	1.420898	0.866624
H260	H	1.623154	1.670898	1.116624
H261	H	0.720466	0.270989	0.404772
H262	H	0.970466	0.520989	0.654772
H263	H	1.220466	0.770989	0.904772
H264	H	1.470466	1.020989	1.154772
H265	H	0.592232	0.271000	0.404778
H266	H	0.842232	0.521000	0.654778
H267	H	1.092232	0.771000	0.904778
H268	H	1.342232	1.021000	1.154778
F269	F	1.005870	0.926121	0.202296
F270	F	1.255870	1.176121	0.452296
F271	F	1.505870	1.426121	0.702296
F272	F	1.755870	1.676121	0.952296
F273	F	0.889947	0.925235	0.234873
F274	F	1.139947	1.175235	0.484873
F275	F	1.389947	1.425235	0.734873
F276	F	1.639947	1.675235	0.984873
F277	F	1.067533	0.258997	0.575644
F278	F	1.317533	0.508997	0.825644
F279	F	1.567533	0.758997	1.075644
F280	F	1.817533	1.008997	1.325644
F281	F	0.891019	0.785443	0.234194
F282	F	1.141019	1.035443	0.484194
F283	F	1.391019	1.285443	0.734194
F284	F	1.641019	1.535443	0.984194
F285	F	0.856298	0.786994	0.362593
F286	F	1.106298	1.036994	0.612593
F287	F	1.356298	1.286994	0.862593
F288	F	1.606298	1.536994	1.112593
H289	H	1.056746	0.270744	0.940238
H290	H	1.306746	0.520744	1.190238
H291	H	1.556746	0.770744	1.440238
H292	H	1.806746	1.020744	1.690238
H293	H	1.090203	0.791915	0.310571
H294	H	1.340203	1.041915	0.560571
H295	H	1.590203	1.291915	0.810571
H296	H	1.840203	1.541915	1.060571
F297	F	1.006817	0.786771	0.202331
F298	F	1.256817	1.036771	0.452331
F299	F	1.506817	1.286771	0.702331
F300	F	1.756817	1.536771	0.952331
H301	H	0.899527	0.442619	0.712665
H302	H	1.149527	0.692619	0.962665
H303	H	1.399527	0.942619	1.212665
H304	H	1.649527	1.192619	1.462665
H305	H	0.364706	0.271027	0.404795
H306	H	0.614706	0.521027	0.654795
H307	H	0.864706	0.771027	0.904795
H308	H	1.114706	1.021027	1.154795
H309	H	1.067287	0.920529	0.395545
H310	H	1.317287	1.170529	0.645545
H311	H	1.567287	1.420529	0.895545
H312	H	1.817287	1.670529	1.145545
H313	H	1.088555	0.919228	0.306225
H314	H	1.338555	1.169228	0.556225
H315	H	1.588555	1.419228	0.806225
H316	H	1.838555	1.669228	1.056225
H317	H	1.056715	0.270799	0.712711
H318	H	1.306715	0.520799	0.962711
H319	H	1.556715	0.770799	1.212711
H320	H	1.806715	1.020799	1.462711
F321	F	1.067598	0.258869	1.077321
F322	F	1.317598	0.508869	1.327321
F323	F	1.567598	0.758869	1.577321
F324	F	1.817598	1.008869	1.827321
H325	H	0.899575	0.442540	1.068423
H326	H	1.149575	0.692540	1.318423
H327	H	1.399575	0.942540	1.568423
H328	H	1.649575	1.192540	1.818423
F329	F	0.941535	0.926177	0.447937
F330	F	1.191535	1.176177	0.697937
F331	F	1.441535	1.426177	0.947937
F332	F	1.691535	1.676177	1.197937
F333	F	0.227636	0.259215	0.415650
F334	F	0.477636	0.509215	0.665650
F335	F	0.727636	0.759215	0.915650
F336	F	0.977636	1.009215	1.165650
H337	H	0.899562	0.442579	0.940189
H338	H	1.149562	0.692579	1.190189
H339	H	1.399562	0.942579	1.440189
H340	H	1.649562	1.192579	1.690189
H341	H	0.236323	0.442666	0.247458
H342	H	0.486323	0.692666	0.497458
H343	H	0.736323	0.942666	0.747458
H344	H	0.986323	1.192666	0.997458
F345	F	0.583236	0.454444	0.236588
F346	F	0.833236	0.704444	0.486588
F347	F	1.083236	0.954444	0.736588
F348	F	1.333236	1.204444	0.986588
F349	F	0.729155	0.454435	0.236578
F350	F	0.979155	0.704435	0.486578
F351	F	1.229155	0.954435	0.736578
F352	F	1.479155	1.204435	0.986578
F353	F	0.941458	0.786166	0.447546
F354	F	1.191458	1.036166	0.697546
F355	F	1.441458	1.286166	0.947546
F356	F	1.691458	1.536166	1.197546
F357	F	1.068309	0.786716	0.414596
F358	F	1.318309	1.036716	0.664596
F359	F	1.568309	1.286716	0.914596
F360	F	1.818309	1.536716	1.164596
F361	F	0.888674	0.454498	0.575577
F362	F	1.138674	0.704498	0.825577
F363	F	1.388674	0.954498	1.075577
F364	F	1.638674	1.204498	1.325577
