data_functionalizedCrystal
_audit_creation_method	'MofGen! by Chris Wilmer'
_symmetry_space_group_name_H-M	'P1'
_symmetry_Int_Tables_number	1
_symmetry_cell_setting	triclinic
loop_
_symmetry_equiv_pos_as_xyz
  x,y,z
_cell_length_a	18.215407
_cell_length_b	18.215405
_cell_length_c	18.215399
_cell_angle_alpha	90.030551
_cell_angle_beta	90.019833
_cell_angle_gamma	90.025333
loop_
_atom_site_label
_atom_site_type_symbol
_atom_site_fract_x
_atom_site_fract_y
_atom_site_fract_z
Zn1	Zn	-1.125072	0.292983	-0.416103
Zn2	Zn	-0.875072	0.542983	-0.166103
Zn3	Zn	-0.625072	0.792983	0.083897
Zn4	Zn	-0.375072	1.042983	0.333897
Zn5	Zn	-1.124980	0.416054	-0.293031
Zn6	Zn	-0.874980	0.666054	-0.043031
Zn7	Zn	-0.624980	0.916054	0.206969
Zn8	Zn	-0.374980	1.166054	0.456969
Zn9	Zn	-1.002005	0.293007	-0.293050
Zn10	Zn	-0.752005	0.543007	-0.043050
Zn11	Zn	-0.502005	0.793007	0.206950
Zn12	Zn	-0.252005	1.043007	0.456950
Zn13	Zn	-1.001970	0.416013	-0.416056
Zn14	Zn	-0.751970	0.666013	-0.166056
Zn15	Zn	-0.501970	0.916013	0.083944
Zn16	Zn	-0.251970	1.166013	0.333944
O17	O	-1.063507	0.354514	-0.354560
O18	O	-0.813507	0.604514	-0.104560
O19	O	-0.563507	0.854514	0.145440
O20	O	-0.313507	1.104514	0.395440
O21	O	-1.228044	0.309316	-0.399788
O22	O	-0.978044	0.559316	-0.149788
O23	O	-0.728044	0.809316	0.100212
O24	O	-0.478044	1.059316	0.350212
O25	O	-1.108643	0.399759	-0.190049
O26	O	-0.858643	0.649759	0.059951
O27	O	-0.608643	0.899759	0.309951
O28	O	-0.358643	1.149759	0.559951
O29	O	-1.018382	0.190020	-0.309401
O30	O	-0.768382	0.440020	-0.059401
O31	O	-0.518382	0.690020	0.190599
O32	O	-0.268382	0.940020	0.440599
O33	O	-1.227977	0.399736	-0.309368
O34	O	-0.977977	0.649736	-0.059368
O35	O	-0.727977	0.899736	0.190632
O36	O	-0.477977	1.149736	0.440632
O37	O	-1.108799	0.190002	-0.399807
O38	O	-0.858799	0.440002	-0.149807
O39	O	-0.608799	0.690002	0.100193
O40	O	-0.358799	0.940002	0.350193
O41	O	-1.018293	0.309357	-0.190063
O42	O	-0.768293	0.559357	0.059937
O43	O	-0.518293	0.809357	0.309937
O44	O	-0.268293	1.059357	0.559937
O45	O	-0.899016	0.309317	-0.309355
O46	O	-0.649016	0.559317	-0.059355
O47	O	-0.399016	0.809317	0.190645
O48	O	-0.149016	1.059317	0.440645
O49	O	-1.018324	0.399666	-0.519046
O50	O	-0.768324	0.649666	-0.269046
O51	O	-0.518324	0.899666	-0.019046
O52	O	-0.268324	1.149666	0.230954
O53	O	-0.898991	0.399689	-0.399727
O54	O	-0.648991	0.649689	-0.149727
O55	O	-0.398991	0.899689	0.100273
O56	O	-0.148991	1.149689	0.350273
O57	O	-1.108766	0.309276	-0.519081
O58	O	-0.858766	0.559276	-0.269081
O59	O	-0.608766	0.809276	-0.019081
O60	O	-0.358766	1.059276	0.230919
O61	O	-1.108610	0.519033	-0.309322
O62	O	-0.858610	0.769033	-0.059322
O63	O	-0.608610	1.019033	0.190678
O64	O	-0.358610	1.269033	0.440678
O65	O	-1.018235	0.519003	-0.399708
O66	O	-0.768235	0.769003	-0.149708
O67	O	-0.518235	1.019003	0.100292
O68	O	-0.268235	1.269003	0.350292
C69	C	-0.872301	0.354502	-0.354539
C70	C	-0.622301	0.604502	-0.104539
C71	C	-0.372301	0.854502	0.145461
C72	C	-0.122301	1.104502	0.395461
C73	C	-0.790502	0.354514	-0.354547
C74	C	-0.540502	0.604514	-0.104547
C75	C	-0.290502	0.854514	0.145453
C76	C	-0.040502	1.104514	0.395453
C77	C	-1.063429	0.545721	-0.354524
C78	C	-0.813429	0.795721	-0.104524
C79	C	-0.563429	1.045721	0.145476
C80	C	-0.313429	1.295721	0.395476
C81	C	-1.063463	0.627520	-0.354534
C82	C	-0.813463	0.877520	-0.104534
C83	C	-0.563463	1.127520	0.145466
C84	C	-0.313463	1.377520	0.395466
C85	C	-1.063552	0.354464	-0.546513
C86	C	-0.813552	0.604464	-0.296513
C87	C	-0.563552	0.854464	-0.046513
C88	C	-0.313552	1.104464	0.203487
C89	C	-1.063571	0.354442	-0.628312
C90	C	-0.813571	0.604442	-0.378312
C91	C	-0.563571	0.854442	-0.128312
C92	C	-0.313571	1.104442	0.121688
C93	C	-1.255460	0.354528	-0.354581
C94	C	-1.005460	0.604528	-0.104581
C95	C	-0.755460	0.854528	0.145419
C96	C	-0.505460	1.104528	0.395419
C97	C	-1.337259	0.354533	-0.354591
C98	C	-1.087259	0.604533	-0.104591
C99	C	-0.837259	0.854533	0.145409
C100	C	-0.587259	1.104533	0.395409
C101	C	-0.602314	0.401645	-0.401544
C102	C	-0.352314	0.651645	-0.151544
C103	C	-0.102314	0.901645	0.098456
C104	C	0.147686	1.151645	0.348456
C105	C	-0.525455	0.401647	-0.401554
C106	C	-0.275455	0.651647	-0.151554
C107	C	-0.025455	0.901647	0.098446
C108	C	0.224545	1.151647	0.348446
C109	C	-0.525452	0.307397	-0.307591
C110	C	-0.275452	0.557397	-0.057591
C111	C	-0.025452	0.807397	0.192409
C112	C	0.224548	1.057397	0.442409
C113	C	-0.602309	0.307392	-0.307586
C114	C	-0.352309	0.557392	-0.057586
C115	C	-0.102309	0.807392	0.192414
C116	C	0.147691	1.057392	0.442414
C117	C	-0.640738	0.354520	-0.354562
C118	C	-0.390738	0.604520	-0.104562
C119	C	-0.140738	0.854520	0.145438
C120	C	0.109262	1.104520	0.395438
C121	C	-0.487022	0.354528	-0.354576
C122	C	-0.237022	0.604528	-0.104576
C123	C	0.012978	0.854528	0.145424
C124	C	0.262978	1.104528	0.395424
C125	C	-0.403688	0.354530	-0.354585
C126	C	-0.153688	0.604530	-0.104585
C127	C	0.096312	0.854530	0.145415
C128	C	0.346312	1.104530	0.395415
C129	C	-0.724077	0.354517	-0.354553
C130	C	-0.474077	0.604517	-0.104553
C131	C	-0.224077	0.854517	0.145447
C132	C	0.025923	1.104517	0.395447
C133	C	-1.063605	0.162561	-0.354611
C134	C	-0.813605	0.412561	-0.104611
C135	C	-0.563605	0.662561	0.145389
C136	C	-0.313605	0.912561	0.395389
C137	C	-1.063647	0.080763	-0.354633
C138	C	-0.813647	0.330763	-0.104633
C139	C	-0.563647	0.580763	0.145367
C140	C	-0.313647	0.830763	0.395367
C141	C	-1.110632	0.815705	-0.307556
C142	C	-0.860632	1.065705	-0.057556
C143	C	-0.610632	1.315705	0.192444
C144	C	-0.360632	1.565705	0.442444
C145	C	-1.110665	0.892563	-0.307574
C146	C	-0.860665	1.142563	-0.057574
C147	C	-0.610665	1.392563	0.192426
C148	C	-0.360665	1.642563	0.442426
C149	C	-1.016476	0.892572	-0.401616
C150	C	-0.766476	1.142572	-0.151616
C151	C	-0.516476	1.392572	0.098384
C152	C	-0.266476	1.642572	0.348384
C153	C	-1.016447	0.815715	-0.401601
C154	C	-0.766447	1.065715	-0.151601
C155	C	-0.516447	1.315715	0.098399
C156	C	-0.266447	1.565715	0.348399
C157	C	-1.063524	0.777283	-0.354567
C158	C	-0.813524	1.027283	-0.104567
C159	C	-0.563524	1.277283	0.145433
C160	C	-0.313524	1.527283	0.395433
C161	C	-1.063586	0.930999	-0.354600
C162	C	-0.813586	1.180999	-0.104600
C163	C	-0.563586	1.430999	0.145400
C164	C	-0.313586	1.680999	0.395400
C165	C	-1.063621	1.014333	-0.354619
C166	C	-0.813621	1.264333	-0.104619
C167	C	-0.563621	1.514333	0.145381
C168	C	-0.313621	1.764333	0.395381
C169	C	-1.063490	0.693944	-0.354548
C170	C	-0.813490	0.943944	-0.104548
C171	C	-0.563490	1.193944	0.145452
C172	C	-0.313490	1.443944	0.395452
C173	C	-1.110681	0.307332	-0.816525
C174	C	-0.860681	0.557332	-0.566525
C175	C	-0.610681	0.807332	-0.316525
C176	C	-0.360681	1.057332	-0.066525
C177	C	-1.110690	0.307311	-0.893384
C178	C	-0.860690	0.557311	-0.643384
C179	C	-0.610690	0.807311	-0.393384
C180	C	-0.360690	1.057311	-0.143384
C181	C	-1.016513	0.401438	-0.893336
C182	C	-0.766513	0.651438	-0.643336
C183	C	-0.516513	0.901438	-0.393336
C184	C	-0.266513	1.151438	-0.143336
C185	C	-1.016501	0.401455	-0.816479
C186	C	-0.766501	0.651455	-0.566479
C187	C	-0.516501	0.901455	-0.316479
C188	C	-0.266501	1.151455	-0.066479
C189	C	-1.063589	0.354403	-0.778075
C190	C	-0.813589	0.604403	-0.528075
C191	C	-0.563589	0.854403	-0.278075
C192	C	-0.313589	1.104403	-0.028075
C193	C	-1.063610	0.354365	-0.931791
C194	C	-0.813610	0.604365	-0.681791
C195	C	-0.563610	0.854365	-0.431791
C196	C	-0.313610	1.104365	-0.181791
C197	C	-1.063619	0.354342	-1.015125
C198	C	-0.813619	0.604342	-0.765125
C199	C	-0.563619	0.854342	-0.515125
C200	C	-0.313619	1.104342	-0.265125
C201	C	-1.063579	0.354425	-0.694736
C202	C	-0.813579	0.604425	-0.444736
C203	C	-0.563579	0.854425	-0.194736
C204	C	-0.313579	1.104425	0.055264
C205	C	-1.063504	0.354512	-0.163353
C206	C	-0.813504	0.604512	0.086647
C207	C	-0.563504	0.854512	0.336647
C208	C	-0.313504	1.104512	0.586647
C209	C	-1.063628	0.354326	-0.081555
C210	C	-0.813628	0.604326	0.168445
C211	C	-0.563628	0.854326	0.418445
C212	C	-0.313628	1.104326	0.668445
H213	H	-0.633601	0.440018	-0.439797
H214	H	-0.383601	0.690018	-0.189797
H215	H	-0.133601	0.940018	0.060203
H216	H	0.116399	1.190018	0.310203
C217	C	-1.162469	0.255574	-0.774279
C218	C	-0.912469	0.505574	-0.524279
C219	C	-0.662469	0.755574	-0.274279
C220	C	-0.412469	1.005574	-0.024279
H221	H	-1.155724	0.262329	-0.722999
H222	H	-0.905724	0.512329	-0.472999
H223	H	-0.655724	0.762329	-0.222999
H224	H	-0.405724	1.012329	0.027001
H225	H	-1.151724	0.206124	-0.786889
H226	H	-0.901724	0.456124	-0.536889
H227	H	-0.651724	0.706124	-0.286889
H228	H	-0.401724	0.956124	-0.036889
H229	H	-1.211915	0.266347	-0.786883
H230	H	-0.961915	0.516347	-0.536883
H231	H	-0.711915	0.766347	-0.286883
H232	H	-0.461915	1.016347	-0.036883
C233	C	-1.162474	0.934828	-0.255855
C234	C	-0.912474	1.184828	-0.005855
C235	C	-0.662474	1.434828	0.244145
C236	C	-0.412474	1.684828	0.494145
H237	H	-1.155754	0.986106	-0.262602
H238	H	-0.905754	1.236106	-0.012602
H239	H	-0.655754	1.486106	0.237398
H240	H	-0.405754	1.736106	0.487398
H241	H	-1.151722	0.922274	-0.206398
H242	H	-0.901722	1.172274	0.043602
H243	H	-0.651722	1.422274	0.293602
H244	H	-0.401722	1.672274	0.543602
H245	H	-1.211914	0.922184	-0.266668
H246	H	-0.961914	1.172184	-0.016668
H247	H	-0.711914	1.422184	0.233332
H248	H	-0.461914	1.672184	0.483332
C249	C	-0.483177	0.255569	-0.255914
C250	C	-0.233177	0.505569	-0.005914
C251	C	0.016823	0.755569	0.244086
C252	C	0.266823	1.005569	0.494086
H253	H	-0.431900	0.262327	-0.262639
H254	H	-0.181900	0.512327	-0.012639
H255	H	0.068100	0.762327	0.237361
H256	H	0.318100	1.012327	0.487361
H257	H	-0.495793	0.206133	-0.266767
H258	H	-0.245793	0.456133	-0.016767
H259	H	0.004207	0.706133	0.233233
H260	H	0.254207	0.956133	0.483233
H261	H	-0.495752	0.266285	-0.206446
H262	H	-0.245752	0.516285	0.043554
H263	H	0.004248	0.766285	0.293554
H264	H	0.254248	1.016285	0.543554
C265	C	-0.964688	0.934849	-0.453341
C266	C	-0.714688	1.184849	-0.203341
C267	C	-0.464688	1.434849	0.046659
C268	C	-0.214688	1.684849	0.296659
H269	H	-0.971445	0.986126	-0.446612
H270	H	-0.721445	1.236126	-0.196612
H271	H	-0.471445	1.486126	0.053388
H272	H	-0.221445	1.736126	0.303388
H273	H	-0.975419	0.922211	-0.502797
H274	H	-0.725419	1.172211	-0.252797
H275	H	-0.475419	1.422211	-0.002797
H276	H	-0.225419	1.672211	0.247203
H277	H	-0.915242	0.922299	-0.442513
H278	H	-0.665242	1.172299	-0.192513
H279	H	-0.415242	1.422299	0.057487
H280	H	-0.165242	1.672299	0.307487
C281	C	-0.964625	0.773448	-0.453315
C282	C	-0.714625	1.023448	-0.203315
C283	C	-0.464625	1.273448	0.046685
C284	C	-0.214625	1.523448	0.296685
H285	H	-0.936585	0.807343	-0.481321
H286	H	-0.686585	1.057343	-0.231321
H287	H	-0.436585	1.307343	0.018679
H288	H	-0.186585	1.557343	0.268679
H289	H	-0.992747	0.743419	-0.485400
H290	H	-0.742747	0.993419	-0.235400
H291	H	-0.492747	1.243419	0.014600
H292	H	-0.242747	1.493419	0.264600
H293	H	-0.932564	0.743513	-0.425121
H294	H	-0.682564	0.993513	-0.175121
H295	H	-0.432564	1.243513	0.074879
H296	H	-0.182564	1.493513	0.324879
C297	C	-1.162421	0.773432	-0.255829
C298	C	-0.912421	1.023432	-0.005829
C299	C	-0.662421	1.273432	0.244171
C300	C	-0.412421	1.523432	0.494171
H301	H	-1.190486	0.807325	-0.227839
H302	H	-0.940486	1.057325	0.022161
H303	H	-0.690486	1.307325	0.272161
H304	H	-0.440486	1.557325	0.522161
H305	H	-1.134282	0.743495	-0.223729
H306	H	-0.884282	0.993495	0.026271
H307	H	-0.634282	1.243495	0.276271
H308	H	-0.384282	1.493495	0.526271
H309	H	-1.194459	0.743406	-0.284012
H310	H	-0.944459	0.993406	-0.034012
H311	H	-0.694459	1.243406	0.215988
H312	H	-0.444459	1.493406	0.465988
H313	H	-1.149035	0.268979	-0.924686
H314	H	-0.899035	0.518979	-0.674686
H315	H	-0.649035	0.768979	-0.424686
H316	H	-0.399035	1.018979	-0.174686
C317	C	-0.964726	0.453198	-0.935583
C318	C	-0.714726	0.703198	-0.685583
C319	C	-0.464726	0.953198	-0.435583
C320	C	-0.214726	1.203198	-0.185583
H321	H	-0.971483	0.446452	-0.986863
H322	H	-0.721483	0.696452	-0.736863
H323	H	-0.471483	0.946452	-0.486863
H324	H	-0.221483	1.196452	-0.236863
H325	H	-0.915282	0.442431	-0.922983
H326	H	-0.665282	0.692431	-0.672983
H327	H	-0.415282	0.942431	-0.422983
H328	H	-0.165282	1.192431	-0.172983
H329	H	-0.975478	0.502649	-0.922972
H330	H	-0.725478	0.752649	-0.672972
H331	H	-0.475478	1.002649	-0.422972
H332	H	-0.225478	1.252649	-0.172972
H333	H	-0.494174	0.440020	-0.439813
H334	H	-0.244174	0.690020	-0.189813
H335	H	0.005826	0.940020	0.060187
H336	H	0.255826	1.190020	0.310187
H337	H	-0.633595	0.269012	-0.269327
H338	H	-0.383595	0.519012	-0.019327
H339	H	-0.133595	0.769012	0.230673
H340	H	0.116405	1.019012	0.480673
C341	C	-0.964702	0.453241	-0.774182
C342	C	-0.714702	0.703241	-0.524182
C343	C	-0.464702	0.953241	-0.274182
C344	C	-0.214702	1.203241	-0.024182
H345	H	-0.936668	0.481270	-0.808060
H346	H	-0.686668	0.731270	-0.558060
H347	H	-0.436668	0.981270	-0.308060
H348	H	-0.186668	1.231270	-0.058060
H349	H	-0.932645	0.425098	-0.744200
H350	H	-0.682645	0.675098	-0.494200
H351	H	-0.432645	0.925098	-0.244200
H352	H	-0.182645	1.175098	0.005800
H353	H	-0.992843	0.485315	-0.744198
H354	H	-0.742843	0.735315	-0.494198
H355	H	-0.492843	0.985315	-0.244198
H356	H	-0.242843	1.235315	0.005802
