data_functionalizedCrystal
_audit_creation_method	'MofGen! by Chris Wilmer'
_symmetry_space_group_name_H-M	'P1'
_symmetry_Int_Tables_number	1
_symmetry_cell_setting	triclinic
loop_
_symmetry_equiv_pos_as_xyz
  x,y,z
_cell_length_a	12.759401
_cell_length_b	12.759400
_cell_length_c	14.908308
_cell_angle_alpha	86.730859
_cell_angle_beta	86.718816
_cell_angle_gamma	90.014845
loop_
_atom_site_label
_atom_site_type_symbol
_atom_site_fract_x
_atom_site_fract_y
_atom_site_fract_z
Zn1	Zn	1.571946	-0.452520	0.510031
Zn2	Zn	1.581988	-0.618088	0.359181
Zn3	Zn	1.406395	-0.442425	0.359198
Zn4	Zn	1.396239	-0.628155	0.509998
O5	O	1.489142	-0.535297	0.434602
O6	O	1.720299	-0.474494	0.490028
O7	O	1.567148	-0.586348	0.232941
O8	O	1.428403	-0.296745	0.379227
O9	O	1.727677	-0.596136	0.379199
O10	O	1.550033	-0.304161	0.490044
O11	O	1.438140	-0.457289	0.232953
O12	O	1.258027	-0.467051	0.379195
O13	O	1.411094	-0.613295	0.636245
O14	O	1.250566	-0.603507	0.489988
O15	O	1.540185	-0.484256	0.636269
O16	O	1.557301	-0.766443	0.379167
O17	O	1.420831	-0.773840	0.489971
C18	C	1.216175	-0.535277	0.434590
C19	C	1.099398	-0.535295	0.434606
C20	C	1.489081	-0.808263	0.434583
C21	C	1.489149	-0.925041	0.434605
C22	C	1.040685	-0.606448	0.492200
C23	C	0.930960	-0.606462	0.492210
C24	C	0.938672	-0.464166	0.377024
C25	C	1.048394	-0.464148	0.377019
C26	C	1.091688	-0.677595	0.549787
C27	C	1.032975	-0.748755	0.607386
C28	C	0.923250	-0.748769	0.607396
C29	C	0.872239	-0.677623	0.549807
C30	C	1.560278	-0.976021	0.376973
C31	C	1.560341	-1.085747	0.377001
C32	C	1.418135	-1.093503	0.492296
C33	C	1.418078	-0.983780	0.492272
C34	C	1.631349	-0.917283	0.319307
C35	C	1.702484	-0.968262	0.261669
C36	C	1.702546	-1.077988	0.261697
C37	C	1.631474	-1.136734	0.319362
C38	C	1.763174	-0.535318	0.434615
C39	C	1.879951	-0.535327	0.434620
C40	C	1.473387	-0.551024	0.669905
C41	C	1.466673	-0.557727	0.770178
C42	C	1.489231	-0.261266	0.434641
C43	C	1.489268	-0.144491	0.434657
C44	C	1.504896	-0.519555	0.200214
C45	C	1.511814	-0.512557	0.099943
C46	C	1.588477	-0.435928	0.958627
C47	C	1.582172	-0.442221	1.052841
C48	C	1.447753	-0.576601	1.052823
C49	C	1.454058	-0.570308	0.958609
C50	C	1.524423	-0.499970	0.911513
C51	C	1.530733	-0.493682	0.817297
C52	C	1.396310	-0.628056	0.817281
C53	C	1.390005	-0.634350	0.911495
H54	H	1.074515	-0.806673	0.654278
H55	H	1.360271	-1.141343	0.539244
H56	H	0.875448	-0.806704	0.654301
C57	C	1.779964	-1.133369	0.199308
C58	C	1.843883	-1.199633	0.250494
C59	C	1.915250	-1.250637	0.193063
H60	H	1.742660	-1.173706	0.159936
H61	H	1.822336	-1.082674	0.165010
H62	H	1.801517	-1.250322	0.284777
H63	H	1.881210	-1.159322	0.289864
H64	H	1.957622	-1.199942	0.158764
H65	H	1.877938	-1.290968	0.153693
H66	H	1.958635	-1.295596	0.227784
C67	C	0.753099	-0.677800	0.549950
C68	C	0.712594	-0.755340	0.612717
C69	C	0.602849	-0.755531	0.612877
H70	H	0.727142	-0.611137	0.565694
H71	H	0.732087	-0.692016	0.491734
H72	H	0.733595	-0.741117	0.670921
H73	H	0.738521	-0.822014	0.596988
H74	H	0.581838	-0.769747	0.554660
H75	H	0.576903	-0.688865	0.628619
H76	H	0.575353	-0.808147	0.655457
C77	C	1.371448	-0.652915	1.104127
C78	C	1.379648	-0.644722	1.196719
C79	C	1.309375	-0.715009	1.244008
H80	H	1.301851	-0.636567	1.088788
H81	H	1.387829	-0.722509	1.088745
H82	H	1.363260	-0.575144	1.212095
H83	H	1.449230	-0.661079	1.212085
H84	H	1.325757	-0.784602	1.228626
H85	H	1.239783	-0.698655	1.228662
H86	H	1.314937	-0.709466	1.306837
C87	C	1.326935	-0.697647	0.766017
C88	C	1.390022	-0.761360	0.711909
C89	C	1.326155	-0.825472	0.664665
H90	H	1.284112	-0.740527	0.807462
H91	H	1.283647	-0.655031	0.729214
H92	H	1.433292	-0.803972	0.748709
H93	H	1.432844	-0.718507	0.670448
H94	H	1.282867	-0.782855	0.627862
H95	H	1.283336	-0.868345	0.706116
H96	H	1.368950	-0.868702	0.627941
C97	C	1.111966	-0.386860	0.314380
C98	C	1.043819	-0.324585	0.263923
C99	C	1.102344	-0.253386	0.206201
H100	H	1.152477	-0.343350	0.348851
H101	H	1.157372	-0.424323	0.274967
H102	H	0.998431	-0.287125	0.303331
H103	H	1.003306	-0.368067	0.229434
H104	H	1.147751	-0.290849	0.166788
H105	H	1.142854	-0.209882	0.240678
H106	H	1.056116	-0.211130	0.171953
C107	C	1.607153	-0.417212	0.766325
C108	C	1.661875	-0.362453	0.827755
C109	C	1.732271	-0.291985	0.780836
H110	H	1.655475	-0.454825	0.729565
H111	H	1.569454	-0.368926	0.729596
H112	H	1.699572	-0.410732	0.864469
H113	H	1.613581	-0.324818	0.864518
H114	H	1.694572	-0.243699	0.744107
H115	H	1.780586	-0.329608	0.744078
H116	H	1.769401	-0.254816	0.822509
H117	H	1.634328	-0.390069	1.091197
C118	C	1.313684	-0.710877	0.962517
C119	C	1.338057	-0.813293	0.939573
C120	C	1.267765	-0.883820	0.986546
H121	H	1.319033	-0.705597	1.025390
H122	H	1.244113	-0.694535	0.947057
H123	H	1.407610	-0.829630	0.955040
H124	H	1.332700	-0.818607	0.876709
H125	H	1.198195	-0.867478	0.971086
H126	H	1.273120	-0.878530	1.049416
H127	H	1.284286	-0.953315	0.970979
H128	H	0.897129	-0.406243	0.330137
C129	C	1.631482	-0.798145	0.319176
C130	C	1.708961	-0.757614	0.256357
C131	C	1.709121	-0.647871	0.256221
H132	H	1.564795	-0.772210	0.303493
H133	H	1.645742	-0.777130	0.377383
H134	H	1.694695	-0.778619	0.198163
H135	H	1.775660	-0.783519	0.272026
H136	H	1.723380	-0.626856	0.314428
H137	H	1.642429	-0.621947	0.240539
H138	H	1.761695	-0.620357	0.213605
H139	H	1.181031	-0.677594	0.549784
H140	H	1.645776	-0.378661	0.920281
C141	C	1.779594	-0.904610	0.198919
C142	C	1.762807	-0.925422	0.109653
C143	C	1.833831	-0.866818	0.051822
H144	H	1.769444	-0.831936	0.207031
H145	H	1.849317	-0.923429	0.212122
H146	H	1.693100	-0.906596	0.096454
H147	H	1.772965	-0.998084	0.101512
H148	H	1.903555	-0.885637	0.065025
H149	H	1.823676	-0.794147	0.059943
H150	H	1.822458	-0.880938	-0.008751
H151	H	1.631539	-1.226081	0.319387
H152	H	1.360159	-0.942272	0.539202
