data_functionalizedCrystal
_audit_creation_method	'MofGen! by Chris Wilmer'
_symmetry_space_group_name_H-M	'P1'
_symmetry_Int_Tables_number	1
_symmetry_cell_setting	triclinic
loop_
_symmetry_equiv_pos_as_xyz
  x,y,z
_cell_length_a	18.215407
_cell_length_b	19.805405
_cell_length_c	18.215399
_cell_angle_alpha	90.030610
_cell_angle_beta	90.019833
_cell_angle_gamma	90.026858
loop_
_atom_site_label
_atom_site_type_symbol
_atom_site_fract_x
_atom_site_fract_y
_atom_site_fract_z
Zn1	Zn	1.125064	-0.269462	0.416102
Zn2	Zn	1.625064	0.230538	0.916102
Zn3	Zn	1.124969	-0.382653	0.293030
Zn4	Zn	1.624969	0.117347	0.793030
Zn5	Zn	1.001997	-0.269484	0.293050
Zn6	Zn	1.501997	0.230516	0.793050
Zn7	Zn	1.001959	-0.382615	0.416055
Zn8	Zn	1.501959	0.117385	0.916055
O9	O	1.063497	-0.326054	0.354559
O10	O	1.563497	0.173946	0.854559
O11	O	1.228036	-0.284484	0.399788
O12	O	1.728036	0.215516	0.899788
O13	O	1.108633	-0.367666	0.190049
O14	O	1.608633	0.132334	0.690049
O15	O	1.018377	-0.174765	0.309401
O16	O	1.518377	0.325235	0.809401
O17	O	1.227966	-0.367644	0.309368
O18	O	1.727966	0.132356	0.809368
O19	O	1.108794	-0.174748	0.399807
O20	O	1.608794	0.325252	0.899807
O21	O	1.018285	-0.284521	0.190063
O22	O	1.518285	0.215479	0.690063
O23	O	0.899008	-0.284485	0.309355
O24	O	1.399008	0.215515	0.809355
O25	O	1.018313	-0.367580	0.519046
O26	O	1.518313	0.132420	1.019046
O27	O	0.898980	-0.367602	0.399727
O28	O	1.398980	0.132398	0.899727
O29	O	1.108758	-0.284447	0.519080
O30	O	1.608758	0.215553	1.019080
O31	O	1.108596	-0.477365	0.309322
O32	O	1.608596	0.022635	0.809322
O33	O	1.018221	-0.477337	0.399708
O34	O	1.518221	0.022663	0.899708
C35	C	0.872291	-0.326042	0.354538
C36	C	1.372291	0.173958	0.854538
C37	C	0.790492	-0.326053	0.354547
C38	C	1.290492	0.173947	0.854547
C39	C	1.063415	-0.501910	0.354524
C40	C	1.563415	-0.001910	0.854524
C41	C	1.063446	-0.577142	0.354533
C42	C	1.563446	-0.077142	0.854533
C43	C	0.602303	-0.369400	0.401544
C44	C	1.102303	0.130600	0.901544
C45	C	0.525444	-0.369403	0.401553
C46	C	1.025444	0.130597	0.901553
C47	C	0.525444	-0.282719	0.307591
C48	C	1.025444	0.217281	0.807591
C49	C	0.602301	-0.282714	0.307586
C50	C	1.102301	0.217286	0.807586
C51	C	0.640729	-0.326059	0.354561
C52	C	1.140729	0.173941	0.854561
C53	C	0.487013	-0.326066	0.354575
C54	C	0.987013	0.173934	0.854575
C55	C	0.403679	-0.326068	0.354585
C56	C	0.903679	0.173932	0.854585
C57	C	0.724068	-0.326056	0.354553
C58	C	1.224068	0.173944	0.854553
C59	C	1.110550	-0.612478	0.307518
C60	C	1.610550	-0.112478	0.807518
C61	C	1.110582	-0.683166	0.307535
C62	C	1.610582	-0.183166	0.807535
C63	C	1.063505	-0.718517	0.354562
C64	C	1.563505	-0.218517	0.854562
C65	C	1.016399	-0.683176	0.401582
C66	C	1.516399	-0.183176	0.901582
C67	C	1.016372	-0.612489	0.401569
C68	C	1.516372	-0.112489	0.901569
C69	C	1.016507	-0.968249	0.401637
C70	C	1.516507	-0.468249	0.901637
C71	C	1.016536	-1.038941	0.401645
C72	C	1.516536	-0.538941	0.901645
C73	C	1.110717	-1.038927	0.307602
C74	C	1.610717	-0.538927	0.807602
C75	C	1.110690	-0.968239	0.307589
C76	C	1.610690	-0.468239	0.807589
C77	C	1.063587	-0.932905	0.354611
C78	C	1.563587	-0.432905	0.854611
C79	C	1.063555	-0.856256	0.354594
C80	C	1.563555	-0.356256	0.854594
C81	C	1.063533	-0.795164	0.354577
C82	C	1.563533	-0.295164	0.854577
C83	C	1.255450	-0.326066	0.354581
C84	C	1.755450	0.173934	0.854581
C85	C	1.337249	-0.326071	0.354590
C86	C	1.837249	0.173929	0.854590
C87	C	1.063542	-0.326007	0.546512
C88	C	1.563542	0.173993	1.046512
C89	C	1.063561	-0.325987	0.628311
C90	C	1.563561	0.174013	1.128311
C91	C	1.063601	-0.149511	0.354611
C92	C	1.563601	0.350489	0.854611
C93	C	1.063645	-0.074279	0.354633
C94	C	1.563645	0.425721	0.854633
C95	C	1.063495	-0.326051	0.163353
C96	C	1.563495	0.173949	0.663353
C97	C	1.063619	-0.325880	0.081555
C98	C	1.563619	0.174120	0.581555
C99	C	1.110673	-0.282659	0.816524
C100	C	1.610673	0.217341	1.316524
C101	C	1.110682	-0.282639	0.893383
C102	C	1.610682	0.217361	1.393383
C103	C	1.016502	-0.369210	0.893336
C104	C	1.516502	0.130790	1.393336
C105	C	1.016490	-0.369226	0.816479
C106	C	1.516490	0.130774	1.316479
C107	C	1.063580	-0.325952	0.778075
C108	C	1.563580	0.174048	1.278075
C109	C	1.063600	-0.325916	0.931791
C110	C	1.563600	0.174084	1.431791
C111	C	1.063609	-0.325895	1.015125
C112	C	1.563609	0.174105	1.515125
C113	C	1.063570	-0.325972	0.694736
C114	C	1.563570	0.174028	1.194736
H115	H	0.633589	-0.404693	0.439797
H116	H	1.133589	0.095307	0.939797
O117	O	0.965622	-0.721299	0.452309
O118	O	1.465622	-0.221299	0.952309
H119	H	0.907867	-0.707774	0.439634
H120	H	1.407867	-0.207774	0.939634
O121	O	1.161545	-1.077036	0.256903
O122	O	1.661545	-0.577036	0.756903
H123	H	1.153670	-1.132129	0.264821
H124	H	1.653670	-0.632129	0.764821
O125	O	0.483997	-0.416225	0.452145
O126	O	0.983997	0.083775	0.952145
H127	H	0.523633	-0.446391	0.484774
H128	H	1.023633	0.053609	0.984774
H129	H	0.978016	-0.583719	0.439854
H130	H	1.478016	-0.083719	0.939854
H131	H	1.149028	-0.247385	0.924686
H132	H	1.649028	0.252615	1.424686
H133	H	1.149014	-0.247420	0.785258
H134	H	1.649014	0.252580	1.285258
O135	O	0.484004	-0.235973	0.256916
O136	O	0.984004	0.264027	0.756916
H137	H	0.498742	-0.247517	0.199138
H138	H	0.998742	0.252483	0.699138
O139	O	0.965715	-0.415885	0.934756
O140	O	1.465715	0.084115	1.434756
H141	H	0.973637	-0.408606	0.994660
H142	H	1.473637	0.091394	1.494660
O143	O	0.965673	-0.415902	0.774999
O144	O	1.465673	0.084098	1.274999
H145	H	0.932931	-0.445991	0.814614
H146	H	1.432931	0.054009	1.314614
O147	O	0.965684	-0.930141	0.452328
O148	O	1.465684	-0.430141	0.952328
H149	H	0.932942	-0.966601	0.485017
H150	H	1.432942	-0.466601	0.985017
O151	O	0.643754	-0.235975	0.256898
O152	O	1.143754	0.264025	0.756898
H153	H	0.604122	-0.205846	0.224222
H154	H	1.104122	0.294154	0.724222
O155	O	1.161330	-0.574350	0.256798
O156	O	1.661330	-0.074350	0.756798
H157	H	1.194095	-0.610800	0.224115
H158	H	1.694095	-0.110800	0.724115
O159	O	1.161385	-0.721280	0.256824
O160	O	1.661385	-0.221280	0.756824
H161	H	1.148780	-0.707765	0.199052
H162	H	1.648780	-0.207765	0.699052
O163	O	1.161472	-0.930110	0.256874
O164	O	1.661472	-0.430110	0.756874
H165	H	1.148900	-0.943723	0.199103
H166	H	1.648900	-0.443723	0.699103
O167	O	0.965764	-1.077075	0.452375
O168	O	1.465764	-0.577075	0.952375
H169	H	0.933011	-1.040629	0.485077
H170	H	1.433011	-0.540629	0.985077
