data_functionalizedCrystal
_audit_creation_method	'MofGen! by Chris Wilmer'
_symmetry_space_group_name_H-M	'P1'
_symmetry_Int_Tables_number	1
_symmetry_cell_setting	triclinic
loop_
_symmetry_equiv_pos_as_xyz
  x,y,z
_cell_length_a	9.065218
_cell_length_b	10.654550
_cell_length_c	9.730223
_cell_angle_alpha	90.003749
_cell_angle_beta	90.000469
_cell_angle_gamma	95.249606
loop_
_atom_site_label
_atom_site_type_symbol
_atom_site_fract_x
_atom_site_fract_y
_atom_site_fract_z
O1	O	0.207228	-1.668655	-0.114397
O2	O	0.226972	-1.303254	-0.114374
O3	O	0.002417	-1.493507	-0.114383
O4	O	0.431784	-1.478402	-0.114388
O5	O	0.002422	-1.493505	0.114197
O6	O	0.226978	-1.303252	0.114206
O7	O	0.207234	-1.668653	0.114183
Zn8	Zn	0.217107	-1.485952	0.150486
Zn9	Zn	0.217099	-1.485955	-0.150678
O10	O	0.431790	-1.478400	0.114192
C11	C	0.225525	-1.256450	-0.000082
C12	C	0.221188	-1.116989	-0.000073
C13	C	-0.052559	-1.492055	-0.000096
C14	C	-0.216378	-1.487714	-0.000102
C15	C	0.208681	-1.715457	-0.000113
C16	C	0.213018	-1.854918	-0.000130
C17	C	0.486766	-1.479852	-0.000099
C18	C	0.650585	-1.484193	-0.000102
N19	N	0.217111	-1.485959	0.356023
C20	C	0.353403	-1.038027	-0.000095
C21	C	0.349319	-0.906990	-0.000118
C22	C	0.080793	-0.933890	-0.000105
C23	C	0.084879	-1.064925	-0.000071
C24	C	0.508434	-1.022496	-0.000108
C25	C	0.504350	-0.891459	-0.000132
N26	N	0.217084	-1.485958	-0.356214
C27	C	0.117712	-1.570225	0.427945
C28	C	0.117694	-1.570222	0.571828
C29	C	0.316488	-1.401682	0.571854
C30	C	0.316497	-1.401681	0.427973
C31	C	0.002944	-1.667534	0.427931
C32	C	0.002926	-1.667531	0.571814
H33	H	-0.022783	-1.129212	-0.000034
F34	F	0.049929	-1.786896	0.369586
H35	H	-0.104243	-1.636593	0.616432
F36	F	0.580694	-0.837209	-0.125174
H37	H	0.028206	-1.764142	0.610858
H38	H	0.397423	-1.333054	0.369416
F39	F	0.572952	-1.069363	-0.129099
H40	H	0.569069	-1.052066	0.095557
F41	F	-0.064269	-0.878467	-0.000102
H42	H	0.551205	-0.845972	0.098552
H43	H	0.397404	-1.333064	0.630452
F44	F	-0.145284	-1.638920	0.376881
