data_functionalizedCrystal
_audit_creation_method	'MofGen! by Chris Wilmer'
_symmetry_space_group_name_H-M	'P1'
_symmetry_Int_Tables_number	1
_symmetry_cell_setting	triclinic
loop_
_symmetry_equiv_pos_as_xyz
  x,y,z
_cell_length_a	14.853567
_cell_length_b	9.065215
_cell_length_c	8.140239
_cell_angle_alpha	89.997810
_cell_angle_beta	90.000276
_cell_angle_gamma	84.324814
loop_
_atom_site_label
_atom_site_type_symbol
_atom_site_fract_x
_atom_site_fract_y
_atom_site_fract_z
O1	O	0.132179	1.957781	-0.136579
O2	O	0.143024	1.528280	-0.136585
O3	O	0.006456	1.754503	-0.136587
O4	O	0.268746	1.731558	-0.136577
O5	O	0.006455	1.754490	0.136641
O6	O	0.143023	1.528268	0.136642
O7	O	0.132177	1.957768	0.136648
Zn8	Zn	0.137599	1.743016	0.180026
Zn9	Zn	0.137602	1.743032	-0.179962
O10	O	0.268745	1.731545	0.136650
C11	C	0.141982	1.473308	0.000028
C12	C	0.138867	1.309527	0.000025
C13	C	-0.027141	1.753457	0.000022
C14	C	-0.127248	1.750342	0.000008
C15	C	-0.540872	1.602790	0.000037
C16	C	-0.560166	1.871548	0.000041
C17	C	-0.466111	1.874478	0.000031
C18	C	-0.409432	1.741561	0.000027
C19	C	-0.446808	1.605716	0.000032
C20	C	-0.428727	2.010321	0.000042
C21	C	-0.334666	2.013256	0.000035
C22	C	-0.277986	1.880338	0.000019
C23	C	-0.315367	1.744487	0.000022
C24	C	-0.258688	1.611571	0.000018
C25	C	-0.296068	1.475718	0.000010
C26	C	-0.390127	1.472798	0.000016
C27	C	-0.183927	1.883258	0.000012
C28	C	-0.164624	1.614496	0.000013
C29	C	0.302342	1.732591	0.000038
C30	C	0.402449	1.735707	0.000041
C31	C	0.133219	2.012740	0.000032
C32	C	0.136334	2.176522	0.000024
N33	N	0.137597	1.743015	0.425709
N34	N	0.137597	1.743044	-0.425645
H35	H	-0.118481	1.506258	0.000003
O36	O	-0.615129	2.000751	-0.000174
C37	C	-0.660456	2.229520	-0.141781
C38	C	-0.598138	2.083264	-0.141718
H39	H	-0.646754	2.296260	-0.256225
H40	H	-0.646708	2.296468	-0.027519
H41	H	-0.734095	2.204054	-0.141693
H42	H	-0.524477	2.108597	-0.141865
H43	H	-0.611963	2.016360	-0.255970
O44	O	-0.240968	1.346646	-0.000284
C45	C	-0.123520	1.194049	-0.141781
C46	C	-0.185887	1.340253	-0.141673
H47	H	-0.078957	1.188846	-0.256065
H48	H	-0.166341	1.096388	-0.141895
H49	H	-0.079045	1.188720	-0.027380
H50	H	-0.230373	1.345726	-0.256055
H51	H	-0.143012	1.437844	-0.141474
O52	O	-0.298315	2.145177	0.000316
C53	C	-0.203266	2.304422	0.141784
C54	C	-0.244392	2.154986	0.141698
H55	H	-0.159644	2.312388	0.256061
H56	H	-0.259896	2.398977	0.141893
H57	H	-0.159758	2.312487	0.027377
H58	H	-0.287891	2.146777	0.256086
H59	H	-0.187718	2.060503	0.141503
H60	H	-0.474882	2.118534	0.000061
O61	O	-0.147574	2.015172	0.000311
C62	C	-0.052530	2.174407	0.141807
C63	C	-0.093653	2.024968	0.141698
H64	H	-0.008911	2.182363	0.256089
H65	H	-0.109163	2.268959	0.141926
H66	H	-0.009021	2.182487	0.027404
H67	H	-0.137153	2.016743	0.256081
H68	H	-0.036977	1.930488	0.141493
O69	O	-0.577070	1.470737	0.000247
C70	C	-0.589392	1.240156	0.141832
C71	C	-0.548322	1.389640	0.141782
H72	H	-0.566180	1.174559	0.256268
H73	H	-0.566110	1.174374	0.027562
H74	H	-0.666353	1.260920	0.141748
H75	H	-0.471359	1.369010	0.141924
H76	H	-0.571675	1.455374	0.256042
H77	H	-0.420571	1.362194	0.000012
