data_functionalizedCrystal
_audit_creation_method	'MofGen! by Chris Wilmer'
_symmetry_space_group_name_H-M	'P1'
_symmetry_Int_Tables_number	1
_symmetry_cell_setting	triclinic
loop_
_symmetry_equiv_pos_as_xyz
  x,y,z
_cell_length_a	16.959455
_cell_length_b	16.959453
_cell_length_c	16.959447
_cell_angle_alpha	90.031064
_cell_angle_beta	90.016723
_cell_angle_gamma	90.018936
loop_
_atom_site_label
_atom_site_type_symbol
_atom_site_fract_x
_atom_site_fract_y
_atom_site_fract_z
Zn1	Zn	1.208384	-0.314688	0.446955
Zn2	Zn	1.208307	-0.446881	0.314775
Zn3	Zn	1.076213	-0.314718	0.314787
Zn4	Zn	1.076178	-0.446826	0.446908
O5	O	1.142270	-0.380778	0.380856
O6	O	1.318985	-0.332234	0.429436
O7	O	1.190767	-0.429384	0.204166
O8	O	1.093793	-0.204103	0.332344
O9	O	1.318928	-0.429355	0.332324
O10	O	1.190898	-0.204081	0.429448
O11	O	1.093718	-0.332284	0.204175
O12	O	0.965597	-0.332232	0.332299
O13	O	1.093733	-0.429263	0.557525
O14	O	0.965571	-0.429291	0.429367
O15	O	1.190864	-0.332181	0.557560
O16	O	1.190733	-0.557484	0.332278
O17	O	1.093658	-0.557444	0.429355
C18	C	0.936904	-0.380759	0.380830
C19	C	0.849048	-0.380770	0.380837
C20	C	0.807764	-0.330164	0.330379
C21	C	0.807778	-0.431383	0.431307
C22	C	0.725232	-0.431392	0.431318
C23	C	0.683948	-0.380785	0.380860
C24	C	0.725210	-0.330169	0.330391
C25	C	0.683964	-0.482001	0.481793
C26	C	0.601413	-0.482011	0.481807
C27	C	0.560128	-0.431408	0.431344
C28	C	0.601395	-0.380791	0.380872
C29	C	0.560111	-0.330184	0.330414
C30	C	0.601376	-0.279571	0.279937
C31	C	0.683924	-0.279566	0.279928
C32	C	0.477579	-0.431413	0.431353
C33	C	0.477557	-0.330190	0.330426
C34	C	1.142204	-0.586144	0.380827
C35	C	1.142249	-0.674001	0.380841
C36	C	1.192898	-1.045407	0.431513
C37	C	1.091863	-1.045546	0.330317
C38	C	1.091834	-0.963000	0.330298
C39	C	1.142337	-0.921654	0.380889
C40	C	1.192869	-0.962853	0.431499
C41	C	1.041297	-0.921795	0.279696
C42	C	1.041265	-0.839244	0.279676
C43	C	1.091773	-0.797896	0.330264
C44	C	1.142307	-0.839100	0.380875
C45	C	1.192810	-0.797754	0.431465
C46	C	1.243349	-0.838957	0.482073
C47	C	1.243376	-0.921505	0.482086
C48	C	1.091746	-0.715347	0.330250
C49	C	1.192781	-0.715200	0.431451
C50	C	1.348439	-0.380798	0.380884
C51	C	1.436295	-0.380806	0.380895
C52	C	1.142303	-0.380713	0.587025
C53	C	1.142317	-0.380685	0.674881
C54	C	1.142358	-0.174610	0.380903
C55	C	1.142395	-0.086753	0.380923
C56	C	1.142283	-0.380786	0.175490
C57	C	1.142422	-0.380591	0.087634
C58	C	1.091840	-0.431147	1.046342
C59	C	1.192984	-0.330056	1.046373
C60	C	1.192963	-0.330072	0.963827
C61	C	1.142380	-0.380628	0.922534
C62	C	1.091819	-0.431167	0.963788
C63	C	1.243529	-0.279540	0.922567
C64	C	1.243511	-0.279555	0.840016
C65	C	1.192923	-0.330108	0.798722
C66	C	1.142359	-0.380648	0.839981
C67	C	1.091777	-0.431204	0.798688
C68	C	1.041208	-0.481741	0.839946
C69	C	1.041232	-0.481719	0.922494
C70	C	1.192900	-0.330129	0.716174
C71	C	1.091756	-0.431224	0.716135
H72	H	0.443985	-0.472616	0.472456
N73	N	0.986679	-0.536208	0.966991
H74	H	0.994366	-0.528520	1.025551
H75	H	0.998937	-0.592670	0.952553
H76	H	1.284465	-0.805283	0.523268
H77	H	1.284686	-0.238405	0.806432
H78	H	1.000179	-0.955465	0.238510
H79	H	0.567752	-0.238363	0.238857
N80	N	0.728489	-0.536585	0.536208
H81	H	0.787044	-0.528906	0.528534
H82	H	0.714033	-0.593020	0.523805
N83	N	0.556911	-0.536610	0.536237
H84	H	0.498352	-0.528940	0.528587
H85	H	0.571364	-0.524375	0.592709
H86	H	1.050666	-0.472291	1.079937
H87	H	1.234170	-0.288900	1.079998
H88	H	0.717530	-0.238359	0.238833
H89	H	1.000027	-0.522907	0.806315
N90	N	1.247247	-0.670610	0.486025
H91	H	1.239559	-0.612063	0.478341
H92	H	1.303713	-0.685005	0.473779
H93	H	0.841365	-0.288957	0.289279
N94	N	1.247440	-0.275635	0.671674
H95	H	1.279490	-0.243609	0.710359
H96	H	1.215275	-0.239057	0.637435
H97	H	0.443949	-0.288981	0.289335
H98	H	1.234048	-1.078958	0.472714
N99	N	0.852301	-0.485964	0.485726
H100	H	0.910857	-0.478280	0.478060
H101	H	0.837852	-0.542401	0.473321
N102	N	0.986763	-0.794806	0.225092
H103	H	0.954776	-0.833526	0.193046
H104	H	1.018956	-0.760566	0.188537
H105	H	1.284522	-0.955060	0.523288
H106	H	1.284715	-0.238385	0.956193
H107	H	1.050594	-0.681804	0.289051
N108	N	1.037397	-1.090136	0.275751
H109	H	1.045085	-1.148683	0.283439
H110	H	1.049741	-1.075739	0.219310
H111	H	1.050558	-0.472386	0.682520
