data_functionalizedCrystal
_audit_creation_method	'MofGen! by Chris Wilmer'
_symmetry_space_group_name_H-M	'P1'
_symmetry_Int_Tables_number	1
_symmetry_cell_setting	triclinic
loop_
_symmetry_equiv_pos_as_xyz
  x,y,z
_cell_length_a	6.817900
_cell_length_b	10.773894
_cell_length_c	9.582889
_cell_angle_alpha	94.946176
_cell_angle_beta	111.207298
_cell_angle_gamma	96.645922
loop_
_atom_site_label
_atom_site_type_symbol
_atom_site_fract_x
_atom_site_fract_y
_atom_site_fract_z
V1	V	-3.987872	-0.388722	-0.201560
O2	O	-3.934976	-0.381557	0.015345
O3	O	-3.979231	-0.385837	-0.405101
O4	O	-3.904454	-0.558360	-0.195976
O5	O	-4.010270	-0.207840	-0.195228
V6	V	-4.470885	-0.367114	-0.175909
O7	O	-4.250248	-0.436119	-0.257827
O8	O	-4.658707	-0.319717	-0.119641
O9	O	-4.256319	-0.369999	0.027633
O10	O	-4.641179	-0.374279	-0.392813
O11	O	-4.565884	-0.547996	-0.182240
O12	O	-4.331097	-0.197476	-0.181492
C13	C	-3.835038	-0.379647	-0.454798
C14	C	-3.909026	-0.378419	-0.621180
C15	C	-3.739651	-0.599715	-0.188036
C16	C	-3.752994	-0.738393	-0.184818
C17	C	-3.932159	-0.806250	-0.190395
C18	C	-3.945954	-0.949581	-0.187069
C19	C	-4.063857	-0.376186	0.077322
C20	C	-3.969105	-0.377422	0.243703
C21	C	-4.159244	-0.156115	-0.189437
C22	C	-4.125138	-0.017435	-0.192648
H23	H	-4.075330	-0.758230	-0.197623
H24	H	-4.268332	-0.969424	-0.199892
F25	F	-3.565840	-0.801149	-0.175347
H26	H	-3.802760	-0.997593	-0.179821
