data_functionalizedCrystal
_audit_creation_method	'MofGen! by Chris Wilmer'
_symmetry_space_group_name_H-M	'P1'
_symmetry_Int_Tables_number	1
_symmetry_cell_setting	triclinic
loop_
_symmetry_equiv_pos_as_xyz
  x,y,z
_cell_length_a	16.120490
_cell_length_b	21.295417
_cell_length_c	16.120297
_cell_angle_alpha	92.868089
_cell_angle_beta	90.129683
_cell_angle_gamma	87.121864
loop_
_atom_site_label
_atom_site_type_symbol
_atom_site_fract_x
_atom_site_fract_y
_atom_site_fract_z
Zn1	Zn	1.247403	-0.318967	-0.534501
Zn2	Zn	1.580736	0.014366	-0.201168
Zn3	Zn	1.914070	0.347700	0.132165
Zn4	Zn	1.254340	-0.419177	-0.395433
Zn5	Zn	1.587673	-0.085844	-0.062100
Zn6	Zn	1.921006	0.247490	0.271234
Zn7	Zn	1.115394	-0.308324	-0.388424
Zn8	Zn	1.448727	0.025009	-0.055090
Zn9	Zn	1.782061	0.358342	0.278243
Zn10	Zn	1.108296	-0.418591	-0.527406
Zn11	Zn	1.441629	-0.085258	-0.194073
Zn12	Zn	1.774962	0.248075	0.139261
O13	O	1.181358	-0.366265	-0.461441
O14	O	1.514691	-0.032932	-0.128108
O15	O	1.848025	0.300402	0.205226
O16	O	1.364689	-0.336959	-0.521956
O17	O	1.698023	-0.003626	-0.188623
O18	O	2.031356	0.329708	0.144710
O19	O	1.241782	-0.400263	-0.278138
O20	O	1.575116	-0.066930	0.055195
O21	O	1.908449	0.266403	0.388529
O22	O	1.132973	-0.221651	-0.407837
O23	O	1.466306	0.111683	-0.074504
O24	O	1.799639	0.445016	0.258830
O25	O	1.369786	-0.410583	-0.419784
O26	O	1.703119	-0.077250	-0.086450
O27	O	2.036453	0.256084	0.246883
O28	O	1.229959	-0.229470	-0.515160
O29	O	1.563293	0.103864	-0.181826
O30	O	1.896626	0.437197	0.151507
O31	O	1.139699	-0.318820	-0.272988
O32	O	1.473033	0.014513	0.060345
O33	O	1.806366	0.347846	0.393678
O34	O	0.998086	-0.318252	-0.400957
O35	O	1.331419	0.015081	-0.067624
O36	O	1.664753	0.348414	0.265710
O37	O	1.120875	-0.409585	-0.644712
O38	O	1.454208	-0.076251	-0.311379
O39	O	1.787541	0.257082	0.021954
O40	O	0.992871	-0.399265	-0.503067
O41	O	1.326204	-0.065932	-0.169733
O42	O	1.659538	0.267402	0.163600
O43	O	1.223076	-0.336391	-0.649925
O44	O	1.556409	-0.003058	-0.316592
O45	O	1.889743	0.330276	0.016742
O46	O	1.234899	-0.507185	-0.412904
O47	O	1.568232	-0.173851	-0.079570
O48	O	1.901566	0.159482	0.253763
O49	O	1.127601	-0.506754	-0.509863
O50	O	1.460934	-0.173421	-0.176530
O51	O	1.794268	0.159912	0.156803
C52	C	0.965306	-0.357541	-0.450482
C53	C	1.298639	-0.024207	-0.117148
C54	C	1.631973	0.309126	0.216185
C55	C	0.872877	-0.353824	-0.445813
C56	C	1.206210	-0.020491	-0.112480
C57	C	1.539544	0.312842	0.220854
C58	C	0.659911	-0.385537	-0.485659
C59	C	0.993244	-0.052204	-0.152326
C60	C	1.326577	0.281129	0.181007
C61	C	0.703653	-0.347045	-0.437288
C62	C	1.036987	-0.013712	-0.103955
C63	C	1.370320	0.319622	0.229379
C64	C	0.797818	-0.350818	-0.442033
C65	C	1.131151	-0.017485	-0.108699
C66	C	1.464485	0.315848	0.224634
C67	C	0.565737	-0.381765	-0.480916
C68	C	0.899071	-0.048432	-0.147582
C69	C	1.232404	0.284902	0.185751
C70	C	1.181254	-0.529811	-0.461393
C71	C	1.514588	-0.196477	-0.128060
C72	C	1.847921	0.136856	0.205273
C73	C	1.181284	-0.599780	-0.461405
C74	C	1.514618	-0.266447	-0.128071
C75	C	1.847951	0.066886	0.205262
C76	C	1.231753	-0.636661	-0.517324
C77	C	1.565086	-0.303328	-0.183991
C78	C	1.898420	0.030005	0.149343
C79	C	1.231781	-0.702406	-0.517346
C80	C	1.565115	-0.369072	-0.184013
C81	C	1.898448	-0.035739	0.149321
C82	C	1.181351	-0.731267	-0.461434
C83	C	1.514684	-0.397933	-0.128101
C84	C	1.848017	-0.064600	0.205232
C85	C	1.130872	-0.694377	-0.405511
C86	C	1.464205	-0.361044	-0.072177
C87	C	1.797539	-0.027710	0.261156
C88	C	1.130839	-0.628634	-0.405496
C89	C	1.464172	-0.295301	-0.072163
C90	C	1.797506	0.038033	0.261171
N91	N	1.178760	-0.831630	-0.388343
N92	N	1.512093	-0.498296	-0.055009
N93	N	1.845427	-0.164963	0.278324
N94	N	1.178796	-0.894083	-0.388359
N95	N	1.512129	-0.560750	-0.055026
N96	N	1.845463	-0.227416	0.278307
C97	C	1.181446	-0.929346	-0.461477
C98	C	1.514779	-0.596013	-0.128144
C99	C	1.848112	-0.262680	0.205190
N100	N	1.184074	-0.899798	-0.534579
N101	N	1.517407	-0.566465	-0.201246
N102	N	1.850741	-0.233131	0.132087
N103	N	1.184042	-0.837339	-0.534562
N104	N	1.517376	-0.504005	-0.201229
N105	N	1.850709	-0.170672	0.132105
C106	C	1.181380	-0.802553	-0.461445
C107	C	1.514714	-0.469220	-0.128111
C108	C	1.848047	-0.135887	0.205222
C109	C	1.231947	-1.037515	-0.517425
C110	C	1.565281	-0.704182	-0.184091
C111	C	1.898614	-0.370849	0.149242
C112	C	1.231970	-1.103261	-0.517448
C113	C	1.565303	-0.769928	-0.184114
C114	C	1.898637	-0.436594	0.149219
C115	C	1.131065	-1.095231	-0.405605
C116	C	1.464399	-0.761897	-0.072272
C117	C	1.797732	-0.428564	0.261061
C118	C	1.131038	-1.029487	-0.405589
C119	C	1.464372	-0.696153	-0.072256
C120	C	1.797705	-0.362820	0.261077
C121	C	1.181484	-1.000633	-0.461498
C122	C	1.514817	-0.667300	-0.128165
C123	C	1.848150	-0.333966	0.205169
C124	C	1.398254	-0.375023	-0.472443
C125	C	1.731587	-0.041690	-0.139110
C126	C	2.064920	0.291643	0.194223
C127	C	1.490682	-0.378756	-0.477132
C128	C	1.824015	-0.045423	-0.143799
C129	C	2.157348	0.287911	0.189535
C130	C	1.170410	-0.374110	-0.678335
C131	C	1.503743	-0.040776	-0.345001
C132	C	1.837076	0.292557	-0.011668
C133	C	1.165744	-0.377453	-0.770762
C134	C	1.499078	-0.044119	-0.437428
C135	C	1.832411	0.289214	-0.104095
C136	C	1.181484	-0.202082	-0.461508
C137	C	1.514817	0.131251	-0.128175
C138	C	1.848151	0.464585	0.205159
C139	C	1.181538	-0.132117	-0.461536
C140	C	1.514871	0.201216	-0.128203
C141	C	1.848204	0.534550	0.205130
C142	C	1.157196	-0.383541	-0.939986
C143	C	1.490529	-0.050208	-0.606652
C144	C	1.823862	0.283126	-0.273319
C145	C	1.205684	-0.348807	-0.983756
C146	C	1.539018	-0.015473	-0.650423
C147	C	1.872351	0.317860	-0.317089
C148	C	1.200928	-0.352194	-1.077918
C149	C	1.534261	-0.018861	-0.744585
C150	C	1.867595	0.314472	-0.411252
C151	C	1.161951	-0.380154	-0.845815
C152	C	1.495284	-0.046821	-0.512482
C153	C	1.828618	0.286512	-0.179148
C154	C	1.192312	-0.358407	-0.245394
C155	C	1.525645	-0.025074	0.087940
C156	C	1.858978	0.308260	0.421273
C157	C	1.197138	-0.354893	-0.152975
C158	C	1.530472	-0.021560	0.180358
C159	C	1.863805	0.311774	0.513692
H160	H	0.670382	-0.311257	-0.392313
H161	H	1.003716	0.022076	-0.058979
H162	H	1.337049	0.355409	0.274354
Cl163	Cl	0.711276	-0.440795	-0.555084
Cl164	Cl	1.044610	-0.107461	-0.221751
Cl165	Cl	1.377943	0.225872	0.111582
H166	H	1.272826	-0.613171	-0.562850
H167	H	1.606160	-0.279838	-0.229517
H168	H	1.939493	0.053496	0.103816
Cl169	Cl	1.295238	-0.748780	-0.587645
Cl170	Cl	1.628571	-0.415446	-0.254312
Cl171	Cl	1.961905	-0.082113	0.079022
H172	H	1.250768	-0.316525	-0.950511
H173	H	1.584102	0.016809	-0.617178
H174	H	1.917435	0.350142	-0.283844
Cl175	Cl	1.067387	-0.582267	-0.335192
Cl176	Cl	1.400720	-0.248933	-0.001858
Cl177	Cl	1.734054	0.084400	0.331475
Cl178	Cl	1.067468	-0.730658	-0.335226
Cl179	Cl	1.400801	-0.397325	-0.001893
Cl180	Cl	1.734135	-0.063991	0.331440
Cl181	Cl	1.295359	-1.001239	-0.587712
Cl182	Cl	1.628693	-0.667906	-0.254379
Cl183	Cl	1.962026	-0.334573	0.078955
H184	H	1.089998	-1.118728	-0.360086
H185	H	1.423332	-0.785395	-0.026752
H186	H	1.756665	-0.452062	0.306581
Cl187	Cl	1.087596	-0.433381	-0.991311
Cl188	Cl	1.420929	-0.100048	-0.657978
Cl189	Cl	1.754263	0.233286	-0.324645
H190	H	1.273067	-1.133289	-0.562988
H191	H	1.606400	-0.799956	-0.229655
H192	H	1.939734	-0.466622	0.103679
H193	H	1.089946	-0.999456	-0.360051
H194	H	1.423279	-0.666123	-0.026718
H195	H	1.756612	-0.332789	0.306616
