data_functionalizedCrystal
_audit_creation_method	'MofGen! by Chris Wilmer'
_symmetry_space_group_name_H-M	'P1'
_symmetry_Int_Tables_number	1
_symmetry_cell_setting	triclinic
loop_
_symmetry_equiv_pos_as_xyz
  x,y,z
_cell_length_a	15.995343
_cell_length_b	15.995350
_cell_length_c	15.072220
_cell_angle_alpha	89.991130
_cell_angle_beta	89.989711
_cell_angle_gamma	96.509221
loop_
_atom_site_label
_atom_site_type_symbol
_atom_site_fract_x
_atom_site_fract_y
_atom_site_fract_z
O1	O	1.110976	-0.107905	0.073689
O2	O	0.867200	-0.121239	0.073710
O3	O	0.995752	0.007316	0.073698
O4	O	0.982424	-0.236460	0.073701
O5	O	0.995768	0.007338	-0.073867
O6	O	0.867216	-0.121217	-0.073855
O7	O	1.110992	-0.107882	-0.073876
Zn8	Zn	0.989107	-0.114546	-0.097295
Zn9	Zn	0.989085	-0.114575	0.097129
O10	O	0.982440	-0.236437	-0.073864
C11	C	0.836013	-0.120678	-0.000070
C12	C	0.743062	-0.119028	-0.000062
C13	C	0.995209	0.038522	-0.000083
C14	C	0.993557	0.131472	-0.000078
N15	N	0.989128	-0.114525	-0.229984
C16	C	0.572876	-0.116035	-0.000074
C17	C	0.549530	-0.023238	-0.000075
C18	C	0.452852	-0.021492	-0.000415
C19	C	0.405316	-0.113086	-0.000085
C20	C	0.434417	-0.159733	-0.084183
C21	C	0.531209	-0.160834	-0.084249
C22	C	0.531101	-0.162218	0.083566
C23	C	0.434606	-0.158793	0.084666
C24	C	0.310618	-0.111425	-0.000094
C25	C	0.667574	-0.117699	-0.000071
C26	C	1.142179	-0.108444	-0.000094
C27	C	1.235130	-0.110093	-0.000097
C28	C	0.982983	-0.267643	-0.000082
C29	C	0.984635	-0.360594	-0.000081
C30	C	0.987625	0.469220	-0.000080
C31	C	0.896072	0.421783	0.000259
C32	C	0.897725	0.325093	-0.000074
C33	C	0.990567	0.301659	-0.000078
C34	C	1.035733	0.342751	-0.084348
C35	C	1.033434	0.439386	-0.084418
C36	C	1.035306	0.439719	0.083391
C37	C	1.035284	0.342773	0.084505
C38	C	0.992235	0.206962	-0.000080
C39	C	0.985960	0.563917	-0.000084
N40	N	0.989071	-0.114590	0.229817
C41	C	0.989109	-0.114546	0.589019
C42	C	0.920397	-0.183408	0.551418
C43	C	0.920141	-0.183244	0.448592
C44	C	0.989090	-0.114568	0.410815
C45	C	0.970238	-0.027133	0.448123
C46	C	0.969755	-0.027524	0.550981
C47	C	1.076876	-0.132339	0.551097
C48	C	1.076280	-0.134337	0.448233
C49	C	0.989081	-0.114575	0.310101
C50	C	0.989116	-0.114533	0.689732
H51	H	0.433826	0.015024	0.059858
H52	H	1.018959	0.025345	0.423650
Br53	Br	1.100135	-0.241547	0.407602
Br54	Br	0.575871	-0.107591	-0.189428
Br55	Br	0.835065	0.452648	0.100984
H56	H	0.859649	0.441385	-0.059830
Br57	Br	1.107171	-0.236343	0.594359
H58	H	0.906968	-0.011112	0.422363
Br59	Br	0.838170	0.278655	-0.100916
H60	H	0.545783	-0.228884	-0.087844
H61	H	1.129789	-0.087457	0.422515
H62	H	1.100650	0.471637	-0.088244
H63	H	0.402571	-0.227144	-0.087074
H64	H	0.545114	-0.230523	0.084378
H65	H	0.855628	-0.172180	0.577274
H66	H	1.128008	-0.082127	0.575415
H67	H	1.000512	0.457697	-0.147407
H68	H	1.102807	0.471482	0.083954
H69	H	0.401649	-0.225626	0.090006
H70	H	1.103943	0.328627	-0.087485
H71	H	0.905753	-0.011878	0.574979
H72	H	0.855002	-0.171859	0.423995
Br73	Br	0.983474	0.295465	-0.188867
Br74	Br	0.400945	-0.106361	-0.188899
Br75	Br	1.148129	0.317166	0.092989
H76	H	0.931337	-0.248230	0.423370
H77	H	1.005366	0.460248	0.147262
Br78	Br	0.596198	0.036704	0.100429
H79	H	0.578521	0.012154	-0.060294
Br80	Br	1.050013	0.060465	0.592440
Br81	Br	0.980706	0.296801	0.188427
H82	H	0.559364	-0.132950	0.147330
Br83	Br	0.422124	0.039098	-0.101496
Br84	Br	0.938745	-0.292080	0.592675
H85	H	0.862222	0.296661	0.060334
Br86	Br	0.403699	-0.102155	0.188370
