data_functionalizedCrystal
_audit_creation_method	'MofGen! by Chris Wilmer'
_symmetry_space_group_name_H-M	'P1'
_symmetry_Int_Tables_number	1
_symmetry_cell_setting	triclinic
loop_
_symmetry_equiv_pos_as_xyz
  x,y,z
_cell_length_a	12.645330
_cell_length_b	19.805407
_cell_length_c	19.805399
_cell_angle_alpha	90.019197
_cell_angle_beta	89.978279
_cell_angle_gamma	89.986158
loop_
_atom_site_label
_atom_site_type_symbol
_atom_site_fract_x
_atom_site_fract_y
_atom_site_fract_z
Zn1	Zn	-0.422173	-1.034777	-0.382740
Zn2	Zn	-0.599451	-1.034709	-0.269564
Zn3	Zn	-0.422190	-0.921591	-0.269566
Zn4	Zn	-0.599383	-0.921572	-0.382711
O5	O	-0.510799	-0.978162	-0.326145
O6	O	-0.445710	-1.129484	-0.367739
O7	O	-0.575973	-1.019683	-0.174847
O8	O	-0.273841	-0.936642	-0.284592
O9	O	-0.575956	-1.129434	-0.284588
O10	O	-0.273828	-1.019799	-0.367741
O11	O	-0.445740	-0.936576	-0.174849
O12	O	-0.445674	-0.826872	-0.284563
O13	O	-0.575840	-0.936609	-0.477432
O14	O	-0.575856	-0.826858	-0.367691
O15	O	-0.445644	-1.019780	-0.477453
O16	O	-0.747789	-1.019664	-0.284560
O17	O	-0.747739	-0.936543	-0.367689
C18	C	-0.510760	-0.802306	-0.326125
C19	C	-0.510769	-0.727074	-0.326132
C20	C	-0.443069	-0.691757	-0.369493
C21	C	-0.443073	-0.621068	-0.369494
C22	C	-0.510782	-0.585699	-0.326136
C23	C	-0.578485	-0.621021	-0.282770
C24	C	-0.578476	-0.691708	-0.282766
C25	C	-0.578524	-0.335948	-0.282784
C26	C	-0.578530	-0.265256	-0.282793
C27	C	-0.443121	-0.265308	-0.369512
C28	C	-0.443111	-0.335995	-0.369508
C29	C	-0.510810	-0.371311	-0.326139
C30	C	-0.510804	-0.447960	-0.326138
C31	C	-0.510794	-0.509051	-0.326141
C32	C	-0.786229	-0.978113	-0.326136
C33	C	-0.904059	-0.978154	-0.326154
C34	C	-1.071636	-0.926078	-0.378612
C35	C	-0.949076	-0.925811	-0.378443
C36	C	-0.948645	-0.958847	-0.254822
C37	C	-1.071243	-0.958529	-0.255141
C38	C	-1.071157	-1.049854	-0.344450
C39	C	-0.948551	-1.049415	-0.346010
C40	C	-0.234294	-0.978230	-0.326170
C41	C	-0.116464	-0.978259	-0.326180
C42	C	-0.510732	-0.978200	-0.502688
C43	C	-0.510704	-0.978216	-0.577920
C44	C	-0.510831	-0.154705	-0.326160
C45	C	-0.510824	-0.229937	-0.326151
C46	C	-0.442908	-1.021524	-0.613277
C47	C	-0.442877	-1.021531	-0.683965
C48	C	-0.510649	-0.978233	-0.719296
C49	C	-0.578448	-0.934920	-0.683934
C50	C	-0.578472	-0.934910	-0.613247
C51	C	-0.578349	-0.934958	-0.969008
C52	C	-0.578321	-0.934973	-1.039700
C53	C	-0.442754	-1.021579	-1.039726
C54	C	-0.442778	-1.021570	-0.969038
C55	C	-0.510573	-0.978254	-0.933683
C56	C	-0.510604	-0.978247	-0.857035
C57	C	-0.510624	-0.978244	-0.795943
C58	C	-0.510789	-0.978163	-0.150289
C59	C	-0.510519	-0.978278	-0.075058
H60	H	-0.633649	-0.364694	-0.247472
H61	H	-0.633625	-0.899664	-0.712706
F62	F	-1.109064	-1.100671	-0.294544
H63	H	-1.100901	-0.994887	-0.214742
F64	F	-0.908631	-0.891152	-0.234226
H65	H	-0.919835	-0.872734	-0.366339
F66	F	-0.650628	-0.888814	-0.575619
F67	F	-0.650541	-0.583376	-0.236622
H68	H	-0.387979	-0.364789	-0.404816
F69	F	-0.371007	-0.729393	-0.415644
F70	F	-1.111479	-1.072875	-0.411283
H71	H	-1.099928	-0.906193	-0.239663
F72	F	-0.650532	-0.729295	-0.236616
H73	H	-0.919406	-1.063974	-0.398507
H74	H	-0.387947	-0.592316	-0.404805
H75	H	-0.633670	-0.236460	-0.247483
F76	F	-0.370756	-1.067649	-0.721591
F77	F	-0.370780	-1.067613	-0.575681
F78	F	-0.371066	-0.227716	-0.415667
H79	H	-0.918928	-0.937890	-0.431336
H80	H	-0.387595	-1.056830	-0.940276
F81	F	-0.910536	-1.006949	-0.202363
H82	H	-0.917901	-1.090340	-0.310602
H83	H	-1.102530	-0.873332	-0.366662
H84	H	-1.101053	-0.938046	-0.431678
H85	H	-0.387548	-1.056846	-1.068520
H86	H	-0.633511	-0.899712	-1.068464
H87	H	-0.633567	-0.899699	-0.940230
