data_functionalizedCrystal
_audit_creation_method	'MofGen! by Chris Wilmer'
_symmetry_space_group_name_H-M	'P1'
_symmetry_Int_Tables_number	1
_symmetry_cell_setting	triclinic
loop_
_symmetry_equiv_pos_as_xyz
  x,y,z
_cell_length_a	14.853567
_cell_length_b	16.109301
_cell_length_c	14.586319
_cell_angle_alpha	90.000787
_cell_angle_beta	90.000002
_cell_angle_gamma	96.451795
loop_
_atom_site_label
_atom_site_type_symbol
_atom_site_fract_x
_atom_site_fract_y
_atom_site_fract_z
O1	O	0.115881	-1.103294	-0.076175
O2	O	0.449214	-0.769960	0.257159
O3	O	0.782547	-0.436627	0.590492
O4	O	0.130302	-0.861252	-0.076188
O5	O	0.463635	-0.527919	0.257145
O6	O	0.796969	-0.194585	0.590479
O7	O	-0.008149	-0.988738	-0.076184
O8	O	0.325184	-0.655405	0.257150
O9	O	0.658517	-0.322071	0.590483
O10	O	0.254332	-0.975807	-0.076179
O11	O	0.587665	-0.642474	0.257154
O12	O	0.920998	-0.309141	0.590488
O13	O	-0.008151	-0.988729	0.076297
O14	O	0.325182	-0.655396	0.409630
O15	O	0.658515	-0.322062	0.742964
O16	O	0.130300	-0.861243	0.076293
O17	O	0.463633	-0.527910	0.409626
O18	O	0.796966	-0.194576	0.742959
O19	O	0.115879	-1.103285	0.076306
O20	O	0.449212	-0.769951	0.409640
O21	O	0.782545	-0.436618	0.742973
Cu22	Cu	0.123089	-0.982263	0.090222
Cu23	Cu	0.456422	-0.648930	0.423555
Cu24	Cu	0.789756	-0.315596	0.756889
Cu25	Cu	0.123091	-0.982274	-0.090104
Cu26	Cu	0.456425	-0.648940	0.243229
Cu27	Cu	0.789758	-0.315607	0.576563
O28	O	0.254330	-0.975799	0.076302
O29	O	0.587663	-0.642465	0.409635
O30	O	0.920996	-0.309132	0.742969
C31	C	0.129717	-0.830272	0.000050
C32	C	0.463050	-0.496938	0.333384
C33	C	0.796383	-0.163605	0.666717
C34	C	0.127965	-0.737974	0.000045
C35	C	0.461299	-0.404641	0.333378
C36	C	0.794632	-0.071307	0.666712
C37	C	-0.041738	-0.988148	0.000054
C38	C	0.291595	-0.654814	0.333387
C39	C	0.624929	-0.321481	0.666721
C40	C	-0.141819	-0.986392	0.000046
C41	C	0.191515	-0.653059	0.333379
C42	C	0.524848	-0.319725	0.666713
C43	C	0.116464	-1.134265	0.000066
C44	C	0.449797	-0.800932	0.333399
C45	C	0.783130	-0.467598	0.666732
C46	C	0.118215	-1.226563	0.000065
C47	C	0.451549	-0.893229	0.333399
C48	C	0.784882	-0.559896	0.666732
C49	C	-0.554215	-0.903241	0.000059
C50	C	-0.220882	-0.569907	0.333392
C51	C	0.112451	-0.236574	0.666725
C52	C	-0.575746	-1.054697	0.000067
C53	C	-0.242413	-0.721364	0.333400
C54	C	0.090920	-0.388030	0.666734
C55	C	-0.481715	-1.056348	0.000062
C56	C	-0.148382	-0.723015	0.333395
C57	C	0.184951	-0.389681	0.666728
C58	C	-0.423930	-0.981444	0.000056
C59	C	-0.090596	-0.648111	0.333390
C60	C	0.242737	-0.314777	0.666723
C61	C	-0.460175	-0.904889	0.000056
C62	C	-0.126842	-0.571556	0.333389
C63	C	0.206491	-0.238223	0.666723
C64	C	-0.445463	-1.132901	0.000071
C65	C	-0.112129	-0.799568	0.333405
C66	C	0.221204	-0.466235	0.666738
C67	C	-0.351426	-1.134555	0.000067
C68	C	-0.018093	-0.801222	0.333400
C69	C	0.315240	-0.467889	0.666734
C70	C	-0.293639	-1.059650	0.000055
C71	C	0.039694	-0.726317	0.333388
C72	C	0.373028	-0.392984	0.666722
C73	C	-0.329890	-0.983093	0.000054
C74	C	0.003444	-0.649759	0.333387
C75	C	0.336777	-0.316426	0.666720
C76	C	-0.272104	-0.908189	0.000048
C77	C	0.061229	-0.574855	0.333382
C78	C	0.394563	-0.241522	0.666715
C79	C	-0.308353	-0.831630	0.000040
C80	C	0.024980	-0.498296	0.333374
C81	C	0.358314	-0.164963	0.666707
C82	C	-0.402388	-0.829984	0.000044
C83	C	-0.069054	-0.496651	0.333377
C84	C	0.264279	-0.163318	0.666711
C85	C	-0.199604	-1.061296	0.000051
C86	C	0.133729	-0.727963	0.333385
C87	C	0.467062	-0.394629	0.666718
C88	C	-0.178064	-0.909837	0.000046
C89	C	0.155269	-0.576504	0.333379
C90	C	0.488603	-0.243171	0.666712
C91	C	0.287918	-0.976389	0.000062
C92	C	0.621252	-0.643056	0.333395
C93	C	0.954585	-0.309722	0.666729
C94	C	0.387999	-0.978145	0.000064
C95	C	0.721333	-0.644811	0.333397
C96	C	1.054666	-0.311478	0.666731
N97	N	0.123087	-0.982262	0.217054
N98	N	0.456420	-0.648928	0.550387
N99	N	0.789753	-0.315595	0.883721
C100	C	0.206047	-0.515811	0.000057
C101	C	0.539380	-0.182478	0.333390
C102	C	0.872714	0.150855	0.666724
C103	C	0.204395	-0.429089	0.000063
C104	C	0.537728	-0.095755	0.333396
C105	C	0.871061	0.237578	0.666729
C106	C	0.040127	-0.448732	0.000056
C107	C	0.373460	-0.115399	0.333389
C108	C	0.706794	0.217935	0.666723
C109	C	0.041781	-0.535453	0.000057
C110	C	0.375114	-0.202120	0.333390
C111	C	0.708447	0.131213	0.666723
C112	C	0.124743	-0.568990	0.000052
C113	C	0.458077	-0.235657	0.333386
C114	C	0.791410	0.097677	0.666719
C115	C	0.121437	-0.395546	0.000058
C116	C	0.454770	-0.062213	0.333391
C117	C	0.788104	0.271120	0.666724
C118	C	0.119645	-0.301518	0.000064
C119	C	0.452978	0.031815	0.333397
C120	C	0.786311	0.365149	0.666731
C121	C	0.126536	-0.663025	0.000048
C122	C	0.459870	-0.329691	0.333381
C123	C	0.793203	0.003642	0.666714
N124	N	0.123087	-0.982281	-0.216936
N125	N	0.456420	-0.648948	0.116398
N126	N	0.789753	-0.315615	0.449731
C127	C	0.061801	-1.038731	0.452062
C128	C	0.395135	-0.705398	0.785396
C129	C	0.728468	-0.372065	1.118729
C130	C	0.061799	-1.038734	0.548044
C131	C	0.395132	-0.705400	0.881377
C132	C	0.728466	-0.372067	1.214710
C133	C	0.184375	-0.925806	0.548049
C134	C	0.517708	-0.592472	0.881382
C135	C	0.851042	-0.259139	1.214716
C136	C	0.184372	-0.925800	0.452070
C137	C	0.517706	-0.592467	0.785403
C138	C	0.851039	-0.259133	1.118736
C139	C	0.123086	-0.982268	0.404079
C140	C	0.456420	-0.648934	0.737412
C141	C	0.789753	-0.315601	1.070745
C142	C	0.123087	-0.982276	0.596039
C143	C	0.456420	-0.648942	0.929373
C144	C	0.789754	-0.315609	1.262706
C145	C	0.123085	-0.982278	0.700107
C146	C	0.456418	-0.648944	1.033440
C147	C	0.789752	-0.315611	1.366773
C148	C	0.123087	-0.982265	0.300005
C149	C	0.456420	-0.648931	0.633338
C150	C	0.789754	-0.315598	0.966672
H151	H	-0.131020	-0.848840	0.000037
H152	H	0.202313	-0.515507	0.333371
H153	H	0.535646	-0.182174	0.666704
H154	H	-0.261292	-0.770643	0.000042
H155	H	0.072042	-0.437310	0.333376
H156	H	0.405375	-0.103977	0.666709
O157	O	-0.004319	-1.099609	0.400293
O158	O	0.329015	-0.766275	0.733626
O159	O	0.662348	-0.432942	1.066960
H160	H	0.033626	-1.140066	0.356555
H161	H	0.366959	-0.806732	0.689888
H162	H	0.700293	-0.473399	1.023221
O163	O	-0.312329	-1.217123	0.000054
O164	O	0.021004	-0.883790	0.333387
O165	O	0.354337	-0.550457	0.666721
H166	H	-0.368310	-1.268930	0.000048
H167	H	-0.034977	-0.935597	0.333381
H168	H	0.298356	-0.602264	0.666714
O169	O	0.250478	-0.864900	0.400305
O170	O	0.583812	-0.531567	0.733638
O171	O	0.917145	-0.198233	1.066971
H172	H	0.293105	-0.825645	0.449799
H173	H	0.626438	-0.492311	0.783132
H174	H	0.959771	-0.158978	1.116465
H175	H	-0.622800	-1.115680	0.000079
H176	H	-0.289467	-0.782347	0.333412
H177	H	0.043866	-0.449014	0.666746
H178	H	-0.583733	-0.840908	0.000049
H179	H	-0.250400	-0.507575	0.333382
H180	H	0.082933	-0.174242	0.666715
H181	H	-0.024431	-0.578754	0.000056
H182	H	0.308902	-0.245421	0.333389
H183	H	0.642236	0.087913	0.666722
H184	H	-0.431911	-0.767654	0.000039
H185	H	-0.098577	-0.434321	0.333372
H186	H	0.234756	-0.100988	0.666705
O187	O	-0.507783	-1.213688	0.000090
O188	O	-0.174450	-0.880355	0.333424
O189	O	0.158884	-0.547021	0.666757
H190	H	-0.579260	-1.199678	0.000083
H191	H	-0.245927	-0.866344	0.333417
H192	H	0.087406	-0.533011	0.666750
O193	O	-0.160502	-1.143858	0.000054
O194	O	0.172831	-0.810525	0.333387
O195	O	0.506165	-0.477191	0.666720
H196	H	-0.216482	-1.195666	0.000055
H197	H	0.116851	-0.862333	0.333388
H198	H	0.450185	-0.528999	0.666721
H199	H	0.273601	-0.543114	0.000060
H200	H	0.606934	-0.209781	0.333394
H201	H	0.940267	0.123553	0.666727
O202	O	0.292086	-0.371728	0.000065
O203	O	0.625419	-0.038395	0.333398
O204	O	0.958752	0.294939	0.666731
H205	H	0.350048	-0.409621	0.000056
H206	H	0.683381	-0.076288	0.333390
H207	H	1.016715	0.257045	0.666723
H208	H	0.234274	-0.879832	0.587133
H209	H	0.567607	-0.546499	0.920466
H210	H	0.900941	-0.213166	1.253800
H211	H	0.011894	-1.084711	0.587109
H212	H	0.345227	-0.751377	0.920443
H213	H	0.678561	-0.418044	1.253776
O214	O	-0.049352	-0.412561	0.000054
O215	O	0.283981	-0.079228	0.333387
O216	O	0.617314	0.254105	0.666720
H217	H	-0.036845	-0.343324	0.000045
H218	H	0.296488	-0.009991	0.333379
H219	H	0.629822	0.323342	0.666712
