data_functionalizedCrystal
_audit_creation_method	'MofGen! by Chris Wilmer'
_symmetry_space_group_name_H-M	'P1'
_symmetry_Int_Tables_number	1
_symmetry_cell_setting	triclinic
loop_
_symmetry_equiv_pos_as_xyz
  x,y,z
_cell_length_a	14.519709
_cell_length_b	10.065875
_cell_length_c	10.908937
_cell_angle_alpha	96.607309
_cell_angle_beta	108.116950
_cell_angle_gamma	98.757930
loop_
_atom_site_label
_atom_site_type_symbol
_atom_site_fract_x
_atom_site_fract_y
_atom_site_fract_z
O1	O	1.214219	0.113313	-0.149462
O2	O	0.942686	0.113355	-0.169271
O3	O	1.114445	0.113324	0.027480
O4	O	1.042459	0.113344	-0.346212
O5	O	1.081670	-0.113658	-0.010189
O6	O	0.909910	-0.113628	-0.206939
O7	O	1.181443	-0.113670	-0.187130
Zn8	Zn	1.040473	-0.149687	-0.203016
Zn9	Zn	1.083656	0.149373	-0.153386
O10	O	1.009684	-0.113639	-0.383881
C11	C	0.892082	-0.000131	-0.187181
C12	C	0.790130	-0.000115	-0.184411
N13	N	1.011009	-0.353787	-0.236886
C14	C	1.073400	-0.421577	-0.165162
C15	C	1.050729	-0.578741	-0.191239
C16	C	0.416800	-0.000178	-0.174233
C17	C	0.520673	-0.000160	-0.177059
C18	C	0.603462	-0.000145	-0.179321
C19	C	0.707341	-0.000130	-0.182149
C20	C	1.232048	-0.000180	-0.169220
C21	C	1.334000	-0.000187	-0.171988
N22	N	1.113129	0.353473	-0.119505
C23	C	1.104785	-0.000166	0.056471
C24	C	1.124821	-0.000164	0.198977
C25	C	1.019344	-0.000145	-0.412872
C26	C	0.999310	-0.000139	-0.555376
C27	C	1.072415	-0.000151	0.395441
C28	C	1.051706	-0.000151	0.248154
H29	H	1.143597	-0.363266	-0.084446
C30	C	1.228807	0.000035	0.288088
C31	C	1.293218	0.116788	0.284071
C32	C	1.389018	0.117009	0.366128
H33	H	1.229070	0.000106	0.375278
H34	H	1.249847	-0.079083	0.259266
H35	H	1.272184	0.195886	0.312900
H36	H	1.292986	0.116742	0.196902
H37	H	1.410057	0.037892	0.337306
H38	H	1.389270	0.117077	0.453312
H39	H	1.432733	0.196218	0.363404
H40	H	0.980522	-0.637049	-0.271951
H41	H	1.183331	-0.588219	-0.038784
H42	H	0.940806	-0.412101	-0.317593
C43	C	0.895486	-0.000053	0.355186
C44	C	0.895594	-0.000022	0.226887
C45	C	0.799970	0.000076	0.144468
H46	H	0.851551	-0.079178	0.357562
H47	H	0.874488	0.079140	0.383921
H48	H	0.916579	-0.079208	0.198159
H49	H	0.939509	0.079097	0.224469
H50	H	0.778972	0.079269	0.173204
H51	H	0.756042	-0.079051	0.146856
H52	H	0.800032	0.000109	0.057411
H53	H	1.150333	-0.000170	0.462374
H54	H	0.973780	-0.000149	0.181223
