data_functionalizedCrystal
_audit_creation_method	'MofGen! by Chris Wilmer'
_symmetry_space_group_name_H-M	'P1'
_symmetry_Int_Tables_number	1
_symmetry_cell_setting	triclinic
loop_
_symmetry_equiv_pos_as_xyz
  x,y,z
_cell_length_a	13.339070
_cell_length_b	11.792241
_cell_length_c	11.804365
_cell_angle_alpha	101.912841
_cell_angle_beta	74.875130
_cell_angle_gamma	99.911355
loop_
_atom_site_label
_atom_site_type_symbol
_atom_site_fract_x
_atom_site_fract_y
_atom_site_fract_z
O1	O	1.365765	0.553461	-0.099072
O2	O	1.070826	0.478649	-0.099065
O3	O	1.225451	0.353090	-0.099061
O4	O	1.211140	0.679019	-0.099077
O5	O	1.184744	0.386099	0.098994
O6	O	1.030119	0.511657	0.098990
O7	O	1.325058	0.586469	0.098982
Cu8	Cu	1.173871	0.552077	0.117070
Cu9	Cu	1.222012	0.513041	-0.117153
O10	O	1.170433	0.712028	0.098978
C11	C	1.012714	0.482516	-0.000037
C12	C	0.900205	0.444847	-0.000034
C13	C	1.204198	0.327026	-0.000034
C14	C	1.201507	0.200184	-0.000035
C15	C	0.537025	0.737736	-0.000067
C16	C	0.642733	0.773130	-0.000074
C17	C	0.707106	0.691063	-0.000063
C18	C	0.665761	0.573594	-0.000047
C19	C	0.560044	0.538195	-0.000050
C20	C	0.730125	0.491522	-0.000046
C21	C	0.688780	0.374054	-0.000030
C22	C	0.583073	0.338660	-0.000032
C23	C	0.518700	0.420728	-0.000042
C24	C	0.835842	0.526921	-0.000043
C25	C	0.858861	0.327380	-0.000026
C26	C	0.753153	0.291986	-0.000019
C27	C	1.196562	-0.032056	-0.000054
C28	C	1.199310	0.097178	-0.000044
C29	C	1.383171	0.582602	-0.000049
C30	C	1.495681	0.620269	-0.000060
C31	C	1.191686	0.738091	-0.000052
C32	C	1.194379	0.864933	-0.000059
N33	N	1.140019	0.579535	0.281810
N34	N	1.255873	0.485577	-0.281892
C35	C	1.337164	0.419619	0.655764
C36	C	1.362772	0.398842	0.531103
C37	C	1.307086	0.444013	0.468774
C38	C	1.225788	0.509965	0.531117
C39	C	1.200182	0.530752	0.655790
C40	C	1.170104	0.555146	0.468800
C41	C	1.088806	0.621099	0.531144
C42	C	1.063204	0.641881	0.655804
C43	C	1.118891	0.596710	0.718134
C44	C	1.195709	0.534359	0.344127
C45	C	1.058727	0.645493	0.344153
C46	C	1.033119	0.666270	0.468814
H47	H	0.793178	0.719887	-0.000072
O48	O	0.984366	0.706117	0.716423
C49	C	0.934717	0.878005	0.857228
C50	C	1.024101	0.805386	0.788633
H51	H	0.966805	0.958266	0.915646
H52	H	0.899313	0.906817	0.791327
H53	H	0.871836	0.822635	0.915557
H54	H	1.087048	0.860684	0.730302
H55	H	1.059421	0.776563	0.854598
H56	H	0.676391	0.868771	-0.000096
O57	O	1.004461	0.689307	0.283750
C58	C	0.836467	0.693915	0.245577
C59	C	0.897780	0.644232	0.314089
H60	H	0.750208	0.657473	0.270062
H61	H	0.845045	0.793231	0.270097
H62	H	0.868782	0.667759	0.145773
H63	H	0.865507	0.670300	0.413909
H64	H	0.889204	0.544924	0.289470
H65	H	0.966925	0.719970	0.519590
O66	O	0.543067	0.224516	0.000029
C67	C	0.577072	0.030323	-0.000022
C68	C	0.622505	0.159557	-0.000064
H69	H	0.641281	-0.022237	-0.000122
H70	H	0.511150	0.022518	0.082883
H71	H	0.545157	-0.004998	-0.082889
H72	H	0.654478	0.194962	0.082747
H73	H	0.688381	0.167286	-0.083023
H74	H	1.428965	0.345146	0.480347
O75	O	0.474424	0.817309	-0.000239
C76	C	0.362852	0.876064	-0.102905
C77	C	0.433702	0.785841	-0.102842
H78	H	0.329926	0.850668	-0.185862
H79	H	0.295685	0.878275	-0.020080
H80	H	0.410562	0.966102	-0.102852
H81	H	0.386081	0.695758	-0.102936
H82	H	0.500872	0.783732	-0.185659
O83	O	0.713137	0.177820	-0.000172
C84	C	0.721506	-0.020651	-0.102806
C85	C	0.766938	0.108593	-0.102766
H86	H	0.764970	-0.076655	-0.185756
H87	H	0.730966	-0.049159	-0.019973
H88	H	0.634886	-0.031806	-0.102751
H89	H	0.853568	0.119846	-0.102862
H90	H	0.757397	0.137041	-0.185591
H91	H	0.432623	0.391915	-0.000036
O92	O	1.391226	0.375551	0.716185
C93	C	1.441621	0.202954	0.754416
C94	C	1.380373	0.252713	0.685890
H95	H	1.432850	0.103632	0.729967
H96	H	1.527930	0.239193	0.729871
H97	H	1.409363	0.229206	0.854218
H98	H	1.412542	0.226480	0.586073
H99	H	1.294072	0.216477	0.710534
O100	O	0.921517	0.247731	-0.000173
C101	C	1.075290	0.154744	-0.102806
C102	C	1.004428	0.244993	-0.102768
H103	H	1.142327	0.152483	-0.185758
H104	H	1.108399	0.180138	-0.019975
H105	H	1.027551	0.064728	-0.102748
H106	H	1.052095	0.335040	-0.102868
H107	H	0.971313	0.219498	-0.185592
O108	O	1.274551	0.470085	0.283669
C109	C	1.340652	0.284772	0.245727
C110	C	1.251282	0.357448	0.314220
H111	H	1.321881	0.193699	0.270421
H112	H	1.349430	0.277527	0.145893
H113	H	1.416852	0.329329	0.270224
H114	H	1.175032	0.312951	0.289823
H115	H	1.242596	0.364698	0.414037
O116	O	1.332143	0.423877	0.347679
C117	C	1.465213	0.447585	0.168749
C118	C	1.436981	0.470453	0.305893
H119	H	1.549967	0.485252	0.134924
H120	H	1.455134	0.349491	0.134854
H121	H	1.411400	0.491156	0.134939
H122	H	1.490770	0.426954	0.339805
H123	H	1.447029	0.568563	0.339707
H124	H	1.098038	0.613622	0.819643
H125	H	0.869493	0.622565	-0.000052
