data_functionalizedCrystal
_audit_creation_method	'MofGen! by Chris Wilmer'
_symmetry_space_group_name_H-M	'P1'
_symmetry_Int_Tables_number	1
_symmetry_cell_setting	triclinic
loop_
_symmetry_equiv_pos_as_xyz
  x,y,z
_cell_length_a	15.995350
_cell_length_b	27.731996
_cell_length_c	14.472310
_cell_angle_alpha	89.992904
_cell_angle_beta	89.990621
_cell_angle_gamma	83.056881
loop_
_atom_site_label
_atom_site_type_symbol
_atom_site_fract_x
_atom_site_fract_y
_atom_site_fract_z
O1	O	1.110170	0.062303	-0.076775
O2	O	1.610170	0.562303	0.423225
O3	O	0.866293	0.069997	-0.076796
O4	O	1.366293	0.569997	0.423204
O5	O	0.995829	-0.004216	-0.076765
O6	O	1.495829	0.495784	0.423235
O7	O	0.980635	0.136516	-0.076806
O8	O	1.480635	0.636516	0.423194
O9	O	0.995795	-0.004212	0.076917
O10	O	1.495795	0.495788	0.576917
O11	O	0.866260	0.070001	0.076886
O12	O	1.366260	0.570001	0.576886
O13	O	1.110137	0.062307	0.076907
O14	O	1.610137	0.562307	0.576907
Cu15	Cu	0.988195	0.066154	0.090929
Cu16	Cu	1.488195	0.566154	0.590929
Cu17	Cu	0.988235	0.066149	-0.090818
Cu18	Cu	1.488235	0.566149	0.409182
O19	O	0.980601	0.136520	0.076876
O20	O	1.480601	0.636520	0.576876
C21	C	0.835086	0.069681	0.000043
C22	C	1.335086	0.569681	0.500043
C23	C	0.742148	0.068727	0.000036
C24	C	1.242148	0.568727	0.500036
C25	C	0.404446	0.065303	0.000056
C26	C	0.904446	0.565303	0.500056
C27	C	0.452581	0.012450	0.000415
C28	C	0.952581	0.512450	0.500415
C29	C	0.549259	0.013403	0.000062
C30	C	1.049259	0.513403	0.500062
C31	C	0.571984	0.067001	0.000047
C32	C	1.071984	0.567001	0.500047
C33	C	0.530570	0.093068	-0.087717
C34	C	1.030570	0.593068	0.412283
C35	C	0.433952	0.091740	-0.087784
C36	C	0.933952	0.591740	0.412216
C37	C	0.433561	0.092837	0.086981
C38	C	0.933561	0.592837	0.586981
C39	C	0.530506	0.092824	0.088135
C40	C	1.030506	0.592824	0.588135
C41	C	0.666669	0.067964	0.000038
C42	C	1.166669	0.567964	0.500038
C43	C	0.309761	0.064341	0.000059
C44	C	0.809761	0.564341	0.500059
C45	C	0.995500	-0.022223	0.000079
C46	C	1.495500	0.477777	0.500079
C47	C	0.994560	-0.075883	0.000089
C48	C	1.494560	0.424117	0.500089
C49	C	0.988663	-0.408627	-0.083729
C50	C	1.488663	0.091373	0.416271
C51	C	0.985093	-0.610301	-0.083746
C52	C	1.485093	-0.110301	0.416254
O53	O	0.984611	-0.636375	-0.154991
O54	O	1.484611	-0.136375	0.345009
N55	N	0.984632	-0.635517	0.000026
N56	N	1.484632	-0.135517	0.500026
C57	C	0.985057	-0.610312	0.083807
C58	C	1.485057	-0.110312	0.583807
O59	O	0.984574	-0.636387	0.155059
O60	O	1.484574	-0.136387	0.655059
C61	C	0.988621	-0.408639	0.083823
C62	C	1.488621	0.091361	0.583823
C63	C	0.989091	-0.383426	0.000046
C64	C	1.489091	0.116574	0.500046
C65	C	0.989132	-0.383413	-0.167499
C66	C	1.489132	0.116587	0.332501
C67	C	0.990029	-0.332998	-0.167494
C68	C	1.490029	0.167002	0.332506
C69	C	0.990457	-0.307797	-0.083719
C70	C	1.490457	0.192203	0.416281
C71	C	0.989988	-0.333011	0.000051
C72	C	1.489988	0.166989	0.500051
C73	C	0.989041	-0.383434	0.167603
C74	C	1.489041	0.116566	0.667603
C75	C	0.989930	-0.333013	0.167599
C76	C	1.489930	0.166987	0.667599
C77	C	0.990399	-0.307799	0.083823
C78	C	1.490399	0.192201	0.583823
C79	C	0.991313	-0.257394	0.083831
C80	C	1.491313	0.242606	0.583831
N81	N	0.991775	-0.232177	0.000060
N82	N	1.491775	0.267823	0.500060
C83	C	0.991347	-0.257379	-0.083715
C84	C	1.491347	0.242621	0.416285
C85	C	0.983188	-0.716194	0.083793
C86	C	1.483188	-0.216194	0.583793
C87	C	0.982298	-0.766612	0.083789
C88	C	1.482298	-0.266612	0.583789
C89	C	0.982333	-0.766597	-0.083764
C90	C	1.482333	-0.266597	0.416236
C91	C	0.983228	-0.716178	-0.083759
C92	C	1.483228	-0.216178	0.416241
C93	C	0.983649	-0.690977	0.000022
C94	C	1.483649	-0.190977	0.500022
C95	C	0.993231	-0.151504	-0.083699
C96	C	1.493231	0.348496	0.416301
C97	C	0.994132	-0.101084	-0.083686
C98	C	1.494132	0.398916	0.416314
C99	C	0.994093	-0.101104	0.083866
C100	C	1.494093	0.398896	0.583866
C101	C	0.993197	-0.151519	0.083854
C102	C	1.493197	0.348481	0.583854
C103	C	0.992763	-0.176717	0.000064
C104	C	1.492763	0.323283	0.500064
O105	O	0.991786	-0.231287	0.155039
O106	O	1.491786	0.268713	0.655039
O107	O	0.991811	-0.231293	-0.154957
O108	O	1.491811	0.268707	0.345043
C109	C	0.987766	-0.459042	-0.083734
C110	C	1.487766	0.040958	0.416266
C111	C	0.987297	-0.484256	0.000036
C112	C	1.487297	0.015744	0.500036
C113	C	0.987725	-0.459054	0.083811
C114	C	1.487725	0.040946	0.583811
C115	C	0.986407	-0.534674	0.000032
C116	C	1.486407	-0.034674	0.500032
C117	C	0.985979	-0.559875	-0.083743
C118	C	1.485979	-0.059875	0.416257
C119	C	0.986441	-0.534659	-0.167514
C120	C	1.486441	-0.034659	0.332486
C121	C	0.987338	-0.484244	-0.167509
C122	C	1.487338	0.015756	0.332491
C123	C	0.987264	-0.484271	0.167582
C124	C	1.487264	0.015729	0.667582
C125	C	0.986367	-0.534686	0.167570
C126	C	1.486367	-0.034686	0.667570
C127	C	0.985939	-0.559888	0.083795
C128	C	1.485939	-0.059888	0.583795
C129	C	1.141344	0.062623	0.000066
C130	C	1.641344	0.562623	0.500066
C131	C	1.234282	0.063577	0.000067
C132	C	1.734282	0.563577	0.500067
C133	C	0.980930	0.154526	0.000030
C134	C	1.480930	0.654526	0.500030
C135	C	0.981870	0.208187	0.000014
C136	C	1.481870	0.708187	0.500014
N137	N	0.988174	0.066158	0.218760
N138	N	1.488174	0.566158	0.718760
N139	N	0.988263	0.066142	-0.218649
N140	N	1.488263	0.566142	0.281351
C141	C	0.988233	0.066147	0.592851
C142	C	1.488233	0.566147	1.092851
C143	C	0.918693	0.105724	0.553669
C144	C	1.418693	0.605724	1.053669
C145	C	0.918850	0.105868	0.446581
C146	C	1.418850	0.605868	0.946581
C147	C	0.988203	0.066153	0.407260
C148	C	1.488203	0.566153	0.907260
C149	C	1.075422	0.077168	0.446101
C150	C	1.575422	0.577168	0.946101
C151	C	1.075030	0.077450	0.553222
C152	C	1.575030	0.577450	1.053222
C153	C	0.971337	0.015438	0.553394
C154	C	1.471337	0.515438	1.053394
C155	C	0.969329	0.015776	0.446266
C156	C	1.469329	0.515776	0.946266
C157	C	0.988192	0.066154	0.302372
C158	C	1.488192	0.566154	0.802372
C159	C	0.988251	0.066147	0.697739
C160	C	1.488251	0.566147	1.197739
H161	H	0.415910	0.072728	-0.153379
H162	H	0.915910	0.572728	0.346621
Br163	Br	0.988550	-0.417606	-0.281209
Br164	Br	1.488550	0.082394	0.218791
H165	H	1.128358	0.049761	0.579140
H166	H	1.628358	0.549761	1.079140
H167	H	0.401282	0.131805	0.087564
H168	H	0.901282	0.631805	0.587564
Br169	Br	0.422151	-0.022761	0.105320
Br170	Br	0.922151	0.477239	0.605320
Br171	Br	0.988400	-0.417639	0.281308
Br172	Br	1.488400	0.082361	0.781308
H173	H	0.433280	-0.008582	-0.062166
H174	H	0.933280	0.491418	0.437834
Br175	Br	0.994775	-0.066869	-0.197391
Br176	Br	1.494775	0.433131	0.302609
Br177	Br	0.936678	0.168596	0.403830
Br178	Br	1.436678	0.668596	0.903830
Br179	Br	0.862397	0.001840	0.403960
Br180	Br	1.362397	0.501840	0.903960
Br181	Br	0.810741	0.094963	0.402809
Br182	Br	1.310741	0.594963	0.902809
Br183	Br	0.379341	0.156413	-0.094439
Br184	Br	0.879341	0.656413	0.405561
H185	H	0.577404	-0.007228	-0.062949
H186	H	1.077404	0.492772	0.437051
Br187	Br	0.553267	0.158694	-0.093200
Br188	Br	1.053267	0.658694	0.406800
H189	H	0.853628	0.099269	0.579454
H190	H	1.353628	0.599269	1.079454
H191	H	0.986096	-0.555187	-0.235726
H192	H	1.486096	-0.055187	0.264274
H193	H	0.985991	-0.555211	0.235796
H194	H	1.485991	-0.055211	0.735796
Br195	Br	0.990499	-0.298814	0.281309
Br196	Br	1.490499	0.201186	0.781309
H197	H	1.128378	0.049110	0.420629
H198	H	1.628378	0.549110	0.920629
H199	H	1.016741	-0.015055	0.419504
H200	H	1.516741	0.484945	0.919504
H201	H	0.559199	0.074960	-0.153022
H202	H	1.059199	0.574960	0.346978
Br203	Br	0.990661	-0.298788	-0.281197
Br204	Br	1.490661	0.201212	0.218803
Br205	Br	1.055874	-0.033651	0.595624
Br206	Br	1.555874	0.466349	1.095624
Br207	Br	0.555242	0.157972	0.096953
Br208	Br	1.055242	0.657972	0.596953
H209	H	0.992822	-0.172049	0.152072
H210	H	1.492822	0.327951	0.652072
Br211	Br	1.100018	0.139089	0.594840
Br212	Br	1.600018	0.639089	1.094840
Br213	Br	0.994676	-0.066892	0.197555
Br214	Br	1.494676	0.433108	0.697555
H215	H	1.090789	0.113729	0.419254
H216	H	1.590789	0.613729	0.919254
Br217	Br	0.399697	0.064040	0.197858
Br218	Br	0.899697	0.564040	0.697858
H219	H	0.577946	-0.007086	0.062975
H220	H	1.077946	0.492914	0.562975
Br221	Br	0.576316	0.061055	0.196352
Br222	Br	1.076316	0.561055	0.696352
H223	H	0.992874	-0.172014	-0.151928
H224	H	1.492874	0.327986	0.348072
H225	H	0.909154	0.004845	0.580460
H226	H	1.409154	0.504845	1.080460
H227	H	0.983610	-0.695652	-0.151977
H228	H	1.483610	-0.195652	0.348023
H229	H	0.981985	-0.787124	-0.151976
H230	H	1.481985	-0.287124	0.348024
H231	H	0.981928	-0.787137	0.152009
H232	H	1.481928	-0.287137	0.652009
H233	H	0.987613	-0.463757	0.235803
H234	H	1.487613	0.036243	0.735803
Br235	Br	0.983752	-0.681999	0.197507
Br236	Br	1.483752	-0.181999	0.697507
Br237	Br	0.936314	0.168095	0.598481
Br238	Br	1.436314	0.668095	1.098481
H239	H	0.987720	-0.463719	-0.235729
H240	H	1.487720	0.036281	0.264271
