data_functionalizedCrystal
_audit_creation_method	'MofGen! by Chris Wilmer'
_symmetry_space_group_name_H-M	'P1'
_symmetry_Int_Tables_number	1
_symmetry_cell_setting	triclinic
loop_
_symmetry_equiv_pos_as_xyz
  x,y,z
_cell_length_a	16.992694
_cell_length_b	10.967829
_cell_length_c	16.053802
_cell_angle_alpha	80.477515
_cell_angle_beta	87.249047
_cell_angle_gamma	87.623462
loop_
_atom_site_label
_atom_site_type_symbol
_atom_site_fract_x
_atom_site_fract_y
_atom_site_fract_z
O1	O	1.046843	0.257191	-0.106324
O2	O	0.818523	0.254315	-0.105935
O3	O	0.936728	0.076458	-0.080330
O4	O	0.928638	0.435048	-0.131930
O5	O	0.930221	0.086205	0.057126
O6	O	0.812017	0.264061	0.031521
O7	O	1.040336	0.266938	0.031131
Zn8	Zn	0.925143	0.267047	0.053150
Zn9	Zn	0.933716	0.254206	-0.127954
O10	O	0.922131	0.444795	0.005526
C11	C	0.786012	0.255489	-0.036678
C12	C	0.698834	0.244453	-0.035100
C13	C	0.649897	0.350928	-0.050421
C14	C	0.567982	0.340553	-0.048916
C15	C	0.535007	0.223701	-0.032097
C16	C	0.583950	0.117219	-0.016772
C17	C	0.665862	0.127596	-0.018271
C18	C	0.290882	0.180693	-0.025886
C19	C	0.208963	0.170324	-0.024391
C20	C	0.193001	0.393660	-0.056533
C21	C	0.274916	0.404026	-0.058035
C22	C	0.323852	0.297544	-0.042706
N23	N	0.451278	0.213093	-0.030561
N24	N	0.407579	0.308153	-0.044236
C25	C	0.932395	0.035236	-0.004971
C26	C	0.929166	-0.102116	0.014787
C27	C	0.931098	-0.168395	-0.047611
C28	C	0.927761	-0.310355	-0.027191
C29	C	1.072847	0.265763	-0.038127
C30	C	1.160026	0.276799	-0.039711
C31	C	0.926465	0.486017	-0.069835
C32	C	0.929693	0.623368	-0.089598
N33	N	0.919298	0.275811	0.176749
N34	N	0.939567	0.245432	-0.251551
C35	C	0.969613	0.200164	0.231333
C36	C	0.965532	0.206306	0.317856
C37	C	0.911139	0.288104	0.349791
C38	C	0.860818	0.363755	0.295200
C39	C	0.864896	0.357605	0.208680
C40	C	0.893325	0.314933	0.607338
C41	C	0.889252	0.321080	0.693864
C42	C	0.993966	0.163629	0.716515
C43	C	0.998042	0.157492	0.629991
C44	C	0.947719	0.233138	0.575408
N45	N	0.906967	0.294388	0.438230
N46	N	0.951887	0.226847	0.486972
H47	H	0.182118	0.075165	-0.010694
O48	O	0.338299	0.077132	-0.011018
C49	C	0.291625	-0.028223	0.004166
H50	H	0.232125	-0.004724	-0.025505
H51	H	0.282251	-0.058979	0.075210
C52	C	0.406756	-0.162365	0.001306
C53	C	0.333680	-0.133506	-0.035143
H54	H	0.432698	-0.227311	-0.022937
H55	H	0.438202	-0.091386	-0.008920
H56	H	0.398934	-0.187988	0.060508
H57	H	0.341503	-0.107869	-0.094341
H58	H	0.302236	-0.204483	-0.024927
H59	H	0.925038	-0.150469	0.083326
H60	H	0.844956	0.387695	0.719860
H61	H	1.034936	0.102041	0.760964
O62	O	0.551952	0.003690	-0.000285
C63	C	0.573480	-0.056672	0.080305
H64	H	0.588975	0.015045	0.120251
H65	H	0.626766	-0.121414	0.073360
C66	C	0.485053	-0.220114	0.074694
C67	C	0.504078	-0.132029	0.123760
H68	H	0.442245	-0.266603	0.101499
H69	H	0.470551	-0.179450	0.020398
H70	H	0.529464	-0.274053	0.068911
H71	H	0.459671	-0.078083	0.129533
H72	H	0.518571	-0.172686	0.178058
O73	O	0.934578	-0.319158	-0.171419
C74	C	0.935748	-0.408352	-0.225470
H75	H	0.907774	-0.496173	-0.190728
H76	H	0.999300	-0.430420	-0.245573
C77	C	0.923323	-0.249478	-0.346955
C78	C	0.888958	-0.357338	-0.304288
H79	H	0.894464	-0.218010	-0.395576
H80	H	0.922538	-0.189386	-0.310541
H81	H	0.976282	-0.267883	-0.363700
H82	H	0.836004	-0.338929	-0.287535
H83	H	0.889733	-0.417426	-0.340701
H84	H	1.006502	0.144707	0.362299
H85	H	0.705707	0.040892	-0.005796
H86	H	0.935218	-0.120041	-0.116149
O87	O	1.022474	0.120597	0.200460
C88	C	1.066020	0.055168	0.267193
H89	H	1.030910	0.054953	0.329532
H90	H	1.124393	0.101757	0.269774
C91	C	1.125287	-0.078685	0.175823
C92	C	1.082161	-0.078958	0.252389
H93	H	1.135247	-0.161418	0.166690
H94	H	1.095952	-0.034602	0.130862
H95	H	1.173926	-0.039855	0.177984
H96	H	1.033519	-0.117773	0.250223
H97	H	1.111488	-0.123051	0.297349
H98	H	1.042334	0.090886	0.603992
O99	O	0.844412	0.388545	0.554434
C100	C	0.795521	0.462039	0.601181
H101	H	0.824821	0.471020	0.662186
H102	H	0.736281	0.416757	0.617007
C103	C	0.746570	0.580325	0.473527
C104	C	0.782560	0.591364	0.548452
H105	H	0.738572	0.660097	0.441001
H106	H	0.779507	0.530808	0.442033
H107	H	0.697208	0.542585	0.486727
H108	H	0.831926	0.629089	0.535251
H109	H	0.749631	0.640891	0.579943
O110	O	0.922701	-0.367947	0.054594
C111	C	0.853515	-0.325946	0.094628
H112	H	0.809055	-0.288391	0.044960
H113	H	0.868383	-0.249458	0.130887
C114	C	0.872521	-0.480244	0.217474
C115	C	0.817912	-0.434129	0.156472
H116	H	0.850560	-0.546974	0.255626
H117	H	0.919134	-0.508539	0.190505
H118	H	0.884907	-0.416493	0.247681
H119	H	0.805535	-0.497874	0.126259
H120	H	0.771295	-0.405847	0.183437
O121	O	0.681795	0.464537	-0.066737
C122	C	0.621033	0.556286	-0.079956
H123	H	0.563757	0.517996	-0.048153
H124	H	0.612977	0.584840	-0.150682
C125	C	0.713262	0.716687	-0.080878
C126	C	0.642915	0.669662	-0.041811
H127	H	0.726760	0.786626	-0.057352
H128	H	0.754199	0.654875	-0.071976
H129	H	0.706539	0.740472	-0.139814
H130	H	0.649642	0.645864	0.017122
H131	H	0.601980	0.731473	-0.050703
O132	O	0.520373	0.443888	-0.063904
C133	C	0.475888	0.439526	-0.135200
H134	H	0.471662	0.339333	-0.144748
H135	H	0.505874	0.495079	-0.193560
C136	C	0.397689	0.618120	-0.109621
C137	C	0.392493	0.495060	-0.121343
H138	H	0.346247	0.652381	-0.101076
H139	H	0.427661	0.621063	-0.061589
H140	H	0.422680	0.664398	-0.158257
H141	H	0.367511	0.448781	-0.072704
H142	H	0.362514	0.492110	-0.169367
O143	O	0.807870	0.443073	0.326204
C144	C	0.730913	0.413755	0.309063
H145	H	0.730445	0.313076	0.299529
H146	H	0.711055	0.476393	0.249314
C147	C	0.674880	0.556771	0.395638
C148	C	0.674304	0.433113	0.383935
H149	H	0.639960	0.568717	0.441820
H150	H	0.726727	0.576527	0.407184
H151	H	0.658334	0.608955	0.345842
H152	H	0.690859	0.380932	0.433726
H153	H	0.622458	0.413348	0.372399
H154	H	0.153149	0.480351	-0.069011
H155	H	0.301759	0.499178	-0.071741
H156	H	0.823923	0.419203	0.164237
