data_functionalizedCrystal
_audit_creation_method	'MofGen! by Chris Wilmer'
_symmetry_space_group_name_H-M	'P1'
_symmetry_Int_Tables_number	1
_symmetry_cell_setting	triclinic
loop_
_symmetry_equiv_pos_as_xyz
  x,y,z
_cell_length_a	23.532407
_cell_length_b	11.792241
_cell_length_c	10.868271
_cell_angle_alpha	89.998441
_cell_angle_beta	90.002093
_cell_angle_gamma	83.521042
loop_
_atom_site_label
_atom_site_type_symbol
_atom_site_fract_x
_atom_site_fract_y
_atom_site_fract_z
O1	O	-0.756076	-0.137765	0.102138
O2	O	-0.256076	0.362235	0.602138
O3	O	-0.590331	-0.157700	0.102181
O4	O	-0.090331	0.342300	0.602181
O5	O	-0.677226	0.017533	0.102150
O6	O	-0.177226	0.517533	0.602150
O7	O	-0.669181	-0.312998	0.102170
O8	O	-0.169181	0.187002	0.602170
O9	O	-0.677218	0.017527	-0.102494
O10	O	-0.177218	0.517527	0.397506
O11	O	-0.590323	-0.157705	-0.102463
O12	O	-0.090323	0.342295	0.397537
O13	O	-0.756068	-0.137771	-0.102506
O14	O	-0.256068	0.362229	0.397494
Zn15	Zn	-0.673194	-0.147739	-0.134976
Zn16	Zn	-0.173194	0.352261	0.365024
Zn17	Zn	-0.673205	-0.147732	0.134652
Zn18	Zn	-0.173205	0.352268	0.634652
O19	O	-0.669173	-0.313003	-0.102475
O20	O	-0.169173	0.186997	0.397525
C21	C	-0.569108	-0.157195	-0.000135
C22	C	-0.069108	0.342805	0.499865
C23	C	-0.505882	-0.155669	-0.000119
C24	C	-0.005882	0.344331	0.499881
C25	C	-0.107337	-0.249795	-0.000153
C26	C	0.392663	0.250205	0.499847
C27	C	-0.047928	-0.248377	-0.000159
C28	C	0.452072	0.251623	0.499841
O29	O	-0.011701	-0.335633	-0.000197
O30	O	0.488299	0.164367	0.499803
N31	N	-0.024684	-0.144202	-0.000162
N32	N	0.475316	0.355798	0.499838
C33	C	-0.060853	-0.041437	-0.000172
C34	C	0.439147	0.458563	0.499828
O35	O	-0.035627	0.047303	-0.000176
O36	O	0.464373	0.547303	0.499824
C37	C	-0.120260	-0.042856	-0.000176
C38	C	0.379740	0.457144	0.499824
C39	C	-0.143501	-0.147038	-0.000160
C40	C	0.356499	0.352962	0.499840
C41	C	-0.130577	-0.353969	-0.000139
C42	C	0.369423	0.146031	0.499861
C43	C	-0.189982	-0.355386	-0.000132
C44	C	0.310018	0.144614	0.499868
C45	C	-0.226146	-0.252629	-0.000138
C46	C	0.273854	0.247371	0.499862
C47	C	-0.202905	-0.148456	-0.000153
C48	C	0.297095	0.351544	0.499847
C49	C	-0.156428	0.059907	-0.000195
C50	C	0.343572	0.559907	0.499805
C51	C	-0.215839	0.058479	-0.000199
C52	C	0.284161	0.558479	0.499801
C53	C	-0.239079	-0.045703	-0.000184
C54	C	0.260921	0.454297	0.499816
C55	C	-0.298474	-0.047116	-0.000152
C56	C	0.201526	0.452884	0.499848
N57	N	-0.321717	-0.151292	-0.000149
N58	N	0.178283	0.348708	0.499851
C59	C	-0.285553	-0.254048	-0.000142
C60	C	0.214447	0.245952	0.499858
C61	C	0.063907	-0.038465	-0.000167
C62	C	0.563907	0.461535	0.499833
C63	C	0.123313	-0.037045	-0.000154
C64	C	0.623313	0.462955	0.499846
C65	C	0.136234	-0.243985	-0.000143
C66	C	0.636234	0.256015	0.499857
C67	C	0.076827	-0.245404	-0.000147
C68	C	0.576827	0.254596	0.499853
C69	C	0.040664	-0.142641	-0.000163
C70	C	0.540664	0.357359	0.499837
C71	C	-0.410308	-0.257017	-0.000125
C72	C	0.089692	0.242983	0.499875
C73	C	-0.469718	-0.258425	-0.000113
C74	C	0.030282	0.241575	0.499887
C75	C	-0.482634	-0.051485	-0.000130
C76	C	0.017366	0.448515	0.499870
C77	C	-0.423229	-0.050076	-0.000136
C78	C	0.076771	0.449924	0.499864
C79	C	-0.387066	-0.152852	-0.000138
C80	C	0.112934	0.347148	0.499862
O81	O	-0.334736	0.040094	-0.000119
O82	O	0.165264	0.540094	0.499881
O83	O	-0.310787	-0.342774	-0.000154
O84	O	0.189213	0.157226	0.499846
C85	C	-0.676716	0.059809	-0.000172
C86	C	-0.176716	0.559809	0.499828
C87	C	-0.675204	0.185787	-0.000170
C88	C	-0.175204	0.685787	0.499830
C89	C	-0.669683	-0.355280	-0.000151
C90	C	-0.169683	0.144720	0.499849
C91	C	-0.671195	-0.481258	-0.000144
C92	C	-0.171195	0.018742	0.499856
C93	C	0.222709	-0.138276	-0.000176
C94	C	0.722709	0.361724	0.499824
C95	C	0.159483	-0.139802	-0.000154
C96	C	0.659483	0.360198	0.499846
N97	N	-0.673191	-0.147744	-0.318991
N98	N	-0.173191	0.352256	0.181009
C99	C	-0.672423	0.416434	-0.000149
C100	C	-0.172423	0.916434	0.499851
C101	C	-0.673968	0.288085	-0.000160
C102	C	-0.173968	0.788085	0.499840
C103	C	-0.673196	-0.147744	-0.430328
C104	C	-0.173196	0.352256	0.069672
C105	C	-0.673203	-0.147733	-0.570006
C106	C	-0.173203	0.352267	-0.070006
N107	N	-0.673212	-0.147718	0.318666
N108	N	-0.173212	0.352282	0.818666
H109	H	-0.245281	0.142164	-0.000214
H110	H	0.254719	0.642164	0.499786
N111	N	-0.213714	-0.461809	-0.000161
N112	N	0.286286	0.038191	0.499839
N113	N	-0.245416	-0.485693	-0.086434
N114	N	0.254584	0.014307	0.413566
H115	H	-0.262173	-0.560861	-0.086464
H116	H	0.237827	-0.060861	0.413536
N117	N	-0.493465	-0.364840	-0.000118
N118	N	0.006535	0.135160	0.499882
N119	N	-0.546507	-0.366101	-0.000117
N120	N	-0.046507	0.133899	0.499883
H121	H	-0.563279	-0.441254	-0.000125
H122	H	-0.063279	0.058746	0.499875
N123	N	-0.373383	-0.362008	-0.000134
N124	N	0.126617	0.137992	0.499866
N125	N	-0.394151	-0.455005	-0.000122
N126	N	0.105849	0.044995	0.499878
H127	H	-0.368073	-0.529156	-0.000123
H128	H	0.131927	-0.029156	0.499877
N129	N	0.173176	-0.348960	-0.000139
N130	N	0.673176	0.151040	0.499861
N131	N	0.170877	-0.418406	0.086122
N132	N	0.670877	0.081594	0.586122
H133	H	0.196968	-0.492540	0.086124
H134	H	0.696968	0.007460	0.586124
H135	H	0.142230	0.047791	-0.000147
H136	H	0.642230	0.547791	0.499853
H137	H	0.057909	-0.330239	-0.000141
H138	H	0.557909	0.169761	0.499859
N139	N	-0.399478	0.056332	-0.000127
N140	N	0.100522	0.556332	0.499873
N141	N	-0.367763	0.080213	0.086126
N142	N	0.132237	0.580213	0.586126
H143	H	-0.350992	0.155365	0.086125
H144	H	0.149008	0.655365	0.586125
N145	N	-0.132702	0.166332	-0.000254
N146	N	0.367298	0.666332	0.499746
N147	N	-0.101004	0.190206	-0.086536
N148	N	0.398996	0.690206	0.413464
H149	H	-0.084249	0.265375	-0.086586
H150	H	0.415751	0.765375	0.413414
N151	N	-0.519572	0.053484	-0.000161
N152	N	-0.019572	0.553484	0.499839
N153	N	-0.498820	0.146498	-0.000187
N154	N	0.001180	0.646498	0.499813
H155	H	-0.524908	0.220635	-0.000220
H156	H	-0.024908	0.720635	0.499780
N157	N	0.026977	0.066524	-0.000179
N158	N	0.526977	0.566524	0.499821
N159	N	0.047744	0.159523	-0.000183
N160	N	0.547744	0.659523	0.499817
H161	H	0.021665	0.233673	-0.000194
H162	H	0.521665	0.733673	0.499806
H163	H	-0.101138	-0.437650	-0.000138
H164	H	0.398862	0.062350	0.499862
