data_functionalizedCrystal
_audit_creation_method	'MofGen! by Chris Wilmer'
_symmetry_space_group_name_H-M	'P1'
_symmetry_Int_Tables_number	1
_symmetry_cell_setting	triclinic
loop_
_symmetry_equiv_pos_as_xyz
  x,y,z
_cell_length_a	14.908558
_cell_length_b	16.625545
_cell_length_c	14.908854
_cell_angle_alpha	86.671394
_cell_angle_beta	89.796050
_cell_angle_gamma	86.720757
loop_
_atom_site_label
_atom_site_type_symbol
_atom_site_fract_x
_atom_site_fract_y
_atom_site_fract_z
Zn1	Zn	1.345282	-0.360186	-0.587578
Zn2	Zn	1.845282	0.139814	-0.087578
Zn3	Zn	1.353843	-0.503231	-0.437212
Zn4	Zn	1.853843	-0.003231	0.062788
Zn5	Zn	1.203592	-0.361099	-0.428573
Zn6	Zn	1.703592	0.138901	0.071427
Zn7	Zn	1.194877	-0.487659	-0.578868
Zn8	Zn	1.694877	0.012341	-0.078868
O9	O	1.274399	-0.428044	-0.508058
O10	O	1.774399	0.071956	-0.008058
O11	O	1.472244	-0.385297	-0.574892
O12	O	1.972244	0.114703	-0.074892
O13	O	1.341142	-0.491276	-0.310238
O14	O	1.841142	0.008724	0.189762
O15	O	1.222452	-0.248147	-0.449695
O16	O	1.722452	0.251853	0.050305
O17	O	1.478534	-0.490391	-0.464418
O18	O	1.978534	0.009609	0.035582
O19	O	1.326551	-0.247477	-0.566515
O20	O	1.826551	0.252523	-0.066515
O21	O	1.230753	-0.386852	-0.303891
O22	O	1.730753	0.113148	0.196109
O23	O	1.076610	-0.371752	-0.441250
O24	O	1.576610	0.128248	0.058750
O25	O	1.207599	-0.463850	-0.705852
O26	O	1.707599	0.036150	-0.205852
O27	O	1.070207	-0.464735	-0.551671
O28	O	1.570207	0.035265	-0.051671
O29	O	1.318101	-0.370197	-0.712250
O30	O	1.818101	0.129803	-0.212250
O31	O	1.332692	-0.613996	-0.455973
O32	O	1.832692	-0.113996	0.044027
O33	O	1.215900	-0.602555	-0.560048
O34	O	1.715900	-0.102555	-0.060048
C35	C	1.040783	-0.416654	-0.494578
C36	C	1.540783	0.083346	0.005422
C37	C	0.940840	-0.411799	-0.488833
C38	C	1.440840	0.088201	0.011167
C39	C	1.274303	-0.637532	-0.508024
C40	C	1.774303	-0.137532	-0.008024
C41	C	1.274342	-0.727154	-0.508044
C42	C	1.774342	-0.227154	-0.008044
C43	C	0.803277	-0.356465	-0.423340
C44	C	1.303277	0.143535	0.076660
C45	C	0.897183	-0.361022	-0.428734
C46	C	1.397183	0.138978	0.071266
C47	C	0.890586	-0.458020	-0.543544
C48	C	1.390586	0.041980	-0.043544
C49	C	0.796680	-0.453462	-0.538149
C50	C	1.296680	0.046538	-0.038149
C51	C	0.753029	-0.402684	-0.478044
C52	C	1.253029	0.097316	0.021956
C53	C	0.659122	-0.398131	-0.472646
C54	C	1.159122	0.101869	0.027354
C55	C	0.652527	-0.495124	-0.587460
C56	C	1.152527	0.004876	-0.087460
C57	C	0.746432	-0.499682	-0.592854
C58	C	1.246432	0.000318	-0.092854
C59	C	1.274376	-0.799937	-0.508064
C60	C	1.774376	-0.299937	-0.008064
C61	C	1.274427	-0.891247	-0.508087
C62	C	1.774427	-0.391247	-0.008087
C63	C	1.274473	-0.964025	-0.508101
C64	C	1.774473	-0.464025	-0.008101
C65	C	1.274523	-1.055340	-0.508122
C66	C	1.774523	-0.555340	-0.008122
C67	C	1.508926	-0.439479	-0.521590
C68	C	2.008926	0.060521	-0.021590
C69	C	1.608868	-0.444352	-0.527357
C70	C	2.108868	0.055648	-0.027357
C71	C	1.260923	-0.415184	-0.742589
C72	C	1.760923	0.084816	-0.242589
C73	C	1.255180	-0.409704	-0.842532
C74	C	1.755180	0.090296	-0.342532
C75	C	1.274518	-0.217738	-0.508113
C76	C	1.774518	0.282262	-0.008113
C77	C	1.274569	-0.128119	-0.508136
C78	C	1.774569	0.371881	-0.008136
C79	C	1.359358	-0.508142	-1.036948
C80	C	1.859358	-0.008142	-0.536948
C81	C	1.353965	-0.502996	-1.130854
C82	C	1.853965	-0.002996	-0.630854
C83	C	1.239007	-0.394262	-1.124252
C84	C	1.739007	0.105738	-0.624252
C85	C	1.244400	-0.399409	-1.030346
C86	C	1.744400	0.100591	-0.530346
C87	C	1.304576	-0.456351	-0.986697
C88	C	1.804576	0.043649	-0.486697
C89	C	1.309964	-0.461501	-0.892790
C90	C	1.809964	0.038499	-0.392790
C91	C	1.195011	-0.352764	-0.886189
C92	C	1.695011	0.147236	-0.386189
C93	C	1.189618	-0.347618	-0.980095
C94	C	1.689618	0.152382	-0.480095
C95	C	1.287874	-0.440798	-0.274442
C96	C	1.787874	0.059202	0.225558
C97	C	1.293791	-0.446059	-0.174509
C98	C	1.793791	0.053941	0.325491
H99	H	0.623584	-0.356785	-0.423706
H100	H	1.123584	0.143215	0.076294
N101	N	0.937677	-0.512785	-0.608363
N102	N	1.437677	-0.012785	-0.108363
H103	H	0.917666	-0.496038	-0.671697
H104	H	1.417666	0.003962	-0.171697
H105	H	1.004777	-0.508629	-0.603397
H106	H	1.504777	-0.008629	-0.103397
N107	N	0.756190	-0.301711	-0.358507
N108	N	1.256190	0.198289	0.141493
H109	H	0.802272	-0.273125	-0.324666
H110	H	1.302272	0.226875	0.175334
H111	H	0.715139	-0.260544	-0.392940
H112	H	1.215139	0.239456	0.107060
H113	H	0.611605	-0.532760	-0.632004
H114	H	1.111605	-0.032760	-0.132004
H115	H	0.781986	-0.541022	-0.641792
H116	H	1.281986	-0.041022	-0.141792
H117	H	0.938091	-0.323383	-0.384191
H118	H	1.438091	0.176617	0.115809
N119	N	1.374862	-0.522918	-0.845710
N120	N	1.874862	-0.022918	-0.345710
H121	H	1.408747	-0.554943	-0.891799
H122	H	1.908747	-0.054943	-0.391799
H123	H	1.418727	-0.494260	-0.809156
H124	H	1.918727	0.005740	-0.309156
N125	N	1.424249	-0.569564	-0.989866
N126	N	1.924249	-0.069564	-0.489866
H127	H	1.458130	-0.601595	-1.035953
H128	H	1.958130	-0.101595	-0.535953
H129	H	1.468119	-0.540911	-0.953312
H130	H	1.968119	-0.040911	-0.453312
H131	H	1.398575	-0.545169	-1.171765
H132	H	1.898575	-0.045169	-0.671765
H133	H	1.190019	-0.347898	-1.159807
H134	H	1.690019	0.152102	-0.659807
H135	H	1.140626	-0.301255	-1.015647
H136	H	1.640626	0.198745	-0.515647
H137	H	1.150402	-0.310592	-0.845265
H138	H	1.650402	0.189408	-0.345265
