data_functionalizedCrystal
_audit_creation_method	'MofGen! by Chris Wilmer'
_symmetry_space_group_name_H-M	'P1'
_symmetry_Int_Tables_number	1
_symmetry_cell_setting	triclinic
loop_
_symmetry_equiv_pos_as_xyz
  x,y,z
_cell_length_a	12.759395
_cell_length_b	17.639306
_cell_length_c	17.640280
_cell_angle_alpha	92.178650
_cell_angle_beta	101.197723
_cell_angle_gamma	78.777337
loop_
_atom_site_label
_atom_site_type_symbol
_atom_site_fract_x
_atom_site_fract_y
_atom_site_fract_z
Zn1	Zn	1.809727	-0.368289	0.389082
Zn2	Zn	1.795868	-0.215660	0.490406
Zn3	Zn	1.593041	-0.241315	0.363444
Zn4	Zn	1.661243	-0.342619	0.516028
O5	O	1.714970	-0.291971	0.439740
O6	O	1.954913	-0.348049	0.402529
O7	O	1.734620	-0.112791	0.452112
O8	O	1.599042	-0.279638	0.260583
O9	O	1.944731	-0.235913	0.476972
O10	O	1.758240	-0.372926	0.279419
O11	O	1.585604	-0.131640	0.358833
O12	O	1.455064	-0.254747	0.383678
O13	O	1.715282	-0.452296	0.520641
O14	O	1.505171	-0.329175	0.495781
O15	O	1.824373	-0.471156	0.427374
O16	O	1.800752	-0.211022	0.600067
O17	O	1.701844	-0.304298	0.618891
C18	C	1.441996	-0.291960	0.439728
C19	C	1.325226	-0.291969	0.439745
C20	C	1.377425	-0.369282	0.556603
C21	C	1.348665	-0.407939	0.615039
C22	C	1.238949	-0.407947	0.615050
C23	C	1.157986	-0.369294	0.556618
C24	C	1.186746	-0.330637	0.498182
C25	C	1.296468	-0.330632	0.498179
C26	C	1.134548	-0.253330	0.381323
C27	C	1.244264	-0.253317	0.381313
C28	C	1.053586	-0.214678	0.322891
C29	C	1.082345	-0.176015	0.264457
C30	C	1.192069	-0.176009	0.264449
C31	C	1.273024	-0.214660	0.322878
C32	C	1.778981	-0.490052	0.479725
C33	C	1.806259	-0.574462	0.496764
C34	C	1.508090	-0.901161	0.310012
C35	C	1.533749	-0.980474	0.326039
C36	C	1.688903	-0.960829	0.423160
C37	C	1.663260	-0.881513	0.407138
C38	C	1.572852	-0.851686	0.350564
C39	C	1.728022	-0.832038	0.447691
C40	C	1.702378	-0.752728	0.431673
C41	C	1.611971	-0.722894	0.375103
C42	C	1.547207	-0.772376	0.334546
C43	C	1.818425	-0.861866	0.504268
C44	C	1.883187	-0.812391	0.544821
C45	C	1.857548	-0.733081	0.528800
C46	C	1.767142	-0.703247	0.472230
C47	C	1.922312	-0.683599	0.569356
C48	C	1.896667	-0.604289	0.553339
C49	C	1.741497	-0.623937	0.456212
C50	C	1.989009	-0.291982	0.439753
C51	C	2.105789	-0.291987	0.439758
C52	C	1.757229	-0.252107	0.637035
C53	C	1.775412	-0.235078	0.721444
C54	C	1.651256	-0.094672	0.399856
C55	C	1.624136	-0.010305	0.382603
C56	C	1.672579	-0.332007	0.241678
C57	C	1.654515	-0.349068	0.157276
C58	C	1.577355	-0.421611	1.048137
C59	C	1.594435	-0.405586	1.127447
C60	C	1.697544	-0.308556	1.107800
C61	C	1.680477	-0.324575	1.028487
C62	C	1.620381	-0.381103	0.998663
C63	C	1.723502	-0.284067	0.979013
C64	C	1.706432	-0.300083	0.899706
C65	C	1.646336	-0.356607	0.869875
C66	C	1.603310	-0.397119	0.919356
C67	C	1.783591	-0.227536	1.008838
C68	C	1.826617	-0.187028	0.959363
C69	C	1.809553	-0.203047	0.880056
C70	C	1.749457	-0.259571	0.850225
C71	C	1.852578	-0.162535	0.830575
C72	C	1.835508	-0.178550	0.751269
C73	C	1.732386	-0.275586	0.770919
H74	H	1.667887	-0.599652	0.410136
O75	O	1.211144	-0.445614	0.671793
C76	C	1.258883	-0.524663	0.670588
H77	H	1.332824	-0.532182	0.641729
H78	H	1.197070	-0.558186	0.636762
C79	C	1.203830	-0.546334	0.789396
C80	C	1.294652	-0.555569	0.753956
H81	H	1.225890	-0.565401	0.840821
H82	H	1.171664	-0.493078	0.790207
H83	H	1.152328	-0.574271	0.761200
H84	H	1.346146	-0.527625	0.782147
H85	H	1.326828	-0.608821	0.753153
H86	H	1.839304	-0.926446	0.517306
O87	O	1.427445	-0.445416	0.671760
C88	C	1.530455	-0.437137	0.659214
H89	H	1.521153	-0.383618	0.622423
H90	H	1.567535	-0.490408	0.627958
C91	C	1.616878	-0.494163	0.782621
C92	C	1.605454	-0.428426	0.737438
H93	H	1.663143	-0.488793	0.830872
H94	H	1.547479	-0.499743	0.791072
H95	H	1.647774	-0.538549	0.756564
H96	H	1.574545	-0.384044	0.763490
H97	H	1.674849	-0.422838	0.728993
H98	H	1.434480	-0.876876	0.263935
O99	O	1.220193	-0.138522	0.207722
C100	C	1.334390	-0.146781	0.220250
H101	H	1.373669	-0.200298	0.257039
H102	H	1.359578	-0.093506	0.251503
C103	C	1.323805	-0.089748	0.096839
C104	C	1.372049	-0.155482	0.142018
H105	H	1.347036	-0.095111	0.048582
H106	H	1.246868	-0.084180	0.088399
H107	H	1.344799	-0.045358	0.122891
H108	H	1.351043	-0.199869	0.115970
H109	H	1.448984	-0.161057	0.150452
O110	O	1.587079	-0.645825	0.359680
C111	C	1.567076	-0.604610	0.427097
H112	H	1.609169	-0.641465	0.480067
H113	H	1.475696	-0.590221	0.425863
C114	C	1.560104	-0.483978	0.365792
C115	C	1.611811	-0.529241	0.430852
H116	H	1.587693	-0.437484	0.368108
H117	H	1.573576	-0.511744	0.320371
H118	H	1.483957	-0.471995	0.364771
H119	H	1.687954	-0.541231	0.431867
H120	H	1.598352	-0.501474	0.476274
H121	H	1.481009	-1.020756	0.293009
O122	O	1.910792	-0.107519	0.859492
C123	C	1.859297	-0.035732	0.824834
H124	H	1.769433	-0.036242	0.802295
H125	H	1.899332	-0.025223	0.774772
C126	C	1.980730	0.029806	0.912733
C127	C	1.870355	0.029181	0.885056
H128	H	1.987555	0.069848	0.949879
H129	H	2.015426	-0.018559	0.936081
H130	H	2.014080	0.038560	0.871008
H131	H	1.837011	0.020417	0.926779
H132	H	1.835653	0.077546	0.861716
H133	H	1.995915	-0.707895	0.615424
H134	H	1.016419	-0.144552	0.216883
H135	H	1.632429	-0.369640	0.805297
O136	O	1.776822	-0.989864	0.478011
C137	C	1.850242	-1.044497	0.444048
H138	H	1.836202	-1.032692	0.379416
H139	H	1.836631	-1.105133	0.453573
C140	C	1.985042	-1.052711	0.560773
C141	C	1.967803	-1.038208	0.481391
H142	H	2.057559	-1.048834	0.583810
H143	H	1.935576	-1.015905	0.583656
H144	H	1.973692	-1.103240	0.568700
H145	H	1.979139	-0.987676	0.473465
H146	H	2.017274	-1.075005	0.458508
O147	O	1.970995	-0.841500	0.599727
C148	C	1.979726	-0.922107	0.605186
H149	H	1.936275	-0.944793	0.548774
H150	H	1.940696	-0.935504	0.654773
C151	C	2.154049	-0.933553	0.689655
C152	C	2.100690	-0.961417	0.620366
H153	H	2.228664	-0.957802	0.699022
H154	H	2.148165	-0.879246	0.685980
H155	H	2.121512	-0.944719	0.730969
H156	H	2.133218	-0.950243	0.579052
H157	H	2.106581	-1.015723	0.624035
O158	O	1.459263	-0.743410	0.279677
C159	C	1.364369	-0.759453	0.300170
H160	H	1.379096	-0.768995	0.365234
H161	H	1.343072	-0.813717	0.268749
C162	C	1.251500	-0.679063	0.197199
C163	C	1.269585	-0.690777	0.277113
H164	H	1.193031	-0.636703	0.182973
H165	H	1.315432	-0.668257	0.183390
H166	H	1.233758	-0.724289	0.171024
H167	H	1.287339	-0.645556	0.303286
H168	H	1.205654	-0.701574	0.290926
H169	H	1.949415	-0.564007	0.586350
H170	H	1.683460	-0.321623	0.746636
H171	H	1.554383	-0.443155	0.895074
H172	H	1.559410	-0.438586	1.167730
O173	O	1.518929	-0.476534	1.019283
C174	C	1.484648	-0.508879	1.079960
H175	H	1.483142	-0.466354	1.130220
H176	H	1.543528	-0.564877	1.100012
C177	C	1.371546	-0.578244	0.989529
C178	C	1.369688	-0.526011	1.051257
H179	H	1.300636	-0.588815	0.971824
H180	H	1.394645	-0.556455	0.948650
H181	H	1.420618	-0.624903	1.006247
H182	H	1.320627	-0.479350	1.034536
H183	H	1.346578	-0.547792	1.092133
O184	O	1.755917	-0.253685	1.136906
C185	C	1.761724	-0.248213	1.217509
H186	H	1.748529	-0.304611	1.240181
H187	H	1.696095	-0.198585	1.230944
C188	C	1.890751	-0.163822	1.228933
C189	C	1.874554	-0.233093	1.256780
H190	H	1.960348	-0.154492	1.253158
H191	H	1.886837	-0.167506	1.174629
H192	H	1.836053	-0.122473	1.240131
H193	H	1.929244	-0.274442	1.245573
H194	H	1.878481	-0.229416	1.311083
O195	O	1.884990	-0.132157	0.988469
C196	C	1.890797	-0.126685	1.069072
H197	H	1.877602	-0.183083	1.091744
H198	H	1.825168	-0.077057	1.082508
C199	C	2.019825	-0.042294	1.080496
C200	C	2.003628	-0.111565	1.108343
H201	H	2.089421	-0.032964	1.104721
H202	H	2.015910	-0.045978	1.026192
H203	H	1.965126	-0.000945	1.091694
H204	H	2.058317	-0.152914	1.097136
H205	H	2.007554	-0.107888	1.162647
O206	O	1.051457	-0.369352	0.556760
C207	C	1.043436	-0.411781	0.620852
H208	H	1.119587	-0.413369	0.667363
H209	H	1.035463	-0.473274	0.602020
C210	C	0.849048	-0.370965	0.596345
C211	C	0.942574	-0.372910	0.653474
H212	H	0.786829	-0.346990	0.616467
H213	H	0.854450	-0.342382	0.553164
H214	H	0.842418	-0.422212	0.580658
H215	H	0.949209	-0.321663	0.669154
H216	H	0.937170	-0.401483	0.696659
H217	H	1.797491	-0.214500	1.073416
H218	H	0.964251	-0.214691	0.322901
H219	H	1.466764	-0.369273	0.556605
H220	H	1.870543	-0.145564	0.710985
H221	H	1.362364	-0.214656	0.322878
