data_functionalizedCrystal
_audit_creation_method	'MofGen! by Chris Wilmer'
_symmetry_space_group_name_H-M	'P1'
_symmetry_Int_Tables_number	1
_symmetry_cell_setting	triclinic
loop_
_symmetry_equiv_pos_as_xyz
  x,y,z
_cell_length_a	29.839131
_cell_length_b	17.077404
_cell_length_c	17.077396
_cell_angle_alpha	90.021457
_cell_angle_beta	89.968087
_cell_angle_gamma	89.959476
loop_
_atom_site_label
_atom_site_type_symbol
_atom_site_fract_x
_atom_site_fract_y
_atom_site_fract_z
Zn1	Zn	-0.178864	-1.199954	-0.443865
Zn2	Zn	0.321136	-0.699954	0.056135
Zn3	Zn	-0.253995	-1.199818	-0.312591
Zn4	Zn	0.246005	-0.699818	0.187409
Zn5	Zn	-0.178878	-1.068685	-0.312608
Zn6	Zn	0.321122	-0.568685	0.187392
Zn7	Zn	-0.253967	-1.068611	-0.443810
Zn8	Zn	0.246033	-0.568611	0.056190
O9	O	-0.216426	-1.134267	-0.378219
O10	O	0.283574	-0.634267	0.121781
O11	O	-0.188836	-1.309782	-0.426467
O12	O	0.311164	-0.809782	0.073533
O13	O	-0.244048	-1.182398	-0.202746
O14	O	0.255952	-0.682398	0.297254
O15	O	-0.116009	-1.086186	-0.330050
O16	O	0.383991	-0.586186	0.169950
O17	O	-0.244034	-1.309683	-0.330020
O18	O	0.255966	-0.809683	0.169980
O19	O	-0.115999	-1.182628	-0.426484
O20	O	0.384001	-0.682628	0.073516
O21	O	-0.188860	-1.086055	-0.202759
O22	O	0.311140	-0.586055	0.297241
O23	O	-0.188833	-0.958829	-0.329997
O24	O	0.311167	-0.458829	0.170003
O25	O	-0.243986	-1.086059	-0.553664
O26	O	0.256014	-0.586059	-0.053664
O27	O	-0.244000	-0.958774	-0.426390
O28	O	0.256000	-0.458774	0.073610
O29	O	-0.188809	-1.182556	-0.553705
O30	O	0.311191	-0.682556	-0.053705
O31	O	-0.316858	-1.182325	-0.329967
O32	O	0.183142	-0.682325	0.170033
O33	O	-0.316837	-1.085928	-0.426373
O34	O	0.183163	-0.585928	0.073627
C35	C	-0.216416	-0.930319	-0.378190
C36	C	0.283584	-0.430319	0.121810
C37	C	-0.216422	-0.843069	-0.378196
C38	C	0.283578	-0.343069	0.121804
C39	C	-0.333149	-1.134125	-0.378180
C40	C	0.166851	-0.634125	0.121820
C41	C	-0.383083	-1.134136	-0.378189
C42	C	0.116917	-0.634136	0.121811
C43	C	-0.245190	-0.802071	-0.428306
C44	C	0.254810	-0.302071	0.071694
C45	C	-0.245190	-0.720091	-0.428316
C46	C	0.254810	-0.220091	0.071684
C47	C	-0.216424	-0.679110	-0.378211
C48	C	0.283576	-0.179110	0.121789
C49	C	-0.187652	-0.720114	-0.328099
C50	C	0.312348	-0.220114	0.171901
C51	C	-0.187650	-0.802093	-0.328094
C52	C	0.312350	-0.302093	0.171906
C53	C	-0.187659	-0.549244	-0.328112
C54	C	0.312341	-0.049244	0.171888
C55	C	-0.187662	-0.467259	-0.328116
C56	C	0.312338	0.032741	0.171884
C57	C	-0.245199	-0.467242	-0.428334
C58	C	0.254801	0.032758	0.071666
C59	C	-0.245197	-0.549221	-0.428329
C60	C	0.254803	-0.049221	0.071671
C61	C	-0.216426	-0.590219	-0.378216
C62	C	0.283574	-0.090219	0.121784
C63	C	-0.692724	-1.184552	-0.328093
C64	C	-0.192724	-0.684552	0.171907
C65	C	-0.880397	-1.184649	-0.328124
C66	C	-0.380397	-0.684649	0.171876
O67	O	-0.904661	-1.227402	-0.285500
O68	O	-0.404661	-0.727402	0.214500
N69	N	-0.903868	-1.134430	-0.378278
N70	N	-0.403868	-0.634430	0.121722
C71	C	-0.880417	-1.084186	-0.428431
C72	C	-0.380417	-0.584186	0.071569
O73	O	-0.904687	-1.041479	-0.471097
O74	O	-0.404687	-0.541479	0.028903
C75	C	-0.692745	-1.084094	-0.428404
C76	C	-0.192745	-0.584094	0.071596
C77	C	-0.669277	-1.134311	-0.378241
C78	C	-0.169277	-0.634311	0.121759
C79	C	-0.669256	-1.234766	-0.277935
C80	C	-0.169256	-0.734766	0.222065
C81	C	-0.622341	-1.234738	-0.277925
C82	C	-0.122341	-0.734738	0.222075
C83	C	-0.598894	-1.184497	-0.328073
C84	C	-0.098894	-0.684497	0.171927
C85	C	-0.622362	-1.134283	-0.378231
C86	C	-0.122362	-0.634283	0.121769
C87	C	-0.669295	-1.033855	-0.478561
C88	C	-0.169295	-0.533855	0.021439
C89	C	-0.622374	-1.033837	-0.478552
C90	C	-0.122374	-0.533837	0.021448
C91	C	-0.598906	-1.084055	-0.428389
C92	C	-0.098906	-0.584055	0.071611
C93	C	-0.551999	-1.084014	-0.428369
C94	C	-0.051999	-0.584014	0.071631
N95	N	-0.528528	-1.134233	-0.378215
N96	N	-0.028528	-0.634233	0.121785
C97	C	-0.551976	-1.184475	-0.328067
C98	C	-0.051976	-0.684475	0.171933
C99	C	-0.978948	-1.084237	-0.428441
C100	C	-0.478948	-0.584237	0.071559
C101	C	-1.025866	-1.084259	-0.428447
C102	C	-0.525866	-0.584259	0.071553
C103	C	-1.025843	-1.184723	-0.328140
C104	C	-0.525843	-0.684723	0.171860
C105	C	-0.978924	-1.184697	-0.328131
C106	C	-0.478924	-0.684697	0.171869
C107	C	-0.955477	-1.134457	-0.378287
C108	C	-0.455477	-0.634457	0.121713
C109	C	-0.453450	-1.184412	-0.328049
C110	C	0.046550	-0.684412	0.171951
C111	C	-0.406530	-1.184378	-0.328041
C112	C	0.093470	-0.684378	0.171959
C113	C	-0.406558	-1.083917	-0.428351
C114	C	0.093442	-0.583917	0.071649
C115	C	-0.453473	-1.083948	-0.428356
C116	C	0.046527	-0.583948	0.071644
C117	C	-0.476918	-1.134202	-0.378203
C118	C	0.023082	-0.634202	0.121797
O119	O	-0.527707	-1.041290	-0.470976
O120	O	-0.027707	-0.541290	0.029024
O121	O	-0.527698	-1.227188	-0.285420
O122	O	-0.027698	-0.727188	0.214580
C123	C	-0.739640	-1.184580	-0.328103
C124	C	-0.239640	-0.684580	0.171897
C125	C	-0.763108	-1.134366	-0.378262
C126	C	-0.263108	-0.634366	0.121738
C127	C	-0.739661	-1.084125	-0.428410
C128	C	-0.239661	-0.584125	0.071590
C129	C	-0.810026	-1.134388	-0.378268
C130	C	-0.310026	-0.634388	0.121732
C131	C	-0.833473	-1.184630	-0.328120
C132	C	-0.333473	-0.684630	0.171880
C133	C	-0.810003	-1.234849	-0.277965
C134	C	-0.310003	-0.734849	0.222035
C135	C	-0.763087	-1.234822	-0.277955
C136	C	-0.263087	-0.734822	0.222045
C137	C	-0.763131	-1.033905	-0.478564
C138	C	-0.263131	-0.533905	0.021436
C139	C	-0.810047	-1.033937	-0.478569
C140	C	-0.310047	-0.533937	0.021431
C141	C	-0.833494	-1.084178	-0.428421
C142	C	-0.333494	-0.584178	0.071579
C143	C	-0.099248	-1.134431	-0.378275
C144	C	0.400752	-0.634431	0.121725
C145	C	-0.049313	-1.134500	-0.378299
C146	C	0.450687	-0.634500	0.121701
C147	C	-0.216393	-1.134314	-0.582963
C148	C	0.283607	-0.634314	-0.082963
C149	C	-0.216379	-1.134335	-0.670213
C150	C	0.283621	-0.634335	-0.170213
C151	C	-0.216434	-0.339011	-0.378239
C152	C	0.283566	0.160989	0.121761
C153	C	-0.216430	-0.426261	-0.378226
C154	C	0.283570	0.073739	0.121774
C155	C	-0.187645	-1.184582	-0.711225
C156	C	0.312355	-0.684582	-0.211225
C157	C	-0.187630	-1.184592	-0.793206
C158	C	0.312370	-0.684592	-0.293206
C159	C	-0.216351	-1.134357	-0.834172
C160	C	0.283649	-0.634357	-0.334172
C161	C	-0.245086	-1.084104	-0.793154
C162	C	0.254914	-0.584104	-0.293154
C163	C	-0.245098	-1.084091	-0.711175
C164	C	0.254902	-0.584091	-0.211175
C165	C	-0.245059	-1.084135	-0.964024
C166	C	0.254941	-0.584135	-0.464024
C167	C	-0.245047	-1.084149	-1.046009
C168	C	0.254953	-0.584149	-0.546009
C169	C	-0.187591	-1.184636	-1.046055
C170	C	0.312409	-0.684636	-0.546055
C171	C	-0.187603	-1.184624	-0.964076
C172	C	0.312397	-0.684624	-0.464076
C173	C	-0.216339	-1.134371	-0.923063
C174	C	0.283661	-0.634371	-0.423063
C175	C	-0.216427	-1.134265	-0.174271
C176	C	0.283573	-0.634265	0.325729
C177	C	-0.216314	-1.134397	-0.087021
C178	C	0.283686	-0.634397	0.412979
H179	H	-0.268617	-0.835432	-0.469105
H180	H	0.231383	-0.335432	0.030895
C181	C	-0.276844	-0.594298	-0.483443
C182	C	0.223156	-0.094298	0.016557
N183	N	-0.300680	-0.628250	-0.524956
N184	N	0.199320	-0.128250	-0.024956
H185	H	-0.164234	-1.225511	-0.826594
H186	H	0.335766	-0.725511	-0.326594
H187	H	-0.603286	-0.992926	-0.519397
H188	H	-0.103286	-0.492926	-0.019397
C189	C	-0.953163	-1.028986	-0.483641
C190	C	-0.453163	-0.528986	0.016359
N191	N	-0.933743	-0.987376	-0.525225
N192	N	-0.433743	-0.487376	-0.025225
C193	C	-0.156016	-0.422182	-0.273001
C194	C	0.343984	0.077818	0.226999
N195	N	-0.132179	-0.388230	-0.231488
N196	N	0.367821	0.111770	0.268512
C197	C	-0.695100	-0.978613	-0.533748
C198	C	-0.195100	-0.478613	-0.033748
N199	N	-0.714535	-0.937003	-0.575319
N200	N	-0.214535	-0.437003	-0.075319
C201	C	-0.155982	-1.239914	-1.091170
C202	C	0.344018	-0.739914	-0.591170
N203	N	-0.132176	-1.281550	-1.125154
N204	N	0.367824	-0.781550	-0.625154
C205	C	-1.051643	-1.239994	-0.272981
C206	C	-0.551643	-0.739994	0.227019
N207	N	-1.071079	-1.281626	-0.231442
N208	N	-0.571079	-0.781626	0.268558
H209	H	-0.164219	-1.225534	-0.930723
H210	H	0.335781	-0.725534	-0.430723
H211	H	-0.268434	-1.043242	-1.079362
H212	H	0.231566	-0.543242	-0.579362
H213	H	-0.164259	-1.225492	-0.677876
H214	H	0.335741	-0.725492	-0.177876
C215	C	-0.276708	-1.028816	-0.666062
C216	C	0.223292	-0.528816	-0.166062
N217	N	-0.300517	-0.987179	-0.632084
N218	N	0.199483	-0.487179	-0.132084
H219	H	-0.472582	-1.043059	-0.469205
H220	H	0.027418	-0.543059	0.030795
H221	H	-0.164227	-0.582622	-0.287311
H222	H	0.335773	-0.082622	0.212689
H223	H	-0.268451	-1.043202	-0.930635
H224	H	0.231549	-0.543202	-0.430635
C225	C	-0.156008	-0.675032	-0.272985
C226	C	0.343992	-0.175032	0.227015
N227	N	-0.132174	-0.641077	-0.231470
N228	N	0.367826	-0.141077	0.268530
C229	C	-0.953114	-1.239942	-0.272951
C230	C	-0.453114	-0.739942	0.227049
N231	N	-0.933675	-1.281556	-0.231388
N232	N	-0.433675	-0.781556	0.268612
H233	H	-0.164222	-0.835472	-0.287293
H234	H	0.335778	-0.335472	0.212707
C235	C	-0.276675	-1.028837	-0.838220
C236	C	0.223325	-0.528837	-0.338220
N237	N	-0.300468	-0.987209	-0.872164
N238	N	0.199532	-0.487209	-0.372164
H239	H	-1.044970	-1.043360	-0.469287
H240	H	-0.544970	-0.543360	0.030713
H241	H	-0.268624	-0.433857	-0.469141
H242	H	0.231376	0.066143	0.030859
H243	H	-0.387424	-1.225271	-0.287190
H244	H	0.112576	-0.725271	0.212810
C245	C	-0.737278	-1.290062	-0.222769
C246	C	-0.237278	-0.790062	0.277231
N247	N	-0.717842	-1.331672	-0.181199
N248	N	-0.217842	-0.831672	0.318801
C249	C	-0.479233	-1.239690	-0.272873
C250	C	0.020767	-0.739690	0.227127
N251	N	-0.498652	-1.281320	-0.231310
N252	N	0.001348	-0.781320	0.268690
H253	H	-0.603236	-1.275632	-0.237080
H254	H	-0.103236	-0.775632	0.262920
C255	C	-0.380756	-1.028657	-0.483514
C256	C	0.119244	-0.528657	0.016486
N257	N	-0.361322	-0.987040	-0.525068
N258	N	0.138678	-0.487040	-0.025068
C259	C	-0.835804	-1.290114	-0.222801
C260	C	-0.335804	-0.790114	0.277199
N261	N	-0.855239	-1.331740	-0.181257
N262	N	-0.355239	-0.831740	0.318743
H263	H	-0.268617	-0.686714	-0.469120
H264	H	0.231383	-0.186714	0.030880
H265	H	-0.829150	-0.993037	-0.519417
H266	H	-0.329150	-0.493037	-0.019417
H267	H	-0.688342	-1.275683	-0.237098
H268	H	-0.188342	-0.775683	0.262902
H269	H	-0.744044	-0.992994	-0.519402
H270	H	-0.244044	-0.492994	-0.019402
