data_functionalizedCrystal
_audit_creation_method	'MofGen! by Chris Wilmer'
_symmetry_space_group_name_H-M	'P1'
_symmetry_Int_Tables_number	1
_symmetry_cell_setting	triclinic
loop_
_symmetry_equiv_pos_as_xyz
  x,y,z
_cell_length_a	16.992701
_cell_length_b	18.266242
_cell_length_c	16.992695
_cell_angle_alpha	90.005094
_cell_angle_beta	90.667696
_cell_angle_gamma	90.008992
loop_
_atom_site_label
_atom_site_type_symbol
_atom_site_fract_x
_atom_site_fract_y
_atom_site_fract_z
O1	O	1.050855	0.060888	0.166907
O2	O	1.550855	0.560888	0.666907
O3	O	0.822455	0.060888	0.165078
O4	O	1.322455	0.560888	0.665078
O5	O	0.935740	0.060882	0.051793
O6	O	1.435740	0.560882	0.551793
O7	O	0.937571	0.060894	0.280193
O8	O	1.437571	0.560894	0.780193
O9	O	0.935719	-0.060880	0.051788
O10	O	1.435719	0.439120	0.551788
O11	O	0.822434	-0.060874	0.165073
O12	O	1.322434	0.439126	0.665073
O13	O	1.050834	-0.060874	0.166902
O14	O	1.550834	0.439126	0.666902
Zn15	Zn	0.936631	-0.080206	0.165987
Zn16	Zn	1.436631	0.419794	0.665987
Zn17	Zn	0.936659	0.080220	0.165993
Zn18	Zn	1.436659	0.580220	0.665993
O19	O	0.937550	-0.060868	0.280188
O20	O	1.437550	0.439132	0.780188
C21	C	0.793085	0.000007	0.162720
C22	C	1.293085	0.500007	0.662720
C23	C	0.705600	0.000007	0.155692
C24	C	1.205600	0.500007	0.655692
N25	N	0.936618	-0.189693	0.165983
N26	N	1.436618	0.310307	0.665983
C27	C	0.213682	0.000007	0.108471
C28	C	0.713682	0.500007	0.608471
C29	C	0.295882	0.000003	0.115080
C30	C	0.795882	0.500003	0.615080
C31	C	0.332089	0.000010	0.189508
C32	C	0.832089	0.500010	0.689508
C33	C	0.286091	0.000014	0.257331
C34	C	0.786091	0.500014	0.757331
C35	C	0.203892	0.000013	0.250720
C36	C	0.703892	0.500013	0.750720
C37	C	0.577403	0.000010	0.216905
C38	C	1.077403	0.500010	0.716905
C39	C	0.659608	0.000013	0.223510
C40	C	1.159608	0.500013	0.723510
C41	C	0.669394	0.000001	0.081258
C42	C	1.169394	0.500001	0.581258
C43	C	0.587192	0.000004	0.074655
C44	C	1.087192	0.500004	0.574655
C45	C	0.541202	0.000004	0.142477
C46	C	1.041202	0.500004	0.642477
N47	N	0.416111	0.000008	0.196266
N48	N	0.916111	0.500008	0.696266
N49	N	0.457181	0.000001	0.135719
N50	N	0.957181	0.500001	0.635719
C51	C	0.987346	-0.227994	0.216749
C52	C	1.487346	0.272006	0.716749
C53	C	0.987359	-0.304638	0.216747
C54	C	1.487359	0.195362	0.716747
C55	C	0.936630	-0.342980	0.165988
C56	C	1.436630	0.157020	0.665988
C57	C	0.885898	-0.304671	0.115212
C58	C	1.385898	0.195329	0.615212
C59	C	0.885892	-0.228027	0.115209
C60	C	1.385892	0.271973	0.615209
N61	N	0.867548	-0.463333	0.159519
N62	N	1.367548	0.036667	0.659519
N63	N	0.867555	-0.536141	0.159526
N64	N	1.367555	-0.036141	0.659526
C65	C	0.936646	-0.573903	0.165992
C66	C	1.436646	-0.073903	0.665992
N67	N	1.005729	-0.536106	0.172466
N68	N	1.505729	-0.036106	0.672466
N69	N	1.005721	-0.463291	0.172463
N70	N	1.505721	0.036709	0.672463
C71	C	0.936631	-0.426087	0.165985
C72	C	1.436631	0.073913	0.665985
C73	C	0.987392	-0.695310	0.216760
C74	C	1.487392	-0.195310	0.716760
C75	C	0.987406	-0.771956	0.216753
C76	C	1.487406	-0.271956	0.716753
C77	C	0.885938	-0.771987	0.115221
C78	C	1.385938	-0.271987	0.615221
C79	C	0.885931	-0.695342	0.115224
C80	C	1.385931	-0.195342	0.615224
C81	C	0.936657	-0.657008	0.165997
C82	C	1.436657	-0.157008	0.665997
C83	C	1.080205	0.000008	0.169260
C84	C	1.580205	0.500008	0.669260
C85	C	1.167689	0.000013	0.176288
C86	C	1.667689	0.500013	0.676288
C87	C	0.933373	0.000001	0.022430
C88	C	1.433373	0.500001	0.522430
C89	C	0.926345	0.000001	-0.065055
C90	C	1.426345	0.500001	0.434945
N91	N	0.936677	0.189707	0.165992
N92	N	1.436677	0.689707	0.665992
C93	C	0.994163	0.000001	-0.111046
C94	C	1.494163	0.500001	0.388954
C95	C	0.987554	0.000008	-0.193247
C96	C	1.487554	0.500008	0.306753
C97	C	0.913126	0.000010	-0.229454
C98	C	1.413126	0.500010	0.270546
C99	C	0.845303	0.000013	-0.183457
C100	C	1.345303	0.500013	0.316543
C101	C	0.851913	0.000011	-0.101258
C102	C	1.351913	0.500011	0.398742
C103	C	0.885732	0.000020	-0.474768
C104	C	1.385732	0.500020	0.025232
C105	C	0.879127	0.000020	-0.556974
C106	C	1.379127	0.500020	-0.056974
C107	C	1.021378	0.000015	-0.566758
C108	C	1.521378	0.500015	-0.066758
C109	C	1.027981	0.000009	-0.484557
C110	C	1.527981	0.500009	0.015443
C111	C	0.960158	0.000016	-0.438566
C112	C	1.460158	0.500016	0.061434
N113	N	0.906369	0.000015	-0.313476
N114	N	1.406369	0.500015	0.186524
N115	N	0.966916	0.000017	-0.354546
N116	N	1.466916	0.500017	0.145454
C117	C	0.939916	0.000014	0.309550
C118	C	1.439916	0.500014	0.809550
C119	C	0.946945	0.000019	0.397035
C120	C	1.446945	0.500019	0.897035
H121	H	0.184208	0.000006	0.047863
H122	H	0.684208	0.500006	0.547863
H123	H	1.088588	0.000007	-0.455083
H124	H	1.588588	0.500007	0.044917
H125	H	0.844594	-0.335893	0.073883
H126	H	1.344594	0.164107	0.573883
H127	H	1.028669	-0.335829	0.258089
H128	H	1.528669	0.164171	0.758089
O129	O	0.714036	0.000125	0.015357
O130	O	1.214036	0.500125	0.515357
C131	C	0.747528	0.063170	-0.104228
C132	C	1.247528	0.563170	0.395772
C133	C	0.696937	0.063131	-0.029615
C134	C	1.196937	0.563131	0.470385
H135	H	0.733710	0.114097	-0.140617
H136	H	1.233710	0.614097	0.359383
H137	H	0.812510	0.063219	-0.086767
H138	H	1.312510	0.563219	0.413233
H139	H	0.733779	0.012185	-0.140565
H140	H	1.233779	0.512185	0.359435
H141	H	0.710619	0.114108	0.006756
H142	H	1.210619	0.614108	0.506756
H143	H	0.631970	0.063044	-0.047130
H144	H	1.131970	0.563044	0.452870
O145	O	0.532771	0.000146	0.282810
O146	O	1.032771	0.500146	0.782810
C147	C	0.499315	0.063220	0.402394
C148	C	0.999315	0.563220	0.902394
C149	C	0.549895	0.063164	0.327774
C150	C	1.049895	0.563164	0.827774
H151	H	0.513153	0.114157	0.438776
H152	H	1.013153	0.614157	0.938776
H153	H	0.434331	0.063262	0.384941
H154	H	0.934331	0.563262	0.884941
H155	H	0.513054	0.012245	0.438734
H156	H	1.013054	0.512245	0.938734
H157	H	0.536224	0.114130	0.291399
H158	H	1.036224	0.614130	0.791399
H159	H	0.614865	0.063084	0.345281
H160	H	1.114865	0.563084	0.845281
O161	O	0.836528	-0.658171	0.066000
O162	O	1.336528	-0.158171	0.566000
C163	C	0.702113	-0.634805	0.026856
C164	C	1.202113	-0.134805	0.526856
C165	C	0.757975	-0.676929	0.082668
C166	C	1.257975	-0.176929	0.582668
H167	H	0.638593	-0.649966	0.040301
H168	H	1.138593	-0.149966	0.540301
H169	H	0.710746	-0.573430	0.035571
H170	H	1.210746	-0.073430	0.535571
H171	H	0.715656	-0.649871	-0.036668
H172	H	1.215656	-0.149871	0.463332
H173	H	0.744467	-0.661924	0.146213
H174	H	1.244467	-0.161924	0.646213
H175	H	0.749332	-0.738293	0.073885
H176	H	1.249332	-0.238293	0.573885
H177	H	0.818516	0.000010	-0.586451
H178	H	1.318516	0.500010	-0.086451
O179	O	0.321171	0.000118	0.329673
O180	O	0.821171	0.500118	0.829673
C181	C	0.338002	0.063235	0.453256
C182	C	0.838002	0.563235	0.953256
C183	C	0.298211	0.063197	0.371360
C184	C	0.798211	0.563197	0.871360
H185	H	0.319467	0.114237	0.486977
H186	H	0.819467	0.614237	0.986977
H187	H	0.319401	0.012315	0.487085
H188	H	0.819401	0.512315	0.987085
H189	H	0.404650	0.063202	0.446312
H190	H	0.904650	0.563202	0.946312
H191	H	0.231558	0.063256	0.378232
H192	H	0.731558	0.563256	0.878232
H193	H	0.316875	0.114112	0.337560
H194	H	0.816875	0.614112	0.837560
H195	H	0.844581	-0.196844	0.073868
H196	H	1.344581	0.303156	0.573868
H197	H	0.333326	-0.000005	0.059856
H198	H	0.833326	0.499995	0.559856
H199	H	0.689085	0.000008	0.284121
H200	H	1.189085	0.500008	0.784121
O201	O	0.551991	0.000127	0.002370
O202	O	1.051991	0.500127	0.502370
C203	C	0.464849	0.063185	-0.087633
C204	C	0.964849	0.563185	0.412367
C205	C	0.504675	0.063140	-0.005752
C206	C	1.004675	0.563140	0.494248
H207	H	0.426573	0.114118	-0.094220
H208	H	0.926573	0.614118	0.405780
H209	H	0.511813	0.063228	-0.135000
H210	H	1.011813	0.563228	0.365000
H211	H	0.426634	0.012206	-0.094275
H212	H	0.926634	0.512206	0.405725
H213	H	0.542886	0.114110	0.000967
H214	H	1.042886	0.614110	0.500967
H215	H	0.457672	0.063058	0.041574
H216	H	0.957672	0.563058	0.541574
O217	O	1.036701	-0.190871	0.266087
O218	O	1.536701	0.309129	0.766087
C219	C	1.137309	-0.198932	0.366824
C220	C	1.637309	0.301068	0.866824
C221	C	1.081467	-0.241067	0.310978
C222	C	1.581467	0.258933	0.810978
H223	H	1.173505	-0.239497	0.403144
H224	H	1.673505	0.260503	0.903144
H225	H	1.178414	-0.163068	0.330893
H226	H	1.678414	0.336932	0.830893
H227	H	1.101302	-0.163031	0.407817
H228	H	1.601302	0.336969	0.907817
H229	H	1.117410	-0.277008	0.269973
H230	H	1.617410	0.222992	0.769973
H231	H	1.040360	-0.276885	0.346958
H232	H	1.540360	0.223115	0.846958
H233	H	0.830505	0.000026	-0.437333
H234	H	1.330505	0.500026	0.062667
O235	O	1.036745	-0.658181	0.266098
O236	O	1.536745	-0.158181	0.766098
C237	C	1.137354	-0.666237	0.366834
C238	C	1.637354	-0.166237	0.866834
C239	C	1.081516	-0.708374	0.310986
C240	C	1.581516	-0.208374	0.810986
H241	H	1.173554	-0.706801	0.403152
H242	H	1.673554	-0.206801	0.903152
H243	H	1.178454	-0.630367	0.330905
H244	H	1.678454	-0.130367	0.830905
H245	H	1.101343	-0.630341	0.407830
H246	H	1.601343	-0.130341	0.907830
H247	H	1.117464	-0.744310	0.269978
H248	H	1.617464	-0.244310	0.769978
H249	H	1.040414	-0.744199	0.346963
H250	H	1.540414	-0.244199	0.846963
H251	H	1.028721	-0.803139	0.258091
H252	H	1.528721	-0.303139	0.758091
O253	O	1.066523	0.000032	-0.076004
O254	O	1.566523	0.500032	0.423996
C255	C	1.206918	-0.000005	-0.094394
C256	C	1.706918	0.499995	0.405606
C257	C	1.125017	-0.000028	-0.134177
C258	C	1.625017	0.499972	0.365823
H259	H	1.254232	-0.000069	-0.141409
H260	H	1.754232	0.499931	0.358591
H261	H	1.213628	0.050964	-0.056176
H262	H	1.713628	0.550964	0.443824
H263	H	1.213522	-0.050950	-0.056136
H264	H	1.713522	0.449050	0.443864
H265	H	1.118357	0.050883	-0.172474
H266	H	1.618357	0.550883	0.327526
H267	H	1.118344	-0.051031	-0.172348
H268	H	1.618344	0.448969	0.327652
H269	H	0.844634	-0.803204	0.073891
H270	H	1.344634	-0.303204	0.573891
H271	H	0.166446	0.000015	0.305945
H272	H	0.666446	0.500015	0.805945
O273	O	1.053411	0.000137	-0.237953
O274	O	1.553411	0.500137	0.262047
C275	C	1.128504	0.063203	-0.336454
C276	C	1.628504	0.563203	0.163546
C277	C	1.053893	0.063153	-0.285860
C278	C	1.553893	0.563153	0.214140
H279	H	1.128910	0.114138	-0.375211
H280	H	1.628910	0.614138	0.124789
H281	H	1.182860	0.063244	-0.296489
H282	H	1.682860	0.563244	0.203511
H283	H	1.128952	0.012226	-0.375157
H284	H	1.628952	0.512226	0.124843
H285	H	1.053369	0.114121	-0.247151
H286	H	1.553369	0.614121	0.252849
H287	H	0.999571	0.063073	-0.325870
H288	H	1.499571	0.563073	0.174130
O289	O	0.773064	-0.000017	-0.218753
O290	O	1.273064	0.499983	0.281247
C291	C	0.699836	0.000026	-0.341045
C292	C	1.199836	0.500026	0.158955
C293	C	0.781697	0.000046	-0.301178
C294	C	1.281697	0.500046	0.198822
H295	H	0.706788	0.000093	-0.407692
H296	H	1.206788	0.500093	0.092308
H297	H	0.666038	-0.050942	-0.322532
H298	H	1.166038	0.449058	0.177468
H299	H	0.666076	0.050972	-0.322418
H300	H	1.166076	0.550972	0.177582
H301	H	0.815523	-0.050865	-0.319785
H302	H	1.315523	0.449135	0.180215
H303	H	0.815435	0.051048	-0.319691
H304	H	1.315435	0.551048	0.180309
H305	H	1.076596	0.000011	-0.604212
H306	H	1.576596	0.500011	-0.104212
H307	H	0.796688	0.000012	-0.063812
H308	H	1.296688	0.500012	0.436188
