data_functionalizedCrystal
_audit_creation_method	'MofGen! by Chris Wilmer'
_symmetry_space_group_name_H-M	'P1'
_symmetry_Int_Tables_number	1
_symmetry_cell_setting	triclinic
loop_
_symmetry_equiv_pos_as_xyz
  x,y,z
_cell_length_a	14.971486
_cell_length_b	12.837942
_cell_length_c	13.448316
_cell_angle_alpha	89.994234
_cell_angle_beta	89.998199
_cell_angle_gamma	89.221535
loop_
_atom_site_label
_atom_site_type_symbol
_atom_site_fract_x
_atom_site_fract_y
_atom_site_fract_z
O1	O	1.198338	0.135106	-0.082576
O2	O	0.939302	0.151285	-0.082603
O3	O	1.063076	-0.007715	-0.082584
O4	O	1.074564	0.294105	-0.082595
O5	O	1.063058	-0.007724	0.082800
O6	O	0.939284	0.151275	0.082781
O7	O	1.198320	0.135096	0.082808
Cu8	Cu	1.068800	0.143185	0.097895
Cu9	Cu	1.068822	0.143196	-0.097690
O10	O	1.074546	0.294095	0.082789
C11	C	0.905907	0.150556	0.000086
C12	C	0.806427	0.148388	0.000075
C13	C	1.059187	-0.046345	0.000107
C14	C	1.047612	-0.161436	0.000104
C15	C	0.757077	0.241796	0.000073
C16	C	0.663606	0.239752	0.000088
C17	C	0.619486	0.144300	0.000098
C18	C	0.668842	0.050885	0.000103
C19	C	0.762313	0.052930	0.000095
C20	C	0.474021	0.046630	0.000117
C21	C	0.380545	0.044585	0.000123
C22	C	0.375314	0.233453	0.000110
C23	C	0.468784	0.235497	0.000102
C24	C	0.518135	0.142082	0.000105
C25	C	1.186755	-0.402222	0.000098
C26	C	1.175884	-0.510362	0.000095
C27	C	1.015001	-0.485856	0.000089
C28	C	1.025872	-0.377717	0.000092
C29	C	1.111751	-0.335904	0.000098
C30	C	1.122621	-0.227763	0.000108
C31	C	0.961739	-0.203260	0.000094
C32	C	0.950868	-0.311399	0.000091
C33	C	1.231715	0.135824	0.000117
C34	C	1.331195	0.137993	0.000121
C35	C	1.078436	0.332726	0.000096
C36	C	1.090010	0.447817	0.000092
N37	N	1.068792	0.143176	0.235460
N38	N	1.068837	0.143197	-0.235255
C39	C	1.123620	0.072800	0.287508
C40	C	1.123626	0.072799	0.391612
C41	C	1.068807	0.143180	0.443664
C42	C	1.013972	0.213559	0.391608
C43	C	1.013963	0.213554	0.287507
C44	C	1.013998	0.213566	0.608588
C45	C	1.014008	0.213573	0.712697
C46	C	1.123661	0.072811	0.712693
C47	C	1.123651	0.072806	0.608592
C48	C	1.068818	0.143187	0.556543
H49	H	0.792993	0.319524	0.000065
F50	F	0.955633	0.288472	0.553198
F51	F	0.923609	-0.530375	0.000058
F52	F	0.526542	-0.052794	0.000123
F53	F	0.322791	0.332873	0.000109
F54	F	0.881910	-0.132671	0.000104
F55	F	0.955603	0.288456	0.232114
F56	F	0.859474	-0.355911	0.000077
F57	F	1.181972	-0.002106	0.232120
H58	H	1.168271	0.015493	0.433989
F59	F	0.611087	0.339170	0.000082
F60	F	1.182000	-0.002094	0.553193
F61	F	0.621884	-0.050703	0.000120
F62	F	1.182019	-0.002092	0.768091
F63	F	0.333591	-0.057006	0.000159
F64	F	0.955624	0.288460	0.447007
H65	H	0.504704	0.313223	0.000085
H66	H	0.802492	-0.023133	0.000096
F67	F	0.955661	0.288481	0.768088
F68	F	1.214020	-0.183264	0.000120
H69	H	1.256681	-0.368178	0.000113
H70	H	1.236960	-0.564355	0.000092
