data_functionalizedCrystal
_audit_creation_method	'MofGen! by Chris Wilmer'
_symmetry_space_group_name_H-M	'P1'
_symmetry_Int_Tables_number	1
_symmetry_cell_setting	triclinic
loop_
_symmetry_equiv_pos_as_xyz
  x,y,z
_cell_length_a	19.188930
_cell_length_b	10.489711
_cell_length_c	9.565339
_cell_angle_alpha	89.996064
_cell_angle_beta	89.982583
_cell_angle_gamma	96.164105
loop_
_atom_site_label
_atom_site_type_symbol
_atom_site_fract_x
_atom_site_fract_y
_atom_site_fract_z
O1	O	0.927202	-0.159228	-0.116699
O2	O	0.724033	-0.180664	-0.116601
O3	O	0.830251	0.015758	-0.116656
O4	O	0.820984	-0.355650	-0.116644
O5	O	0.830243	0.015746	0.115864
O6	O	0.724025	-0.180676	0.115919
O7	O	0.927194	-0.159240	0.115821
Zn8	Zn	0.825608	-0.169960	0.152788
Zn9	Zn	0.825619	-0.169944	-0.153568
O10	O	0.820975	-0.355662	0.115876
C11	C	0.698013	-0.179976	-0.000329
C12	C	0.620495	-0.177892	-0.000293
C13	C	0.829552	0.063268	-0.000400
C14	C	0.827471	0.204853	-0.000410
N15	N	0.825605	-0.169970	0.361867
C16	C	0.576336	-0.293146	-0.000311
C17	C	0.503499	-0.291189	-0.000326
C18	C	0.474824	-0.173970	-0.000351
C19	C	0.518993	-0.058701	-0.000325
C20	C	0.591828	-0.060662	-0.000296
N21	N	0.366252	-0.084367	-0.079547
N22	N	0.297061	-0.082512	-0.079578
C23	C	0.255377	-0.168055	-0.000437
N24	N	0.285495	-0.255542	0.078719
N25	N	0.354692	-0.257401	0.078743
C26	C	0.395848	-0.171831	-0.000382
C27	C	0.132239	-0.281194	-0.000470
C28	C	0.059402	-0.279231	-0.000477
C29	C	0.074897	-0.046741	-0.000490
C30	C	0.147733	-0.048707	-0.000469
C31	C	0.176400	-0.165937	-0.000466
C32	C	0.953213	-0.159928	-0.000454
C33	C	1.030732	-0.162012	-0.000500
C34	C	0.821675	-0.403173	-0.000383
C35	C	0.823756	-0.544758	-0.000382
C36	C	0.891347	0.388668	-0.000427
C37	C	0.859436	0.295804	0.114232
C38	C	0.859427	0.295840	-0.115015
C39	C	0.791817	0.364243	0.114372
C40	C	0.791817	0.364289	-0.114978
C41	C	0.759857	0.271452	-0.000291
N42	N	0.825627	-0.169924	-0.362647
C43	C	0.776468	-0.260779	0.453095
C44	C	0.839682	-0.285176	0.546245
C45	C	0.762419	-0.145583	0.546273
C46	C	0.888851	-0.194425	0.452965
C47	C	0.811547	-0.054782	0.452985
C48	C	0.874806	-0.079130	0.546092
H49	H	0.467539	-0.385045	-0.000337
C50	C	0.043638	0.080398	-0.000592
C51	C	-0.029600	0.057450	-0.000654
C52	C	-0.058422	0.174542	-0.000763
H53	H	0.058660	0.127935	0.080471
H54	H	0.058739	0.127850	-0.081709
H55	H	-0.044694	0.010018	0.080456
H56	H	-0.044641	0.009933	-0.081711
H57	H	-0.043321	0.221994	-0.081880
H58	H	-0.043395	0.222071	0.080301
H59	H	-0.108116	0.158989	-0.000818
C60	C	0.897617	0.255582	0.243495
C61	C	0.919953	0.364195	0.323329
C62	C	0.955141	0.327200	0.442399
H63	H	0.866857	0.198214	0.297644
H64	H	0.937106	0.214193	0.215957
H65	H	0.880470	0.405563	0.350869
H66	H	0.950722	0.421575	0.269222
H67	H	0.994630	0.285812	0.414861
H68	H	0.924377	0.269831	0.496536
H69	H	0.970306	0.400888	0.496574
C70	C	0.721200	-0.363455	0.398705
C71	C	0.736268	-0.483825	0.445934
C72	C	0.685380	-0.578442	0.395839
H73	H	0.676367	-0.347127	0.431990
H74	H	0.721303	-0.362328	0.299390
H75	H	0.736158	-0.484949	0.545228
H76	H	0.781091	-0.500193	0.412652
H77	H	0.685483	-0.577314	0.296524
H78	H	0.640551	-0.562101	0.429128
H79	H	0.695600	-0.660124	0.427866
C80	C	0.930390	0.023143	0.600136
C81	C	0.996403	-0.002975	0.552628
C82	C	1.047625	0.091193	0.602404
H83	H	0.920872	0.104805	0.566823
H84	H	0.929882	0.023057	0.699454
H85	H	0.996909	-0.002876	0.453331
H86	H	1.005943	-0.084621	0.585938
H87	H	1.047118	0.091108	0.701723
H88	H	1.038101	0.172850	0.569087
H89	H	1.092422	0.073479	0.570188
H90	H	0.627782	0.033195	-0.000282
C91	C	0.487729	0.068436	-0.000427
C92	C	0.414491	0.045486	-0.000499
C93	C	0.385668	0.162578	-0.000605
H94	H	0.502748	0.115969	0.080639
H95	H	0.502831	0.115892	-0.081541
H96	H	0.399394	-0.001949	0.080607
H97	H	0.399452	-0.002028	-0.081559
H98	H	0.400770	0.210034	-0.081719
H99	H	0.400692	0.210103	0.080463
H100	H	0.335973	0.147023	-0.000666
C101	C	0.795503	0.074977	0.398383
C102	C	0.729242	0.099985	0.445549
C103	C	0.714427	0.219498	0.395260
H104	H	0.829893	0.139789	0.431576
H105	H	0.796000	0.074262	0.299068
H106	H	0.728751	0.100711	0.544843
H107	H	0.694838	0.035205	0.412360
H108	H	0.714923	0.218782	0.295945
H109	H	0.748820	0.284299	0.428456
H110	H	0.669465	0.236476	0.427244
C111	C	0.163504	-0.408336	-0.000508
C112	C	0.236743	-0.385387	-0.000522
C113	C	0.265565	-0.502478	-0.000570
H114	H	0.148443	-0.455869	0.080559
H115	H	0.148444	-0.455793	-0.081622
H116	H	0.251797	-0.337951	0.080583
H117	H	0.251823	-0.337873	-0.081583
H118	H	0.250505	-0.549935	-0.081684
H119	H	0.250499	-0.550003	0.080498
H120	H	0.315260	-0.486924	-0.000592
C121	C	0.195564	0.076567	-0.000538
C122	C	0.154866	0.179644	-0.000599
C123	C	0.198904	0.295071	-0.000676
H124	H	0.224294	0.080813	0.080535
H125	H	0.224309	0.080707	-0.081645
H126	H	0.126133	0.175507	0.080500
H127	H	0.126137	0.175440	-0.081666
H128	H	0.227649	0.299210	-0.081783
H129	H	0.227632	0.299304	0.080399
H130	H	0.171297	0.365022	-0.000730
C131	C	0.965476	0.456348	-0.000237
C132	C	1.013552	0.364951	0.001095
C133	C	1.081844	0.427247	0.001300
H134	H	0.972545	0.507922	-0.081694
H135	H	0.972122	0.509019	0.080479
H136	H	1.006908	0.312303	-0.079613
H137	H	1.006505	0.313373	0.082547
H138	H	1.088491	0.479917	0.082016
H139	H	1.088906	0.478819	-0.080159
H140	H	1.114472	0.365244	0.002217
C141	C	0.685703	0.203889	0.000112
C142	C	0.650646	0.238560	0.120379
C143	C	0.582339	0.176332	0.120814
H144	H	0.661429	0.228323	-0.080449
H145	H	0.687423	0.113713	-0.000589
H146	H	0.648922	0.328717	0.121067
H147	H	0.674899	0.214125	0.200959
H148	H	0.584060	0.086155	0.120113
H149	H	0.558072	0.200770	0.040248
H150	H	0.558547	0.199838	0.202420
H151	H	0.763237	0.394409	0.211416
H152	H	0.708974	-0.124976	0.587262
H153	H	0.888042	0.265525	-0.211949
H154	H	0.942308	-0.215149	0.412152
C155	C	0.855693	-0.414922	0.600969
C156	C	0.916984	-0.399334	0.681346
C157	C	0.931753	-0.518830	0.731764
H158	H	0.817810	-0.451203	0.657141
H159	H	0.862031	-0.470271	0.524462
H160	H	0.910641	-0.344005	0.757842
H161	H	0.954879	-0.363074	0.625203
H162	H	0.938091	-0.574179	0.655257
H163	H	0.893866	-0.555101	0.787931
H164	H	0.973343	-0.508271	0.786295
C165	C	0.607355	-0.420522	-0.000517
C166	C	0.584973	-0.490167	-0.120134
C167	C	0.613524	-0.607522	-0.120363
H168	H	0.657057	-0.405386	-0.000570
H169	H	0.592190	-0.468036	0.080520
H170	H	0.600143	-0.442664	-0.201150
H171	H	0.535275	-0.505337	-0.120106
H172	H	0.598359	-0.655036	-0.039326
H173	H	0.663225	-0.592373	-0.120412
H174	H	0.598337	-0.654795	-0.201514
H175	H	0.763244	0.394675	-0.211892
H176	H	0.023448	-0.373089	-0.000484
