data_functionalizedCrystal
_audit_creation_method	'MofGen! by Chris Wilmer'
_symmetry_space_group_name_H-M	'P1'
_symmetry_Int_Tables_number	1
_symmetry_cell_setting	triclinic
loop_
_symmetry_equiv_pos_as_xyz
  x,y,z
_cell_length_a	14.853558
_cell_length_b	14.853569
_cell_length_c	13.930277
_cell_angle_alpha	89.996528
_cell_angle_beta	90.006081
_cell_angle_gamma	83.633349
loop_
_atom_site_label
_atom_site_type_symbol
_atom_site_fract_x
_atom_site_fract_y
_atom_site_fract_z
O1	O	1.196375	0.117651	0.079822
O2	O	0.933914	0.131682	0.079827
O3	O	1.072154	-0.006563	0.079815
O4	O	1.058134	0.255896	0.079833
O5	O	1.072134	-0.006542	-0.079847
O6	O	0.933894	0.131703	-0.079835
O7	O	1.196354	0.117673	-0.079840
Zn8	Zn	1.065121	0.124691	-0.105187
Zn9	Zn	1.065148	0.124663	0.105174
O10	O	1.058114	0.255918	-0.079828
C11	C	0.900315	0.131058	-0.000004
C12	C	0.800231	0.129158	-0.000002
C13	C	0.753222	0.128255	0.087033
C14	C	0.753198	0.128267	-0.087037
C15	C	0.659164	0.126477	-0.087038
C16	C	0.612155	0.125574	-0.000003
C17	C	0.659180	0.126461	0.087034
C18	C	0.612134	0.125580	-0.174074
C19	C	0.518095	0.123788	-0.174079
C20	C	0.471083	0.122892	-0.087043
C21	C	0.518113	0.123780	-0.000002
C22	C	0.471104	0.122878	0.087033
C23	C	0.518132	0.123773	0.174075
C24	C	0.612168	0.125565	0.174070
C25	C	0.377047	0.121100	-0.087038
C26	C	0.377062	0.121084	0.087034
C27	C	1.071509	-0.040141	-0.000016
C28	C	1.069604	-0.140225	-0.000017
C29	C	0.986593	-0.176599	-0.000018
C30	C	1.150826	-0.197894	-0.000010
C31	C	1.149040	-0.291928	-0.000006
C32	C	1.066029	-0.328302	-0.000006
C33	C	0.984804	-0.270641	-0.000010
C34	C	1.230263	-0.349595	0.000008
C35	C	1.228480	-0.443635	0.000013
C36	C	1.145468	-0.480011	0.000006
C37	C	1.064240	-0.422344	0.000001
C38	C	0.981229	-0.458718	0.000001
C39	C	0.900000	-0.401053	-0.000012
C40	C	0.901792	-0.307017	-0.000017
C41	C	1.143675	-0.574047	0.000012
C42	C	0.979439	-0.552760	0.000008
C43	C	1.229953	0.118296	-0.000008
C44	C	1.330038	0.120197	-0.000003
C45	C	1.058760	0.289496	0.000005
C46	C	1.060664	0.389579	0.000012
N47	N	1.065109	0.124710	-0.248754
C48	C	1.119904	0.179424	-0.701010
C49	C	1.010419	0.069865	-0.701005
C50	C	1.010405	0.069880	-0.600510
C51	C	1.065143	0.124666	-0.550259
C52	C	1.119894	0.179439	-0.600505
C53	C	0.955662	0.015102	-0.550257
C54	C	0.955647	0.015114	-0.449755
C55	C	1.010380	0.069906	-0.399503
C56	C	1.065133	0.124681	-0.449754
C57	C	1.119870	0.179467	-0.399504
C58	C	1.174619	0.234248	-0.449754
C59	C	1.174627	0.234231	-0.550253
C60	C	1.010372	0.069923	-0.299004
C61	C	1.119860	0.179482	-0.298999
N62	N	1.065166	0.124638	0.248740
H63	H	0.338793	0.120355	0.157910
C64	C	0.897246	-0.113168	-0.000027
N65	N	0.829948	-0.065390	-0.000032
C66	C	0.663840	0.126645	-0.269806
N67	N	0.702786	0.127477	-0.341914
H68	H	1.209811	-0.620993	0.000032
C69	C	1.242134	-0.157879	-0.000015
N70	N	1.310910	-0.127736	-0.000023
C71	C	0.808690	-0.441077	-0.000015
N72	N	0.739917	-0.471227	-0.000022
H73	H	1.164476	0.224028	-0.741927
C74	C	0.812448	-0.243579	-0.000018
N75	N	0.745155	-0.195795	-0.000013
C76	C	0.950210	0.009604	-0.756284
N77	N	0.904856	-0.035783	-0.797924
H78	H	0.965799	0.025319	-0.258095
H79	H	0.791515	0.128987	0.157900
H80	H	1.164430	0.224101	-0.258092
H81	H	1.294622	-0.490579	0.000022
H82	H	0.479845	0.123033	0.244939
H83	H	1.219190	0.278851	-0.408827
C84	C	1.321569	-0.309578	0.000001
N85	N	1.390344	-0.279433	-0.000012
C86	C	0.663907	0.126538	0.269807
N87	N	0.702881	0.127266	0.341915
C88	C	0.466371	0.122822	-0.269825
N89	N	0.427410	0.122102	-0.341943
H90	H	1.219202	0.278828	-0.591175
C91	C	0.325321	0.120113	-0.182778
N92	N	0.286362	0.119372	-0.254894
C93	C	0.895453	-0.045157	-0.605538
N94	N	0.850098	-0.090543	-0.647180
H95	H	0.911067	-0.029492	-0.408850
H96	H	0.911841	-0.582368	-0.000001
C97	C	0.804905	0.129307	-0.182770
N98	N	0.843852	0.130112	-0.254880
