data_functionalizedCrystal
_audit_creation_method	'MofGen! by Chris Wilmer'
_symmetry_space_group_name_H-M	'P1'
_symmetry_Int_Tables_number	1
_symmetry_cell_setting	triclinic
loop_
_symmetry_equiv_pos_as_xyz
  x,y,z
_cell_length_a	19.188930
_cell_length_b	22.610064
_cell_length_c	19.188930
_cell_angle_alpha	89.998940
_cell_angle_beta	96.855221
_cell_angle_gamma	90.022082
loop_
_atom_site_label
_atom_site_type_symbol
_atom_site_fract_x
_atom_site_fract_y
_atom_site_fract_z
O1	O	0.926150	0.049381	-0.087158
O2	O	0.722838	0.049342	-0.098892
O3	O	0.830361	0.049351	0.008630
O4	O	0.818627	0.049372	-0.194681
O5	O	0.830342	-0.049018	0.008615
O6	O	0.722819	-0.049028	-0.098908
O7	O	0.926131	-0.048988	-0.087174
Zn8	Zn	0.824472	-0.064626	-0.093043
Zn9	Zn	0.824497	0.064980	-0.093023
O10	O	0.818608	-0.048997	-0.194697
C11	C	0.696818	0.000152	-0.098520
C12	C	0.619313	0.000136	-0.097380
C13	C	0.574389	0.000152	-0.160470
C14	C	0.501566	0.000158	-0.159399
C15	C	0.473669	0.000161	-0.095233
C16	C	0.518603	0.000142	-0.032133
C17	C	0.591425	0.000129	-0.033207
N18	N	0.365695	0.033659	-0.046180
N19	N	0.296517	0.033672	-0.045165
C20	C	0.254260	0.000197	-0.091994
N21	N	0.283795	-0.033285	-0.139889
N22	N	0.352979	-0.033295	-0.140906
C23	C	0.394707	0.000174	-0.094061
C24	C	0.130372	0.000218	-0.153928
C25	C	0.057547	0.000221	-0.152853
C26	C	0.074586	0.000211	-0.025586
C27	C	0.147409	0.000202	-0.026662
C28	C	0.175298	0.000209	-0.090835
N29	N	0.824460	-0.153078	-0.093057
C30	C	0.872110	-0.561716	-0.045419
C31	C	0.872114	-0.623636	-0.045414
O32	O	0.912598	-0.655651	-0.004921
N33	N	0.824497	-0.654616	-0.093008
C34	C	0.776868	-0.623672	-0.140606
O35	O	0.736366	-0.655709	-0.181088
C36	C	0.776862	-0.561754	-0.140607
C37	C	0.824487	-0.530777	-0.093014
C38	C	0.919731	-0.530739	0.002171
C39	C	0.919728	-0.468823	0.002164
C40	C	0.872105	-0.437884	-0.045431
C41	C	0.824484	-0.468861	-0.093021
C42	C	0.729230	-0.530812	-0.188201
C43	C	0.729227	-0.468889	-0.188198
C44	C	0.776853	-0.437912	-0.140605
C45	C	0.776857	-0.376007	-0.140622
N46	N	0.824475	-0.345027	-0.093028
C47	C	0.872098	-0.375966	-0.045432
C48	C	0.776884	-0.753706	-0.140599
C49	C	0.776893	-0.815624	-0.140602
C50	C	0.872138	-0.815583	-0.045409
C51	C	0.872132	-0.753664	-0.045410
C52	C	0.824501	-0.722726	-0.093005
C53	C	0.872089	-0.245938	-0.045449
C54	C	0.872084	-0.184017	-0.045461
C55	C	0.776836	-0.184064	-0.140652
C56	C	0.776844	-0.245979	-0.140643
C57	C	0.824473	-0.276915	-0.093035
O58	O	0.736392	-0.343952	-0.181093
O59	O	0.912588	-0.343921	-0.004951
C60	C	0.952151	0.000203	-0.087546
C61	C	1.029656	0.000223	-0.088687
C62	C	0.829972	0.000165	0.034634
C63	C	0.828831	0.000159	0.112138
N64	N	0.824515	0.153432	-0.093004
C65	C	0.818997	0.000190	-0.220700
C66	C	0.820138	0.000200	-0.298204
C67	C	0.891922	0.000169	0.157062
C68	C	0.890850	0.000178	0.229886
C69	C	0.826684	0.000166	0.257782
C70	C	0.763585	0.000160	0.212849
C71	C	0.764658	0.000157	0.140026
N72	N	0.777630	-0.033320	0.365782
N73	N	0.776615	-0.033319	0.434961
C74	C	0.823446	0.000177	0.477191
N75	N	0.871342	0.033664	0.447631
N76	N	0.872359	0.033659	0.378446
C77	C	0.825513	0.000170	0.336745
C78	C	0.885379	0.000198	0.601079
C79	C	0.884305	0.000211	0.673904
C80	C	0.757038	0.000186	0.656865
C81	C	0.758114	0.000179	0.584042
C82	C	0.822287	0.000182	0.556154
H83	H	0.597091	0.000159	-0.212725
F84	F	0.922776	-0.151052	0.005194
F85	F	0.678529	-0.435967	-0.238855
F86	F	0.639238	0.000113	0.033946
H87	H	0.910872	-0.271119	-0.006682
H88	H	0.464982	0.000169	-0.210776
H89	H	0.711340	0.000151	0.235567
H90	H	0.495885	0.000152	0.020111
H91	H	0.935683	0.000222	0.710481
H92	H	0.706738	0.000168	0.547464
H93	H	0.153080	0.000215	-0.206181
F94	F	0.688747	0.000177	0.686550
H95	H	0.020970	0.000231	-0.204232
F96	F	0.044901	0.000208	0.042705
H97	H	0.738120	-0.840841	-0.179364
H98	H	0.738099	-0.728520	-0.179362
H99	H	0.958507	-0.443605	0.040920
H100	H	0.183988	0.000192	0.024713
F101	F	0.958003	0.000189	0.277706
H102	H	0.958512	-0.555924	0.040932
H103	H	0.910912	-0.728446	-0.006655
H104	H	0.738064	-0.158864	-0.179406
F105	F	0.922823	-0.848522	0.005248
H106	H	0.690449	-0.556024	-0.226955
F107	F	0.726162	-0.278946	-0.191304
F108	F	0.960220	0.000185	0.127386
F109	F	0.953676	0.000198	0.571396
F110	F	0.697505	0.000147	0.092213
