data_functionalizedCrystal
_audit_creation_method	'MofGen! by Chris Wilmer'
_symmetry_space_group_name_H-M	'P1'
_symmetry_Int_Tables_number	1
_symmetry_cell_setting	triclinic
loop_
_symmetry_equiv_pos_as_xyz
  x,y,z
_cell_length_a	12.759401
_cell_length_b	12.759399
_cell_length_c	11.169409
_cell_angle_alpha	90.030108
_cell_angle_beta	89.978635
_cell_angle_gamma	89.984225
loop_
_atom_site_label
_atom_site_type_symbol
_atom_site_fract_x
_atom_site_fract_y
_atom_site_fract_z
Zn1	Zn	1.606274	0.418138	-0.678611
Zn2	Zn	1.606165	0.593864	-0.477935
Zn3	Zn	1.430572	0.418204	-0.477940
Zn4	Zn	1.430566	0.593781	-0.678575
O5	O	1.518394	0.505997	-0.578265
O6	O	1.753281	0.441456	-0.652004
O7	O	1.582829	0.570625	-0.309986
O8	O	1.453927	0.271175	-0.504576
O9	O	1.753201	0.570561	-0.504569
O10	O	1.583015	0.271126	-0.652008
O11	O	1.453821	0.441569	-0.309989
O12	O	1.283550	0.441488	-0.504541
O13	O	1.453917	0.570419	-0.846529
O14	O	1.283546	0.570483	-0.651947
O15	O	1.583009	0.441375	-0.846556
O16	O	1.582824	0.740874	-0.504534
O17	O	1.453812	0.740813	-0.651943
C18	C	1.245427	0.505984	-0.578241
C19	C	1.128650	0.506004	-0.578260
C20	C	1.518334	0.778964	-0.578260
C21	C	1.518404	0.895741	-0.578298
C22	C	1.073814	0.573274	-0.654893
C23	C	0.964090	0.573278	-0.654917
C24	C	0.964048	0.438739	-0.501663
C25	C	1.073770	0.438731	-0.501647
C26	C	0.814195	0.610969	-0.796412
C27	C	0.759355	0.678256	-0.873035
C28	C	0.794953	0.780785	-0.891260
C29	C	0.885390	0.816050	-0.832846
C30	C	0.940225	0.748769	-0.756214
C31	C	0.904628	0.646225	-0.738011
C32	C	1.223667	0.401050	-0.360150
C33	C	1.278504	0.333774	-0.283511
C34	C	1.242907	0.231242	-0.265273
C35	C	1.152467	0.195981	-0.323667
C36	C	1.097630	0.263258	-0.400306
C37	C	1.133234	0.365788	-0.418546
C38	C	1.585658	0.950600	-0.501634
C39	C	1.585727	1.060324	-0.501683
C40	C	1.451280	1.060320	-0.655064
C41	C	1.451216	0.950598	-0.655020
C42	C	1.709738	1.210202	-0.458986
C43	C	1.776983	1.265064	-0.382303
C44	C	1.793144	1.229530	-0.265197
C45	C	1.742046	1.139134	-0.224751
C46	C	1.674793	1.084277	-0.301427
C47	C	1.658651	1.119810	-0.418550
C48	C	1.327205	0.800719	-0.697705
C49	C	1.259946	0.745860	-0.774376
C50	C	1.243774	0.781392	-0.891484
C51	C	1.294854	0.871791	-0.931926
C52	C	1.362113	0.926650	-0.855255
C53	C	1.378286	0.891110	-0.738149
C54	C	1.792427	0.506011	-0.578290
C55	C	1.909204	0.506016	-0.578300
C56	C	1.518475	0.505880	-0.891308
C57	C	1.518509	0.505831	-1.024708
C58	C	1.518487	1.231964	-0.578317
C59	C	1.518536	1.115187	-0.578392
C60	C	1.518374	0.506037	-0.266440
C61	C	1.518543	0.505791	-0.133041
H62	H	1.118494	0.628050	-0.717279
F63	F	1.620407	0.988081	-0.258386
H64	H	1.218360	0.672247	-0.741441
H65	H	1.287560	0.176470	-0.202857
H66	H	1.755201	1.110215	-0.129387
F67	F	1.001370	0.225729	-0.462448
H68	H	1.396576	1.104998	-0.717526
H69	H	1.340375	0.771773	-0.602349
F70	F	1.416478	1.022862	-0.898301
F71	F	1.036467	0.786295	-0.694044
F72	F	1.172138	0.723038	-0.973059
F73	F	0.923262	0.925184	-0.852233
F74	F	0.736588	0.852393	-0.972815
H75	H	1.640368	0.905938	-0.439164
H76	H	1.352145	0.362492	-0.235963
H77	H	1.252665	0.484537	-0.375004
F78	F	1.864711	1.287923	-0.183588
F79	F	0.663110	0.640720	-0.935205
F80	F	0.776311	0.501838	-0.777038
H81	H	1.818588	1.338664	-0.415246
F82	F	1.277643	0.909612	-1.056566
F83	F	0.905632	0.367147	-0.420130
H84	H	1.123471	0.112498	-0.308798
H85	H	1.696596	1.239136	-0.554346
