data_functionalizedCrystal
_audit_creation_method	'MofGen! by Chris Wilmer'
_symmetry_space_group_name_H-M	'P1'
_symmetry_Int_Tables_number	1
_symmetry_cell_setting	triclinic
loop_
_symmetry_equiv_pos_as_xyz
  x,y,z
_cell_length_a	10.723024
_cell_length_b	10.489741
_cell_length_c	9.798715
_cell_angle_alpha	89.997135
_cell_angle_beta	89.996609
_cell_angle_gamma	84.503522
loop_
_atom_site_label
_atom_site_type_symbol
_atom_site_fract_x
_atom_site_fract_y
_atom_site_fract_z
O1	O	1.657297	0.178906	-0.113481
O2	O	1.294155	0.196031	-0.113486
O3	O	1.483989	0.001865	-0.113475
O4	O	1.467463	0.373072	-0.113492
O5	O	1.483975	0.001865	0.113507
O6	O	1.294141	0.196030	0.113496
O7	O	1.657283	0.178906	0.113501
Zn8	Zn	1.475709	0.187468	0.149537
Zn9	Zn	1.475728	0.187469	-0.149522
O10	O	1.467448	0.373071	0.113490
C11	C	1.247647	0.194785	0.000005
C12	C	1.109091	0.191056	0.000003
C13	C	1.482734	-0.045666	0.000015
C14	C	1.478999	-0.187293	0.000012
C15	C	1.034175	0.299701	-0.000003
C16	C	0.890969	0.295850	-0.000004
C17	C	1.358213	-0.255356	0.000001
C18	C	1.415265	-0.347515	0.111915
C19	C	1.415307	-0.347489	-0.111871
C20	C	1.536100	-0.277587	0.112019
C21	C	1.536126	-0.277551	-0.111868
C22	C	1.593265	-0.369683	0.000074
C23	C	1.703790	0.180152	0.000007
C24	C	1.842347	0.183881	-0.000000
C25	C	1.468704	0.420602	-0.000003
C26	C	1.472438	0.562229	-0.000009
N27	N	1.475706	0.187467	0.353637
N28	N	1.475742	0.187460	-0.353622
C29	C	1.555412	0.105583	0.421418
C30	C	1.555432	0.105578	0.578581
H31	H	0.826593	0.388858	-0.000015
H32	H	1.364191	-0.378420	-0.206495
H33	H	1.407476	0.257563	0.411957
H34	H	1.623632	0.035476	0.363099
H35	H	1.623676	0.035479	0.636870
N36	N	1.390128	0.275432	0.573297
N37	N	1.393203	0.393327	0.589151
H38	H	1.332738	0.455460	0.537531
N39	N	1.056564	0.070787	-0.000020
N40	N	1.080270	-0.006560	-0.095700
H41	H	1.043175	-0.091504	-0.095719
H42	H	1.258904	-0.205641	0.000112
H43	H	1.364151	-0.378494	0.206530
N44	N	1.717944	-0.431800	0.000135
N45	N	1.754186	-0.504484	-0.095973
H46	H	1.842238	-0.548359	-0.095926
H47	H	1.076055	0.395567	0.000001
H48	H	1.587157	-0.246787	0.206741
H49	H	0.906715	0.090867	-0.000004
H50	H	1.587196	-0.246539	-0.206487
