data_functionalizedCrystal
_audit_creation_method	'MofGen! by Chris Wilmer'
_symmetry_space_group_name_H-M	'P1'
_symmetry_Int_Tables_number	1
_symmetry_cell_setting	triclinic
loop_
_symmetry_equiv_pos_as_xyz
  x,y,z
_cell_length_a	17.699083
_cell_length_b	19.188924
_cell_length_c	16.176319
_cell_angle_alpha	89.991125
_cell_angle_beta	89.998611
_cell_angle_gamma	83.212490
loop_
_atom_site_label
_atom_site_type_symbol
_atom_site_fract_x
_atom_site_fract_y
_atom_site_fract_z
O1	O	1.003960	0.088295	-0.068634
O2	O	1.503960	0.588295	0.431366
O3	O	0.783566	0.099782	-0.068662
O4	O	1.283566	0.599782	0.431338
O5	O	0.900126	-0.007610	-0.068638
O6	O	1.400126	0.492390	0.431362
O7	O	0.887400	0.195687	-0.068659
O8	O	1.387400	0.695687	0.431341
O9	O	0.900110	-0.007617	0.068855
O10	O	1.400110	0.492383	0.568855
O11	O	0.783550	0.099775	0.068831
O12	O	1.283550	0.599775	0.568831
O13	O	1.003944	0.088288	0.068859
O14	O	1.503944	0.588288	0.568859
Cu15	Cu	0.893746	0.094031	0.081399
Cu16	Cu	1.393746	0.594031	0.581399
Cu17	Cu	0.893765	0.094039	-0.081202
Cu18	Cu	1.393765	0.594039	0.418798
O19	O	0.887384	0.195680	0.068834
O20	O	1.387384	0.695680	0.568834
C21	C	0.755362	0.099367	0.000081
C22	C	1.255362	0.599367	0.500081
C23	C	0.671345	0.098132	0.000071
C24	C	1.171345	0.598132	0.500071
C25	C	0.622640	0.161169	0.000065
C26	C	1.122640	0.661169	0.500065
C27	C	0.543698	0.160005	0.000076
C28	C	1.043698	0.660005	0.500076
C29	C	0.513464	0.095803	0.000087
C30	C	1.013464	0.595803	0.500087
C31	C	0.562175	0.032761	0.000096
C32	C	1.062175	0.532761	0.500096
C33	C	0.641116	0.033926	0.000091
C34	C	1.141116	0.533926	0.500091
C35	C	0.243819	0.028060	0.000116
C36	C	0.743819	0.528060	0.500116
C37	C	0.164872	0.026900	0.000119
C38	C	0.664872	0.526900	0.500119
C39	C	0.146401	0.154139	0.000101
C40	C	0.646401	0.654139	0.500101
C41	C	0.225341	0.155305	0.000096
C42	C	0.725341	0.655305	0.500096
C43	C	0.274046	0.092263	0.000110
C44	C	0.774046	0.592263	0.500110
C45	C	0.359644	0.093526	0.000099
C46	C	0.859644	0.593526	0.500099
C47	C	0.427868	0.094538	0.000091
C48	C	0.927868	0.594538	0.500091
C49	C	0.899707	-0.033625	0.000110
C50	C	1.399707	0.466375	0.500110
C51	C	0.898472	-0.111132	0.000112
C52	C	1.398472	0.388868	0.500112
C53	C	0.897905	-0.147527	-0.074836
C54	C	1.397905	0.352473	0.425164
C55	C	0.896734	-0.220351	-0.074843
C56	C	1.396734	0.279649	0.425157
C57	C	0.896146	-0.256779	0.000103
C58	C	1.396146	0.243221	0.500103
C59	C	0.896710	-0.220374	0.075061
C60	C	1.396710	0.279626	0.575061
C61	C	0.897873	-0.147550	0.075065
C62	C	1.397873	0.352450	0.575065
N63	N	0.937384	-0.376398	0.055889
N64	N	1.437384	0.123602	0.555889
N65	N	0.936281	-0.445578	0.055879
N66	N	1.436281	0.054422	0.555879
C67	C	0.892641	-0.476192	0.000095
C68	C	1.392641	0.023808	0.500095
N69	N	0.850154	-0.435014	-0.055693
N70	N	1.350154	0.064986	0.444307
N71	N	0.851261	-0.365828	-0.055686
N72	N	1.351261	0.134172	0.444314
C73	C	0.894885	-0.335744	0.000107
C74	C	1.394885	0.164256	0.500107
C75	C	0.890803	-0.591552	-0.074865
C76	C	1.390803	-0.091552	0.425135
C77	C	0.889627	-0.664376	-0.074869
C78	C	1.389627	-0.164376	0.425131
C79	C	0.889610	-0.664398	0.075037
C80	C	1.389610	-0.164398	0.575037
C81	C	0.890778	-0.591574	0.075038
C82	C	1.390778	-0.091574	0.575038
C83	C	0.891378	-0.555155	0.000085
C84	C	1.391378	-0.055155	0.500085
C85	C	1.032149	0.088703	0.000114
C86	C	1.532149	0.588703	0.500114
C87	C	1.116165	0.089938	0.000118
C88	C	1.616165	0.589938	0.500118
C89	C	0.887804	0.221695	0.000085
C90	C	1.387804	0.721695	0.500085
C91	C	0.889038	0.299202	0.000078
C92	C	1.389038	0.799202	0.500078
N93	N	0.893738	0.094025	0.195764
N94	N	1.393738	0.594025	0.695764
N95	N	0.893778	0.094040	-0.195568
N96	N	1.393778	0.594040	0.304432
C97	C	0.945366	0.046491	0.239039
C98	C	1.445366	0.546491	0.739039
C99	C	0.945370	0.046490	0.325586
C100	C	1.445370	0.546490	0.825586
C101	C	0.893749	0.094027	0.368857
C102	C	1.393749	0.594027	0.868857
C103	C	0.842115	0.141564	0.325576
C104	C	1.342115	0.641564	0.825576
C105	C	0.842108	0.141560	0.239030
C106	C	1.342108	0.641560	0.739030
C107	C	0.842141	0.141577	0.674604
C108	C	1.342141	0.641577	1.174604
C109	C	0.842153	0.141578	0.761156
C110	C	1.342153	0.641578	1.261156
C111	C	0.945403	0.046506	0.761160
C112	C	1.445403	0.546506	1.261160
C113	C	0.945396	0.046503	0.674615
C114	C	1.445396	0.546503	1.174615
C115	C	0.893760	0.094037	0.631341
C116	C	1.393760	0.594037	1.131341
C117	C	0.893755	0.094036	0.537497
C118	C	1.393755	0.594036	1.037497
C119	C	0.893756	0.094032	0.462700
C120	C	1.393756	0.594032	0.962700
H121	H	0.283465	-0.023272	0.000128
H122	H	0.783465	0.476728	0.500128
Cl123	Cl	0.777252	0.201342	0.815552
Cl124	Cl	1.277252	0.701342	1.315552
Cl125	Cl	0.891491	-0.545816	0.169264
Cl126	Cl	1.391491	-0.045816	0.669264
H127	H	0.889161	-0.694008	-0.135903
H128	H	1.389161	-0.194008	0.364097
Cl129	Cl	0.085167	0.233393	0.000089
Cl130	Cl	0.585167	0.733393	0.500089
H131	H	0.800067	0.180267	0.203797
H132	H	1.300067	0.680267	0.703797
Cl133	Cl	0.702346	-0.045324	0.000102
Cl134	Cl	1.202346	0.454676	0.500102
Cl135	Cl	0.888867	-0.710185	0.169256
Cl136	Cl	1.388867	-0.210185	0.669256
H137	H	0.140259	-0.025384	0.000129
H138	H	0.640259	0.474616	0.500129
H139	H	0.800099	0.180281	0.639378
H140	H	1.300099	0.680281	1.139378
Cl141	Cl	0.777215	0.201323	0.379971
Cl142	Cl	1.277215	0.701323	0.879971
H143	H	0.987405	0.007784	0.203814
H144	H	1.487405	0.507784	0.703814
H145	H	0.647250	0.213450	0.000055
H146	H	1.147250	0.713450	0.500055
H147	H	0.896229	-0.250037	0.136082
H148	H	1.396229	0.249963	0.636082
H149	H	0.537552	-0.019514	0.000116
H150	H	1.037552	0.480486	0.500116
H151	H	0.987409	0.007784	0.360821
H152	H	1.487409	0.507784	0.860821
H153	H	0.504044	0.211336	0.000069
H154	H	1.004044	0.711336	0.500069
H155	H	0.898391	-0.117880	-0.135869
H156	H	1.398391	0.382120	0.364131
Cl157	Cl	0.263346	0.236019	0.000078
Cl158	Cl	0.763346	0.736019	0.500078
H159	H	0.896268	-0.249990	-0.135876
H160	H	1.396268	0.250010	0.364124
Cl161	Cl	1.010295	-0.013257	0.620221
Cl162	Cl	1.510295	0.486743	1.120221
Cl163	Cl	0.898585	-0.101793	0.169293
Cl164	Cl	1.398585	0.398207	0.669293
H165	H	0.891287	-0.561898	-0.135897
H166	H	1.391287	-0.061898	0.364103
Cl167	Cl	1.010315	-0.013254	0.815566
Cl168	Cl	1.510315	0.486746	1.315566
