data_functionalizedCrystal
_audit_creation_method	'MofGen! by Chris Wilmer'
_symmetry_space_group_name_H-M	'P1'
_symmetry_Int_Tables_number	1
_symmetry_cell_setting	triclinic
loop_
_symmetry_equiv_pos_as_xyz
  x,y,z
_cell_length_a	16.959455
_cell_length_b	12.645330
_cell_length_c	16.959447
_cell_angle_alpha	90.028204
_cell_angle_beta	90.014322
_cell_angle_gamma	90.009593
loop_
_atom_site_label
_atom_site_type_symbol
_atom_site_fract_x
_atom_site_fract_y
_atom_site_fract_z
Zn1	Zn	1.208425	-0.422105	0.446920
Zn2	Zn	1.208364	-0.599396	0.314747
Zn3	Zn	1.076253	-0.422138	0.314758
Zn4	Zn	1.076235	-0.599317	0.446885
O5	O	1.142319	-0.510739	0.380828
O6	O	1.319027	-0.445642	0.429397
O7	O	1.190822	-0.575930	0.204137
O8	O	1.093819	-0.273786	0.332309
O9	O	1.318983	-0.575898	0.332290
O10	O	1.190925	-0.273762	0.429408
O11	O	1.093760	-0.445699	0.204145
O12	O	0.965640	-0.445622	0.332275
O13	O	1.093788	-0.575763	0.557501
O14	O	0.965626	-0.575795	0.429348
O15	O	1.190907	-0.445565	0.557527
O16	O	1.190804	-0.747733	0.332256
O17	O	1.093729	-0.747675	0.429337
C18	C	0.936953	-0.510704	0.380809
C19	C	0.849096	-0.510715	0.380820
C20	C	0.477603	-0.442903	0.330387
C21	C	0.477638	-0.578663	0.431313
C22	C	0.560184	-0.578648	0.431308
C23	C	0.601443	-0.510760	0.380841
C24	C	0.560157	-0.442888	0.330379
C25	C	0.601477	-0.646526	0.481764
C26	C	0.684028	-0.646515	0.481761
C27	C	0.725289	-0.578621	0.431297
C28	C	0.683997	-0.510745	0.380833
C29	C	0.725256	-0.442857	0.330366
C30	C	0.683966	-0.374975	0.279906
C31	C	0.601418	-0.374994	0.279915
C32	C	0.807837	-0.578602	0.431288
C33	C	0.807810	-0.442842	0.330358
C34	C	1.142280	-0.786169	0.380809
C35	C	1.142335	-0.903999	0.380827
C36	C	1.203307	-1.071555	0.319629
C37	C	1.203505	-0.948995	0.319779
C38	C	1.164917	-0.948380	0.464146
C39	C	1.165401	-1.070978	0.463821
C40	C	1.058757	-1.071321	0.359528
C41	C	1.059158	-0.948717	0.357659
C42	C	1.348487	-0.510775	0.380846
C43	C	1.436344	-0.510790	0.380854
C44	C	1.142352	-0.510651	0.586996
C45	C	1.142366	-0.510614	0.674852
C46	C	1.142380	-0.234234	0.380864
C47	C	1.142407	-0.116404	0.380879
C48	C	1.142332	-0.510750	0.175461
C49	C	1.142471	-0.510489	0.087605
C50	C	1.091895	-0.578290	1.046317
C51	C	1.193026	-0.442715	1.046339
C52	C	1.193005	-0.442737	0.963793
C53	C	1.142429	-0.510538	0.922506
C54	C	1.091874	-0.578317	0.963764
C55	C	1.243565	-0.374967	0.922529
C56	C	1.243546	-0.374988	0.839978
C57	C	1.192966	-0.442784	0.798689
C58	C	1.142408	-0.510565	0.839952
C59	C	1.091832	-0.578366	0.798664
C60	C	1.041270	-0.646142	0.839926
C61	C	1.041293	-0.646113	0.922475
C62	C	1.192942	-0.442813	0.716140
C63	C	1.091811	-0.578393	0.716111
H64	H	0.444040	-0.633940	0.472397
H65	H	1.226544	-1.099495	0.481907
N66	N	1.284942	-1.112241	0.338121
H67	H	1.305645	-1.153752	0.291638
H68	H	1.282590	-1.159558	0.386022
N69	N	0.556979	-0.719754	0.536186
H70	H	0.498420	-0.709459	0.528535
H71	H	0.571427	-0.703354	0.592659
N72	N	0.998642	-1.109746	0.418605
H73	H	0.973744	-1.047091	0.445895
H74	H	1.025469	-1.156144	0.458961
N75	N	1.036595	-0.910313	0.276441
H76	H	1.080065	-0.864139	0.254739
H77	H	0.986146	-0.868129	0.279826
H78	H	0.717639	-0.701788	0.522849
H79	H	1.038220	-1.102330	0.299830
N80	N	0.852372	-0.651815	0.485699
H81	H	0.813709	-0.694829	0.517667
H82	H	0.886635	-0.608722	0.522335
N83	N	0.995813	-0.908137	0.412412
H84	H	1.008081	-0.930661	0.468211
H85	H	0.943110	-0.938171	0.396028
H86	H	1.050618	-0.633596	0.682500
H87	H	1.284717	-0.319800	0.806390
H88	H	1.189377	-0.918993	0.257999
H89	H	1.189356	-1.101109	0.257669
H90	H	1.284746	-0.319774	0.956151
H91	H	1.000094	-0.701350	0.806299
N92	N	0.986773	-0.719204	0.966993
H93	H	0.999024	-0.794958	0.952618
H94	H	0.930315	-0.702646	0.952623
N95	N	1.247487	-0.369743	0.671639
H96	H	1.239805	-0.380053	0.613079
H97	H	1.303931	-0.386281	0.686074
N98	N	1.285571	-0.910033	0.338486
H99	H	1.321757	-0.972500	0.346672
H100	H	1.284121	-0.865772	0.388051
H101	H	1.050726	-0.633468	1.079916
N102	N	1.247579	-0.369596	1.090866
H103	H	1.239922	-0.379866	1.149421
H104	H	1.235288	-0.293887	1.076455
H105	H	1.121910	-0.919230	0.511004
H106	H	1.122987	-1.100641	0.511029
N107	N	1.244999	-0.907627	0.488504
H108	H	1.243849	-0.827830	0.490816
H109	H	1.285753	-0.931195	0.448801
N110	N	0.852309	-0.369607	0.275934
H111	H	0.813624	-0.326609	0.243974
H112	H	0.886546	-0.412685	0.239291
H113	H	0.717570	-0.319706	0.238812
H114	H	0.567792	-0.319729	0.238832
H115	H	0.443981	-0.387632	0.289305
