data_functionalizedCrystal
_audit_creation_method	'MofGen! by Chris Wilmer'
_symmetry_space_group_name_H-M	'P1'
_symmetry_Int_Tables_number	1
_symmetry_cell_setting	triclinic
loop_
_symmetry_equiv_pos_as_xyz
  x,y,z
_cell_length_a	10.540535
_cell_length_b	10.540514
_cell_length_c	9.016244
_cell_angle_alpha	90.000952
_cell_angle_beta	89.995024
_cell_angle_gamma	84.519401
loop_
_atom_site_label
_atom_site_type_symbol
_atom_site_fract_x
_atom_site_fract_y
_atom_site_fract_z
O1	O	1.685880	0.178870	-0.123248
O2	O	1.316465	0.195732	-0.123267
O3	O	1.509617	0.002592	-0.123259
O4	O	1.492728	0.372010	-0.123256
O5	O	1.509589	0.002596	0.123422
O6	O	1.316436	0.195736	0.123413
O7	O	1.685852	0.178874	0.123433
Cu8	Cu	1.501142	0.187306	0.145947
Cu9	Cu	1.501175	0.187301	-0.145782
O10	O	1.492699	0.372014	0.123425
C11	C	1.269148	0.194471	0.000070
C12	C	1.128200	0.190691	0.000062
C13	C	1.091542	0.049675	0.000067
C14	C	0.944942	0.045698	0.000641
C15	C	0.918842	0.255065	0.140673
C16	C	1.065607	0.258065	0.140777
C17	C	1.065523	0.260112	-0.139755
C18	C	0.919177	0.253590	-0.141589
C19	C	1.508343	-0.044709	0.000077
C20	C	1.504574	-0.185659	0.000066
C21	C	1.642714	-0.256367	0.000077
C22	C	1.638840	-0.402980	0.000647
C23	C	1.429431	-0.377991	0.140667
C24	C	1.434284	-0.231451	0.140775
C25	C	1.432272	-0.231058	-0.139757
C26	C	1.430940	-0.378037	-0.141595
C27	C	1.733169	0.180135	0.000092
C28	C	1.874117	0.183915	0.000090
C29	C	1.493973	0.419315	0.000085
C30	C	1.497743	0.560265	0.000086
N31	N	1.501127	0.187308	0.351133
N32	N	1.501199	0.187288	-0.350968
C33	C	1.397486	0.290279	0.586161
C34	C	1.397716	0.290665	0.414270
C35	C	1.633848	0.217440	0.413479
C36	C	1.633282	0.218169	0.585424
C37	C	1.473365	0.053869	0.585674
C38	C	1.470320	0.054734	0.413719
H39	H	0.870121	0.354465	-0.150514
Cl40	Cl	1.424762	0.442246	0.652816
Cl41	Cl	1.579233	-0.069282	0.347396
H42	H	1.107998	0.216107	-0.246349
Cl43	Cl	0.845715	0.412186	0.148143
Cl44	Cl	1.274959	-0.158097	-0.141864
Cl45	Cl	1.156364	-0.033941	-0.155562
Cl46	Cl	0.871127	0.179706	0.302828
H47	H	1.328098	-0.402230	-0.150515
Cl48	Cl	1.245439	0.262757	0.349188
Cl49	Cl	0.875087	0.173625	-0.302169
Cl50	Cl	1.101156	0.417665	0.150038
H51	H	1.087698	0.363864	-0.141114
H52	H	1.484152	-0.203224	0.246270
Cl53	Cl	1.244744	0.262702	0.650025
Cl54	Cl	1.425287	0.443504	0.350735
Cl55	Cl	1.327075	0.009616	0.652692
H56	H	1.372684	0.031895	0.372972
Cl57	Cl	1.670866	0.368452	0.647329
H58	H	1.548984	-0.022788	0.626329
H59	H	1.712931	0.146178	0.627010
Cl60	Cl	1.277621	-0.157325	0.150035
Cl61	Cl	1.755919	0.104788	0.350341
Cl62	Cl	1.721788	-0.468870	-0.154903
H63	H	1.325798	-0.400303	0.145492
H64	H	0.915621	-0.009945	-0.100114
H65	H	1.658737	0.313678	0.370404
Cl66	Cl	1.503279	-0.182431	-0.304326
H67	H	1.698757	-0.227849	-0.100734
Cl68	Cl	1.158619	-0.032533	0.155488
Cl69	Cl	1.501745	-0.443697	0.302824
Cl70	Cl	1.727955	-0.209699	0.155501
H71	H	1.480862	-0.419036	-0.245599
H72	H	0.916482	-0.009669	0.102012
Cl73	Cl	1.721399	-0.467415	0.157164
H74	H	1.105770	0.210018	0.246267
