data_functionalizedCrystal
_audit_creation_method	'MofGen! by Chris Wilmer'
_symmetry_space_group_name_H-M	'P1'
_symmetry_Int_Tables_number	1
_symmetry_cell_setting	triclinic
loop_
_symmetry_equiv_pos_as_xyz
  x,y,z
_cell_length_a	10.268362
_cell_length_b	12.837943
_cell_length_c	11.792241
_cell_angle_alpha	89.511178
_cell_angle_beta	90.005910
_cell_angle_gamma	89.999416
loop_
_atom_site_label
_atom_site_type_symbol
_atom_site_fract_x
_atom_site_fract_y
_atom_site_fract_z
O1	O	-0.108278	-1.377107	-0.295234
O2	O	-0.108286	-1.075220	-0.280650
O3	O	-0.108273	-1.233489	-0.123514
O4	O	-0.108292	-1.218837	-0.452369
O5	O	0.108328	-1.233487	-0.123504
O6	O	0.108315	-1.075218	-0.280640
O7	O	0.108322	-1.377105	-0.295223
Cu8	Cu	0.128096	-1.226161	-0.287931
Cu9	Cu	-0.128060	-1.226164	-0.287943
O10	O	0.108309	-1.218835	-0.452359
C11	C	0.000013	-1.036570	-0.275718
C12	C	0.000011	-0.921411	-0.261024
N13	N	-0.308225	-1.226166	-0.287943
C14	C	0.000027	-1.232568	-0.081125
C15	C	0.000026	-1.229813	0.045168
C16	C	-0.573896	-1.226163	-0.287936
C17	C	-0.426058	-1.226162	-0.287943
N18	N	0.308262	-1.226167	-0.287922
C19	C	0.000020	-1.415754	-0.300155
C20	C	0.000014	-1.530914	-0.314849
C21	C	0.000019	-0.681445	-0.437670
C22	C	0.000018	-0.573242	-0.423869
C23	C	0.000016	-0.596798	-0.219623
C24	C	0.000017	-0.705002	-0.233424
C25	C	0.000017	-0.747321	-0.342451
C26	C	0.000009	-0.855526	-0.356250
C27	C	0.000016	-0.879081	-0.152005
C28	C	0.000015	-0.770878	-0.138204
C29	C	0.000006	-1.219757	-0.494749
C30	C	-0.000001	-1.222512	-0.621042
C31	C	0.000004	-1.224748	0.276394
C32	C	0.000016	-1.227562	0.147724
H33	H	0.000017	-0.715902	-0.526444
H34	H	0.000123	-0.562323	-0.130858
H35	H	0.000005	-0.932730	-0.074471
H36	H	0.000023	-0.519609	-0.501407
O37	O	0.000022	-0.725232	-0.020615
H38	H	-0.088264	-0.676501	-0.009445
O39	O	0.000026	-0.901179	-0.473837
H40	H	0.000046	-0.837188	-0.537729
