data_functionalizedCrystal
_audit_creation_method	'MofGen! by Chris Wilmer'
_symmetry_space_group_name_H-M	'P1'
_symmetry_Int_Tables_number	1
_symmetry_cell_setting	triclinic
loop_
_symmetry_equiv_pos_as_xyz
  x,y,z
_cell_length_a	18.215405
_cell_length_b	18.215407
_cell_length_c	12.827885
_cell_angle_alpha	89.978600
_cell_angle_beta	89.966321
_cell_angle_gamma	90.023180
loop_
_atom_site_label
_atom_site_type_symbol
_atom_site_fract_x
_atom_site_fract_y
_atom_site_fract_z
Zn1	Zn	-0.292938	1.125094	-0.590881
Zn2	Zn	-0.042938	1.375094	-0.340881
Zn3	Zn	0.207062	1.625094	-0.090881
Zn4	Zn	0.457062	1.875094	0.159119
Zn5	Zn	-0.416023	1.125004	-0.416130
Zn6	Zn	-0.166023	1.375004	-0.166130
Zn7	Zn	0.083977	1.625004	0.083870
Zn8	Zn	0.333977	1.875004	0.333870
Zn9	Zn	-0.292976	1.002024	-0.416148
Zn10	Zn	-0.042976	1.252024	-0.166148
Zn11	Zn	0.207024	1.502024	0.083852
Zn12	Zn	0.457024	1.752024	0.333852
Zn13	Zn	-0.415969	1.001997	-0.590824
Zn14	Zn	-0.165969	1.251997	-0.340824
Zn15	Zn	0.084031	1.501997	-0.090824
Zn16	Zn	0.334031	1.751997	0.159176
O17	O	-0.354476	1.063530	-0.503496
O18	O	-0.104476	1.313530	-0.253496
O19	O	0.145524	1.563530	-0.003496
O20	O	0.395524	1.813530	0.246504
O21	O	-0.309273	1.228067	-0.567716
O22	O	-0.059273	1.478067	-0.317716
O23	O	0.190727	1.728067	-0.067716
O24	O	0.440727	1.978067	0.182284
O25	O	-0.399739	1.108664	-0.269896
O26	O	-0.149739	1.358664	-0.019896
O27	O	0.100261	1.608664	0.230104
O28	O	0.350261	1.858664	0.480104
O29	O	-0.189986	1.018398	-0.439359
O30	O	0.060014	1.268398	-0.189359
O31	O	0.310014	1.518398	0.060641
O32	O	0.560014	1.768398	0.310641
O33	O	-0.399703	1.228000	-0.439328
O34	O	-0.149703	1.478000	-0.189328
O35	O	0.100297	1.728000	0.060672
O36	O	0.350297	1.978000	0.310672
O37	O	-0.189959	1.108818	-0.567734
O38	O	0.060041	1.358818	-0.317734
O39	O	0.310041	1.608818	-0.067734
O40	O	0.560041	1.858818	0.182266
O41	O	-0.309336	1.018310	-0.269910
O42	O	-0.059336	1.268310	-0.019910
O43	O	0.190664	1.518310	0.230090
O44	O	0.440664	1.768310	0.480090
O45	O	-0.309284	0.899036	-0.439303
O46	O	-0.059284	1.149036	-0.189303
O47	O	0.190716	1.399036	0.060697
O48	O	0.440716	1.649036	0.310697
O49	O	-0.399610	1.018353	-0.737067
O50	O	-0.149610	1.268353	-0.487067
O51	O	0.100390	1.518353	-0.237067
O52	O	0.350390	1.768353	0.012933
O53	O	-0.399646	0.899017	-0.567636
O54	O	-0.149646	1.149017	-0.317636
O55	O	0.100354	1.399017	-0.067636
O56	O	0.350354	1.649017	0.182364
O57	O	-0.309220	1.108792	-0.737110
O58	O	-0.059220	1.358792	-0.487110
O59	O	0.190780	1.608792	-0.237110
O60	O	0.440780	1.858792	0.012890
O61	O	-0.519000	1.108638	-0.439272
O62	O	-0.269000	1.358638	-0.189272
O63	O	-0.019000	1.608638	0.060728
O64	O	0.231000	1.858638	0.310728
O65	O	-0.518960	1.018266	-0.567618
O66	O	-0.268960	1.268266	-0.317618
O67	O	-0.018960	1.518266	-0.067618
O68	O	0.231040	1.768266	0.182382
C69	C	-0.354464	0.872324	-0.503466
C70	C	-0.104464	1.122324	-0.253466
C71	C	0.145536	1.372324	-0.003466
C72	C	0.395536	1.622324	0.246534
C73	C	-0.354476	0.790525	-0.503478
C74	C	-0.104476	1.040525	-0.253478
C75	C	0.145524	1.290525	-0.003478
C76	C	0.395524	1.540525	0.246522
C77	C	-0.545683	1.063459	-0.503460
C78	C	-0.295683	1.313459	-0.253460
C79	C	-0.045683	1.563459	-0.003460
C80	C	0.204317	1.813459	0.246540
C81	C	-0.627482	1.063496	-0.503479
C82	C	-0.377482	1.313496	-0.253479
C83	C	-0.127482	1.563496	-0.003479
C84	C	0.122518	1.813496	0.246521
C85	C	-0.401602	0.602340	-0.570217
C86	C	-0.151602	0.852340	-0.320217
C87	C	0.098398	1.102340	-0.070217
C88	C	0.348398	1.352340	0.179783
C89	C	-0.401604	0.525481	-0.570230
C90	C	-0.151604	0.775481	-0.320230
C91	C	0.098396	1.025481	-0.070230
C92	C	0.348396	1.275481	0.179770
C93	C	-0.307364	0.525472	-0.436797
C94	C	-0.057364	0.775472	-0.186797
C95	C	0.192636	1.025472	0.063203
C96	C	0.442636	1.275472	0.313203
C97	C	-0.307359	0.602329	-0.436790
C98	C	-0.057359	0.852329	-0.186790
C99	C	0.192641	1.102329	0.063210
C100	C	0.442641	1.352329	0.313210
C101	C	-0.354482	0.640761	-0.503499
C102	C	-0.104482	0.890761	-0.253499
C103	C	0.145518	1.140761	-0.003499
C104	C	0.395518	1.390761	0.246501
C105	C	-0.354490	0.487045	-0.503519
C106	C	-0.104490	0.737045	-0.253519
C107	C	0.145510	0.987045	-0.003519
C108	C	0.395510	1.237045	0.246481
C109	C	-0.354492	0.403711	-0.503532
C110	C	-0.104492	0.653711	-0.253532
C111	C	0.145508	0.903711	-0.003532
C112	C	0.395508	1.153711	0.246468
C113	C	-0.354479	0.724100	-0.503487
C114	C	-0.104479	0.974100	-0.253487
C115	C	0.145521	1.224100	-0.003487
C116	C	0.395521	1.474100	0.246513
C117	C	-0.815600	1.110600	-0.570415
C118	C	-0.565600	1.360600	-0.320415
C119	C	-0.315600	1.610600	-0.070415
C120	C	-0.065600	1.860600	0.179585
C121	C	-0.892459	1.110627	-0.570434
C122	C	-0.642459	1.360627	-0.320434
C123	C	-0.392459	1.610627	-0.070434
C124	C	-0.142459	1.860627	0.179566
C125	C	-0.892601	1.016550	-0.436641
C126	C	-0.642601	1.266550	-0.186641
C127	C	-0.392601	1.516550	0.063359
C128	C	-0.142601	1.766550	0.313359
C129	C	-0.815743	1.016520	-0.436628
C130	C	-0.565743	1.266520	-0.186628
C131	C	-0.315743	1.516520	0.063372
C132	C	-0.065743	1.766520	0.313372
C133	C	-0.777245	1.063550	-0.503513
C134	C	-0.527245	1.313550	-0.253513
C135	C	-0.277245	1.563550	-0.003513
C136	C	-0.027245	1.813550	0.246487
C137	C	-0.930961	1.063606	-0.503546
C138	C	-0.680961	1.313606	-0.253546
C139	C	-0.430961	1.563606	-0.003546
C140	C	-0.180961	1.813606	0.246454
C141	C	-1.014295	1.063635	-0.503567
C142	C	-0.764295	1.313635	-0.253567
C143	C	-0.514295	1.563635	-0.003567
C144	C	-0.264295	1.813635	0.246433
C145	C	-0.693906	1.063520	-0.503494
C146	C	-0.443906	1.313520	-0.253494
C147	C	-0.193906	1.563520	-0.003494
C148	C	0.056094	1.813520	0.246506
C149	C	-0.162523	1.063621	-0.503555
C150	C	0.087477	1.313621	-0.253555
C151	C	0.337477	1.563621	-0.003555
C152	C	0.587477	1.813621	0.246445
C153	C	-0.080725	1.063659	-0.503580
C154	C	0.169275	1.313659	-0.253580
C155	C	0.419275	1.563659	-0.003580
C156	C	0.669275	1.813659	0.246420
C157	C	-0.354405	1.063580	-0.776066
C158	C	-0.104405	1.313580	-0.526066
C159	C	0.145595	1.563580	-0.276066
C160	C	0.395595	1.813580	-0.026066
C161	C	-0.354375	1.063601	-0.892219
C162	C	-0.104375	1.313601	-0.642219
C163	C	0.145625	1.563601	-0.392219
C164	C	0.395625	1.813601	-0.142219
C165	C	-0.354490	1.255483	-0.503526
C166	C	-0.104490	1.505483	-0.253526
C167	C	0.145510	1.755483	-0.003526
C168	C	0.395510	2.005483	0.246474
C169	C	-0.354495	1.337282	-0.503540
C170	C	-0.104495	1.587282	-0.253540
C171	C	0.145505	1.837282	-0.003540
C172	C	0.395505	2.087282	0.246460
C173	C	-0.399090	1.108316	-0.943997
C174	C	-0.149090	1.358316	-0.693997
C175	C	0.100910	1.608316	-0.443997
C176	C	0.350910	1.858316	-0.193997
C177	C	-0.399060	1.108339	-1.064048
C178	C	-0.149060	1.358339	-0.814048
C179	C	0.100940	1.608339	-0.564048
C180	C	0.350940	1.858339	-0.314048
C181	C	-0.354494	1.063522	-0.231986
C182	C	-0.104494	1.313522	0.018014
C183	C	0.145506	1.563522	0.268014
C184	C	0.395506	1.813522	0.518014
C185	C	-0.354317	1.063644	-0.115833
C186	C	-0.104317	1.313644	0.134167
C187	C	0.145683	1.563644	0.384167
C188	C	0.395683	1.813644	0.634167
H189	H	-0.439971	0.633629	-0.624538
H190	H	-0.189971	0.883629	-0.374538
H191	H	0.060029	1.133629	-0.124538
H192	H	0.310029	1.383629	0.125462
Cl193	Cl	-0.941003	0.957431	-0.352563
Cl194	Cl	-0.691003	1.207431	-0.102563
Cl195	Cl	-0.441003	1.457431	0.147437
Cl196	Cl	-0.191003	1.707431	0.397437
Cl197	Cl	-0.767522	0.957360	-0.352524
Cl198	Cl	-0.517522	1.207360	-0.102524
Cl199	Cl	-0.267522	1.457360	0.147476
Cl200	Cl	-0.017522	1.707360	0.397476
Cl201	Cl	-0.458227	1.167403	-0.875228
Cl202	Cl	-0.208227	1.417403	-0.625228
Cl203	Cl	0.041773	1.667403	-0.375228
Cl204	Cl	0.291773	1.917403	-0.125228
H205	H	-0.437344	1.146620	-1.108576
H206	H	-0.187344	1.396620	-0.858576
H207	H	0.062656	1.646620	-0.608576
H208	H	0.312656	1.896620	-0.358576
Cl209	Cl	-0.295211	1.004530	-1.047098
Cl210	Cl	-0.045211	1.254530	-0.797098
Cl211	Cl	0.204789	1.504530	-0.547098
Cl212	Cl	0.454789	1.754530	-0.297098
H213	H	-0.316066	1.025340	-0.936767
H214	H	-0.066066	1.275340	-0.686767
H215	H	0.183934	1.525340	-0.436767
H216	H	0.433934	1.775340	-0.186767
H217	H	-0.269000	0.494171	-0.382484
H218	H	-0.019000	0.744171	-0.132484
H219	H	0.231000	0.994171	0.117516
H220	H	0.481000	1.244171	0.367516
Cl221	Cl	-0.248112	0.650634	-0.352916
Cl222	Cl	0.001888	0.900634	-0.102916
Cl223	Cl	0.251888	1.150634	0.147084
Cl224	Cl	0.501888	1.400634	0.397084
Cl225	Cl	-0.460842	0.477184	-0.654111
Cl226	Cl	-0.210842	0.727184	-0.404111
Cl227	Cl	0.039158	0.977184	-0.154111
Cl228	Cl	0.289158	1.227184	0.095889
Cl229	Cl	-0.767205	1.169720	-0.654503
Cl230	Cl	-0.517205	1.419720	-0.404503
Cl231	Cl	-0.267205	1.669720	-0.154503
Cl232	Cl	-0.017205	1.919720	0.095497
H233	H	-0.923684	1.148939	-0.624915
H234	H	-0.673684	1.398939	-0.374915
H235	H	-0.423684	1.648939	-0.124915
H236	H	-0.173684	1.898939	0.125085
