data_functionalizedCrystal
_audit_creation_method	'MofGen! by Chris Wilmer'
_symmetry_space_group_name_H-M	'P1'
_symmetry_Int_Tables_number	1
_symmetry_cell_setting	triclinic
loop_
_symmetry_equiv_pos_as_xyz
  x,y,z
_cell_length_a	10.654549
_cell_length_b	19.188930
_cell_length_c	9.130307
_cell_angle_alpha	89.991600
_cell_angle_beta	89.997449
_cell_angle_gamma	83.815849
loop_
_atom_site_label
_atom_site_type_symbol
_atom_site_fract_x
_atom_site_fract_y
_atom_site_fract_z
O1	O	1.665758	0.098077	-0.121854
O2	O	1.300083	0.107416	-0.121850
O3	O	1.493473	0.001160	-0.121823
O4	O	1.472368	0.204333	-0.121880
O5	O	1.493467	0.001159	0.121776
O6	O	1.300076	0.107415	0.121749
O7	O	1.665752	0.098076	0.121745
Cu8	Cu	1.482913	0.102745	0.143990
Cu9	Cu	1.482921	0.102747	-0.144094
O10	O	1.472361	0.204332	0.121719
C11	C	1.253296	0.106729	-0.000050
C12	C	1.113896	0.104675	-0.000048
C13	C	0.821305	0.227878	-0.000123
C14	C	0.871477	0.292374	-0.000136
C15	C	1.002454	0.294306	-0.000117
C16	C	1.083264	0.231735	-0.000090
C17	C	1.033092	0.167239	-0.000078
C18	C	0.902110	0.165314	-0.000093
C19	C	1.063724	0.040180	-0.000036
C20	C	0.932747	0.038246	-0.000044
C21	C	1.144534	-0.022391	-0.000009
C22	C	1.094362	-0.086889	0.000013
C23	C	0.963376	-0.088818	-0.000004
C24	C	0.882575	-0.026250	-0.000032
C25	C	1.492786	-0.024856	-0.000020
C26	C	1.490735	-0.102374	-0.000007
C27	C	1.604210	-0.146555	-0.000001
C28	C	1.602282	-0.219391	-0.000025
C29	C	1.486873	-0.248044	-0.000025
C30	C	1.373383	-0.203853	-0.000039
C31	C	1.375314	-0.131018	-0.000030
N32	N	1.398655	-0.356627	0.082878
N33	N	1.396828	-0.425817	0.082872
C34	C	1.481049	-0.467490	-0.000054
N35	N	1.567184	-0.437360	-0.082957
N36	N	1.569015	-0.368164	-0.082945
C37	C	1.484767	-0.327020	-0.000035
C38	C	1.592442	-0.590649	-0.000076
C39	C	1.590510	-0.663487	-0.000108
C40	C	1.361607	-0.647947	-0.000108
C41	C	1.363543	-0.575111	-0.000090
C42	C	1.478964	-0.546467	-0.000067
C43	C	1.712538	0.098763	-0.000058
C44	C	1.851938	0.100817	-0.000070
C45	C	1.473048	0.230348	-0.000088
C46	C	1.475100	0.307866	-0.000111
N47	N	1.482917	0.102744	0.346612
N48	N	1.482927	0.102742	-0.346717
C49	C	1.654234	0.008682	0.346626
C50	C	1.739900	-0.038347	0.423300
C51	C	1.739913	-0.038347	0.576633
C52	C	1.654247	0.008685	0.653297
C53	C	1.568581	0.055714	0.576623
C54	C	1.568580	0.055711	0.423286
C55	C	1.397260	0.149771	0.576609
C56	C	1.397252	0.149776	0.423276
C57	C	1.311595	0.196804	0.653272
C58	C	1.225932	0.243837	0.576599
C59	C	1.225924	0.243836	0.423256
C60	C	1.311585	0.196805	0.346602
H61	H	0.922535	-0.141339	-0.000002
Cl62	Cl	1.216520	-0.683960	-0.000116
H63	H	1.809646	-0.076642	0.360867
H64	H	1.189911	0.233314	-0.000093
Cl65	Cl	1.228297	-0.239872	-0.000051
Cl66	Cl	1.654248	0.008675	0.846060
Cl67	Cl	1.847602	-0.097474	0.673025
H68	H	1.311603	0.196799	0.778125
Cl69	Cl	1.220880	-0.519567	-0.000091
Cl70	Cl	0.717915	-0.028670	-0.000044
Cl71	Cl	1.309192	-0.019962	0.000004
Cl72	Cl	1.118243	0.302953	0.672979
Cl73	Cl	1.195954	-0.165539	0.000038
H74	H	1.698194	-0.123237	0.000013
Cl75	Cl	1.744948	-0.274943	-0.000018
Cl76	Cl	1.118215	0.302959	0.326880
H77	H	1.682919	-0.699458	-0.000111
Cl78	Cl	1.232647	-0.075474	-0.000037
Cl79	Cl	1.065532	0.375387	-0.000142
H80	H	1.654242	0.008683	0.221774
H81	H	0.714655	0.226311	-0.000113
Cl82	Cl	0.769884	0.371030	-0.000180
Cl83	Cl	1.737539	-0.554636	-0.000038
Cl84	Cl	1.311588	0.196802	0.153839
