data_functionalizedCrystal
_audit_creation_method	'MofGen! by Chris Wilmer'
_symmetry_space_group_name_H-M	'P1'
_symmetry_Int_Tables_number	1
_symmetry_cell_setting	triclinic
loop_
_symmetry_equiv_pos_as_xyz
  x,y,z
_cell_length_a	10.489768
_cell_length_b	9.565339
_cell_length_c	10.654551
_cell_angle_alpha	89.996937
_cell_angle_beta	95.482075
_cell_angle_gamma	89.998724
loop_
_atom_site_label
_atom_site_type_symbol
_atom_site_fract_x
_atom_site_fract_y
_atom_site_fract_z
O1	O	-1.693948	0.116176	0.177349
O2	O	-1.322748	0.116194	0.193945
O3	O	-1.516882	0.116186	0.002912
O4	O	-1.499814	0.116185	0.368381
O5	O	-1.516866	-0.116335	0.002924
O6	O	-1.322733	-0.116326	0.193956
O7	O	-1.693932	-0.116344	0.177360
Zn8	Zn	-1.508330	-0.153252	0.185660
Zn9	Zn	-1.508350	0.153103	0.185645
O10	O	-1.499799	-0.116335	0.368393
C11	C	-1.275210	-0.000063	0.192690
C12	C	-1.133584	-0.000056	0.188918
N13	N	-1.508326	-0.362332	0.185670
C14	C	-0.980787	-0.000077	0.065121
C15	C	-1.058143	-0.114717	0.127020
C16	C	-1.058114	0.114530	0.127037
C17	C	-0.958596	-0.114828	0.244159
C18	C	-0.958562	0.114522	0.244159
C19	C	-1.035868	-0.000146	0.306144
C20	C	-1.418518	-0.453531	0.273987
C21	C	-1.534001	-0.546716	0.299410
C22	C	-1.392892	-0.546702	0.160257
C23	C	-1.623868	-0.453465	0.211151
C24	C	-1.482682	-0.453443	0.071948
C25	C	-1.598249	-0.546586	0.097324
C26	C	-0.741473	-0.000086	0.178595
C27	C	-0.883106	-0.000093	0.182308
C28	C	-1.515621	-0.000071	-0.043881
C29	C	-1.511870	-0.000062	-0.183326
N30	N	-1.508365	0.362182	0.185625
C31	C	-1.510119	0.126683	-0.248845
C32	C	-1.506585	0.126676	-0.379868
C33	C	-1.506557	-0.126830	-0.379840
C34	C	-1.510083	-0.126822	-0.248819
C35	C	-1.510141	0.273043	-0.248863
C36	C	-1.506606	0.273036	-0.379885
C37	C	-1.501060	-0.000075	0.415185
C38	C	-1.504810	-0.000076	0.554631
H39	H	-0.956116	-0.000193	-0.036786
H40	H	-1.421996	0.329249	-0.202635
Br41	Br	-1.665201	0.348726	-0.199486
Br42	Br	-1.446430	-0.385100	-0.088267
H43	H	-1.511502	-0.230030	-0.195477
Br44	Br	-1.504124	-0.298853	-0.468731
Br45	Br	-1.130577	0.276071	0.044542
Br46	Br	-1.230162	-0.614973	0.124461
H47	H	-1.555717	-0.587684	0.395563
Br48	Br	-1.724993	-0.614270	-0.027198
Br49	Br	-1.351556	0.348744	-0.429272
Br50	Br	-1.130630	-0.276267	0.044583
H51	H	-1.342640	-0.412673	0.348742
H52	H	-1.594759	0.329227	-0.426129
H53	H	-0.915287	-0.211860	0.293600
Br54	Br	-1.076580	-0.000236	0.476124
Br55	Br	-1.786644	-0.385502	0.247129
Br56	Br	-0.886024	0.276073	0.326533
