data_functionalizedCrystal
_audit_creation_method	'MofGen! by Chris Wilmer'
_symmetry_space_group_name_H-M	'P1'
_symmetry_Int_Tables_number	1
_symmetry_cell_setting	triclinic
loop_
_symmetry_equiv_pos_as_xyz
  x,y,z
_cell_length_a	12.811457
_cell_length_b	12.811415
_cell_length_c	16.176319
_cell_angle_alpha	84.562354
_cell_angle_beta	95.424545
_cell_angle_gamma	84.559489
loop_
_atom_site_label
_atom_site_type_symbol
_atom_site_fract_x
_atom_site_fract_y
_atom_site_fract_z
O1	O	1.393275	0.141364	0.025114
O2	O	1.087763	0.156740	0.001055
O3	O	1.248204	-0.003708	0.025117
O4	O	1.232834	0.301811	0.001052
O5	O	1.248181	-0.003718	0.162609
O6	O	1.087740	0.156729	0.138547
O7	O	1.393252	0.141353	0.162606
Cu8	Cu	1.240494	0.149040	0.163131
Cu9	Cu	1.240521	0.149053	0.000530
O10	O	1.232811	0.301801	0.138545
C11	C	1.048644	0.155873	0.066934
C12	C	0.932117	0.153295	0.058390
C13	C	0.713126	0.148419	0.192248
C14	C	0.603639	0.145996	0.184225
C15	C	0.603653	0.146019	0.034322
C16	C	0.713141	0.148442	0.042345
C17	C	0.767873	0.149643	0.121311
C18	C	0.877362	0.152074	0.129332
C19	C	0.877375	0.152089	-0.020569
C20	C	0.767887	0.149666	-0.028593
C21	C	1.247331	-0.042821	0.096729
C22	C	1.244750	-0.159351	0.105269
C23	C	1.239907	-0.378301	-0.028595
C24	C	1.237482	-0.487791	-0.020575
C25	C	1.237469	-0.487823	0.129329
C26	C	1.239894	-0.378333	0.121309
C27	C	1.241114	-0.323576	0.042344
C28	C	1.243546	-0.214084	0.034325
C29	C	1.243525	-0.214118	0.184228
C30	C	1.241101	-0.323608	0.192248
C31	C	1.432371	0.142219	0.096726
C32	C	1.548898	0.144798	0.105264
C33	C	1.233684	0.340914	0.066930
C34	C	1.236265	0.457444	0.058385
N35	N	1.240484	0.149031	0.277496
N36	N	1.240540	0.149054	-0.113833
C37	C	1.311548	0.078014	0.331414
C38	C	1.311554	0.078013	0.417962
C39	C	1.240498	0.149035	0.450590
C40	C	1.169426	0.220055	0.396665
C41	C	1.169416	0.220050	0.310119
C42	C	1.169462	0.220075	0.745694
C43	C	1.169479	0.220076	0.832247
C44	C	1.311599	0.078038	0.853537
C45	C	1.311590	0.078033	0.766991
C46	C	1.240514	0.149049	0.713074
C47	C	1.240508	0.149048	0.619229
C48	C	1.240509	0.149042	0.544432
H49	H	1.244543	-0.169503	-0.029972
H50	H	1.236467	-0.532424	0.193618
H51	H	1.369453	0.020204	0.740429
Cl52	Cl	1.080070	0.309329	0.242336
H53	H	1.240910	-0.333718	-0.092891
H54	H	1.111566	0.277879	0.423235
H55	H	1.236495	-0.532343	-0.078342
Cl56	Cl	1.400886	-0.011271	0.290406
Cl57	Cl	1.400950	-0.011246	0.921324
H58	H	1.240103	-0.368205	0.256539
Cl59	Cl	0.781935	0.149944	0.291515
Cl60	Cl	1.245054	-0.145316	0.273415
Cl61	Cl	1.400893	-0.011268	0.485746
H62	H	0.559073	0.145023	-0.029967
H63	H	1.111613	0.277913	0.858809
Cl64	Cl	0.946167	0.153587	0.228602
H65	H	0.559067	0.145005	0.241989
Cl66	Cl	0.699075	0.148121	-0.127855
H67	H	1.111592	0.277900	0.701801
H68	H	0.921961	0.153092	-0.078333
