data_functionalizedCrystal
_audit_creation_method	'MofGen! by Chris Wilmer'
_symmetry_space_group_name_H-M	'P1'
_symmetry_Int_Tables_number	1
_symmetry_cell_setting	triclinic
loop_
_symmetry_equiv_pos_as_xyz
  x,y,z
_cell_length_a	19.121112
_cell_length_b	19.120786
_cell_length_c	19.805399
_cell_angle_alpha	92.468930
_cell_angle_beta	92.456608
_cell_angle_gamma	89.915581
loop_
_atom_site_label
_atom_site_type_symbol
_atom_site_fract_x
_atom_site_fract_y
_atom_site_fract_z
Zn1	Zn	1.059854	-0.324937	0.412841
Zn2	Zn	1.309854	-0.074937	0.662841
Zn3	Zn	1.559854	0.175063	0.912841
Zn4	Zn	1.809854	0.425063	1.162841
Zn5	Zn	1.054766	-0.442178	0.294621
Zn6	Zn	1.304766	-0.192178	0.544621
Zn7	Zn	1.554766	0.057822	0.794621
Zn8	Zn	1.804766	0.307822	1.044621
Zn9	Zn	0.942618	-0.319946	0.295060
Zn10	Zn	1.192618	-0.069946	0.545060
Zn11	Zn	1.442618	0.180054	0.795060
Zn12	Zn	1.692618	0.430054	1.045060
Zn13	Zn	0.937583	-0.437133	0.403167
Zn14	Zn	1.187583	-0.187133	0.653167
Zn15	Zn	1.437583	0.062867	0.903167
Zn16	Zn	1.687583	0.312867	1.153167
O17	O	0.998705	-0.381048	0.351422
O18	O	1.248705	-0.131048	0.601422
O19	O	1.498705	0.118952	0.851422
O20	O	1.748705	0.368952	1.101422
O21	O	1.157284	-0.344689	0.401024
O22	O	1.407284	-0.094689	0.651024
O23	O	1.657284	0.155311	0.901024
O24	O	1.907284	0.405311	1.151024
O25	O	1.039868	-0.425987	0.199961
O26	O	1.289868	-0.175987	0.449961
O27	O	1.539868	0.074013	0.699961
O28	O	1.789868	0.324013	0.949961
O29	O	0.962406	-0.222499	0.314917
O30	O	1.212406	0.027501	0.564917
O31	O	1.462406	0.277501	0.814917
O32	O	1.712406	0.527501	1.064917
O33	O	1.153546	-0.430826	0.314168
O34	O	1.403546	-0.180826	0.564168
O35	O	1.653546	0.069174	0.814168
O36	O	1.903546	0.319174	1.064168
O37	O	1.048539	-0.226165	0.401450
O38	O	1.298539	0.023835	0.651450
O39	O	1.548539	0.273835	0.901450
O40	O	1.798539	0.523835	1.151450
O41	O	0.957473	-0.336183	0.200284
O42	O	1.207473	-0.086183	0.450284
O43	O	1.457473	0.163817	0.700284
O44	O	1.707473	0.413817	0.950284
O45	O	0.843845	-0.331291	0.305536
O46	O	1.093845	-0.081291	0.555536
O47	O	1.343845	0.168709	0.805536
O48	O	1.593845	0.418709	1.055536
O49	O	0.953825	-0.422227	0.499168
O50	O	1.203825	-0.172227	0.749168
O51	O	1.453825	0.077773	0.999168
O52	O	1.703825	0.327773	1.249168
O53	O	0.840146	-0.417388	0.384961
O54	O	1.090146	-0.167388	0.634961
O55	O	1.340146	0.082612	0.884961
O56	O	1.590146	0.332612	1.134961
O57	O	1.043657	-0.339797	0.506276
O58	O	1.293657	-0.089797	0.756276
O59	O	1.543657	0.160203	1.006276
O60	O	1.793657	0.410203	1.256276
O61	O	1.034985	-0.539618	0.304787
O62	O	1.284985	-0.289618	0.554787
O63	O	1.534985	-0.039618	0.804787
O64	O	1.784985	0.210382	1.054787
O65	O	0.948892	-0.535912	0.384535
O66	O	1.198892	-0.285912	0.634535
O67	O	1.448892	-0.035912	0.884535
O68	O	1.698892	0.214088	1.134535
C69	C	0.816558	-0.373251	0.344247
C70	C	1.066558	-0.123251	0.594247
C71	C	1.316558	0.126749	0.844247
C72	C	1.566558	0.376749	1.094247
C73	C	0.738634	-0.369933	0.341193
C74	C	0.988634	-0.119933	0.591193
C75	C	1.238634	0.130067	0.841193
C76	C	1.488634	0.380067	1.091193
C77	C	0.298008	-0.348878	0.321850
C78	C	0.548008	-0.098878	0.571850
C79	C	0.798008	0.151122	0.821850
C80	C	1.048008	0.401122	1.071850
C81	C	0.371226	-0.352000	0.324723
C82	C	0.621226	-0.102000	0.574723
C83	C	0.871226	0.148000	0.824723
C84	C	1.121226	0.398000	1.074723
C85	C	0.405922	-0.398461	0.367439
C86	C	0.655922	-0.148461	0.617439
C87	C	0.905922	0.101539	0.867439
C88	C	1.155922	0.351539	1.117439
C89	C	0.367396	-0.441797	0.407289
C90	C	0.617396	-0.191797	0.657289
C91	C	0.867396	0.058203	0.907289
C92	C	1.117396	0.308203	1.157289
C93	C	0.294180	-0.438671	0.404419
C94	C	0.544180	-0.188671	0.654419
C95	C	0.794180	0.061329	0.904419
C96	C	1.044180	0.311329	1.154419
C97	C	0.626892	-0.410143	0.378173
C98	C	0.876892	-0.160143	0.628173
C99	C	1.126892	0.089857	0.878173
C100	C	1.376892	0.339857	1.128173
C101	C	0.700114	-0.413267	0.381038
C102	C	0.950114	-0.163267	0.631038
C103	C	1.200114	0.086733	0.881038
C104	C	1.450114	0.336733	1.131038
C105	C	0.703938	-0.323469	0.298473
C106	C	0.953938	-0.073469	0.548473
C107	C	1.203938	0.176531	0.798473
C108	C	1.453938	0.426531	1.048473
C109	C	0.630720	-0.320350	0.295604
C110	C	0.880720	-0.070350	0.545604
C111	C	1.130720	0.179650	0.795604
C112	C	1.380720	0.429650	1.045604
C113	C	0.592201	-0.363683	0.335457
C114	C	0.842201	-0.113683	0.585457
C115	C	1.092201	0.136317	0.835457
C116	C	1.342201	0.386317	1.085457
C117	C	0.480762	-0.401655	0.370375
C118	C	0.730762	-0.151655	0.620375
C119	C	0.980762	0.098345	0.870375
C120	C	1.230762	0.348345	1.120375
C121	C	0.517362	-0.360485	0.332523
C122	C	0.767362	-0.110485	0.582523
C123	C	1.017362	0.139515	0.832523
C124	C	1.267362	0.389515	1.082523
C125	C	0.990859	-0.563204	0.343579
C126	C	1.240859	-0.313204	0.593579
C127	C	1.490859	-0.063204	0.843579
C128	C	1.740859	0.186796	1.093579
C129	C	0.987566	-0.641134	0.340249
C130	C	1.237566	-0.391134	0.590249
C131	C	1.487566	-0.141134	0.840249
C132	C	1.737566	0.108866	1.090249
C133	C	1.030831	-0.679593	0.383771
C134	C	1.280831	-0.429593	0.633771
C135	C	1.530831	-0.179593	0.883771
C136	C	1.780831	0.070407	1.133771
C137	C	1.027734	-0.752816	0.380643
C138	C	1.277734	-0.502816	0.630643
C139	C	1.527734	-0.252816	0.880643
C140	C	1.777734	-0.002816	1.130643
C141	C	0.981376	-0.787579	0.333989
C142	C	1.231376	-0.537579	0.583989
C143	C	1.481376	-0.287579	0.833989
C144	C	1.731376	-0.037579	1.083989
C145	C	0.938107	-0.749115	0.290465
C146	C	1.188107	-0.499115	0.540465
C147	C	1.438107	-0.249115	0.790465
C148	C	1.688107	0.000885	1.040465
C149	C	0.941201	-0.675893	0.293597
C150	C	1.191201	-0.425893	0.543597
C151	C	1.441201	-0.175893	0.793597
C152	C	1.691201	0.074107	1.043597
C153	C	0.969791	-1.008570	0.322281
C154	C	1.219791	-0.758570	0.572281
C155	C	1.469791	-0.508570	0.822281
C156	C	1.719791	-0.258570	1.072281
C157	C	0.966702	-1.081797	0.319151
C158	C	1.216702	-0.831797	0.569151
C159	C	1.466702	-0.581797	0.819151
C160	C	1.716702	-0.331797	1.069151
C161	C	1.056329	-1.085492	0.409331
C162	C	1.306329	-0.835492	0.659331
C163	C	1.556329	-0.585492	0.909331
C164	C	1.806329	-0.335492	1.159331
C165	C	1.059421	-1.012269	0.412455
C166	C	1.309421	-0.762269	0.662455
C167	C	1.559421	-0.512269	0.912455
C168	C	1.809421	-0.262269	1.162455
C169	C	1.016149	-0.973811	0.368934
C170	C	1.266149	-0.723811	0.618934
C171	C	1.516149	-0.473811	0.868934
C172	C	1.766149	-0.223811	1.118934
C173	C	0.978212	-0.862425	0.330789
C174	C	1.228212	-0.612425	0.580789
C175	C	1.478212	-0.362425	0.830789
C176	C	1.728212	-0.112425	1.080789
C177	C	1.019311	-0.898967	0.372137
C178	C	1.269311	-0.648967	0.622137
C179	C	1.519311	-0.398967	0.872137
C180	C	1.769311	-0.148967	1.122137
C181	C	1.181564	-0.388877	0.358626
C182	C	1.431564	-0.138877	0.608626
C183	C	1.681564	0.111123	0.858626
C184	C	1.931564	0.361123	1.108626
C185	C	1.259487	-0.392212	0.361695
C186	C	1.509487	-0.142212	0.611695
C187	C	1.759487	0.107788	0.861695
C188	C	2.009487	0.357788	1.111695
C189	C	0.998747	-0.381006	0.527968
C190	C	1.248747	-0.131006	0.777968
C191	C	1.498747	0.118994	1.027968
C192	C	1.748747	0.368994	1.277968
C193	C	0.998764	-0.380988	0.603202
C194	C	1.248764	-0.130988	0.853202
C195	C	1.498764	0.119012	1.103202
C196	C	1.748764	0.369012	1.353202
C197	C	1.006602	-0.198182	0.359311
C198	C	1.256602	0.051818	0.609311
C199	C	1.506602	0.301818	0.859311
C200	C	1.756602	0.551818	1.109311
C201	C	1.009966	-0.120256	0.362673
C202	C	1.259966	0.129744	0.612673
C203	C	1.509966	0.379744	0.862673
C204	C	1.759966	0.629744	1.112673
C205	C	0.998707	-0.381042	0.175567
C206	C	1.248707	-0.131042	0.425567
C207	C	1.498707	0.118958	0.675567
C208	C	1.748707	0.368958	0.925567
C209	C	0.998834	-0.380868	0.100347
C210	C	1.248834	-0.130868	0.350347
C211	C	1.498834	0.119132	0.600347
C212	C	1.748834	0.369132	0.850347
C213	C	1.045541	-0.338064	0.642248
C214	C	1.295541	-0.088064	0.892248
C215	C	1.545541	0.161936	1.142248
C216	C	1.795541	0.411936	1.392248
C217	C	1.045549	-0.338044	0.712938
C218	C	1.295549	-0.088044	0.962938
C219	C	1.545549	0.161956	1.212938
C220	C	1.795549	0.411956	1.462938
C221	C	0.998783	-0.380952	0.744580
C222	C	1.248783	-0.130952	0.994580
C223	C	1.498783	0.119048	1.244580
C224	C	1.748783	0.369048	1.494580
C225	C	0.952002	-0.423878	0.705528
C226	C	1.202002	-0.173878	0.955528
C227	C	1.452002	0.076122	1.205528
C228	C	1.702002	0.326122	1.455528
C229	C	0.951991	-0.423893	0.634840
C230	C	1.201991	-0.173893	0.884840
C231	C	1.451991	0.076107	1.134840
C232	C	1.701991	0.326107	1.384840
C233	C	0.952044	-0.423814	0.990606
C234	C	1.202044	-0.173814	1.240606
C235	C	1.452044	0.076186	1.490606
C236	C	1.702044	0.326186	1.740606
C237	C	0.952060	-0.423796	1.061300
C238	C	1.202060	-0.173796	1.311300
C239	C	1.452060	0.076204	1.561300
C240	C	1.702060	0.326204	1.811300
C241	C	1.045602	-0.337965	1.068704
C242	C	1.295602	-0.087965	1.318704
C243	C	1.545602	0.162035	1.568704
C244	C	1.795602	0.412035	1.818704
C245	C	1.045591	-0.337981	0.998016
C246	C	1.295591	-0.087981	1.248016
C247	C	1.545591	0.162019	1.498016
C248	C	1.795591	0.412019	1.748016
C249	C	0.998807	-0.380903	0.958970
C250	C	1.248807	-0.130903	1.208970
C251	C	1.498807	0.119097	1.458970
C252	C	1.748807	0.369097	1.708970
C253	C	0.998798	-0.380923	0.882321
C254	C	1.248798	-0.130923	1.132321
C255	C	1.498798	0.119077	1.382321
C256	C	1.748798	0.369077	1.632321
C257	C	0.998795	-0.380936	0.821228
C258	C	1.248795	-0.130936	1.071228
C259	C	1.498795	0.119064	1.321228
C260	C	1.748795	0.369064	1.571228
H261	H	0.602476	-0.282521	0.260815
H262	H	0.852476	-0.032521	0.510815
H263	H	1.102476	0.217479	0.760815
H264	H	1.352476	0.467479	1.010815
H265	H	1.097169	-0.983966	0.450445
H266	H	1.347169	-0.733966	0.700445
H267	H	1.597169	-0.483966	0.950445
H268	H	1.847169	-0.233966	1.200445
H269	H	0.735309	-0.288188	0.266028
H270	H	0.985309	-0.038188	0.516028
H271	H	1.235309	0.211812	0.766028
H272	H	1.485309	0.461812	1.016028
H273	H	0.402586	-0.316715	0.292273
H274	H	0.652586	-0.066715	0.542273
H275	H	0.902586	0.183285	0.792273
H276	H	1.152586	0.433285	1.042273
H277	H	1.062970	-0.784126	0.416079
H278	H	1.312970	-0.534126	0.666079
H279	H	1.562970	-0.284126	0.916079
H280	H	1.812970	-0.034126	1.166079
O281	O	0.260586	-0.298764	0.275780
O282	O	0.510586	-0.048764	0.525780
O283	O	0.760586	0.201236	0.775780
O284	O	1.010586	0.451236	1.025780
H285	H	0.299676	-0.269150	0.248561
H286	H	0.549676	-0.019150	0.498561
H287	H	0.799676	0.230850	0.748561
H288	H	1.049676	0.480850	0.998561
H289	H	0.728361	-0.451102	0.415826
H290	H	0.978361	-0.201102	0.665826
H291	H	1.228361	0.048898	0.915826
H292	H	1.478361	0.298898	1.165826
H293	H	1.091557	-1.116812	0.444764
H294	H	1.341557	-0.866812	0.694764
H295	H	1.591557	-0.616812	0.944764
H296	H	1.841557	-0.366812	1.194764
O297	O	1.095987	-0.291787	0.608126
O298	O	1.345987	-0.041787	0.858126
O299	O	1.595987	0.208213	1.108126
O300	O	1.845987	0.458213	1.358126
H301	H	1.088129	-0.299013	0.552412
H302	H	1.338129	-0.049013	0.802412
H303	H	1.588129	0.200987	1.052412
H304	H	1.838129	0.450987	1.302412
O305	O	0.901528	-0.470181	0.592726
O306	O	1.151528	-0.220181	0.842726
O307	O	1.401528	0.029819	1.092726
O308	O	1.651528	0.279819	1.342726
H309	H	0.911171	-0.525721	0.604384
H310	H	1.161171	-0.275721	0.854384
H311	H	1.411171	-0.025721	1.104384
H312	H	1.661171	0.224279	1.354384
O313	O	0.916695	-1.119296	0.268834
O314	O	1.166695	-0.869296	0.518834
O315	O	1.416695	-0.619296	0.768834
O316	O	1.666695	-0.369296	1.018834
H317	H	0.887119	-1.080253	0.239101
H318	H	1.137119	-0.830253	0.489101
H319	H	1.387119	-0.580253	0.739101
H320	H	1.637119	-0.330253	0.989101
O321	O	0.901608	-0.470070	1.095427
O322	O	1.151608	-0.220070	1.345427
O323	O	1.401608	0.029930	1.595427
O324	O	1.651608	0.279930	1.845427
H325	H	0.931446	-0.507084	1.127326
H326	H	1.181446	-0.257084	1.377326
H327	H	1.431446	-0.007084	1.627326
H328	H	1.681446	0.242916	1.877326
O329	O	0.923132	-0.967102	0.275326
O330	O	1.173132	-0.717102	0.525326
O331	O	1.423132	-0.467102	0.775326
O332	O	1.673132	-0.217102	1.025326
H333	H	0.867506	-0.978852	0.284110
H334	H	1.117506	-0.728852	0.534110
H335	H	1.367506	-0.478852	0.784110
H336	H	1.617506	-0.228852	1.034110
H337	H	0.900359	-0.777425	0.252481
H338	H	1.150359	-0.527425	0.502481
H339	H	1.400359	-0.277425	0.752481
H340	H	1.650359	-0.027425	1.002481
O341	O	0.585344	-0.457021	0.421010
O342	O	0.835344	-0.207021	0.671010
O343	O	1.085344	0.042979	0.921010
O344	O	1.335344	0.292979	1.171010
H345	H	0.621770	-0.489908	0.451137
H346	H	0.871770	-0.239908	0.701137
H347	H	1.121770	0.010092	0.951137
H348	H	1.371770	0.260092	1.201137
O349	O	0.901555	-0.470154	0.739651
O350	O	1.151555	-0.220154	0.989651
O351	O	1.401555	0.029846	1.239651
O352	O	1.651555	0.279846	1.489651
H353	H	0.909424	-0.462937	0.795365
H354	H	1.159424	-0.212937	1.045365
H355	H	1.409424	0.037063	1.295365
H356	H	1.659424	0.287063	1.545365
O357	O	0.894544	-0.634407	0.246650
O358	O	1.144544	-0.384407	0.496650
O359	O	1.394544	-0.134407	0.746650
O360	O	1.644544	0.115593	0.996650
H361	H	0.861794	-0.670881	0.213676
H362	H	1.111794	-0.420881	0.463676
H363	H	1.361794	-0.170881	0.713676
H364	H	1.611794	0.079119	0.963676
O365	O	1.069318	-0.861478	0.422451
O366	O	1.319318	-0.611478	0.672451
O367	O	1.569318	-0.361478	0.922451
O368	O	1.819318	-0.111478	1.172451
H369	H	1.039334	-0.826776	0.457052
H370	H	1.289334	-0.576776	0.707052
H371	H	1.539334	-0.326776	0.957052
H372	H	1.789334	-0.076776	1.207052
H373	H	1.083675	-0.303043	0.972257
H374	H	1.333675	-0.053043	1.222257
H375	H	1.583675	0.196957	1.472257
H376	H	1.833675	0.446957	1.722257
O377	O	0.404813	-0.491894	0.453380
O378	O	0.654813	-0.241894	0.703380
O379	O	0.904813	0.008106	0.953380
O380	O	1.154813	0.258106	1.203380
H381	H	0.462197	-0.486787	0.448683
H382	H	0.712197	-0.236787	0.698683
H383	H	0.962197	0.013213	0.948683
H384	H	1.212197	0.263213	1.198683
O385	O	0.252625	-0.485454	0.447349
O386	O	0.502625	-0.235454	0.697349
O387	O	0.752625	0.014546	0.947349
O388	O	1.002625	0.264546	1.197349
H389	H	0.289049	-0.518307	0.477514
H390	H	0.539049	-0.268307	0.727514
H391	H	0.789049	-0.018307	0.977514
H392	H	1.039049	0.231693	1.227514
O393	O	0.928228	-0.899928	0.280459
O394	O	1.178228	-0.649928	0.530459
O395	O	1.428228	-0.399928	0.780459
O396	O	1.678228	-0.149928	1.030459
H397	H	0.891135	-0.931784	0.307887
H398	H	1.141135	-0.681784	0.557887
H399	H	1.391135	-0.431784	0.807887
H400	H	1.641135	-0.181784	1.057887
O401	O	1.096004	-0.291753	0.755055
O402	O	1.346004	-0.041753	1.005055
O403	O	1.596004	0.208247	1.255055
O404	O	1.846004	0.458247	1.505055
H405	H	1.128528	-0.261927	0.721176
H406	H	1.378528	-0.011927	0.971176
H407	H	1.628528	0.238073	1.221176
H408	H	1.878528	0.488073	1.471176
H409	H	1.083693	-0.303013	1.100503
H410	H	1.333693	-0.053013	1.350503
H411	H	1.583693	0.196987	1.600503
H412	H	1.833693	0.446987	1.850503
O413	O	0.901590	-0.470095	0.948481
O414	O	1.151590	-0.220095	1.198481
O415	O	1.401590	0.029905	1.448481
O416	O	1.651590	0.279905	1.698481
H417	H	0.867281	-0.437175	0.916235
H418	H	1.117281	-0.187175	1.166235
H419	H	1.367281	0.062825	1.416235
H420	H	1.617281	0.312825	1.666235
H421	H	0.509019	-0.439485	0.405152
H422	H	0.759019	-0.189485	0.655152
H423	H	1.009019	0.060515	0.905152
H424	H	1.259019	0.310515	1.155152
O425	O	0.479936	-0.310391	0.286442
O426	O	0.729936	-0.060391	0.536442
O427	O	0.979936	0.189609	0.786442
O428	O	1.229936	0.439609	1.036442
H429	H	0.448114	-0.273343	0.317013
H430	H	0.698114	-0.023343	0.567013
H431	H	0.948114	0.226657	0.817013
H432	H	1.198114	0.476657	1.067013
H433	H	1.068583	-0.651294	0.421759
H434	H	1.318583	-0.401294	0.671759
H435	H	1.568583	-0.151294	0.921759
H436	H	1.818583	0.098706	1.171759
