data_functionalizedCrystal
_audit_creation_method	'MofGen! by Chris Wilmer'
_symmetry_space_group_name_H-M	'P1'
_symmetry_Int_Tables_number	1
_symmetry_cell_setting	triclinic
loop_
_symmetry_equiv_pos_as_xyz
  x,y,z
_cell_length_a	18.101398
_cell_length_b	17.077402
_cell_length_c	17.077396
_cell_angle_alpha	89.970216
_cell_angle_beta	89.975078
_cell_angle_gamma	90.018149
loop_
_atom_site_label
_atom_site_type_symbol
_atom_site_fract_x
_atom_site_fract_y
_atom_site_fract_z
Zn1	Zn	1.132168	-0.312607	-0.443949
Zn2	Zn	1.132080	-0.443882	-0.312680
Zn3	Zn	1.008325	-0.312623	-0.312685
Zn4	Zn	1.008295	-0.443824	-0.443891
O5	O	1.070217	-0.378234	-0.378301
O6	O	1.235789	-0.330039	-0.426558
O7	O	1.115640	-0.426501	-0.202834
O8	O	1.024803	-0.202774	-0.330123
O9	O	1.235725	-0.426486	-0.330116
O10	O	1.115789	-0.202762	-0.426563
O11	O	1.024718	-0.330066	-0.202837
O12	O	0.904688	-0.330010	-0.330067
O13	O	1.024751	-0.426387	-0.553746
O14	O	0.904666	-0.426403	-0.426464
O15	O	1.115760	-0.329982	-0.553788
O16	O	1.115610	-0.553721	-0.330059
O17	O	1.024666	-0.553679	-0.426460
C18	C	0.877806	-0.378202	-0.378260
C19	C	0.795492	-0.378208	-0.378261
C20	C	1.070146	-0.582182	-0.378270
C21	C	1.070183	-0.669432	-0.378283
C22	C	1.117586	-0.710418	-0.328141
C23	C	1.117622	-0.792399	-0.328161
C24	C	1.070251	-0.833391	-0.378319
C25	C	1.022846	-0.792399	-0.428467
C26	C	1.022814	-0.710420	-0.428450
C27	C	1.022914	-0.963269	-0.428497
C28	C	1.022945	-1.045254	-0.428512
C29	C	1.117723	-1.045248	-0.328208
C30	C	1.117691	-0.963269	-0.328191
C31	C	1.070284	-0.922282	-0.378337
C32	C	0.496401	-0.378257	-0.378327
C33	C	0.527716	-0.317306	-0.317973
C34	C	0.613334	-0.317469	-0.317715
C35	C	0.644784	-0.378232	-0.378295
C36	C	0.613677	-0.460921	-0.355690
C37	C	0.528032	-0.460583	-0.355271
C38	C	0.528014	-0.357237	-0.461428
C39	C	0.613665	-0.355395	-0.460975
C40	C	0.728643	-0.378223	-0.378277
C41	C	0.412542	-0.378271	-0.378343
C42	C	1.263379	-0.378267	-0.378343
C43	C	1.345693	-0.378281	-0.378361
C44	C	1.070262	-0.378176	-0.583046
C45	C	1.070281	-0.378152	-0.670296
C46	C	1.070309	-0.173490	-0.378350
C47	C	1.070348	-0.086240	-0.378371
C48	C	1.117671	-0.327950	-0.711309
C49	C	1.117680	-0.327924	-0.793290
C50	C	1.070302	-0.378104	-0.834255
C51	C	1.022907	-0.428308	-0.793236
C52	C	1.022895	-0.428330	-0.711257
C53	C	1.022937	-0.428261	-0.964106
C54	C	1.022950	-0.428241	-1.046091
C55	C	1.117722	-0.327855	-1.046139
C56	C	1.117710	-0.327876	-0.964160
C57	C	1.070315	-0.378082	-0.923146
C58	C	1.070215	-0.378235	-0.174353
C59	C	1.070339	-0.378039	-0.087104
H60	H	1.156158	-0.677047	-0.287293
C61	C	1.127991	-0.222388	-0.619147
C62	C	1.169748	-0.272787	-0.666283
H63	H	1.160142	-0.188333	-0.591350
H64	H	1.095748	-0.192353	-0.651128
H65	H	1.099772	-0.252299	-0.582988
H66	H	1.197964	-0.242875	-0.702446
H67	H	1.202004	-0.302824	-0.634300
C68	C	0.929225	-0.527534	-0.784948
C69	C	0.970826	-0.483468	-0.838262
H70	H	0.897071	-0.561585	-0.812746
H71	H	0.961472	-0.557572	-0.752975
H72	H	0.900910	-0.493327	-0.752973
H73	H	0.999146	-0.517675	-0.870233
H74	H	0.938575	-0.453428	-0.870248
H75	H	0.984297	-0.469202	-0.677865
H76	H	1.156260	-0.929892	-0.287344
C77	C	0.986834	-1.070446	-0.561404
C78	C	0.970885	-1.090321	-0.483653
H79	H	0.954698	-1.098274	-0.595445
H80	H	0.980022	-1.015765	-0.568572
H81	H	1.036596	-1.083833	-0.572926
H82	H	0.921124	-1.076928	-0.472129
H83	H	0.977691	-1.145014	-0.476482
C84	C	1.160005	-1.170908	-0.283843
C85	C	1.169931	-1.090296	-0.273189
H86	H	1.192264	-1.198720	-0.249908
H87	H	1.110296	-1.184441	-0.272210
H88	H	1.170735	-1.184235	-0.336635
H89	H	1.159195	-1.076969	-0.220398
H90	H	1.219650	-1.076758	-0.284815
H91	H	0.634048	-0.507551	-0.398274
H92	H	0.984314	-0.929901	-0.469334
C93	C	1.211290	-0.784158	-0.229004
C94	C	1.169725	-0.837451	-0.273039
H95	H	1.243454	-0.811973	-0.194970
H96	H	1.239588	-0.752138	-0.263225
H97	H	1.179016	-0.752229	-0.198942
H98	H	1.201999	-0.869376	-0.303106
H99	H	1.141425	-0.869484	-0.238813
H100	H	0.634366	-0.256152	-0.331884
C101	C	0.986796	-0.561141	-1.071303
C102	C	0.970866	-0.483390	-1.091127
H103	H	0.954638	-0.595185	-1.099105
H104	H	1.036545	-0.572636	-1.084748
H105	H	0.979997	-0.568335	-1.016610
H106	H	0.977671	-0.476195	-1.145819
H107	H	0.921106	-0.471891	-1.077686
H108	H	1.156311	-0.286974	-1.079536
H109	H	0.984279	-0.825782	-0.469310
C110	C	1.128024	-0.222296	-0.885488
C111	C	1.169769	-0.272730	-0.838364
H112	H	1.160182	-0.188213	-0.913308
H113	H	1.099821	-0.252174	-0.921620
H114	H	1.095766	-0.192286	-0.853491
H115	H	1.202023	-0.302744	-0.870362
H116	H	1.197985	-0.242848	-0.802228
H117	H	0.984214	-0.677050	-0.469282
H118	H	0.507137	-0.255801	-0.331986
H119	H	0.506168	-0.331045	-0.256754
H120	H	0.633789	-0.331365	-0.256139
C121	C	0.561975	-0.499220	-0.224965
C122	C	0.501013	-0.484638	-0.273259
H123	H	0.545296	-0.514065	-0.174332
H124	H	0.590762	-0.540299	-0.246731
H125	H	0.591204	-0.453179	-0.221071
H126	H	0.471786	-0.530682	-0.277158
H127	H	0.472213	-0.443556	-0.251488
C128	C	0.560456	-0.562072	-0.446251
C129	C	0.500061	-0.523961	-0.412025
H130	H	0.543188	-0.601201	-0.481284
H131	H	0.589548	-0.525120	-0.474173
H132	H	0.589583	-0.585753	-0.406505
H133	H	0.470936	-0.500276	-0.451770
H134	H	0.470956	-0.560919	-0.384102
H135	H	0.635093	-0.479056	-0.295596
H136	H	0.506434	-0.297989	-0.481979
H137	H	1.156293	-0.287019	-0.930808
H138	H	0.634001	-0.294545	-0.478019
C139	C	0.689086	-0.467026	-0.491083
C140	C	0.642558	-0.410961	-0.524937
H141	H	0.706917	-0.501338	-0.530570
H142	H	0.729584	-0.441549	-0.466573
H143	H	0.662305	-0.496224	-0.453154
H144	H	0.669340	-0.381760	-0.562862
H145	H	0.602053	-0.436441	-0.549460
C146	C	0.529101	-0.397983	-0.595973
C147	C	0.500676	-0.417160	-0.522141
H148	H	0.512223	-0.434982	-0.633447
H149	H	0.512817	-0.347123	-0.610419
H150	H	0.581544	-0.398853	-0.594126
H151	H	0.448233	-0.416284	-0.523986
H152	H	0.516956	-0.468034	-0.507692
H153	H	0.984332	-0.469131	-0.930715
