data_functionalizedCrystal
_audit_creation_method	'MofGen! by Chris Wilmer'
_symmetry_space_group_name_H-M	'P1'
_symmetry_Int_Tables_number	1
_symmetry_cell_setting	triclinic
loop_
_symmetry_equiv_pos_as_xyz
  x,y,z
_cell_length_a	19.077068
_cell_length_b	19.077300
_cell_length_c	19.077271
_cell_angle_alpha	94.678430
_cell_angle_beta	85.514665
_cell_angle_gamma	90.059760
loop_
_atom_site_label
_atom_site_type_symbol
_atom_site_fract_x
_atom_site_fract_y
_atom_site_fract_z
Zn1	Zn	-0.337183	-1.047450	0.369395
Zn2	Zn	0.162817	-0.547450	0.869395
Zn3	Zn	-0.450304	-1.047385	0.256241
Zn4	Zn	0.049696	-0.547385	0.756241
Zn5	Zn	-0.328088	-0.934710	0.255879
Zn6	Zn	0.171912	-0.434710	0.755879
Zn7	Zn	-0.450304	-0.924794	0.378821
Zn8	Zn	0.049696	-0.424794	0.878821
O9	O	-0.391470	-0.988585	0.315084
O10	O	0.108530	-0.488585	0.815084
O11	O	-0.355994	-1.145928	0.350592
O12	O	0.144006	-0.645928	0.850592
O13	O	-0.430285	-1.036562	0.157386
O14	O	0.069715	-0.536562	0.657386
O15	O	-0.230805	-0.953842	0.266840
O16	O	0.269195	-0.453842	0.766840
O17	O	-0.439104	-1.145881	0.267458
O18	O	0.060896	-0.645881	0.767458
O19	O	-0.237487	-1.036672	0.350241
O20	O	0.262513	-0.536672	0.850241
O21	O	-0.340494	-0.953779	0.157119
O22	O	0.159506	-0.453779	0.657119
O23	O	-0.340495	-0.834908	0.275980
O24	O	0.159505	-0.334908	0.775980
O25	O	-0.439105	-0.936942	0.476378
O26	O	0.060895	-0.436942	0.976378
O27	O	-0.430286	-0.827623	0.366306
O28	O	0.069714	-0.327623	0.866306
O29	O	-0.355995	-1.027057	0.469453
O30	O	0.144005	-0.527057	0.969453
O31	O	-0.548793	-1.026946	0.276598
O32	O	-0.048793	-0.526946	0.776598
O33	O	-0.548793	-0.936879	0.366657
O34	O	-0.048793	-0.436879	0.866657
C35	C	-0.384404	-0.805729	0.322127
C36	C	0.115596	-0.305729	0.822127
C37	C	-0.381399	-0.727500	0.325157
C38	C	0.118601	-0.227500	0.825157
C39	C	-0.359792	-0.287162	0.346901
C40	C	0.140208	0.212838	0.846901
C41	C	-0.362628	-0.360665	0.344050
C42	C	0.137372	0.139335	0.844050
C43	C	-0.407240	-0.397389	0.299265
C44	C	0.092760	0.102611	0.799265
C45	C	-0.449024	-0.360606	0.257333
C46	C	0.050976	0.139394	0.757333
C47	C	-0.446190	-0.287104	0.260188
C48	C	0.053810	0.212896	0.760188
C49	C	-0.420349	-0.617215	0.286081
C50	C	0.079651	-0.117215	0.786081
C51	C	-0.423178	-0.690722	0.283227
C52	C	0.076822	-0.190722	0.783227
C53	C	-0.336783	-0.690776	0.369945
C54	C	0.163217	-0.190776	0.869945
C55	C	-0.333950	-0.617273	0.372793
C56	C	0.166050	-0.117273	0.872793
C57	C	-0.375737	-0.580496	0.330864
C58	C	0.124263	-0.080496	0.830864
N59	N	-0.410139	-0.472522	0.296348
N60	N	0.089861	0.027478	0.796348
N61	N	-0.372841	-0.505364	0.333785
N62	N	0.127159	-0.005364	0.833785
C63	C	-0.574332	-0.980848	0.322705
C64	C	-0.074332	-0.480848	0.822705
C65	C	-0.652564	-0.977602	0.325986
C66	C	-0.152564	-0.477602	0.825986
C67	C	-0.689297	-1.023003	0.280674
C68	C	-0.189297	-0.523003	0.780674
C69	C	-0.762805	-1.019954	0.283765
C70	C	-0.262805	-0.519954	0.783765
C71	C	-0.799579	-0.971499	0.332163
C72	C	-0.299579	-0.471499	0.832163
C73	C	-0.762841	-0.926096	0.377479
C74	C	-0.262841	-0.426096	0.877479
C75	C	-0.689334	-0.929149	0.374392
C76	C	-0.189334	-0.429149	0.874392
C77	C	-1.019422	-0.957338	0.346424
C78	C	-0.519422	-0.457338	0.846424
C79	C	-1.092933	-0.954287	0.349506
C80	C	-0.592933	-0.454287	0.849506
C81	C	-1.092893	-1.048146	0.255792
C82	C	-0.592893	-0.548146	0.755792
C83	C	-1.019385	-1.051192	0.252706
C84	C	-0.519385	-0.551192	0.752706
C85	C	-0.982654	-1.005792	0.298025
C86	C	-0.482654	-0.505792	0.798025
N87	N	-0.874716	-0.968379	0.335321
N88	N	-0.374716	-0.468379	0.835321
N89	N	-0.907518	-1.008915	0.294869
N90	N	-0.407518	-0.508915	0.794869
C91	C	-0.207895	-0.996370	0.307449
C92	C	0.292105	-0.496370	0.807449
C93	C	-0.129666	-0.999688	0.304195
C94	C	0.370334	-0.499688	0.804195
C95	C	-0.398564	-0.980900	0.499251
C96	C	0.101436	-0.480900	0.999251
C97	C	-0.401587	-0.977626	0.577733
C98	C	0.098413	-0.477626	1.077733
C99	C	-0.398559	-0.172156	0.308006
C100	C	0.101441	0.327844	0.808006
C101	C	-0.401570	-0.250384	0.304971
C102	C	0.098430	0.249616	0.804971
C103	C	-0.359739	-1.023003	0.610999
C104	C	0.140261	-0.523003	1.110999
C105	C	-0.362576	-1.019918	0.684741
C106	C	0.137424	-0.519918	1.184741
C107	C	-0.407267	-0.971458	0.725215
C108	C	0.092733	-0.471458	1.225215
C109	C	-0.449117	-0.926076	0.691943
C110	C	0.050883	-0.426076	1.191943
C111	C	-0.446275	-0.929159	0.618203
C112	C	0.053725	-0.429159	1.118203
C113	C	-0.420402	-0.957205	0.946141
C114	C	0.079598	-0.457205	1.446141
C115	C	-0.423242	-0.954127	1.019886
C116	C	0.076758	-0.454127	1.519886
C117	C	-0.336701	-1.047968	1.012679
C118	C	0.163299	-0.547968	1.512679
C119	C	-0.333866	-1.051049	0.938937
C120	C	0.166134	-0.551049	1.438937
C121	C	-0.375713	-1.005665	0.905672
C122	C	0.124287	-0.505665	1.405672
N123	N	-0.410170	-0.968305	0.800590
N124	N	0.089830	-0.468305	1.300590
N125	N	-0.372806	-1.008816	0.830298
N126	N	0.127194	-0.508816	1.330298
C127	C	-0.384418	-0.996233	1.131634
C128	C	0.115582	-0.496233	1.631634
C129	C	-0.381394	-0.999505	1.053153
C130	C	0.118606	-0.499505	1.553153
H131	H	-0.485351	-0.390512	0.220871
H132	H	0.014649	0.109488	0.720871
H133	H	-0.297625	-0.587377	0.409264
H134	H	0.202375	-0.087377	0.909264
N135	N	-0.497323	-0.873805	0.735585
N136	N	0.002677	-0.373805	1.235585
H137	H	-0.483950	-0.824522	0.724226
H138	H	0.016050	-0.324522	1.224226
H139	H	-0.492762	-0.878792	0.787333
H140	H	0.007238	-0.378792	1.287333
N141	N	-0.465408	-0.577554	0.240851
N142	N	0.034592	-0.077554	0.740851
H143	H	-0.498002	-0.544491	0.272032
H144	H	0.001998	-0.044491	0.772032
H145	H	-0.494049	-0.612020	0.212052
H146	H	0.005951	-0.112020	0.712052
H147	H	-0.459509	-0.720621	0.246757
H148	H	0.040491	-0.220621	0.746757
H149	H	-0.323349	-1.062466	0.578050
H150	H	0.176651	-0.562466	1.078050
N151	N	-0.491254	-0.247432	0.214967
N152	N	0.008746	0.252568	0.714967
H153	H	-0.519945	-0.281848	0.186162
H154	H	-0.019945	0.218152	0.686162
H155	H	-0.460122	-0.219499	0.182328
H156	H	0.039878	0.280501	0.682328
N157	N	-0.491404	-0.880210	0.582319
N158	N	0.008596	-0.380210	1.082319
H159	H	-0.520146	-0.849042	0.619147
H160	H	-0.020146	-0.349042	1.119147
H161	H	-0.523905	-0.908750	0.551973
H162	H	-0.023905	-0.408750	1.051973
H163	H	-0.302630	-1.084917	1.039771
H164	H	0.197370	-0.584917	1.539771
H165	H	-0.302764	-0.720728	0.404082
H166	H	0.197236	-0.220728	0.904082
N167	N	-1.132596	-0.902021	0.401710
N168	N	-0.632596	-0.402021	0.901710
H169	H	-1.122143	-0.911341	0.451211
H170	H	-0.622143	-0.411341	0.951211
H171	H	-1.184721	-0.907001	0.396722
H172	H	-0.684721	-0.407001	0.896722
H173	H	-0.328610	-0.390607	0.378196
H174	H	0.171390	0.109393	0.878196
N175	N	-0.311667	-0.247556	0.395198
N176	N	0.188333	0.252444	0.895198
H177	H	-0.285631	-0.282011	0.421327
H178	H	0.214369	0.217989	0.921327
H179	H	-0.340446	-0.214491	0.430206
H180	H	0.159554	0.285509	0.930206
H181	H	-0.659361	-1.062457	0.241260
H182	H	-0.159361	-0.562457	0.741260
H183	H	-0.792710	-1.056924	0.246867
H184	H	-0.292710	-0.556924	0.746867
H185	H	-0.989446	-1.090648	0.213296
H186	H	-0.489446	-0.590648	0.713296
H187	H	-1.122808	-1.085110	0.218897
H188	H	-0.622808	-0.585110	0.718897
N189	N	-0.979809	-0.908367	0.395295
N190	N	-0.479809	-0.408367	0.895295
H191	H	-1.014261	-0.877205	0.426418
H192	H	-0.514261	-0.377205	0.926418
H193	H	-0.946988	-0.878287	0.366498
H194	H	-0.446988	-0.378287	0.866498
H195	H	-0.659427	-0.892179	0.411290
H196	H	-0.159427	-0.392179	0.911290
N197	N	-0.802499	-0.873835	0.429684
N198	N	-0.302499	-0.373835	0.929684
H199	H	-0.854640	-0.878787	0.424763
H200	H	-0.354640	-0.378787	0.924763
H201	H	-0.787331	-0.824572	0.420050
H202	H	-0.287331	-0.324572	0.920050
N203	N	-0.317426	-1.068847	0.720622
N204	N	0.182574	-0.568847	1.220622
H205	H	-0.288682	-1.100012	0.683792
H206	H	0.211318	-0.600012	1.183792
H207	H	-0.348500	-1.098925	0.751165
H208	H	0.151500	-0.598925	1.251165
H209	H	-0.297476	-1.090512	0.905988
H210	H	0.202524	-0.590512	1.405988
N211	N	-0.471449	-0.901860	1.063543
N212	N	0.028551	-0.401860	1.563543
H213	H	-0.497528	-0.873576	1.031282
H214	H	0.002472	-0.373576	1.531282
H215	H	-0.442719	-0.869231	1.094203
H216	H	0.057281	-0.369231	1.594203
H217	H	-0.454488	-0.920260	0.919066
H218	H	0.045512	-0.420260	1.419066
