data_functionalizedCrystal
_audit_creation_method	'MofGen! by Chris Wilmer'
_symmetry_space_group_name_H-M	'P1'
_symmetry_Int_Tables_number	1
_symmetry_cell_setting	triclinic
loop_
_symmetry_equiv_pos_as_xyz
  x,y,z
_cell_length_a	11.026607
_cell_length_b	10.723024
_cell_length_c	9.198806
_cell_angle_alpha	89.998580
_cell_angle_beta	89.995746
_cell_angle_gamma	96.526943
loop_
_atom_site_label
_atom_site_type_symbol
_atom_site_fract_x
_atom_site_fract_y
_atom_site_fract_z
O1	O	1.614522	0.523502	-0.120890
O2	O	1.260719	0.463891	-0.120892
O3	O	1.445782	0.313882	-0.120886
O4	O	1.429460	0.673511	-0.120896
O5	O	1.445765	0.313880	0.120900
O6	O	1.260702	0.463889	0.120893
O7	O	1.614505	0.523500	0.120895
Cu8	Cu	1.437602	0.493694	0.142971
Cu9	Cu	1.437622	0.493696	-0.142968
O10	O	1.429443	0.673509	0.120889
C11	C	1.215408	0.452892	0.000000
C12	C	1.080422	0.420109	-0.000001
C13	C	1.444585	0.267125	0.000005
C14	C	1.441032	0.127803	0.000000
C15	C	1.544583	0.075171	-0.000001
C16	C	1.540912	-0.068824	-0.000007
C17	C	1.007369	0.510629	-0.000004
C18	C	0.867853	0.476748	-0.000005
C19	C	1.659816	0.534498	-0.000000
C20	C	1.794803	0.567282	-0.000009
C21	C	1.430639	0.720266	-0.000005
C22	C	1.434193	0.859587	-0.000010
N23	N	1.437597	0.493694	0.344085
C24	C	1.515298	0.430358	0.416285
C25	C	1.515315	0.430359	0.583697
N26	N	1.437628	0.493697	0.655918
H27	H	1.635954	0.136715	0.000008
H28	H	1.629560	-0.114123	-0.000001
H29	H	1.345540	-0.095122	0.000001
N30	N	1.026453	0.284229	0.000002
H31	H	1.054392	0.241177	-0.089626
H32	H	1.054395	0.241280	0.089693
H33	H	1.581805	0.376127	0.354161
N34	N	1.603447	0.358538	0.665926
H35	H	1.590970	0.368722	0.773863
H36	H	1.588443	0.266683	0.639405
H37	H	1.349660	0.066260	-0.000010
N38	N	1.061324	0.646513	0.000001
H39	H	1.153342	0.651455	0.000003
H40	H	1.033307	0.689485	-0.089634
H41	H	0.827113	0.374161	-0.000039
N42	N	0.848749	0.703173	0.000001
H43	H	0.940767	0.708118	0.000004
H44	H	0.820731	0.746147	-0.089633
H45	H	1.371105	0.547929	0.593839
H46	H	1.371081	0.547913	0.406211
