data_functionalizedCrystal
_audit_creation_method	'MofGen! by Chris Wilmer'
_symmetry_space_group_name_H-M	'P1'
_symmetry_Int_Tables_number	1
_symmetry_cell_setting	triclinic
loop_
_symmetry_equiv_pos_as_xyz
  x,y,z
_cell_length_a	17.699083
_cell_length_b	16.776229
_cell_length_c	17.699092
_cell_angle_alpha	89.995030
_cell_angle_beta	96.715309
_cell_angle_gamma	90.001114
loop_
_atom_site_label
_atom_site_type_symbol
_atom_site_fract_x
_atom_site_fract_y
_atom_site_fract_z
O1	O	-1.004081	-0.066173	0.095713
O2	O	-0.783703	-0.066199	0.108165
O3	O	-0.900115	-0.066184	-0.008250
O4	O	-0.887669	-0.066189	0.212128
O5	O	-0.900100	0.066393	-0.008257
O6	O	-0.783688	0.066377	0.108158
O7	O	-1.004066	0.066403	0.095705
Zn8	Zn	-0.893874	0.087440	0.101931
Zn9	Zn	-0.893895	-0.087236	0.101940
O10	O	-0.887654	0.066388	0.212120
C11	C	-0.755499	0.000086	0.107715
C12	C	-0.671480	0.000076	0.106377
C13	C	-0.899661	0.000103	-0.036450
C14	C	-0.898319	0.000099	-0.120468
C15	C	-1.032271	0.000116	0.096155
C16	C	-1.116289	0.000121	0.097494
N17	N	-0.893866	0.206651	0.101924
C18	C	-0.622862	0.000074	0.174710
C19	C	-0.543918	0.000085	0.173448
C20	C	-0.513595	0.000091	0.103851
C21	C	-0.562220	0.000095	0.035513
C22	C	-0.641162	0.000090	0.036776
C23	C	-0.243857	0.000114	0.030418
C24	C	-0.164909	0.000117	0.029160
C25	C	-0.146613	0.000109	0.167089
C26	C	-0.225555	0.000105	0.168352
C27	C	-0.274173	0.000113	0.100014
C28	C	-0.359772	0.000103	0.101384
C29	C	-0.427998	0.000095	0.102481
N30	N	-0.893909	-0.206447	0.101941
C31	C	-0.945429	0.248375	0.050396
C32	C	-0.945433	0.331827	0.050396
C33	C	-0.893878	0.373554	0.101927
C34	C	-0.842309	0.331824	0.153457
C35	C	-0.842302	0.248373	0.153453
C36	C	-0.842337	0.668371	0.153471
C37	C	-0.842349	0.751828	0.153472
C38	C	-0.945468	0.751825	0.050414
C39	C	-0.945461	0.668374	0.050410
C40	C	-0.893890	0.626652	0.101937
C41	C	-0.893885	0.536163	0.101936
C42	C	-0.893885	0.464040	0.101932
C43	C	-0.897700	-0.072169	-0.159932
C44	C	-0.896435	-0.072170	-0.238875
C45	C	-0.895795	0.000098	-0.278353
C46	C	-0.896413	0.072372	-0.238884
C47	C	-0.897672	0.072372	-0.159942
C48	C	-0.891332	0.072373	-0.557249
C49	C	-0.890075	0.072367	-0.636197
C50	C	-0.890095	-0.072170	-0.636182
C51	C	-0.891354	-0.072170	-0.557240
C52	C	-0.891968	0.000104	-0.517777
C53	C	-0.893338	0.000104	-0.432178
C54	C	-0.894430	0.000099	-0.363952
C55	C	-0.888109	0.000099	0.240321
C56	C	-0.889450	0.000097	0.324339
H57	H	-0.647544	0.000069	0.231383
O58	O	-0.099492	0.000074	0.233545
C59	C	-0.143185	0.000084	0.295241
H60	H	-0.202138	-0.025019	0.275920
H61	H	-0.148772	0.063685	0.316581
C62	C	-0.031323	-0.021081	0.383638
C63	C	-0.103729	-0.051918	0.359909
H64	H	-0.006984	-0.053154	0.423530
H65	H	-0.001885	-0.021084	0.342073
H66	H	-0.035989	0.031920	0.401416
H67	H	-0.099062	-0.104913	0.342123
H68	H	-0.133165	-0.051925	0.401473
H69	H	-0.537525	0.000111	-0.021154
H70	H	-0.800347	0.634407	0.195428
O71	O	-0.895801	-0.142301	-0.277322
C72	C	-0.894567	-0.126808	-0.355466
H73	H	-0.870431	-0.064704	-0.363075
H74	H	-0.954906	-0.130222	-0.385921
C75	C	-0.873962	-0.265444	-0.380062
C76	C	-0.844311	-0.189169	-0.389407
H77	H	-0.842964	-0.303913	-0.401000
H78	H	-0.874796	-0.275883	-0.327415
H79	H	-0.924244	-0.268278	-0.405441
H80	H	-0.794034	-0.186334	-0.364020
H81	H	-0.843467	-0.178731	-0.442050
H82	H	-0.800328	0.365803	0.195412
O83	O	-0.889416	0.142644	-0.674426
C84	C	-0.890245	0.206435	-0.622670
H85	H	-0.867193	0.185248	-0.563218
H86	H	-0.951070	0.228672	-0.622327
C87	C	-0.868437	0.300722	-0.719930
C88	C	-0.840118	0.274701	-0.646911
H89	H	-0.837519	0.342834	-0.734884
H90	H	-0.867881	0.257745	-0.754800
H91	H	-0.919124	0.319247	-0.719634
H92	H	-0.789436	0.256168	-0.647210
H93	H	-0.840664	0.317677	-0.612042
H94	H	-0.898166	0.131221	-0.127810
O95	O	-0.688285	0.000051	-0.029673
C96	C	-0.644596	0.000076	-0.091372
H97	H	-0.585640	-0.025021	-0.072053
H98	H	-0.639017	0.063680	-0.112715
C99	C	-0.756461	-0.021091	-0.179762
C100	C	-0.684052	-0.051922	-0.156035
H101	H	-0.780799	-0.053162	-0.219651
H102	H	-0.785896	-0.021104	-0.138194
H103	H	-0.751801	0.031912	-0.197543
H104	H	-0.688713	-0.104920	-0.138246
H105	H	-0.654618	-0.051919	-0.197601
H106	H	-0.140224	0.000123	-0.027517
O107	O	-0.496582	0.000108	0.239757
C108	C	-0.420404	0.000094	0.223722
H109	H	-0.417484	0.025208	0.164282
H110	H	-0.397568	-0.063510	0.226625
C111	C	-0.375566	0.021228	0.355583
C112	C	-0.371980	0.052080	0.282580
H113	H	-0.345694	0.053292	0.391891
H114	H	-0.426889	0.021235	0.366387
H115	H	-0.356538	-0.031774	0.357991
H116	H	-0.391016	0.105077	0.280171
H117	H	-0.320659	0.052083	0.271777
O118	O	-0.792319	0.207752	0.203540
C119	C	-0.832757	0.159482	0.250194
H120	H	-0.892035	0.146978	0.219976
H121	H	-0.837796	0.191633	0.306128
C122	C	-0.717243	0.095574	0.303532
C123	C	-0.790047	0.080210	0.266415
H124	H	-0.690897	0.046676	0.313542
H125	H	-0.689998	0.128096	0.272103
H126	H	-0.721453	0.122368	0.350140
H127	H	-0.785837	0.053425	0.219804
H128	H	-0.817290	0.047681	0.297837
H129	H	-0.250239	0.000096	0.225025
O130	O	-0.995423	0.372389	0.000269
C131	C	-0.954993	0.420685	-0.046370
H132	H	-0.895306	0.395548	-0.047579
H133	H	-0.950990	0.483930	-0.022681
C134	C	-1.070171	0.452837	-0.126198
C135	C	-0.996865	0.421959	-0.127688
H136	H	-1.096001	0.453626	-0.176359
H137	H	-1.097410	0.420301	-0.094776
H138	H	-1.066825	0.505538	-0.106454
H139	H	-1.000212	0.369255	-0.147423
H140	H	-0.969627	0.454486	-0.159117
O141	O	-0.895826	0.142503	-0.277353
C142	C	-0.894567	0.127008	-0.355490
H143	H	-0.918352	0.064900	-0.369443
H144	H	-0.833515	0.130430	-0.369846
C145	C	-0.914321	0.265641	-0.385465
C146	C	-0.943540	0.189360	-0.402604
H147	H	-0.944527	0.304104	-0.414528
H148	H	-0.915167	0.276081	-0.332823
H149	H	-0.863445	0.268481	-0.397429
H150	H	-0.994412	0.186518	-0.390632
H151	H	-0.942704	0.178921	-0.455246
O152	O	-0.290970	0.000083	-0.036033
C153	C	-0.247275	0.000107	-0.097728
H154	H	-0.188321	-0.024994	-0.078405
H155	H	-0.241690	0.063713	-0.119068
C156	C	-0.359134	-0.021049	-0.186127
C157	C	-0.286728	-0.051886	-0.162396
H158	H	-0.383471	-0.053118	-0.226019
H159	H	-0.388573	-0.021062	-0.144563
H160	H	-0.354470	0.031954	-0.203905
H161	H	-0.291394	-0.104884	-0.144609
H162	H	-0.257291	-0.051883	-0.203959
H163	H	-0.987415	0.214406	0.008437
H164	H	-0.987444	0.634403	0.008452
H165	H	-0.987457	0.785804	0.008456
H166	H	-0.800364	0.785800	0.195437
H167	H	-0.898224	-0.131018	-0.127794
H168	H	-0.891879	-0.131018	-0.525101
H169	H	-0.889591	-0.131019	-0.668322
H170	H	-0.891847	0.131222	-0.525130
