data_functionalizedCrystal
_audit_creation_method	'MofGen! by Chris Wilmer'
_symmetry_space_group_name_H-M	'P1'
_symmetry_Int_Tables_number	1
_symmetry_cell_setting	triclinic
loop_
_symmetry_equiv_pos_as_xyz
  x,y,z
_cell_length_a	19.288840
_cell_length_b	16.109304
_cell_length_c	17.766277
_cell_angle_alpha	89.996447
_cell_angle_beta	89.983415
_cell_angle_gamma	83.294327
loop_
_atom_site_label
_atom_site_type_symbol
_atom_site_fract_x
_atom_site_fract_y
_atom_site_fract_z
O1	O	0.921612	0.103617	-0.062715
O2	O	1.421612	0.603617	0.437285
O3	O	0.719383	0.117629	-0.062689
O4	O	1.219383	0.617629	0.437311
O5	O	0.826052	-0.010427	-0.062703
O6	O	1.326052	0.489573	0.437297
O7	O	0.814943	0.231673	-0.062701
O8	O	1.314943	0.731673	0.437299
O9	O	0.826033	-0.010434	0.062485
O10	O	1.326033	0.489566	0.562485
O11	O	0.719364	0.117623	0.062500
O12	O	1.219364	0.617623	0.562500
O13	O	0.921594	0.103610	0.062473
O14	O	1.421594	0.603610	0.562473
Cu15	Cu	0.820477	0.110616	0.073917
Cu16	Cu	1.320477	0.610616	0.573917
Cu17	Cu	0.820499	0.110624	-0.074133
Cu18	Cu	1.320499	0.610624	0.425867
O19	O	0.814924	0.231667	0.062488
O20	O	1.314924	0.731667	0.562488
C21	C	0.693496	0.117179	-0.000091
C22	C	1.193496	0.617179	0.499909
C23	C	0.616388	0.115836	-0.000081
C24	C	1.116388	0.615836	0.499919
C25	C	0.580193	0.115194	-0.068323
C26	C	1.080193	0.615194	0.431677
C27	C	0.507743	0.113923	-0.068332
C28	C	1.007743	0.613923	0.431668
C29	C	0.471493	0.113277	-0.000096
C30	C	0.971493	0.613277	0.499904
C31	C	0.507696	0.113923	0.068156
C32	C	1.007696	0.613923	0.568156
C33	C	0.580143	0.115203	0.068163
C34	C	1.080143	0.615203	0.568163
C35	C	0.362036	0.062549	0.052172
C36	C	0.862036	0.562549	0.552172
C37	C	0.289590	0.061264	0.052162
C38	C	0.789590	0.561264	0.552162
C39	C	0.248040	0.109334	-0.000115
C40	C	0.748040	0.609334	0.499885
C41	C	0.278945	0.158677	-0.052395
C42	C	0.778945	0.658677	0.447605
C43	C	0.351393	0.159957	-0.052388
C44	C	0.851393	0.659957	0.447612
C45	C	0.392935	0.111890	-0.000096
C46	C	0.892935	0.611890	0.499904
C47	C	0.133286	0.107315	-0.068372
C48	C	0.633286	0.607315	0.431628
C49	C	0.060834	0.106049	-0.068379
C50	C	0.560834	0.606049	0.431621
C51	C	0.060789	0.106041	0.068111
C52	C	0.560789	0.606041	0.568111
C53	C	0.133239	0.107315	0.068116
C54	C	0.633239	0.607315	0.568116
C55	C	0.169483	0.107948	-0.000128
C56	C	0.669483	0.607948	0.499872
C57	C	0.825592	-0.041404	-0.000111
C58	C	1.325592	0.458596	0.499889
C59	C	0.824242	-0.133694	-0.000115
C60	C	1.324242	0.366306	0.499885
C61	C	0.821133	-0.346017	-0.068353
C62	C	1.321133	0.153983	0.431647
C63	C	0.819858	-0.432733	-0.068352
C64	C	1.319858	0.067267	0.431648
C65	C	0.819841	-0.432737	0.068136
C66	C	1.319841	0.067263	0.568136
C67	C	0.821111	-0.346022	0.068134
C68	C	1.321111	0.153978	0.568134
C69	C	0.821761	-0.302665	-0.000112
C70	C	1.321761	0.197335	0.499888
C71	C	0.819216	-0.476095	-0.000110
C72	C	1.319216	0.023905	0.499890
C73	C	0.817833	-0.570116	-0.000108
C74	C	1.317833	-0.070116	0.499892
C75	C	0.823142	-0.208638	-0.000114
C76	C	1.323142	0.291362	0.499886
C77	C	0.947481	0.104061	-0.000126
C78	C	1.447481	0.604061	0.499874
C79	C	1.024589	0.105404	-0.000141
C80	C	1.524589	0.605404	0.499859
C81	C	0.815384	0.262643	-0.000107
C82	C	1.315384	0.762643	0.499893
C83	C	0.816734	0.354934	-0.000107
C84	C	1.316734	0.854934	0.499893
N85	N	0.820467	0.110610	0.178048
N86	N	1.320467	0.610610	0.678048
N87	N	0.820515	0.110623	-0.178263
N88	N	1.320515	0.610623	0.321737
C89	C	0.867715	0.053934	0.217428
C90	C	1.367715	0.553934	0.717428
C91	C	0.867719	0.053930	0.296230
C92	C	1.367719	0.553930	0.796230
C93	C	0.820481	0.110617	0.335648
C94	C	1.320481	0.610617	0.835648
C95	C	0.773224	0.167297	0.296258
C96	C	1.273224	0.667297	0.796258
C97	C	0.773217	0.167294	0.217458
C98	C	1.273217	0.667294	0.717458
C99	C	0.811364	0.186371	0.460488
C100	C	1.311364	0.686371	0.960488
C101	C	0.811376	0.186375	0.539286
C102	C	1.311376	0.686375	1.039286
C103	C	0.820500	0.110627	0.578694
C104	C	1.320500	0.610627	1.078694
C105	C	0.829626	0.034870	0.539294
C106	C	1.329626	0.534870	1.039294
C107	C	0.829619	0.034867	0.460494
C108	C	1.329619	0.534867	0.960494
C109	C	0.820484	0.110626	0.421094
C110	C	1.320484	0.610626	0.921094
C111	C	0.867755	0.053942	0.703521
C112	C	1.367755	0.553942	1.203521
C113	C	0.867754	0.053937	0.782324
C114	C	1.367754	0.553937	1.282324
C115	C	0.773263	0.167311	0.782351
C116	C	1.273263	0.667311	1.282351
C117	C	0.773260	0.167308	0.703549
C118	C	1.273260	0.667308	1.203549
C119	C	0.820510	0.110625	0.664139
C120	C	1.320510	0.610625	1.164139
H121	H	0.609699	0.115710	-0.123893
H122	H	1.109699	0.615710	0.376107
H123	H	0.803949	0.248061	0.571360
H124	H	1.303949	0.748061	1.071360
H125	H	0.031365	0.105531	-0.123952
H126	H	0.531365	0.605531	0.376048
H127	H	0.837055	-0.026812	0.571378
H128	H	1.337055	0.473188	1.071378
N129	N	0.819155	-0.479506	0.141740
N130	N	1.319155	0.020494	0.641740
H131	H	0.819744	-0.438882	0.184970
H132	H	1.319744	0.061118	0.684970
H133	H	0.775596	-0.508582	0.144723
H134	H	1.275596	-0.008582	0.644723
H135	H	0.478267	0.113402	-0.123905
H136	H	0.978267	0.613402	0.376095
N137	N	0.821786	-0.299256	0.141739
N138	N	1.321786	0.200744	0.641739
H139	H	0.821187	-0.339880	0.184973
H140	H	1.321187	0.160120	0.684973
H141	H	0.865345	-0.270182	0.144702
H142	H	1.365345	0.229818	0.644702
N143	N	0.918673	-0.007203	0.174921
N144	N	1.418673	0.492797	0.674921
H145	H	0.948605	-0.043109	0.211831
H146	H	1.448605	0.456891	0.711831
H147	H	0.892090	-0.043879	0.142243
H148	H	1.392090	0.456121	0.642243
H149	H	0.819346	-0.468026	-0.123920
H150	H	1.319346	0.031974	0.376080
H151	H	0.376553	0.200136	-0.094955
H152	H	0.876553	0.700136	0.405045
H153	H	0.803922	0.248059	0.428408
H154	H	1.303922	0.748059	0.928408
H155	H	0.906227	0.007784	0.671432
H156	H	1.406227	0.507784	1.171432
N157	N	0.234142	0.210526	-0.108788
N158	N	0.734142	0.710526	0.391212
H159	H	0.183557	0.202234	-0.100860
H160	H	0.683557	0.702234	0.399140
H161	H	0.240147	0.271491	-0.101786
H162	H	0.740147	0.771491	0.398214
N163	N	0.839460	-0.046835	0.417999
N164	N	1.339460	0.453165	0.917999
H165	H	0.838074	-0.035339	0.362101
H166	H	1.338074	0.464661	0.862101
H167	H	0.886038	-0.078485	0.431757
H168	H	1.386038	0.421515	0.931757
N169	N	0.918680	-0.007203	0.338718
N170	N	1.418680	0.492797	0.838718
H171	H	0.948609	-0.043112	0.301794
H172	H	1.448609	0.456888	0.801794
H173	H	0.949376	0.024538	0.371395
H174	H	1.449376	0.524538	0.871395
H175	H	0.734761	0.213450	0.328356
H176	H	1.234761	0.713450	0.828356
H177	H	0.162797	0.107839	-0.123940
H178	H	0.662797	0.607839	0.376060
N179	N	0.256261	0.008048	0.108549
N180	N	0.756261	0.508048	0.608549
H181	H	0.204062	0.014525	0.100609
H182	H	0.704062	0.514525	0.600609
H183	H	0.275590	-0.052471	0.101552
H184	H	0.775590	0.447529	0.601552
N185	N	0.918729	-0.007181	0.824803
N186	N	1.418729	0.492819	1.324803
H187	H	0.948664	-0.043080	0.787876
H188	H	1.448664	0.456920	1.287876
H189	H	0.949418	0.024577	0.857474
H190	H	1.449418	0.524577	1.357474
H191	H	0.734798	0.213463	0.814445
H192	H	1.234798	0.713463	1.314445
H193	H	0.821660	-0.310718	-0.123923
H194	H	1.321660	0.189282	0.376077
N195	N	0.021702	0.105338	0.141712
N196	N	0.521702	0.605338	0.641712
H197	H	-0.029686	0.104428	0.131353
H198	H	0.470314	0.604428	0.631353
H199	H	0.040009	0.054027	0.171505
H200	H	0.540009	0.554027	0.671505
H201	H	0.734789	0.213463	0.671483
H202	H	1.234789	0.713463	1.171483
H203	H	0.734741	0.213447	0.185393
H204	H	1.234741	0.713447	0.685393
H205	H	0.162709	0.107832	0.123686
H206	H	0.662709	0.607832	0.623686
N207	N	0.406845	0.010701	0.108565
N208	N	0.906845	0.510701	0.608565
H209	H	0.400904	-0.050287	0.101586
H210	H	0.900904	0.449713	0.601586
H211	H	0.457409	0.019069	0.100609
H212	H	0.957409	0.519069	0.600609
N213	N	0.468484	0.112819	0.141651
N214	N	0.968484	0.612819	0.641651
H215	H	0.432641	0.163676	0.144826
H216	H	0.932641	0.663676	0.644826
H217	H	0.444262	0.060595	0.144270
H218	H	0.944262	0.560595	0.644270
N219	N	0.619187	0.115898	0.141770
N220	N	1.119187	0.615898	0.641770
H221	H	0.585232	0.115300	0.184998
H222	H	1.085232	0.615300	0.684998
H223	H	0.654894	0.064899	0.144747
H224	H	1.154894	0.564899	0.644747
