data_functionalizedCrystal
_audit_creation_method	'MofGen! by Chris Wilmer'
_symmetry_space_group_name_H-M	'P1'
_symmetry_Int_Tables_number	1
_symmetry_cell_setting	triclinic
loop_
_symmetry_equiv_pos_as_xyz
  x,y,z
_cell_length_a	21.395364
_cell_length_b	12.594516
_cell_length_c	21.395355
_cell_angle_alpha	89.986917
_cell_angle_beta	89.975448
_cell_angle_gamma	90.026767
loop_
_atom_site_label
_atom_site_type_symbol
_atom_site_fract_x
_atom_site_fract_y
_atom_site_fract_z
Zn1	Zn	0.957941	-0.423441	-0.354285
Zn2	Zn	1.457941	0.076559	0.145715
Zn3	Zn	0.957878	-0.601405	-0.249518
Zn4	Zn	1.457878	-0.101405	0.250482
Zn5	Zn	0.853156	-0.423487	-0.249522
Zn6	Zn	1.353156	0.076513	0.250478
Zn7	Zn	0.853160	-0.601424	-0.354258
Zn8	Zn	1.353160	-0.101424	0.145742
O9	O	0.905534	-0.512439	-0.301896
O10	O	1.405534	-0.012439	0.198104
O11	O	1.045611	-0.447021	-0.340397
O12	O	1.545611	0.052979	0.159603
O13	O	0.943959	-0.577815	-0.161840
O14	O	1.443959	-0.077815	0.338160
O15	O	0.867081	-0.274535	-0.263432
O16	O	1.367081	0.225465	0.236568
O17	O	1.045565	-0.577770	-0.263425
O18	O	1.545565	-0.077770	0.236575
O19	O	0.944066	-0.274501	-0.340401
O20	O	1.444066	0.225499	0.159599
O21	O	0.867020	-0.447100	-0.161843
O22	O	1.367020	0.052900	0.338157
O23	O	0.765479	-0.447119	-0.263406
O24	O	1.265479	0.052881	0.236594
O25	O	0.867087	-0.577803	-0.441939
O26	O	1.367087	-0.077803	0.058061
O27	O	0.765482	-0.577848	-0.340355
O28	O	1.265482	-0.077848	0.159645
O29	O	0.944070	-0.447039	-0.441959
O30	O	1.444070	0.052961	0.058041
O31	O	0.943963	-0.750353	-0.263398
O32	O	1.443963	-0.250353	0.236602
O33	O	0.867026	-0.750367	-0.340351
O34	O	1.367026	-0.250367	0.159649
C35	C	0.742746	-0.512491	-0.301878
C36	C	1.242746	-0.012491	0.198122
C37	C	0.673105	-0.512539	-0.301885
C38	C	1.173105	-0.012539	0.198115
C39	C	0.640439	-0.444569	-0.342027
C40	C	1.140439	0.055431	0.157973
C41	C	0.575003	-0.444541	-0.342029
C42	C	1.075003	0.055459	0.157971
C43	C	0.542237	-0.512501	-0.301897
C44	C	1.042237	-0.012501	0.198103
C45	C	0.574911	-0.580476	-0.261748
C46	C	1.074911	-0.080476	0.238252
C47	C	0.640346	-0.580495	-0.261742
C48	C	1.140346	-0.080495	0.238258
C49	C	0.438531	-0.608355	-0.296865
C50	C	0.938531	-0.108355	0.203135
C51	C	0.373098	-0.608338	-0.296875
C52	C	0.873098	-0.108338	0.203125
C53	C	0.340416	-0.512443	-0.301911
C54	C	0.840416	-0.012443	0.198089
C55	C	0.373175	-0.416562	-0.306950
C56	C	0.873175	0.083438	0.193050
C57	C	0.438609	-0.416581	-0.306944
C58	C	0.938609	0.083419	0.193056
C59	C	0.471285	-0.512488	-0.301898
C60	C	0.971285	-0.012488	0.198102
C61	C	0.236797	-0.444436	-0.342057
C62	C	0.736797	0.055564	0.157943
C63	C	0.171360	-0.444406	-0.342055
C64	C	0.671360	0.055594	0.157945
C65	C	0.171270	-0.580351	-0.261777
C66	C	0.671270	-0.080351	0.238223
C67	C	0.236705	-0.580372	-0.261775
C68	C	0.736705	-0.080372	0.238225
C69	C	0.269465	-0.512416	-0.301919
C70	C	0.769465	-0.012416	0.198081
C71	C	0.905505	-0.788980	-0.301885
C72	C	1.405505	-0.288980	0.198115
C73	C	0.905550	-0.907286	-0.301901
C74	C	1.405550	-0.407286	0.198099
C75	C	0.947444	-0.976493	-0.260091
C76	C	1.447444	-0.476493	0.239909
C77	C	0.962759	-1.047207	-0.317279
C78	C	1.462759	-0.547207	0.182721
C79	C	0.890314	-1.047370	-0.244750
C80	C	1.390314	-0.547370	0.255250
C81	C	0.920894	-0.976442	-0.359119
C82	C	1.420894	-0.476442	0.140881
C83	C	0.848422	-0.976598	-0.286551
C84	C	1.348422	-0.476598	0.213449
C85	C	0.863715	-1.047281	-0.343778
C86	C	1.363715	-0.547281	0.156222
C87	C	1.068957	-0.512388	-0.301914
C88	C	1.568957	-0.012388	0.198086
C89	C	1.138599	-0.512366	-0.301921
C90	C	1.638599	-0.012366	0.198079
C91	C	0.905586	-0.512418	-0.465319
C92	C	1.405586	-0.012418	0.034681
C93	C	0.905608	-0.512409	-0.534960
C94	C	1.405608	-0.012409	-0.034960
C95	C	0.905580	-0.234818	-0.301920
C96	C	1.405580	0.265182	0.198080
C97	C	0.905600	-0.116513	-0.301931
C98	C	1.405600	0.383487	0.198069
C99	C	0.945691	-0.444317	-0.567685
C100	C	1.445691	0.055683	-0.067685
C101	C	0.945690	-0.444271	-0.633120
C102	C	1.445690	0.055729	-0.133120
C103	C	0.905613	-0.512336	-0.665829
C104	C	1.405613	-0.012336	-0.165829
C105	C	0.865522	-0.580432	-0.633096
C106	C	1.365522	-0.080432	-0.133096
C107	C	0.865520	-0.580469	-0.567662
C108	C	1.365520	-0.080469	-0.067662
C109	C	0.900656	-0.608176	-0.769500
C110	C	1.400656	-0.108176	-0.269500
C111	C	0.900663	-0.608141	-0.834933
C112	C	1.400663	-0.108141	-0.334933
C113	C	0.905617	-0.512224	-0.867649
C114	C	1.405617	-0.012224	-0.367649
C115	C	0.910578	-0.416337	-0.834925
C116	C	1.410578	0.083663	-0.334925
C117	C	0.910575	-0.416374	-0.769491
C118	C	1.410575	0.083626	-0.269491
C119	C	0.905611	-0.512304	-0.736781
C120	C	1.405611	-0.012304	-0.236781
C121	C	0.945701	-0.444077	-0.971327
C122	C	1.445701	0.055923	-0.471327
C123	C	0.945696	-0.444029	-1.036763
C124	C	1.445696	0.055971	-0.536763
C125	C	0.865531	-0.580200	-1.036738
C126	C	1.365531	-0.080200	-0.536738
C127	C	0.865533	-0.580238	-0.971303
C128	C	1.365533	-0.080238	-0.471303
C129	C	0.905622	-0.512178	-0.938601
C130	C	1.405622	-0.012178	-0.438601
C131	C	0.905518	-0.512384	-0.139108
C132	C	1.405518	-0.012384	0.360892
C133	C	0.905618	-0.512093	-0.069467
C134	C	1.405618	-0.012093	0.430533
H135	H	0.346567	-0.338475	-0.311051
H136	H	0.846567	0.161525	0.188949
H137	H	0.982878	-0.945410	-0.224766
H138	H	1.482878	-0.445410	0.275234
H139	H	0.978340	-0.388652	-0.944700
H140	H	1.478340	0.111348	-0.444700
F141	F	0.822873	-0.652632	-1.071544
F142	F	1.322873	-0.152632	-0.571544
H143	H	0.832877	-0.635915	-0.541018
H144	H	1.332877	-0.135915	-0.041018
F145	F	0.988354	-0.371877	-0.532885
F146	F	1.488354	0.128123	-0.032885
H147	H	0.666942	-0.635846	-0.229053
H148	H	1.166942	-0.135846	0.270947
F149	F	1.025936	-1.087732	-0.334280
F150	F	1.525936	-0.587732	0.165720
F151	F	0.822867	-0.652868	-0.667907
F152	F	1.322867	-0.152868	-0.167907
H153	H	0.832897	-0.635692	-0.944658
H154	H	1.332897	-0.135692	-0.444658
H155	H	0.263303	-0.635724	-0.229090
H156	H	0.763303	-0.135724	0.270910
H157	H	0.800103	-0.945557	-0.273534
H158	H	1.300103	-0.445557	0.226466
H159	H	0.978335	-0.388575	-1.063407
H160	H	1.478335	0.111425	-0.563407
F161	F	0.136594	-0.372055	-0.384779
F162	F	0.636594	0.127945	0.115221
F163	F	0.988344	-0.371779	-0.667955
F164	F	1.488344	0.128221	-0.167955
F165	F	0.915852	-0.314328	-0.734666
F166	F	1.415852	0.185672	-0.234666
F167	F	0.136402	-0.652674	-0.219060
F168	F	0.636402	-0.152674	0.280940
H169	H	0.914613	-0.338232	-0.861562
H170	H	1.414613	0.161768	-0.361562
F171	F	0.937846	-0.935897	-0.422325
F172	F	1.437846	-0.435897	0.077675
H173	H	0.896454	-0.686263	-0.742867
H174	H	1.396454	-0.186263	-0.242867
H175	H	0.896627	-0.686217	-0.861571
H176	H	1.396627	-0.186217	-0.361571
H177	H	0.877406	-1.078524	-0.196406
H178	H	1.377406	-0.578524	0.303594
F179	F	0.540230	-0.372193	-0.384754
F180	F	1.040230	0.127807	0.115246
F181	F	0.675300	-0.372242	-0.384750
F182	F	1.175300	0.127758	0.115250
H183	H	0.465279	-0.338511	-0.311045
H184	H	0.965279	0.161489	0.188955
F185	F	0.817435	-1.087655	-0.390060
F186	F	1.317435	-0.587655	0.109940
H187	H	0.346431	-0.686409	-0.292774
H188	H	0.846431	-0.186409	0.207226
F189	F	0.473307	-0.710425	-0.291497
F190	F	0.973307	-0.210425	0.208503
F191	F	0.271664	-0.372107	-0.384777
F192	F	0.771664	0.127893	0.115223
F193	F	0.540039	-0.652800	-0.219034
F194	F	1.040039	-0.152800	0.280966
