data_functionalizedCrystal
_audit_creation_method	'MofGen! by Chris Wilmer'
_symmetry_space_group_name_H-M	'P1'
_symmetry_Int_Tables_number	1
_symmetry_cell_setting	triclinic
loop_
_symmetry_equiv_pos_as_xyz
  x,y,z
_cell_length_a	14.628931
_cell_length_b	31.640172
_cell_length_c	14.628931
_cell_angle_alpha	90.004023
_cell_angle_beta	60.000164
_cell_angle_gamma	59.998222
loop_
_atom_site_label
_atom_site_type_symbol
_atom_site_fract_x
_atom_site_fract_y
_atom_site_fract_z
Zr1	Zr	1.000465	0.407183	-0.119841
O2	O	1.191188	0.339694	-0.265821
O3	O	0.809754	0.427872	-0.075091
O4	O	1.000459	0.427872	-0.265796
O5	O	1.000484	0.339693	0.075316
O6	O	1.000440	0.497429	-0.265776
O7	O	1.000484	0.339693	-0.075116
O8	O	0.659304	0.497429	0.075361
O9	O	1.341620	0.339694	-0.265821
O10	O	0.888178	0.488605	-0.055990
O11	O	0.888192	0.436696	0.056260
O12	O	1.112722	0.436696	-0.168270
O13	O	1.112737	0.384786	-0.056020
Zr14	Zr	1.000436	0.518118	0.120112
Zr15	Zr	1.000435	0.518118	-0.119809
Zr16	Zr	1.000466	0.407183	0.120080
Zr17	Zr	1.240386	0.407183	-0.119841
Zr18	Zr	0.760515	0.518118	0.120111
O19	O	1.191146	0.497429	0.075362
O20	O	1.191145	0.497430	-0.265775
O21	O	1.191189	0.339693	0.075316
O22	O	0.809712	0.585608	0.266092
O23	O	0.809711	0.585608	-0.075045
O24	O	0.809755	0.427872	0.266046
O25	O	1.000417	0.585608	-0.075045
O26	O	1.000442	0.497429	0.266067
O27	O	1.000461	0.427872	0.266047
O28	O	1.000417	0.585608	0.075387
O29	O	1.341596	0.427873	-0.265795
O30	O	0.659305	0.497429	0.266066
O31	O	0.659281	0.585608	0.266091
O32	O	0.659280	0.585608	0.075386
O33	O	1.341620	0.339694	-0.075115
O34	O	1.341596	0.427873	-0.075090
O35	O	0.888178	0.488605	0.168541
O36	O	0.888164	0.540515	0.056290
O37	O	1.112708	0.488606	-0.055990
O38	O	1.112723	0.436696	0.056261
C39	C	0.700346	0.462650	0.000135
C40	C	0.598493	0.462650	0.000135
C41	C	0.474315	0.499067	0.078904
C42	C	0.369043	0.499068	0.078906
C43	C	1.000488	0.323887	0.000095
C44	C	1.000501	0.276792	0.000082
C45	C	0.883228	0.011882	0.058767
C46	C	0.883206	-0.165103	0.058789
O47	O	0.783522	-0.164944	0.108675
N48	N	1.000415	-0.214328	0.000179
C49	C	1.117638	-0.219307	-0.058436
O50	O	1.217331	-0.265238	-0.108277
C51	C	1.117659	-0.042323	-0.058450
C52	C	1.000442	0.006903	0.000155
C53	C	0.766021	0.061106	0.117368
C54	C	0.766028	0.105349	0.117357
C55	C	0.883242	0.100369	0.058745
C56	C	1.000449	0.051146	0.000144
C57	C	1.234881	-0.047302	-0.117057
C58	C	1.234876	-0.003051	-0.117054
C59	C	1.117659	0.046175	-0.058449
C60	C	1.117670	0.090409	-0.058480
N61	N	1.000461	0.139635	0.000130
C62	C	0.883247	0.144615	0.058743
C63	C	1.117619	-0.312225	-0.058425
C64	C	1.117614	-0.356471	-0.058423
C65	C	0.883181	-0.302263	0.058803
C66	C	0.883187	-0.258017	0.058794
C67	C	1.000409	-0.262999	0.000185
C68	C	0.883270	0.237527	0.058714
C69	C	0.883287	0.281772	0.058694
C70	C	1.117719	0.227561	-0.058527
C71	C	1.117702	0.183319	-0.058512
C72	C	1.000467	0.188306	0.000117
O73	O	1.217301	0.090290	-0.108329
O74	O	0.783568	0.190550	0.108598
C75	C	0.883221	-0.032361	0.058778
C76	C	1.000429	-0.081584	0.000177
C77	C	1.117643	-0.086564	-0.058436
C78	C	1.000424	-0.125830	0.000179
C79	C	0.883210	-0.120850	0.058791
C80	C	0.766001	-0.071624	0.117402
C81	C	0.766007	-0.027381	0.117391
C82	C	1.234852	-0.135790	-0.117046
C83	C	1.234835	-0.180031	-0.117031
C84	C	1.117621	-0.175051	-0.058419
C85	C	1.300555	0.462651	0.000136
C86	C	1.402408	0.462651	0.000136
C87	C	1.000449	0.462651	-0.299969
C88	C	1.000449	0.462651	-0.401822
C89	C	1.000412	0.601414	0.000175
C90	C	1.000400	0.648509	0.000189
C91	C	1.111838	0.436900	-0.502930
C92	C	1.111841	0.436900	-0.608201
C93	C	1.000451	0.462650	0.300240
C94	C	1.000451	0.462650	0.402093
C95	C	0.700308	0.601414	0.000175
C96	C	0.598442	0.648509	0.000188
C97	C	0.700347	0.462650	0.300240
C98	C	0.598494	0.462650	0.402092
C99	C	0.700309	0.601413	0.300280
C100	C	0.598443	0.648508	0.402146
C101	C	1.300592	0.323888	-0.300009
C102	C	1.402457	0.276793	-0.401875
C103	C	1.300593	0.323888	0.000096
C104	C	1.402458	0.276793	0.000083
C105	C	1.300554	0.462651	-0.299969
C106	C	1.402407	0.462651	-0.401821
C107	C	0.550612	0.643529	-0.058425
C108	C	0.454912	0.687775	-0.058435
C109	C	0.407037	0.737001	0.000176
C110	C	0.454876	0.741980	0.058790
C111	C	0.550581	0.697734	0.058793
C112	C	0.550599	0.697726	0.391390
C113	C	0.454899	0.741980	0.487094
C114	C	0.407039	0.737017	0.593555
C115	C	0.454893	0.687794	0.604309
C116	C	0.550597	0.643541	0.508605
C117	C	1.450313	0.227576	-0.391119
C118	C	1.546043	0.183321	-0.486824
C119	C	1.593908	0.188284	-0.593284
C120	C	1.546048	0.237507	-0.604038
C121	C	1.450327	0.281761	-0.508334
C122	C	1.450298	0.281773	0.058686
C123	C	1.546025	0.237526	0.058669
C124	C	1.593904	0.188300	0.000055
C125	C	1.546060	0.183321	-0.058555
C126	C	1.450341	0.227567	-0.058544
C127	C	0.553078	0.488401	0.503200
C128	C	0.447808	0.488401	0.608471
H129	H	0.626870	0.431472	-0.067299
H130	H	0.415882	0.782066	0.106509
H131	H	1.207201	0.414857	-0.511556
F132	F	0.604125	0.517214	0.514483
H133	H	0.441456	0.440606	0.511444
H134	H	0.559447	0.440602	0.393466
H135	H	0.787741	-0.298215	0.106521
H136	H	0.589553	0.701777	0.304713
H137	H	1.213151	0.223515	-0.106252
H138	H	0.329107	0.773025	0.000165
H139	H	0.415973	0.683711	-0.106166
H140	H	1.585032	0.241542	-0.690729
F141	F	0.641248	0.025005	0.179768
F142	F	0.437215	0.539817	0.167058
F143	F	1.399386	0.222281	-0.277825
F144	F	1.236494	0.408080	-0.721571
F145	F	0.601469	0.703042	0.121188
F146	F	0.601551	0.591143	-0.120814
F147	F	0.305179	0.784121	0.695403
H148	H	1.411393	0.223505	-0.106263
H149	H	1.584963	0.241590	0.106401
F150	F	1.596959	0.130940	-0.475355
H151	H	0.905082	0.484695	-0.511174
F152	F	0.403982	0.794361	0.475626
F153	F	1.399397	0.334140	-0.519799
H154	H	0.262555	0.530246	0.146342
H155	H	0.508893	0.431473	-0.067308
H156	H	1.671844	0.152277	0.000056
H157	H	1.411323	0.321851	0.106423
H158	H	0.905087	0.484698	-0.393196
F159	F	0.403943	0.682520	0.717620
F160	F	0.601501	0.591161	0.520070
F161	F	1.695784	0.141181	-0.695132
F162	F	1.597026	0.130927	-0.120929
H163	H	0.408750	0.510448	0.695208
F164	F	0.758523	0.334162	0.121070
H165	H	0.787806	0.241595	0.106457
F166	F	0.758431	-0.205630	0.121170
H167	H	0.670578	0.145427	0.165075
H168	H	0.670566	0.065169	0.165103
H169	H	0.670561	-0.067577	0.165119
H170	H	1.213063	-0.396549	-0.106160
H171	H	1.330331	-0.087377	-0.164779
F172	F	1.359643	-0.008359	-0.179432
F173	F	1.242457	0.130929	-0.120906
F174	F	1.242391	-0.317537	-0.120811
H175	H	1.330295	-0.220111	-0.164765
H176	H	1.330304	-0.139853	-0.164778
