data_functionalizedCrystal
_audit_creation_method	'MofGen! by Chris Wilmer'
_symmetry_space_group_name_H-M	'P1'
_symmetry_Int_Tables_number	1
_symmetry_cell_setting	triclinic
loop_
_symmetry_equiv_pos_as_xyz
  x,y,z
_cell_length_a	16.959455
_cell_length_b	16.959454
_cell_length_c	16.959447
_cell_angle_alpha	90.026736
_cell_angle_beta	90.014322
_cell_angle_gamma	90.017022
loop_
_atom_site_label
_atom_site_type_symbol
_atom_site_fract_x
_atom_site_fract_y
_atom_site_fract_z
Zn1	Zn	1.208384	-0.314730	0.446928
Zn2	Zn	1.708384	0.185270	0.946928
Zn3	Zn	1.208306	-0.446923	0.314758
Zn4	Zn	1.708306	0.053077	0.814758
Zn5	Zn	1.076212	-0.314755	0.314766
Zn6	Zn	1.576212	0.185245	0.814766
Zn7	Zn	1.076177	-0.446864	0.446897
Zn8	Zn	1.576177	0.053136	0.946897
O9	O	1.142270	-0.380818	0.380837
O10	O	1.642270	0.119182	0.880837
O11	O	1.318984	-0.332280	0.429406
O12	O	1.818984	0.167720	0.929406
O13	O	1.190766	-0.429426	0.204148
O14	O	1.690766	0.070574	0.704148
O15	O	1.093792	-0.204141	0.332314
O16	O	1.593792	0.295859	0.832314
O17	O	1.318927	-0.429402	0.332301
O18	O	1.818927	0.070598	0.832301
O19	O	1.190898	-0.204123	0.429413
O20	O	1.690898	0.295877	0.929413
O21	O	1.093717	-0.332323	0.204154
O22	O	1.593717	0.167677	0.704154
O23	O	0.965597	-0.332265	0.332283
O24	O	1.465597	0.167735	0.832283
O25	O	1.093732	-0.429301	0.557512
O26	O	1.593732	0.070699	1.057512
O27	O	0.965571	-0.429325	0.429359
O28	O	1.465571	0.070675	0.929359
O29	O	1.190864	-0.332223	0.557535
O30	O	1.690864	0.167777	1.057535
O31	O	1.190732	-0.557526	0.332270
O32	O	1.690732	-0.057526	0.832270
O33	O	1.093657	-0.557482	0.429352
O34	O	1.593657	-0.057482	0.929352
C35	C	0.936904	-0.380792	0.380819
C36	C	1.436904	0.119208	0.880819
C37	C	0.849047	-0.380800	0.380830
C38	C	1.349047	0.119200	0.880830
C39	C	1.142204	-0.586184	0.380824
C40	C	1.642204	-0.086184	0.880824
C41	C	1.142248	-0.674041	0.380844
C42	C	1.642248	-0.174041	0.880844
C43	C	0.477560	-0.330238	0.330395
C44	C	0.977560	0.169762	0.830395
C45	C	0.477582	-0.431463	0.431324
C46	C	0.977582	0.068537	0.931324
C47	C	0.560128	-0.431452	0.431320
C48	C	1.060128	0.068548	0.931320
C49	C	0.601394	-0.380834	0.380851
C50	C	1.101394	0.119166	0.880851
C51	C	0.560114	-0.330226	0.330387
C52	C	1.060114	0.169774	0.830387
C53	C	0.601414	-0.482064	0.481777
C54	C	1.101414	0.017936	0.981777
C55	C	0.683965	-0.482055	0.481773
C56	C	1.183965	0.017945	0.981773
C57	C	0.725233	-0.431432	0.431308
C58	C	1.225233	0.068568	0.931308
C59	C	0.683948	-0.380822	0.380843
C60	C	1.183948	0.119178	0.880843
C61	C	0.725213	-0.330204	0.330374
C62	C	1.225213	0.169796	0.830374
C63	C	0.683930	-0.279589	0.279913
C64	C	1.183930	0.220411	0.779913
C65	C	0.601381	-0.279603	0.279922
C66	C	1.101381	0.220397	0.779922
C67	C	0.807781	-0.431418	0.431299
C68	C	1.307781	0.068582	0.931299
C69	C	0.807767	-0.330193	0.330366
C70	C	1.307767	0.169807	0.830366
C71	C	1.091796	-1.045524	0.431382
C72	C	1.591796	-0.545524	0.931382
C73	C	1.192963	-1.045509	0.330373
C74	C	1.692963	-0.545509	0.830373
C75	C	1.192936	-0.962963	0.330365
C76	C	1.692936	-0.462963	0.830365
C77	C	1.142337	-0.921694	0.380867
C78	C	1.642337	-0.421694	0.880867
C79	C	1.091765	-0.962970	0.431375
C80	C	1.591765	-0.462970	0.931375
C81	C	1.243501	-0.921680	0.279852
C82	C	1.743501	-0.421680	0.779852
C83	C	1.243475	-0.839130	0.279842
C84	C	1.743475	-0.339130	0.779842
C85	C	1.192879	-0.797859	0.330348
C86	C	1.692879	-0.297859	0.830348
C87	C	1.142306	-0.839140	0.380859
C88	C	1.642306	-0.339140	0.880859
C89	C	1.091707	-0.797871	0.431360
C90	C	1.591707	-0.297871	0.931360
C91	C	1.041137	-0.839151	0.481876
C92	C	1.541137	-0.339151	0.981876
C93	C	1.041170	-0.921699	0.481881
C94	C	1.541170	-0.421699	0.981881
C95	C	1.192847	-0.715310	0.330343
C96	C	1.692847	-0.215310	0.830343
C97	C	1.091676	-0.715317	0.431353
C98	C	1.591676	-0.215317	0.931353
C99	C	1.348438	-0.380845	0.380856
C100	C	1.848438	0.119155	0.880856
C101	C	1.436295	-0.380856	0.380864
C102	C	1.936295	0.119144	0.880864
C103	C	1.142303	-0.380753	0.587006
C104	C	1.642303	0.119247	1.087006
C105	C	1.142317	-0.380725	0.674862
C106	C	1.642317	0.119275	1.174862
C107	C	1.142358	-0.174650	0.380868
C108	C	1.642358	0.325350	0.880868
C109	C	1.142395	-0.086793	0.380881
C110	C	1.642395	0.413207	0.880881
C111	C	1.142283	-0.380826	0.175471
C112	C	1.642283	0.119174	0.675471
C113	C	1.142422	-0.380631	0.087615
C114	C	1.642422	0.119369	0.587615
C115	C	1.091839	-0.431185	1.046328
C116	C	1.591839	0.068815	1.546328
C117	C	1.192983	-0.330097	1.046348
C118	C	1.692983	0.169903	1.546348
C119	C	1.192962	-0.330114	0.963802
C120	C	1.692962	0.169886	1.463802
C121	C	1.142380	-0.380668	0.922515
C122	C	1.642380	0.119332	1.422515
C123	C	1.091818	-0.431205	0.963775
C124	C	1.591818	0.068795	1.463775
C125	C	1.243529	-0.279584	0.922536
C126	C	1.743529	0.220416	1.422536
C127	C	1.243510	-0.279599	0.839985
C128	C	1.743510	0.220401	1.339985
C129	C	1.192923	-0.330149	0.798697
C130	C	1.692923	0.169851	1.298697
C131	C	1.142359	-0.380688	0.839962
C132	C	1.642359	0.119312	1.339962
C133	C	1.091776	-0.431242	0.798675
C134	C	1.591776	0.068758	1.298675
C135	C	1.041207	-0.481777	0.839938
C136	C	1.541207	0.018223	1.339938
C137	C	1.041231	-0.481756	0.922487
C138	C	1.541231	0.018244	1.422487
C139	C	1.192899	-0.330171	0.716149
C140	C	1.692899	0.169829	1.216149
C141	C	1.091755	-0.431262	0.716122
C142	C	1.591755	0.068738	1.216122
H143	H	0.841360	-0.288968	0.289273
H144	H	1.341360	0.211032	0.789273
H145	H	1.000063	-0.522901	0.956091
H146	H	1.500063	-0.022901	1.456091
H147	H	1.284715	-0.238430	0.956158
H148	H	1.784715	0.261570	1.456158
O149	O	1.037294	-0.485687	1.090824
O150	O	1.537294	0.014313	1.590824
H151	H	1.045804	-0.477184	1.155163
H152	H	1.545804	0.022816	1.655163
H153	H	1.284686	-0.238450	0.806396
H154	H	1.784686	0.261550	1.306396
H155	H	1.234170	-0.288943	1.079968
H156	H	1.734170	0.211057	1.579968
O157	O	0.728439	-0.224993	0.225479
O158	O	1.228439	0.275007	0.725479
H159	H	0.792775	-0.233491	0.233957
H160	H	1.292775	0.266509	0.733957
H161	H	0.567810	-0.523280	0.522860
H162	H	1.067810	-0.023280	1.022860
H163	H	0.567761	-0.238397	0.238838
H164	H	1.067761	0.261603	0.738838
O165	O	1.247541	-1.090006	0.275902
O166	O	1.747541	-0.590006	0.775902
H167	H	1.309558	-1.074102	0.289518
H168	H	1.809558	-0.574102	0.789518
H169	H	0.443944	-0.289026	0.289313
H170	H	0.943944	0.210974	0.789313
H171	H	1.234074	-0.289028	0.682556
H172	H	1.734074	0.210972	1.182556
O173	O	0.986614	-0.966220	0.536347
O174	O	1.486614	-0.466220	1.036347
H175	H	0.995127	-1.030554	0.527855
H176	H	1.495127	-0.530554	1.027855
O177	O	0.728492	-0.536633	0.536205
O178	O	1.228492	-0.036633	1.036205
H179	H	0.685928	-0.571827	0.571304
H180	H	1.185928	-0.071827	1.071304
H181	H	1.050475	-0.681721	0.472480
H182	H	1.550475	-0.181721	0.972480
O183	O	0.433080	-0.486056	0.485759
O184	O	0.933080	0.013944	0.985759
H185	H	0.368743	-0.477559	0.477289
H186	H	0.868743	0.022441	0.977289
O187	O	0.986557	-0.794641	0.536343
O188	O	1.486557	-0.294641	1.036343
H189	H	1.021893	-0.756985	0.576587
H190	H	1.521893	-0.256985	1.076587
O191	O	1.037245	-1.090038	0.485857
O192	O	1.537245	-0.590038	0.985857
H193	H	1.045758	-1.154374	0.477376
H194	H	1.545758	-0.654374	0.977376
O195	O	0.852311	-0.485999	0.485720
O196	O	1.352311	0.014001	0.985720
H197	H	0.809748	-0.521197	0.520816
H198	H	1.309748	-0.021197	1.020816
H199	H	1.284690	-0.955288	0.238731
H200	H	1.784690	-0.455288	0.738731
O201	O	1.298023	-0.794607	0.225371
O202	O	1.798023	-0.294607	0.725371
H203	H	1.333216	-0.837173	0.190262
H204	H	1.833216	-0.337173	0.690262
H205	H	1.234016	-0.681704	0.289211
H206	H	1.734016	-0.181704	0.789211
H207	H	1.050557	-0.472422	0.682512
H208	H	1.550557	0.027578	1.182512
O209	O	0.986648	-0.536301	0.795407
O210	O	1.486648	-0.036301	1.295407
H211	H	0.995131	-0.527819	0.731074
H212	H	1.495131	-0.027819	1.231074
