data_functionalizedCrystal
_audit_creation_method	'MofGen! by Chris Wilmer'
_symmetry_space_group_name_H-M	'P1'
_symmetry_Int_Tables_number	1
_symmetry_cell_setting	triclinic
loop_
_symmetry_equiv_pos_as_xyz
  x,y,z
_cell_length_a	12.759401
_cell_length_b	18.050590
_cell_length_c	12.759393
_cell_angle_alpha	90.035753
_cell_angle_beta	90.018496
_cell_angle_gamma	90.018713
loop_
_atom_site_label
_atom_site_type_symbol
_atom_site_fract_x
_atom_site_fract_y
_atom_site_fract_z
Zn1	Zn	1.606227	-0.295612	0.593951
Zn2	Zn	1.606110	-0.419823	0.418258
Zn3	Zn	1.430529	-0.295651	0.418290
Zn4	Zn	1.430506	-0.419765	0.593900
O5	O	1.518343	-0.357713	0.506100
O6	O	1.753233	-0.312097	0.570653
O7	O	1.582779	-0.403391	0.271241
O8	O	1.453895	-0.191722	0.441627
O9	O	1.753146	-0.403354	0.441572
O10	O	1.582979	-0.191693	0.570684
O11	O	1.453781	-0.312163	0.271265
O12	O	1.283505	-0.312108	0.441577
O13	O	1.453855	-0.403256	0.740927
O14	O	1.283488	-0.403294	0.570597
O15	O	1.582957	-0.312041	0.740965
O16	O	1.582757	-0.523740	0.441522
O17	O	1.453741	-0.523698	0.570565
C18	C	1.245376	-0.357699	0.506085
C19	C	1.128599	-0.357711	0.506104
C20	C	1.518262	-0.550665	0.506058
C21	C	1.518324	-0.633211	0.506075
C22	C	1.073756	-0.405268	0.573173
C23	C	0.964032	-0.405277	0.573185
C24	C	0.964004	-0.310171	0.439049
C25	C	1.073726	-0.310159	0.439043
C26	C	1.128629	-0.452820	0.640234
C27	C	1.073785	-0.500382	0.707308
C28	C	0.964061	-0.500391	0.707320
C29	C	0.909181	-0.452839	0.640257
C30	C	1.588628	-0.832657	0.435999
C31	C	1.614296	-0.881981	0.531886
C32	C	1.518384	-0.784341	0.506117
C33	C	1.492823	-0.882099	0.410274
C34	C	1.518443	-0.930326	0.506149
C35	C	1.544100	-0.832578	0.602054
C36	C	1.422583	-0.832691	0.480377
C37	C	1.448214	-0.881993	0.576329
C38	C	1.518352	-0.700243	0.506097
C39	C	1.518475	-1.014423	0.506180
C40	C	1.792376	-0.357727	0.506115
C41	C	1.909153	-0.357733	0.506121
C42	C	1.518417	-0.357638	0.780133
C43	C	1.518448	-0.357606	0.896910
C44	C	1.518453	-0.164007	0.506165
C45	C	1.518500	-0.081462	0.506192
C46	C	1.518330	-0.357734	0.233132
C47	C	1.518502	-0.357557	0.116356
C48	C	1.585680	-0.310106	0.951793
C49	C	1.585705	-0.310079	1.061517
C50	C	1.451263	-0.405059	1.061465
C51	C	1.451233	-0.405081	0.951743
C52	C	1.652895	-0.262631	0.896960
C53	C	1.720134	-0.215128	0.951844
C54	C	1.720159	-0.215101	1.061568
C55	C	1.652945	-0.262577	1.116408
H56	H	1.217971	-0.452819	0.640231
H57	H	1.118476	-0.539092	0.761914
H58	H	1.396470	-0.443749	0.907056
N59	N	1.373713	-0.908987	0.650813
N60	N	1.321177	-0.864405	0.704288
H61	H	1.268564	-0.883468	0.756896
H62	H	1.648052	-0.810994	0.376764
H63	H	1.396540	-0.443712	1.106125
N64	N	1.320944	-0.805513	0.452996
N65	N	1.281877	-0.821375	0.365975
H66	H	1.210093	-0.802179	0.346626
H67	H	1.774850	-0.176469	0.907185
H68	H	0.919312	-0.271458	0.384449
N69	N	1.788832	-0.166568	1.117615
N70	N	1.848832	-0.124182	1.068640
H71	H	1.897338	-0.089905	1.108220
H72	H	0.919410	-0.539112	0.761942
N73	N	1.715948	-0.909164	0.559235
N74	N	1.727368	-0.948723	0.638793
H75	H	1.799161	-0.967920	0.658103
N76	N	0.797100	-0.452849	0.640294
N77	N	0.748142	-0.495309	0.700190
H78	H	0.668985	-0.495318	0.700216
N79	N	1.129738	-0.261568	0.370541
N80	N	1.080735	-0.219115	0.310671
H81	H	1.120293	-0.184792	0.262295
H82	H	1.652959	-0.262543	1.205753
N83	N	1.571390	-0.805426	0.703784
N84	N	1.590823	-0.849896	0.776284
H85	H	1.610101	-0.830720	0.848129
N86	N	1.465680	-0.909383	0.308573
N87	N	1.521471	-0.893581	0.231239
H88	H	1.502310	-0.912848	0.159410
H89	H	1.652885	-0.262649	0.807617
