data_functionalizedCrystal
_audit_creation_method	'MofGen! by Chris Wilmer'
_symmetry_space_group_name_H-M	'P1'
_symmetry_Int_Tables_number	1
_symmetry_cell_setting	triclinic
loop_
_symmetry_equiv_pos_as_xyz
  x,y,z
_cell_length_a	15.995350
_cell_length_b	11.792241
_cell_length_c	10.868271
_cell_angle_alpha	90.005281
_cell_angle_beta	90.000670
_cell_angle_gamma	83.842895
loop_
_atom_site_label
_atom_site_type_symbol
_atom_site_fract_x
_atom_site_fract_y
_atom_site_fract_z
O1	O	-1.111649	-0.146296	-0.102218
O2	O	-0.867956	-0.164362	-0.102244
O3	O	-0.995716	0.009891	-0.102222
O4	O	-0.983889	-0.320549	-0.102240
O5	O	-0.995706	0.009898	0.102423
O6	O	-0.867946	-0.164355	0.102401
O7	O	-1.111639	-0.146289	0.102426
Zn8	Zn	-0.989790	-0.155321	0.134905
Zn9	Zn	-0.989804	-0.155330	-0.134723
O10	O	-0.983878	-0.320542	0.102404
C11	C	-0.836753	-0.163612	0.000075
C12	C	-0.743792	-0.161372	0.000066
C13	C	-0.994968	0.052179	0.000100
C14	C	-0.992745	0.178174	0.000099
C15	C	-1.142842	-0.147040	0.000104
C16	C	-1.235803	-0.149279	0.000106
C17	C	-0.406008	-0.153331	0.000092
C18	C	-0.452879	-0.029232	0.000555
C19	C	-0.549579	-0.031471	0.000085
C20	C	-0.573587	-0.157320	0.000080
C21	C	-0.532784	-0.218534	-0.116781
C22	C	-0.436134	-0.215416	-0.116870
C23	C	-0.435794	-0.217973	0.115849
C24	C	-0.532740	-0.217943	0.117385
C25	C	-0.668295	-0.159581	0.000069
C26	C	-0.311300	-0.151074	0.000095
C27	C	-0.984627	-0.362830	0.000080
C28	C	-0.986850	-0.488825	0.000073
N29	N	-0.989787	-0.155314	0.318919
C30	C	-0.988655	0.408852	0.000078
C31	C	-0.990927	0.280486	0.000089
N32	N	-0.989814	-0.155328	-0.318737
C33	C	-0.989800	-0.155328	0.569925
C34	C	-0.989790	-0.155324	0.430248
H35	H	-0.434127	0.020377	0.084361
H36	H	-0.577785	0.016646	0.083857
O37	O	-0.429175	0.029505	-0.098947
C38	C	-0.370369	-0.041049	-0.168956
H39	H	-0.378003	-0.134300	-0.149094
H40	H	-0.303979	-0.022884	-0.143369
C41	C	-0.376128	0.097843	-0.331217
C42	C	-0.385509	-0.016690	-0.306830
H43	H	-0.385463	0.112872	-0.416265
H44	H	-0.415744	0.145380	-0.284050
H45	H	-0.320803	0.112967	-0.309886
H46	H	-0.440837	-0.031807	-0.328147
H47	H	-0.345902	-0.064228	-0.354005
O48	O	-0.582505	0.026144	-0.100158
C49	C	-0.547780	-0.026233	-0.207918
H50	H	-0.524046	-0.118940	-0.187491
H51	H	-0.493213	0.020735	-0.240759
C52	C	-0.644770	0.092205	-0.333951
C53	C	-0.615626	-0.021663	-0.308864
H54	H	-0.686618	0.095027	-0.396222
H55	H	-0.668163	0.127495	-0.261351
H56	H	-0.599291	0.131332	-0.361311
H57	H	-0.661102	-0.060784	-0.281490
H58	H	-0.592241	-0.056960	-0.381461
O59	O	-0.413991	-0.162349	-0.221160
C60	C	-0.357964	-0.237756	-0.290330
H61	H	-0.366551	-0.329457	-0.264395
H62	H	-0.290557	-0.220541	-0.269955
C63	C	-0.365676	-0.106881	-0.460301
C64	C	-0.376227	-0.219510	-0.428454
H65	H	-0.376937	-0.095624	-0.545502
H66	H	-0.403419	-0.056075	-0.413698
H67	H	-0.309503	-0.092549	-0.443312
H68	H	-0.432401	-0.233837	-0.445428
H69	H	-0.338493	-0.270318	-0.475063
H70	H	-0.404299	-0.306528	-0.122178
H71	H	-0.559849	-0.173257	0.203838
O72	O	-0.550245	-0.328794	-0.121825
C73	C	-0.599706	-0.352306	-0.019449
H74	H	-0.633835	-0.269289	0.017114
H75	H	-0.557530	-0.394708	0.055689
C76	C	-0.622687	-0.534816	-0.103414
C77	C	-0.664610	-0.432853	-0.058514
H78	H	-0.662721	-0.584505	-0.127507
H79	H	-0.589361	-0.518978	-0.172385
H80	H	-0.587542	-0.570136	-0.040791
H81	H	-0.699746	-0.397528	-0.121141
H82	H	-0.697943	-0.448687	0.010446
O83	O	-0.551661	-0.327374	0.125972
C84	C	-0.595259	-0.341434	0.236740
H85	H	-0.626260	-0.255088	0.269310
H86	H	-0.549228	-0.379166	0.309761
C87	C	-0.625110	-0.528510	0.175096
C88	C	-0.663192	-0.422460	0.215094
H89	H	-0.667011	-0.578495	0.161747
H90	H	-0.595734	-0.519041	0.100472
H91	H	-0.586752	-0.559939	0.235954
H92	H	-0.701541	-0.391027	0.154230
H93	H	-0.692575	-0.431927	0.289708
H94	H	-0.415070	-0.177399	0.204427
O95	O	-0.566346	-0.167994	-0.220660
C96	C	-0.529003	-0.223979	-0.324758
H97	H	-0.502606	-0.314393	-0.298562
H98	H	-0.475939	-0.175304	-0.359826
C99	C	-0.627973	-0.117704	-0.458659
C100	C	-0.595558	-0.228756	-0.426487
H101	H	-0.669025	-0.120647	-0.521414
H102	H	-0.653131	-0.079982	-0.388527
H103	H	-0.583746	-0.077154	-0.487875
H104	H	-0.639783	-0.269299	-0.397258
H105	H	-0.570410	-0.266485	-0.496617
O106	O	-0.398499	-0.327177	0.116957
C107	C	-0.425641	-0.384329	0.221149
H108	H	-0.488647	-0.340155	0.253704
H109	H	-0.377210	-0.382438	0.297878
C110	C	-0.358216	-0.563242	0.147356
C111	C	-0.435605	-0.508992	0.187334
H112	H	-0.364358	-0.640142	0.126501
H113	H	-0.339926	-0.524738	0.077162
H114	H	-0.317865	-0.561655	0.211304
H115	H	-0.475951	-0.510568	0.123381
H116	H	-0.453901	-0.547500	0.257517
