data_functionalizedCrystal
_audit_creation_method	'MofGen! by Chris Wilmer'
_symmetry_space_group_name_H-M	'P1'
_symmetry_Int_Tables_number	1
_symmetry_cell_setting	triclinic
loop_
_symmetry_equiv_pos_as_xyz
  x,y,z
_cell_length_a	17.640280
_cell_length_b	19.077142
_cell_length_c	19.076919
_cell_angle_alpha	90.074357
_cell_angle_beta	98.508881
_cell_angle_gamma	103.907983
loop_
_atom_site_label
_atom_site_type_symbol
_atom_site_fract_x
_atom_site_fract_y
_atom_site_fract_z
Zn1	Zn	-0.382654	-1.129878	0.374529
Zn2	Zn	-0.509824	-1.158316	0.235113
Zn3	Zn	-0.372057	-1.015113	0.254144
Zn4	Zn	-0.509345	-1.036048	0.347945
O5	O	-0.443470	-1.084839	0.302933
O6	O	-0.404159	-1.232850	0.359196
O7	O	-0.487315	-1.142460	0.140036
O8	O	-0.262786	-1.009674	0.289204
O9	O	-0.497590	-1.253743	0.256768
O10	O	-0.270572	-1.093991	0.377650
O11	O	-0.386097	-1.037249	0.154018
O12	O	-0.385633	-0.918691	0.263426
O13	O	-0.496774	-1.045355	0.449073
O14	O	-0.486498	-0.934072	0.332341
O15	O	-0.403694	-1.114291	0.468604
O16	O	-0.620437	-1.162760	0.230991
O17	O	-0.620085	-1.072931	0.313887
C18	C	-0.648960	-1.123222	0.267505
C19	C	-0.736873	-1.139707	0.252374
C20	C	-0.434864	-0.900660	0.297064
C21	C	-0.431202	-0.821871	0.294566
C22	C	-0.451363	-1.078987	0.484853
C23	C	-0.454726	-1.076493	0.562377
C24	C	-1.025211	-0.959890	0.418144
C25	C	-1.107818	-0.975382	0.403904
C26	C	-1.108126	-1.068975	0.317675
C27	C	-1.025517	-1.053493	0.331911
C28	C	-0.984066	-0.998950	0.382145
C29	C	-0.984372	-1.092553	0.295912
C30	C	-0.901771	-1.077070	0.310144
C31	C	-0.860314	-1.022527	0.360374
C32	C	-0.901464	-0.983467	0.396376
C33	C	-1.025824	-1.147093	0.245674
C34	C	-0.984680	-1.186152	0.209676
C35	C	-0.902077	-1.170673	0.223911
C36	C	-0.860620	-1.116130	0.274141
C37	C	-0.860926	-1.209733	0.187908
C38	C	-0.778324	-1.194250	0.202140
C39	C	-0.778018	-1.100647	0.288373
C40	C	-0.237179	-1.046325	0.338515
C41	C	-0.149270	-1.029912	0.353678
C42	C	-0.482070	-0.792899	0.329190
C43	C	-0.478619	-0.718866	0.326848
C44	C	-0.424303	-0.673807	0.289879
C45	C	-0.373430	-0.702784	0.255254
C46	C	-0.376878	-0.776814	0.257601
C47	C	-0.408349	-0.451534	0.279028
C48	C	-0.404906	-0.377499	0.276682
C49	C	-0.510095	-0.393587	0.348278
C50	C	-0.513541	-0.467619	0.350617
C51	C	-0.462665	-0.496588	0.315996
N52	N	-0.420776	-0.598134	0.287483
N53	N	-0.466189	-0.572260	0.318396
C54	C	-0.452106	-0.269736	0.308817
C55	C	-0.455774	-0.348527	0.311306
C56	C	-0.435553	-1.090699	0.121732
C57	C	-0.431973	-1.093288	0.044251
C58	C	-0.407847	-1.111210	0.608967
C59	C	-0.411004	-1.108858	0.681809
C60	C	-0.461044	-1.071791	0.708058
C61	C	-0.507925	-1.037069	0.661462
C62	C	-0.504764	-1.039418	0.588622
C63	C	-0.475692	-1.060915	0.924815
C64	C	-0.478852	-1.058570	0.997661
C65	C	-0.381929	-1.130358	1.018003
C66	C	-0.378776	-1.132707	0.945160
C67	C	-0.425653	-1.097982	0.898571
N68	N	-0.464274	-1.069388	0.782514
N69	N	-0.422419	-1.100382	0.824117
H70	H	-0.744268	-1.056237	0.329284
H71	H	-0.894688	-1.254138	0.147003
C72	C	-1.029630	-1.245278	0.155023
C73	C	-1.005858	-1.228349	0.088969
C74	C	-1.047251	-1.282795	0.038604
H75	H	-1.018745	-1.290056	0.169032
H76	H	-1.084724	-1.248906	0.151647
H77	H	-0.950777	-1.224728	0.092346
H78	H	-1.016744	-1.183580	0.074938
H79	H	-1.102345	-1.286424	0.035228
H80	H	-1.036363	-1.327570	0.052620
H81	H	-1.031133	-1.271313	-0.006221
H82	H	-0.520042	-0.695281	0.355042
C83	C	-0.314581	-0.653852	0.215009
C84	C	-0.355361	-0.621147	0.161173
C85	C	-0.301177	-0.576075	0.124078
H86	H	-0.279964	-0.617631	0.246679
H87	H	-0.284788	-0.681691	0.194681
H88	H	-0.385142	-0.593309	0.181500
H89	H	-0.389976	-0.657350	0.129487
H90	H	-0.271383	-0.603914	0.103750
H91	H	-0.266562	-0.539858	0.155753
H92	H	-0.328839	-0.553884	0.087542
C93	C	-0.353073	-0.482850	0.241365
C94	C	-0.304785	-0.427545	0.208472
C95	C	-0.253859	-0.456369	0.173764
H96	H	-0.321090	-0.504434	0.274881
H97	H	-0.383272	-0.518329	0.206604
H98	H	-0.274589	-0.392078	0.243230
H99	H	-0.336747	-0.405956	0.174946
H100	H	-0.284058	-0.491849	0.139003
H101	H	-0.221881	-0.477953	0.207285
H102	H	-0.221094	-0.418851	0.151437
H103	H	-0.542929	-1.011138	0.550690
H104	H	-1.141886	-1.113383	0.276773
C105	C	-0.540920	-0.841882	0.369396
C106	C	-0.500138	-0.874615	0.423207
C107	C	-0.554324	-0.919747	0.460256
H108	H	-0.570744	-0.814104	0.389748
H109	H	-0.575511	-0.878083	0.337671
H110	H	-0.465562	-0.838419	0.454926
H111	H	-0.470318	-0.902406	0.402874
H112	H	-0.588915	-0.955949	0.428531
H113	H	-0.584145	-0.891964	0.480603
H114	H	-0.526662	-0.941967	0.496766
C115	C	-0.565450	-0.362198	0.385768
C116	C	-0.643853	-0.395295	0.357546
C117	C	-0.694867	-0.366393	0.392065
H118	H	-0.556655	-0.370678	0.435018
H119	H	-0.555673	-0.311658	0.379066
H120	H	-0.653626	-0.445824	0.364254
H121	H	-0.652673	-0.386818	0.308300
H122	H	-0.685090	-0.315853	0.385362
H123	H	-0.686064	-0.374875	0.441313
H124	H	-0.748069	-0.388841	0.372916
C125	C	-0.359995	-1.146410	0.732438
C126	C	-0.309221	-1.095453	0.781699
C127	C	-0.262205	-1.130016	0.828341
H128	H	-0.392828	-1.182026	0.756701
H129	H	-0.329698	-1.168799	0.706396
H130	H	-0.339515	-1.073076	0.807738
H131	H	-0.276372	-1.059836	0.757456
H132	H	-0.231908	-1.152404	0.802300
H133	H	-0.295044	-1.165630	0.852599
H134	H	-0.227744	-1.095446	0.861766
C135	C	-0.733792	-1.236759	0.163006
C136	C	-0.787773	-1.287852	0.115981
C137	C	-0.746778	-1.327028	0.079922
H138	H	-0.699016	-1.204689	0.137220
H139	H	-0.704150	-1.260759	0.196235
H140	H	-0.817401	-1.263854	0.082757
H141	H	-0.822550	-1.319938	0.141749
H142	H	-0.717137	-1.351027	0.113151
H143	H	-0.712003	-1.294952	0.054140
H144	H	-0.783398	-1.361703	0.048016
H145	H	-0.557772	-0.504302	0.380720
C146	C	-0.331061	-1.167975	1.068704
C147	C	-0.344521	-1.157971	1.138116
C148	C	-0.297663	-1.192604	1.184842
H149	H	-0.344296	-1.218167	1.056386
H150	H	-0.276903	-1.148050	1.065643
H151	H	-0.398667	-1.177899	1.141174
H152	H	-0.331282	-1.107787	1.150456
H153	H	-0.243505	-1.172679	1.181781
H154	H	-0.310902	-1.242794	1.172517
H155	H	-0.306784	-1.185816	1.231943
H156	H	-0.360667	-0.340812	0.246583
H157	H	-0.335452	-0.800401	0.229411
C158	C	-0.353436	-1.151462	0.580613
C159	C	-0.313041	-1.181345	0.637011
C160	C	-0.262900	-1.218420	0.610923
H161	H	-0.383814	-1.188960	0.547980
H162	H	-0.316434	-1.118834	0.557299
H163	H	-0.350039	-1.213970	0.660313
H164	H	-0.282648	-1.143862	0.669649
H165	H	-0.225898	-1.185792	0.587609
H166	H	-0.293284	-1.255915	0.578290
H167	H	-0.235481	-1.238694	0.649185
H168	H	-0.513876	-1.032651	0.886889
C169	C	-0.562360	-0.996959	0.689984
C170	C	-0.616758	-1.045217	0.724321
C171	C	-0.666924	-1.008297	0.750594
H172	H	-0.531989	-0.959510	0.722673
H173	H	-0.589874	-0.976638	0.651817
H174	H	-0.589246	-1.065528	0.762483
H175	H	-0.647147	-1.082667	0.691646
H176	H	-0.694438	-0.987975	0.712427
H177	H	-0.636546	-0.970849	0.783280
H178	H	-0.703843	-1.041035	0.773889
C179	C	-0.533205	-1.018255	1.026028
C180	C	-0.573567	-0.988330	0.969640
C181	C	-0.623633	-0.951183	0.995746
H182	H	-0.570233	-1.050825	1.049350
H183	H	-0.502753	-0.980773	1.058660
H184	H	-0.604017	-1.025807	0.937021
H185	H	-0.536558	-0.955749	0.946313
H186	H	-0.593181	-0.913701	1.028378
H187	H	-0.660657	-0.983758	1.019068
H188	H	-0.651020	-0.930869	0.957492
H189	H	-0.338030	-1.162893	0.923793
H190	H	-0.793054	-1.009917	0.371955
H191	H	-1.093084	-1.159699	0.234091
C192	C	-0.856593	-0.924206	0.450928
C193	C	-0.910303	-0.893304	0.479407
C194	C	-0.868996	-0.838712	0.529655
H195	H	-0.826924	-0.944204	0.487813
H196	H	-0.821816	-0.888128	0.428804
H197	H	-0.945066	-0.929377	0.501531
H198	H	-0.939974	-0.873292	0.442539
H199	H	-0.834219	-0.802633	0.507531
H200	H	-0.839328	-0.858715	0.566535
H201	H	-0.905431	-0.817734	0.548979
H202	H	-0.991460	-0.915480	0.459055
H203	H	-1.141316	-0.943579	0.433231
