data_functionalizedCrystal
_audit_creation_method	'MofGen! by Chris Wilmer'
_symmetry_space_group_name_H-M	'P1'
_symmetry_Int_Tables_number	1
_symmetry_cell_setting	triclinic
loop_
_symmetry_equiv_pos_as_xyz
  x,y,z
_cell_length_a	15.995350
_cell_length_b	12.837942
_cell_length_c	11.892095
_cell_angle_alpha	94.302569
_cell_angle_beta	86.104556
_cell_angle_gamma	89.160658
loop_
_atom_site_label
_atom_site_type_symbol
_atom_site_fract_x
_atom_site_fract_y
_atom_site_fract_z
O1	O	-1.126466	-0.126998	0.093906
O2	O	-0.884009	-0.143497	0.093929
O3	O	-0.999861	0.015655	0.093911
O4	O	-1.010614	-0.286150	0.093924
O5	O	-0.990200	0.002406	-0.094095
O6	O	-0.874348	-0.156746	-0.094077
O7	O	-1.116805	-0.140247	-0.094100
Zn8	Zn	-0.994042	-0.150600	-0.123939
Zn9	Zn	-1.006771	-0.133144	0.123767
O10	O	-1.000953	-0.299399	-0.094082
C11	C	-0.847929	-0.149439	-0.000071
C12	C	-0.754816	-0.147393	-0.000062
C13	C	-0.991398	0.047651	-0.000091
C14	C	-0.980565	0.162728	-0.000088
C15	C	-1.152885	-0.134305	-0.000098
C16	C	-1.245998	-0.136350	-0.000099
C17	C	-0.416481	-0.140051	-0.000086
C18	C	-0.454850	-0.026735	-0.000511
C19	C	-0.551726	-0.028750	-0.000079
C20	C	-0.584333	-0.143693	-0.000075
C21	C	-0.553223	-0.192033	0.107283
C22	C	-0.456365	-0.189180	0.107365
C23	C	-0.445226	-0.206588	-0.106433
C24	C	-0.542097	-0.206661	-0.107844
C25	C	-0.679196	-0.145757	-0.000065
C26	C	-0.321619	-0.137989	-0.000089
C27	C	-1.009416	-0.331395	-0.000078
C28	C	-1.020250	-0.446472	-0.000073
N29	N	-0.985361	-0.162513	-0.292991
C30	C	-1.110803	0.403687	-0.000077
C31	C	-1.100628	0.511813	-0.000074
C32	C	-0.950041	0.487109	-0.000072
C33	C	-0.960216	0.378983	-0.000074
C34	C	-1.040599	0.337276	-0.000079
C35	C	-1.050773	0.229148	-0.000090
C36	C	-0.900187	0.204446	-0.000079
C37	C	-0.890013	0.312572	-0.000076
C38	C	-1.075861	-0.038267	-0.529653
C39	C	-1.069800	-0.046602	-0.647994
C40	C	-0.967173	-0.187512	-0.648016
C41	C	-0.973235	-0.179177	-0.529675
C42	C	-1.027581	-0.104553	-0.470498
C43	C	-1.033647	-0.096224	-0.352155
C44	C	-0.931016	-0.237129	-0.352179
C45	C	-0.924955	-0.245463	-0.470520
N46	N	-1.015459	-0.121222	0.292820
H47	H	-0.428757	0.013147	-0.077502
H48	H	-0.891706	-0.291106	-0.304002
H49	H	-1.176254	0.369729	-0.000092
H50	H	-0.843022	0.150361	-0.000090
H51	H	-0.562076	-0.171447	-0.187267
H52	H	-0.580015	0.020925	0.077011
C53	C	-0.500592	0.077432	0.169255
C54	C	-0.428852	0.041439	0.102840
H55	H	-0.484539	0.119521	0.233056
H56	H	-0.531156	0.019504	0.193943
H57	H	-0.534729	0.117696	0.125809
H58	H	-0.394719	0.001169	0.146283
H59	H	-0.398275	0.099376	0.078152
H60	H	-1.120118	0.022488	-0.481470
H61	H	-0.574291	-0.276197	0.111278
H62	H	-0.582605	-0.147572	0.187179
C63	C	-0.848204	-0.219280	-0.781137
C64	C	-0.907437	-0.269524	-0.713087
H65	H	-0.811330	-0.269912	-0.821316
H66	H	-0.817009	-0.172875	-0.734970
H67	H	-0.876106	-0.180990	-0.833290
H68	H	-0.879535	-0.307808	-0.660929
H69	H	-0.938635	-0.315947	-0.759259
H70	H	-1.157796	0.565883	-0.000069
C71	C	-0.867590	0.641897	-0.000062
C72	C	-0.861689	0.532967	-0.000067
H73	H	-0.813043	0.670204	-0.000067
H74	H	-0.900220	0.669295	0.065498
H75	H	-0.893496	0.660065	-0.065627
H76	H	-0.835788	0.514798	0.065502
H77	H	-0.829046	0.505559	-0.065634
C78	C	-0.805982	-0.277260	-0.603636
C79	C	-0.865222	-0.327486	-0.535580
H80	H	-0.769110	-0.327902	-0.643805
H81	H	-0.774784	-0.230854	-0.557474
H82	H	-0.833878	-0.238974	-0.655798
H83	H	-0.837326	-0.365766	-0.483412
H84	H	-0.896423	-0.373911	-0.581746
C85	C	-0.763490	0.331618	0.096576
C86	C	-0.801660	0.358426	-0.000069
H87	H	-0.708946	0.359932	0.096580
H88	H	-0.759501	0.257726	0.096562
H89	H	-0.796133	0.359032	0.162132
H90	H	-0.769020	0.331005	-0.065625
H91	H	-0.805645	0.432333	-0.000065
H92	H	-0.572694	0.009772	-0.077038
C93	C	-1.187213	0.223714	0.096569
C94	C	-1.139128	0.183297	-0.000085
H95	H	-1.241758	0.195403	0.096577
H96	H	-1.191199	0.297605	0.096562
H97	H	-1.161297	0.205527	0.162119
H98	H	-1.165041	0.201490	-0.065635
H99	H	-1.135145	0.109389	-0.000088
C100	C	-1.070329	0.085772	-0.315775
C101	C	-1.093375	-0.014174	-0.287132
H102	H	-1.107199	0.136435	-0.275637
H103	H	-1.073619	0.090262	-0.394717
H104	H	-1.014541	0.098408	-0.296376
H105	H	-1.149161	-0.026813	-0.306538
H106	H	-1.090093	-0.018667	-0.208172
C107	C	-0.505922	-0.091868	0.279908
C108	C	-0.432818	-0.126500	0.215692
H109	H	-0.491386	-0.053165	0.346781
H110	H	-0.537962	-0.150355	0.299522
H111	H	-0.537989	-0.048581	0.236974
H112	H	-0.400754	-0.169794	0.258623
H113	H	-0.400764	-0.068004	0.196080
C114	C	-0.488875	-0.370340	0.117843
C115	C	-0.422126	-0.301047	0.113973
H116	H	-0.467739	-0.439397	0.121938
H117	H	-0.518578	-0.367160	0.051647
H118	H	-0.525569	-0.351462	0.182583
H119	H	-0.385435	-0.319920	0.049229
H120	H	-0.392410	-0.304230	0.180176
C121	C	-0.358711	-0.077685	-0.189851
C122	C	-0.408012	-0.164178	-0.216293
H123	H	-0.335782	-0.051455	-0.257672
H124	H	-0.314562	-0.098119	-0.146174
H125	H	-0.392362	-0.024814	-0.147788
H126	H	-0.374360	-0.217052	-0.258349
H127	H	-0.452167	-0.143747	-0.259989
C128	C	-0.478437	-0.388226	-0.103948
C129	C	-0.411312	-0.319478	-0.107427
H130	H	-0.457499	-0.457916	-0.104551
H131	H	-0.509964	-0.381576	-0.167983
H132	H	-0.513364	-0.371819	-0.036937
H133	H	-0.376388	-0.335881	-0.174442
H134	H	-0.379771	-0.326133	-0.043386
C135	C	-1.171850	0.093516	-0.636080
C136	C	-1.122872	0.026261	-0.713019
H137	H	-1.204617	0.138497	-0.676227
H138	H	-1.136384	0.134074	-0.589934
H139	H	-1.207776	0.053587	-0.589914
H140	H	-1.086941	0.066190	-0.759180
H141	H	-1.158341	-0.014300	-0.759185
H142	H	-0.563817	-0.290938	-0.114326
