data_functionalizedCrystal
_audit_creation_method	'MofGen! by Chris Wilmer'
_symmetry_space_group_name_H-M	'P1'
_symmetry_Int_Tables_number	1
_symmetry_cell_setting	triclinic
loop_
_symmetry_equiv_pos_as_xyz
  x,y,z
_cell_length_a	27.732064
_cell_length_b	27.732048
_cell_length_c	9.798715
_cell_angle_alpha	89.991917
_cell_angle_beta	90.003961
_cell_angle_gamma	82.646040
loop_
_atom_site_label
_atom_site_type_symbol
_atom_site_fract_x
_atom_site_fract_y
_atom_site_fract_z
O1	O	0.640921	0.057554	-0.113262
O2	O	1.140921	0.557554	0.386738
O3	O	0.500129	0.066291	-0.113320
O4	O	1.000129	0.566291	0.386680
O5	O	0.574898	-0.008474	-0.113263
O6	O	1.074898	0.491526	0.386737
O7	O	0.566153	0.132319	-0.113319
O8	O	1.066153	0.632319	0.386681
O9	O	0.574892	-0.008474	0.113719
O10	O	1.074892	0.491526	0.613719
O11	O	0.500124	0.066291	0.113662
O12	O	1.000124	0.566291	0.613662
O13	O	0.640916	0.057554	0.113720
O14	O	1.140916	0.557554	0.613720
Zn15	Zn	0.570519	0.061923	0.149729
Zn16	Zn	1.070519	0.561923	0.649729
Zn17	Zn	0.570526	0.061923	-0.149329
Zn18	Zn	1.070526	0.561923	0.350671
O19	O	0.566147	0.132319	0.113663
O20	O	1.066147	0.632319	0.613663
C21	C	0.482120	0.066106	0.000164
C22	C	0.982120	0.566106	0.500164
C23	C	0.428465	0.065551	0.000143
C24	C	0.928465	0.565551	0.500143
C25	C	0.574712	-0.026481	0.000231
C26	C	1.074712	0.473519	0.500231
C27	C	0.574159	-0.080136	0.000242
C28	C	1.074159	0.419864	0.500242
C29	C	0.051392	0.017583	0.000239
C30	C	0.551392	0.517583	0.500239
C31	C	0.253053	0.019630	0.000203
C32	C	0.753053	0.519630	0.500203
O33	O	0.284305	-0.017591	0.000269
O34	O	0.784305	0.482409	0.500269
N35	N	0.272180	0.063964	0.000179
N36	N	0.772180	0.563964	0.500179
C37	C	0.240889	0.107790	0.000174
C38	C	0.740889	0.607790	0.500174
O39	O	0.261785	0.145546	0.000167
O40	O	0.761785	0.645546	0.500167
C41	C	0.039230	0.105743	0.000220
C42	C	0.539230	0.605743	0.500220
C43	C	0.020105	0.061406	0.000230
C44	C	0.520105	0.561406	0.500230
C45	C	0.032267	-0.026750	0.000251
C46	C	0.532267	0.473250	0.500251
C47	C	-0.018145	-0.027261	0.000252
C48	C	0.481855	0.472739	0.500252
C49	C	-0.049432	0.016561	0.000243
C50	C	0.450568	0.516561	0.500243
C51	C	-0.030307	0.060895	0.000231
C52	C	0.469693	0.560895	0.500231
C53	C	0.007940	0.149568	0.000224
C54	C	0.507940	0.649568	0.500224
C55	C	-0.042478	0.149053	0.000239
C56	C	0.457522	0.649053	0.500239
C57	C	-0.061602	0.104716	0.000249
C58	C	0.438398	0.604716	0.500249
C59	C	-0.112006	0.104206	0.000223
C60	C	0.387994	0.604206	0.500223
N61	N	-0.131134	0.059872	0.000247
N62	N	0.368866	0.559872	0.500247
C63	C	-0.099846	0.016049	0.000257
C64	C	0.400154	0.516049	0.500257
C65	C	0.346763	0.108861	0.000147
C66	C	0.846763	0.608861	0.500147
C67	C	0.397178	0.109373	0.000133
C68	C	0.897178	0.609373	0.500133
C69	C	0.409338	0.021213	0.000165
C70	C	0.909338	0.521213	0.500165
C71	C	0.358923	0.020701	0.000169
C72	C	0.858923	0.520701	0.500169
C73	C	0.327636	0.064527	0.000171
C74	C	0.827636	0.564527	0.500171
C75	C	-0.205716	0.014979	0.000259
C76	C	0.294284	0.514979	0.500259
C77	C	-0.256133	0.014472	0.000255
C78	C	0.243867	0.514472	0.500255
C79	C	-0.268289	0.102632	0.000230
C80	C	0.231711	0.602632	0.500230
C81	C	-0.217876	0.103140	0.000227
C82	C	0.282124	0.603140	0.500227
C83	C	-0.186590	0.059309	0.000246
C84	C	0.313410	0.559309	0.500246
O85	O	-0.143287	0.141407	0.000173
O86	O	0.356713	0.641407	0.500173
O87	O	-0.120752	-0.021701	0.000294
O88	O	0.379248	0.478299	0.500294
C89	C	0.101805	0.018094	0.000238
C90	C	0.601805	0.518094	0.500238
C91	C	0.120930	0.062428	0.000226
C92	C	0.620930	0.562428	0.500226
C93	C	0.089642	0.106250	0.000217
C94	C	0.589642	0.606250	0.500217
C95	C	0.171344	0.062940	0.000212
C96	C	0.671344	0.562940	0.500212
C97	C	0.202631	0.019117	0.000222
C98	C	0.702631	0.519117	0.500222
C99	C	0.183504	-0.025217	0.000246
C100	C	0.683504	0.474783	0.500246
C101	C	0.133092	-0.025728	0.000247
C102	C	0.633092	0.474272	0.500247
C103	C	0.108770	0.150585	0.000193
C104	C	0.608770	0.650585	0.500193
C105	C	0.159183	0.151092	0.000190
C106	C	0.659183	0.651092	0.500190
C107	C	0.190470	0.107270	0.000200
C108	C	0.690470	0.607270	0.500200
C109	C	0.614862	-0.418948	0.000189
C110	C	1.114862	0.081052	0.500189
C111	C	0.612811	-0.620608	0.000169
C112	C	1.112811	-0.120608	0.500169
O113	O	0.650032	-0.651862	0.000125
O114	O	1.150032	-0.151862	0.500125
N115	N	0.568476	-0.639735	0.000152
N116	N	1.068476	-0.139735	0.500152
C117	C	0.524651	-0.608442	0.000131
C118	C	1.024651	-0.108442	0.500131
O119	O	0.486895	-0.629338	0.000102
O120	O	0.986895	-0.129338	0.500102
C121	C	0.526703	-0.406784	0.000141
C122	C	1.026703	0.093216	0.500141
C123	C	0.571040	-0.387660	0.000172
C124	C	1.071040	0.112340	0.500172
C125	C	0.659196	-0.399824	0.000219
C126	C	1.159196	0.100176	0.500219
C127	C	0.659709	-0.349412	0.000231
C128	C	1.159709	0.150588	0.500231
C129	C	0.615887	-0.318124	0.000214
C130	C	1.115887	0.181876	0.500214
C131	C	0.571553	-0.337248	0.000185
C132	C	1.071553	0.162752	0.500185
C133	C	0.482878	-0.375493	0.000110
C134	C	0.982878	0.124507	0.500110
C135	C	0.483395	-0.325075	0.000110
C136	C	0.983395	0.174925	0.500110
C137	C	0.527733	-0.305952	0.000140
C138	C	1.027733	0.194048	0.500140
C139	C	0.528243	-0.255548	0.000180
C140	C	1.028243	0.244452	0.500180
N141	N	0.572578	-0.236422	0.000197
N142	N	1.072578	0.263578	0.500197
C143	C	0.616400	-0.267710	0.000214
C144	C	1.116400	0.232290	0.500214
C145	C	0.523577	-0.714317	0.000129
C146	C	1.023577	-0.214317	0.500129
C147	C	0.523064	-0.764731	0.000129
C148	C	1.023064	-0.264731	0.500129
C149	C	0.611225	-0.776893	0.000164
C150	C	1.111225	-0.276893	0.500164
C151	C	0.611737	-0.726478	0.000174
C152	C	1.111737	-0.226478	0.500174
C153	C	0.567912	-0.695190	0.000146
C154	C	1.067912	-0.195190	0.500146
C155	C	0.617472	-0.161841	0.000241
C156	C	1.117472	0.338159	0.500241
C157	C	0.617981	-0.111424	0.000259
C158	C	1.117981	0.388576	0.500259
C159	C	0.529821	-0.099266	0.000217
C160	C	1.029821	0.400734	0.500217
C161	C	0.529312	-0.149679	0.000206
C162	C	1.029312	0.350321	0.500206
C163	C	0.573142	-0.180965	0.000213
C164	C	1.073142	0.319035	0.500213
O165	O	0.491043	-0.224267	0.000209
O166	O	0.991043	0.275733	0.500209
O167	O	0.654151	-0.246805	0.000213
O168	O	1.154151	0.253195	0.500213
C169	C	0.614350	-0.469360	0.000177
C170	C	1.114350	0.030640	0.500177
C171	C	0.570016	-0.488484	0.000147
C172	C	1.070016	0.011516	0.500147
C173	C	0.526194	-0.457196	0.000130
C174	C	1.026194	0.042804	0.500130
C175	C	0.569503	-0.538899	0.000147
C176	C	1.069503	-0.038899	0.500147
C177	C	0.613325	-0.570187	0.000164
C178	C	1.113325	-0.070187	0.500164
C179	C	0.657660	-0.551060	0.000181
C180	C	1.157660	-0.051060	0.500181
C181	C	0.658172	-0.500648	0.000194
C182	C	1.158172	-0.000648	0.500194
C183	C	0.481859	-0.476323	0.000113
C184	C	0.981859	0.023677	0.500113
C185	C	0.481351	-0.526735	0.000103
C186	C	0.981351	-0.026735	0.500103
C187	C	0.525172	-0.558023	0.000119
C188	C	1.025172	-0.058023	0.500119
C189	C	0.658925	0.057739	0.000233
C190	C	1.158925	0.557739	0.500233
C191	C	0.712580	0.058295	0.000245
C192	C	1.212580	0.558295	0.500245
C193	C	0.566333	0.150326	0.000165
C194	C	1.066333	0.650326	0.500165
C195	C	0.566886	0.203981	0.000145
C196	C	1.066886	0.703981	0.500145
N197	N	0.570517	0.061922	0.353829
N198	N	1.070517	0.561922	0.853829
N199	N	0.570531	0.061919	-0.353429
N200	N	1.070531	0.561919	0.146571
C201	C	0.601913	0.030394	0.421630
C202	C	1.101913	0.530394	0.921630
C203	C	0.601921	0.030392	0.578793
C204	C	1.101921	0.530392	1.078793
H205	H	-0.271701	-0.021634	0.000259
H206	H	0.228299	0.478366	0.500259
O207	O	0.700273	-0.581390	0.000254
O208	O	1.200273	-0.081390	0.500254
C209	C	0.739520	-0.553706	0.000237
C210	C	1.239520	-0.053706	0.500237
H211	H	0.726969	-0.515988	0.043217
H212	H	1.226969	-0.015988	0.543217
H213	H	0.770198	-0.572537	0.066137
H214	H	1.270198	-0.072537	0.566137
H215	H	0.753128	-0.550208	-0.108654
H216	H	1.253128	-0.050208	0.391346
O217	O	0.213950	-0.067755	0.000074
O218	O	0.713950	0.432245	0.500074
C219	C	0.243464	-0.070098	-0.117499
C220	C	0.743464	0.429902	0.382501
H221	H	0.245728	-0.031749	-0.156710
H222	H	0.745728	0.468251	0.343290
H223	H	0.281492	-0.088388	-0.091053
H224	H	0.781492	0.411612	0.408947
H225	H	0.227037	-0.092052	-0.199805
H226	H	0.727037	0.407948	0.300195
H227	H	-0.180248	-0.020712	0.000274
H228	H	0.319752	0.479288	0.500274
H229	H	-0.033711	-0.063365	0.000266
H230	H	0.466289	0.436635	0.500266
O231	O	0.538509	0.094191	0.577094
O232	O	1.038509	0.594191	1.077094
C233	C	0.546125	0.141962	0.611921
C234	C	1.046125	0.641962	1.111921
H235	H	0.584825	0.141839	0.651284
H236	H	1.084825	0.641839	1.151284
H237	H	0.540477	0.166237	0.517884
H238	H	1.040477	0.666237	1.017884
H239	H	0.519234	0.156440	0.694756
H240	H	1.019234	0.656440	1.194756
H241	H	-0.293772	0.138311	0.000216
H242	H	0.206228	0.638311	0.500216
O243	O	0.660016	-0.192277	0.000437
O244	O	1.160016	0.307723	0.500437
C245	C	0.662363	-0.221802	0.118007
C246	C	1.162363	0.278198	0.618007
H247	H	0.624014	-0.224083	0.157174
H248	H	1.124014	0.275917	0.657174
H249	H	0.680666	-0.259823	0.091575
H250	H	1.180666	0.240177	0.591575
H251	H	0.684305	-0.205374	0.200341
H252	H	1.184305	0.294626	0.700341
H253	H	0.646906	-0.802377	0.000179
H254	H	1.146906	-0.302377	0.500179
H255	H	-0.202304	0.139243	0.000218
H256	H	0.297696	0.639243	0.500218
H257	H	0.543642	0.088911	0.412133
H258	H	1.043642	0.588911	0.912133
H259	H	0.321293	0.144551	0.000147
H260	H	0.821293	0.644551	0.500147
O261	O	0.062587	-0.069367	0.000195
O262	O	0.562587	0.430633	0.500195
C263	C	0.034885	-0.108601	0.000244
C264	C	0.534885	0.391399	0.500244
H265	H	-0.002837	-0.096033	-0.042714
H266	H	0.497163	0.403967	0.457286
H267	H	0.053693	-0.139282	-0.065659
H268	H	0.553693	0.360718	0.434341
H269	H	0.031399	-0.122212	0.109142
H270	H	0.531399	0.377788	0.609142
H271	H	0.117526	-0.061832	0.000256
H272	H	0.617526	0.438168	0.500256
O273	O	0.634034	-0.001831	0.648129
O274	O	1.134034	0.498169	1.148129
C275	C	0.663208	-0.031154	0.554583
C276	C	1.163208	0.468846	1.054583
H277	H	0.663693	-0.011381	0.452684
H278	H	1.163693	0.488619	0.952684
H279	H	0.701845	-0.038887	0.595972
H280	H	1.201845	0.461113	1.095972
H281	H	0.647679	-0.066904	0.539451
H282	H	1.147679	0.433096	1.039451
O283	O	0.487241	-0.068889	0.000434
O284	O	0.987241	0.431111	0.500434
C285	C	0.460283	-0.077517	0.117948
C286	C	0.960283	0.422483	0.617948
H287	H	0.485925	-0.094940	0.200138
H288	H	0.985925	0.405060	0.700138
H289	H	0.440626	-0.041603	0.157388
H290	H	0.940626	0.458397	0.657388
H291	H	0.432500	-0.102984	0.091346
H292	H	0.932500	0.397016	0.591346
H293	H	0.343355	-0.015402	0.000178
H294	H	0.843355	0.484598	0.500178
H295	H	0.446774	-0.391054	0.000077
H296	H	0.946774	0.108946	0.500077
H297	H	0.447706	-0.299603	0.000085
H298	H	0.947706	0.200397	0.500085
H299	H	0.174748	0.187200	0.000172
H300	H	0.674748	0.687200	0.500172
H301	H	0.434821	-0.014469	0.000168
H302	H	0.934821	0.485531	0.500168
H303	H	0.412744	0.145477	0.000106
H304	H	0.912744	0.645477	0.500106
O305	O	0.479952	-0.783224	0.000053
O306	O	0.979952	-0.283224	0.500053
C307	C	0.441387	-0.744792	0.000069
C308	C	0.941387	-0.244792	0.500069
H309	H	0.454681	-0.710637	-0.042893
H310	H	0.954681	-0.210637	0.457107
H311	H	0.410411	-0.755096	-0.065847
H312	H	0.910411	-0.255096	0.434153
H313	H	0.427885	-0.737564	0.108958
H314	H	0.927885	-0.237564	0.608958
H315	H	0.493209	-0.165249	0.000219
H316	H	0.993209	0.334751	0.500219
H317	H	0.694276	-0.485083	0.000218
H318	H	1.194276	0.014917	0.500218
O319	O	0.026428	0.192681	0.000286
O320	O	0.526428	0.692681	0.500286
C321	C	-0.012006	0.231243	0.000257
C322	C	0.487994	0.731243	0.500257
H323	H	-0.046155	0.217945	0.043228
H324	H	0.453845	0.717945	0.543228
H325	H	-0.001698	0.262218	0.066161
H326	H	0.498302	0.762218	0.566161
H327	H	-0.019244	0.244749	-0.108636
H328	H	0.480756	0.744749	0.391364
H329	H	-0.067950	0.184742	0.000247
H330	H	0.432050	0.684742	0.500247
H331	H	0.446173	-0.450852	0.000097
H332	H	0.946173	0.049148	0.500097
O333	O	0.438235	-0.545227	0.000014
O334	O	0.938235	-0.045227	0.500014
C335	C	0.399670	-0.506795	0.000033
C336	C	0.899670	-0.006795	0.500033
H337	H	0.412965	-0.472639	-0.042915
H338	H	0.912965	0.027361	0.457085
H339	H	0.368695	-0.517097	-0.065895
H340	H	0.868695	-0.017097	0.434105
H341	H	0.386165	-0.499572	0.108920
H342	H	0.886165	0.000428	0.608920
H343	H	0.083300	0.186271	0.000187
H344	H	0.583300	0.686271	0.500187
O345	O	0.481035	-0.683877	0.000291
O346	O	0.981035	-0.183877	0.500291
C347	C	0.478682	-0.654366	0.117864
C348	C	0.978682	-0.154366	0.617864
H349	H	0.517029	-0.652090	0.157069
H350	H	1.017029	-0.152090	0.657069
H351	H	0.460382	-0.616340	0.091419
H352	H	0.960382	-0.116340	0.591419
H353	H	0.456734	-0.670801	0.200174
H354	H	0.956734	-0.170801	0.700174
O355	O	0.654818	-0.707926	-0.000051
O356	O	1.154818	-0.207926	0.499949
C357	C	0.681514	-0.723955	-0.117578
C358	C	1.181514	-0.223955	0.382422
H359	H	0.655582	-0.734250	-0.199751
H360	H	1.155582	-0.234250	0.300249
H361	H	0.701850	-0.693561	-0.157036
H362	H	1.201850	-0.193561	0.342964
H363	H	0.708698	-0.757014	-0.090985
H364	H	1.208698	-0.257014	0.409015
O365	O	0.633918	-0.001808	0.351905
O366	O	1.133918	0.498192	0.851905
C367	C	0.608149	-0.031353	0.269252
C368	C	1.108149	0.468647	0.769252
H369	H	0.570204	-0.011753	0.248016
H370	H	1.070204	0.488247	0.748016
H371	H	0.628328	-0.039126	0.168702
H372	H	1.128328	0.460874	0.668702
H373	H	0.605077	-0.067070	0.324200
H374	H	1.105077	0.432930	0.824200
H375	H	0.654087	-0.095857	0.000288
H376	H	1.154087	0.404143	0.500288
O377	O	0.702821	-0.330920	0.000189
O378	O	1.202821	0.169080	0.500189
C379	C	0.741384	-0.369354	0.000234
C380	C	1.241384	0.130646	0.500234
H381	H	0.728090	-0.403503	-0.042744
H382	H	1.228090	0.096497	0.457256
H383	H	0.772364	-0.359044	-0.065655
H384	H	1.272364	0.140956	0.434345
H385	H	0.754881	-0.376594	0.109133
H386	H	1.254881	0.123406	0.609133
H387	H	0.694884	-0.425295	0.000227
H388	H	1.194884	0.074705	0.500227
