data_functionalizedCrystal
_audit_creation_method	'MofGen! by Chris Wilmer'
_symmetry_space_group_name_H-M	'P1'
_symmetry_Int_Tables_number	1
_symmetry_cell_setting	triclinic
loop_
_symmetry_equiv_pos_as_xyz
  x,y,z
_cell_length_a	15.538191
_cell_length_b	23.532357
_cell_length_c	14.750779
_cell_angle_alpha	77.435721
_cell_angle_beta	97.572172
_cell_angle_gamma	65.050193
loop_
_atom_site_label
_atom_site_type_symbol
_atom_site_fract_x
_atom_site_fract_y
_atom_site_fract_z
O1	O	1.231097	-0.168728	-0.079809
O2	O	1.731097	0.331272	0.420191
O3	O	0.956199	-0.102835	-0.079819
O4	O	1.456199	0.397165	0.420181
O5	O	1.101967	-0.220410	-0.079794
O6	O	1.601967	0.279590	0.420206
O7	O	1.085329	-0.051153	-0.079834
O8	O	1.585329	0.448847	0.420166
O9	O	1.143174	-0.253644	0.079863
O10	O	1.643174	0.246356	0.579863
O11	O	0.997406	-0.136069	0.079838
O12	O	1.497406	0.363931	0.579838
O13	O	1.272303	-0.201962	0.079849
O14	O	1.772303	0.298038	0.579849
Zn15	Zn	1.141397	-0.174292	0.105192
Zn16	Zn	1.641397	0.325708	0.605192
Zn17	Zn	1.087105	-0.130505	-0.105163
Zn18	Zn	1.587105	0.369495	0.394837
O19	O	1.126535	-0.084388	0.079823
O20	O	1.626535	0.415612	0.579823
C21	C	0.941640	-0.112558	0.000008
C22	C	1.441640	0.387442	0.500008
C23	C	0.836867	-0.092022	0.000005
C24	C	1.336867	0.407978	0.500005
C25	C	0.551055	-0.296037	0.000039
C26	C	1.051055	0.203963	0.500039
C27	C	0.452601	-0.276726	0.000033
C28	C	0.952601	0.223274	0.500033
C29	C	0.429103	-0.168107	0.000008
C30	C	0.929103	0.331893	0.500008
C31	C	0.527558	-0.187410	0.000018
C32	C	1.027558	0.312590	0.500018
C33	C	0.588526	-0.251375	0.000032
C34	C	1.088526	0.248625	0.500032
C35	C	0.565029	-0.142748	0.000011
C36	C	1.065029	0.357252	0.500011
C37	C	0.663474	-0.162049	0.000016
C38	C	1.163474	0.337951	0.500016
C39	C	0.724448	-0.226011	0.000028
C40	C	1.224448	0.273989	0.500028
C41	C	0.686971	-0.270676	0.000037
C42	C	1.186971	0.229324	0.500037
C43	C	0.504058	-0.078781	-0.000010
C44	C	1.004058	0.421219	0.499990
C45	C	0.541529	-0.034120	-0.000016
C46	C	1.041529	0.465880	0.499984
C47	C	0.639978	-0.053421	-0.000004
C48	C	1.139978	0.446579	0.499996
C49	C	0.700951	-0.117383	0.000007
C50	C	1.200951	0.382617	0.500007
C51	C	0.677454	-0.008756	-0.000014
C52	C	1.177454	0.491244	0.499986
C53	C	0.775899	-0.028057	-0.000009
C54	C	1.275899	0.471943	0.499991
C55	C	0.799396	-0.136684	0.000012
C56	C	1.299396	0.363316	0.500012
C57	C	1.122155	-0.258159	0.000038
C58	C	1.622155	0.241841	0.500038
C59	C	1.120907	-0.321126	0.000047
C60	C	1.620907	0.178874	0.500047
C61	C	1.090582	-0.693414	-0.087035
C62	C	1.590582	-0.193414	0.412965
C63	C	1.089391	-0.752571	-0.087040
C64	C	1.589391	-0.252571	0.412960
O65	O	1.069642	-0.767749	-0.161055
O66	O	1.569642	-0.267749	0.338945
N67	N	1.111263	-0.800278	-0.000012
N68	N	1.611263	-0.300278	0.499988
C69	C	1.134317	-0.788824	0.087027
C70	C	1.634317	-0.288824	0.587027
O71	O	1.152811	-0.834834	0.161051
O72	O	1.652811	-0.334834	0.661051
C73	C	1.135501	-0.729666	0.087032
C74	C	1.635501	-0.229666	0.587032
C75	C	1.113637	-0.681963	-0.000002
C76	C	1.613637	-0.181963	0.499998
C77	C	1.068718	-0.645713	-0.174061
C78	C	1.568718	-0.145713	0.325939
C79	C	1.069910	-0.586561	-0.174055
C80	C	1.569910	-0.086561	0.325945
C81	C	1.092965	-0.575110	-0.087023
C82	C	1.592965	-0.075110	0.412977
C83	C	1.114829	-0.622811	0.000004
C84	C	1.614829	-0.122811	0.500004
C85	C	1.158548	-0.718211	0.174070
C86	C	1.658548	-0.218211	0.674070
C87	C	1.159728	-0.659047	0.174067
C88	C	1.659728	-0.159047	0.674067
C89	C	1.137864	-0.611345	0.087033
C90	C	1.637864	-0.111345	0.587033
C91	C	1.139076	-0.552209	0.087042
C92	C	1.639076	-0.052209	0.587042
N93	N	1.117204	-0.504502	0.000014
N94	N	1.617204	-0.004502	0.500014
C95	C	1.094148	-0.515952	-0.087018
C96	C	1.594148	-0.015952	0.412982
C97	C	1.131830	-0.913057	0.087011
C98	C	1.631830	-0.413057	0.587011
C99	C	1.130654	-0.972216	0.087007
C100	C	1.630654	-0.472216	0.587007
C101	C	1.085726	-0.935958	-0.087060
C102	C	1.585726	-0.435958	0.412940
C103	C	1.086909	-0.876800	-0.087056
C104	C	1.586909	-0.376800	0.412944
C105	C	1.109958	-0.865350	-0.000017
C106	C	1.609958	-0.365350	0.499983
C107	C	1.096654	-0.391731	-0.087000
C108	C	1.596654	0.108269	0.413000
C109	C	1.097852	-0.332576	-0.086986
C110	C	1.597852	0.167424	0.413014
C111	C	1.142775	-0.368837	0.087081
C112	C	1.642775	0.131163	0.587081
C113	C	1.141582	-0.427988	0.087068
C114	C	1.641582	0.072012	0.587068
C115	C	1.118517	-0.439431	0.000020
C116	C	1.618517	0.060569	0.500020
O117	O	1.158812	-0.536984	0.161019
O118	O	1.658812	-0.036984	0.661019
O119	O	1.075646	-0.469934	-0.161030
O120	O	1.575646	0.030066	0.338970
C121	C	1.286862	-0.192239	0.000019
C122	C	1.786862	0.307761	0.500019
C123	C	1.391633	-0.212773	0.000016
C124	C	1.891633	0.287227	0.500016
C125	C	1.106347	-0.046637	-0.000010
C126	C	1.606347	0.453363	0.499990
C127	C	1.107593	0.016330	-0.000026
C128	C	1.607593	0.516330	0.499974
N129	N	1.178457	-0.204178	0.248755
N130	N	1.678457	0.295822	0.748755
N131	N	1.050053	-0.100625	-0.248725
N132	N	1.550053	0.399375	0.251275
C133	C	0.946551	-0.017184	0.600533
C134	C	1.446551	0.482816	1.100533
C135	C	0.972527	-0.038124	0.701036
C136	C	1.472527	0.461876	1.201036
C137	C	1.101631	-0.142213	0.701021
C138	C	1.601631	0.357787	1.201021
C139	C	1.075663	-0.121283	0.600516
C140	C	1.575663	0.378717	1.100516
C141	C	0.998123	-0.058768	0.550279
C142	C	1.498123	0.441232	1.050279
C143	C	1.127234	-0.162867	0.550262
C144	C	1.627234	0.337133	1.050262
C145	C	1.101271	-0.141938	0.449765
C146	C	1.601271	0.358062	0.949765
C147	C	1.023737	-0.079424	0.399522
C148	C	1.523737	0.420576	0.899522
C149	C	0.972160	-0.037839	0.449782
C150	C	1.472160	0.462161	0.949782
C151	C	1.204778	-0.225381	0.600500
C152	C	1.704778	0.274619	1.100500
C153	C	1.256350	-0.266965	0.550247
C154	C	1.756350	0.233035	1.050247
C155	C	1.230383	-0.246037	0.449748
C156	C	1.730383	0.253963	0.949748
C157	C	1.152848	-0.183524	0.399505
C158	C	1.652848	0.316476	0.899505
C159	C	1.281960	-0.287623	0.399488
C160	C	1.781960	0.212377	0.899488
C161	C	1.255996	-0.266693	0.298991
C162	C	1.755996	0.233307	0.798991
C163	C	1.126885	-0.162594	0.299008
C164	C	1.626885	0.337406	0.799008
H165	H	0.491875	0.017962	-0.000032
H166	H	0.991875	0.517962	0.499968
C167	C	0.832741	-0.247242	0.000035
C168	C	1.332741	0.252758	0.500035
N169	N	0.914309	-0.263234	0.000042
N170	N	1.414309	0.236766	0.500042
C171	C	0.995176	-0.056402	0.288971
C172	C	1.495176	0.443598	0.788971
N173	N	0.973662	-0.039062	0.205705
N174	N	1.473662	0.460938	0.705705
C175	C	0.886824	0.030917	0.394517
C176	C	1.386824	0.530917	0.894517
N177	N	0.822541	0.082697	0.352890
N178	N	1.322541	0.582697	0.852890
C179	C	1.071297	-0.404313	-0.182757
C180	C	1.571297	0.095687	0.317243
N181	N	1.052209	-0.413792	-0.254881
N182	N	1.552209	0.086208	0.245119
H183	H	1.178483	-0.649726	0.244946
H184	H	1.678483	-0.149726	0.744946
H185	H	0.883404	0.033719	0.559628
H186	H	1.383404	0.533719	1.059628
H187	H	0.736617	-0.322764	0.000054
H188	H	1.236617	0.177236	0.500054
H189	H	1.297993	-0.300555	0.258074
H190	H	1.797993	0.199445	0.758074
C191	C	0.395764	-0.057551	-0.000019
C192	C	0.895764	0.442449	0.499981
N193	N	0.314197	-0.041561	-0.000026
N194	N	0.814197	0.458439	0.499974
C195	C	1.182588	-0.770669	0.269816
C196	C	1.682588	-0.270669	0.769816
N197	N	1.200692	-0.810178	0.341937
N198	N	1.700692	-0.310178	0.841937
H199	H	1.159394	-0.466833	0.157938
H200	H	1.659394	0.033167	0.657938
H201	H	1.080049	-0.293737	-0.157862
H202	H	1.580049	0.206263	0.342138
H203	H	1.049940	-0.655025	-0.244938
H204	H	1.549940	-0.155025	0.255062
C205	C	1.045847	-0.534091	-0.269800
C206	C	1.545847	-0.034091	0.230200
N207	N	1.027717	-0.494572	-0.341921
N208	N	1.527717	0.005428	0.158079
H209	H	1.069104	-0.837963	-0.157926
H210	H	1.569104	-0.337963	0.342074
H211	H	0.600701	-0.348125	0.000056
H212	H	1.100701	0.151875	0.500056
H213	H	1.066950	-0.945290	-0.157927
H214	H	1.566950	-0.445290	0.342073
H215	H	1.148472	-1.011056	0.157879
H216	H	1.648472	-0.511056	0.657879
H217	H	0.627797	0.043327	-0.000035
H218	H	1.127797	0.543327	0.499965
H219	H	1.063738	-0.111690	0.258104
H220	H	1.563738	0.388310	0.758104
H221	H	0.422097	-0.313099	0.000037
H222	H	0.922097	0.186901	0.500037
H223	H	0.849042	-0.188772	0.000029
H224	H	1.349042	0.311228	0.500029
C225	C	0.817121	0.021073	-0.000014
C226	C	1.317121	0.521073	0.499986
N227	N	0.848168	0.058079	-0.000020
N228	N	1.348168	0.558079	0.499980
H229	H	1.150603	-0.903741	0.157893
H230	H	1.650603	-0.403741	0.657893
H231	H	1.161550	-0.359504	0.157941
H232	H	1.661550	0.140496	0.657941
H233	H	0.930525	-0.004255	0.741948
H234	H	1.430525	0.495745	1.241948
H235	H	0.379449	-0.116025	-0.000008
H236	H	0.879449	0.383975	0.499992
H237	H	1.164767	-0.193113	0.741935
H238	H	1.664767	0.306887	1.241935
H239	H	1.225917	-0.242418	0.682331
H240	H	1.725917	0.257582	1.182331
H241	H	1.319486	-0.317864	0.591161
H242	H	1.819486	0.182136	1.091161
C243	C	1.367255	-0.356387	0.454762
C244	C	1.867255	0.143613	0.954762
N245	N	1.431499	-0.408181	0.496394
N246	N	1.931499	0.091819	0.996394
