data_functionalizedCrystal
_audit_creation_method	'MofGen! by Chris Wilmer'
_symmetry_space_group_name_H-M	'P1'
_symmetry_Int_Tables_number	1
_symmetry_cell_setting	triclinic
loop_
_symmetry_equiv_pos_as_xyz
  x,y,z
_cell_length_a	15.995350
_cell_length_b	10.654550
_cell_length_c	9.130313
_cell_angle_alpha	90.002847
_cell_angle_beta	90.000075
_cell_angle_gamma	83.988653
loop_
_atom_site_label
_atom_site_type_symbol
_atom_site_fract_x
_atom_site_fract_y
_atom_site_fract_z
O1	O	-1.111925	-0.161870	-0.121675
O2	O	-0.868266	-0.181859	-0.121705
O3	O	-0.995697	0.010948	-0.121680
O4	O	-0.984493	-0.354677	-0.121700
O5	O	-0.995688	0.010948	0.121919
O6	O	-0.868256	-0.181859	0.121894
O7	O	-1.111915	-0.161870	0.121924
Cu8	Cu	-0.990085	-0.171865	0.144152
Cu9	Cu	-0.990096	-0.171865	-0.143932
O10	O	-0.984483	-0.354677	0.121899
C11	C	-0.837061	-0.181033	0.000091
C12	C	-0.744096	-0.178555	0.000079
C13	C	-1.143119	-0.162696	0.000125
C14	C	-1.236084	-0.165174	0.000127
C15	C	-0.994870	0.057735	0.000119
C16	C	-0.992409	0.197146	0.000116
C17	C	-0.406297	-0.169658	0.000110
C18	C	-0.452934	-0.032344	0.000661
C19	C	-0.549639	-0.034822	0.000102
C20	C	-0.573883	-0.174071	0.000096
C21	C	-0.533195	-0.241799	-0.139009
C22	C	-0.436539	-0.238349	-0.139115
C23	C	-0.436206	-0.241187	0.137902
C24	C	-0.533151	-0.241154	0.139731
C25	C	-0.668595	-0.176573	0.000083
C26	C	-0.311585	-0.167161	0.000114
C27	C	-0.985311	-0.401464	0.000097
C28	C	-0.987772	-0.540875	0.000090
N29	N	-0.990083	-0.171864	0.346774
C30	C	-1.067438	0.277612	0.000125
C31	C	-1.065121	0.408602	0.000107
C32	C	-0.912737	0.378649	0.000077
C33	C	-0.915055	0.247661	0.000085
N34	N	-0.990105	-0.171855	-0.346555
C35	C	-1.041305	-0.248077	0.423423
C36	C	-1.041318	-0.248070	0.576760
C37	C	-0.938880	-0.095634	0.576786
C38	C	-0.938872	-0.095635	0.423451
H39	H	-0.577754	0.018415	0.099819
O40	O	-1.142524	0.228391	-0.000056
C41	C	-1.233604	0.097939	-0.126288
C42	C	-1.148531	0.153570	-0.126241
H43	H	-1.238496	0.037456	-0.228313
H44	H	-1.238511	0.037289	-0.024408
H45	H	-1.286817	0.177976	-0.126218
H46	H	-1.095269	0.073614	-0.126363
H47	H	-1.143697	0.214253	-0.228112
H48	H	-1.083004	-0.310147	0.360997
H49	H	-0.577189	0.018775	-0.099782
H50	H	-1.083030	-0.310128	0.639160
H51	H	-0.404877	-0.339163	-0.145432
H52	H	-0.434089	0.022543	0.100419
H53	H	-0.549106	-0.342699	0.148128
H54	H	-0.415406	-0.196296	0.243340
O55	O	-0.566662	-0.185874	-0.262661
C56	C	-0.567392	-0.184222	-0.526572
C57	C	-0.529431	-0.247694	-0.386661
H58	H	-0.537294	-0.234161	-0.626861
H59	H	-0.638088	-0.190591	-0.528412
H60	H	-0.554857	-0.080851	-0.528012
H61	H	-0.541903	-0.351086	-0.385128
H62	H	-0.458746	-0.241224	-0.384876
H63	H	-0.849758	0.419794	0.000055
H64	H	-0.897160	-0.033567	0.361042
O65	O	-0.399161	-0.362046	0.138972
C66	C	-0.419504	-0.582946	0.135808
C67	C	-0.461563	-0.446141	0.134564
H68	H	-0.469938	-0.650975	0.132277
H69	H	-0.376764	-0.599270	0.036206
H70	H	-0.380664	-0.599869	0.239980
H71	H	-0.500446	-0.429123	0.030460
H72	H	-0.504254	-0.429884	0.234236
O73	O	-0.842088	0.169666	0.000142
C74	C	-0.690699	0.153767	0.000020
C75	C	-0.773265	0.242239	-0.000002
H76	H	-0.635034	0.212407	-0.000128
H77	H	-0.687912	0.091721	0.101990
H78	H	-0.688032	0.091663	-0.101901
H79	H	-0.775987	0.304422	0.101850
H80	H	-0.776018	0.304199	-0.102040
H81	H	-0.433027	0.022291	-0.098541
H82	H	-0.417948	-0.188959	-0.243095
O83	O	-1.138061	0.486637	-0.000075
C84	C	-1.267581	0.552347	-0.126295
C85	C	-1.185013	0.463882	-0.126251
H86	H	-1.305557	0.533999	-0.228312
H87	H	-1.305659	0.533974	-0.024407
H88	H	-1.252622	0.654637	-0.126241
H89	H	-1.199896	0.361561	-0.126357
H90	H	-1.146959	0.482365	-0.228130
H91	H	-0.897185	-0.033572	0.639235
H92	H	-0.560176	-0.191713	0.242640
O93	O	-0.550902	-0.363772	-0.145273
C94	C	-0.658650	-0.505403	-0.158388
C95	C	-0.638714	-0.367214	-0.151338
H96	H	-0.729646	-0.508232	-0.163262
H97	H	-0.628483	-0.552455	-0.260325
H98	H	-0.632573	-0.557834	-0.056680
H99	H	-0.664789	-0.314677	-0.252972
H100	H	-0.668866	-0.320258	-0.049335
