data_functionalizedCrystal
_audit_creation_method	'MofGen! by Chris Wilmer'
_symmetry_space_group_name_H-M	'P1'
_symmetry_Int_Tables_number	1
_symmetry_cell_setting	triclinic
loop_
_symmetry_equiv_pos_as_xyz
  x,y,z
_cell_length_a	13.635800
_cell_length_b	10.965428
_cell_length_c	11.102313
_cell_angle_alpha	92.737362
_cell_angle_beta	71.393896
_cell_angle_gamma	73.650906
loop_
_atom_site_label
_atom_site_type_symbol
_atom_site_fract_x
_atom_site_fract_y
_atom_site_fract_z
V1	V	2.049898	-0.175843	-0.396276
O2	O	2.035565	0.008449	-0.388713
O3	O	2.032518	-0.348666	-0.393586
O4	O	2.038379	-0.173139	-0.569097
O5	O	2.029663	-0.168294	-0.211986
V6	V	2.289185	-0.153800	-0.374231
O7	O	2.185955	-0.224197	-0.444634
O8	O	2.378226	-0.105445	-0.325874
O9	O	2.194961	0.019024	-0.376922
O10	O	2.362216	-0.338092	-0.381795
O11	O	2.368118	-0.161349	-0.558522
O12	O	2.189100	-0.156504	-0.201410
V13	V	2.549898	-0.175843	-0.396276
O14	O	2.535565	0.008449	-0.388713
O15	O	2.532518	-0.348666	-0.393586
O16	O	2.538379	-0.173139	-0.569097
O17	O	2.529663	-0.168294	-0.211986
V18	V	2.789185	-0.153800	-0.374231
O19	O	2.685955	-0.224197	-0.444634
O20	O	2.878226	-0.105445	-0.325874
O21	O	2.694961	0.019024	-0.376922
O22	O	2.862216	-0.338092	-0.381795
O23	O	2.868118	-0.161349	-0.558522
O24	O	2.689100	-0.156504	-0.201410
C25	C	2.602883	0.061148	-0.383165
C26	C	2.565985	0.202432	-0.384221
C27	C	1.956267	-0.390797	-0.387339
C28	C	1.982785	-0.532082	-0.386291
C29	C	2.634217	0.275279	-0.378389
C30	C	2.599545	0.408028	-0.379393
C31	C	2.428407	0.395070	-0.392068
C32	C	2.463076	0.262325	-0.391055
C33	C	2.737126	0.215386	-0.371555
C34	C	2.805365	0.288233	-0.365724
C35	C	2.770693	0.420982	-0.366728
C36	C	2.667782	0.480884	-0.373564
C37	C	2.024727	-0.616604	-0.502187
C38	C	2.049640	-0.749357	-0.501201
C39	C	1.990668	-0.713052	-0.268413
C40	C	1.965749	-0.580302	-0.269400
C41	C	2.041764	-0.568385	-0.619079
C42	C	2.083709	-0.652909	-0.734984
C43	C	2.108621	-0.785661	-0.733998
C44	C	2.091589	-0.833890	-0.617107
C45	C	1.963743	-0.166892	-0.611220
C46	C	1.995013	-0.165824	-0.752502
C47	C	2.459750	0.609205	-0.387326
C48	C	2.496644	0.467926	-0.386239
C49	C	1.983501	-0.048934	-0.800706
C50	C	2.012869	-0.047928	-0.933455
C51	C	2.065265	-0.280715	-0.969786
C52	C	2.035890	-0.281719	-0.837039
C53	C	1.942624	0.066961	-0.716170
C54	C	1.931112	0.183861	-0.764372
C55	C	1.960480	0.184866	-0.897121
C56	C	2.001361	0.068971	-0.981667
C57	C	2.095407	-0.162755	-0.159281
C58	C	2.053756	-0.163816	-0.017998
C59	C	2.102883	0.061148	-0.383165
C60	C	2.065985	0.202432	-0.384221
C61	C	2.463743	-0.166892	-0.611220
C62	C	2.495013	-0.165824	-0.752502
C63	C	2.595407	-0.162755	-0.159281
C64	C	2.553756	-0.163816	-0.017998
C65	C	2.601495	-0.171661	-0.825350
C66	C	2.630864	-0.170633	-0.958096
C67	C	2.447260	-0.157936	-0.945133
C68	C	2.417890	-0.158955	-0.812389
C69	C	2.678618	-0.178530	-0.765464
C70	C	2.785107	-0.184369	-0.838313
C71	C	2.814477	-0.183341	-0.971058
C72	C	2.737356	-0.176474	-1.030954
H73	H	2.765368	0.107295	-0.370740
H74	H	2.142764	-0.854477	-0.828374
H75	H	2.889149	0.239454	-0.360145
H76	H	2.025262	0.069800	-1.089757
H77	H	1.918711	0.066155	-0.608077
Br78	Br	2.106804	-0.587458	-0.893613
Br79	Br	2.125375	-1.014054	-0.615770
Br80	Br	2.120761	-0.437992	-1.084525
H81	H	1.897816	0.278219	-0.695526
Br82	Br	2.288750	0.476366	-0.401344
H83	H	1.976804	-0.752331	-0.173246
H84	H	2.331173	-0.154153	-0.753066
Br85	Br	2.620726	0.661047	-0.374916
Br86	Br	2.863292	0.519848	-0.358789
H87	H	2.021485	-0.460294	-0.619895
H88	H	2.654715	-0.179372	-0.657377
H89	H	2.407530	0.203004	-0.395850
H90	H	1.931590	-0.511480	-0.175027
H91	H	1.951096	0.280052	-0.936362
H92	H	2.045260	-0.376901	-0.797791
H93	H	2.847892	-0.189952	-0.789535
Br94	Br	2.958991	-0.191250	-1.069920
Br95	Br	2.777210	-0.175047	-1.211106
Br96	Br	2.342606	-0.148625	-1.026422
