data_functionalizedCrystal
_audit_creation_method	'MofGen! by Chris Wilmer'
_symmetry_space_group_name_H-M	'P1'
_symmetry_Int_Tables_number	1
_symmetry_cell_setting	triclinic
loop_
_symmetry_equiv_pos_as_xyz
  x,y,z
_cell_length_a	15.995350
_cell_length_b	12.837943
_cell_length_c	11.295660
_cell_angle_alpha	85.469976
_cell_angle_beta	85.901111
_cell_angle_gamma	90.839343
loop_
_atom_site_label
_atom_site_type_symbol
_atom_site_fract_x
_atom_site_fract_y
_atom_site_fract_z
O1	O	0.222745	-1.368477	-0.098990
O2	O	0.211993	-1.066671	-0.098997
O3	O	0.096139	-1.225824	-0.098992
O4	O	0.338598	-1.209324	-0.098995
O5	O	0.085980	-1.239769	0.099053
O6	O	0.201833	-1.080615	0.099048
O7	O	0.212585	-1.382422	0.099056
Cu8	Cu	0.206281	-1.232792	0.117135
Cu9	Cu	0.218296	-1.216301	-0.117077
O10	O	0.328439	-1.223268	0.099050
C11	C	0.059810	-1.232114	0.000028
C12	C	-0.033303	-1.230069	0.000021
C13	C	0.203281	-1.035023	0.000024
C14	C	0.192447	-0.919945	0.000021
N15	N	0.197831	-1.244398	0.281866
C16	C	-0.371637	-1.222725	0.000025
C17	C	-0.333223	-1.109347	-0.000422
C18	C	-0.236392	-1.111424	0.000025
C19	C	-0.203785	-1.226367	0.000023
C20	C	-0.246204	-1.290236	0.113115
C21	C	-0.343072	-1.287396	0.113210
C22	C	-0.331689	-1.273880	-0.112004
C23	C	-0.234669	-1.273748	-0.113499
C24	C	-0.108923	-1.228432	0.000025
C25	C	-0.466499	-1.220663	0.000031
C26	C	0.364768	-1.216978	0.000027
C27	C	0.457881	-1.219023	0.000026
C28	C	0.221297	-1.414070	0.000031
C29	C	0.232131	-1.529147	0.000027
C30	C	0.322684	-0.678988	0.000037
C31	C	0.312509	-0.570862	0.000035
C32	C	0.161923	-0.595566	0.000024
C33	C	0.172098	-0.703692	0.000026
C34	C	0.252481	-0.745399	0.000031
C35	C	0.262656	-0.853526	0.000024
C36	C	0.112069	-0.878228	0.000021
C37	C	0.101894	-0.770102	0.000019
C38	C	0.287618	-1.121019	0.531205
C39	C	0.281225	-1.129814	0.655866
C40	C	0.178659	-1.270787	0.655849
C41	C	0.185051	-1.261992	0.531189
C42	C	0.239531	-1.187105	0.468872
C43	C	0.245919	-1.178306	0.344209
C44	C	0.143357	-1.319283	0.344195
C45	C	0.136965	-1.328078	0.468855
N46	N	0.226747	-1.204695	0.718192
H47	H	-0.207318	-1.061770	-0.081045
H48	H	-0.356743	-1.357395	-0.112766
F49	F	-0.205387	-1.382679	-0.122434
F50	F	0.092174	-1.389614	0.277843
F51	F	0.016349	-0.725703	0.000018
F52	F	0.332407	-1.059479	0.722202
F53	F	-0.219218	-1.401001	0.118615
F54	F	0.078989	-1.407777	0.535188
F55	F	-0.369223	-1.057645	0.104700
F56	F	-0.356730	-1.042665	-0.106428
F57	F	-0.210026	-1.061068	0.106164
H58	H	0.134309	-1.331765	0.706604
F59	F	-0.376915	-1.241887	0.223707
H60	H	-0.368943	-1.370974	0.118340
F61	F	0.408233	-0.723377	0.000027
F62	F	-0.218803	-1.247230	0.223122
F63	F	0.345590	-1.041310	0.464882
F64	F	0.387229	-0.500186	0.000045
H65	H	-0.350788	-1.230786	-0.197722
H66	H	-0.206390	-1.226982	-0.197162
H67	H	0.328108	-0.887481	0.000030
F68	F	0.076379	-0.551161	0.000033
F69	F	0.303898	-1.098602	0.277889
F70	F	0.037350	-0.948915	-0.000000
