data_functionalizedCrystal
_audit_creation_method	'MofGen! by Chris Wilmer'
_symmetry_space_group_name_H-M	'P1'
_symmetry_Int_Tables_number	1
_symmetry_cell_setting	triclinic
loop_
_symmetry_equiv_pos_as_xyz
  x,y,z
_cell_length_a	14.908571
_cell_length_b	12.594516
_cell_length_c	14.908694
_cell_angle_alpha	93.271011
_cell_angle_beta	83.592472
_cell_angle_gamma	86.708170
loop_
_atom_site_label
_atom_site_type_symbol
_atom_site_fract_x
_atom_site_fract_y
_atom_site_fract_z
Zn1	Zn	1.413413	-0.560365	-0.591533
Zn2	Zn	1.913413	-0.060365	-0.091533
Zn3	Zn	1.404603	-0.727467	-0.440176
Zn4	Zn	1.904603	-0.227467	0.059824
Zn5	Zn	1.253312	-0.538594	-0.431467
Zn6	Zn	1.753312	-0.038594	0.068533
Zn7	Zn	1.262035	-0.727384	-0.582774
Zn8	Zn	1.762035	-0.227384	-0.082774
O9	O	1.333341	-0.638452	-0.511488
O10	O	1.833341	-0.138452	-0.011488
O11	O	1.538913	-0.591677	-0.578765
O12	O	2.038913	-0.091677	-0.078765
O13	O	1.377196	-0.693336	-0.312355
O14	O	1.877196	-0.193336	0.187645
O15	O	1.274587	-0.392540	-0.452722
O16	O	1.774587	0.107460	0.047278
O17	O	1.532440	-0.714446	-0.467564
O18	O	2.032440	-0.214446	0.032436
O19	O	1.392213	-0.408535	-0.570321
O20	O	1.892213	0.091465	-0.070321
O21	O	1.266044	-0.554572	-0.305957
O22	O	1.766044	-0.054572	0.194043
O23	O	1.127801	-0.554492	-0.444228
O24	O	1.627801	-0.054492	0.055772
O25	O	1.289453	-0.714305	-0.710602
O26	O	1.789453	-0.214305	-0.210602
O27	O	1.134210	-0.693195	-0.555393
O28	O	1.634210	-0.193195	-0.055393
O29	O	1.400670	-0.591597	-0.717037
O30	O	1.900670	-0.091597	-0.217037
O31	O	1.385654	-0.876397	-0.459071
O32	O	1.885654	-0.376397	0.040929
O33	O	1.280910	-0.876337	-0.563837
O34	O	1.780910	-0.376337	-0.063837
C35	C	1.098162	-0.621473	-0.497916
C36	C	1.598162	-0.121473	0.002084
C37	C	0.997553	-0.614236	-0.492131
C38	C	1.497553	-0.114236	0.007869
C39	C	0.815209	-0.745269	-0.596861
C40	C	1.315209	-0.245269	-0.096861
C41	C	0.720678	-0.738473	-0.591429
C42	C	1.220678	-0.238473	-0.091429
C43	C	0.713957	-0.593843	-0.475840
C44	C	1.213957	-0.093843	0.024160
C45	C	0.808489	-0.600639	-0.481272
C46	C	1.308489	-0.100639	0.018728
C47	C	0.859111	-0.676356	-0.541784
C48	C	1.359111	-0.176356	-0.041784
C49	C	0.953644	-0.683156	-0.547210
C50	C	1.453644	-0.183156	-0.047210
C51	C	0.946922	-0.538523	-0.431627
C52	C	1.446922	-0.038523	0.068373
C53	C	0.852391	-0.531726	-0.426195
C54	C	1.352391	-0.031726	0.073805
C55	C	1.333298	-0.914989	-0.511469
C56	C	1.833298	-0.414989	-0.011469
C57	C	1.333364	-1.033301	-0.511497
C58	C	1.833364	-0.533301	-0.011497
C59	C	1.390409	-1.102558	-0.454583
C60	C	1.890409	-0.602558	0.045417
C61	C	1.417293	-1.180801	-0.538473
C62	C	1.917293	-0.680801	-0.038473
C63	C	1.306596	-1.165869	-0.427666
C64	C	1.806596	-0.665869	0.072334
C65	C	1.360294	-1.109992	-0.595433
C66	C	1.860294	-0.609992	-0.095433
C67	C	1.249555	-1.095047	-0.484567
C68	C	1.749555	-0.595047	0.015433
C69	C	1.276411	-1.173260	-0.568513
C70	C	1.776411	-0.673260	-0.068513
C71	C	1.569438	-0.655499	-0.525113
C72	C	2.069438	-0.155499	-0.025113
C73	C	1.670049	-0.662764	-0.530919
C74	C	2.170049	-0.162764	-0.030919
C75	C	1.347017	-0.655370	-0.747581
C76	C	1.847017	-0.155370	-0.247581
C77	C	1.352845	-0.662580	-0.848190
C78	C	1.852845	-0.162580	-0.348190
C79	C	1.333410	-0.360839	-0.511527
C80	C	1.833410	0.139161	-0.011527
C81	C	1.333439	-0.242537	-0.511544
C82	C	1.833439	0.257463	-0.011544
C83	C	1.248032	-0.531634	-1.030583
C84	C	1.748032	-0.031634	-0.530583
C85	C	1.253505	-0.538404	-1.125114
C86	C	1.753505	-0.038404	-0.625114
C87	C	1.369258	-0.682895	-1.131784
C88	C	1.869258	-0.182895	-0.631784
C89	C	1.363786	-0.676124	-1.037253
C90	C	1.863786	-0.176124	-0.537253
C91	C	1.303172	-0.600490	-0.986656
C92	C	1.803172	-0.100490	-0.486656
C93	C	1.297704	-0.593716	-0.892123
C94	C	1.797704	-0.093716	-0.392123
C95	C	1.413452	-0.738211	-0.898795
C96	C	1.913452	-0.238211	-0.398795
C97	C	1.418925	-0.744981	-0.993326
C98	C	1.918925	-0.244981	-0.493326
C99	C	1.319770	-0.621527	-0.276316
C100	C	1.819770	-0.121527	0.223684
C101	C	1.314117	-0.614031	-0.175717
C102	C	1.814117	-0.114031	0.324283
H103	H	0.672725	-0.532193	-0.426580
H104	H	1.172725	-0.032193	0.073420
Cl105	Cl	1.495117	-0.840062	-1.056942
Cl106	Cl	1.995117	-0.340062	-0.556942
H107	H	1.178665	-1.057601	-0.461741
H108	H	1.678665	-0.557601	0.038259
H109	H	1.418595	-0.744486	-1.172996
H110	H	1.918595	-0.244486	-0.672996
H111	H	1.283925	-1.190664	-0.356751
H112	H	1.783925	-0.690664	0.143249
H113	H	1.382899	-1.085328	-0.666403
H114	H	1.882899	-0.585328	-0.166403
Cl115	Cl	1.482775	-0.824777	-0.843567
Cl116	Cl	1.982775	-0.324777	-0.343567
H117	H	1.438660	-1.071522	-0.406499
H118	H	1.938660	-0.571522	0.093501
Cl119	Cl	0.788743	-0.436542	-0.350131
Cl120	Cl	1.288743	0.063458	0.149869
Cl121	Cl	1.221507	-0.498632	-0.828516
Cl122	Cl	1.721507	0.001368	-0.328516
Cl123	Cl	1.002118	-0.451892	-0.362375
Cl124	Cl	1.502118	0.048108	0.137625
Cl125	Cl	1.184182	-0.451840	-1.180333
Cl126	Cl	1.684182	0.048160	-0.680333
Cl127	Cl	1.017283	-0.778343	-0.623279
Cl128	Cl	1.517283	-0.278343	-0.123279
H129	H	1.488202	-1.218223	-0.561276
H130	H	1.988202	-0.718223	-0.061276
Cl131	Cl	1.201986	-1.220897	-0.642940
Cl132	Cl	1.701986	-0.720897	-0.142940
H133	H	0.856427	-0.806925	-0.646127
H134	H	1.356427	-0.306925	-0.146127
Cl135	Cl	0.665490	-0.825108	-0.660674
Cl136	Cl	1.165490	-0.325108	-0.160674
H137	H	1.198686	-0.470040	-0.989386
H138	H	1.698686	0.029960	-0.489386
