data_functionalizedCrystal
_audit_creation_method	'MofGen! by Chris Wilmer'
_symmetry_space_group_name_H-M	'P1'
_symmetry_Int_Tables_number	1
_symmetry_cell_setting	triclinic
loop_
_symmetry_equiv_pos_as_xyz
  x,y,z
_cell_length_a	14.519709
_cell_length_b	16.109301
_cell_length_c	15.186229
_cell_angle_alpha	90.005167
_cell_angle_beta	89.997743
_cell_angle_gamma	83.570813
loop_
_atom_site_label
_atom_site_type_symbol
_atom_site_fract_x
_atom_site_fract_y
_atom_site_fract_z
O1	O	-1.223634	-0.108984	-0.073117
O2	O	-0.723634	0.391016	0.426883
O3	O	-0.955130	-0.121819	-0.073144
O4	O	-0.455130	0.378181	0.426856
O5	O	-1.096758	0.005617	-0.073121
O6	O	-0.596758	0.505617	0.426879
O7	O	-1.082006	-0.236420	-0.073140
O8	O	-0.582006	0.263580	0.426860
O9	O	-1.096748	0.005618	0.073337
O10	O	-0.596748	0.505618	0.573337
O11	O	-0.955120	-0.121817	0.073313
O12	O	-0.455120	0.378183	0.573313
O13	O	-1.223625	-0.108983	0.073340
O14	O	-0.723625	0.391017	0.573340
Zn15	Zn	-1.089371	-0.115400	0.096580
Zn16	Zn	-0.589371	0.384600	0.596580
Zn17	Zn	-1.089383	-0.115402	-0.096384
Zn18	Zn	-0.589383	0.384598	0.403616
O19	O	-1.081996	-0.236418	0.073317
O20	O	-0.581996	0.263582	0.573317
C21	C	-0.920766	-0.121220	0.000081
C22	C	-0.420766	0.378780	0.500081
C23	C	-0.818389	-0.119427	0.000071
C24	C	-0.318389	0.380573	0.500071
C25	C	-1.096156	0.036593	0.000108
C26	C	-0.596156	0.536593	0.500108
C27	C	-1.094364	0.128892	0.000109
C28	C	-0.594364	0.628892	0.500109
C29	C	-1.257988	-0.109582	0.000113
C30	C	-0.757988	0.390418	0.500113
C31	C	-1.360365	-0.111374	0.000118
C32	C	-0.860365	0.388626	0.500118
C33	C	-0.443507	-0.112829	0.000112
C34	C	0.056493	0.387171	0.500112
C35	C	-0.547811	-0.114661	0.000100
C36	C	-0.047811	0.385339	0.500100
C37	C	-0.630945	-0.116128	0.000091
C38	C	-0.130945	0.383872	0.500091
C39	C	-0.735256	-0.117961	0.000081
C40	C	-0.235256	0.382039	0.500081
C41	C	-1.082599	-0.267395	0.000086
C42	C	-0.582599	0.232605	0.500086
C43	C	-1.084390	-0.359693	0.000079
C44	C	-0.584390	0.140307	0.500079
N45	N	-1.089369	-0.115397	0.228273
N46	N	-0.589369	0.384603	0.728273
C47	C	-1.174238	0.351026	0.000104
C48	C	-0.674238	0.851026	0.500104
C49	C	-1.172547	0.437749	0.000096
C50	C	-0.672547	0.937749	0.500096
C51	C	-1.004510	0.418166	0.000082
C52	C	-0.504510	0.918166	0.500082
C53	C	-1.006202	0.331444	0.000084
C54	C	-0.506202	0.831444	0.500084
C55	C	-1.091068	0.297877	0.000099
C56	C	-0.591068	0.797877	0.500099
C57	C	-1.087686	0.471322	0.000090
C58	C	-0.587686	0.971322	0.500090
C59	C	-1.085852	0.565351	0.000082
C60	C	-0.585852	1.065351	0.500082
C61	C	-1.092902	0.203842	0.000105
C62	C	-0.592902	0.703842	0.500105
N63	N	-1.089392	-0.115397	-0.228076
N64	N	-0.589392	0.384603	0.271924
C65	C	-1.152103	-0.058988	0.454006
C66	C	-0.652103	0.441012	0.954006
C67	C	-1.152106	-0.058986	0.546196
C68	C	-0.652106	0.441014	1.046196
C69	C	-1.026651	-0.171810	0.546184
C70	C	-0.526651	0.328190	1.046184
C71	C	-1.026645	-0.171807	0.453996
C72	C	-0.526645	0.328193	0.953996
C73	C	-1.089376	-0.115397	0.407909
C74	C	-0.589376	0.384603	0.907909
C75	C	-1.089386	-0.115398	0.592287
C76	C	-0.589386	0.384602	1.092287
C77	C	-1.089388	-0.115396	0.692243
C78	C	-0.589388	0.384604	1.192243
C79	C	-1.089372	-0.115397	0.307947
C80	C	-0.589372	0.384603	0.807947
H81	H	-1.243341	0.323699	0.000114
H82	H	-0.743341	0.823699	0.500114
O83	O	-1.219773	0.001854	0.595906
O84	O	-0.719773	0.501854	1.095906
H85	H	-1.180976	0.042350	0.637906
H86	H	-0.680976	0.542350	1.137906
O87	O	-0.959006	-0.232657	0.595897
O88	O	-0.459006	0.267343	1.095897
H89	H	-0.970737	-0.297490	0.578184
H90	H	-0.470737	0.202510	1.078184
O91	O	-0.958977	-0.232652	0.404279
O92	O	-0.458977	0.267348	0.904279
H93	H	-0.914162	-0.197556	0.362296
H94	H	-0.414162	0.302444	0.862296
O95	O	-1.262250	0.495078	0.000113
O96	O	-0.762250	0.995078	0.500113
H97	H	-1.321543	0.457163	0.000132
H98	H	-0.821543	0.957163	0.500132
O99	O	-0.912977	0.454369	0.000085
O100	O	-0.412977	0.954369	0.500085
H101	H	-0.925772	0.523602	0.000098
H102	H	-0.425772	1.023602	0.500098
H103	H	-0.938471	0.288168	0.000077
H104	H	-0.438471	0.788168	0.500077
H105	H	-1.203182	-0.013055	0.416484
H106	H	-0.703182	0.486945	0.916484
