data_functionalizedCrystal
_audit_creation_method	'MofGen! by Chris Wilmer'
_symmetry_space_group_name_H-M	'P1'
_symmetry_Int_Tables_number	1
_symmetry_cell_setting	triclinic
loop_
_symmetry_equiv_pos_as_xyz
  x,y,z
_cell_length_a	6.817900
_cell_length_b	10.992410
_cell_length_c	11.102188
_cell_angle_alpha	91.892541
_cell_angle_beta	108.603875
_cell_angle_gamma	108.764651
loop_
_atom_site_label
_atom_site_type_symbol
_atom_site_fract_x
_atom_site_fract_y
_atom_site_fract_z
V1	V	-4.113410	-0.400593	-0.175839
O2	O	-4.072416	-0.392967	0.008450
O3	O	-4.090164	-0.397854	-0.348659
O4	O	-4.091015	-0.575306	-0.173134
O5	O	-4.071560	-0.214287	-0.168290
V6	V	-4.590408	-0.378309	-0.153796
O7	O	-4.388979	-0.449474	-0.224192
O8	O	-4.765036	-0.329428	-0.105443
O9	O	-4.390447	-0.381049	0.019024
O10	O	-4.748799	-0.385935	-0.338084
O11	O	-4.749655	-0.564616	-0.161345
O12	O	-4.389597	-0.203597	-0.156501
C13	C	-3.940443	-0.391534	-0.390789
C14	C	-4.002898	-0.390459	-0.532071
C15	C	-3.971516	-0.272295	-0.580297
C16	C	-4.030222	-0.271290	-0.713048
C17	C	-4.151685	-0.506622	-0.749338
C18	C	-4.092993	-0.507626	-0.616589
C19	C	-3.941526	-0.617890	-0.166888
C20	C	-4.004666	-0.760719	-0.165820
C21	C	-3.871835	-0.955842	-0.156089
C22	C	-3.806277	-0.807359	-0.157727
C23	C	-4.202084	-0.837823	-0.291130
C24	C	-4.266403	-0.986389	-0.290022
C25	C	-4.145326	-0.948357	-0.047376
C26	C	-4.074620	-0.799344	-0.046782
C27	C	-4.203511	-0.387365	0.061147
C28	C	-4.120296	-0.388449	0.202429
C29	C	-4.202427	-0.161006	-0.162751
C30	C	-4.118525	-0.018176	-0.163812
H31	H	-4.225043	-0.602015	-0.818168
F32	F	-3.719172	-0.980281	-0.037408
H33	H	-4.004665	-0.175070	-0.752306
F34	F	-4.126408	-0.633399	-0.565262
H35	H	-4.448353	-1.029021	-0.300919
H36	H	-4.352410	-0.809019	-0.301578
F37	F	-4.141728	-0.804356	-0.406653
H38	H	-3.658252	-0.754018	-0.067623
F39	F	-3.838713	-1.018565	-0.265442
H40	H	-3.748693	-0.782544	-0.242549
F41	F	-3.887952	-0.730918	0.074386
H42	H	-4.250421	-1.032660	-0.378186
H43	H	-4.042866	-0.968716	0.047782
F44	F	-4.260369	-0.756839	-0.044848
H45	H	-3.898156	-0.176890	-0.511485
H46	H	-4.324289	-0.989198	-0.051930
