data_functionalizedCrystal
_audit_creation_method	'MofGen! by Chris Wilmer'
_symmetry_space_group_name_H-M	'P1'
_symmetry_Int_Tables_number	1
_symmetry_cell_setting	triclinic
loop_
_symmetry_equiv_pos_as_xyz
  x,y,z
_cell_length_a	19.805405
_cell_length_b	19.805407
_cell_length_c	19.805399
_cell_angle_alpha	90.019573
_cell_angle_beta	89.970699
_cell_angle_gamma	89.973590
loop_
_atom_site_label
_atom_site_type_symbol
_atom_site_fract_x
_atom_site_fract_y
_atom_site_fract_z
Zn1	Zn	-0.269479	-1.034736	-0.382712
Zn2	Zn	-0.382667	-1.034651	-0.269520
Zn3	Zn	-0.269498	-0.921550	-0.269536
Zn4	Zn	-0.382631	-0.921514	-0.382667
O5	O	-0.326069	-0.978113	-0.326109
O6	O	-0.284501	-1.129441	-0.367708
O7	O	-0.367678	-1.019627	-0.174805
O8	O	-0.174778	-0.936616	-0.284575
O9	O	-0.367660	-1.129378	-0.284547
O10	O	-0.174765	-1.019772	-0.367724
O11	O	-0.284533	-0.936533	-0.174817
O12	O	-0.284498	-0.826829	-0.284531
O13	O	-0.367598	-0.936553	-0.477389
O14	O	-0.367617	-0.826802	-0.367648
O15	O	-0.284466	-1.019737	-0.477422
O16	O	-0.477379	-1.019592	-0.284503
O17	O	-0.477353	-0.936471	-0.367632
C18	C	-0.326056	-0.802257	-0.326087
C19	C	-0.326067	-0.727025	-0.326093
C20	C	-0.501925	-0.978036	-0.326076
C21	C	-0.577157	-0.978066	-0.326084
C22	C	-0.326026	-0.978151	-0.502651
C23	C	-0.326008	-0.978167	-0.577883
C24	C	-0.612492	-1.021389	-0.282845
C25	C	-0.683181	-1.021418	-0.282860
C26	C	-0.718532	-0.978119	-0.326111
C27	C	-0.683192	-0.934794	-0.369356
C28	C	-0.612505	-0.934769	-0.369344
C29	C	-0.968265	-0.934894	-0.369406
C30	C	-1.038957	-0.934921	-0.369413
C31	C	-1.038941	-1.021542	-0.282922
C32	C	-0.968254	-1.021517	-0.282910
C33	C	-0.932920	-0.978195	-0.326157
C34	C	-0.856271	-0.978166	-0.326141
C35	C	-0.795179	-0.978145	-0.326124
C36	C	-0.149526	-0.978207	-0.326156
C37	C	-0.074294	-0.978248	-0.326177
C38	C	-0.326082	-1.154655	-0.326131
C39	C	-0.326088	-1.229887	-0.326140
C40	C	-0.369412	-0.691684	-0.369302
C41	C	-0.369413	-0.620996	-0.369312
C42	C	-0.326072	-0.585649	-0.326109
C43	C	-0.282722	-0.620994	-0.282898
C44	C	-0.282718	-0.691681	-0.282892
C45	C	-0.282737	-0.335921	-0.282920
C46	C	-0.282746	-0.265229	-0.282928
C47	C	-0.369432	-0.265235	-0.369340
C48	C	-0.369428	-0.335922	-0.369334
C49	C	-0.326076	-0.371262	-0.326126
C50	C	-0.326074	-0.447910	-0.326117
C51	C	-0.326076	-0.509002	-0.326114
C52	C	-0.282719	-1.021481	-0.613246
C53	C	-0.282699	-1.021488	-0.683934
C54	C	-0.325973	-0.978184	-0.719259
C55	C	-0.369264	-0.934864	-0.683892
C56	C	-0.369279	-0.934854	-0.613204
C57	C	-0.369201	-0.934902	-0.968965
C58	C	-0.369183	-0.934917	-1.039657
C59	C	-0.282620	-1.021536	-1.039695
C60	C	-0.282636	-1.021527	-0.969008
C61	C	-0.325924	-0.978205	-0.933647
C62	C	-0.325944	-0.978197	-0.856998
C63	C	-0.325957	-0.978194	-0.795906
C64	C	-0.326062	-0.978114	-0.150253
C65	C	-0.325890	-0.978229	-0.075021
H66	H	-0.583713	-1.056644	-0.247621
H67	H	-0.404523	-0.899576	-0.584413
H68	H	-0.404423	-0.899650	-1.068417
H69	H	-0.404729	-0.236454	-0.404524
H70	H	-0.404459	-0.899637	-0.940183
Cl71	Cl	-0.423663	-0.880421	-0.728300
H72	H	-1.067719	-1.056820	-0.247711
Cl73	Cl	-0.228197	-1.075996	-1.084153
Cl74	Cl	-0.727599	-1.075886	-0.228501
Cl75	Cl	-0.228223	-0.736110	-0.228572
Cl76	Cl	-0.423907	-0.576571	-0.423634
H77	H	-0.404723	-0.364698	-0.404512
Cl78	Cl	-0.228318	-1.075928	-0.568845
Cl79	Cl	-0.228306	-1.075974	-0.728387
Cl80	Cl	-0.228235	-1.075971	-0.924603
H81	H	-0.247448	-0.236452	-0.247747
H82	H	-0.247442	-0.364686	-0.247733
H83	H	-0.939473	-1.056773	-0.247688
H84	H	-0.939502	-0.899618	-0.404618
Cl85	Cl	-0.727634	-0.880366	-0.423734
Cl86	Cl	-0.568083	-0.880306	-0.423707
Cl87	Cl	-0.423904	-0.736113	-0.423615
Cl88	Cl	-1.083399	-0.880486	-0.423793
Cl89	Cl	-0.228231	-0.576558	-0.228590
