data_functionalizedCrystal
_audit_creation_method	'MofGen! by Chris Wilmer'
_symmetry_space_group_name_H-M	'P1'
_symmetry_Int_Tables_number	1
_symmetry_cell_setting	triclinic
loop_
_symmetry_equiv_pos_as_xyz
  x,y,z
_cell_length_a	16.120484
_cell_length_b	12.759401
_cell_length_c	12.759393
_cell_angle_alpha	89.981504
_cell_angle_beta	92.862882
_cell_angle_gamma	92.925560
loop_
_atom_site_label
_atom_site_type_symbol
_atom_site_fract_x
_atom_site_fract_y
_atom_site_fract_z
Zn1	Zn	-0.331853	1.584972	-0.615146
Zn2	Zn	-0.471291	1.575923	-0.448359
Zn3	Zn	-0.331897	1.409271	-0.439488
Zn4	Zn	-0.471227	1.400324	-0.623996
O5	O	-0.401567	1.492622	-0.531747
O6	O	-0.350358	1.730792	-0.593030
O7	O	-0.452845	1.553774	-0.300164
O8	O	-0.215226	1.440109	-0.455373
O9	O	-0.452803	1.724144	-0.470492
O10	O	-0.215194	1.569196	-0.584428
O11	O	-0.350433	1.431335	-0.293646
O12	O	-0.350370	1.261064	-0.463955
O13	O	-0.452693	1.424860	-0.769840
O14	O	-0.452736	1.254490	-0.599512
O15	O	-0.350296	1.560520	-0.763338
O16	O	-0.587947	1.545098	-0.479074
O17	O	-0.587900	1.416086	-0.608114
C18	C	-0.618174	1.478668	-0.545540
C19	C	-0.710839	1.472794	-0.551475
C20	C	-0.401551	1.219656	-0.531732
C21	C	-0.401565	1.102879	-0.531752
C22	C	-0.454952	1.044616	-0.602231
C23	C	-0.454962	0.934891	-0.602243
C24	C	-0.348197	0.941702	-0.461287
C25	C	-0.348183	1.051425	-0.461281
C26	C	-0.516595	1.040682	-0.683607
C27	C	-0.516605	0.930958	-0.683619
C28	C	-0.880500	1.462076	-0.562334
C29	C	-0.921793	1.523357	-0.501178
C30	C	-1.016198	1.517393	-0.507219
C31	C	-0.786086	1.468038	-0.556293
C32	C	-0.184114	1.506660	-0.517924
C33	C	-0.091448	1.512642	-0.512033
C34	C	-0.401483	1.492701	-0.805775
C35	C	-0.401447	1.492735	-0.922550
C36	C	-0.401583	1.766655	-0.531763
C37	C	-0.401590	1.883431	-0.531770
C38	C	-0.348123	1.563383	-0.974027
C39	C	-0.348093	1.563410	-1.083750
C40	C	-0.454717	1.422138	-1.090507
C41	C	-0.454742	1.422106	-0.980787
C42	C	-0.286568	1.644948	-0.970127
C43	C	-0.286538	1.644975	-1.079849
C44	C	-0.401590	1.492608	-0.258781
C45	C	-0.401391	1.492793	-0.141992
H46	H	-0.304705	1.098859	-0.403897
Cl47	Cl	-0.866912	1.611268	-0.413331
Cl48	Cl	-0.935381	1.374163	-0.650167
Cl49	Cl	-0.611267	1.087135	-0.644533
H50	H	-0.498160	1.364575	-0.938878
H51	H	-0.225191	1.619796	-1.109984
H52	H	-0.581158	0.897022	-0.665804
H53	H	-0.498106	1.364632	-1.137937
Cl54	Cl	-0.281091	0.877009	-0.372702
Cl55	Cl	-0.322298	1.761958	-0.919848
H56	H	-0.222003	1.627321	-0.936253
Cl57	Cl	-0.313224	1.768892	-1.127535
H58	H	-0.499376	1.071595	-0.763915
H59	H	-0.493558	0.898438	-0.759501
