data_functionalizedCrystal
_audit_creation_method	'MofGen! by Chris Wilmer'
_symmetry_space_group_name_H-M	'P1'
_symmetry_Int_Tables_number	1
_symmetry_cell_setting	triclinic
loop_
_symmetry_equiv_pos_as_xyz
  x,y,z
_cell_length_a	18.215407
_cell_length_b	18.101395
_cell_length_c	18.215399
_cell_angle_alpha	89.971163
_cell_angle_beta	89.983176
_cell_angle_gamma	90.031552
loop_
_atom_site_label
_atom_site_type_symbol
_atom_site_fract_x
_atom_site_fract_y
_atom_site_fract_z
Zn1	Zn	1.125018	-0.294811	-0.416124
Zn2	Zn	1.124920	-0.418662	-0.293061
Zn3	Zn	1.001957	-0.294840	-0.293071
Zn4	Zn	1.001903	-0.418616	-0.416086
O5	O	1.063450	-0.356732	-0.354585
O6	O	1.227989	-0.311247	-0.399811
O7	O	1.108590	-0.402269	-0.190078
O8	O	1.018345	-0.191203	-0.309415
O9	O	1.227917	-0.402240	-0.309397
O10	O	1.108758	-0.191182	-0.399821
O11	O	1.018250	-0.311297	-0.190085
O12	O	0.898966	-0.311252	-0.309378
O13	O	1.018254	-0.402161	-0.519075
O14	O	0.898926	-0.402190	-0.399756
O15	O	1.108706	-0.311202	-0.519103
O16	O	1.108538	-0.522289	-0.309360
O17	O	1.018158	-0.522255	-0.399746
C18	C	0.872243	-0.356720	-0.354564
C19	C	0.790445	-0.356732	-0.354573
C20	C	0.602249	-0.404158	-0.401573
C21	C	0.525391	-0.404160	-0.401583
C22	C	0.525402	-0.309320	-0.307613
C23	C	0.602260	-0.309315	-0.307608
C24	C	0.640681	-0.356738	-0.354587
C25	C	0.486965	-0.356746	-0.354601
C26	C	0.403631	-0.356748	-0.354611
C27	C	0.724020	-0.356735	-0.354579
C28	C	1.063351	-0.549143	-0.354564
C29	C	1.063376	-0.631457	-0.354579
C30	C	1.063538	-0.930548	-0.354619
C31	C	1.006805	-0.899232	-0.411628
C32	C	1.006536	-0.813614	-0.411450
C33	C	1.063458	-0.782165	-0.354600
C34	C	1.042464	-0.813319	-0.277038
C35	C	1.042098	-0.898964	-0.277380
C36	C	1.141388	-0.898890	-0.374487
C37	C	1.140931	-0.813239	-0.376188
C38	C	1.063414	-0.698306	-0.354584
C39	C	1.063580	-1.014407	-0.354629
C40	C	1.255403	-0.356746	-0.354607
C41	C	1.337201	-0.356751	-0.354616
C42	C	1.063484	-0.356673	-0.546538
C43	C	1.063499	-0.356648	-0.628337
C44	C	1.063569	-0.163570	-0.354623
C45	C	1.063619	-0.081256	-0.354639
C46	C	1.016499	-0.309247	-0.816536
C47	C	1.016512	-0.309232	-0.893395
C48	C	1.110588	-0.403961	-0.893376
C49	C	1.110571	-0.403979	-0.816519
C50	C	1.063527	-0.356618	-0.778101
C51	C	1.063557	-0.356585	-0.931817
C52	C	1.063571	-0.356569	-1.015151
C53	C	1.063512	-0.356634	-0.694762
C54	C	1.063457	-0.356738	-0.163379
C55	C	1.063585	-0.356554	-0.081580
H56	H	0.494110	-0.270712	-0.269363
H57	H	0.978193	-0.270683	-0.785258
C58	C	0.483797	-0.455728	-0.452623
C59	C	0.533899	-0.497267	-0.493749
C60	C	0.495610	-0.544787	-0.540771
H61	H	0.453839	-0.427524	-0.484806
H62	H	0.453804	-0.488002	-0.424435
H63	H	0.563879	-0.464997	-0.521935
H64	H	0.563858	-0.525487	-0.461585
H65	H	0.465617	-0.577061	-0.512582
H66	H	0.465654	-0.516577	-0.572949
H67	H	0.529598	-0.572982	-0.568675
H68	H	1.082486	-0.792950	-0.233404
H69	H	0.978216	-0.270659	-0.924685
C70	C	1.161756	-0.455250	-0.935129
C71	C	1.208973	-0.413308	-0.979252
C72	C	1.256128	-0.460529	-1.017716
H73	H	1.133679	-0.487524	-0.965162
H74	H	1.189805	-0.483454	-0.901253
H75	H	1.180927	-0.385116	-1.013124
H76	H	1.237067	-0.381036	-0.949237
H77	H	1.284176	-0.488733	-0.983839
H78	H	1.228044	-0.492800	-1.047744
H79	H	1.288174	-0.432078	-1.047652
C80	C	1.094817	-0.926742	-0.218893
C81	C	1.094911	-1.004091	-0.218778
C82	C	1.143481	-1.029702	-0.164926
H83	H	1.079643	-0.909234	-0.172141
H84	H	1.142882	-0.909162	-0.229202
H85	H	1.046856	-1.021663	-0.208465
H86	H	1.110093	-1.021618	-0.265517
H87	H	1.191546	-1.012122	-0.175235
H88	H	1.128302	-1.012189	-0.118179
H89	H	1.143556	-1.082185	-0.164846
H90	H	0.633552	-0.270695	-0.269346
C91	C	1.024010	-0.785664	-0.488194
C92	C	1.034914	-0.845891	-0.535141
C93	C	1.050995	-0.820177	-0.605849
H94	H	1.067274	-0.756379	-0.486792
H95	H	0.984245	-0.756659	-0.505720
H96	H	1.074675	-0.874884	-0.517618
H97	H	0.991658	-0.875182	-0.536565
H98	H	1.011231	-0.791172	-0.623376
H99	H	1.094258	-0.790892	-0.604440
H100	H	1.058389	-0.861036	-0.637713
C101	C	1.161714	-0.455441	-0.774916
C102	C	1.202934	-0.496896	-0.825009
C103	C	1.250056	-0.544303	-0.786711
H104	H	1.133616	-0.487779	-0.744921
H105	H	1.193828	-0.427136	-0.744958
H106	H	1.170824	-0.525199	-0.854954
H107	H	1.231046	-0.464578	-0.855005
H108	H	1.282170	-0.515998	-0.756754
H109	H	1.221953	-0.576636	-0.756718
H110	H	1.278035	-0.572431	-0.820693
C111	C	0.930337	-0.928111	-0.394427
C112	C	0.903877	-0.968243	-0.454555
C113	C	0.833443	-0.994868	-0.438730
H114	H	0.898456	-0.887749	-0.384802
H115	H	0.932391	-0.959324	-0.352532
H116	H	0.901819	-0.937031	-0.496437
H117	H	0.935738	-1.008615	-0.464189
H118	H	0.835497	-1.026082	-0.396835
H119	H	0.801569	-0.954502	-0.429105
H120	H	0.815485	-1.022107	-0.479521
H121	H	0.633530	-0.442771	-0.439829
H122	H	1.019809	-0.919778	-0.469325
H123	H	0.948831	-0.793192	-0.398289
C124	C	0.966161	-0.925551	-0.254964
C125	C	0.921043	-0.864500	-0.241236
C126	C	0.851080	-0.888958	-0.220597
H127	H	0.969830	-0.954785	-0.211802
H128	H	0.945631	-0.954312	-0.293448
H129	H	0.941568	-0.835750	-0.202755
H130	H	0.917353	-0.835259	-0.284389
H131	H	0.830551	-0.917720	-0.259081
H132	H	0.854757	-0.918193	-0.177436
H133	H	0.820458	-0.847540	-0.211286
H134	H	0.986159	-0.791935	-0.259906
C135	C	1.166767	-0.927664	-0.448648
C136	C	1.112935	-0.974390	-0.477882
C137	C	1.136274	-1.000902	-0.546205
H138	H	1.211270	-0.954347	-0.442782
H139	H	1.174600	-0.887264	-0.481036
H140	H	1.105111	-1.014784	-0.445502
H141	H	1.068427	-0.947723	-0.483766
H142	H	1.144107	-0.960502	-0.578592
H143	H	1.180778	-1.027582	-0.540332
H144	H	1.099750	-1.032603	-0.566052
H145	H	1.156762	-0.792875	-0.433269
H146	H	1.185435	-0.791828	-0.337692
H147	H	1.183656	-0.919141	-0.332965
