data_functionalizedCrystal
_audit_creation_method	'MofGen! by Chris Wilmer'
_symmetry_space_group_name_H-M	'P1'
_symmetry_Int_Tables_number	1
_symmetry_cell_setting	triclinic
loop_
_symmetry_equiv_pos_as_xyz
  x,y,z
_cell_length_a	11.792241
_cell_length_b	10.654545
_cell_length_c	10.868271
_cell_angle_alpha	89.996145
_cell_angle_beta	89.994719
_cell_angle_gamma	84.338247
loop_
_atom_site_label
_atom_site_type_symbol
_atom_site_fract_x
_atom_site_fract_y
_atom_site_fract_z
O1	O	0.159396	1.667393	-0.102311
O2	O	0.174590	1.301871	-0.102316
O3	O	0.001843	1.493502	-0.102304
O4	O	0.332143	1.475762	-0.102322
O5	O	0.001836	1.493486	0.102340
O6	O	0.174583	1.301855	0.102329
O7	O	0.159389	1.667377	0.102334
Zn8	Zn	0.166985	1.484614	0.134823
Zn9	Zn	0.166994	1.484635	-0.134805
O10	O	0.332137	1.475746	0.102323
C11	C	0.173472	1.255068	0.000006
C12	C	0.170138	1.115634	0.000004
C13	C	0.168564	1.050125	0.111557
C14	C	0.165412	0.919115	0.111557
C15	C	0.165412	0.919133	-0.111558
C16	C	0.168556	1.050142	-0.111557
C17	C	-0.040454	1.492380	0.000017
C18	C	-0.166475	1.489045	0.000016
C19	C	-0.397202	1.482911	-0.000004
C20	C	-0.268809	1.486319	0.000007
C21	C	0.374433	1.476868	-0.000002
C22	C	0.500455	1.480204	-0.000009
C23	C	0.160507	1.714180	0.000010
C24	C	0.163842	1.853614	0.000003
N25	N	0.166978	1.484609	0.318837
N26	N	0.166992	1.484650	-0.318819
C27	C	0.166992	1.484628	0.569843
C28	C	0.166988	1.484613	0.430166
H29	H	0.169852	1.103445	0.202397
O30	O	0.163738	0.855642	0.219999
C31	C	0.066367	0.901202	0.287860
H32	H	0.035939	1.000847	0.256138
H33	H	-0.004119	0.836970	0.272408
C34	C	0.133695	0.780747	0.464675
C35	C	0.096328	0.903137	0.425720
H36	H	0.152173	0.781935	0.549714
H37	H	0.199294	0.750048	0.418955
H38	H	0.074950	0.727234	0.451788
H39	H	0.155077	0.956643	0.438594
H40	H	0.030739	0.933845	0.471446
O41	O	0.170132	1.113584	-0.220036
C42	C	0.168043	1.027692	-0.318503
H43	H	0.201675	0.929342	-0.285809
H44	H	0.076811	1.026326	-0.352795
C45	C	0.202265	1.189365	-0.464057
C46	C	0.243581	1.068571	-0.423905
H47	H	0.248855	1.214582	-0.529077
H48	H	0.203668	1.247234	-0.397719
H49	H	0.126239	1.188211	-0.492626
H50	H	0.319600	1.069730	-0.395323
H51	H	0.242192	1.010703	-0.490241
H52	H	0.164125	0.865793	-0.202387
