data_functionalizedCrystal
_audit_creation_method	'MofGen! by Chris Wilmer'
_symmetry_space_group_name_H-M	'P1'
_symmetry_Int_Tables_number	1
_symmetry_cell_setting	triclinic
loop_
_symmetry_equiv_pos_as_xyz
  x,y,z
_cell_length_a	19.077105
_cell_length_b	12.759400
_cell_length_c	19.076919
_cell_angle_alpha	92.274856
_cell_angle_beta	90.076224
_cell_angle_gamma	87.711168
loop_
_atom_site_label
_atom_site_type_symbol
_atom_site_fract_x
_atom_site_fract_y
_atom_site_fract_z
Zn1	Zn	1.058328	-0.508276	-0.440436
Zn2	Zn	1.062987	-0.677203	-0.322935
Zn3	Zn	0.945544	-0.494202	-0.318229
Zn4	Zn	0.940808	-0.676569	-0.435688
O5	O	1.001917	-0.589062	-0.379322
O6	O	1.157278	-0.536840	-0.428806
O7	O	1.051339	-0.647302	-0.223980
O8	O	0.960537	-0.349051	-0.334457
O9	O	1.160701	-0.660950	-0.342479
O10	O	1.043399	-0.359391	-0.424243
O11	O	0.965055	-0.512852	-0.220522
O12	O	0.846583	-0.512238	-0.329853
O13	O	0.952466	-0.659870	-0.534649
O14	O	0.843104	-0.646223	-0.416150
O15	O	1.038807	-0.536225	-0.538138
O16	O	1.046747	-0.824137	-0.337875
O17	O	0.956983	-0.823671	-0.420714
C18	C	0.819347	-0.577635	-0.371976
C19	C	0.741242	-0.572772	-0.368850
C20	C	1.001876	-0.862026	-0.379306
C21	C	1.001921	-0.978807	-0.379325
C22	C	0.702758	-0.640344	-0.412241
C23	C	0.629371	-0.635761	-0.409307
C24	C	0.594468	-0.563612	-0.362979
C25	C	0.632957	-0.496033	-0.319586
C26	C	0.706344	-0.500611	-0.322524
C27	C	0.375179	-0.542424	-0.349385
C28	C	0.301787	-0.537853	-0.346449
C29	C	0.298205	-0.677581	-0.436172
C30	C	0.371593	-0.682157	-0.439102
C31	C	0.410076	-0.614574	-0.395712
N32	N	0.519454	-0.558928	-0.359977
N33	N	0.485088	-0.619253	-0.398718
C34	C	1.048709	-1.033882	-0.336242
C35	C	1.048751	-1.143610	-0.336266
C36	C	0.955212	-1.143177	-0.422456
C37	C	0.955173	-1.033452	-0.422436
C38	C	1.095457	-0.979237	-0.293132
C39	C	1.142248	-1.034313	-0.250045
C40	C	1.142290	-1.144041	-0.250068
C41	C	1.095542	-1.198693	-0.293178
C42	C	1.185199	-0.600535	-0.386697
C43	C	1.263303	-0.605424	-0.389840
C44	C	0.994588	-0.599547	-0.562603
C45	C	0.991465	-0.604015	-0.640706
C46	C	1.001976	-0.315035	-0.379355
C47	C	1.002002	-0.198260	-0.379368
C48	C	1.034949	-0.541742	-0.679216
C49	C	1.032006	-0.545935	-0.752602
C50	C	0.985583	-0.612408	-0.787477
C51	C	0.942094	-0.674683	-0.748961
C52	C	0.945034	-0.670484	-0.675576
C53	C	0.971967	-0.631866	-1.006758
C54	C	0.969032	-0.636063	-1.080148
C55	C	1.058943	-0.507313	-1.083785
C56	C	1.061882	-0.503124	-1.010398
C57	C	1.018391	-0.565395	-0.971889
N58	N	0.982575	-0.616698	-0.862489
N59	N	1.021396	-0.561099	-0.896878
C60	C	1.009257	-0.578545	-0.196756
C61	C	1.012516	-0.573790	-0.118659
H62	H	0.598040	-0.690786	-0.444640
O63	O	1.095656	-1.305282	-0.293097
C64	C	1.146994	-1.342180	-0.245845
H65	H	1.158484	-1.277234	-0.205180
H66	H	1.126908	-1.412785	-0.218328
H67	H	1.197101	-1.366359	-0.275814
O68	O	0.909825	-1.196423	-0.464261
C69	C	0.919903	-1.305081	-0.455052
H70	H	0.945134	-1.318411	-0.401773
H71	H	0.867091	-1.343824	-0.457664
H72	H	0.955633	-1.340873	-0.498272
O73	O	0.909661	-0.980105	-0.464309
C74	C	0.868419	-1.051863	-0.502376
H75	H	0.867176	-1.128301	-0.473508
H76	H	0.812743	-1.017179	-0.507604
H77	H	0.891987	-1.068135	-0.556795
H78	H	1.072754	-0.487616	-0.650827
O79	O	0.736548	-0.710461	-0.457308
C80	C	0.686841	-0.769134	-0.494964
H81	H	0.634436	-0.722984	-0.495351
H82	H	0.705840	-0.784957	-0.551165
H83	H	0.680053	-0.846903	-0.468829
H84	H	1.180395	-1.188881	-0.214990
O85	O	1.074320	-0.485412	-0.789905
C86	C	1.115916	-0.425828	-0.743388
H87	H	1.120432	-0.466022	-0.691170
H88	H	1.170434	-0.419307	-0.766824
H89	H	1.090519	-0.343977	-0.734554
H90	H	0.273372	-0.479088	-0.308727
H91	H	1.099687	-0.448998	-0.982009
H92	H	0.604534	-0.437283	-0.281867
H93	H	0.936564	-0.682588	-0.975413
H94	H	0.266865	-0.732601	-0.471498
H95	H	0.406503	-0.487401	-0.314049
H96	H	1.094350	-0.456614	-1.115147
O97	O	0.743755	-0.434871	-0.280473
C98	C	0.784632	-0.372065	-0.322256
H99	H	0.760316	-0.367492	-0.376722
H100	H	0.786481	-0.289756	-0.296968
H101	H	0.840152	-0.408157	-0.326864
H102	H	0.931226	-0.690196	-1.108541
H103	H	0.400006	-0.740911	-0.476826
O104	O	0.897097	-0.739374	-0.782872
C105	C	0.935386	-0.812148	-0.826937
H106	H	0.991614	-0.820839	-0.807050
H107	H	0.909919	-0.891456	-0.826735
H108	H	0.935588	-0.783000	-0.882655
O109	O	1.095531	-0.872652	-0.293047
C110	C	1.146810	-0.836226	-0.245746
H111	H	1.188289	-0.901417	-0.237600
H112	H	1.172581	-0.765649	-0.268025
H113	H	1.121025	-0.812157	-0.193364
O114	O	1.187627	-0.981336	-0.208072
C115	C	1.175123	-1.003233	-0.137415
H116	H	1.148202	-1.081165	-0.134869
H117	H	1.227121	-1.008314	-0.107988
H118	H	1.139937	-0.937929	-0.112254
H119	H	0.909618	-0.721182	-0.644221
