data_functionalizedCrystal
_audit_creation_method	'MofGen! by Chris Wilmer'
_symmetry_space_group_name_H-M	'P1'
_symmetry_Int_Tables_number	1
_symmetry_cell_setting	triclinic
loop_
_symmetry_equiv_pos_as_xyz
  x,y,z
_cell_length_a	25.639242
_cell_length_b	25.639239
_cell_length_c	21.395355
_cell_angle_alpha	89.980666
_cell_angle_beta	89.966687
_cell_angle_gamma	90.034213
loop_
_atom_site_label
_atom_site_type_symbol
_atom_site_fract_x
_atom_site_fract_y
_atom_site_fract_z
Zn1	Zn	0.799283	-0.208274	-0.354404
Zn2	Zn	1.049283	0.041726	-0.104404
Zn3	Zn	1.299283	0.291726	0.145596
Zn4	Zn	1.549283	0.541726	0.395596
Zn5	Zn	0.799189	-0.295693	-0.249625
Zn6	Zn	1.049189	-0.045693	0.000375
Zn7	Zn	1.299189	0.204307	0.250375
Zn8	Zn	1.549189	0.454307	0.500375
Zn9	Zn	0.711842	-0.208267	-0.249625
Zn10	Zn	0.961842	0.041733	0.000375
Zn11	Zn	1.211842	0.291733	0.250375
Zn12	Zn	1.461842	0.541733	0.500375
Zn13	Zn	0.711804	-0.295673	-0.354349
Zn14	Zn	0.961804	-0.045673	-0.104349
Zn15	Zn	1.211804	0.204327	0.145651
Zn16	Zn	1.461804	0.454327	0.395651
O17	O	0.755529	-0.251977	-0.302001
O18	O	1.005529	-0.001977	-0.052001
O19	O	1.255529	0.248023	0.197999
O20	O	1.505529	0.498023	0.447999
O21	O	0.872435	-0.219881	-0.340528
O22	O	1.122435	0.030119	-0.090528
O23	O	1.372435	0.280119	0.159472
O24	O	1.622435	0.530119	0.409472
O25	O	0.787579	-0.284102	-0.161947
O26	O	1.037579	-0.034102	0.088053
O27	O	1.287579	0.215898	0.338053
O28	O	1.537579	0.465898	0.588053
O29	O	0.723496	-0.135103	-0.263547
O30	O	0.973496	0.114897	-0.013547
O31	O	1.223496	0.364897	0.236453
O32	O	1.473496	0.614897	0.486453
O33	O	0.872367	-0.284108	-0.263547
O34	O	1.122367	-0.034108	-0.013547
O35	O	1.372367	0.215892	0.236453
O36	O	1.622367	0.465892	0.486453
O37	O	0.787738	-0.135108	-0.340528
O38	O	1.037738	0.114892	-0.090528
O39	O	1.287738	0.364892	0.159472
O40	O	1.537738	0.614892	0.409472
O41	O	0.723405	-0.219870	-0.161947
O42	O	0.973405	0.030130	0.088053
O43	O	1.223405	0.280130	0.338053
O44	O	1.473405	0.530130	0.588053
O45	O	0.638672	-0.219850	-0.263494
O46	O	0.888672	0.030150	-0.013494
O47	O	1.138672	0.280150	0.236506
O48	O	1.388672	0.530150	0.486506
O49	O	0.723432	-0.284074	-0.442035
O50	O	0.973432	-0.034074	-0.192035
O51	O	1.223432	0.215926	0.057965
O52	O	1.473432	0.465926	0.307965
O53	O	0.638644	-0.284067	-0.340434
O54	O	0.888644	-0.034067	-0.090434
O55	O	1.138644	0.215933	0.159566
O56	O	1.388644	0.465933	0.409566
O57	O	0.787702	-0.219862	-0.442075
O58	O	1.037702	0.030138	-0.192075
O59	O	1.287702	0.280138	0.057925
O60	O	1.537702	0.530138	0.307925
O61	O	0.787542	-0.368856	-0.263494
O62	O	1.037542	-0.118856	-0.013494
O63	O	1.287542	0.131144	0.236506
O64	O	1.537542	0.381144	0.486506
O65	O	0.723341	-0.368841	-0.340435
O66	O	0.973341	-0.118841	-0.090435
O67	O	1.223341	0.131159	0.159565
O68	O	1.473341	0.381159	0.409565
C69	C	0.619687	-0.251956	-0.301959
C70	C	0.869687	-0.001956	-0.051959
C71	C	1.119687	0.248044	0.198041
C72	C	1.369687	0.498044	0.448041
C73	C	0.561573	-0.251960	-0.301955
C74	C	0.811573	-0.001960	-0.051955
C75	C	1.061573	0.248040	0.198045
C76	C	1.311573	0.498040	0.448045
C77	C	0.201204	-0.285470	-0.342026
C78	C	0.451204	-0.035470	-0.092026
C79	C	0.701204	0.214530	0.157974
C80	C	0.951204	0.464530	0.407974
C81	C	0.146600	-0.285474	-0.342036
C82	C	0.396600	-0.035474	-0.092036
C83	C	0.646600	0.214526	0.157964
C84	C	0.896600	0.464526	0.407964
O85	O	0.118358	-0.313940	-0.376070
O86	O	0.368358	-0.063940	-0.126070
O87	O	0.618358	0.186060	0.123930
O88	O	0.868358	0.436060	0.373930
N89	N	0.119290	-0.251991	-0.302042
N90	N	0.369290	-0.001991	-0.052042
N91	N	0.619290	0.248009	0.197958
N92	N	0.869290	0.498009	0.447958
C93	C	0.146588	-0.218500	-0.262040
C94	C	0.396588	0.031500	-0.012040
C95	C	0.646588	0.281500	0.237960
C96	C	0.896588	0.531500	0.487960
O97	O	0.118345	-0.190020	-0.228023
O98	O	0.368345	0.059980	0.021977
O99	O	0.618345	0.309980	0.271977
O100	O	0.868345	0.559980	0.521977
C101	C	0.201191	-0.218494	-0.262034
C102	C	0.451191	0.031506	-0.012034
C103	C	0.701191	0.281506	0.237966
C104	C	0.951191	0.531506	0.487966
C105	C	0.228498	-0.251983	-0.302026
C106	C	0.478498	-0.001983	-0.052026
C107	C	0.728498	0.248017	0.197974
C108	C	0.978498	0.498017	0.447974
C109	C	0.228511	-0.318956	-0.382015
C110	C	0.478511	-0.068956	-0.132015
C111	C	0.728511	0.181044	0.117985
C112	C	0.978511	0.431044	0.367985
C113	C	0.283111	-0.318953	-0.382004
C114	C	0.533111	-0.068953	-0.132004
C115	C	0.783111	0.181047	0.117996
C116	C	1.033111	0.431047	0.367996
C117	C	0.310405	-0.285465	-0.342004
C118	C	0.560405	-0.035465	-0.092004
C119	C	0.810405	0.214535	0.157996
C120	C	1.060405	0.464535	0.407996
C121	C	0.283098	-0.251980	-0.302015
C122	C	0.533098	-0.001980	-0.052015
C123	C	0.783098	0.248020	0.197985
C124	C	1.033098	0.498020	0.447985
C125	C	0.228488	-0.185000	-0.222035
C126	C	0.478488	0.065000	0.027965
C127	C	0.728488	0.315000	0.277965
C128	C	0.978488	0.565000	0.527965
C129	C	0.283095	-0.184998	-0.222033
C130	C	0.533095	0.065002	0.027967
C131	C	0.783095	0.315002	0.277967
C132	C	1.033095	0.565002	0.527967
C133	C	0.310402	-0.218486	-0.262025
C134	C	0.560402	0.031514	-0.012025
C135	C	0.810402	0.281514	0.237975
C136	C	1.060402	0.531514	0.487975
C137	C	0.364993	-0.218489	-0.262004
C138	C	0.614993	0.031511	-0.012004
C139	C	0.864993	0.281511	0.237996
C140	C	1.114993	0.531511	0.487996
N141	N	0.392302	-0.251972	-0.301998
N142	N	0.642302	-0.001972	-0.051998
N143	N	0.892302	0.248028	0.198002
N144	N	1.142302	0.498028	0.448002
C145	C	0.365008	-0.285460	-0.341998
C146	C	0.615008	-0.035460	-0.091998
C147	C	0.865008	0.214540	0.158002
C148	C	1.115008	0.464540	0.408002
C149	C	0.031917	-0.218513	-0.262057
C150	C	0.281917	0.031487	-0.012057
C151	C	0.531917	0.281487	0.237943
C152	C	0.781917	0.531487	0.487943
C153	C	-0.022685	-0.218521	-0.262059
C154	C	0.227315	0.031479	-0.012059
C155	C	0.477315	0.281479	0.237941
C156	C	0.727315	0.531479	0.487941
C157	C	-0.022669	-0.285494	-0.342056
C158	C	0.227331	-0.035494	-0.092056
C159	C	0.477331	0.214506	0.157944
C160	C	0.727331	0.464506	0.407944
C161	C	0.031934	-0.285489	-0.342050
C162	C	0.281934	-0.035489	-0.092050
C163	C	0.531934	0.214511	0.157950
C164	C	0.781934	0.464511	0.407950
C165	C	0.059227	-0.251995	-0.302051
C166	C	0.309227	-0.001995	-0.052051
C167	C	0.559227	0.248005	0.197949
C168	C	0.809227	0.498005	0.447949
C169	C	0.479674	-0.285452	-0.341972
C170	C	0.729674	-0.035452	-0.091972
C171	C	0.979674	0.214548	0.158028
C172	C	1.229674	0.464548	0.408028
C173	C	0.534279	-0.285448	-0.341955
C174	C	0.784279	-0.035448	-0.091955
C175	C	1.034279	0.214552	0.158045
C176	C	1.284279	0.464552	0.408045
C177	C	0.534259	-0.218473	-0.261961
C178	C	0.784259	0.031527	-0.011961
C179	C	1.034259	0.281527	0.238039
C180	C	1.284259	0.531527	0.488039
C181	C	0.479658	-0.218479	-0.261975
C182	C	0.729658	0.031521	-0.011975
C183	C	0.979658	0.281521	0.238025
C184	C	1.229658	0.531521	0.488025
C185	C	0.452367	-0.251970	-0.301985
C186	C	0.702367	-0.001970	-0.051985
C187	C	0.952367	0.248030	0.198015
C188	C	1.202367	0.498030	0.448015
O189	O	0.393269	-0.190036	-0.227989
O190	O	0.643269	0.059964	0.022011
O191	O	0.893269	0.309964	0.272011
O192	O	1.143269	0.559964	0.522011
O193	O	0.393258	-0.313930	-0.376015
O194	O	0.643258	-0.063930	-0.126015
O195	O	0.893258	0.186070	0.123985
O196	O	1.143258	0.436070	0.373985
C197	C	0.755441	-0.387819	-0.301972
C198	C	1.005441	-0.137819	-0.051972
C199	C	1.255441	0.112181	0.198028
C200	C	1.505441	0.362181	0.448028
C201	C	0.755452	-0.445933	-0.301981
C202	C	1.005452	-0.195933	-0.051981
C203	C	1.255452	0.054067	0.198019
C204	C	1.505452	0.304067	0.448019
C205	C	0.789046	-0.806292	-0.262006
C206	C	1.039046	-0.556292	-0.012006
C207	C	1.289046	-0.306292	0.237994
C208	C	1.539046	-0.056292	0.487994
C209	C	0.789067	-0.860896	-0.262015
C210	C	1.039067	-0.610896	-0.012015
C211	C	1.289067	-0.360896	0.237985
C212	C	1.539067	-0.110896	0.487985
O213	O	0.817539	-0.889129	-0.227996
O214	O	1.067539	-0.639129	0.022004
O215	O	1.317539	-0.389129	0.272004
O216	O	1.567539	-0.139129	0.522004
N217	N	0.755621	-0.888216	-0.302043
N218	N	1.005621	-0.638216	-0.052043
N219	N	1.255621	-0.388216	0.197957
N220	N	1.505621	-0.138216	0.447957
C221	C	0.722157	-0.860929	-0.342069
C222	C	0.972157	-0.610929	-0.092069
C223	C	1.222157	-0.360929	0.157931
C224	C	1.472157	-0.110929	0.407931
O225	O	0.693712	-0.889180	-0.376117
O226	O	0.943712	-0.639180	-0.126117
O227	O	1.193712	-0.389180	0.123883
O228	O	1.443712	-0.139180	0.373883
C229	C	0.722140	-0.806325	-0.342063
C230	C	0.972140	-0.556325	-0.092063
C231	C	1.222140	-0.306325	0.157937
C232	C	1.472140	-0.056325	0.407937
C233	C	0.755584	-0.779008	-0.302028
C234	C	1.005584	-0.529008	-0.052028
C235	C	1.255584	-0.279008	0.197972
C236	C	1.505584	-0.029008	0.447972
C237	C	0.822488	-0.778975	-0.221975
C238	C	1.072488	-0.528975	0.028025
C239	C	1.322488	-0.278975	0.278025
C240	C	1.572488	-0.028975	0.528025
C241	C	0.822467	-0.724374	-0.221966
C242	C	1.072467	-0.474374	0.028034
C243	C	1.322467	-0.224374	0.278034
C244	C	1.572467	0.025626	0.528034
C245	C	0.789004	-0.697091	-0.261988
C246	C	1.039004	-0.447091	-0.011988
C247	C	1.289004	-0.197091	0.238012
C248	C	1.539004	0.052909	0.488012
C249	C	0.755563	-0.724408	-0.302019
C250	C	1.005563	-0.474408	-0.052019
C251	C	1.255563	-0.224408	0.197981
C252	C	1.505563	0.025592	0.447981
C253	C	0.688679	-0.779039	-0.382092
C254	C	0.938679	-0.529039	-0.132092
C255	C	1.188679	-0.279039	0.117908
C256	C	1.438679	-0.029039	0.367908
C257	C	0.688665	-0.724432	-0.382084
C258	C	0.938665	-0.474432	-0.132084
C259	C	1.188665	-0.224432	0.117916
C260	C	1.438665	0.025568	0.367916
C261	C	0.722109	-0.697115	-0.342049
C262	C	0.972109	-0.447115	-0.092049
C263	C	1.222109	-0.197115	0.157951
C264	C	1.472109	0.052885	0.407951
C265	C	0.722079	-0.642524	-0.342032
C266	C	0.972079	-0.392524	-0.092032
C267	C	1.222079	-0.142524	0.157968
C268	C	1.472079	0.107476	0.407968
N269	N	0.755524	-0.615204	-0.302005
N270	N	1.005524	-0.365204	-0.052005
N271	N	1.255524	-0.115204	0.197995
N272	N	1.505524	0.134796	0.447995
C273	C	0.788987	-0.642487	-0.261983
C274	C	1.038987	-0.392487	-0.011983
C275	C	1.288987	-0.142487	0.238017
C276	C	1.538987	0.107513	0.488017
C277	C	0.722197	-0.975599	-0.342079
C278	C	0.972197	-0.725599	-0.092079
C279	C	1.222197	-0.475599	0.157921
C280	C	1.472197	-0.225599	0.407921
C281	C	0.722211	-1.030202	-0.342082
C282	C	0.972211	-0.780202	-0.092082
C283	C	1.222211	-0.530202	0.157918
C284	C	1.472211	-0.280202	0.407918
C285	C	0.789121	-1.030165	-0.262028
C286	C	1.039121	-0.780165	-0.012028
C287	C	1.289121	-0.530165	0.237972
C288	C	1.539121	-0.280165	0.487972
C289	C	0.789104	-0.975562	-0.262022
C290	C	1.039104	-0.725562	-0.012022
C291	C	1.289104	-0.475562	0.237978
C292	C	1.539104	-0.225562	0.487978
C293	C	0.755642	-0.948279	-0.302051
C294	C	1.005642	-0.698279	-0.052051
C295	C	1.255642	-0.448279	0.197949
C296	C	1.505642	-0.198279	0.447949
C297	C	0.788940	-0.527822	-0.261966
C298	C	1.038940	-0.277822	-0.011966
C299	C	1.288940	-0.027822	0.238034
C300	C	1.538940	0.222178	0.488034
C301	C	0.788914	-0.473217	-0.261959
C302	C	1.038914	-0.223217	-0.011959
C303	C	1.288914	0.026783	0.238041
C304	C	1.538914	0.276783	0.488041
C305	C	0.722006	-0.473258	-0.342014
C306	C	0.972006	-0.223258	-0.092014
C307	C	1.222006	0.026742	0.157986
C308	C	1.472006	0.276742	0.407986
C309	C	0.722030	-0.527859	-0.342020
C310	C	0.972030	-0.277859	-0.092020
C311	C	1.222030	-0.027859	0.157980
C312	C	1.472030	0.222141	0.407980
C313	C	0.755501	-0.555139	-0.301994
C314	C	1.005501	-0.305139	-0.051994
C315	C	1.255501	-0.055139	0.198006
C316	C	1.505501	0.194861	0.448006
O317	O	0.693623	-0.614256	-0.376036
O318	O	0.943623	-0.364256	-0.126036
O319	O	1.193623	-0.114256	0.123964
O320	O	1.443623	0.135744	0.373964
O321	O	0.817433	-0.614229	-0.227946
O322	O	1.067433	-0.364229	0.022054
O323	O	1.317433	-0.114229	0.272054
O324	O	1.567433	0.135771	0.522054
C325	C	0.891902	-0.251998	-0.302044
C326	C	1.141902	-0.001998	-0.052044
C327	C	1.391902	0.248002	0.197956
C328	C	1.641902	0.498002	0.447956
C329	C	0.950016	-0.252007	-0.302062
C330	C	1.200016	-0.002007	-0.052062
C331	C	1.450016	0.247993	0.197938
C332	C	1.700016	0.497993	0.447938
C333	C	0.755573	-0.251966	-0.465424
C334	C	1.005573	-0.001966	-0.215424
C335	C	1.255573	0.248034	0.034576
C336	C	1.505573	0.498034	0.284576
C337	C	0.755591	-0.251962	-0.535066
C338	C	1.005591	-0.001962	-0.285066
C339	C	1.255591	0.248038	-0.035066
C340	C	1.505591	0.498038	0.214934
C341	C	0.755632	-0.115604	-0.302044
C342	C	1.005632	0.134396	-0.052044
C343	C	1.255632	0.384396	0.197956
C344	C	1.505632	0.634396	0.447956
C345	C	0.755676	-0.057490	-0.302062
C346	C	1.005676	0.192510	-0.052062
C347	C	1.255676	0.442510	0.197938
C348	C	1.505676	0.692510	0.447938
C349	C	0.789055	-0.218525	-0.567801
C350	C	1.039055	0.031475	-0.317801
C351	C	1.289055	0.281475	-0.067801
C352	C	1.539055	0.531475	0.182199
C353	C	0.789055	-0.218503	-0.633236
C354	C	1.039055	0.031497	-0.383236
C355	C	1.289055	0.281497	-0.133236
C356	C	1.539055	0.531497	0.116764
C357	C	0.755595	-0.251926	-0.665934
C358	C	1.005595	-0.001926	-0.415934
C359	C	1.255595	0.248074	-0.165934
C360	C	1.505595	0.498074	0.084066
C361	C	0.722125	-0.285365	-0.633191
C362	C	0.972125	-0.035365	-0.383191
C363	C	1.222125	0.214635	-0.133191
C364	C	1.472125	0.464635	0.116809
C365	C	0.722123	-0.285383	-0.567757
C366	C	0.972123	-0.035383	-0.317757
C367	C	1.222123	0.214617	-0.067757
C368	C	1.472123	0.464617	0.182243
C369	C	0.751437	-0.299003	-0.769598
C370	C	1.001437	-0.049003	-0.519598
C371	C	1.251437	0.200997	-0.269598
C372	C	1.501437	0.450997	-0.019598
C373	C	0.751442	-0.298986	-0.835031
C374	C	1.001442	-0.048986	-0.585031
C375	C	1.251442	0.201014	-0.335031
C376	C	1.501442	0.451014	-0.085031
C377	C	0.755599	-0.251871	-0.867755
C378	C	1.005599	-0.001871	-0.617755
C379	C	1.255599	0.248129	-0.367755
C380	C	1.505599	0.498129	-0.117755
C381	C	0.759760	-0.204771	-0.835038
C382	C	1.009760	0.045229	-0.585038
C383	C	1.259760	0.295229	-0.335038
C384	C	1.509760	0.545229	-0.085038
C385	C	0.759758	-0.204789	-0.769604
C386	C	1.009758	0.045211	-0.519604
C387	C	1.259758	0.295211	-0.269604
C388	C	1.509758	0.545211	-0.019604
C389	C	0.755594	-0.251910	-0.736886
C390	C	1.005594	-0.001910	-0.486886
C391	C	1.255594	0.248090	-0.236886
C392	C	1.505594	0.498090	0.013114
C393	C	0.789064	-0.218407	-0.971443
C394	C	1.039064	0.031593	-0.721443
C395	C	1.289064	0.281593	-0.471443
C396	C	1.539064	0.531593	-0.221443
C397	C	0.789059	-0.218384	-1.036879
C398	C	1.039059	0.031616	-0.786879
C399	C	1.289059	0.281616	-0.536879
C400	C	1.539059	0.531616	-0.286879
C401	C	0.722132	-0.285251	-1.036833
C402	C	0.972132	-0.035251	-0.786833
C403	C	1.222132	0.214749	-0.536833
C404	C	1.472132	0.464749	-0.286833
C405	C	0.722134	-0.285269	-0.971397
C406	C	0.972134	-0.035269	-0.721397
C407	C	1.222134	0.214731	-0.471397
C408	C	1.472134	0.464731	-0.221397
C409	C	0.755602	-0.251848	-0.938706
C410	C	1.005602	-0.001848	-0.688706
C411	C	1.255602	0.248152	-0.438706
C412	C	1.505602	0.498152	-0.188706
C413	C	0.755516	-0.251950	-0.139213
C414	C	1.005516	-0.001950	0.110787
C415	C	1.255516	0.248050	0.360787
C416	C	1.505516	0.498050	0.610787
C417	C	0.755599	-0.251807	-0.069573
C418	C	1.005599	-0.001807	0.180427
C419	C	1.255599	0.248193	0.430427
C420	C	1.505599	0.498193	0.680427
H421	H	0.305340	-0.346222	-0.414572
H422	H	0.555340	-0.096222	-0.164572
H423	H	0.805340	0.153778	0.085428
H424	H	1.055340	0.403778	0.335428
H425	H	0.661443	-0.801271	-0.414690
H426	H	0.911443	-0.551271	-0.164690
H427	H	1.161443	-0.301271	0.085310
H428	H	1.411443	-0.051271	0.335310
H429	H	0.694944	-0.953388	-0.374673
H430	H	0.944944	-0.703388	-0.124673
H431	H	1.194944	-0.453388	0.125327
H432	H	1.444944	-0.203388	0.375327
H433	H	0.206294	-0.346226	-0.414592
H434	H	0.456294	-0.096226	-0.164592
H435	H	0.706294	0.153774	0.085408
H436	H	0.956294	0.403774	0.335408
H437	H	0.816313	-0.191191	-0.944824
H438	H	1.066313	0.058809	-0.694824
H439	H	1.316313	0.308809	-0.444824
H440	H	1.566313	0.558809	-0.194824
H441	H	0.816370	-1.052389	-0.229442
H442	H	1.066370	-0.802389	0.020558
H443	H	1.316370	-0.552389	0.270558
H444	H	1.566370	-0.302389	0.520558
H445	H	0.206264	-0.157732	-0.189468
H446	H	0.456264	0.092268	0.060532
H447	H	0.706264	0.342268	0.310532
H448	H	0.956264	0.592268	0.560532
H449	H	0.816148	-0.450977	-0.229356
H450	H	1.066148	-0.200977	0.020644
H451	H	1.316148	0.049023	0.270644
H452	H	1.566148	0.299023	0.520644
H453	H	0.054136	-0.191239	-0.229480
H454	H	0.304136	0.058761	0.020520
H455	H	0.554136	0.308761	0.270520
H456	H	0.804136	0.558761	0.520520
H457	H	0.054163	-0.312757	-0.374616
H458	H	0.304163	-0.062757	-0.124616
H459	H	0.554163	0.187243	0.125384
H460	H	0.804163	0.437243	0.375384
H461	H	0.694884	-0.312459	-1.063455
H462	H	0.944884	-0.062459	-0.813455
H463	H	1.194884	0.187541	-0.563455
H464	H	1.444884	0.437541	-0.313455
H465	H	0.694973	-1.052439	-0.374676
H466	H	0.944973	-0.802439	-0.124676
H467	H	1.194973	-0.552439	0.125324
H468	H	1.444973	-0.302439	0.375324
H469	H	0.305314	-0.157720	-0.189463
H470	H	0.555314	0.092280	0.060537
H471	H	0.805314	0.342280	0.310537
H472	H	1.055314	0.592280	0.560537
H473	H	0.816196	-0.550028	-0.229375
H474	H	1.066196	-0.300028	0.020625
H475	H	1.316196	-0.050028	0.270625
H476	H	1.566196	0.199972	0.520625
H477	H	0.457424	-0.191211	-0.229409
H478	H	0.707424	0.058789	0.020591
H479	H	0.957424	0.308789	0.270591
H480	H	1.207424	0.558789	0.520591
H481	H	0.556491	-0.191209	-0.229392
H482	H	0.806491	0.058791	0.020608
H483	H	1.056491	0.308791	0.270608
H484	H	1.306491	0.558791	0.520608
H485	H	0.849701	-0.702136	-0.189368
H486	H	1.099701	-0.452136	0.060632
H487	H	1.349701	-0.202136	0.310632
H488	H	1.599701	0.047864	0.560632
H489	H	0.457460	-0.312723	-0.374553
H490	H	0.707460	-0.062723	-0.124553
H491	H	0.957460	0.187277	0.125447
H492	H	1.207460	0.437277	0.375447
H493	H	-0.044902	-0.312760	-0.374629
H494	H	0.205098	-0.062760	-0.124629
H495	H	0.455098	0.187240	0.125371
H496	H	0.705098	0.437240	0.375371
H497	H	0.849740	-0.801183	-0.189384
H498	H	1.099740	-0.551183	0.060616
H499	H	1.349740	-0.301183	0.310616
H500	H	1.599740	-0.051183	0.560616
H501	H	0.816337	-0.953323	-0.229423
H502	H	1.066337	-0.703323	0.020577
H503	H	1.316337	-0.453323	0.270577
H504	H	1.566337	-0.203323	0.520577
H505	H	0.661417	-0.702221	-0.414682
H506	H	0.911417	-0.452221	-0.164682
H507	H	1.161417	-0.202221	0.085318
H508	H	1.411417	0.047779	0.335318
H509	H	0.694799	-0.550101	-0.374621
H510	H	0.944799	-0.300101	-0.124621
H511	H	1.194799	-0.050101	0.125379
H512	H	1.444799	0.199899	0.375379
H513	H	0.816309	-0.191153	-1.063531
H514	H	1.066309	0.058847	-0.813531
H515	H	1.316309	0.308847	-0.563531
H516	H	1.566309	0.558847	-0.313531
H517	H	-0.044913	-0.191256	-0.229487
H518	H	0.205087	0.058744	0.020513
H519	H	0.455087	0.308744	0.270513
H520	H	0.705087	0.558744	0.520513
H521	H	0.694887	-0.312500	-0.944744
H522	H	0.944887	-0.062500	-0.694744
H523	H	1.194887	0.187500	-0.444744
H524	H	1.444887	0.437500	-0.194744
H525	H	0.694760	-0.451035	-0.374598
H526	H	0.944760	-0.201035	-0.124598
H527	H	1.194760	0.048965	0.125402
H528	H	1.444760	0.298965	0.375402
H529	H	0.816307	-0.191310	-0.541188
H530	H	1.066307	0.058690	-0.291188
H531	H	1.316307	0.308690	-0.041188
H532	H	1.566307	0.558690	0.208812
H533	H	0.748057	-0.337338	-0.861664
H534	H	0.998057	-0.087338	-0.611664
H535	H	1.248057	0.162662	-0.361664
H536	H	1.498057	0.412662	-0.111664
H537	H	0.816304	-0.191272	-0.659894
H538	H	1.066304	0.058728	-0.409894
H539	H	1.316304	0.308728	-0.159894
H540	H	1.566304	0.558728	0.090106
H541	H	0.556510	-0.312720	-0.374522
H542	H	0.806510	-0.062720	-0.124522
H543	H	1.056510	0.187280	0.125478
H544	H	1.306510	0.437280	0.375478
H545	H	0.763145	-0.166439	-0.742968
H546	H	1.013145	0.083561	-0.492968
H547	H	1.263145	0.333561	-0.242968
H548	H	1.513145	0.583561	0.007032
H549	H	0.763146	-0.166405	-0.861680
H550	H	1.013146	0.083595	-0.611680
H551	H	1.263146	0.333595	-0.361680
H552	H	1.513146	0.583595	-0.111680
H553	H	0.694870	-0.312610	-0.541104
H554	H	0.944870	-0.062610	-0.291104
H555	H	1.194870	0.187390	-0.041104
H556	H	1.444870	0.437390	0.208896
H557	H	0.694880	-0.312577	-0.659818
H558	H	0.944880	-0.062577	-0.409818
H559	H	1.194880	0.187423	-0.159818
H560	H	1.444880	0.437423	0.090182
H561	H	0.747912	-0.337360	-0.742960
H562	H	0.997912	-0.087360	-0.492960
H563	H	1.247912	0.162640	-0.242960
H564	H	1.497912	0.412640	0.007040
