data_functionalizedCrystal
_audit_creation_method	'MofGen! by Chris Wilmer'
_symmetry_space_group_name_H-M	'P1'
_symmetry_Int_Tables_number	1
_symmetry_cell_setting	triclinic
loop_
_symmetry_equiv_pos_as_xyz
  x,y,z
_cell_length_a	14.971491
_cell_length_b	10.489716
_cell_length_c	13.448316
_cell_angle_alpha	89.997460
_cell_angle_beta	89.991393
_cell_angle_gamma	84.072686
loop_
_atom_site_label
_atom_site_type_symbol
_atom_site_fract_x
_atom_site_fract_y
_atom_site_fract_z
O1	O	1.187880	0.166256	-0.082725
O2	O	1.687880	0.666256	0.417275
O3	O	0.927593	0.186154	-0.082717
O4	O	1.427593	0.686154	0.417283
O5	O	1.063671	-0.009463	-0.082725
O6	O	1.563671	0.490537	0.417275
O7	O	1.051803	0.361873	-0.082717
O8	O	1.551803	0.861873	0.417283
O9	O	1.063654	-0.009475	0.082659
O10	O	1.563654	0.490525	0.582659
O11	O	0.927576	0.186142	0.082667
O12	O	1.427576	0.686142	0.582667
O13	O	1.187863	0.166244	0.082658
O14	O	1.687863	0.666244	0.582658
Cu15	Cu	1.057718	0.176192	0.097763
Cu16	Cu	1.557718	0.676192	0.597763
Cu17	Cu	1.057738	0.176206	-0.097822
Cu18	Cu	1.557738	0.676206	0.402178
O19	O	1.051785	0.361861	0.082666
O20	O	1.551785	0.861861	0.582666
C21	C	0.894255	0.185257	-0.000024
C22	C	1.394255	0.685257	0.499976
C23	C	0.794943	0.182587	-0.000021
C24	C	1.294943	0.682587	0.499979
C25	C	0.367182	0.171071	-0.090195
C26	C	0.867182	0.671071	0.409805
C27	C	0.460496	0.173576	-0.090192
C28	C	0.960496	0.673576	0.409808
C29	C	0.507140	0.174830	-0.000037
C30	C	1.007140	0.674830	0.499963
C31	C	0.460465	0.173566	0.090119
C32	C	0.960465	0.673566	0.590119
C33	C	0.367153	0.171052	0.090114
C34	C	0.867153	0.671052	0.590114
C35	C	0.654956	0.178810	0.090123
C36	C	1.154956	0.678810	0.590123
C37	C	0.748274	0.181327	0.090128
C38	C	1.248274	0.681327	0.590128
C39	C	0.748299	0.181334	-0.090183
C40	C	1.248299	0.681334	0.409817
C41	C	0.654987	0.178820	-0.090188
C42	C	1.154987	0.678820	0.409812
C43	C	0.608319	0.177558	-0.000031
C44	C	1.108319	0.677558	0.499969
C45	C	1.062770	-0.056991	-0.000036
C46	C	1.562770	0.443009	0.499964
C47	C	1.060103	-0.198591	-0.000045
C48	C	1.560103	0.301409	0.499955
C49	C	1.143550	-0.297229	-0.000039
C50	C	1.643550	0.202771	0.499961
C51	C	1.099463	-0.374075	-0.081578
C52	C	1.599463	0.125925	0.418422
C53	C	1.099427	-0.374050	0.081478
C54	C	1.599427	0.125950	0.581478
C55	C	1.016051	-0.273572	-0.081651
C56	C	1.516051	0.226428	0.418349
C57	C	1.016026	-0.273542	0.081478
C58	C	1.516026	0.226458	0.581478
C59	C	0.971878	-0.350338	-0.000081
C60	C	1.471878	0.149662	0.499919
C61	C	1.221201	0.167141	-0.000037
C62	C	1.721201	0.667141	0.499963
C63	C	1.320513	0.169811	-0.000046
C64	C	1.820513	0.669811	0.499954
C65	C	1.052686	0.409389	-0.000025
C66	C	1.552686	0.909389	0.499975
C67	C	1.055354	0.550989	-0.000022
C68	C	1.555354	1.050989	0.499978
N69	N	1.057710	0.176181	0.235328
N70	N	1.557710	0.676181	0.735328
N71	N	1.057753	0.176207	-0.235386
N72	N	1.557753	0.676207	0.264614
C73	C	1.117984	0.089597	0.287365
C74	C	1.617984	0.589597	0.787365
C75	C	1.117990	0.089596	0.391468
C76	C	1.617990	0.589596	0.891468
C77	C	1.057725	0.176186	0.443532
C78	C	1.557725	0.676186	0.943532
C79	C	0.997444	0.262774	0.391488
C80	C	1.497444	0.762774	0.891488
C81	C	0.997435	0.262768	0.287387
C82	C	1.497435	0.762768	0.787387
C83	C	0.997469	0.262783	0.608468
C84	C	1.497469	0.762783	1.108468
C85	C	0.997479	0.262791	0.712577
C86	C	1.497479	0.762791	1.212577
C87	C	1.118024	0.089611	0.712549
C88	C	1.618024	0.589611	1.212549
C89	C	1.118015	0.089605	0.608448
C90	C	1.618015	0.589605	1.108448
C91	C	1.057735	0.176195	0.556411
C92	C	1.557735	0.676195	1.056411
H93	H	0.329211	0.170059	-0.163610
H94	H	0.829211	0.670059	0.336390
H95	H	0.329156	0.170040	0.163523
H96	H	0.829156	0.670040	0.663523
H97	H	1.216135	-0.273391	-0.000124
H98	H	1.716135	0.226609	0.499876
H99	H	0.980850	-0.229856	-0.150662
H100	H	1.480850	0.270144	0.349338
H101	H	0.616960	0.177799	0.163538
H102	H	1.116960	0.677799	0.663538
H103	H	1.134696	-0.417971	-0.150517
H104	H	1.634696	0.082029	0.349483
H105	H	0.948370	0.333273	0.433885
H106	H	1.448370	0.833273	0.933885
H107	H	0.899239	-0.373930	-0.000123
H108	H	1.399239	0.126070	0.499877
H109	H	0.980824	-0.229623	0.150419
H110	H	1.480824	0.270377	0.650419
H111	H	1.134663	-0.417935	0.150411
H112	H	1.634663	0.082065	0.650411
H113	H	0.948352	0.333272	0.245019
H114	H	1.448352	0.833272	0.745019
H115	H	0.786248	0.182355	0.163540
H116	H	1.286248	0.682355	0.663540
H117	H	1.167063	0.019091	0.244981
H118	H	1.667063	0.519091	0.744981
H119	H	1.167069	0.019092	0.433836
H120	H	1.667069	0.519092	0.933836
H121	H	1.167091	0.019103	0.566057
H122	H	1.667091	0.519103	1.066057
H123	H	1.167106	0.019106	0.754924
H124	H	1.667106	0.519106	1.254924
H125	H	0.498450	0.174580	0.163524
H126	H	0.998450	0.674580	0.663524
H127	H	0.498490	0.174594	-0.163600
H128	H	0.998490	0.674594	0.336400
H129	H	0.948404	0.333300	0.754963
H130	H	1.448404	0.833300	1.254963
H131	H	0.948379	0.333289	0.566103
H132	H	1.448379	0.833289	1.066103
H133	H	0.617012	0.177807	-0.163599
H134	H	1.117012	0.677807	0.336401
H135	H	0.786301	0.182363	-0.163592
H136	H	1.286301	0.682363	0.336408
