data_functionalizedCrystal
_audit_creation_method	'MofGen! by Chris Wilmer'
_symmetry_space_group_name_H-M	'P1'
_symmetry_Int_Tables_number	1
_symmetry_cell_setting	triclinic
loop_
_symmetry_equiv_pos_as_xyz
  x,y,z
_cell_length_a	16.956984
_cell_length_b	16.053802
_cell_length_c	16.992695
_cell_angle_alpha	87.258926
_cell_angle_beta	83.360821
_cell_angle_gamma	92.389299
loop_
_atom_site_label
_atom_site_type_symbol
_atom_site_fract_x
_atom_site_fract_y
_atom_site_fract_z
O1	O	1.063242	0.069433	0.028849
O2	O	0.832831	0.069434	0.056264
O3	O	0.947113	0.069427	-0.071526
O4	O	0.948961	0.069441	0.156639
O5	O	0.940821	-0.069431	-0.064519
O6	O	0.826539	-0.069424	0.063271
O7	O	1.056950	-0.069425	0.035855
Zn8	Zn	0.940746	-0.091471	0.050676
Zn9	Zn	0.949036	0.091481	0.041444
O10	O	0.942669	-0.069418	0.163646
C11	C	0.800067	0.000005	0.061171
C12	C	0.711812	0.000006	0.065345
C13	C	0.675280	-0.000000	-0.004440
C14	C	0.592356	0.000006	-0.000514
C15	C	0.545964	0.000012	0.073198
C16	C	0.582501	0.000020	0.142989
C17	C	0.665424	0.000020	0.139062
C18	C	0.297430	0.000019	0.092637
C19	C	0.214501	0.000017	0.096559
C20	C	0.224362	0.000004	-0.046944
C21	C	0.307286	-0.000001	-0.050864
C22	C	0.343816	0.000012	0.018925
N23	N	0.461201	0.000016	0.077213
N24	N	0.428578	0.000014	0.014909
N25	N	0.935094	-0.216331	0.056975
C26	C	0.983741	-0.260028	0.002617
C27	C	0.979795	-0.347435	0.007031
C28	C	0.927206	-0.391143	0.065806
C29	C	0.878553	-0.347440	0.120167
C30	C	0.882496	-0.260035	0.115749
C31	C	0.909984	-0.652551	0.085081
C32	C	0.906047	-0.739962	0.089496
C33	C	1.007288	-0.739952	-0.023642
C34	C	1.011229	-0.652545	-0.028051
C35	C	0.962573	-0.608849	0.026307
N36	N	0.923173	-0.480486	0.070321
N37	N	0.966603	-0.519508	0.021788
C38	C	1.089715	0.000006	0.030948
C39	C	1.177970	0.000011	0.026774
C40	C	0.941590	-0.000002	-0.097081
C41	C	0.934500	-0.000002	-0.183666
N42	N	0.954694	0.216341	0.035138
C43	C	1.002914	-0.000003	-0.238341
C44	C	0.996248	0.000005	-0.319696
C45	C	0.921165	0.000008	-0.346374
C46	C	0.852745	0.000012	-0.291692
C47	C	0.859413	0.000010	-0.210339
C48	C	0.893530	0.000020	-0.588181
C49	C	0.886867	0.000019	-0.669540
C50	C	1.030371	0.000014	-0.697538
C51	C	1.037031	0.000007	-0.616182
C52	C	0.968612	0.000015	-0.561508
N53	N	0.914349	0.000014	-0.429531
N54	N	0.975429	0.000016	-0.478353
C55	C	0.948191	0.000013	0.189201
C56	C	0.955282	0.000018	0.275785
H57	H	1.026568	-0.224447	-0.045241
C58	C	0.871076	-0.518579	0.128559
C59	C	0.856516	-0.604528	0.144842
H60	H	0.838065	-0.488930	0.165456
H61	H	0.925257	-0.504246	0.132905
H62	H	0.859768	-0.504269	0.076276
H63	H	0.867831	-0.618838	0.197123
H64	H	0.802324	-0.618866	0.140504
H65	H	0.695167	0.000021	0.195888
C66	C	0.101625	0.000008	-0.104646
C67	C	0.184206	0.000003	-0.123654
H68	H	0.076838	0.000014	-0.152008
H69	H	0.083820	-0.048412	-0.072088
H70	H	0.088213	0.048434	-0.076963
H71	H	0.197619	-0.048428	-0.151333
H72	H	0.202019	0.048427	-0.156226
C73	C	0.486756	0.071404	0.227050
C74	C	0.531506	0.000026	0.224014
H75	H	0.455271	0.071401	0.277071
H76	H	0.521502	0.119819	0.220097
H77	H	0.453134	0.071391	0.186046
H78	H	0.565132	0.000042	0.265015
H79	H	0.496755	-0.048402	0.230975
C80	C	1.025596	-0.554755	-0.140679
C81	C	1.068803	-0.604728	-0.093010
H82	H	1.061076	-0.525299	-0.180881
H83	H	0.989024	-0.589022	-0.164513
H84	H	0.997395	-0.516045	-0.108973
H85	H	1.097000	-0.643443	-0.124715
H86	H	1.105389	-0.570459	-0.069175
C87	C	1.138761	-0.000020	-0.339198
C88	C	1.071452	-0.000006	-0.379794
H89	H	1.185189	-0.000032	-0.376302
H90	H	1.140577	0.048400	-0.309328
H91	H	1.136169	-0.048447	-0.304441
H92	H	1.074040	0.048425	-0.414547
H93	H	1.069636	-0.048430	-0.409678
C94	C	1.172884	0.000011	-0.717040
C95	C	1.105575	0.000014	-0.757637
H96	H	1.219314	0.000009	-0.754144
H97	H	1.174692	0.048430	-0.687168
H98	H	1.170301	-0.048417	-0.682285
H99	H	1.108156	0.048445	-0.792388
H100	H	1.103768	-0.048410	-0.787523
H101	H	0.842881	-0.224457	0.160012
H102	H	1.019406	-0.383013	-0.037232
C103	C	0.317749	0.071414	0.210142
C104	C	0.337563	0.000030	0.169358
H105	H	0.342520	0.071418	0.257513
H106	H	0.335568	0.119826	0.177576
H107	H	0.261720	0.071402	0.223007
H108	H	0.393591	0.000046	0.156488
H109	H	0.319748	-0.048393	0.201930
H110	H	0.825722	0.000009	-0.691256
C111	C	1.013314	-0.838255	-0.126055
C112	C	1.060758	-0.787985	-0.083397
H113	H	1.046325	-0.867904	-0.162952
H114	H	0.981439	-0.876789	-0.090418
H115	H	0.980009	-0.804160	-0.153739
H116	H	1.094058	-0.822081	-0.055708
H117	H	1.092645	-0.749446	-0.119040
H118	H	0.863220	-0.775545	0.137361
C119	C	0.501573	-0.071375	-0.075737
C120	C	0.552194	0.000001	-0.077220
H121	H	0.476776	-0.071372	-0.123093
H122	H	0.531522	-0.119792	-0.071849
H123	H	0.462084	-0.071360	-0.031270
H124	H	0.591688	-0.000018	-0.121685
H125	H	0.522244	0.048430	-0.081117
H126	H	0.345053	-0.000009	-0.110889
C127	C	0.083005	0.000009	0.166294
C128	C	0.163503	0.000021	0.177589
H129	H	0.051522	0.000004	0.216317
H130	H	0.073636	0.048426	0.135018
H131	H	0.069261	-0.048421	0.139898
H132	H	0.177249	0.048454	0.203980
H133	H	0.172876	-0.048401	0.208878
H134	H	0.835730	-0.383032	0.168021
H135	H	1.064055	-0.000011	-0.216627
H136	H	1.098172	0.000004	-0.594468
H137	H	0.837817	0.000026	-0.543674
H138	H	0.791611	0.000020	-0.313420
H139	H	0.803702	0.000011	-0.165822
H140	H	0.713047	-0.000008	-0.064464
