data_functionalizedCrystal
_audit_creation_method	'MofGen! by Chris Wilmer'
_symmetry_space_group_name_H-M	'P1'
_symmetry_Int_Tables_number	1
_symmetry_cell_setting	triclinic
loop_
_symmetry_equiv_pos_as_xyz
  x,y,z
_cell_length_a	19.077312
_cell_length_b	13.033855
_cell_length_c	19.076919
_cell_angle_alpha	94.625887
_cell_angle_beta	85.331053
_cell_angle_gamma	80.847641
loop_
_atom_site_label
_atom_site_type_symbol
_atom_site_fract_x
_atom_site_fract_y
_atom_site_fract_z
Zn1	Zn	1.106337	-0.500460	0.310718
Zn2	Zn	1.439670	-0.167126	0.644051
Zn3	Zn	1.773003	0.166207	0.977385
Zn4	Zn	1.125992	-0.668457	0.177882
Zn5	Zn	1.459325	-0.335124	0.511215
Zn6	Zn	1.792659	-0.001790	0.844549
Zn7	Zn	0.991993	-0.487003	0.198784
Zn8	Zn	1.325326	-0.153670	0.532117
Zn9	Zn	1.658659	0.179664	0.865450
Zn10	Zn	1.003420	-0.668414	0.300469
Zn11	Zn	1.336753	-0.335080	0.633802
Zn12	Zn	1.670086	-0.001747	0.967135
O13	O	1.056935	-0.581083	0.246963
O14	O	1.390269	-0.247750	0.580296
O15	O	1.723602	0.085583	0.913630
O16	O	1.208094	-0.528395	0.288639
O17	O	1.541428	-0.195061	0.621972
O18	O	1.874761	0.138272	0.955306
O19	O	1.111660	-0.638773	0.082507
O20	O	1.444994	-0.305440	0.415840
O21	O	1.778327	0.027894	0.749173
O22	O	0.994153	-0.342560	0.226669
O23	O	1.327486	-0.009226	0.560002
O24	O	1.660819	0.324107	0.893336
O25	O	1.222535	-0.651821	0.191045
O26	O	1.555868	-0.318488	0.524378
O27	O	1.889202	0.014845	0.857712
O28	O	1.078161	-0.352446	0.308907
O29	O	1.411494	-0.019113	0.642240
O30	O	1.744827	0.314220	0.975573
O31	O	1.013212	-0.505460	0.097863
O32	O	1.346545	-0.172126	0.431196
O33	O	1.679878	0.161207	0.764530
O34	O	0.894358	-0.505418	0.216730
O35	O	1.227692	-0.172084	0.550064
O36	O	1.561025	0.161249	0.883397
O37	O	1.013628	-0.651748	0.399976
O38	O	1.346961	-0.318415	0.733309
O39	O	1.680295	0.014919	1.066643
O40	O	0.902753	-0.638700	0.291438
O41	O	1.236087	-0.305366	0.624771
O42	O	1.569420	0.027967	0.958105
O43	O	1.089241	-0.528353	0.407506
O44	O	1.422574	-0.195020	0.740840
O45	O	1.755908	0.138314	1.074173
O46	O	1.122740	-0.814680	0.181106
O47	O	1.456074	-0.481346	0.514440
O48	O	1.789407	-0.148013	0.847773
O49	O	1.032687	-0.814648	0.271170
O50	O	1.366020	-0.481315	0.604504
O51	O	1.699354	-0.147981	0.937837
C52	C	0.872847	-0.570595	0.255240
C53	C	1.206181	-0.237261	0.588574
C54	C	1.539514	0.096072	0.921907
C55	C	0.794095	-0.566133	0.258796
C56	C	1.127429	-0.232800	0.592129
C57	C	1.460762	0.100533	0.925462
C58	C	0.349991	-0.534054	0.284311
C59	C	0.683324	-0.200721	0.617644
C60	C	1.016657	0.132612	0.950978
C61	C	0.423989	-0.538265	0.280965
C62	C	0.757322	-0.204932	0.614298
C63	C	1.090655	0.128401	0.947631
C64	C	0.468490	-0.604518	0.228417
C65	C	0.801823	-0.271185	0.561750
C66	C	1.135156	0.062148	0.895083
C67	C	0.438990	-0.666572	0.179216
C68	C	0.772323	-0.333239	0.512549
C69	C	1.105657	0.000094	0.845883
C70	C	0.364994	-0.662366	0.182566
C71	C	0.698327	-0.329033	0.515899
C72	C	1.031661	0.004300	0.849233
C73	C	0.690600	-0.623981	0.212945
C74	C	1.023933	-0.290648	0.546279
C75	C	1.357266	0.042685	0.879612
C76	C	0.764600	-0.628180	0.209598
C77	C	1.097934	-0.294847	0.542931
C78	C	1.431267	0.038486	0.876264
C79	C	0.749594	-0.499874	0.311348
C80	C	1.082927	-0.166541	0.644681
C81	C	1.416260	0.166792	0.978014
C82	C	0.675597	-0.495670	0.314690
C83	C	1.008930	-0.162336	0.648024
C84	C	1.342263	0.170997	0.981357
C85	C	0.646104	-0.557728	0.265492
C86	C	0.979437	-0.224394	0.598825
C87	C	1.312770	0.108939	0.932159
N88	N	0.544127	-0.608822	0.224993
N89	N	0.877460	-0.275488	0.558327
N90	N	1.210794	0.057845	0.891660
N91	N	0.570468	-0.553429	0.268919
N92	N	0.903801	-0.220096	0.602252
N93	N	1.237134	0.113238	0.935585
C94	C	1.081105	-0.852581	0.222772
C95	C	1.414439	-0.519248	0.556106
C96	C	1.747772	-0.185914	0.889439
C97	C	1.091509	-0.968734	0.212444
C98	C	1.424843	-0.635401	0.545778
C99	C	1.758176	-0.302067	0.879111
C100	C	1.051560	-1.020533	0.252365
C101	C	1.384893	-0.687200	0.585698
C102	C	1.718227	-0.353867	0.919032
C103	C	1.062312	-1.140584	0.241691
C104	C	1.395646	-0.807250	0.575025
C105	C	1.728979	-0.473917	0.908358
C106	C	1.241742	-0.591614	0.238654
C107	C	1.575075	-0.258281	0.571987
C108	C	1.908409	0.075053	0.905320
C109	C	1.320496	-0.596101	0.235113
C110	C	1.653829	-0.262768	0.568446
C111	C	1.987162	0.070565	0.901780
C112	C	1.050517	-0.591547	0.429901
C113	C	1.383850	-0.258213	0.763235
C114	C	1.717183	0.075120	1.096568
C115	C	1.047781	-0.596006	0.507859
C116	C	1.381115	-0.262672	0.841192
C117	C	1.714448	0.070661	1.174526
C118	C	1.032690	-0.308527	0.271263
C119	C	1.366023	0.024806	0.604596
C120	C	1.699356	0.358139	0.937929
C121	C	1.022358	-0.192380	0.281618
C122	C	1.355691	0.140953	0.614951
C123	C	1.689024	0.474286	0.948284
C124	C	1.063363	-0.570588	0.064741
C125	C	1.396696	-0.237254	0.398075
C126	C	1.730030	0.096079	0.731408
C127	C	1.066209	-0.565842	-0.013196
C128	C	1.399542	-0.232509	0.320138
C129	C	1.732876	0.100824	0.653471
C130	C	1.085862	-0.533858	0.548405
C131	C	1.419195	-0.200525	0.881738
C132	C	1.752529	0.132809	1.215072
C133	C	1.083283	-0.538043	0.621655
C134	C	1.416616	-0.204710	0.954988
C135	C	1.749950	0.128623	1.288322
C136	C	1.042627	-0.604382	0.654357
C137	C	1.375960	-0.271049	0.987690
C138	C	1.709294	0.062285	1.321024
C139	C	1.004542	-0.666532	0.613806
C140	C	1.337875	-0.333198	0.947139
C141	C	1.671209	0.000135	1.280472
C142	C	1.007117	-0.662341	0.540558
C143	C	1.340451	-0.329007	0.873891
C144	C	1.673784	0.004326	1.207224
C145	C	1.030699	-0.623801	0.873005
C146	C	1.364033	-0.290468	1.206338
C147	C	1.697366	0.042866	1.539672
C148	C	1.028129	-0.627990	0.946258
C149	C	1.361462	-0.294656	1.279591
C150	C	1.694795	0.038677	1.612925
C151	C	1.106869	-0.499499	0.954103
C152	C	1.440202	-0.166166	1.287436
C153	C	1.773535	0.167168	1.620769
C154	C	1.109444	-0.495318	0.880852
C155	C	1.442777	-0.161985	1.214186
C156	C	1.776111	0.171348	1.547519
C157	C	1.071356	-0.557464	0.840308
C158	C	1.404689	-0.224131	1.173641
C159	C	1.738023	0.109203	1.506975
N160	N	1.039992	-0.608664	0.729230
N161	N	1.373325	-0.275330	1.062563
N162	N	1.706658	0.058003	1.395897
N163	N	1.073988	-0.553176	0.765437
N164	N	1.407321	-0.219843	1.098770
N165	N	1.740654	0.113491	1.432104
H166	H	0.639368	-0.441723	0.357483
H167	H	0.972702	-0.108390	0.690816
H168	H	1.306035	0.224943	1.024149
H169	H	0.800832	-0.682135	0.166805
H170	H	1.134166	-0.348802	0.500138
H171	H	1.467499	-0.015469	0.833472
H172	H	1.009395	-0.976007	0.294443
H173	H	1.342729	-0.642673	0.627776
H174	H	1.676062	-0.309340	0.961109
Br175	Br	0.789624	-0.415662	0.378115
Br176	Br	1.122957	-0.082328	0.711448
Br177	Br	1.456291	0.251005	1.044782
Br178	Br	0.650581	-0.708170	0.146157
Br179	Br	0.983914	-0.374837	0.479491
Br180	Br	1.317247	-0.041504	0.812824
H181	H	0.976100	-0.712937	0.507547
H182	H	1.309433	-0.379603	0.840880
H183	H	1.642767	-0.046270	1.174213
Br184	Br	0.464015	-0.454064	0.347742
Br185	Br	0.797349	-0.120730	0.681075
Br186	Br	1.130682	0.212603	1.014408
H187	H	1.118971	-0.479841	0.521784
H188	H	1.452304	-0.146508	0.855118
H189	H	1.785638	0.186826	1.188451
H190	H	0.475229	-0.720521	0.136433
H191	H	0.808562	-0.387188	0.469766
H192	H	1.141896	-0.053854	0.803099
H193	H	0.340981	-0.712894	0.142505
H194	H	0.674314	-0.379560	0.475838
H195	H	1.007648	-0.046227	0.809171
H196	H	1.104475	-1.185108	0.199607
H197	H	1.437808	-0.851775	0.532940
H198	H	1.771142	-0.518442	0.866273
H199	H	1.142553	-0.441301	0.854232
H200	H	1.475886	-0.107968	1.187565
H201	H	1.809219	0.225365	1.520898
H202	H	0.980190	-1.147856	0.323698
H203	H	1.313523	-0.814523	0.657031
H204	H	1.646857	-0.481189	0.990365
Br205	Br	1.161779	-1.042940	0.142300
Br206	Br	1.495112	-0.709607	0.475633
Br207	Br	1.828446	-0.376274	0.808966
Br208	Br	1.135003	-0.453747	0.676674
Br209	Br	1.468337	-0.120413	1.010007
Br210	Br	1.801670	0.212920	1.343341
H211	H	1.137877	-0.448902	0.987122
H212	H	1.471210	-0.115569	1.320455
H213	H	1.804543	0.217764	1.653788
H214	H	0.995020	-0.682013	0.972881
H215	H	1.328353	-0.348680	1.306215
H216	H	1.661686	-0.015346	1.639548
Br217	Br	0.979007	-0.708140	0.817990
Br218	Br	1.312340	-0.374807	1.151323
Br219	Br	1.645673	-0.041473	1.484656
H220	H	0.313762	-0.480097	0.327098
H221	H	0.647095	-0.146764	0.660431
H222	H	0.980429	0.186569	0.993764
Br223	Br	0.949360	-0.756558	0.658187
Br224	Br	1.282694	-0.423224	0.991520
Br225	Br	1.616027	-0.089891	1.324853
