data_functionalizedCrystal
_audit_creation_method	'MofGen! by Chris Wilmer'
_symmetry_space_group_name_H-M	'P1'
_symmetry_Int_Tables_number	1
_symmetry_cell_setting	triclinic
loop_
_symmetry_equiv_pos_as_xyz
  x,y,z
_cell_length_a	9.065215
_cell_length_b	8.597304
_cell_length_c	7.088638
_cell_angle_alpha	103.973825
_cell_angle_beta	83.701998
_cell_angle_gamma	85.172303
loop_
_atom_site_label
_atom_site_type_symbol
_atom_site_fract_x
_atom_site_fract_y
_atom_site_fract_z
O1	O	1.942052	0.250200	0.200180
O2	O	2.442052	0.750200	0.700180
O3	O	1.512504	0.269401	0.203351
O4	O	2.012504	0.769401	0.703351
O5	O	1.739313	0.027622	0.163515
O6	O	2.239313	0.527622	0.663515
O7	O	1.715242	0.491979	0.240016
O8	O	2.215242	0.991979	0.740016
O9	O	1.769631	-0.004770	-0.159812
O10	O	2.269631	0.495230	0.340188
O11	O	1.542821	0.237009	-0.119976
O12	O	2.042821	0.737009	0.380024
O13	O	1.972369	0.217807	-0.123147
O14	O	2.472369	0.717807	0.376853
Cu15	Cu	1.760363	0.224451	-0.151084
Cu16	Cu	2.260363	0.724451	0.348916
Cu17	Cu	1.724510	0.262758	0.231288
Cu18	Cu	2.224510	0.762758	0.731288
O19	O	1.745559	0.459587	-0.083311
O20	O	2.245559	0.959587	0.416689
C21	C	1.472701	0.251361	0.041385
C22	C	1.972701	0.751361	0.541385
C23	C	1.308933	0.245847	0.040480
C24	C	1.808933	0.745847	0.540480
C25	C	1.753576	-0.048053	-0.007944
C26	C	2.253576	0.451947	0.492056
C27	C	1.750889	-0.225280	-0.037129
C28	C	2.250889	0.274720	0.462871
C29	C	2.012171	0.235848	0.038824
C30	C	2.512171	0.735848	0.538824
C31	C	2.175939	0.241363	0.039741
C32	C	2.675939	0.741363	0.539741
C33	C	1.731296	0.535262	0.088152
C34	C	2.231296	1.035262	0.588152
C35	C	1.733982	0.712491	0.117350
C36	C	2.233982	1.212491	0.617350
N37	N	1.785592	0.197506	-0.420023
N38	N	2.285592	0.697506	0.079977
N39	N	1.699293	0.289690	0.500226
N40	N	2.199293	0.789690	1.000226
H41	H	1.721557	-0.205201	0.271946
H42	H	2.221557	0.294799	0.771946
H43	H	1.763294	-0.307595	-0.191735
H44	H	2.263294	0.192405	0.308265
Cl45	Cl	1.561243	0.437139	0.650640
Cl46	Cl	2.061243	0.937139	1.150640
Cl47	Cl	1.923663	0.050067	0.429556
Cl48	Cl	2.423663	0.550067	0.929556
