data_functionalizedCrystal
_audit_creation_method	'MofGen! by Chris Wilmer'
_symmetry_space_group_name_H-M	'P1'
_symmetry_Int_Tables_number	1
_symmetry_cell_setting	triclinic
loop_
_symmetry_equiv_pos_as_xyz
  x,y,z
_cell_length_a	12.827893
_cell_length_b	18.050590
_cell_length_c	12.827885
_cell_angle_alpha	89.965317
_cell_angle_beta	89.980918
_cell_angle_gamma	90.018714
loop_
_atom_site_label
_atom_site_type_symbol
_atom_site_fract_x
_atom_site_fract_y
_atom_site_fract_z
Zn1	Zn	1.597647	-0.295620	-0.590808
Zn2	Zn	1.597531	-0.419828	-0.416053
Zn3	Zn	1.422888	-0.295657	-0.416082
Zn4	Zn	1.422864	-0.419773	-0.590754
O5	O	1.510232	-0.357720	-0.503424
O6	O	1.743867	-0.312104	-0.567637
O7	O	1.574326	-0.403395	-0.269821
O8	O	1.446129	-0.191727	-0.439294
O9	O	1.743782	-0.403359	-0.439245
O10	O	1.574523	-0.191701	-0.567665
O11	O	1.446017	-0.312167	-0.269842
O12	O	1.276649	-0.312114	-0.439242
O13	O	1.446087	-0.403266	-0.736997
O14	O	1.276631	-0.403301	-0.567573
O15	O	1.574499	-0.312051	-0.737037
O16	O	1.574303	-0.523745	-0.439193
O17	O	1.445975	-0.523705	-0.567545
C18	C	1.238722	-0.357706	-0.503405
C19	C	1.122569	-0.357718	-0.503422
C20	C	0.950759	-0.402923	-0.566842
C21	C	1.070809	-0.402911	-0.566826
C22	C	1.510152	-0.550672	-0.503383
C23	C	1.510213	-0.633218	-0.503400
C24	C	1.580143	-0.832663	-0.433699
C25	C	1.605673	-0.881988	-0.529074
C26	C	1.510273	-0.784348	-0.503441
C27	C	1.484849	-0.882104	-0.408109
C28	C	1.510332	-0.930333	-0.503473
C29	C	1.535851	-0.832586	-0.598866
C30	C	1.414984	-0.832698	-0.477837
C31	C	1.440477	-0.882000	-0.573278
C32	C	1.510241	-0.700250	-0.503422
C33	C	1.510363	-1.014429	-0.503504
C34	C	1.782802	-0.357734	-0.503444
C35	C	1.898956	-0.357740	-0.503452
C36	C	1.510303	-0.357648	-0.775994
C37	C	1.510334	-0.357618	-0.892148
C38	C	1.510341	-0.164014	-0.503489
C39	C	1.510388	-0.081468	-0.503516
C40	C	1.573883	-0.312473	-0.943952
C41	C	1.573916	-0.312441	-1.064003
C42	C	1.510222	-0.357737	-0.231914
C43	C	1.510394	-0.357558	-0.115762
H44	H	1.078026	-0.319031	-0.449153
C45	C	1.647352	-0.260287	-0.883806
N46	N	1.702690	-0.220979	-0.838505
H47	H	1.639250	-0.810999	-0.374782
C48	C	0.890612	-0.455195	-0.640176
N49	N	0.845310	-0.494567	-0.695414
H50	H	1.381415	-0.903527	-0.632338
C51	C	1.714570	-0.911246	-0.558356
N52	N	1.796594	-0.933282	-0.580402
H53	H	1.557299	-0.810927	-0.679570
H54	H	1.628326	-0.273793	-1.108553
C55	C	1.306120	-0.803413	-0.448508
N56	N	1.224125	-0.781352	-0.426405
H57	H	1.115359	-0.441590	-0.621101
C58	C	1.436886	-0.409776	-1.055586
N59	N	1.381518	-0.449106	-1.010254
H60	H	1.463322	-0.903855	-0.327475
H61	H	1.455944	-0.396239	-0.936673
H62	H	0.943481	-0.319052	-0.449167
