data_functionalizedCrystal
_audit_creation_method	'MofGen! by Chris Wilmer'
_symmetry_space_group_name_H-M	'P1'
_symmetry_Int_Tables_number	1
_symmetry_cell_setting	triclinic
loop_
_symmetry_equiv_pos_as_xyz
  x,y,z
_cell_length_a	19.805407
_cell_length_b	19.121063
_cell_length_c	19.805399
_cell_angle_alpha	92.411105
_cell_angle_beta	89.979591
_cell_angle_gamma	92.471006
loop_
_atom_site_label
_atom_site_type_symbol
_atom_site_fract_x
_atom_site_fract_y
_atom_site_fract_z
Zn1	Zn	1.023235	-0.279595	-0.394216
Zn2	Zn	1.523235	0.220405	0.105784
Zn3	Zn	1.018319	-0.397047	-0.285851
Zn4	Zn	1.518319	0.102953	0.214149
Zn5	Zn	0.910049	-0.279618	-0.281040
Zn6	Zn	1.410049	0.220382	0.218960
Zn7	Zn	0.905184	-0.397014	-0.398995
Zn8	Zn	1.405184	0.102986	0.101005
O9	O	0.964197	-0.338318	-0.340026
O10	O	1.464197	0.161682	0.159974
O11	O	1.117299	-0.295179	-0.379855
O12	O	1.617299	0.204821	0.120145
O13	O	1.003935	-0.381494	-0.190497
O14	O	1.503935	0.118506	0.309503
O15	O	0.929157	-0.181330	-0.292040
O16	O	1.429157	0.318670	0.207960
O17	O	1.113687	-0.381471	-0.300240
O18	O	1.613687	0.118529	0.199760
O19	O	1.012314	-0.181313	-0.375190
O20	O	1.512314	0.318687	0.124810
O21	O	0.924390	-0.295219	-0.186963
O22	O	1.424390	0.204781	0.313037
O23	O	0.814687	-0.295187	-0.296674
O24	O	1.314687	0.204813	0.203326
O25	O	0.920865	-0.381414	-0.493077
O26	O	1.420865	0.118586	0.006923
O27	O	0.811113	-0.381437	-0.383334
O28	O	1.311113	0.118563	0.116666
O29	O	1.007597	-0.295147	-0.489566
O30	O	1.507597	0.204853	0.010434
O31	O	0.999218	-0.495328	-0.304873
O32	O	1.499218	0.004672	0.195127
O33	O	0.916098	-0.495303	-0.388000
O34	O	1.416098	0.004697	0.112000
C35	C	0.788341	-0.338311	-0.340001
C36	C	1.288341	0.161689	0.159999
C37	C	0.713108	-0.338325	-0.340007
C38	C	1.213108	0.161675	0.159993
C39	C	0.253198	-0.293470	-0.381577
C40	C	0.753198	0.206530	0.118423
C41	C	0.323887	-0.293472	-0.381572
C42	C	0.823887	0.206528	0.118428
C43	C	0.357347	-0.338329	-0.340048
C44	C	0.857347	0.161671	0.159952
C45	C	0.320114	-0.383193	-0.298531
C46	C	0.820114	0.116807	0.201469
C47	C	0.249427	-0.383195	-0.298540
C48	C	0.749427	0.116805	0.201460
C49	C	0.605187	-0.383188	-0.298495
C50	C	1.105187	0.116812	0.201505
C51	C	0.675880	-0.383181	-0.298487
C52	C	1.175880	0.116819	0.201513
C53	C	0.679648	-0.293464	-0.381528
C54	C	1.179648	0.206536	0.118472
C55	C	0.608960	-0.293466	-0.381536
C56	C	1.108960	0.206534	0.118464
C57	C	0.571734	-0.338333	-0.340022
C58	C	1.071734	0.161667	0.159978
C59	C	0.495085	-0.338332	-0.340029
C60	C	0.995085	0.161668	0.159971
C61	C	0.433994	-0.338327	-0.340037
C62	C	0.933994	0.161673	0.159963
C63	C	0.956615	-0.520800	-0.347492
C64	C	1.456615	-0.020800	0.152508
C65	C	0.953433	-0.598866	-0.350708
C66	C	1.453433	-0.098866	0.149292
C67	C	0.995248	-0.635531	-0.308976
C68	C	1.495248	-0.135531	0.191024
C69	C	0.992259	-0.708882	-0.312005
C70	C	1.492259	-0.208882	0.187995
C71	C	0.947452	-0.745567	-0.356764
C72	C	1.447452	-0.245567	0.143236
C73	C	0.905635	-0.708897	-0.398501
C74	C	1.405635	-0.208897	0.101499
C75	C	0.908628	-0.635547	-0.395475
C76	C	1.408628	-0.135547	0.104525
C77	C	0.936254	-0.967038	-0.368068
C78	C	1.436254	-0.467038	0.131932
C79	C	0.933263	-1.040393	-0.371090
C80	C	1.433263	-0.540393	0.128910
C81	C	1.019889	-1.040374	-0.284595
C82	C	1.519889	-0.540374	0.215405
C83	C	1.022874	-0.967022	-0.281570
C84	C	1.522874	-0.467022	0.218430
C85	C	0.981060	-0.930358	-0.323309
C86	C	1.481060	-0.430358	0.176691
C87	C	0.944395	-0.820544	-0.359860
C88	C	1.444395	-0.320544	0.140140
C89	C	0.984121	-0.855382	-0.320216
C90	C	1.484121	-0.355382	0.179784
C91	C	1.140739	-0.338326	-0.340051
C92	C	1.640739	0.161674	0.159949
C93	C	1.215971	-0.338330	-0.340062
C94	C	1.715971	0.161670	0.159938
C95	C	0.964236	-0.338274	-0.516567
C96	C	1.464236	0.161726	-0.016567
C97	C	0.964253	-0.338255	-0.591798
C98	C	1.464253	0.161745	-0.091798
C99	C	0.971827	-0.155125	-0.332545
C100	C	1.471827	0.344875	0.167455
C101	C	0.975078	-0.077058	-0.329357
C102	C	1.475078	0.422942	0.170643
C103	C	1.009416	-0.293334	-0.625315
C104	C	1.509416	0.206666	-0.125315
C105	C	1.009424	-0.293313	-0.696003
C106	C	1.509424	0.206687	-0.196003
C107	C	0.964272	-0.338219	-0.733172
C108	C	1.464272	0.161781	-0.233172
C109	C	0.919104	-0.383142	-0.699650
C110	C	1.419104	0.116858	-0.199650
C111	C	0.919094	-0.383159	-0.628964
C112	C	1.419094	0.116841	-0.128964
C113	C	0.919145	-0.383077	-0.984721
C114	C	1.419145	0.116923	-0.484721
C115	C	0.919161	-0.383059	-1.055412
C116	C	1.419161	0.116941	-0.555412
C117	C	1.009475	-0.293232	-1.051760
C118	C	1.509475	0.206768	-0.551760
C119	C	1.009465	-0.293248	-0.981073
C120	C	1.509465	0.206752	-0.481073
C121	C	0.964295	-0.338169	-0.947557
C122	C	1.464295	0.161831	-0.447557
C123	C	0.964286	-0.338189	-0.870910
C124	C	1.464286	0.161811	-0.370910
C125	C	0.964283	-0.338202	-0.809819
C126	C	1.464283	0.161798	-0.309819
C127	C	0.964198	-0.338312	-0.164169
C128	C	1.464198	0.161688	0.335831
C129	C	0.964320	-0.338133	-0.088930
C130	C	1.464320	0.161867	0.411070
H131	H	0.709966	-0.256934	-0.415333
H132	H	1.209966	0.243066	0.084667
F133	F	0.711488	-0.430927	-0.254289
F134	F	1.211488	0.069073	0.245711
H135	H	1.046186	-0.256769	-0.595057
H136	H	1.546186	0.243231	-0.095057
H137	H	1.046201	-0.256735	-0.723289
H138	H	1.546201	0.243265	-0.223289
F139	F	0.871101	-0.430855	-1.094970
F140	F	1.371101	0.069145	-0.594970
H141	H	1.046252	-0.256652	-1.079057
H142	H	1.546252	0.243348	-0.579057
F143	F	1.031809	-0.816338	-0.272585
F144	F	1.531809	-0.316338	0.227415
H145	H	0.219117	-0.419726	-0.264735
H146	H	0.719117	0.080274	0.235265
H147	H	0.907911	-0.850422	-0.396301
H148	H	1.407911	-0.350422	0.103699
H149	H	0.869155	-0.738772	-0.434947
H150	H	1.369155	-0.238772	0.065053
F151	F	1.070572	-0.927984	-0.233939
F152	F	1.570572	-0.427984	0.266061
F153	F	0.871072	-0.430886	-0.949060
F154	F	1.371072	0.069114	-0.449060
H155	H	0.882311	-0.419731	-0.601675
H156	H	1.382311	0.080269	-0.101675
F157	F	0.871048	-0.430931	-0.739210
F158	F	1.371048	0.069069	-0.239210
H159	H	0.354194	-0.256945	-0.415381
H160	H	0.854194	0.243055	0.084619
F161	F	1.057523	-0.245456	-0.941519
F162	F	1.557523	0.254544	-0.441519
H163	H	1.053932	-1.070233	-0.250614
H164	H	1.553932	-0.570233	0.249386
F165	F	0.217595	-0.245722	-0.425770
F166	F	0.717595	0.254278	0.074230
H167	H	0.874578	-0.605695	-0.429458
H168	H	1.374578	-0.105695	0.070542
H169	H	0.896784	-1.070260	-0.407549
H170	H	1.396784	-0.570260	0.092451
H171	H	0.581721	-0.256936	-0.415347
H172	H	1.081721	0.243064	0.084653
F173	F	0.565578	-0.430923	-0.254295
F174	F	1.065578	0.069077	0.245705
F175	F	0.355726	-0.430938	-0.254340
F176	F	0.855726	0.069062	0.245660
H177	H	1.031732	-0.605667	-0.272526
H178	H	1.531732	-0.105667	0.227474
H179	H	1.026309	-0.738732	-0.278022
H180	H	1.526309	-0.238732	0.221978
F181	F	0.891750	-0.928027	-0.412491
F182	F	1.391750	-0.428027	0.087509
