data_functionalizedCrystal
_audit_creation_method	'MofGen! by Chris Wilmer'
_symmetry_space_group_name_H-M	'P1'
_symmetry_Int_Tables_number	1
_symmetry_cell_setting	triclinic
loop_
_symmetry_equiv_pos_as_xyz
  x,y,z
_cell_length_a	12.811457
_cell_length_b	15.944493
_cell_length_c	11.295483
_cell_angle_alpha	94.100278
_cell_angle_beta	91.289320
_cell_angle_gamma	83.760055
loop_
_atom_site_label
_atom_site_type_symbol
_atom_site_fract_x
_atom_site_fract_y
_atom_site_fract_z
O1	O	1.388996	0.116031	0.050993
O2	O	1.085751	0.126472	0.018244
O3	O	1.245686	-0.000947	0.035507
O4	O	1.229060	0.243450	0.033731
O5	O	1.231639	0.010227	0.232041
O6	O	1.071704	0.137647	0.214779
O7	O	1.374948	0.127205	0.247528
Cu8	Cu	1.222043	0.133446	0.249098
Cu9	Cu	1.238656	0.120231	0.016674
O10	O	1.215013	0.254625	0.230265
C11	C	1.039923	0.131132	0.112320
C12	C	0.924299	0.128358	0.099833
C13	C	0.691713	0.135313	0.290653
C14	C	0.583073	0.132707	0.278926
C15	C	0.598378	0.120533	0.064652
C16	C	0.707018	0.123140	0.076379
C17	C	0.753681	0.130531	0.189384
C18	C	0.862322	0.133143	0.201110
C19	C	0.877626	0.120964	-0.013163
C20	C	0.768986	0.118357	-0.024890
C21	C	1.237984	-0.026662	0.133695
C22	C	1.235948	-0.119931	0.133460
C23	C	1.330087	-0.354784	0.143650
C24	C	1.286246	-0.411350	0.041266
C25	C	1.232172	-0.290687	0.133067
C26	C	1.272374	-0.400309	0.235031
C27	C	1.228532	-0.455631	0.132693
C28	C	1.188363	-0.346029	0.030606
C29	C	1.174499	-0.334980	0.224460
C30	C	1.130588	-0.391514	0.122045
C31	C	1.234272	-0.195668	0.133282
C32	C	1.226425	-0.550648	0.132469
C33	C	1.420776	0.122545	0.153449
C34	C	1.536401	0.125319	0.165929
C35	C	1.222716	0.280339	0.132074
C36	C	1.224752	0.373608	0.132301
N37	N	1.210366	0.142740	0.412574
N38	N	1.250341	0.110931	-0.146802
C39	C	1.334398	0.043980	0.675251
C40	C	1.325581	0.051010	0.798963
C41	C	1.183911	0.163824	0.783712
C42	C	1.192728	0.156795	0.660000
C43	C	1.267975	0.096871	0.605774
C44	C	1.276796	0.089846	0.482061
C45	C	1.135122	0.202656	0.466812
C46	C	1.126305	0.209686	0.590524
H47	H	0.730979	0.112336	-0.116895
C48	C	1.350015	-0.456217	-0.063367
H49	H	1.420846	-0.443884	-0.055601
H50	H	1.320849	-0.436894	-0.135862
H51	H	1.347708	-0.515558	-0.063168
H52	H	0.928092	0.117075	-0.095624
C53	C	1.140472	-0.313941	-0.086222
H54	H	1.142117	-0.254476	-0.085393
H55	H	1.069846	-0.326753	-0.094138
H56	H	1.179931	-0.340790	-0.151217
C57	C	1.444029	-0.332576	0.155826
H58	H	1.483590	-0.358981	0.090628
H59	H	1.474276	-0.352037	0.227758
H60	H	1.444510	-0.273002	0.156577
C61	C	1.101084	0.229682	0.843363
H62	H	1.062761	0.260160	0.784266
H63	H	1.135037	0.267787	0.895701
H64	H	1.054320	0.201708	0.886906
H65	H	0.560368	0.114502	-0.027351
H66	H	1.081039	0.245727	0.410229
C67	C	1.016572	-0.413517	0.109662
H68	H	0.986879	-0.394864	0.037027
H69	H	0.976679	-0.386271	0.174063
H70	H	1.015824	-0.473000	0.110232
C71	C	0.913654	0.141255	0.325407
H72	H	0.861186	0.143717	0.384039
H73	H	0.947771	0.191397	0.333606
H74	H	0.963662	0.093636	0.335268
H75	H	1.127327	-0.301758	0.301925
H76	H	1.379668	0.007939	0.855528
C77	C	1.320343	-0.432554	0.351736
H78	H	1.391185	-0.420218	0.359257
H79	H	1.318104	-0.491940	0.351086
H80	H	1.281346	-0.405380	0.416869
H81	H	1.338069	0.041056	0.437912
H82	H	1.395674	-0.004806	0.631101
H83	H	1.065037	0.258472	0.634688
H84	H	0.729705	0.141343	0.382665
C85	C	0.514910	0.137973	0.390322
H86	H	0.558264	0.142754	0.459298
H87	H	0.480160	0.088335	0.391055
H88	H	0.464262	0.186094	0.389347
