data_functionalizedCrystal
_audit_creation_method	'MofGen! by Chris Wilmer'
_symmetry_space_group_name_H-M	'P1'
_symmetry_Int_Tables_number	1
_symmetry_cell_setting	triclinic
loop_
_symmetry_equiv_pos_as_xyz
  x,y,z
_cell_length_a	8.634740
_cell_length_b	14.519731
_cell_length_c	7.681481
_cell_angle_alpha	84.245782
_cell_angle_beta	96.618670
_cell_angle_gamma	92.129580
loop_
_atom_site_label
_atom_site_type_symbol
_atom_site_fract_x
_atom_site_fract_y
_atom_site_fract_z
O1	O	2.032368	0.308193	-0.146450
O2	O	2.532368	0.808193	0.353550
O3	O	1.583343	0.282973	-0.146450
O4	O	2.083343	0.782973	0.353550
O5	O	1.819745	0.162390	-0.146434
O6	O	2.319745	0.662390	0.353566
O7	O	1.795966	0.428776	-0.146466
O8	O	2.295966	0.928776	0.353534
O9	O	1.848842	0.147508	0.146426
O10	O	2.348842	0.647508	0.646426
O11	O	1.612440	0.268092	0.146410
O12	O	2.112440	0.768092	0.646410
O13	O	2.061465	0.293311	0.146410
O14	O	2.561465	0.793311	0.646410
Zn15	Zn	1.841572	0.278339	0.192908
Zn16	Zn	2.341572	0.778339	0.692908
Zn17	Zn	1.803236	0.297946	-0.192948
Zn18	Zn	2.303236	0.797946	0.307052
O19	O	1.825063	0.413895	0.146394
O20	O	2.325063	0.913895	0.646394
C21	C	1.540425	0.269819	-0.000020
C22	C	2.040425	0.769819	0.499980
C23	C	1.369193	0.252785	-0.000020
C24	C	1.869193	0.752785	0.499980
C25	C	1.833180	0.120492	-0.000004
C26	C	2.333180	0.620492	0.499996
C27	C	1.829842	0.017818	-0.000003
C28	C	2.329842	0.517818	0.499997
C29	C	1.827129	-0.065564	-0.000007
C30	C	2.327129	0.434436	0.499993
C31	C	1.823738	-0.170170	-0.000020
C32	C	2.323738	0.329830	0.499980
C33	C	1.821046	-0.253545	-0.000031
C34	C	2.321046	0.246455	0.499969
C35	C	1.817656	-0.358158	-0.000042
C36	C	2.317656	0.141842	0.499958
C37	C	2.104383	0.306465	-0.000024
C38	C	2.604383	0.806465	0.499976
C39	C	2.275614	0.323500	-0.000036
C40	C	2.775614	0.823500	0.499964
C41	C	1.811628	0.455793	-0.000040
C42	C	2.311628	0.955793	0.499960
C43	C	1.814965	0.558467	-0.000053
C44	C	2.314965	1.058467	0.499947
N45	N	1.867747	0.264958	0.456244
N46	N	2.367747	0.764958	0.956244
N47	N	1.777073	0.311320	-0.456284
N48	N	2.277073	0.811320	0.043716
H49	H	1.684513	0.358641	0.468513
H50	H	2.184513	0.858641	0.968513
H51	H	1.326497	0.397074	-0.000028
H52	H	1.826497	0.897074	0.499972
C53	C	1.992806	0.201031	0.557828
C54	C	2.492806	0.701031	1.057828
H55	H	2.047079	0.173287	0.476643
H56	H	2.547079	0.673287	0.976643
H57	H	1.944219	0.154103	0.629769
H58	H	2.444219	0.654103	1.129769
H59	H	2.064294	0.236275	0.629724
H60	H	2.564294	0.736275	1.129724
C61	C	1.300459	0.153386	-0.000025
C62	C	1.800459	0.653386	0.499975
H63	H	1.190525	0.154590	-0.000049
H64	H	1.690525	0.654590	0.499951
H65	H	1.344354	0.116931	0.102102
H66	H	1.844354	0.616931	0.602102
H67	H	1.324073	0.127323	-0.102164
H68	H	1.824073	0.627323	0.397836
