data_functionalizedCrystal
_audit_creation_method	'MofGen! by Chris Wilmer'
_symmetry_space_group_name_H-M	'P1'
_symmetry_Int_Tables_number	1
_symmetry_cell_setting	triclinic
loop_
_symmetry_equiv_pos_as_xyz
  x,y,z
_cell_length_a	14.044220
_cell_length_b	11.295483
_cell_length_c	12.837942
_cell_angle_alpha	85.469583
_cell_angle_beta	85.991091
_cell_angle_gamma	85.525227
loop_
_atom_site_label
_atom_site_type_symbol
_atom_site_fract_x
_atom_site_fract_y
_atom_site_fract_z
O1	O	1.286265	-0.098895	-0.245585
O2	O	1.786265	0.401105	0.254415
O3	O	1.009476	-0.098925	-0.236489
O4	O	1.509476	0.401075	0.263511
O5	O	1.141733	-0.098903	-0.089567
O6	O	1.641733	0.401097	0.410433
O7	O	1.154009	-0.098916	-0.392507
O8	O	1.654009	0.401084	0.107493
O9	O	1.130114	0.099146	-0.102450
O10	O	1.630114	0.599146	0.397550
O11	O	0.997858	0.099124	-0.249372
O12	O	1.497858	0.599124	0.250628
O13	O	1.274647	0.099154	-0.258468
O14	O	1.774647	0.599154	0.241532
Cu15	Cu	1.135192	0.117222	-0.255096
Cu16	Cu	1.635192	0.617222	0.244904
Cu17	Cu	1.148932	-0.116993	-0.239861
Cu18	Cu	1.648932	0.383007	0.260139
O19	O	1.142390	0.099132	-0.405390
O20	O	1.642390	0.599132	0.094610
C21	C	0.967993	0.000096	-0.238949
C22	C	1.467993	0.500096	0.261051
C23	C	0.861696	0.000084	-0.227074
C24	C	1.361696	0.500084	0.272926
N25	N	1.125534	0.281957	-0.265812
N26	N	1.625534	0.781957	0.234188
N27	N	1.158595	-0.281728	-0.229138
N28	N	1.658595	0.218272	0.270862
C29	C	0.667072	0.000109	-0.205367
C30	C	1.167072	0.500109	0.294633
C31	C	0.617046	0.000110	-0.289584
C32	C	1.117046	0.500110	0.210416
C33	C	0.508750	0.000124	-0.277506
C34	C	1.008750	0.500124	0.222494
C35	C	0.775377	0.000095	-0.217444
C36	C	1.275377	0.500095	0.282556
C37	C	1.316130	0.000131	-0.256008
C38	C	1.816130	0.500131	0.243992
C39	C	1.422428	0.000135	-0.267882
C40	C	1.922428	0.500135	0.232118
C41	C	1.131777	0.000120	-0.057005
C42	C	1.631777	0.500120	0.442995
C43	C	1.119410	0.000117	0.059216
C44	C	1.619410	0.500117	0.559216
C45	C	1.228107	0.531264	-0.151941
C46	C	1.728107	1.031264	0.348059
C47	C	1.220817	0.655926	-0.160047
C48	C	1.720817	1.155926	0.339953
C49	C	1.103658	0.655947	-0.290124
C50	C	1.603658	1.155947	0.209876
C51	C	1.110949	0.531284	-0.282018
C52	C	1.610949	1.031284	0.217982
C53	C	1.173176	0.468947	-0.212926
C54	C	1.673176	0.968947	0.287074
C55	C	1.180471	0.344282	-0.204826
C56	C	1.680471	0.844282	0.295174
C57	C	1.063309	0.344305	-0.334896
C58	C	1.563309	0.844305	0.165104
C59	C	1.056018	0.468968	-0.343002
C60	C	1.556018	0.968968	0.156998
C61	C	1.152346	0.000106	-0.437952
C62	C	1.652346	0.500106	0.062048
C63	C	1.164714	0.000102	-0.554173
C64	C	1.664714	0.500102	-0.054173
C65	C	1.268089	0.000108	0.286427
C66	C	1.768089	0.500108	0.786427
C67	C	1.256474	0.000105	0.395627
C68	C	1.756474	0.500105	0.895627
C69	C	1.084564	0.000099	0.386819
C70	C	1.584564	0.500099	0.886819
C71	C	1.096180	0.000102	0.277619
C72	C	1.596180	0.500102	0.777619
C73	C	1.187945	0.000108	0.227427
C74	C	1.687945	0.500108	0.727427
C75	C	1.199560	0.000120	0.118224
C76	C	1.699560	0.500120	0.618224
C77	C	1.027651	0.000105	0.109419
C78	C	1.527651	0.500105	0.609419
C79	C	1.016036	0.000102	0.218619
C80	C	1.516036	0.500102	0.718619
H81	H	0.655549	0.000101	-0.370756
H82	H	1.155549	0.500101	0.129244
F83	F	0.616749	0.000117	-0.099276
F84	F	1.116749	0.500117	0.400724
H85	H	1.052987	0.706718	-0.346370
H86	H	1.552987	1.206718	0.153630
H87	H	1.231143	0.293528	-0.148570
H88	H	1.731143	0.793528	0.351430
H89	H	1.278782	0.480508	-0.095691
H90	H	1.778782	0.980508	0.404309
H91	H	1.005351	0.519737	-0.399253
H92	H	1.505351	1.019737	0.100747
H93	H	1.265546	0.706661	-0.110387
H94	H	1.765546	1.206661	0.389613
F95	F	1.004850	0.277972	-0.399808
F96	F	1.504850	0.777972	0.100192
F97	F	0.942350	0.000118	0.046618
F98	F	1.442350	0.500118	0.546618
F99	F	1.297223	0.000135	0.064807
F100	F	1.797223	0.500135	0.564807
F101	F	1.365750	0.000140	0.233005
F102	F	1.865750	0.500140	0.733005
H103	H	1.009853	0.000080	0.427706
H104	H	1.509853	0.500080	0.927706
F105	F	1.341775	0.000101	0.458416
F106	F	1.841775	0.500101	0.958416
H107	H	0.941323	0.000092	0.259501
H108	H	1.441323	0.500092	0.759501
