data_functionalizedCrystal
_audit_creation_method	'MofGen! by Chris Wilmer'
_symmetry_space_group_name_H-M	'P1'
_symmetry_Int_Tables_number	1
_symmetry_cell_setting	triclinic
loop_
_symmetry_equiv_pos_as_xyz
  x,y,z
_cell_length_a	29.839133
_cell_length_b	21.395362
_cell_length_c	21.395355
_cell_angle_alpha	89.956060
_cell_angle_beta	89.990124
_cell_angle_gamma	90.045483
loop_
_atom_site_label
_atom_site_type_symbol
_atom_site_fract_x
_atom_site_fract_y
_atom_site_fract_z
Zn1	Zn	-0.178715	0.957864	-0.354623
Zn2	Zn	0.154618	1.291198	-0.021290
Zn3	Zn	0.487952	1.624531	0.312043
Zn4	Zn	-0.253830	0.957769	-0.249861
Zn5	Zn	0.079503	1.291102	0.083472
Zn6	Zn	0.412836	1.624436	0.416805
Zn7	Zn	-0.178736	0.853079	-0.249824
Zn8	Zn	0.154597	1.186413	0.083509
Zn9	Zn	0.487931	1.519746	0.416842
Zn10	Zn	-0.253839	0.853050	-0.354566
Zn11	Zn	0.079494	1.186384	-0.021233
Zn12	Zn	0.412827	1.519717	0.312100
O13	O	-0.216280	0.905441	-0.302219
O14	O	0.117053	1.238774	0.031114
O15	O	0.450387	1.572107	0.364448
O16	O	-0.188667	1.045530	-0.340766
O17	O	0.144667	1.378863	-0.007432
O18	O	0.478000	1.712196	0.325901
O19	O	-0.243874	0.943854	-0.162179
O20	O	0.089460	1.277187	0.171155
O21	O	0.422793	1.610520	0.504488
O22	O	-0.115866	0.867031	-0.263735
O23	O	0.217467	1.200365	0.069599
O24	O	0.550801	1.533698	0.402932
O25	O	-0.243853	1.045459	-0.263798
O26	O	0.089480	1.378793	0.069536
O27	O	0.422813	1.712126	0.402869
O28	O	-0.115851	0.944016	-0.340730
O29	O	0.217483	1.277350	-0.007396
O30	O	0.550816	1.610683	0.325937
O31	O	-0.188702	0.866939	-0.162151
O32	O	0.144631	1.200272	0.171182
O33	O	0.477965	1.533605	0.504515
O34	O	-0.188711	0.765398	-0.263679
O35	O	0.144622	1.098731	0.069654
O36	O	0.477956	1.432064	0.402987
O37	O	-0.243869	0.866982	-0.442252
O38	O	0.089464	1.200315	-0.108918
O39	O	0.422798	1.533649	0.224415
O40	O	-0.243889	0.765376	-0.340633
O41	O	0.089444	1.098710	-0.007299
O42	O	0.422777	1.432043	0.326034
O43	O	-0.188675	0.943988	-0.442294
O44	O	0.144658	1.277322	-0.108960
O45	O	0.477991	1.610655	0.224373
O46	O	-0.316699	0.943826	-0.263742
O47	O	0.016635	1.277159	0.069591
O48	O	0.349968	1.610492	0.402924
O49	O	-0.316705	0.866890	-0.340669
O50	O	0.016628	1.200223	-0.007335
O51	O	0.349961	1.533556	0.325998
C52	C	-0.216304	0.742653	-0.302146
C53	C	0.117029	1.075986	0.031187
C54	C	0.450363	1.409320	0.364521
C55	C	-0.216325	0.673012	-0.302130
C56	C	0.117008	1.006345	0.031203
C57	C	0.450342	1.339678	0.364537
C58	C	-0.245094	0.640304	-0.342140
C59	C	0.088239	0.973637	-0.008806
C60	C	0.421572	1.306971	0.324527
C61	C	-0.245083	0.574869	-0.342167
C62	C	0.088250	0.908202	-0.008834
C63	C	0.421583	1.241535	0.324499
C64	C	-0.216308	0.542143	-0.302175
C65	C	0.117026	0.875477	0.031159
C66	C	0.450359	1.208810	0.364492
C67	C	-0.187533	0.574859	-0.262162
C68	C	0.145801	0.908192	0.071171
C69	C	0.479134	1.241526	0.404505
C70	C	-0.187541	0.640293	-0.262140
C71	C	0.145792	0.973627	0.071193
C72	C	0.479125	1.306960	0.404527
C73	C	-0.212688	0.438419	-0.245769
C74	C	0.120645	0.771752	0.087565
C75	C	0.453978	1.105085	0.420898
C76	C	-0.212683	0.372986	-0.245790
C77	C	0.120650	0.706319	0.087544
C78	C	0.453984	1.039652	0.420877
C79	C	-0.216278	0.340323	-0.302244
C80	C	0.117055	0.673656	0.031090
C81	C	0.450388	1.006989	0.364423
C82	C	-0.219889	0.373101	-0.358678
C83	C	0.113445	0.706434	-0.025345
C84	C	0.446778	1.039768	0.307989
C85	C	-0.219897	0.438535	-0.358656
C86	C	0.113436	0.771868	-0.025322
C87	C	0.446769	1.105202	0.308011
C88	C	-0.216295	0.471191	-0.302195
C89	C	0.117039	0.804524	0.031139
C90	C	0.450372	1.137858	0.364472
C91	C	-0.245037	0.236663	-0.342287
C92	C	0.088296	0.569996	-0.008954
C93	C	0.421629	0.903329	0.324380
C94	C	-0.245023	0.171226	-0.342316
C95	C	0.088310	0.504559	-0.008983
C96	C	0.421644	0.837893	0.324351
C97	C	-0.187475	0.171218	-0.262305
C98	C	0.145859	0.504551	0.071028
C99	C	0.479192	0.837884	0.404362
C100	C	-0.187487	0.236653	-0.262282
C101	C	0.145847	0.569986	0.071052
C102	C	0.479180	0.903320	0.404385
C103	C	-0.216270	0.269372	-0.302272
C104	C	0.117063	0.602705	0.031062
C105	C	0.450396	0.936038	0.364395
C106	C	-0.333003	0.905361	-0.302217
C107	C	0.000331	1.238695	0.031116
C108	C	0.333664	1.572028	0.364450
C109	C	-0.382937	0.905384	-0.302237
C110	C	-0.049604	1.238718	0.031096
C111	C	0.283730	1.572051	0.364429
C112	C	-0.739481	0.945550	-0.342356
C113	C	-0.406148	1.278883	-0.009023
C114	C	-0.072815	1.612217	0.324310
C115	C	-0.551808	0.945491	-0.342355
C116	C	-0.218475	1.278824	-0.009022
C117	C	0.114858	1.612157	0.324311
O118	O	-0.527507	0.979560	-0.376457
O119	O	-0.194174	1.312893	-0.043123
O120	O	0.139160	1.646226	0.290210
N121	N	-0.528382	0.905434	-0.302236
N122	N	-0.195049	1.238767	0.031098
N123	N	0.138284	1.572101	0.364431
C124	C	-0.551877	0.865392	-0.262110
C125	C	-0.218544	1.198726	0.071223
C126	C	0.114789	1.532059	0.404556
O127	O	-0.527646	0.831325	-0.227982
O128	O	-0.194313	1.164658	0.105352
O129	O	0.139021	1.497991	0.438685
C130	C	-0.739550	0.865455	-0.262109
C131	C	-0.406216	1.198788	0.071225
C132	C	-0.072883	1.532122	0.404558
C133	C	-0.762973	0.905510	-0.302235
C134	C	-0.429640	1.238843	0.031098
C135	C	-0.096306	1.572177	0.364431
C136	C	-0.762905	0.985602	-0.382479
C137	C	-0.429572	1.318935	-0.049146
C138	C	-0.096238	1.652269	0.284187
C139	C	-0.809820	0.985614	-0.382481
C140	C	-0.476487	1.318947	-0.049148
C141	C	-0.143154	1.652281	0.284185
C142	C	-0.833312	0.945574	-0.342361
C143	C	-0.499979	1.278907	-0.009027
C144	C	-0.166646	1.612241	0.324306
C145	C	-0.809889	0.905522	-0.302238
C146	C	-0.476555	1.238855	0.031096
C147	C	-0.143222	1.572189	0.364429
C148	C	-0.763044	0.825417	-0.221981
C149	C	-0.429710	1.158750	0.111353
C150	C	-0.096377	1.492084	0.444686
C151	C	-0.809965	0.825437	-0.221983
C152	C	-0.476632	1.158771	0.111351
C153	C	-0.143298	1.492104	0.444684
C154	C	-0.833388	0.865492	-0.262109
C155	C	-0.500055	1.198826	0.071224
C156	C	-0.166722	1.532159	0.404557
C157	C	-0.880296	0.865494	-0.262119
C158	C	-0.546963	1.198827	0.071214
C159	C	-0.213629	1.532161	0.404548
N160	N	-0.903722	0.905551	-0.302239
N161	N	-0.570389	1.238884	0.031095
N162	N	-0.237055	1.572217	0.364428
C163	C	-0.880230	0.945591	-0.342359
C164	C	-0.546897	1.278924	-0.009026
C165	C	-0.213563	1.612257	0.324307
C166	C	-0.453347	0.865361	-0.262115
C167	C	-0.120013	1.198694	0.071218
C168	C	0.213320	1.532028	0.404551
C169	C	-0.406429	0.865344	-0.262116
C170	C	-0.073096	1.198678	0.071217
C171	C	0.260238	1.532011	0.404550
C172	C	-0.406363	0.945444	-0.342361
C173	C	-0.073030	1.278777	-0.009027
C174	C	0.260304	1.612111	0.324306
C175	C	-0.453282	0.945457	-0.342362
C176	C	-0.119948	1.278790	-0.009029
C177	C	0.213385	1.612124	0.324304
C178	C	-0.476773	0.905418	-0.302235
C179	C	-0.143439	1.238751	0.031098
C180	C	0.189894	1.572084	0.364432
C181	C	-0.978756	0.945612	-0.342361
C182	C	-0.645423	1.278946	-0.009028
C183	C	-0.312089	1.612279	0.324305
C184	C	-1.025675	0.945619	-0.342362
C185	C	-0.692342	1.278952	-0.009029
C186	C	-0.359009	1.612286	0.324305
C187	C	-1.025737	0.865522	-0.262116
C188	C	-0.692404	1.198856	0.071218
C189	C	-0.359071	1.532189	0.404551
C190	C	-0.978822	0.865513	-0.262117
C191	C	-0.645488	1.198846	0.071216
C192	C	-0.312155	1.532180	0.404550
C193	C	-0.955332	0.905563	-0.302242
C194	C	-0.621999	1.238896	0.031091
C195	C	-0.288666	1.572230	0.364425
O196	O	-0.904626	0.831448	-0.228031
O197	O	-0.571293	1.164781	0.105303
O198	O	-0.237959	1.498114	0.438636
O199	O	-0.904470	0.979663	-0.376473
O200	O	-0.571136	1.312996	-0.043140
O201	O	-0.237803	1.646329	0.290193
C202	C	-0.692566	0.945538	-0.342354
C203	C	-0.359232	1.278871	-0.009021
C204	C	-0.025899	1.612205	0.324313
C205	C	-0.669142	0.905486	-0.302231
C206	C	-0.335809	1.238819	0.031102
C207	C	-0.002476	1.572153	0.364436
C208	C	-0.692634	0.865446	-0.262110
C209	C	-0.359301	1.198779	0.071223
C210	C	-0.025967	1.532113	0.404557
C211	C	-0.622224	0.905469	-0.302232
C212	C	-0.288891	1.238803	0.031101
C213	C	0.044442	1.572136	0.364435
C214	C	-0.598733	0.945509	-0.342353
C215	C	-0.265399	1.278843	-0.009020
C216	C	0.067934	1.612176	0.324314
C217	C	-0.622159	0.985566	-0.382473
C218	C	-0.288825	1.318899	-0.049139
C219	C	0.044508	1.652233	0.284194
C220	C	-0.669074	0.985578	-0.382475
C221	C	-0.335741	1.318911	-0.049142
C222	C	-0.002407	1.652245	0.284192
C223	C	-0.669208	0.825389	-0.221990
C224	C	-0.335875	1.158723	0.111343
C225	C	-0.002541	1.492056	0.444676
C226	C	-0.622293	0.825380	-0.221992
C227	C	-0.288959	1.158713	0.111341
C228	C	0.044374	1.492047	0.444675
C229	C	-0.598801	0.865420	-0.262113
C230	C	-0.265467	1.198753	0.071220
C231	C	0.067866	1.532087	0.404554
C232	C	-0.099102	0.905538	-0.302234
C233	C	0.234232	1.238871	0.031099
C234	C	0.567565	1.572204	0.364432
C235	C	-0.049167	0.905579	-0.302241
C236	C	0.284166	1.238912	0.031092
C237	C	0.617499	1.572246	0.364426
C238	C	-0.216271	0.905493	-0.465642
C239	C	0.117062	1.238826	-0.132309
C240	C	0.450396	1.572159	0.201024
C241	C	-0.216267	0.905515	-0.535283
C242	C	0.117066	1.238848	-0.201950
C243	C	0.450400	1.572182	0.131383
C244	C	-0.216257	1.068864	-0.302292
C245	C	0.117077	1.402197	0.031041
C246	C	0.450410	1.735531	0.364375
C247	C	-0.216247	1.138505	-0.302323
C248	C	0.117087	1.471839	0.031010
C249	C	0.450420	1.805172	0.364343
C250	C	-0.187527	0.945610	-0.568019
C251	C	0.145807	1.278944	-0.234686
C252	C	0.479140	1.612277	0.098647
C253	C	-0.187507	0.945610	-0.633455
C254	C	0.145826	1.278943	-0.300122
C255	C	0.479159	1.612276	0.033212
C256	C	-0.216237	0.905520	-0.666152
C257	C	0.117097	1.238853	-0.332819
C258	C	0.450430	1.572186	0.000515
C259	C	-0.244979	0.865417	-0.633408
C260	C	0.088354	1.198750	-0.300075
C261	C	0.421688	1.532083	0.033259
C262	C	-0.244994	0.865414	-0.567974
C263	C	0.088339	1.198747	-0.234641
C264	C	0.421672	1.532081	0.098693
C265	C	-0.256689	0.900545	-0.769824
C266	C	0.076645	1.233878	-0.436491
C267	C	0.409978	1.567212	-0.103158
C268	C	-0.256674	0.900552	-0.835257
C269	C	0.076659	1.233885	-0.501924
C270	C	0.409993	1.567218	-0.168591
C271	C	-0.216189	0.905524	-0.867973
C272	C	0.117144	1.238857	-0.534639
C273	C	0.450478	1.572190	-0.201306
C274	C	-0.175717	0.910502	-0.835247
C275	C	0.157616	1.243835	-0.501914
C276	C	0.490949	1.577169	-0.168581
C277	C	-0.175733	0.910499	-0.769813
C278	C	0.157601	1.243833	-0.436480
C279	C	0.490934	1.577166	-0.103146
C280	C	-0.216223	0.905518	-0.737104
C281	C	0.117110	1.238851	-0.403771
C282	C	0.450444	1.572184	-0.070438
C283	C	-0.187425	0.945620	-0.971661
C284	C	0.145908	1.278954	-0.638328
C285	C	0.479242	1.612287	-0.304995
C286	C	-0.187405	0.945615	-1.037098
C287	C	0.145928	1.278948	-0.703765
C288	C	0.479262	1.612282	-0.370431
C289	C	-0.244881	0.865425	-1.037050
C290	C	0.088452	1.198759	-0.703716
C291	C	0.421786	1.532092	-0.370383
C292	C	-0.244897	0.865427	-0.971614
C293	C	0.088436	1.198761	-0.638281
C294	C	0.421770	1.532094	-0.304948
C295	C	-0.216170	0.905528	-0.938924
C296	C	0.117164	1.238862	-0.605591
C297	C	0.450497	1.572195	-0.272257
C298	C	-0.216257	0.905425	-0.139431
C299	C	0.117077	1.238758	0.193902
C300	C	0.450410	1.572092	0.527235
C301	C	-0.216134	0.905524	-0.069790
C302	C	0.117199	1.238858	0.263543
C303	C	0.450533	1.572191	0.596876
H304	H	-0.268450	0.144596	-0.374900
H305	H	0.064884	0.477930	-0.041567
H306	H	0.398217	0.811263	0.291766
H307	H	-1.044873	0.832921	-0.229452
H308	H	-0.711539	1.166254	0.103882
H309	H	-0.378206	1.499588	0.437215
C310	C	-0.380668	0.821270	-0.217985
C311	C	-0.047335	1.154603	0.115348
C312	C	0.285998	1.487936	0.448681
N313	N	-0.361267	0.788072	-0.184743
N314	N	-0.027934	1.121405	0.148590
N315	N	0.305400	1.454738	0.481923
C316	C	-0.276579	0.821315	-0.669376
C317	C	0.056754	1.154648	-0.336043
C318	C	0.390087	1.487982	-0.002709
N319	N	-0.300380	0.788094	-0.696467
N320	N	0.032953	1.121427	-0.363134
N321	N	0.366287	1.454760	-0.029800
H322	H	-0.688330	0.792784	-0.189318
H323	H	-0.354997	1.126117	0.144016
H324	H	-0.021664	1.459451	0.477349
C325	C	-0.276735	0.538883	-0.386181
C326	C	0.056599	0.872216	-0.052847
C327	C	0.389932	1.205550	0.280486
N328	N	-0.300575	0.511780	-0.419331
N329	N	0.032758	0.845114	-0.085998
N330	N	0.366092	1.178447	0.247336
H331	H	-0.688141	1.018194	-0.415151
H332	H	-0.354808	1.351527	-0.081817
H333	H	-0.021475	1.684861	0.251516
H334	H	-0.959750	0.832890	-0.229449
H335	H	-0.626417	1.166224	0.103885
H336	H	-0.293083	1.499557	0.437218
H337	H	-0.289648	0.896329	-0.743193
H338	H	0.043685	1.229662	-0.409859
H339	H	0.377019	1.562995	-0.076526
H340	H	-0.829089	0.792833	-0.189305
H341	H	-0.495755	1.126166	0.144029
H342	H	-0.162422	1.459499	0.477362
H343	H	-0.268398	0.832761	-0.541321
H344	H	0.064936	1.166094	-0.207987
H345	H	0.398269	1.499427	0.125346
H346	H	-0.164031	0.978269	-0.945043
H347	H	0.169302	1.311603	-0.611710
H348	H	0.502635	1.644936	-0.278377
C349	C	-0.155821	0.135224	-0.218313
C350	C	0.177513	0.468557	0.115021
C351	C	0.510846	0.801890	0.448354
N352	N	-0.131977	0.108110	-0.185177
N353	N	0.201356	0.441443	0.148156
N354	N	0.534689	0.774777	0.481490
C355	C	-0.131214	0.915967	-0.733817
C356	C	0.202119	1.249300	-0.400484
C357	C	0.535452	1.582633	-0.067151
N358	N	-0.097682	0.920081	-0.706706
N359	N	0.235651	1.253414	-0.373372
N360	N	0.568985	1.586747	-0.040039
C361	C	-1.051439	0.989688	-0.386502
C362	C	-0.718105	1.323022	-0.053169
C363	C	-0.384772	1.656355	0.280164
N364	N	-1.070842	1.022883	-0.419746
N365	N	-0.737508	1.356216	-0.086412
N366	N	-0.404175	1.689549	0.246921
H367	H	-0.603024	1.018166	-0.415143
H368	H	-0.269690	1.351499	-0.081810
H369	H	0.063643	1.684833	0.251524
H370	H	-0.222835	0.465220	-0.404607
H371	H	0.110498	0.798554	-0.071273
H372	H	0.443831	1.131887	0.262060
C373	C	-0.276756	0.676291	-0.386132
C374	C	0.056578	1.009624	-0.052799
C375	C	0.389911	1.342957	0.280535
N376	N	-0.300603	0.703397	-0.419268
N377	N	0.032730	1.036730	-0.085935
N378	N	0.366064	1.370063	0.247399
H379	H	-0.222815	0.346508	-0.404648
H380	H	0.110518	0.679842	-0.071315
H381	H	0.443851	1.013175	0.262018
C382	C	-0.155786	0.989725	-1.073107
C383	C	0.177548	1.323058	-0.739774
C384	C	0.510881	1.656391	-0.406441
N385	N	-0.131970	1.022949	-1.100230
N386	N	0.201364	1.356283	-0.766897
N387	N	0.534697	1.689616	-0.433563
C388	C	-0.276484	0.821326	-1.073013
C389	C	0.056849	1.154660	-0.739679
C390	C	0.390183	1.487993	-0.406346
N391	N	-0.300288	0.788110	-1.100103
N392	N	0.033045	1.121443	-0.766770
N393	N	0.366379	1.454776	-0.433437
C394	C	-0.276694	0.272655	-0.386284
C395	C	0.056639	0.605988	-0.052950
C396	C	0.389972	0.939322	0.280383
N397	N	-0.300538	0.299763	-0.419424
N398	N	0.032796	0.633096	-0.086090
N399	N	0.366129	0.966430	0.247243
H400	H	-0.268303	0.832781	-0.944961
H401	H	0.065030	1.166114	-0.611627
H402	H	0.398363	1.499448	-0.278294
H403	H	-0.603224	0.792757	-0.189317
H404	H	-0.269891	1.126090	0.144016
H405	H	0.063442	1.459424	0.477349
C406	C	-0.301193	0.895075	-0.871249
C407	C	0.032140	1.228409	-0.537916
C408	C	0.365473	1.561742	-0.204582
N409	N	-0.334727	0.890949	-0.898357
N410	N	-0.001393	1.224282	-0.565023
N411	N	0.331940	1.557615	-0.231690
H412	H	-0.959636	0.978226	-0.375034
H413	H	-0.626303	1.311559	-0.041701
H414	H	-0.292969	1.644892	0.291633
H415	H	-0.164101	0.978259	-0.660114
H416	H	0.169233	1.311592	-0.326780
H417	H	0.502566	1.644925	0.006553
C418	C	-0.479181	0.821307	-0.217974
C419	C	-0.145848	1.154641	0.115360
C420	C	0.187486	1.487974	0.448693
N421	N	-0.498637	0.788123	-0.184729
N422	N	-0.165304	1.121456	0.148605
N423	N	0.168029	1.454789	0.481938
C424	C	-0.155842	0.272633	-0.218262
C425	C	0.177492	0.605966	0.115072
C426	C	0.510825	0.939300	0.448405
N427	N	-0.132005	0.299733	-0.185104
N428	N	0.201329	0.633066	0.148229
N429	N	0.534662	0.966399	0.481563
C430	C	-0.155894	0.676273	-0.218121
C431	C	0.177440	1.009606	0.115212
C432	C	0.510773	1.342940	0.448546
N433	N	-0.132057	0.703374	-0.184963
N434	N	0.201276	1.036707	0.148370
N435	N	0.534610	1.370040	0.481703
H436	H	-0.164134	0.978263	-0.541407
H437	H	0.169199	1.311596	-0.208074
H438	H	0.502533	1.644930	0.125260
C439	C	-0.208708	0.336936	-0.183712
C440	C	0.124625	0.670270	0.149622
C441	C	0.457958	1.003603	0.482955
N442	N	-0.205712	0.309785	-0.136953
N443	N	0.127621	0.643118	0.196380
N444	N	0.460954	0.976452	0.529714
C445	C	-0.208735	0.474341	-0.183660
C446	C	0.124598	0.807675	0.149673
C447	C	0.457932	1.141008	0.483006
N448	N	-0.205758	0.501397	-0.136882
N449	N	0.127575	0.834731	0.196451
N450	N	0.460909	1.168064	0.529785
H451	H	-0.164102	0.548210	-0.229601
H452	H	0.169231	0.881543	0.103732
H453	H	0.502564	1.214877	0.437066
H454	H	-0.142751	0.914551	-0.861883
H455	H	0.190583	1.247885	-0.528549
H456	H	0.523916	1.581218	-0.195216
H457	H	-0.828888	1.018235	-0.415152
H458	H	-0.495554	1.351569	-0.081819
H459	H	-0.162221	1.684902	0.251515
H460	H	-0.743782	1.018210	-0.415150
H461	H	-0.410449	1.351543	-0.081817
H462	H	-0.077115	1.684877	0.251516
H463	H	-0.472350	0.978070	-0.375040
H464	H	-0.139017	1.311404	-0.041706
H465	H	0.194317	1.644737	0.291627
C466	C	-0.380513	0.989492	-0.386490
C467	C	-0.047180	1.322825	-0.053157
C468	C	0.286153	1.656158	0.280176
N469	N	-0.361041	1.022671	-0.419723
N470	N	-0.027708	1.356004	-0.086390
N471	N	0.305626	1.689337	0.246943
H472	H	-0.743979	0.792801	-0.189306
H473	H	-0.410646	1.126135	0.144028
H474	H	-0.077312	1.459468	0.477361
