data_functionalizedCrystal
_audit_creation_method	'MofGen! by Chris Wilmer'
_symmetry_space_group_name_H-M	'P1'
_symmetry_Int_Tables_number	1
_symmetry_cell_setting	triclinic
loop_
_symmetry_equiv_pos_as_xyz
  x,y,z
_cell_length_a	13.635800
_cell_length_b	17.982723
_cell_length_c	20.559824
_cell_angle_alpha	91.079724
_cell_angle_beta	58.659962
_cell_angle_gamma	77.552436
loop_
_atom_site_label
_atom_site_type_symbol
_atom_site_fract_x
_atom_site_fract_y
_atom_site_fract_z
V1	V	2.123854	-0.106108	-0.237870
O2	O	2.117982	0.004385	-0.233009
O3	O	2.096477	-0.209707	-0.236564
O4	O	2.148921	-0.104789	-0.341467
O5	O	2.065176	-0.101260	-0.127379
V6	V	2.359696	-0.092855	-0.224616
O7	O	2.267469	-0.135180	-0.266945
O8	O	2.441180	-0.063783	-0.195541
O9	O	2.275469	0.010745	-0.225922
O10	O	2.424266	-0.203348	-0.229477
O11	O	2.477073	-0.097703	-0.335107
O12	O	2.223026	-0.094174	-0.121018
V13	V	2.623854	-0.106108	-0.237870
O14	O	2.617982	0.004385	-0.233009
O15	O	2.596477	-0.209707	-0.236564
O16	O	2.648921	-0.104789	-0.341467
O17	O	2.565176	-0.101260	-0.127379
V18	V	2.859696	-0.092855	-0.224616
O19	O	2.767469	-0.135180	-0.266945
O20	O	2.941180	-0.063783	-0.195541
O21	O	2.775469	0.010745	-0.225922
O22	O	2.924266	-0.203348	-0.229477
O23	O	2.977073	-0.097703	-0.335107
O24	O	2.723026	-0.094174	-0.121018
C25	C	2.016611	-0.234953	-0.232894
C26	C	2.035199	-0.319649	-0.232517
C27	C	2.242083	-0.843419	-0.233969
C28	C	2.224614	-0.763838	-0.234327
C29	C	2.123105	-0.720160	-0.230694
C30	C	2.039054	-0.756065	-0.226694
C31	C	2.056519	-0.835643	-0.226330
C32	C	1.968616	-0.435134	-0.228159
C33	C	1.951158	-0.355551	-0.228525
C34	C	2.136711	-0.363330	-0.236156
C35	C	2.154176	-0.442908	-0.235792
C36	C	2.070121	-0.478805	-0.231788
C37	C	2.089062	-0.565095	-0.231399
C38	C	2.104167	-0.633872	-0.231089
C39	C	2.083507	-0.101118	-0.366708
C40	C	2.144622	-0.100725	-0.451401
C41	C	2.187006	0.035986	-0.229590
C42	C	2.158039	0.120681	-0.229972
C43	C	2.120109	-0.097847	-0.095774
C44	C	2.048613	-0.098236	-0.011080
C45	C	1.930480	-0.102226	0.024809
C46	C	1.863284	-0.102583	0.104389
C47	C	1.914225	-0.098954	0.148078
C48	C	2.032368	-0.094961	0.112184
C49	C	2.099559	-0.094599	0.032606
C50	C	2.543568	-0.168218	-0.982377
C51	C	2.486119	-0.168572	-0.902795
C52	C	2.433724	-0.098944	-0.851919
C53	C	2.438768	-0.028957	-0.880627
C54	C	2.496208	-0.028603	-0.960206
C55	C	2.207115	-0.030383	-0.559690
C56	C	2.149675	-0.030743	-0.480106
C57	C	2.197026	-0.170353	-0.502279
C58	C	2.254466	-0.169999	-0.581859
C59	C	2.259500	-0.100012	-0.610560
C60	C	2.321791	-0.099628	-0.696851
C61	C	2.371441	-0.099328	-0.765629
C62	C	2.620109	-0.097847	-0.095774
C63	C	2.548613	-0.098236	-0.011080
C64	C	2.516611	-0.234953	-0.232894
C65	C	2.535199	-0.319649	-0.232517
C66	C	2.583507	-0.101118	-0.366708
C67	C	2.644622	-0.100725	-0.451401
C68	C	2.687006	0.035986	-0.229590
C69	C	2.658039	0.120681	-0.229972
C70	C	2.636714	-0.363319	-0.236158
C71	C	2.654203	-0.442902	-0.235815
C72	C	2.570170	-0.478813	-0.231825
C73	C	2.468647	-0.435137	-0.228186
C74	C	2.451165	-0.355557	-0.228534
C75	C	2.766145	-0.104351	-0.495069
C76	C	2.823580	-0.103972	-0.574646
C77	C	2.759492	-0.099973	-0.610555
C78	C	2.637957	-0.096345	-0.566881
C79	C	2.580522	-0.096718	-0.487304
C80	C	2.729019	0.164351	-0.226333
C81	C	2.701804	0.243934	-0.226680
C82	C	2.603614	0.279844	-0.230671
C83	C	2.532629	0.236169	-0.234308
C84	C	2.559839	0.156589	-0.233956
H85	H	2.324745	-0.878977	-0.236933
H86	H	2.502039	0.121038	-0.236926
H87	H	2.585789	-0.093089	-0.596130
Cl88	Cl	2.781832	-0.497792	-0.240386
Cl89	Cl	2.569424	0.379890	-0.231114
Cl90	Cl	2.609440	-0.255756	-1.046329
Cl91	Cl	2.330258	-0.718707	-0.239329
H92	H	2.705147	-0.334091	-0.239402
Cl93	Cl	2.831717	-0.099508	-0.710597
Cl94	Cl	2.281793	-0.497814	-0.240363
H95	H	2.481570	-0.093767	-0.451756
H96	H	2.759618	0.279483	-0.223719
H97	H	2.482018	-0.225559	-0.879430
H98	H	2.500320	0.028384	-0.983575
H99	H	2.452681	0.265420	-0.237557
Cl100	Cl	2.242378	-0.318196	-0.241185
H101	H	1.868494	-0.319990	-0.225565
Cl102	Cl	1.862935	-0.480250	-0.223114
Cl103	Cl	2.363013	-0.480293	-0.223166
H104	H	1.956399	-0.720494	-0.223730
H105	H	2.396096	0.027736	-0.839196
Cl106	Cl	1.950859	-0.880774	-0.221304
Cl107	Cl	1.866411	-0.106787	-0.030097
Cl108	Cl	2.248079	-0.089594	-0.012503
Cl109	Cl	1.714770	-0.107610	0.149495
Cl110	Cl	2.096396	-0.090409	0.167116
H111	H	1.859505	-0.099259	0.212873
H112	H	2.808975	0.135124	-0.223083
H113	H	2.297131	-0.226697	-0.623280
H114	H	2.192916	-0.227340	-0.478902
H115	H	2.107010	0.025960	-0.438683
H116	H	2.584420	-0.543613	-0.231542
H117	H	2.211193	0.026605	-0.583048
Cl118	Cl	2.846739	-0.109377	-0.449944
Cl119	Cl	2.323529	-0.300665	-0.223949
H120	H	2.922541	-0.106930	-0.610196
