data_functionalizedCrystal
_audit_creation_method	'MofGen! by Chris Wilmer'
_symmetry_space_group_name_H-M	'P1'
_symmetry_Int_Tables_number	1
_symmetry_cell_setting	triclinic
loop_
_symmetry_equiv_pos_as_xyz
  x,y,z
_cell_length_a	27.731993
_cell_length_b	27.732048
_cell_length_c	26.210047
_cell_angle_alpha	89.999521
_cell_angle_beta	90.002578
_cell_angle_gamma	82.631525
loop_
_atom_site_label
_atom_site_type_symbol
_atom_site_fract_x
_atom_site_fract_y
_atom_site_fract_z
O1	O	0.640948	0.057384	-0.042297
O2	O	0.500151	0.066158	-0.042329
O3	O	0.574923	-0.008627	-0.042302
O4	O	0.566177	0.132169	-0.042324
O5	O	0.574908	-0.008615	0.042556
O6	O	0.500137	0.066169	0.042529
O7	O	0.640934	0.057396	0.042561
Cu8	Cu	0.570534	0.061784	0.050293
Cu9	Cu	0.570551	0.061770	-0.050061
O10	O	0.566163	0.132180	0.042534
C11	C	0.482137	0.065983	0.000096
C12	C	0.428480	0.065441	0.000084
C13	C	0.045328	0.061504	-0.046147
C14	C	0.246985	0.063571	-0.046161
O15	O	0.273065	0.063813	-0.085501
N16	N	0.272198	0.063836	0.000094
C17	C	0.246993	0.063581	0.046356
O18	O	0.273066	0.063849	0.085699
C19	C	0.045337	0.061511	0.046370
C20	C	0.020127	0.061251	0.000112
C21	C	0.020118	0.061243	-0.092401
C22	C	-0.030294	0.060729	-0.092397
C23	C	-0.055495	0.060476	-0.046139
C24	C	-0.030285	0.060736	0.000116
C25	C	0.020134	0.061252	0.092631
C26	C	-0.030283	0.060733	0.092630
C27	C	-0.055493	0.060473	0.046372
C28	C	-0.105898	0.059969	0.046378
N29	N	-0.131110	0.059704	0.000123
C30	C	-0.105909	0.059957	-0.046135
C31	C	0.352865	0.064669	0.046346
C32	C	0.403279	0.065188	0.046343
C33	C	0.403268	0.065177	-0.046175
C34	C	0.352853	0.064662	-0.046171
C35	C	0.327653	0.064404	0.000091
C36	C	-0.211777	0.058878	-0.046123
C37	C	-0.262194	0.058366	-0.046115
C38	C	-0.262178	0.058375	0.046402
C39	C	-0.211766	0.058889	0.046394
C40	C	-0.186567	0.059139	0.000127
O41	O	-0.132008	0.059721	0.085698
O42	O	-0.131989	0.059679	-0.085472
C43	C	0.095740	0.062018	-0.046151
C44	C	0.120950	0.062279	0.000104
C45	C	0.095749	0.062025	0.046362
C46	C	0.171364	0.062797	0.000101
C47	C	0.196565	0.063051	-0.046158
C48	C	0.171353	0.062786	-0.092413
C49	C	0.120941	0.062272	-0.092409
C50	C	0.120961	0.062290	0.092617
C51	C	0.171373	0.062805	0.092609
C52	C	0.196574	0.063058	0.046351
C53	C	0.574732	-0.026628	0.000128
C54	C	0.574179	-0.080282	0.000132
C55	C	0.614884	-0.419105	0.000115
C56	C	0.612833	-0.620765	0.000108
O57	O	0.650055	-0.652028	0.000094
N58	N	0.568497	-0.639880	0.000098
C59	C	0.524670	-0.608576	0.000087
O60	O	0.486912	-0.629462	0.000073
C61	C	0.526721	-0.406918	0.000091
C62	C	0.571061	-0.387806	0.000106
C63	C	0.659220	-0.399993	0.000129
C64	C	0.659732	-0.349581	0.000134
C65	C	0.615909	-0.318282	0.000124
C66	C	0.571573	-0.337394	0.000110
C67	C	0.482895	-0.375616	0.000076
C68	C	0.483412	-0.325199	0.000076
C69	C	0.527751	-0.306087	0.000091
C70	C	0.528262	-0.255683	0.000105
N71	N	0.572598	-0.236568	0.000115
C72	C	0.616422	-0.267867	0.000124
C73	C	0.523596	-0.714450	0.000086
C74	C	0.523083	-0.764865	0.000086
C75	C	0.611246	-0.777049	0.000105
C76	C	0.611759	-0.726634	0.000109
C77	C	0.567932	-0.695335	0.000095
C78	C	0.617494	-0.161998	0.000135
C79	C	0.618003	-0.111582	0.000142
C80	C	0.529839	-0.099401	0.000119
C81	C	0.529331	-0.149814	0.000115
C82	C	0.573162	-0.181112	0.000121
O83	O	0.491060	-0.224392	0.000114
O84	O	0.654174	-0.246972	0.000127
C85	C	0.614372	-0.469517	0.000110
C86	C	0.570036	-0.488630	0.000096
C87	C	0.526213	-0.457331	0.000087
C88	C	0.569523	-0.539044	0.000096
C89	C	0.613346	-0.570343	0.000106
C90	C	0.657683	-0.551228	0.000115
C91	C	0.658195	-0.500817	0.000120
C92	C	0.481876	-0.476446	0.000077
C93	C	0.481368	-0.526858	0.000073
C94	C	0.525191	-0.558157	0.000083
C95	C	0.658949	0.057570	0.000135
C96	C	0.712605	0.058113	0.000143
C97	C	0.566353	0.150181	0.000103
C98	C	0.566906	0.203836	0.000095
N99	N	0.570526	0.061793	0.120877
N100	N	0.570564	0.061757	-0.120645
C101	C	0.603657	0.028663	0.473403
C102	C	0.603667	0.028656	0.687062
O103	O	0.631818	0.000490	0.714693
N104	N	0.570554	0.061759	0.713771
C105	C	0.537433	0.094864	0.687063
O106	O	0.509265	0.123017	0.714683
C107	C	0.537421	0.094868	0.473405
C108	C	0.570540	0.061766	0.446698
C109	C	0.636772	-0.004437	0.446696
C110	C	0.636771	-0.004433	0.393285
C111	C	0.603654	0.028671	0.366580
C112	C	0.570538	0.061770	0.393287
C113	C	0.504298	0.127971	0.446697
C114	C	0.504297	0.127968	0.393280
C115	C	0.537416	0.094866	0.366573
C116	C	0.537420	0.094877	0.313171
N117	N	0.570533	0.061774	0.286461
C118	C	0.603650	0.028671	0.313166
C119	C	0.537443	0.094861	0.799236
C120	C	0.537446	0.094860	0.852650
C121	C	0.603680	0.028651	0.852645
C122	C	0.603678	0.028654	0.799230
C123	C	0.570556	0.061757	0.772526
C124	C	0.603646	0.028682	0.200998
C125	C	0.603643	0.028690	0.147582
C126	C	0.537408	0.094897	0.147591
C127	C	0.537412	0.094891	0.201003
C128	C	0.570533	0.061779	0.227705
O129	O	0.509281	0.123025	0.285506
O130	O	0.631807	0.000515	0.285536
C131	C	0.603658	0.028659	0.526814
C132	C	0.570542	0.061759	0.553521
C133	C	0.537425	0.094862	0.526816
C134	C	0.570546	0.061759	0.606935
C135	C	0.603663	0.028655	0.633640
C136	C	0.636776	-0.004448	0.606931
C137	C	0.636775	-0.004444	0.553519
C138	C	0.504311	0.127965	0.553526
C139	C	0.504316	0.127959	0.606937
C140	C	0.537433	0.094856	0.633642
H141	H	0.423795	0.065385	-0.083840
Br142	Br	0.648594	-0.016235	0.111340
Br143	Br	0.054335	0.061606	0.155414
Br144	Br	0.648627	-0.016271	0.762991
Br145	Br	0.681722	-0.049369	0.482929
Br146	Br	0.492470	0.139822	0.237246
H147	H	0.646929	-0.802542	0.000113
H148	H	0.477330	0.154925	0.468435
H149	H	0.647864	-0.711077	0.000121
H150	H	0.486977	-0.780421	0.000083
H151	H	0.332330	0.064450	-0.083838
H152	H	0.663743	-0.031401	0.628682
H153	H	0.695838	-0.334025	0.000144
H154	H	0.694908	-0.425472	0.000135
H155	H	0.100419	0.062060	-0.130077
H156	H	0.487905	-0.688970	0.000075
H157	H	0.446789	-0.391168	0.000061
H158	H	0.447722	-0.299717	0.000064
Br159	Br	0.648624	-0.016274	0.888898
H160	H	0.493226	-0.165375	0.000117
Br161	Br	0.205580	0.063163	0.155394
H162	H	0.494160	-0.073909	0.000113
Br163	Br	0.492506	0.139794	0.888889
H164	H	0.694301	-0.485261	0.000132
H165	H	0.477347	0.154919	0.628678
Br166	Br	-0.064479	0.060379	0.155418
Br167	Br	0.459362	0.172895	0.517291
H168	H	-0.282718	0.058156	-0.083786
H169	H	0.510470	0.121818	0.777497
Br170	Br	0.717157	-0.593716	0.000132
H171	H	0.510445	0.121851	0.125840
Br172	Br	-0.064500	0.060373	-0.155179
Br173	Br	0.421187	-0.552789	0.000057
H174	H	-0.191240	0.059111	0.084061
Br175	Br	-0.177586	0.059218	-0.108914
Br176	Br	0.422395	-0.433975	0.000062
H177	H	0.040631	0.061448	-0.130072
Br178	Br	0.459341	0.172895	0.357043
H179	H	0.423800	0.065407	0.084011
Br180	Br	0.678181	-0.085647	0.000162
H181	H	0.332353	0.064458	0.084020
H182	H	0.630615	0.001719	0.222733
H183	H	0.663743	-0.031399	0.531778
H184	H	0.663738	-0.031389	0.371543
Br185	Br	-0.296390	0.058033	0.109178
H186	H	0.653186	-0.187476	0.000138
H187	H	0.191880	0.062995	-0.130078
H188	H	0.100448	0.062081	0.130287
