data_functionalizedCrystal
_audit_creation_method	'MofGen! by Chris Wilmer'
_symmetry_space_group_name_H-M	'P1'
_symmetry_Int_Tables_number	1
_symmetry_cell_setting	triclinic
loop_
_symmetry_equiv_pos_as_xyz
  x,y,z
_cell_length_a	10.723022
_cell_length_b	15.944493
_cell_length_c	9.798715
_cell_angle_alpha	89.997522
_cell_angle_beta	90.003403
_cell_angle_gamma	83.971135
loop_
_atom_site_label
_atom_site_type_symbol
_atom_site_fract_x
_atom_site_fract_y
_atom_site_fract_z
O1	O	1.655664	0.117805	0.113463
O2	O	1.292365	0.129083	0.113465
O3	O	1.483973	0.001223	0.113475
O4	O	1.464056	0.245665	0.113453
O5	O	1.483959	0.001222	-0.113507
O6	O	1.292351	0.129082	-0.113517
O7	O	1.655650	0.117804	-0.113520
Zn8	Zn	1.473998	0.123443	-0.149557
Zn9	Zn	1.474017	0.123444	0.149502
O10	O	1.464042	0.245664	-0.113529
C11	C	1.245869	0.128262	-0.000025
C12	C	1.107346	0.125808	-0.000023
C13	C	1.059740	0.052075	-0.000016
C14	C	0.916570	0.049536	-0.000013
C15	C	1.483152	-0.030077	-0.000010
C16	C	1.480711	-0.123339	0.000007
C17	C	1.593496	-0.358454	-0.000019
C18	C	1.532682	-0.409370	0.111894
C19	C	1.476189	-0.294086	-0.000009
C20	C	1.532641	-0.409347	-0.111892
C21	C	1.471830	-0.459021	-0.000031
C22	C	1.415407	-0.343773	0.111997
C23	C	1.415383	-0.343747	-0.111890
C24	C	1.354483	-0.394630	0.000051
C25	C	1.478704	-0.199072	0.000005
C26	C	1.469306	-0.554032	-0.000036
C27	C	1.702146	0.118625	-0.000026
C28	C	1.840668	0.121080	-0.000019
C29	C	1.464863	0.276964	-0.000041
C30	C	1.467303	0.370227	-0.000050
N31	N	1.473994	0.123442	-0.353656
C32	C	1.546129	0.172149	-0.421439
C33	C	1.546149	0.172148	-0.578602
N34	N	1.474030	0.123439	0.353602
H35	H	1.042111	0.187053	-0.000022
H36	H	1.607899	0.213852	-0.636894
H37	H	1.412255	0.081739	-0.411977
C38	C	1.390590	0.067102	-0.567677
H39	H	1.345341	0.036547	-0.630599
H40	H	1.441622	0.028703	-0.511917
H41	H	1.333311	0.101306	-0.511955
C42	C	1.348515	-0.304998	-0.239709
H43	H	1.390328	-0.327553	-0.319155
H44	H	1.264072	-0.318001	-0.240515
H45	H	1.349921	-0.245529	-0.238330
H46	H	1.582229	-0.438032	0.206510
C47	C	0.861206	-0.035752	-0.000006
H48	H	0.927398	-0.080307	-0.000012
H49	H	0.811039	-0.039786	0.079146
H50	H	0.811037	-0.039785	-0.079171
H51	H	1.124975	-0.009171	-0.000004
H52	H	1.365901	-0.315237	0.206712
C53	C	0.896023	0.206371	-0.000028
H54	H	0.829831	0.250926	-0.000040
H55	H	0.946200	0.210406	0.079122
H56	H	0.946183	0.210404	-0.079195
H57	H	1.694541	-0.342248	0.000092
C58	C	1.217882	-0.416314	0.000132
H59	H	1.176413	-0.393648	0.079702
H60	H	1.175922	-0.392849	-0.078614
H61	H	1.217041	-0.475832	-0.000614
H62	H	1.607877	0.213846	-0.363119
C63	C	1.599576	-0.448046	-0.239705
H64	H	1.542247	-0.476106	-0.292411
H65	H	1.629836	-0.404607	-0.292753
H66	H	1.667940	-0.487314	-0.212791
