data_functionalizedCrystal
_audit_creation_method	'MofGen! by Chris Wilmer'
_symmetry_space_group_name_H-M	'P1'
_symmetry_Int_Tables_number	1
_symmetry_cell_setting	triclinic
loop_
_symmetry_equiv_pos_as_xyz
  x,y,z
_cell_length_a	19.188930
_cell_length_b	10.654550
_cell_length_c	9.130313
_cell_angle_alpha	90.000110
_cell_angle_beta	89.985896
_cell_angle_gamma	96.185158
loop_
_atom_site_label
_atom_site_type_symbol
_atom_site_fract_x
_atom_site_fract_y
_atom_site_fract_z
O1	O	0.927166	-0.156774	-0.122267
O2	O	0.723993	-0.177880	-0.122166
O3	O	0.830251	0.015511	-0.122214
O4	O	0.820908	-0.350165	-0.122220
O5	O	0.830250	0.015506	0.121385
O6	O	0.723992	-0.177885	0.121433
O7	O	0.927165	-0.156779	0.121332
Cu8	Cu	0.825578	-0.167333	0.143625
Cu9	Cu	0.825580	-0.167326	-0.144459
O10	O	0.820907	-0.350170	0.121379
C11	C	0.697977	-0.177199	-0.000354
C12	C	0.620459	-0.175147	-0.000315
C13	C	0.829564	0.062292	-0.000416
C14	C	0.827512	0.201692	-0.000420
C15	C	0.821594	-0.396951	-0.000422
C16	C	0.823646	-0.536351	-0.000428
C17	C	0.576277	-0.288622	-0.000340
C18	C	0.503441	-0.286695	-0.000356
C19	C	0.474789	-0.171286	-0.000377
C20	C	0.518981	-0.057795	-0.000344
C21	C	0.591816	-0.059726	-0.000313
N22	N	0.366233	-0.083068	-0.083342
N23	N	0.297042	-0.081241	-0.083374
C24	C	0.255343	-0.165461	-0.000466
N25	N	0.285446	-0.251596	0.082456
N26	N	0.354643	-0.253426	0.082482
C27	C	0.395813	-0.169179	-0.000409
C28	C	0.132183	-0.276855	-0.000507
C29	C	0.059345	-0.274922	-0.000514
C30	C	0.074887	-0.046020	-0.000516
C31	C	0.147723	-0.047955	-0.000494
C32	C	0.176366	-0.163376	-0.000497
C33	C	0.953181	-0.157460	-0.000484
C34	C	1.030699	-0.159512	-0.000532
N35	N	0.825582	-0.167336	0.346247
C36	C	0.890075	0.282501	-0.000446
C37	C	0.888142	0.413481	-0.000456
C38	C	0.761078	0.382829	-0.000405
C39	C	0.763011	0.251852	-0.000407
C40	C	0.963434	0.300199	-0.000469
C41	C	0.961502	0.431179	-0.000478
N42	N	0.825581	-0.167313	-0.347082
C43	C	0.872645	-0.081731	0.422878
C44	C	0.872643	-0.081716	0.576215
C45	C	0.778513	-0.252922	0.576276
C46	C	0.778512	-0.252930	0.422942
C47	C	0.926993	0.017109	0.422844
C48	C	0.926991	0.017124	0.576181
H49	H	0.599593	-0.382607	-0.000345
H50	H	0.183697	0.044449	-0.000482
Cl51	Cl	0.719342	-0.360519	0.672702
Cl52	Cl	0.038875	0.099068	-0.000524
H53	H	0.467461	-0.379103	-0.000373
H54	H	0.983673	0.477294	-0.105668
Cl55	Cl	0.908589	0.165753	0.358588
H56	H	0.980643	-0.003259	0.617770
H57	H	0.910029	0.107988	0.623739
Cl58	Cl	0.999488	0.245940	0.161912
Cl59	Cl	0.482963	0.087291	-0.000361
Cl60	Cl	1.005249	-0.028476	0.349365
Cl61	Cl	0.684358	0.150266	-0.000410
H62	H	0.627789	0.032682	-0.000294
H63	H	0.155505	-0.370837	-0.000487
H64	H	0.023372	-0.367332	-0.000526
H65	H	0.708564	0.423686	-0.000396
Cl66	Cl	0.719336	-0.360533	0.326605
H67	H	0.992129	0.271450	-0.102422
Cl68	Cl	1.004172	0.496562	0.156890
