data_functionalizedCrystal
_audit_creation_method	'MofGen! by Chris Wilmer'
_symmetry_space_group_name_H-M	'P1'
_symmetry_Int_Tables_number	1
_symmetry_cell_setting	triclinic
loop_
_symmetry_equiv_pos_as_xyz
  x,y,z
_cell_length_a	16.959453
_cell_length_b	12.594517
_cell_length_c	16.959447
_cell_angle_alpha	90.020251
_cell_angle_beta	89.968936
_cell_angle_gamma	89.985075
loop_
_atom_site_label
_atom_site_type_symbol
_atom_site_fract_x
_atom_site_fract_y
_atom_site_fract_z
Zn1	Zn	-0.314773	-1.627179	-0.447030
Zn2	Zn	-0.446965	-1.627075	-0.314849
Zn3	Zn	-0.314793	-1.449201	-0.314853
Zn4	Zn	-0.446901	-1.449153	-0.446974
O5	O	-0.380858	-1.538152	-0.380927
O6	O	-0.332327	-1.776111	-0.429517
O7	O	-0.429467	-1.603456	-0.204239
O8	O	-0.204179	-1.472873	-0.332412
O9	O	-0.429448	-1.776035	-0.332405
O10	O	-0.204164	-1.603633	-0.429521
O11	O	-0.332361	-1.472772	-0.204242
O12	O	-0.332299	-1.300249	-0.332358
O13	O	-0.429339	-1.472793	-0.557593
O14	O	-0.429359	-1.300214	-0.429427
O15	O	-0.332265	-1.603588	-0.557633
O16	O	-0.557568	-1.603410	-0.332351
O17	O	-0.557521	-1.472692	-0.429423
C18	C	-0.380825	-1.261611	-0.380887
C19	C	-0.380830	-1.143306	-0.380889
C20	C	-0.327962	-1.074041	-0.328190
C21	C	-0.400058	-1.003225	-0.308739
C22	C	-0.308756	-1.003322	-0.400341
C23	C	-0.452963	-1.074049	-0.361401
C24	C	-0.361612	-1.074151	-0.453036
C25	C	-0.433758	-1.003368	-0.433613
C26	C	-0.586224	-1.538063	-0.380898
C27	C	-0.674081	-1.538123	-0.380912
C28	C	-1.045490	-1.606326	-0.431587
C29	C	-1.045623	-1.470275	-0.330384
C30	C	-0.963077	-1.470236	-0.330366
C31	C	-0.921734	-1.538241	-0.380960
C32	C	-0.962937	-1.606287	-0.431572
C33	C	-0.921868	-1.402184	-0.279760
C34	C	-0.839317	-1.402141	-0.279741
C35	C	-0.797972	-1.470153	-0.330331
C36	C	-0.839180	-1.538202	-0.380945
C37	C	-0.797837	-1.606207	-0.431539
C38	C	-0.839044	-1.674262	-0.482149
C39	C	-0.921592	-1.674298	-0.482163
C40	C	-0.715424	-1.470117	-0.330318
C41	C	-0.715284	-1.606168	-0.431524
C42	C	-0.174690	-1.538270	-0.380973
C43	C	-0.086833	-1.538321	-0.380993
C44	C	-0.380793	-1.538196	-0.587095
C45	C	-0.380765	-1.538215	-0.674952
C46	C	-0.380876	-0.815773	-0.380952
C47	C	-0.380843	-0.934078	-0.380926
C48	C	-0.431223	-1.470243	-1.046409
C49	C	-0.330139	-1.606442	-1.046446
C50	C	-0.330156	-1.606413	-0.963900
C51	C	-0.380708	-1.538300	-0.922605
C52	C	-0.431243	-1.470215	-0.963855
C53	C	-0.279627	-1.674504	-0.922644
C54	C	-0.279642	-1.674480	-0.840093
C55	C	-0.330191	-1.606360	-0.798796
C56	C	-0.380728	-1.538272	-0.840051
C57	C	-0.431280	-1.470159	-0.798756
C58	C	-0.481814	-1.402064	-0.840010
C59	C	-0.481792	-1.402096	-0.922558
C60	C	-0.330213	-1.606328	-0.716247
C61	C	-0.431300	-1.470130	-0.716202
C62	C	-0.380866	-1.538169	-0.175560
C63	C	-0.380671	-1.538357	-0.087704
H64	H	-0.345325	-1.105329	-0.514016
C65	C	-1.091103	-1.395556	-0.274672
N66	N	-1.125362	-1.339308	-0.232684
C67	C	-0.966925	-1.749146	-0.537833
N68	N	-1.001073	-1.805517	-0.579766
C69	C	-0.274530	-1.681355	-1.091874
N70	N	-0.232639	-1.737777	-1.126094
C71	C	-0.967349	-1.327509	-0.224017
N72	N	-1.001610	-1.271310	-0.181994
H73	H	-0.805373	-1.729628	-0.523347
H74	H	-0.238475	-1.729965	-0.956272
C75	C	-0.494233	-0.961698	-0.493836
N76	N	-0.539786	-0.930308	-0.539192
C77	C	-0.224047	-1.749373	-0.794721
N78	N	-0.182168	-1.805779	-0.760546
H79	H	-0.247806	-0.972198	-0.416752
C80	C	-0.669813	-1.680985	-0.487180
N81	N	-0.635565	-1.737338	-0.529100
H82	H	-0.805772	-1.346729	-0.238531
H83	H	-0.522936	-1.346660	-0.956155
H84	H	-0.472364	-1.414800	-1.080001
H85	H	-0.289071	-1.661773	-0.682662
H86	H	-0.283304	-1.105071	-0.283575
C87	C	-1.090817	-1.681183	-0.487256
N88	N	-1.124959	-1.737564	-0.529187
C89	C	-0.670101	-1.395264	-0.274649
N90	N	-0.635964	-1.338883	-0.232713
C91	C	-0.535337	-1.115841	-0.339093
N92	N	-0.597378	-1.147322	-0.322287
H93	H	-0.472459	-1.414654	-0.682585
H94	H	-0.416324	-0.972073	-0.247742
C95	C	-0.537419	-1.327142	-0.794574
N96	N	-0.579299	-1.270711	-0.760348
