data_functionalizedCrystal
_audit_creation_method	'MofGen! by Chris Wilmer'
_symmetry_space_group_name_H-M	'P1'
_symmetry_Int_Tables_number	1
_symmetry_cell_setting	triclinic
loop_
_symmetry_equiv_pos_as_xyz
  x,y,z
_cell_length_a	19.188930
_cell_length_b	17.038272
_cell_length_c	15.500227
_cell_angle_alpha	86.956295
_cell_angle_beta	87.186616
_cell_angle_gamma	92.871831
loop_
_atom_site_label
_atom_site_type_symbol
_atom_site_fract_x
_atom_site_fract_y
_atom_site_fract_z
O1	O	0.148564	-1.040536	0.071852
O2	O	0.146156	-0.812914	0.071877
O3	O	0.046114	-0.933292	0.071847
O4	O	0.248607	-0.920157	0.071882
O5	O	0.052159	-0.925988	-0.072040
O6	O	0.152202	-0.805609	-0.072009
O7	O	0.154610	-1.033231	-0.072035
Cu8	Cu	0.153958	-0.918753	-0.085160
Cu9	Cu	0.146808	-0.927392	0.085003
O10	O	0.254653	-0.912852	-0.072004
C11	C	0.023099	-0.929214	-0.000099
C12	C	-0.054485	-0.927937	-0.000106
C13	C	0.146990	-0.780140	-0.000063
C14	C	0.140458	-0.693368	-0.000054
C15	C	0.153776	-1.066004	-0.000092
C16	C	0.160308	-1.152777	-0.000095
C17	C	-0.095020	-0.998572	-0.000118
C18	C	-0.167919	-0.997373	-0.000104
C19	C	-0.200279	-0.925534	-0.000095
C20	C	-0.159734	-0.854890	-0.000079
C21	C	-0.086837	-0.856092	-0.000084
N22	N	-0.309638	-0.868136	-0.049057
N23	N	-0.378887	-0.866999	-0.049053
C24	C	-0.419913	-0.921909	-0.000077
N25	N	-0.389074	-0.978011	0.048884
N26	N	-0.319818	-0.979150	0.048877
C27	C	-0.279323	-0.924223	-0.000089
C28	C	-0.539494	-0.991249	-0.000073
C29	C	-0.612395	-0.990047	-0.000054
C30	C	-0.604208	-0.847562	-0.000037
C31	C	-0.531310	-0.848767	-0.000048
C32	C	-0.498957	-0.920612	-0.000070
C33	C	0.277667	-0.916930	-0.000057
C34	C	0.355250	-0.918208	-0.000044
C35	C	0.200424	-0.643067	-0.000044
C36	C	0.194283	-0.561535	-0.000057
C37	C	0.128176	-0.530306	-0.000074
C38	C	0.068205	-0.580613	-0.000086
C39	C	0.074347	-0.662143	-0.000080
C40	C	0.106479	-0.284614	-0.000101
C41	C	0.100342	-0.203078	-0.000105
C42	C	0.226421	-0.184005	-0.000078
C43	C	0.232556	-0.265538	-0.000066
C44	C	0.172586	-0.315838	-0.000083
C45	C	0.121897	-0.446967	-0.000085
C46	C	0.178865	-0.399174	-0.000078
N47	N	0.158986	-0.912682	-0.204843
C48	C	0.116612	-0.963709	-0.250133
C49	C	0.120422	-0.959125	-0.340705
C50	C	0.166610	-0.903518	-0.385985
C51	C	0.208985	-0.852486	-0.340689
C52	C	0.205171	-0.857067	-0.250119
C53	C	0.180337	-0.887017	-0.659448
C54	C	0.184149	-0.882442	-0.750024
C55	C	0.095584	-0.989080	-0.750033
C56	C	0.091778	-0.993659	-0.659461
C57	C	0.134150	-0.942624	-0.614174
C58	C	0.170506	-0.898833	-0.478564
C59	C	0.130250	-0.947306	-0.521596
N60	N	0.141775	-0.933468	0.204686
H61	H	-0.068683	-1.057074	-0.000133
H62	H	0.025516	-0.703099	-0.000087
H63	H	-0.200929	-1.054894	-0.000110
H64	H	-0.630555	-0.789070	-0.000026
O65	O	0.252518	-0.512630	-0.000192
C66	C	0.255868	-0.461112	-0.074704
H67	H	0.224144	-0.488459	-0.126801
H68	H	0.312606	-0.450481	-0.099696
H69	H	0.233566	-0.402739	-0.057867
O70	O	-0.491850	-0.780197	-0.000160
C71	C	-0.446331	-0.772836	-0.074694
H72	H	-0.437925	-0.833608	-0.099548
H73	H	-0.394039	-0.744384	-0.057933
H74	H	-0.470220	-0.734566	-0.126869
O75	O	0.264697	-0.673267	-0.000066
C76	C	0.316305	-0.611383	-0.000039
H77	H	0.294591	-0.554684	-0.027289
H78	H	0.363924	-0.626153	-0.041804
H79	H	0.332134	-0.603273	0.068993
O80	O	0.085321	-1.001205	-0.477537
C81	C	0.037532	-0.962116	-0.425209
H82	H	0.061117	-0.901551	-0.411632
H83	H	0.025730	-0.997995	-0.361521
H84	H	-0.012892	-0.955194	-0.460157
O85	O	0.215282	-0.844786	-0.522650
C86	C	0.177209	-0.794034	-0.575041
H87	H	0.125018	-0.824668	-0.588608
H88	H	0.208279	-0.778355	-0.638729
H89	H	0.167543	-0.738041	-0.540151
O90	O	0.296828	-0.295739	-0.000093
C91	C	0.348440	-0.233858	-0.000066
H92	H	0.326728	-0.177157	-0.027315
H93	H	0.396058	-0.248630	-0.041830
H94	H	0.364269	-0.225749	0.068967
O95	O	0.243113	-0.429419	0.000055
C96	C	0.276819	-0.407487	0.074596
H97	H	0.253395	-0.352258	0.099431
H98	H	0.334984	-0.395129	0.057854
H99	H	0.269335	-0.457338	0.126779
H100	H	0.246590	-0.807206	-0.377562
H101	H	0.239676	-0.815515	-0.213246
O102	O	0.003978	-0.550311	-0.000254
C103	C	-0.029747	-0.572279	-0.074768
H104	H	0.011014	-0.586470	-0.126848
H105	H	-0.061331	-0.521723	-0.099788
H106	H	-0.066194	-0.626406	-0.057925
O107	O	0.079366	-1.008721	-0.384798
C108	C	0.121852	-1.054170	-0.437154
H109	H	0.175179	-1.022156	-0.450705
H110	H	0.096141	-1.063415	-0.500852
H111	H	0.128591	-1.113689	-0.402243
H112	H	0.275245	-0.143042	-0.000066
O113	O	-0.191140	-0.785094	0.000082
C114	C	-0.173946	-0.745826	0.074598
H115	H	-0.158481	-0.790485	0.126676
H116	H	-0.221078	-0.713993	0.099619
H117	H	-0.128376	-0.701247	0.057756
O118	O	-0.047434	-0.787502	0.000076
C119	C	-0.008126	-0.787728	0.074580
H120	H	-0.034595	-0.830437	0.126663
H121	H	-0.004725	-0.726004	0.099603
H122	H	0.046726	-0.806923	0.057721
O123	O	0.036070	-0.172869	-0.000159
C124	C	-0.015547	-0.234749	-0.000149
H125	H	0.008452	-0.288691	-0.027388
H126	H	-0.059653	-0.215741	-0.041931
H127	H	-0.037178	-0.249851	0.068877
H128	H	0.054168	-1.038938	-0.622596
O129	O	-0.651879	-1.058596	-0.000022
C130	C	-0.723157	-1.042131	-0.000027
H131	H	-0.730735	-0.982127	0.027226
H132	H	-0.755221	-1.089295	0.041744
H133	H	-0.741154	-1.041660	-0.069054
H134	H	0.057647	-0.325559	-0.000115
H135	H	-0.513151	-1.049750	-0.000087
H136	H	0.068073	-0.421530	-0.000123
H137	H	0.079004	-1.008993	-0.213271
H138	H	0.061085	-1.030629	-0.786915
O139	O	0.228933	-0.828311	-0.793977
C140	C	0.212019	-0.752095	-0.771852
H141	H	0.155061	-0.753174	-0.746965
H142	H	0.220194	-0.709832	-0.831424
H143	H	0.247123	-0.731647	-0.719280
H144	H	0.214840	-0.845464	-0.622582
