data_functionalizedCrystal
_audit_creation_method	'MofGen! by Chris Wilmer'
_symmetry_space_group_name_H-M	'P1'
_symmetry_Int_Tables_number	1
_symmetry_cell_setting	triclinic
loop_
_symmetry_equiv_pos_as_xyz
  x,y,z
_cell_length_a	12.827893
_cell_length_b	19.077068
_cell_length_c	19.077579
_cell_angle_alpha	89.936576
_cell_angle_beta	87.688646
_cell_angle_gamma	87.673061
loop_
_atom_site_label
_atom_site_type_symbol
_atom_site_fract_x
_atom_site_fract_y
_atom_site_fract_z
Zn1	Zn	1.606155	0.263803	-0.408505
Zn2	Zn	2.106155	0.763803	0.091495
Zn3	Zn	1.592009	0.386035	-0.295711
Zn4	Zn	2.092009	0.886035	0.204289
Zn5	Zn	1.424122	0.268544	-0.291015
Zn6	Zn	1.924122	0.768544	0.208985
Zn7	Zn	1.424616	0.381277	-0.413182
Zn8	Zn	1.924616	0.881277	0.086818
O9	O	1.511726	0.324915	-0.352103
O10	O	2.011726	0.824915	0.147897
O11	O	1.750515	0.280025	-0.393550
O12	O	2.250515	0.780025	0.106450
O13	O	1.563612	0.374425	-0.196756
O14	O	2.063612	0.874425	0.303244
O15	O	1.453983	0.169582	-0.302678
O16	O	1.953983	0.669582	0.197322
O17	O	1.740122	0.369828	-0.310681
O18	O	2.240122	0.869828	0.189319
O19	O	1.587722	0.166099	-0.388997
O20	O	2.087722	0.666099	0.111003
O21	O	1.440266	0.288104	-0.193306
O22	O	1.940266	0.788104	0.306694
O23	O	1.277952	0.283491	-0.307213
O24	O	1.777952	0.783491	0.192787
O25	O	1.454824	0.361719	-0.510894
O26	O	1.954824	0.861719	-0.010894
O27	O	1.278314	0.366316	-0.396969
O28	O	1.778314	0.866316	0.103031
O29	O	1.588200	0.275411	-0.507457
O30	O	2.088200	0.775411	-0.007457
O31	O	1.564091	0.483737	-0.315216
O32	O	2.064091	0.983737	0.184784
O33	O	1.441108	0.480242	-0.401522
O34	O	1.941108	0.980242	0.098478
C35	C	1.240216	0.324902	-0.352089
C36	C	1.740216	0.824902	0.147911
C37	C	1.124063	0.324913	-0.352101
C38	C	1.624063	0.824913	0.147899
C39	C	1.501147	0.507486	-0.359402
C40	C	2.001147	1.007486	0.140598
C41	C	1.496719	0.585589	-0.362547
C42	C	1.996719	1.085589	0.137453
C43	C	1.523145	0.317506	-0.535385
C44	C	2.023145	0.817506	-0.035385
C45	C	1.528012	0.314348	-0.613488
C46	C	2.028012	0.814348	-0.113488
C47	C	1.072477	0.365966	-0.396451
C48	C	1.572477	0.865966	0.103549
C49	C	0.952427	0.365978	-0.396464
C50	C	1.452427	0.865978	0.103536
C51	C	1.784296	0.324928	-0.352118
C52	C	2.284296	0.824928	0.147882
C53	C	1.900449	0.324934	-0.352124
C54	C	2.400449	0.824934	0.147876
C55	C	1.522375	0.141630	-0.344792
C56	C	2.022375	0.641630	0.155208
C57	C	1.526913	0.063525	-0.341676
C58	C	2.026913	0.563525	0.158324
C59	C	1.558723	0.624078	-0.319128
C60	C	2.058723	1.124078	0.180872
C61	C	1.554564	0.697464	-0.322091
C62	C	2.054564	1.197464	0.177909
C63	C	1.488395	0.732361	-0.368470
C64	C	1.988395	1.232361	0.131530
C65	C	1.426388	0.693867	-0.411894
C66	C	1.926388	1.193867	0.088106
C67	C	1.430553	0.620482	-0.408935
C68	C	1.930553	1.120482	0.091065
C69	C	1.469071	0.951647	-0.382140
C70	C	1.969071	1.451647	0.117860
C71	C	1.464909	1.025037	-0.385095
C72	C	1.964909	1.525037	0.114905
C73	C	1.593087	1.028629	-0.295292
C74	C	2.093087	1.528629	0.204708
C75	C	1.597241	0.955242	-0.292334
C76	C	2.097241	1.455242	0.207666
C77	C	1.535239	0.916755	-0.335760
C78	C	2.035239	1.416755	0.164240
N79	N	1.484140	0.807374	-0.371498
N80	N	1.984140	1.307374	0.128502
N81	N	1.539500	0.841743	-0.332735
N82	N	2.039500	1.341743	0.167265
C83	C	1.562912	0.291754	-1.052937
C84	C	2.062912	0.791754	-0.552937
C85	C	1.558333	0.294724	-0.979551
C86	C	2.058333	0.794724	-0.479551
C87	C	1.486597	0.341141	-0.944650
C88	C	1.986597	0.841141	-0.444650
C89	C	1.419443	0.384595	-0.983140
C90	C	1.919443	0.884595	-0.483140
C91	C	1.424028	0.381628	-1.056525
C92	C	1.924028	0.881628	-0.556525
C93	C	1.465442	0.354836	-0.725363
C94	C	1.965442	0.854836	-0.225363
C95	C	1.460860	0.357798	-0.651973
C96	C	1.960860	0.857798	-0.151973
C97	C	1.599753	0.267927	-0.648389
C98	C	2.099753	0.767927	-0.148389
C99	C	1.604327	0.264962	-0.721776
C100	C	2.104327	0.764962	-0.221776
C101	C	1.537177	0.308419	-0.760259
C102	C	2.037177	0.808419	-0.260259
N103	N	1.481912	0.344176	-0.869637
N104	N	1.981912	0.844176	-0.369637
N105	N	1.541867	0.305386	-0.835271
N106	N	2.041867	0.805386	-0.335271
C107	C	1.500413	0.332245	-0.169533
C108	C	2.000413	0.832245	0.330467
C109	C	1.495761	0.335204	-0.091422
C110	C	1.995761	0.835204	0.408578
H111	H	1.117190	0.401102	-0.434415
H112	H	1.617190	0.901102	0.065585
H113	H	1.411039	1.053447	-0.422875
H114	H	1.911039	1.553447	0.077125
Br115	Br	1.374317	0.413819	-0.777582
Br116	Br	1.874317	0.913819	-0.277582
H117	H	1.643567	1.059973	-0.259938
H118	H	2.143567	1.559973	0.240062
H119	H	1.612600	0.595670	-0.281358
H120	H	2.112600	1.095670	0.218642
H121	H	1.402420	0.395583	-0.623558
H122	H	1.902420	0.895583	-0.123558
H123	H	1.418584	0.920316	-0.417499
H124	H	1.918584	1.420316	0.082501
Br125	Br	1.336595	0.741226	-0.474845
Br126	Br	1.836595	1.241226	0.025155
Br127	Br	0.974375	0.266353	-0.288825
Br128	Br	1.474375	0.766353	0.211175
H129	H	1.605054	0.728798	-0.286733
H130	H	2.105054	1.228798	0.213267
Br131	Br	1.322089	0.447593	-0.935775
Br132	Br	1.822089	0.947593	-0.435775
H133	H	1.380064	0.589145	-0.444292
H134	H	1.880064	1.089145	0.055708
Br135	Br	0.878492	0.424570	-0.459749
Br136	Br	1.378492	0.924570	0.040251
H137	H	1.651122	0.926831	-0.254568
H138	H	2.151122	1.426831	0.245432
H139	H	1.079351	0.289771	-0.314143
H140	H	1.579351	0.789771	0.185857
H141	H	1.621321	0.253952	-1.081348
H142	H	2.121321	0.753952	-0.581348
H143	H	1.662747	0.227167	-0.750187
H144	H	2.162747	0.727167	-0.250187
Br145	Br	1.649474	0.235756	-0.927324
Br146	Br	2.149474	0.735756	-0.427324
Br147	Br	1.690871	0.208947	-0.596158
Br148	Br	2.190871	0.708947	-0.096158
Br149	Br	1.332895	0.440602	-1.108755
Br150	Br	1.832895	0.940602	-0.608755
