data_functionalizedCrystal
_audit_creation_method	'MofGen! by Chris Wilmer'
_symmetry_space_group_name_H-M	'P1'
_symmetry_Int_Tables_number	1
_symmetry_cell_setting	triclinic
loop_
_symmetry_equiv_pos_as_xyz
  x,y,z
_cell_length_a	6.817900
_cell_length_b	17.284796
_cell_length_c	10.992410
_cell_angle_alpha	90.611226
_cell_angle_beta	108.764651
_cell_angle_gamma	103.042616
loop_
_atom_site_label
_atom_site_type_symbol
_atom_site_fract_x
_atom_site_fract_y
_atom_site_fract_z
V1	V	-4.078782	-0.109058	-0.389649
O2	O	-4.074080	0.005241	-0.393493
O3	O	-4.021504	-0.216245	-0.376152
O4	O	-4.056920	-0.107381	-0.564530
O5	O	-4.038419	-0.104377	-0.203812
V6	V	-4.560122	-0.095387	-0.368737
O7	O	-4.344830	-0.139048	-0.435520
O8	O	-4.744272	-0.065397	-0.322865
O9	O	-4.394194	0.011799	-0.382233
O10	O	-4.682221	-0.209686	-0.364892
O11	O	-4.717882	-0.100069	-0.554573
O12	O	-4.358778	-0.097065	-0.193856
C13	C	-3.863487	-0.242374	-0.367211
C14	C	-3.898119	-0.330000	-0.357342
C15	C	-4.086745	-0.822020	-0.289166
C16	C	-4.054225	-0.739688	-0.298460
C17	C	-4.095135	-0.709789	-0.419639
C18	C	-4.168550	-0.762225	-0.531530
C19	C	-4.201054	-0.844555	-0.522234
C20	C	-4.004038	-0.464767	-0.459936
C21	C	-3.971533	-0.382431	-0.469224
C22	C	-3.857207	-0.359899	-0.236154
C23	C	-3.889729	-0.442231	-0.226869
C24	C	-3.963130	-0.494661	-0.338759
N25	N	-4.061902	-0.625633	-0.429142
N26	N	-3.996347	-0.578815	-0.329254
C27	C	-3.908662	-0.103507	-0.607503
C28	C	-3.972012	-0.102844	-0.750398
C29	C	-3.841097	-0.096810	-0.946127
C30	C	-3.775217	-0.097825	-0.797541
C31	C	-4.144753	-0.180564	-0.819702
C32	C	-4.209290	-0.179877	-0.968338
C33	C	-4.135997	-0.029383	-0.945409
C34	C	-4.065407	-0.029015	-0.796433
C35	C	-4.215552	0.037925	-0.391171
C36	C	-4.160160	0.125550	-0.401048
C37	C	-4.170377	-0.100941	-0.150876
C38	C	-4.086266	-0.101600	-0.007980
H39	H	-4.004893	-0.358092	-0.567909
Br40	Br	-4.103446	-0.535906	-0.611782
H41	H	-3.742192	-0.040541	-0.970603
Br42	Br	-3.771394	-0.183293	-1.017429
H43	H	-3.700928	-0.150434	-0.767447
Br44	Br	-4.153723	-0.271016	-1.036320
H45	H	-4.260828	-0.887244	-0.613340
H46	H	-4.081166	-0.235380	-0.788596
H47	H	-4.201844	-0.737875	-0.630196
Br48	Br	-3.857803	0.066816	-0.718797
H49	H	-3.644935	-0.041941	-0.749809
H50	H	-4.293022	-0.187044	-0.790249
H51	H	-4.052275	0.029636	-0.971690
H52	H	-3.994454	-0.697002	-0.207353
Br53	Br	-3.834242	-0.482804	-0.062407
Br54	Br	-4.432779	-0.034088	-1.013008
Br55	Br	-4.031237	-0.862589	-0.124701
H56	H	-3.797439	-0.317202	-0.145059
Br57	Br	-4.508962	-0.191121	-1.038268
Br58	Br	-4.302757	-0.027484	-0.742386
