data_functionalizedCrystal
_audit_creation_method	'MofGen! by Chris Wilmer'
_symmetry_space_group_name_H-M	'P1'
_symmetry_Int_Tables_number	1
_symmetry_cell_setting	triclinic
loop_
_symmetry_equiv_pos_as_xyz
  x,y,z
_cell_length_a	11.169416
_cell_length_b	11.169417
_cell_length_c	11.169409
_cell_angle_alpha	90.021683
_cell_angle_beta	89.969126
_cell_angle_gamma	89.990722
loop_
_atom_site_label
_atom_site_type_symbol
_atom_site_fract_x
_atom_site_fract_y
_atom_site_fract_z
Zn1	Zn	-0.477744	-1.834962	-0.678614
Zn2	Zn	-0.227744	-1.584962	-0.428614
Zn3	Zn	0.022256	-1.334962	-0.178614
Zn4	Zn	0.272256	-1.084962	0.071386
Zn5	Zn	-0.678484	-1.834852	-0.477936
Zn6	Zn	-0.428484	-1.584852	-0.227936
Zn7	Zn	-0.178484	-1.334852	0.022064
Zn8	Zn	0.071516	-1.084852	0.272064
Zn9	Zn	-0.477810	-1.634248	-0.477942
Zn10	Zn	-0.227810	-1.384248	-0.227942
Zn11	Zn	0.022190	-1.134248	0.022058
Zn12	Zn	0.272190	-0.884248	0.272058
Zn13	Zn	-0.678380	-1.634256	-0.678575
Zn14	Zn	-0.428380	-1.384256	-0.428575
Zn15	Zn	-0.178380	-1.134256	-0.178575
Zn16	Zn	0.071620	-0.884256	0.071425
O17	O	-0.578105	-1.734579	-0.578267
O18	O	-0.328105	-1.484579	-0.328267
O19	O	-0.078105	-1.234579	-0.078267
O20	O	0.171895	-0.984579	0.171733
O21	O	-0.504389	-2.002897	-0.652008
O22	O	-0.254389	-1.752897	-0.402008
O23	O	-0.004389	-1.502897	-0.152008
O24	O	0.245611	-1.252897	0.097992
O25	O	-0.651936	-1.808192	-0.309987
O26	O	-0.401936	-1.558192	-0.059987
O27	O	-0.151936	-1.308192	0.190013
O28	O	0.098064	-1.058192	0.440013
O29	O	-0.309852	-1.660917	-0.504581
O30	O	-0.059852	-1.410917	-0.254581
O31	O	0.190148	-1.160917	-0.004581
O32	O	0.440148	-0.910917	0.245419
O33	O	-0.651872	-2.002816	-0.504571
O34	O	-0.401872	-1.752816	-0.254571
O35	O	-0.151872	-1.502816	-0.004571
O36	O	0.098128	-1.252816	0.245429
O37	O	-0.309803	-1.808380	-0.652014
O38	O	-0.059803	-1.558380	-0.402014
O39	O	0.190197	-1.308380	-0.152014
O40	O	0.440197	-1.058380	0.097986
O41	O	-0.504502	-1.660809	-0.309992
O42	O	-0.254502	-1.410809	-0.059992
O43	O	-0.004502	-1.160809	0.190008
O44	O	0.245498	-0.910809	0.440008
O45	O	-0.504400	-1.466300	-0.504543
O46	O	-0.254400	-1.216300	-0.254543
O47	O	-0.004400	-0.966300	-0.004543
O48	O	0.245600	-0.716300	0.245457
O49	O	-0.651694	-1.660929	-0.846530
O50	O	-0.401694	-1.410929	-0.596530
O51	O	-0.151694	-1.160929	-0.346530
O52	O	0.098306	-0.910929	-0.096530
O53	O	-0.651758	-1.466305	-0.651946
O54	O	-0.401758	-1.216305	-0.401946
O55	O	-0.151758	-0.966305	-0.151946
O56	O	0.098242	-0.716305	0.098054
O57	O	-0.504287	-1.808388	-0.846559
O58	O	-0.254287	-1.558388	-0.596559
O59	O	-0.004287	-1.308388	-0.346559
O60	O	0.245713	-1.058388	-0.096559
O61	O	-0.846420	-1.808199	-0.504533
O62	O	-0.596420	-1.558199	-0.254533
O63	O	-0.346420	-1.308199	-0.004533
O64	O	-0.096420	-1.058199	0.245467
O65	O	-0.846344	-1.660822	-0.651941
O66	O	-0.596344	-1.410822	-0.401941
O67	O	-0.346344	-1.160822	-0.151941
O68	O	-0.096344	-0.910822	0.098059
C69	C	-0.578076	-1.422755	-0.578241
C70	C	-0.328076	-1.172755	-0.328241
C71	C	-0.078076	-0.922755	-0.078241
C72	C	0.171924	-0.672755	0.171759
C73	C	-0.578093	-1.289355	-0.578259
C74	C	-0.328093	-1.039355	-0.328259
C75	C	-0.078093	-0.789355	-0.078259
C76	C	0.171907	-0.539355	0.171741
C77	C	-0.889929	-1.734532	-0.578258
C78	C	-0.639929	-1.484532	-0.328258
C79	C	-0.389929	-1.234532	-0.078258
C80	C	-0.139929	-0.984532	0.171742
C81	C	-1.023329	-1.734621	-0.578294
C82	C	-0.773329	-1.484621	-0.328294
C83	C	-0.523329	-1.234621	-0.078294
C84	C	-0.273329	-0.984621	0.171706
C85	C	-0.265062	-1.734660	-0.578302
C86	C	-0.015062	-1.484660	-0.328302
C87	C	0.234938	-1.234660	-0.078302
C88	C	0.484938	-0.984660	0.171698
C89	C	-0.131662	-1.734694	-0.578318
C90	C	0.118338	-1.484694	-0.328318
C91	C	0.368338	-1.234694	-0.078318
C92	C	0.618338	-0.984694	0.171682
C93	C	-0.577971	-1.734672	-0.891310
C94	C	-0.327971	-1.484672	-0.641310
C95	C	-0.077971	-1.234672	-0.391310
C96	C	0.172029	-0.984672	-0.141310
C97	C	-0.577915	-1.734711	-1.024710
C98	C	-0.327915	-1.484711	-0.774710
C99	C	-0.077915	-1.234711	-0.524710
C100	C	0.172085	-0.984711	-0.274710
C101	C	-0.578124	-1.047622	-0.578284
C102	C	-0.328124	-0.797622	-0.328284
C103	C	-0.078124	-0.547622	-0.078284
C104	C	0.171876	-0.297622	0.171716
C105	C	-0.578107	-1.181022	-0.578267
C106	C	-0.328107	-0.931022	-0.328267
C107	C	-0.078107	-0.681022	-0.078267
C108	C	0.171893	-0.431022	0.171733
C109	C	-0.578151	-1.734557	-0.266442
C110	C	-0.328151	-1.484557	-0.016442
C111	C	-0.078151	-1.234557	0.233558
C112	C	0.171849	-0.984557	0.483558
C113	C	-0.577870	-1.734750	-0.133043
C114	C	-0.327870	-1.484750	0.116957
C115	C	-0.077870	-1.234750	0.366957
C116	C	0.172130	-0.984750	0.616957
