data_functionalizedCrystal
_audit_creation_method	'MofGen! by Chris Wilmer'
_symmetry_space_group_name_H-M	'P1'
_symmetry_Int_Tables_number	1
_symmetry_cell_setting	triclinic
loop_
_symmetry_equiv_pos_as_xyz
  x,y,z
_cell_length_a	18.050591
_cell_length_b	25.639239
_cell_length_c	25.639234
_cell_angle_alpha	90.024905
_cell_angle_beta	90.026596
_cell_angle_gamma	90.034692
loop_
_atom_site_label
_atom_site_type_symbol
_atom_site_fract_x
_atom_site_fract_y
_atom_site_fract_z
Zn1	Zn	1.135280	-0.208238	0.295704
Zn2	Zn	1.635280	0.291762	0.795704
Zn3	Zn	1.135156	-0.295666	0.208268
Zn4	Zn	1.635156	0.204334	0.708268
Zn5	Zn	1.011087	-0.208241	0.208272
Zn6	Zn	1.511087	0.291759	0.708272
Zn7	Zn	1.011025	-0.295638	0.295662
Zn8	Zn	1.511025	0.204362	0.795662
O9	O	1.073137	-0.251946	0.251977
O10	O	1.573137	0.248054	0.751977
O11	O	1.239188	-0.219847	0.284121
O12	O	1.739188	0.280153	0.784121
O13	O	1.118672	-0.284082	0.135103
O14	O	1.618672	0.215918	0.635103
O15	O	1.027640	-0.135075	0.219889
O16	O	1.527640	0.364925	0.719889
O17	O	1.239097	-0.284080	0.219882
O18	O	1.739097	0.215920	0.719882
O19	O	1.118884	-0.135073	0.284125
O20	O	1.618884	0.364927	0.784125
O21	O	1.027519	-0.219851	0.135106
O22	O	1.527519	0.280149	0.635106
O23	O	0.907154	-0.219824	0.219849
O24	O	1.407154	0.280176	0.719849
O25	O	1.027533	-0.284032	0.368833
O26	O	1.527533	0.215968	0.868833
O27	O	0.907108	-0.284034	0.284054
O28	O	1.407108	0.215966	0.784054
O29	O	1.118823	-0.219819	0.368864
O30	O	1.618823	0.280181	0.868864
O31	O	1.118611	-0.368828	0.219842
O32	O	1.618611	0.131172	0.719842
O33	O	1.027413	-0.368807	0.284050
O34	O	1.527413	0.131193	0.784050
C35	C	0.880185	-0.251927	0.251948
C36	C	1.380185	0.248073	0.751948
C37	C	0.797639	-0.251931	0.251948
C38	C	1.297639	0.248069	0.751948
C39	C	0.598192	-0.216973	0.217113
C40	C	1.098192	0.283027	0.717113
C41	C	0.548758	-0.264660	0.204245
C42	C	1.048758	0.235340	0.704245
C43	C	0.646509	-0.251947	0.251971
C44	C	1.146509	0.248053	0.751971
C45	C	0.548861	-0.204276	0.264838
C46	C	1.048861	0.295724	0.764838
C47	C	0.500523	-0.251958	0.251993
C48	C	1.000523	0.248042	0.751993
C49	C	0.598162	-0.299659	0.239078
C50	C	1.098162	0.200341	0.739078
C51	C	0.598269	-0.239243	0.299694
C52	C	1.098269	0.260757	0.799694
C53	C	0.548858	-0.286963	0.286843
C54	C	1.048858	0.213037	0.786843
C55	C	0.730607	-0.251940	0.251957
C56	C	1.230607	0.248060	0.751957
C57	C	0.416427	-0.251970	0.252007
C58	C	0.916427	0.248030	0.752007
C59	C	1.073012	-0.387789	0.251953
C60	C	1.573012	0.112211	0.751953
C61	C	1.073026	-0.445903	0.251960
C62	C	1.573026	0.054097	0.751960
C63	C	1.120748	-0.806264	0.218600
C64	C	1.620748	-0.306264	0.718600
C65	C	1.120777	-0.860868	0.218607
C66	C	1.620777	-0.360868	0.718607
O67	O	1.161222	-0.889103	0.190218
O68	O	1.661222	-0.389103	0.690218
N69	N	1.073267	-0.888185	0.252011
N70	N	1.573267	-0.388185	0.752011
C71	C	1.025732	-0.860895	0.285414
C72	C	1.525732	-0.360895	0.785414
O73	O	0.985324	-0.889144	0.313828
O74	O	1.485324	-0.389144	0.813828
C75	C	1.025707	-0.806292	0.285409
C76	C	1.525707	-0.306292	0.785409
C77	C	1.073214	-0.778977	0.251999
C78	C	1.573214	-0.278977	0.751999
C79	C	1.168252	-0.778950	0.185194
C80	C	1.668252	-0.278950	0.685194
C81	C	1.168222	-0.724349	0.185186
C82	C	1.668222	-0.224349	0.685186
C83	C	1.120688	-0.697063	0.218585
C84	C	1.620688	-0.197063	0.718585
C85	C	1.073184	-0.724377	0.251992
C86	C	1.573184	-0.224377	0.751992
C87	C	0.978175	-0.779002	0.318814
C88	C	1.478175	-0.279002	0.818814
C89	C	0.978155	-0.724395	0.318807
C90	C	1.478155	-0.224395	0.818807
C91	C	1.025663	-0.697081	0.285397
C92	C	1.525663	-0.197081	0.785397
C93	C	1.025620	-0.642490	0.285383
C94	C	1.525620	-0.142490	0.785383
N95	N	1.073130	-0.615173	0.251980
N96	N	1.573130	-0.115173	0.751980
C97	C	1.120664	-0.642459	0.218581
C98	C	1.620664	-0.142459	0.718581
C99	C	1.025787	-0.975565	0.285422
C100	C	1.525787	-0.475565	0.785422
C101	C	1.025808	-1.030168	0.285425
C102	C	1.525808	-0.530168	0.785425
C103	C	1.120854	-1.030137	0.218619
C104	C	1.620854	-0.530137	0.718619
C105	C	1.120830	-0.975534	0.218614
C106	C	1.620830	-0.475534	0.718614
C107	C	1.073297	-0.948249	0.252018
C108	C	1.573297	-0.448249	0.752018
C109	C	1.120597	-0.527794	0.218567
C110	C	1.620597	-0.027794	0.718567
C111	C	1.120560	-0.473189	0.218561
C112	C	1.620560	0.026811	0.718561
C113	C	1.025517	-0.473224	0.285369
C114	C	1.525517	0.026776	0.785369
C115	C	1.025550	-0.527825	0.285373
C116	C	1.525550	-0.027825	0.785373
C117	C	1.073096	-0.555109	0.251970
C118	C	1.573096	-0.055109	0.751970
O119	O	0.985198	-0.614220	0.313760
O120	O	1.485198	-0.114220	0.813760
O121	O	1.161071	-0.614204	0.190177
O122	O	1.661071	-0.114204	0.690177
C123	C	1.266842	-0.251966	0.252006
C124	C	1.766842	0.248034	0.752006
C125	C	1.349388	-0.251974	0.252018
C126	C	1.849388	0.248026	0.752018
C127	C	1.073185	-0.251922	0.388350
C128	C	1.573185	0.248078	0.888350
C129	C	1.073206	-0.251912	0.446464
C130	C	1.573206	0.248088	0.946464
C131	C	1.073282	-0.115573	0.252012
C132	C	1.573282	0.384427	0.752012
C133	C	1.073345	-0.057459	0.252027
C134	C	1.573345	0.442541	0.752027
C135	C	1.073132	-0.251932	0.116134
C136	C	1.573132	0.248068	0.616134
C137	C	1.073255	-0.251795	0.058020
C138	C	1.573255	0.248205	0.558020
C139	C	1.025763	-0.218405	0.806834
C140	C	1.525763	0.281595	1.306834
C141	C	1.025767	-0.218395	0.861438
C142	C	1.525767	0.281605	1.361438
O143	O	0.985393	-0.189963	0.889681
O144	O	1.485393	0.310037	1.389681
N145	N	1.073230	-0.251830	0.888746
N146	N	1.573230	0.248170	1.388746
C147	C	1.120687	-0.285280	0.861447
C148	C	1.620687	0.214720	1.361447
O149	O	1.161058	-0.313719	0.889689
O150	O	1.661058	0.186281	1.389689
C151	C	1.120679	-0.285292	0.806844
C152	C	1.620679	0.214708	1.306844
C153	C	1.073218	-0.251851	0.779539
C154	C	1.573218	0.248149	1.279539
C155	C	0.978306	-0.184967	0.779529
C156	C	1.478306	0.315033	1.279529
C157	C	0.978303	-0.184976	0.724928
C158	C	1.478303	0.315024	1.224928
C159	C	1.025758	-0.218422	0.697633
C160	C	1.525758	0.281578	1.197633
C161	C	1.073215	-0.251860	0.724938
C162	C	1.573215	0.248140	1.224938
C163	C	1.168131	-0.318745	0.779546
C164	C	1.668131	0.181255	1.279546
C165	C	1.168119	-0.318754	0.724939
C166	C	1.668119	0.181246	1.224939
C167	C	1.120658	-0.285313	0.697634
C168	C	1.620658	0.214687	1.197634
C169	C	1.120667	-0.285316	0.643042
C170	C	1.620667	0.214684	1.143042
N171	N	1.073204	-0.251881	0.615734
N172	N	1.573204	0.248119	1.115734
C173	C	1.025749	-0.218434	0.643029
C174	C	1.525749	0.281566	1.143029
C175	C	1.120700	-0.285254	0.976118
C176	C	1.620700	0.214746	1.476118
C177	C	1.120713	-0.285240	1.030720
C178	C	1.620713	0.214760	1.530720
C179	C	1.025792	-0.218355	1.030708
C180	C	1.525792	0.281645	1.530708
C181	C	1.025783	-0.218367	0.976104
C182	C	1.525783	0.281633	1.476104
C183	C	1.073237	-0.251819	0.948810
C184	C	1.573237	0.248181	1.448810
C185	C	1.025747	-0.218455	0.528364
C186	C	1.525747	0.281545	1.028364
C187	C	1.025751	-0.218465	0.473759
C188	C	1.525751	0.281535	0.973759
C189	C	1.120669	-0.285352	0.473777
C190	C	1.620669	0.214648	0.973777
C191	C	1.120669	-0.285340	0.528377
C192	C	1.620669	0.214660	1.028377
C193	C	1.073202	-0.251890	0.555670
C194	C	1.573202	0.248110	1.055670
O195	O	1.161019	-0.313734	0.614765
O196	O	1.661019	0.186266	1.114765
O197	O	0.985378	-0.190005	0.614781
O198	O	1.485378	0.309995	1.114781
H199	H	0.619728	-0.339991	0.228159
H200	H	1.119728	0.160009	0.728159
H201	H	0.527333	-0.316578	0.316331
H202	H	1.027333	0.183422	0.816331
Cl203	Cl	1.180327	-0.327394	0.439452
Cl204	Cl	1.680327	0.172606	0.939452
H205	H	0.986813	-0.450999	0.312560
H206	H	1.486813	0.049001	0.812560
H207	H	0.939652	-0.157747	0.702701
H208	H	1.439652	0.342253	1.202701
H209	H	0.620033	-0.228475	0.340030
H210	H	1.120033	0.271525	0.840030
Cl211	Cl	0.966132	-0.176309	1.065032
Cl212	Cl	1.466132	0.323691	1.565032
Cl213	Cl	0.918631	-0.142920	0.813833
Cl214	Cl	1.418631	0.357080	1.313833
Cl215	Cl	0.966114	-0.176327	0.941783
Cl216	Cl	1.466114	0.323673	1.441783
H217	H	0.619853	-0.187428	0.187603
H218	H	1.119853	0.312572	0.687603
Cl219	Cl	0.515181	-0.281263	0.141951
Cl220	Cl	1.015181	0.218737	0.641951
H221	H	0.527165	-0.163961	0.275694
H222	H	1.027165	0.336039	0.775694
Cl223	Cl	1.180288	-0.438855	0.176557
Cl224	Cl	1.680288	0.061145	0.676557
Cl225	Cl	1.180369	-0.327308	0.941811
Cl226	Cl	1.680369	0.172692	1.441811
H227	H	0.939449	-0.702182	0.346011
H228	H	1.439449	-0.202182	0.846011
H229	H	1.159561	-1.052364	0.191425
H230	H	1.659561	-0.552364	0.691425
H231	H	1.159514	-0.953298	0.191409
H232	H	1.659514	-0.453298	0.691409
Cl233	Cl	1.180368	-0.562085	0.176574
Cl234	Cl	1.680368	-0.062085	0.676574
Cl235	Cl	1.227960	-0.690020	0.143191
Cl236	Cl	1.727960	-0.190020	0.643191
H237	H	1.206767	-0.345992	0.702719
H238	H	1.706767	0.154008	1.202719
H239	H	1.206963	-0.801160	0.157996
H240	H	1.706963	-0.301160	0.657996
Cl241	Cl	0.966073	-1.064499	0.327421
Cl242	Cl	1.466073	-0.564499	0.827421
H243	H	0.987074	-0.953352	0.312622
H244	H	1.487074	-0.453352	0.812622
H245	H	1.206779	-0.345976	0.801769
H246	H	1.706779	0.154024	1.301769
H247	H	0.986868	-0.550065	0.312579
H248	H	1.486868	-0.050065	0.812579
H249	H	0.939486	-0.801232	0.346018
H250	H	1.439486	-0.301232	0.846018
Cl251	Cl	0.966083	-0.176421	0.439436
Cl252	Cl	1.466083	0.323579	0.939436
Cl253	Cl	0.966080	-0.176399	0.562666
Cl254	Cl	1.466080	0.323601	1.062666
H255	H	1.159368	-0.312465	1.052948
H256	H	1.659368	0.187535	1.552948
Cl257	Cl	1.180347	-0.327371	0.562705
Cl258	Cl	1.680347	0.172629	1.062705
