data_functionalizedCrystal
_audit_creation_method	'MofGen! by Chris Wilmer'
_symmetry_space_group_name_H-M	'P1'
_symmetry_Int_Tables_number	1
_symmetry_cell_setting	triclinic
loop_
_symmetry_equiv_pos_as_xyz
  x,y,z
_cell_length_a	19.188925
_cell_length_b	19.188930
_cell_length_c	11.295483
_cell_angle_alpha	94.076039
_cell_angle_beta	85.907741
_cell_angle_gamma	83.143665
loop_
_atom_site_label
_atom_site_type_symbol
_atom_site_fract_x
_atom_site_fract_y
_atom_site_fract_z
O1	O	0.930866	0.082431	-0.099063
O2	O	1.430866	0.582431	0.400937
O3	O	0.727554	0.094169	-0.099062
O4	O	1.227554	0.594169	0.400938
O5	O	0.835076	-0.013354	-0.099039
O6	O	1.335076	0.486646	0.400961
O7	O	0.823344	0.189955	-0.099086
O8	O	1.323344	0.689955	0.400914
O9	O	0.825633	-0.003925	0.099009
O10	O	1.325633	0.496075	0.599009
O11	O	0.718111	0.103599	0.098987
O12	O	1.218111	0.603599	0.598987
O13	O	0.921423	0.091861	0.098986
O14	O	1.421423	0.591861	0.598986
Cu15	Cu	0.818904	0.098591	0.117070
Cu16	Cu	1.318904	0.598591	0.617070
Cu17	Cu	0.830073	0.087439	-0.117146
Cu18	Cu	1.330073	0.587439	0.382854
O19	O	0.813901	0.199385	0.098963
O20	O	1.313901	0.699385	0.598963
C21	C	0.696821	0.098505	-0.000037
C22	C	1.196821	0.598505	0.499963
C23	C	0.619317	0.097366	-0.000035
C24	C	1.119317	0.597366	0.499965
C25	C	0.057547	0.152829	-0.000051
C26	C	0.557547	0.652829	0.499949
C27	C	0.130371	0.153905	-0.000057
C28	C	0.630371	0.653905	0.499943
C29	C	0.175304	0.090814	-0.000041
C30	C	0.675304	0.590814	0.499959
C31	C	0.147411	0.026640	-0.000048
C32	C	0.647411	0.526640	0.499952
C33	C	0.074589	0.025565	-0.000054
C34	C	0.574589	0.525565	0.499946
N35	N	0.292766	0.048348	0.067387
N36	N	0.792766	0.548348	0.567387
N37	N	0.361943	0.049374	0.067394
N38	N	0.861943	0.549374	0.567394
C39	C	0.394713	0.094048	-0.000028
C40	C	0.894713	0.594048	0.499972
N41	N	0.355690	0.137670	-0.067442
N42	N	0.855690	0.637670	0.432558
N43	N	0.286506	0.136647	-0.067445
N44	N	0.786506	0.636647	0.432555
C45	C	0.254268	0.091972	-0.000036
C46	C	0.754268	0.591972	0.499964
C47	C	0.501562	0.159385	-0.000036
C48	C	1.001562	0.659385	0.499964
C49	C	0.574388	0.160458	-0.000050
C50	C	1.074388	0.660458	0.499950
C51	C	0.591426	0.033191	-0.000029
C52	C	1.091426	0.533191	0.499971
C53	C	0.518602	0.032120	-0.000027
C54	C	1.018602	0.532120	0.499973
C55	C	0.473674	0.095218	-0.000025
C56	C	0.973674	0.595218	0.499975
C57	C	0.829974	-0.034650	-0.000011
C58	C	1.329974	0.465350	0.499989
C59	C	0.828833	-0.112154	-0.000001
C60	C	1.328833	0.387846	0.499999
C61	C	0.891924	-0.157079	0.000004
C62	C	1.391924	0.342921	0.500004
C63	C	0.890853	-0.229904	-0.000015
C64	C	1.390853	0.270096	0.499985
C65	C	0.826687	-0.257799	-0.000015
C66	C	1.326687	0.242201	0.499985
C67	C	0.763588	-0.212865	-0.000027
C68	C	1.263588	0.287135	0.499973
C69	C	0.764661	-0.140042	-0.000020
C70	C	1.264661	0.359958	0.499980
N71	N	0.774426	-0.362594	0.067385
N72	N	1.274426	0.137406	0.567385
N73	N	0.773410	-0.431773	0.067380
N74	N	1.273410	0.068227	0.567380
C75	C	0.823450	-0.477209	-0.000040
C76	C	1.323450	0.022791	0.499960
N77	N	0.874553	-0.450854	-0.067440
N78	N	1.374553	0.049146	0.432560
N79	N	0.875570	-0.381668	-0.067431
N80	N	1.375570	0.118332	0.432569
C81	C	0.825516	-0.336762	-0.000024
C82	C	1.325516	0.163238	0.499976
C83	C	0.885384	-0.601100	-0.000057
C84	C	1.385384	-0.101100	0.499943
C85	C	0.884311	-0.673926	-0.000083
C86	C	1.384311	-0.173926	0.499917
C87	C	0.757044	-0.656884	-0.000083
C88	C	1.257044	-0.156884	0.499917
C89	C	0.758119	-0.584060	-0.000069
C90	C	1.258119	-0.084060	0.499931
C91	C	0.822291	-0.556172	-0.000050
C92	C	1.322291	-0.056172	0.499950
C93	C	0.952156	0.087525	-0.000042
C94	C	1.452156	0.587525	0.499958
C95	C	1.029661	0.088664	-0.000051
C96	C	1.529661	0.588664	0.499949
C97	C	0.819003	0.220680	-0.000067
C98	C	1.319003	0.720680	0.499933
C99	C	0.820144	0.298184	-0.000085
C100	C	1.320144	0.798184	0.499915
N101	N	0.811054	0.106434	0.281804
N102	N	1.311054	0.606434	0.781804
N103	N	0.837928	0.079591	-0.281881
N104	N	1.337928	0.579591	0.218119
C105	C	0.894439	0.023094	0.531111
C106	C	1.394439	0.523094	1.031111
C107	C	0.888511	0.029026	0.655774
C108	C	1.388511	0.529026	1.155774
C109	C	0.793269	0.124226	0.655794
C110	C	1.293269	0.624226	1.155794
C111	C	0.799196	0.118294	0.531131
C112	C	1.299196	0.618294	1.031131
C113	C	0.849783	0.067727	0.468795
C114	C	1.349783	0.567727	0.968795
C115	C	0.855714	0.061799	0.344130
C116	C	1.355714	0.561799	0.844130
C117	C	0.760469	0.156995	0.344152
C118	C	1.260469	0.656995	0.844152
C119	C	0.754541	0.162927	0.468815
C120	C	1.254541	0.662927	0.968815
H121	H	0.020971	0.204209	-0.000055
H122	H	0.520971	0.704209	0.499945
H123	H	0.937637	-0.578392	-0.000047
H124	H	1.437637	-0.078392	0.499953
H125	H	0.944178	-0.134378	0.000015
H126	H	1.444178	0.365622	0.500015
H127	H	0.896906	0.020627	0.293376
H128	H	1.396906	0.520627	0.793376
H129	H	0.942231	-0.266489	-0.000016
H130	H	1.442231	0.233511	0.499984
H131	H	0.711344	-0.235582	-0.000030
H132	H	1.211344	0.264418	0.499970
Cl133	Cl	0.704333	0.213111	0.265800
Cl134	Cl	1.204333	0.713111	0.765800
Cl135	Cl	0.944650	-0.027088	0.734111
Cl136	Cl	1.444650	0.472912	1.234111
H137	H	0.935690	-0.710504	-0.000085
H138	H	1.435690	-0.210504	0.499915
Cl139	Cl	0.958040	-0.040467	0.452743
Cl140	Cl	1.458040	0.459533	0.952743
Cl141	Cl	0.203898	-0.052675	-0.000033
Cl142	Cl	0.703898	0.447325	0.499967
Cl143	Cl	0.685340	-0.083562	-0.000026
Cl144	Cl	1.185340	0.416438	0.499974
H145	H	0.153080	0.206158	-0.000046
H146	H	0.653080	0.706158	0.499954
Cl147	Cl	0.676377	-0.691946	-0.000091
Cl148	Cl	1.176377	-0.191946	0.499909
Cl149	Cl	0.729670	0.187785	0.734172
Cl150	Cl	1.229670	0.687785	1.234172
Cl151	Cl	0.483543	-0.048550	-0.000032
Cl152	Cl	0.983543	0.451450	0.499968
Cl153	Cl	0.445079	0.238707	-0.000038
Cl154	Cl	0.945079	0.738707	0.499962
Cl155	Cl	0.678800	-0.527580	-0.000070
Cl156	Cl	1.178800	-0.027580	0.499930
H157	H	0.713352	0.204096	0.519584
H158	H	1.213352	0.704096	1.019584
H159	H	0.051885	-0.026687	-0.000054
H160	H	0.551885	0.473313	0.499946
H161	H	0.628011	-0.018179	-0.000024
H162	H	1.128011	0.481821	0.499976
H163	H	0.597091	0.212710	-0.000059
H164	H	1.097091	0.712710	0.499941
