data_functionalizedCrystal
_audit_creation_method	'MofGen! by Chris Wilmer'
_symmetry_space_group_name_H-M	'P1'
_symmetry_Int_Tables_number	1
_symmetry_cell_setting	triclinic
loop_
_symmetry_equiv_pos_as_xyz
  x,y,z
_cell_length_a	29.917948
_cell_length_b	29.917021
_cell_length_c	29.913391
_cell_angle_alpha	60.005297
_cell_angle_beta	60.010472
_cell_angle_gamma	59.993667
loop_
_atom_site_label
_atom_site_type_symbol
_atom_site_fract_x
_atom_site_fract_y
_atom_site_fract_z
O1	O	0.061938	-0.653075	0.546110
O2	O	0.023328	-0.508466	0.440017
O3	O	0.114898	-0.599963	0.439941
O4	O	-0.029633	-0.561578	0.546186
O5	O	0.145278	-0.569587	0.470242
O6	O	0.053708	-0.478090	0.470318
O7	O	0.092318	-0.622699	0.576411
Zn8	Zn	0.077836	-0.545572	0.528175
Zn9	Zn	0.037809	-0.585593	0.488253
O10	O	0.000747	-0.531202	0.576487
N11	N	0.105154	-0.518262	0.555424
N12	N	0.010496	-0.612908	0.461004
C13	C	0.164136	-0.309209	0.614352
C14	C	0.164251	-0.459335	0.764424
C15	C	0.164150	-0.459313	0.614341
C16	C	0.314282	-0.459305	0.614278
C17	C	0.180666	-0.358742	0.630849
C18	C	0.180732	-0.442815	0.714891
C19	C	0.264747	-0.442797	0.630809
C20	C	0.180676	-0.442802	0.630843
C21	C	0.143097	-0.246161	0.593354
C22	C	0.143120	-0.480326	0.593337
C23	C	0.201706	-0.421790	0.651848
C24	C	0.405963	-0.443499	0.565998
C25	C	0.463273	-0.462598	0.546874
C26	C	0.463297	-0.555329	0.582235
C27	C	0.405988	-0.536228	0.601360
C28	C	0.156905	-0.217495	0.537012
C29	C	0.137776	-0.160180	0.517926
C30	C	0.091035	-0.160201	0.611524
C31	C	0.110164	-0.217516	0.630611
C32	C	0.086772	-0.466488	0.607209
C33	C	0.067659	-0.485590	0.588108
C34	C	0.161236	-0.532368	0.541277
C35	C	0.180352	-0.513266	0.560371
C36	C	0.086942	-0.466529	0.856152
C37	C	0.067877	-0.485647	0.913465
C38	C	0.161489	-0.532436	0.913415
C39	C	0.180552	-0.513318	0.856101
C40	C	0.143277	-0.480363	0.827471
C41	C	0.377323	-0.480313	0.593239
C42	C	-0.111377	-0.650681	0.422736
C43	C	-0.027364	-0.650787	0.422929
C44	C	-0.048335	-0.671770	0.401835
C45	C	-0.064214	-0.763416	0.450041
C46	C	-0.045160	-0.820731	0.469172
C47	C	0.047573	-0.820841	0.433980
C48	C	0.028517	-0.763527	0.414847
C49	C	-0.140115	-0.664483	0.479060
C50	C	-0.197425	-0.645309	0.498058
C51	C	-0.197256	-0.598535	0.404405
C52	C	-0.139946	-0.617709	0.385407
C53	C	-0.041168	-0.594444	0.409067
C54	C	-0.022104	-0.575374	0.428250
C55	C	0.024568	-0.668986	0.475143
C56	C	0.005504	-0.688059	0.455967
C57	C	-0.041000	-0.594453	0.310105
C58	C	-0.021803	-0.575386	0.252792
C59	C	0.024951	-0.669004	0.252854
C60	C	0.005755	-0.688070	0.310168
C61	C	-0.027222	-0.650793	0.338792
C62	C	-0.027377	-0.734817	0.422881
N63	N	0.491125	-0.518235	0.555255
O64	O	0.678406	-0.527360	0.420422
O65	O	0.678588	-0.633782	0.564887
O66	O	0.678516	-0.633539	0.473265
O67	O	0.678478	-0.527602	0.512044
O68	O	0.587469	-0.603251	0.503685
O69	O	0.587541	-0.603493	0.595307
O70	O	0.587359	-0.497071	0.450842
Zn71	Zn	0.572994	-0.545473	0.527905
Zn72	Zn	0.692953	-0.585380	0.487825
O73	O	0.587431	-0.497313	0.542465
N74	N	0.774821	-0.612618	0.460470
N75	N	0.105125	-0.132348	0.555445
O76	O	-0.029633	0.055031	0.546198
O77	O	0.114837	0.055047	0.439777
O78	O	0.023189	0.055024	0.440050
O79	O	0.062016	0.055054	0.545925
O80	O	0.053572	-0.036031	0.470398
O81	O	0.145220	-0.036008	0.470125
O82	O	0.000750	-0.036024	0.576546
Zn83	Zn	0.077809	-0.050473	0.528154
Zn84	Zn	0.037778	0.069496	0.488169
O85	O	0.092399	-0.036001	0.576273
N86	N	0.010456	0.151371	0.460879
N87	N	0.105414	-0.518315	0.941279
O88	O	0.096182	-0.653057	1.128644
O89	O	-0.010215	-0.508539	1.128670
O90	O	-0.009968	-0.600172	1.128636
O91	O	0.095935	-0.561424	1.128678
O92	O	0.020367	-0.569808	1.037586
O93	O	0.020121	-0.478175	1.037620
O94	O	0.126517	-0.622693	1.037594
Zn95	Zn	0.078135	-0.545613	1.023151
Zn96	Zn	0.038167	-0.585619	1.143113
O97	O	0.126270	-0.531061	1.037628
N98	N	0.010887	-0.612923	1.224985
C99	C	0.034899	-0.475056	0.440551
C100	C	0.148298	-0.588365	0.440456
C101	C	0.080746	-0.656109	0.575876
C102	C	-0.032653	-0.542801	0.575971
C103	C	0.633086	-0.633292	0.598298
C104	C	0.632998	-0.632993	0.484834
C105	C	0.632857	-0.497559	0.417433
C106	C	0.632949	-0.497860	0.530895
C107	C	0.148191	0.009634	0.440259
C108	C	0.034733	0.009493	0.440634
C109	C	-0.032641	0.009502	0.576027
C110	C	0.080854	0.009529	0.575690
C111	C	-0.009699	-0.475150	1.083148
C112	C	-0.009388	-0.588620	1.083088
C113	C	0.126001	-0.656082	1.083116
C114	C	0.125697	-0.542605	1.083155
H115	H	0.056584	-0.439691	0.832846
O116	O	0.019170	-0.742821	0.337949
C117	C	0.052399	-0.771630	0.300392
H118	H	0.045163	-0.744297	0.259497
H119	H	0.041628	-0.809849	0.316922
H120	H	0.097275	-0.784042	0.294389
H121	H	0.632798	-0.464146	0.375944
H122	H	-0.042644	-0.596897	1.083039
H123	H	-0.043102	-0.433644	1.083156
H124	H	0.632941	-0.464583	0.539193
H125	H	0.159407	-0.697586	1.083101
O126	O	0.165406	-0.532660	1.083065
C127	C	0.177958	-0.488317	1.035924
H128	H	0.165926	-0.484002	1.002960
H129	H	0.223761	-0.496030	1.020095
H130	H	0.154336	-0.449063	1.046595
O131	O	0.013133	-0.472127	0.941236
C132	C	-0.015674	-0.438950	0.903672
H133	H	0.011640	-0.418110	0.862813
H134	H	-0.053916	-0.406526	0.920249
H135	H	-0.028039	-0.465386	0.897580
O136	O	0.633052	-0.673140	0.647817
C137	C	0.585931	-0.687884	0.672064
H138	H	0.552935	-0.652734	0.653986
H139	H	0.570144	-0.696947	0.718134
H140	H	0.596612	-0.725893	0.663678
H141	H	0.191844	-0.559260	0.936723
O142	O	0.197606	0.009968	0.400350
C143	C	0.231661	0.010070	0.420011
H144	H	0.205330	0.027129	0.455282
H145	H	0.257674	0.036719	0.385633
H146	H	0.259516	-0.033554	0.435018
O147	O	0.090573	-0.705706	0.615580
C148	C	0.103445	-0.746938	0.596784
H149	H	0.085804	-0.728261	0.562768
H150	H	0.085135	-0.779705	0.632065
H151	H	0.149804	-0.766190	0.580320
O152	O	0.025122	-0.425478	0.400811
C153	C	0.062692	-0.401165	0.386051
H154	H	0.078714	-0.419295	0.421143
H155	H	0.041398	-0.355112	0.377109
H156	H	0.098342	-0.409427	0.347967
O157	O	-0.082179	0.009531	0.615816
C158	C	-0.116260	0.009509	0.596128
H159	H	-0.101449	0.026736	0.549494
H160	H	-0.160111	0.035951	0.612910
H161	H	-0.114781	-0.034176	0.610058
H162	H	0.226428	-0.524588	0.832752
O163	O	-0.080935	-0.848512	0.495489
C164	C	-0.066630	-0.881690	0.466459
H165	H	-0.041790	-0.864488	0.421915
H166	H	-0.105397	-0.882262	0.468425
H167	H	-0.041136	-0.925150	0.485560
H168	H	0.189808	-0.596548	0.407092
H169	H	0.089168	0.009538	0.608950
O170	O	0.050530	-0.434472	0.639201
C171	C	-0.003302	-0.426364	0.647353
H172	H	-0.003221	-0.432761	0.612803
H173	H	-0.030517	-0.382897	0.647666
H174	H	-0.019698	-0.456874	0.688181
H175	H	0.191560	-0.559196	0.514439
O176	O	0.012927	-0.472086	0.601487
C177	C	-0.000961	-0.443233	0.553349
H178	H	0.031328	-0.423829	0.518911
H179	H	-0.042571	-0.409839	0.560926
H180	H	-0.002871	-0.472698	0.541283
O181	O	0.235100	-0.526675	0.546800
C182	C	0.258856	-0.507043	0.489393
H183	H	0.231664	-0.501431	0.469354
H184	H	0.301017	-0.537746	0.475971
H185	H	0.263096	-0.466078	0.476435
O186	O	0.378254	-0.572063	0.627791
C187	C	0.415849	-0.625511	0.630864
H188	H	0.456687	-0.623324	0.597002
H189	H	0.399286	-0.649037	0.625683
H190	H	0.421974	-0.647390	0.672390
O191	O	0.491228	-0.609624	0.590053
C192	C	0.547952	-0.618589	0.567343
H193	H	0.555757	-0.579143	0.534493
H194	H	0.569728	-0.652074	0.548293
H195	H	0.564241	-0.631799	0.600878
H196	H	0.486593	-0.432619	0.524694
O197	O	0.024809	0.009577	0.400906
C198	C	0.030876	0.056725	0.354729
H199	H	0.024952	0.089696	0.367818
H200	H	-0.001034	0.072542	0.335328
H201	H	0.073612	0.046065	0.323703
O202	O	0.378176	-0.389159	0.558016
C203	C	0.392139	-0.359587	0.501429
H204	H	0.433744	-0.384628	0.478851
H205	H	0.394095	-0.319183	0.493857
H206	H	0.359868	-0.351036	0.485822
O207	O	0.188813	-0.245294	0.500798
C208	C	0.159849	-0.231277	0.467675
H209	H	0.114003	-0.215532	0.489825
H210	H	0.170102	-0.268967	0.459006
H211	H	0.172022	-0.198000	0.427410
O212	O	0.151117	-0.132244	0.463211
C213	C	0.127183	-0.075514	0.454353
H214	H	0.090409	-0.067698	0.491972
H215	H	0.113253	-0.053727	0.417219
H216	H	0.158532	-0.059244	0.446704
O217	O	0.059035	-0.132457	0.647789
C218	C	0.050969	-0.170051	0.701612
H219	H	0.057377	-0.210907	0.701508
H220	H	0.007513	-0.153502	0.728842
H221	H	0.081493	-0.176143	0.718010
H222	H	-0.074166	-0.534620	0.609333
H223	H	0.098918	-0.240852	0.676488
H224	H	-0.033030	-0.529506	0.229442
O225	O	0.632990	-0.672629	0.474856
C226	C	0.632949	-0.652689	0.421047
H227	H	0.615671	-0.606056	0.406660
H228	H	0.606523	-0.669378	0.420272
H229	H	0.676617	-0.666508	0.392697
O230	O	-0.118498	-0.735546	0.457755
C231	C	-0.135940	-0.749541	0.431949
H232	H	-0.099302	-0.765348	0.398138
H233	H	-0.167443	-0.711825	0.413505
H234	H	-0.155180	-0.782765	0.463335
O235	O	-0.072947	-0.558222	0.337891
C236	C	-0.043996	-0.525129	0.323944
H237	H	0.001853	-0.547308	0.308259
H238	H	-0.054296	-0.516460	0.361651
H239	H	-0.056136	-0.484860	0.290644
O240	O	0.056897	-0.705195	0.225028
C241	C	0.030920	-0.696908	0.191782
H242	H	-0.015025	-0.676051	0.208972
H243	H	0.038888	-0.738075	0.191135
H244	H	0.047892	-0.669899	0.148356
H245	H	-0.067926	-0.564092	0.382165
H246	H	-0.033345	-0.529494	0.416965
H247	H	0.051334	-0.699339	0.502037
H248	H	0.016742	-0.733938	0.467255
H249	H	0.093086	-0.844219	0.427442
O250	O	0.064365	-0.735804	0.388408
C251	C	0.103317	-0.749844	0.341185
H252	H	0.106002	-0.791446	0.346349
H253	H	0.145014	-0.751853	0.335007
H254	H	0.090435	-0.717586	0.304015
O255	O	-0.112421	-0.696565	0.515370
C256	C	-0.126475	-0.744602	0.548474
H257	H	-0.168065	-0.736865	0.548950
H258	H	-0.128509	-0.756681	0.591965
H259	H	-0.094215	-0.779103	0.531277
O260	O	-0.225407	-0.658737	0.552761
C261	C	-0.258558	-0.687546	0.566528
H262	H	-0.267067	-0.677201	0.528707
H263	H	-0.298895	-0.675306	0.599709
H264	H	-0.236519	-0.733427	0.582300
O265	O	-0.224926	-0.566498	0.368072
C266	C	-0.187272	-0.558449	0.314283
H267	H	-0.146440	-0.564901	0.314469
H268	H	-0.203767	-0.514981	0.287029
H269	H	-0.181163	-0.588956	0.297854
H270	H	-0.116547	-0.606465	0.339541
