data_functionalizedCrystal
_audit_creation_method	'MofGen! by Chris Wilmer'
_symmetry_space_group_name_H-M	'P1'
_symmetry_Int_Tables_number	1
_symmetry_cell_setting	triclinic
loop_
_symmetry_equiv_pos_as_xyz
  x,y,z
_cell_length_a	13.635800
_cell_length_b	23.752966
_cell_length_c	9.514088
_cell_angle_alpha	86.890401
_cell_angle_beta	118.843545
_cell_angle_gamma	79.933465
loop_
_atom_site_label
_atom_site_type_symbol
_atom_site_fract_x
_atom_site_fract_y
_atom_site_fract_z
V1	V	2.100417	-0.080176	0.501656
O2	O	2.100973	0.002809	0.491179
O3	O	2.067448	-0.157972	0.499117
O4	O	2.117887	-0.079401	0.720039
O5	O	2.050185	-0.076306	0.268728
V6	V	2.337968	-0.070196	0.473688
O7	O	2.240283	-0.102068	0.563007
O8	O	2.423201	-0.048304	0.412337
O9	O	2.259334	0.007600	0.476226
O10	O	2.396111	-0.153181	0.484165
O11	O	2.446899	-0.074066	0.706615
O12	O	2.208895	-0.070971	0.255305
V13	V	2.600417	-0.080176	0.501656
O14	O	2.600973	0.002809	0.491179
O15	O	2.567448	-0.157972	0.499117
O16	O	2.617887	-0.079401	0.720039
O17	O	2.550185	-0.076306	0.268728
V18	V	2.837968	-0.070196	0.473688
O19	O	2.740283	-0.102068	0.563007
O20	O	2.923201	-0.048304	0.412337
O21	O	2.759334	0.007600	0.476226
O22	O	2.896111	-0.153181	0.484165
O23	O	2.946899	-0.074066	0.706615
O24	O	2.708895	-0.070971	0.255305
C25	C	1.986467	-0.176922	0.491434
C26	C	2.000432	-0.240524	0.490814
C27	C	2.179474	-0.637867	0.495191
C28	C	2.192618	-0.697629	0.494633
O29	O	2.277910	-0.731034	0.501244
N30	N	2.106909	-0.724588	0.486297
C31	C	2.008054	-0.691783	0.478535
O32	O	1.936359	-0.720201	0.471395
C33	C	1.994915	-0.632022	0.479104
C34	C	2.080626	-0.605065	0.487425
C35	C	2.265178	-0.610910	0.503512
C36	C	2.252034	-0.551151	0.504067
C37	C	2.153186	-0.518349	0.496300
C38	C	2.067482	-0.545306	0.487979
C39	C	1.896066	-0.599218	0.471354
C40	C	1.882935	-0.539453	0.471925
C41	C	1.968646	-0.512496	0.480245
C42	C	1.955490	-0.452746	0.480767
N43	N	2.041199	-0.425787	0.489104
C44	C	2.140047	-0.458589	0.496870
C45	C	2.035654	-0.817285	0.477342
C46	C	2.048788	-0.877044	0.476761
C47	C	2.233352	-0.882887	0.492862
C48	C	2.220214	-0.823126	0.493432
C49	C	2.121364	-0.790326	0.485678
C50	C	2.112436	-0.333091	0.498033
C51	C	2.099280	-0.273326	0.498580
C52	C	1.914721	-0.267489	0.482488
C53	C	1.927872	-0.327248	0.481932
C54	C	2.026739	-0.360048	0.489711
O55	O	1.870232	-0.419305	0.474167
O56	O	2.211734	-0.430164	0.504030
C57	C	2.050805	-0.076697	0.773239
C58	C	2.105672	-0.076577	0.951773
C59	C	2.171985	0.026547	0.483906
C60	C	2.147641	0.090149	0.484536
C61	C	2.107646	-0.073677	0.202097
C62	C	2.042398	-0.073794	0.023560
C63	C	2.486467	-0.176922	0.491434
C64	C	2.500432	-0.240524	0.490814
C65	C	2.550805	-0.076697	0.773239
C66	C	2.605672	-0.076577	0.951773
C67	C	2.671985	0.026547	0.483906
C68	C	2.647641	0.090149	0.484536
C69	C	2.607646	-0.073677	0.202097
C70	C	2.542398	-0.073794	0.023560
C71	C	2.599280	-0.273326	0.498580
C72	C	2.612424	-0.333089	0.498022
C73	C	2.526715	-0.360048	0.489686
C74	C	2.427860	-0.327242	0.481924
C75	C	2.414722	-0.267481	0.482494
C76	C	2.721287	0.122950	0.476774
C77	C	2.698417	0.182712	0.477340
C78	C	2.601904	0.209671	0.485679
C79	C	2.528250	0.176866	0.493437
C80	C	2.551117	0.117105	0.492860
H81	H	2.192942	-0.359790	0.504370
O82	O	2.233035	-0.079604	1.051277
H83	H	2.281696	-0.120217	1.040724
H84	H	2.669078	-0.251384	0.505358
H85	H	2.701826	-0.078871	1.026907
H86	H	2.491145	0.090402	0.499195
O87	O	2.415041	-0.070762	0.924057
H88	H	2.377324	-0.068709	1.004721
H89	H	2.321834	-0.529209	0.510853
O90	O	2.335425	-0.356325	0.472941
H91	H	2.301670	-0.377079	0.362246
O92	O	1.929020	-0.781911	0.468954
H93	H	1.953939	-0.760877	0.578877
O94	O	2.191734	-0.244255	0.507555
H95	H	2.165990	-0.197187	0.506621
H96	H	2.758402	0.209415	0.471025
O97	O	2.371793	-0.646281	0.511864
H98	H	2.448857	-0.642536	0.625861
O99	O	2.312671	-0.794054	0.502450
H100	H	2.383615	-0.826910	0.507773
O101	O	2.719038	-0.368465	0.506365
H102	H	2.776410	-0.339673	0.512220
H103	H	2.583297	0.258333	0.486147
H104	H	2.537427	-0.408709	0.489224
H105	H	2.313838	-0.909604	0.499174
H106	H	2.449668	0.198825	0.500225
H107	H	1.858082	-0.349198	0.475168
O108	O	1.956342	-0.906117	0.467781
H109	H	1.885407	-0.873262	0.462489
O110	O	1.803628	-0.628286	0.462410
H111	H	1.732703	-0.595429	0.457135
O112	O	2.308099	-0.232102	0.474105
H113	H	2.231048	-0.235842	0.360083
O114	O	1.776318	-0.504073	0.463565
H115	H	1.699258	-0.507812	0.349553
O116	O	1.808114	-0.232107	0.474136
H117	H	1.813392	-0.186025	0.475948
O118	O	2.825375	0.093880	0.467748
H119	H	2.904396	0.100426	0.574021
H120	H	1.946254	-0.071507	0.948439
