data_functionalizedCrystal
_audit_creation_method	'MofGen! by Chris Wilmer'
_symmetry_space_group_name_H-M	'P1'
_symmetry_Int_Tables_number	1
_symmetry_cell_setting	triclinic
loop_
_symmetry_equiv_pos_as_xyz
  x,y,z
_cell_length_a	14.853567
_cell_length_b	23.532407
_cell_length_c	13.930277
_cell_angle_alpha	89.986949
_cell_angle_beta	89.995755
_cell_angle_gamma	83.241839
loop_
_atom_site_label
_atom_site_type_symbol
_atom_site_fract_x
_atom_site_fract_y
_atom_site_fract_z
O1	O	1.195555	0.074353	-0.079783
O2	O	0.932999	0.083210	-0.079802
O3	O	1.072194	-0.004116	-0.079765
O4	O	1.056360	0.161678	-0.079820
O5	O	1.072175	-0.004118	0.079897
O6	O	0.932980	0.083208	0.079860
O7	O	1.195536	0.074351	0.079879
Zn8	Zn	1.064255	0.078779	0.105219
Zn9	Zn	1.064280	0.078782	-0.105142
O10	O	1.056341	0.161677	0.079842
C11	C	0.899405	0.082808	0.000027
C12	C	0.799334	0.081605	0.000021
C13	C	1.071781	-0.025335	0.000071
C14	C	1.070569	-0.088557	0.000085
C15	C	0.387423	0.024648	0.000062
C16	C	0.365008	0.128393	0.000026
C17	C	0.459029	0.129524	0.000023
C18	C	0.517252	0.078216	0.000037
C19	C	0.481454	0.025777	0.000055
C20	C	0.494835	0.181961	-0.000005
C21	C	0.588861	0.183094	-0.000009
C22	C	0.647086	0.131786	0.000012
C23	C	0.611283	0.079345	0.000031
C24	C	0.669506	0.028037	0.000045
C25	C	0.633704	-0.024404	0.000071
C26	C	0.539679	-0.025531	0.000077
C27	C	0.741111	0.132913	0.000007
C28	C	0.763536	0.029166	0.000039
C29	C	0.983197	-0.355106	0.000019
C30	C	0.984323	-0.295701	0.000026
O31	O	0.915011	-0.259259	-0.000009
N32	N	1.067074	-0.272713	0.000043
C33	C	1.148705	-0.309134	0.000043
O34	O	1.219195	-0.284127	0.000057
C35	C	1.147578	-0.368538	0.000029
C36	C	1.064821	-0.391522	0.000022
C37	C	0.900446	-0.378090	0.000011
C38	C	0.899320	-0.437491	0.000005
C39	C	0.980945	-0.473908	0.000008
C40	C	1.063695	-0.450923	0.000016
C41	C	1.229208	-0.404958	0.000022
C42	C	1.228074	-0.464366	0.000007
C43	C	1.145317	-0.487350	-0.000001
C44	C	1.144194	-0.546741	0.000013
N45	N	1.061442	-0.569728	-0.000004
C46	C	0.979818	-0.533312	-0.000007
C47	C	1.151066	-0.184382	0.000072
C48	C	1.152194	-0.124979	0.000093
C49	C	0.987811	-0.111549	0.000074
C50	C	0.986684	-0.170953	0.000060
C51	C	1.068314	-0.207369	0.000055
C52	C	0.977460	-0.658059	-0.000018
C53	C	0.976341	-0.717466	-0.000019
C54	C	1.140724	-0.730890	-0.000006
C55	C	1.141843	-0.671489	0.000001
C56	C	1.060203	-0.635074	-0.000008
O57	O	1.213469	-0.583218	0.000044
O58	O	0.909339	-0.558327	-0.000033
C59	C	1.229130	0.074753	0.000048
C60	C	1.329200	0.075956	0.000047
C61	C	1.056753	0.182895	0.000004
C62	C	1.057966	0.246118	-0.000017
N63	N	1.064244	0.078777	0.248785
N64	N	1.064298	0.078779	-0.248708
C65	C	1.002642	0.117434	0.701038
C66	C	1.125943	0.040125	0.701040
C67	C	1.125932	0.040123	0.600544
C68	C	1.064276	0.078778	0.550291
C69	C	1.002631	0.117435	0.600533
C70	C	1.187582	0.001470	0.550295
C71	C	1.187575	0.001467	0.449793
C72	C	1.125914	0.040120	0.399537
C73	C	1.064266	0.078778	0.449786
C74	C	1.002610	0.117433	0.399532
C75	C	0.940956	0.156089	0.449779
C76	C	0.940970	0.156088	0.550278
C77	C	1.125900	0.040122	0.299039
C78	C	1.002599	0.117434	0.299027
H79	H	0.810936	-0.012615	0.000055
H80	H	0.831931	-0.456199	-0.000009
H81	H	0.681121	-0.066179	0.000077
H82	H	0.952442	0.148906	0.741951
H83	H	1.294549	-0.494014	-0.000003
H84	H	0.618003	0.225795	-0.000031
C85	C	0.810651	-0.338040	0.000016
H86	H	0.761215	-0.360246	0.000016
H87	H	0.807665	-0.314572	-0.055653
H88	H	0.807666	-0.314603	0.055710
C89	C	0.873140	0.198610	0.394498
H90	H	0.836427	0.221635	0.438811
H91	H	0.835802	0.178080	0.355301
H92	H	0.905363	0.222357	0.355285
C93	C	1.320242	-0.379689	0.000016
H94	H	1.368685	-0.409893	0.000001
H95	H	1.324111	-0.356804	0.055693
H96	H	1.324101	-0.356789	-0.055669
H97	H	0.890775	0.187560	0.591195
H98	H	0.908948	-0.736176	-0.000021
C99	C	1.193759	-0.002392	0.756316
H100	H	1.184933	0.003142	0.823366
H101	H	1.253866	0.003860	0.739830
H102	H	1.184301	-0.040414	0.739866
C103	C	0.895653	-0.196230	0.000038
H104	H	0.847206	-0.166029	0.000032
H105	H	0.891780	-0.219138	0.055705
H106	H	0.891804	-0.219109	-0.055657
C107	C	1.255398	-0.041045	0.605573
H108	H	1.246566	-0.035513	0.672622
H109	H	1.315506	-0.034790	0.589093
H110	H	1.245947	-0.079068	0.589118
C111	C	1.255381	-0.041056	0.394530
H112	H	1.292097	-0.064080	0.438854
H113	H	1.292718	-0.020530	0.355303
H114	H	1.223152	-0.064803	0.355349
H115	H	1.176101	0.008652	0.258132
H116	H	0.770257	0.175610	-0.000013
H117	H	0.921348	-0.081887	0.000073
C118	C	1.243224	-0.099700	0.000117
H119	H	1.232214	-0.059105	0.000129
H120	H	1.276820	-0.112188	-0.055556
H121	H	1.276795	-0.112207	0.055807
C122	C	0.500294	-0.083210	0.000095
H123	H	0.435958	-0.076533	0.000084
H124	H	0.520304	-0.104342	0.055777
H125	H	0.520312	-0.104335	-0.055585
H126	H	0.358269	-0.018049	0.000086
C127	C	0.300967	0.184826	0.000012
H128	H	0.239841	0.176643	0.000024
H129	H	0.311770	0.206329	-0.055670
H130	H	0.311768	0.206321	0.055692
H131	H	1.209230	-0.652774	0.000020
H132	H	1.217544	-0.214029	0.000074
H133	H	0.447423	0.223733	-0.000027
H134	H	1.207180	-0.760551	0.000001
H135	H	0.910981	-0.628416	-0.000025
H136	H	0.952388	0.148910	0.258117
