data_functionalizedCrystal
_audit_creation_method	'MofGen! by Chris Wilmer'
_symmetry_space_group_name_H-M	'P1'
_symmetry_Int_Tables_number	1
_symmetry_cell_setting	triclinic
loop_
_symmetry_equiv_pos_as_xyz
  x,y,z
_cell_length_a	14.908178
_cell_length_b	14.908610
_cell_length_c	12.759393
_cell_angle_alpha	93.316892
_cell_angle_beta	86.668720
_cell_angle_gamma	90.182044
loop_
_atom_site_label
_atom_site_type_symbol
_atom_site_fract_x
_atom_site_fract_y
_atom_site_fract_z
Zn1	Zn	-0.437464	-1.354027	-0.655492
Zn2	Zn	-0.587853	-1.345246	-0.469101
Zn3	Zn	-0.428810	-1.203652	-0.470313
Zn4	Zn	-0.579093	-1.194965	-0.635238
O5	O	-0.508305	-1.274473	-0.557536
O6	O	-0.464701	-1.478688	-0.638736
O7	O	-0.566800	-1.326425	-0.322235
O8	O	-0.304126	-1.230911	-0.503861
O9	O	-0.575191	-1.472237	-0.501796
O10	O	-0.310484	-1.341390	-0.639911
O11	O	-0.449952	-1.222396	-0.323125
O12	O	-0.441458	-1.076674	-0.484221
O13	O	-0.560262	-1.216103	-0.784951
O14	O	-0.551870	-1.070291	-0.605391
O15	O	-0.456207	-1.332966	-0.799832
O16	O	-0.712523	-1.318000	-0.482156
O17	O	-0.706088	-1.207589	-0.604216
C18	C	-0.494775	-1.040858	-0.542740
C19	C	-0.489009	-0.940915	-0.536434
C20	C	-0.423311	-0.803352	-0.464575
C21	C	-0.428725	-0.897258	-0.470497
C22	C	-0.543881	-0.890661	-0.596456
C23	C	-0.538468	-0.796755	-0.590535
C24	C	-0.478182	-0.753105	-0.524591
C25	C	-0.472773	-0.659197	-0.518665
C26	C	-0.587924	-0.652602	-0.644629
C27	C	-0.593338	-0.746507	-0.650551
C28	C	-0.741934	-1.260924	-0.540881
C29	C	-0.841886	-1.255210	-0.533796
C30	C	-1.036172	-1.359427	-0.662291
C31	C	-1.130086	-1.354062	-0.655638
C32	C	-1.123630	-1.239109	-0.513843
C33	C	-1.029716	-1.244474	-0.520496
C34	C	-0.985990	-1.304637	-0.594722
C35	C	-0.892075	-1.310006	-0.601369
C36	C	-0.885620	-1.195049	-0.459580
C37	C	-0.979534	-1.189684	-0.452927
C38	C	-0.273765	-1.288099	-0.574280
C39	C	-0.173819	-1.293905	-0.581416
C40	C	-0.508223	-1.274545	-0.831580
C41	C	-0.508188	-1.274576	-0.948361
C42	C	-0.521881	-0.509000	-0.572382
C43	C	-0.527646	-0.608943	-0.578687
C44	C	-0.453997	-1.335431	-1.010974
C45	C	-0.453960	-1.335448	-1.120702
C46	C	-0.562310	-1.213753	-1.105193
C47	C	-0.562342	-1.213732	-0.995468
C48	C	-0.508325	-1.274456	-0.284566
C49	C	-0.508117	-1.274614	-0.167815
H50	H	-0.642419	-0.782061	-0.704243
C51	C	-0.405784	-1.389504	-1.295787
C52	C	-0.394387	-1.402337	-1.189528
H53	H	-0.368997	-1.430795	-1.338275
H54	H	-0.466948	-1.399161	-1.310292
H55	H	-0.389119	-1.329854	-1.310859
H56	H	-0.411059	-1.461985	-1.174453
H57	H	-0.333209	-1.392687	-1.175016
H58	H	-0.856475	-1.358996	-0.661804
H59	H	-0.606469	-1.164170	-0.944486
H60	H	-0.606402	-1.164217	-1.143561
H61	H	-0.374226	-0.767811	-0.410879
C62	C	-0.854335	-1.152989	-0.280896
C63	C	-0.830455	-1.134822	-0.385299
H64	H	-0.820273	-1.115815	-0.235039
H65	H	-0.916516	-1.141177	-0.266320
H66	H	-0.842396	-1.214297	-0.270521
H67	H	-0.842400	-1.073515	-0.395676
H68	H	-0.768259	-1.146628	-0.399879
C69	C	-0.313838	-1.009845	-0.471405
C70	C	-0.368411	-0.952489	-0.404522
H71	H	-0.276598	-1.043937	-0.430671
H72	H	-0.350515	-1.049281	-0.511511
H73	H	-0.277380	-0.975210	-0.517382
H74	H	-0.404874	-0.987125	-0.358550
H75	H	-0.331731	-0.913048	-0.364398
C76	C	-0.359482	-0.675154	-0.394765
C77	C	-0.406504	-0.611214	-0.446185
H78	H	-0.318565	-0.645531	-0.350026
H79	H	-0.400729	-0.709496	-0.354021
H80	H	-0.327251	-0.713790	-0.445380
H81	H	-0.438741	-0.572581	-0.395571
H82	H	-0.365252	-0.576857	-0.486932
H83	H	-1.000571	-1.408420	-0.722722
H84	H	-0.592959	-0.926218	-0.650150
C85	C	-1.161367	-1.396125	-0.834317
C86	C	-1.185248	-1.414288	-0.729913
H87	H	-1.195419	-1.433310	-0.880172
H88	H	-1.173309	-1.334828	-0.844698
H89	H	-1.099175	-1.407933	-0.848888
H90	H	-1.247438	-1.402473	-0.715339
H91	H	-1.173312	-1.475599	-0.719526
C92	C	-0.630762	-0.505724	-0.691487
C93	C	-0.648241	-0.597367	-0.710608
H94	H	-0.667997	-0.471627	-0.732222
H95	H	-0.642965	-0.489552	-0.618975
H96	H	-0.569471	-0.493842	-0.710316
H97	H	-0.709531	-0.609251	-0.691772
H98	H	-0.636045	-0.613545	-0.783137
H99	H	-1.159247	-1.190124	-0.453417
C100	C	-1.120632	-1.130421	-0.379762
C101	C	-1.027603	-1.123561	-0.371336
H102	H	-1.150304	-1.089604	-0.329383
H103	H	-1.135218	-1.116341	-0.448405
H104	H	-1.139465	-1.189971	-0.367194
H105	H	-1.008768	-1.064013	-0.383911
H106	H	-1.013009	-1.137635	-0.302677
H107	H	-0.409899	-1.384971	-0.972623
