data_functionalizedCrystal
_audit_creation_method	'MofGen! by Chris Wilmer'
_symmetry_space_group_name_H-M	'P1'
_symmetry_Int_Tables_number	1
_symmetry_cell_setting	triclinic
loop_
_symmetry_equiv_pos_as_xyz
  x,y,z
_cell_length_a	11.792241
_cell_length_b	14.519709
_cell_length_c	13.596369
_cell_angle_alpha	90.006934
_cell_angle_beta	90.001112
_cell_angle_gamma	83.936780
loop_
_atom_site_label
_atom_site_type_symbol
_atom_site_fract_x
_atom_site_fract_y
_atom_site_fract_z
O1	O	1.506209	0.126405	0.081698
O2	O	1.839542	0.459739	0.415032
O3	O	2.172876	0.793072	0.748365
O4	O	1.175796	0.139433	0.081721
O5	O	1.509129	0.472766	0.415055
O6	O	1.842463	0.806099	0.748388
O7	O	1.349763	-0.001287	0.081700
O8	O	1.683096	0.332046	0.415034
O9	O	2.016430	0.665379	0.748367
O10	O	1.332242	0.267125	0.081719
O11	O	1.665575	0.600459	0.415053
O12	O	1.998909	0.933792	0.748386
O13	O	1.349746	-0.001295	-0.081883
O14	O	1.683079	0.332038	0.251451
O15	O	2.016412	0.665372	0.584784
O16	O	1.175779	0.139425	-0.081862
O17	O	1.509112	0.472758	0.251472
O18	O	1.842445	0.806092	0.584805
O19	O	1.506192	0.126398	-0.081885
O20	O	1.839525	0.459731	0.251449
O21	O	2.172858	0.793065	0.584782
Zn22	Zn	1.340982	0.132910	-0.107845
Zn23	Zn	1.674316	0.466244	0.225488
Zn24	Zn	2.007649	0.799577	0.558821
Zn25	Zn	1.341005	0.132920	0.107682
Zn26	Zn	1.674339	0.466254	0.441015
Zn27	Zn	2.007672	0.799587	0.774349
O28	O	1.332225	0.267118	-0.081864
O29	O	1.665558	0.600451	0.251470
O30	O	1.998891	0.933785	0.584803
C31	C	1.133501	0.138611	-0.000067
C32	C	1.466834	0.471944	0.333266
C33	C	1.800167	0.805277	0.666599
C34	C	1.007501	0.136161	-0.000059
C35	C	1.340834	0.469495	0.333275
C36	C	1.674167	0.802828	0.666608
C37	C	0.776813	0.131657	-0.000087
C38	C	1.110147	0.464991	0.333246
C39	C	1.443480	0.798324	0.666579
C40	C	0.905185	0.134160	-0.000072
C41	C	1.238518	0.467493	0.333262
C42	C	1.571851	0.800827	0.666595
C43	C	1.548487	0.127220	-0.000094
C44	C	1.881820	0.460553	0.333239
C45	C	2.215154	0.793887	0.666573
C46	C	1.674487	0.129669	-0.000096
C47	C	2.007820	0.463003	0.333237
C48	C	2.341154	0.796336	0.666571
C49	C	1.348938	-0.035654	-0.000091
C50	C	1.682271	0.297679	0.333242
C51	C	2.015604	0.631013	0.666575
C52	C	1.346491	-0.138044	-0.000092
C53	C	1.679824	0.195289	0.333242
C54	C	2.013158	0.528623	0.666575
C55	C	1.337483	-0.512973	-0.000065
C56	C	1.670816	-0.179640	0.333268
C57	C	2.004149	0.153694	0.666601
C58	C	1.339984	-0.408656	-0.000073
C59	C	1.673318	-0.075322	0.333260
C60	C	2.006651	0.258011	0.666594
C61	C	1.341987	-0.325512	-0.000079
C62	C	1.675320	0.007822	0.333254
C63	C	2.008653	0.341155	0.666587
C64	C	1.344489	-0.221188	-0.000085
C65	C	1.677822	0.112145	0.333248
C66	C	2.011155	0.445479	0.666581
C67	C	1.333050	0.301484	-0.000070
C68	C	1.666383	0.634818	0.333263
C69	C	1.999717	0.968151	0.666597
C70	C	1.335497	0.403875	-0.000063
C71	C	1.668830	0.737208	0.333270
C72	C	2.002164	1.070541	0.666604
N73	N	1.340975	0.132903	-0.254937
N74	N	1.674308	0.466236	0.078396
N75	N	2.007642	0.799570	0.411729
C76	C	1.341004	0.132921	-0.656228
C77	C	1.674337	0.466255	-0.322895
C78	C	2.007670	0.799588	0.010438
C79	C	1.340992	0.132919	-0.544577
C80	C	1.674326	0.466253	-0.211244
C81	C	2.007659	0.799586	0.122090
C82	C	1.340990	0.132913	-0.455586
C83	C	1.674323	0.466246	-0.122253
C84	C	2.007657	0.799579	0.211080
C85	C	1.340978	0.132909	-0.343928
C86	C	1.674311	0.466243	-0.010595
C87	C	2.007644	0.799576	0.322739
N88	N	1.341022	0.132920	0.254774
N89	N	1.674355	0.466254	0.588107
N90	N	2.007688	0.799587	0.921441
