data_functionalizedCrystal
_audit_creation_method	'MofGen! by Chris Wilmer'
_symmetry_space_group_name_H-M	'P1'
_symmetry_Int_Tables_number	1
_symmetry_cell_setting	triclinic
loop_
_symmetry_equiv_pos_as_xyz
  x,y,z
_cell_length_a	19.902436
_cell_length_b	20.875492
_cell_length_c	20.875625
_cell_angle_alpha	60.168684
_cell_angle_beta	92.972653
_cell_angle_gamma	58.314579
loop_
_atom_site_label
_atom_site_type_symbol
_atom_site_fract_x
_atom_site_fract_y
_atom_site_fract_z
Zr1	Zr	0.600368	0.740569	-0.122702
O2	O	0.479426	0.881748	-0.232487
O3	O	0.643044	0.599401	-0.083948
O4	O	0.627689	0.740568	-0.225123
O5	O	0.500523	0.740578	0.014248
O6	O	0.738269	0.740555	-0.225114
O7	O	0.494782	0.740581	-0.091313
O8	O	0.765737	0.488033	0.027422
O9	O	0.473054	0.993100	-0.238287
O10	O	0.737003	0.657452	-0.073574
O11	O	0.658762	0.657460	0.005198
O12	O	0.640683	0.823665	-0.161016
O13	O	0.562443	0.823673	-0.082244
Zr14	Zr	0.785887	0.740544	0.045670
Zr15	Zr	0.776730	0.740548	-0.122687
Zr16	Zr	0.609524	0.740565	0.045655
Zr17	Zr	0.590205	0.918163	-0.131952
Zr18	Zr	0.796049	0.562950	0.054920
O19	O	0.743210	0.881712	0.006916
O20	O	0.730191	0.881718	-0.232467
O21	O	0.492445	0.881742	0.006895
O22	O	0.906828	0.599365	0.155455
O23	O	0.893809	0.599371	-0.083927
O24	O	0.656063	0.599395	0.155434
O25	O	0.885731	0.740535	-0.091280
O26	O	0.758566	0.740545	0.148091
O27	O	0.647986	0.740558	0.148082
O28	O	0.891472	0.740532	0.014281
O29	O	0.613239	0.993083	-0.238276
O30	O	0.773015	0.488030	0.161244
O31	O	0.913200	0.488013	0.161255
O32	O	0.905922	0.488017	0.027434
O33	O	0.480333	0.993096	-0.104466
O34	O	0.620517	0.993080	-0.104454
O35	O	0.745571	0.657448	0.083984
O36	O	0.823812	0.657440	0.005212
O37	O	0.727492	0.823653	-0.082231
O38	O	0.649252	0.823661	-0.003458
C39	C	0.705839	0.518414	-0.026945
C40	C	0.710153	0.443021	-0.023018
C41	C	0.644583	0.468976	-0.082542
C42	C	0.648637	0.398149	-0.078880
C43	C	0.718258	0.301368	-0.015691
C44	C	0.783835	0.275413	0.043835
C45	C	0.779783	0.346239	0.040170
C46	C	0.737626	0.082963	0.001847
C47	C	0.741671	0.012137	0.005510
C48	C	0.606474	0.134878	-0.117207
C49	C	0.602426	0.205700	-0.120864
C50	C	0.668005	0.179739	-0.061340
N51	N	0.722402	0.228970	-0.011946
N52	N	0.663863	0.252136	-0.065090
C53	C	0.472525	0.740583	-0.038534
C54	C	0.397654	0.740592	-0.038541
C55	C	0.125657	0.740545	-0.038508
C56	C	0.093400	0.845395	-0.093430
C57	C	0.171219	0.845461	-0.093708
C58	C	0.260598	0.740569	-0.038524
C59	C	0.259195	0.688499	-0.072052
C60	C	0.180909	0.689170	-0.072452
C61	C	0.188673	0.687013	0.050004
C62	C	0.265475	0.688983	0.049769
C63	C	0.336864	0.740576	-0.038533
C64	C	0.049392	0.740533	-0.038502
C65	C	0.913730	0.740530	-0.038498
C66	C	0.988600	0.740521	-0.038491
C67	C	0.681674	0.740562	-0.249106
C68	C	0.677787	0.740564	-0.320578
C69	C	0.680416	0.962699	-0.050087
C70	C	0.676101	1.038092	-0.054014
C71	C	0.736880	0.740558	-0.354151
C72	C	0.733230	0.740552	-0.421302
C73	C	0.670483	0.740557	-0.454883
C74	C	0.611388	0.740560	-0.421304
C75	C	0.615042	0.740560	-0.354150
C76	C	0.653026	0.740552	-0.655721
C77	C	0.649375	0.740555	-0.722881
C78	C	0.771219	0.740545	-0.722874
C79	C	0.774864	0.740551	-0.655722
C80	C	0.715771	0.740548	-0.622146
N81	N	0.666750	0.740553	-0.523524
N82	N	0.719510	0.740545	-0.553503
C83	C	0.704580	0.740551	0.172074
C84	C	0.708467	0.740549	0.243546
C85	C	0.926441	0.518388	-0.026927
C86	C	1.005626	0.442986	-0.022994
C87	C	0.717292	0.518409	0.183644
C88	C	0.725493	0.443014	0.259044
C89	C	0.937894	0.518382	0.183663
C90	C	1.020966	0.442979	0.259068
C91	C	0.448360	0.962731	-0.260695
C92	C	0.365288	1.038135	-0.336100
C93	C	0.459813	0.962725	-0.050105
C94	C	0.380629	1.038127	-0.054038
C95	C	0.668963	0.962704	-0.260676
C96	C	0.660761	1.038099	-0.336076
C97	C	0.997498	0.407582	-0.062279
C98	C	1.071892	0.336744	-0.058600
C99	C	1.154414	0.301305	-0.015630
C100	C	1.162540	0.336716	0.023657
C101	C	1.088146	0.407558	0.019972
C102	C	0.774658	0.407601	0.335584
C103	C	0.782361	0.336770	0.406436
C104	C	0.740903	0.301347	0.400745
C105	C	0.691731	0.336766	0.324196
C106	C	0.684024	0.407601	0.253346
C107	C	1.100825	0.407564	0.253361
C108	C	1.178886	0.336724	0.324206
C109	C	1.177085	0.301295	0.400757
C110	C	1.097217	0.336716	0.406462
C111	C	1.019158	0.407560	0.335618
C112	C	0.285429	1.073558	-0.330394
C113	C	0.207367	1.144420	-0.401239
C114	C	0.209167	1.179853	-0.477791
C115	C	0.289035	1.144426	-0.483496
C116	C	0.367095	1.073571	-0.412651
C117	C	0.388756	1.073538	-0.014760
C118	C	0.314359	1.144396	-0.018459
C119	C	0.231837	1.179837	-0.061432
C120	C	0.223712	1.144423	-0.100715
C121	C	0.298107	1.073572	-0.097020
C122	C	0.702230	1.073500	-0.330358
C123	C	0.694541	1.144332	-0.401197
C124	C	0.645378	1.179767	-0.477752
C125	C	0.603908	1.144360	-0.483468
C126	C	0.611602	1.073524	-0.412630
H127	H	0.595242	0.419291	-0.127350
H128	H	0.290490	1.173285	-0.545832
C129	C	0.550029	0.740577	-0.317227
N130	N	0.501058	0.740590	-0.289417
H131	H	0.432118	1.044730	-0.417307
H132	H	0.728311	1.173153	-0.396528
C133	C	0.549866	1.183316	-0.567685
N134	N	0.509171	1.212650	-0.631119
H135	H	0.255278	0.724664	-0.136416
H136	H	0.657979	0.307914	0.319575
H137	H	0.930310	0.436436	-0.097280
C138	C	1.262961	0.223357	0.478681
N139	N	1.327646	0.164651	0.537370
H140	H	0.264397	0.726949	0.074865
C141	C	1.062935	0.297797	-0.101812
N142	N	1.056186	0.268462	-0.134357
H143	H	1.229739	0.307851	0.058642
C144	C	1.097103	0.446484	0.063202
N145	N	1.103855	0.475799	0.095766
C146	C	0.931316	0.446506	0.341910
N147	N	0.865154	0.475838	0.346654
C148	C	0.565965	1.034605	-0.418933
N149	N	0.531585	1.005296	-0.423687
C150	C	0.215466	0.585246	-0.021518
N151	N	0.241497	0.506972	0.016842
C152	C	0.323318	1.183331	0.024765
N153	N	0.330068	1.212652	0.057324
C154	C	0.587917	0.740730	-0.618892
N155	N	0.538836	0.740930	-0.591185
H156	H	0.053194	0.886548	-0.071390
H157	H	0.142343	1.173252	-0.396578
C158	C	0.139251	0.732349	0.088535
N159	N	0.102019	0.766506	0.117548
C160	C	0.525841	0.312160	-0.190381
N161	N	0.468156	0.392346	-0.242742
H162	H	0.798367	-0.066671	0.056970
C163	C	0.749399	0.223416	0.478691
N164	N	0.755805	0.164715	0.537403
C165	C	0.580347	0.740557	-0.759817
N166	N	0.528358	0.740559	-0.787637
H167	H	1.243910	0.307891	0.319546
C168	C	0.756322	1.034529	-0.246154
N169	N	0.797071	1.005176	-0.182733
C170	C	0.534347	0.163426	-0.182684
N171	N	0.480021	0.184930	-0.232006
H172	H	0.643992	0.436425	0.191026
H173	H	1.095765	0.307860	0.468799
C174	C	0.809762	0.054395	0.067329
N175	N	0.864098	0.032877	0.116654
C176	C	0.344486	0.584353	-0.020377
N177	N	0.408748	0.505927	0.018518
C178	C	0.851914	0.317683	0.105652
N179	N	0.906247	0.296172	0.154974
H180	H	1.102308	0.436400	0.191036
H181	H	0.808420	0.436435	0.340233
C182	C	0.836463	0.297812	0.490632
N183	N	0.877216	0.268469	0.554047
C184	C	0.636921	1.257691	-0.555669
N185	N	0.630552	1.316384	-0.614354
C186	C	0.798257	0.740511	-0.458211
N187	N	0.847247	0.740468	-0.486003
H188	H	1.214983	0.243620	-0.012635
C189	C	0.283427	1.034601	-0.246194
N190	N	0.281911	1.005268	-0.182778
C191	C	0.123291	1.257789	-0.555714
N192	N	0.058607	1.316487	-0.614404
C193	C	0.168234	0.900697	-0.063790
N194	N	0.165970	0.942322	-0.041272
C195	C	0.479523	1.034571	0.032511
N196	N	0.547886	1.005230	0.068113
H197	H	0.171267	1.237529	-0.064434
C198	C	0.805908	0.740551	-0.317217
N199	N	0.857904	0.740542	-0.289399
H200	H	0.156512	1.173290	-0.135703
H201	H	0.840525	0.196607	0.095282
H202	H	0.587882	0.547778	-0.133989
H203	H	0.047727	0.886347	-0.158417
H204	H	0.163653	0.886563	-0.159083
H205	H	0.329486	0.612458	0.093709
C206	C	0.124043	0.739164	-0.160276
N207	N	0.081213	0.776822	-0.226427
H208	H	0.215024	0.609775	0.091054
C209	C	0.843895	0.740537	-0.618784
N210	N	0.895889	0.740528	-0.590962
H211	H	0.819330	0.740545	-0.750216
C212	C	0.542373	0.740552	-0.458239
N213	N	0.490390	0.740546	-0.486057
H214	H	0.291478	1.044742	-0.129003
