data_functionalizedCrystal
_audit_creation_method	'MofGen! by Chris Wilmer'
_symmetry_space_group_name_H-M	'P1'
_symmetry_Int_Tables_number	1
_symmetry_cell_setting	triclinic
loop_
_symmetry_equiv_pos_as_xyz
  x,y,z
_cell_length_a	14.853567
_cell_length_b	14.971486
_cell_length_c	14.048226
_cell_angle_alpha	90.006640
_cell_angle_beta	90.003486
_cell_angle_gamma	83.624530
loop_
_atom_site_label
_atom_site_type_symbol
_atom_site_fract_x
_atom_site_fract_y
_atom_site_fract_z
O1	O	-1.196346	-0.116781	-0.079095
O2	O	-0.933884	-0.130693	-0.079112
O3	O	-1.072149	0.006462	-0.079096
O4	O	-1.058080	-0.253936	-0.079111
O5	O	-1.072133	0.006470	0.079225
O6	O	-0.933867	-0.130685	0.079210
O7	O	-1.196329	-0.116773	0.079226
Zn8	Zn	-1.065095	-0.123728	0.104355
Zn9	Zn	-1.065117	-0.123738	-0.104241
O10	O	-1.058063	-0.253928	0.079210
C11	C	-0.900287	-0.130058	0.000047
C12	C	-0.800203	-0.128169	0.000041
C13	C	-1.071512	0.039791	0.000064
C14	C	-1.069626	0.139088	0.000063
C15	C	-1.229926	-0.117408	0.000065
C16	C	-1.330009	-0.119297	0.000065
C17	C	-0.387686	-0.038712	0.000067
C18	C	-0.366375	-0.201655	0.000057
C19	C	-0.460408	-0.203431	0.000054
C20	C	-0.518085	-0.122846	0.000056
C21	C	-0.481728	-0.040486	0.000061
C22	C	-0.496772	-0.285790	0.000039
C23	C	-0.590811	-0.287569	0.000035
C24	C	-0.648490	-0.206984	0.000044
C25	C	-0.612127	-0.124620	0.000050
C26	C	-0.669804	-0.044035	0.000052
C27	C	-0.633444	0.038330	0.000065
C28	C	-0.539407	0.040100	0.000070
C29	C	-0.742527	-0.208754	0.000039
C30	C	-0.763847	-0.045809	0.000046
C31	C	-1.058701	-0.287257	0.000048
C32	C	-1.060586	-0.386554	0.000043
N33	N	-1.065087	-0.123720	0.246715
C34	C	-1.150854	0.196299	0.000069
C35	C	-1.149076	0.289598	0.000059
C36	C	-1.066071	0.325686	0.000050
C37	C	-0.984838	0.268468	0.000042
C38	C	-0.986616	0.175170	0.000045
C39	C	-0.981137	0.462931	0.000038
C40	C	-0.979359	0.556235	0.000037
C41	C	-1.143598	0.577360	0.000052
C42	C	-1.145376	0.484062	0.000055
C43	C	-1.064142	0.426850	0.000049
N44	N	-1.065133	-0.123739	-0.246601
C45	C	-1.126330	-0.063013	0.296540
C46	C	-1.126336	-0.063012	0.396198
C47	C	-1.065103	-0.123724	0.446029
C48	C	-1.003853	-0.184434	0.396197
C49	C	-1.003843	-0.184429	0.296541
C50	C	-1.003879	-0.184440	0.603911
C51	C	-1.003889	-0.184446	0.703574
C52	C	-1.126372	-0.063023	0.703568
C53	C	-1.126362	-0.063019	0.603912
C54	C	-1.065113	-0.123730	0.554087
H55	H	-0.810802	0.019814	0.000051
O56	O	-0.889828	0.595151	0.000023
H57	H	-0.885074	0.637149	0.064557
H58	H	-0.620407	-0.354635	0.000024
H59	H	-1.218446	0.166924	0.000082
H60	H	-1.176205	-0.013580	0.436765
O61	O	-1.192407	0.002462	0.550165
H62	H	-1.154404	0.045998	0.504773
H63	H	-0.319409	-0.267263	0.000047
O64	O	-0.893521	0.401223	0.000033
H65	H	-0.890404	0.358217	0.064561
O66	O	-0.695654	0.125246	0.000074
H67	H	-0.767150	0.110169	0.000072
O68	O	-0.434570	-0.372703	0.000049
H69	H	-0.363072	-0.357630	0.000072
O70	O	-0.500193	0.128931	0.000079
H71	H	-0.425114	0.116624	0.000072
O72	O	-1.192430	0.002467	0.757299
H73	H	-1.182144	-0.007724	0.834967
H74	H	-1.215220	0.336176	0.000066
O75	O	-0.895310	0.307390	0.000043
H76	H	-0.890578	0.349394	-0.064479
H77	H	-0.953991	-0.233863	0.436775
O78	O	-0.348479	0.050123	0.000082
H79	H	-0.273399	0.037824	0.000084
H80	H	-1.176197	-0.013579	0.255974
O81	O	-0.937803	-0.249918	0.550184
H82	H	-0.893939	-0.212177	0.504810
O83	O	-0.899007	0.113457	0.000049
H84	H	-0.840989	0.154223	0.000053
O85	O	-1.234900	0.445132	0.000053
H86	H	-1.291089	0.500587	0.000044
H87	H	-0.772127	-0.275814	0.000030
O88	O	-0.937772	-0.249894	0.242802
H89	H	-0.948040	-0.239681	0.165134
O90	O	-0.937829	-0.249907	0.757327
H91	H	-0.895222	-0.292108	0.705940
O92	O	-1.231219	0.639058	0.000050
H93	H	-1.216042	0.709997	0.000033
