data_functionalizedCrystal
_audit_creation_method	'MofGen! by Chris Wilmer'
_symmetry_space_group_name_H-M	'P1'
_symmetry_Int_Tables_number	1
_symmetry_cell_setting	triclinic
loop_
_symmetry_equiv_pos_as_xyz
  x,y,z
_cell_length_a	21.395364
_cell_length_b	29.839126
_cell_length_c	21.395361
_cell_angle_alpha	90.025490
_cell_angle_beta	89.973528
_cell_angle_gamma	89.980118
loop_
_atom_site_label
_atom_site_type_symbol
_atom_site_fract_x
_atom_site_fract_y
_atom_site_fract_z
Zn1	Zn	0.957830	-0.254004	0.249557
Zn2	Zn	1.291164	0.079329	0.582891
Zn3	Zn	1.624497	0.412663	0.916224
Zn4	Zn	0.957741	-0.178872	0.354324
Zn5	Zn	1.291075	0.154461	0.687658
Zn6	Zn	1.624408	0.487795	1.020991
Zn7	Zn	0.853054	-0.178886	0.249557
Zn8	Zn	1.186387	0.154447	0.582890
Zn9	Zn	1.519720	0.487780	0.916224
Zn10	Zn	0.853015	-0.253973	0.354293
Zn11	Zn	1.186348	0.079360	0.687627
Zn12	Zn	1.519681	0.412693	1.020960
O13	O	0.905410	-0.216434	0.301933
O14	O	1.238743	0.116899	0.635266
O15	O	1.572077	0.450233	0.968600
O16	O	1.045496	-0.244044	0.263468
O17	O	1.378830	0.089289	0.596801
O18	O	1.712163	0.422622	0.930135
O19	O	0.943833	-0.116007	0.340440
O20	O	1.277167	0.217326	0.673773
O21	O	1.610500	0.550660	1.007106
O22	O	0.867006	-0.188870	0.161879
O23	O	1.200340	0.144464	0.495212
O24	O	1.533673	0.477797	0.828546
O25	O	1.045431	-0.188845	0.340440
O26	O	1.378764	0.144488	0.673773
O27	O	1.712098	0.477821	1.007107
O28	O	0.943985	-0.244058	0.161879
O29	O	1.277319	0.089275	0.495213
O30	O	1.610652	0.422608	0.828546
O31	O	0.866920	-0.116017	0.263467
O32	O	1.200253	0.217316	0.596801
O33	O	1.533587	0.550649	0.930134
O34	O	0.765371	-0.188840	0.263437
O35	O	1.098704	0.144493	0.596771
O36	O	1.432037	0.477827	0.930104
O37	O	0.866939	-0.316845	0.340387
O38	O	1.200273	0.016489	0.673720
O39	O	1.533606	0.349822	1.007054
O40	O	0.765342	-0.244006	0.340387
O41	O	1.098675	0.089327	0.673720
O42	O	1.432009	0.422661	1.007053
O43	O	0.943947	-0.316867	0.263438
O44	O	1.277280	0.016466	0.596771
O45	O	1.610614	0.349800	0.930105
O46	O	0.943795	-0.188816	0.441998
O47	O	1.277129	0.144518	0.775332
O48	O	1.610462	0.477851	1.108665
O49	O	0.866853	-0.243992	0.441975
O50	O	1.200186	0.089341	0.775309
O51	O	1.533520	0.422674	1.108642
C52	C	0.742622	-0.216421	0.301909
C53	C	1.075956	0.116912	0.635242
C54	C	1.409289	0.450245	0.968576
C55	C	0.672981	-0.216427	0.301914
C56	C	1.006314	0.116907	0.635247
C57	C	1.339648	0.450240	0.968580
C58	C	0.171218	-0.245229	0.261948
C59	C	0.504552	0.088104	0.595282
C60	C	0.837885	0.421437	0.928615
C61	C	0.236654	-0.245229	0.261944
C62	C	0.569987	0.088104	0.595277
C63	C	0.903320	0.421438	0.928610
C64	C	0.269343	-0.216444	0.301952
C65	C	0.602676	0.116889	0.635285
C66	C	0.936009	0.450223	0.968619
C67	C	0.236591	-0.187665	0.341980
C68	C	0.569924	0.145668	0.675313
C69	C	0.903258	0.479002	1.008646
C70	C	0.171157	-0.187669	0.341988
C71	C	0.504490	0.145664	0.675321
C72	C	0.837824	0.478998	1.008654
C73	C	0.372984	-0.175956	0.306808
C74	C	0.706317	0.157378	0.640141
C75	C	1.039651	0.490711	0.973475
C76	C	0.438417	-0.175951	0.306795
C77	C	0.771750	0.157383	0.640129
C78	C	1.105084	0.490716	0.973462
C79	C	0.471164	-0.216432	0.301931
C80	C	0.804497	0.116902	0.635265
C81	C	1.137830	0.450235	0.968598
C82	C	0.438469	-0.256919	0.297066
C83	C	0.771803	0.076415	0.630400
C84	C	1.105136	0.409748	0.963733
C85	C	0.373035	-0.256923	0.297074
C86	C	0.706368	0.076411	0.630408
C87	C	1.039702	0.409744	0.963741
C88	C	0.340295	-0.216437	0.301948
C89	C	0.673629	0.116897	0.635282
C90	C	1.006962	0.450230	0.968615
C91	C	0.574860	-0.245211	0.261904
C92	C	0.908193	0.088122	0.595238
C93	C	1.241527	0.421456	0.928571
C94	C	0.640297	-0.245212	0.261904
C95	C	0.973630	0.088122	0.595237
C96	C	1.306963	0.421455	0.928571
C97	C	0.640233	-0.187643	0.341937
C98	C	0.973566	0.145690	0.675270
C99	C	1.306899	0.479023	1.008604
C100	C	0.574797	-0.187647	0.341940
C101	C	0.908131	0.145687	0.675274
C102	C	1.241464	0.479020	1.008607
C103	C	0.542115	-0.216430	0.301921
C104	C	0.875448	0.116903	0.635254
C105	C	1.208782	0.450237	0.968587
C106	C	0.905449	-0.333612	0.301909
C107	C	1.238782	-0.000279	0.635242
C108	C	1.572115	0.333054	0.968576
C109	C	0.905465	-0.383547	0.301899
C110	C	1.238799	-0.050213	0.635232
C111	C	1.572132	0.283120	0.968565
C112	C	0.865429	-0.693199	0.261757
C113	C	1.198762	-0.359865	0.595090
C114	C	1.532096	-0.026532	0.928423
C115	C	0.865447	-0.880872	0.261713
C116	C	1.198780	-0.547538	0.595047
C117	C	1.532113	-0.214205	0.928380
O118	O	0.831375	-0.905144	0.227645
O119	O	1.164708	-0.571810	0.560979
O120	O	1.498042	-0.238477	0.894312
N121	N	0.905495	-0.904332	0.301781
N122	N	1.238828	-0.570999	0.635115
N123	N	1.572162	-0.237665	0.968448
C124	C	0.945539	-0.880871	0.341866
C125	C	1.278872	-0.547538	0.675199
C126	C	1.612206	-0.214205	1.008533
O127	O	0.979598	-0.905132	0.375950
O128	O	1.312932	-0.571799	0.709283
O129	O	1.646265	-0.238465	1.042616
C130	C	0.945517	-0.693199	0.341912
C131	C	1.278851	-0.359866	0.675245
C132	C	1.612184	-0.026532	1.008579
C133	C	0.905471	-0.669741	0.301837
C134	C	1.238804	-0.336408	0.635170
C135	C	1.572138	-0.003074	0.968504
C136	C	0.825385	-0.669741	0.221685
C137	C	1.158719	-0.336407	0.555019
C138	C	1.492052	-0.003074	0.888352
C139	C	0.825384	-0.622825	0.221694
C140	C	1.158717	-0.289492	0.555027
C141	C	1.492050	0.043842	0.888361
C142	C	0.865426	-0.599368	0.261774
C143	C	1.198759	-0.266034	0.595108
C144	C	1.532092	0.067299	0.928441
C145	C	0.905469	-0.622826	0.301846
C146	C	1.238803	-0.289492	0.635179
C147	C	1.572136	0.043841	0.968512
C148	C	0.985558	-0.669739	0.381999
C149	C	1.318891	-0.336406	0.715333
C150	C	1.652224	-0.003072	1.048666
C151	C	0.985548	-0.622818	0.382009
C152	C	1.318881	-0.289485	0.715342
C153	C	1.652214	0.043849	1.048675
C154	C	0.945501	-0.599360	0.341933
C155	C	1.278835	-0.266027	0.675267
C156	C	1.612168	0.067307	1.008600
C157	C	0.945510	-0.552453	0.341935
C158	C	1.278843	-0.219119	0.675268
C159	C	1.612177	0.114214	1.008602
N160	N	0.905462	-0.528992	0.301867
N161	N	1.238795	-0.195659	0.635200
N162	N	1.572128	0.137674	0.968534
C163	C	0.865420	-0.552450	0.261787
C164	C	1.198753	-0.219116	0.595120
C165	C	1.532086	0.114217	0.928453
C166	C	0.945548	-0.979402	0.341838
C167	C	1.278881	-0.646069	0.675171
C168	C	1.612215	-0.312735	1.008505
C169	C	0.945554	-1.026320	0.341826
C170	C	1.278888	-0.692986	0.675159
C171	C	1.612221	-0.359653	1.008492
C172	C	0.865461	-1.026317	0.261674
C173	C	1.198795	-0.692984	0.595007
C174	C	1.532128	-0.359650	0.928340
C175	C	0.865459	-0.979398	0.261683
C176	C	1.198792	-0.646065	0.595017
C177	C	1.532125	-0.312732	0.928350
C178	C	0.905500	-0.955942	0.301770
C179	C	1.238833	-0.622608	0.635103
C180	C	1.572166	-0.289275	0.968437
C181	C	0.865420	-0.453924	0.261808
C182	C	1.198753	-0.120591	0.595141
C183	C	1.532086	0.212743	0.928475
C184	C	0.865423	-0.407004	0.261818
C185	C	1.198757	-0.073671	0.595152
C186	C	1.532090	0.259662	0.928485
C187	C	0.945514	-0.407011	0.341973
C188	C	1.278847	-0.073678	0.675306
C189	C	1.612180	0.259656	1.008639
C190	C	0.945513	-0.453927	0.341960
C191	C	1.278846	-0.120593	0.675293
C192	C	1.612179	0.212740	1.008627
C193	C	0.905460	-0.477382	0.301876
C194	C	1.238794	-0.144049	0.635209
C195	C	1.572127	0.189285	0.968542
O196	O	0.979559	-0.528152	0.375990
O197	O	1.312892	-0.194818	0.709323
O198	O	1.646225	0.138515	1.042656
O199	O	0.831355	-0.528181	0.227718
O200	O	1.164689	-0.194848	0.561051
O201	O	1.498022	0.138486	0.894384
C202	C	0.865431	-0.740114	0.261748
C203	C	1.198764	-0.406781	0.595081
C204	C	1.532097	-0.073447	0.928414
C205	C	0.905474	-0.763572	0.301819
C206	C	1.238808	-0.430239	0.635153
C207	C	1.572141	-0.096905	0.968486
C208	C	0.945516	-0.740114	0.341899
C209	C	1.278850	-0.406781	0.675233
C210	C	1.612183	-0.073448	1.008566
C211	C	0.905481	-0.810490	0.301807
C212	C	1.238814	-0.477157	0.635140
C213	C	1.572147	-0.143823	0.968474
C214	C	0.865438	-0.833947	0.261727
C215	C	1.198772	-0.500614	0.595060
C216	C	1.532105	-0.167281	0.928393
C217	C	0.825390	-0.810487	0.221659
C218	C	1.158724	-0.477154	0.554992
C219	C	1.492057	-0.143820	0.888325
C220	C	0.825389	-0.763572	0.221668
C221	C	1.158722	-0.430238	0.555001
C222	C	1.492055	-0.096905	0.888334
C223	C	0.985565	-0.763575	0.381967
C224	C	1.318898	-0.430241	0.715301
C225	C	1.652231	-0.096908	1.048634
C226	C	0.985563	-0.810490	0.381955
C227	C	1.318897	-0.477157	0.715288
C228	C	1.652230	-0.143824	1.048622
C229	C	0.945521	-0.833948	0.341875
C230	C	1.278855	-0.500615	0.675208
C231	C	1.612188	-0.167281	1.008541
C232	C	1.068833	-0.216447	0.301958
C233	C	1.402167	0.116887	0.635291
C234	C	1.735500	0.450220	0.968624
C235	C	1.138474	-0.216452	0.301968
C236	C	1.471808	0.116881	0.635301
C237	C	1.805141	0.450214	0.968635
C238	C	0.905327	-0.216409	0.464721
C239	C	1.238661	0.116924	0.798054
C240	C	1.571994	0.450258	1.131387
C241	C	0.905349	-0.216413	0.534362
C242	C	1.238683	0.116920	0.867695
C243	C	1.572016	0.450253	1.201029
C244	C	0.905407	-0.099711	0.301912
C245	C	1.238741	0.233622	0.635245
C246	C	1.572074	0.566955	0.968578
C247	C	0.905512	-0.049777	0.301745
C248	C	1.238846	0.283556	0.635079
C249	C	1.572179	0.616889	0.968412
C250	C	0.905510	-0.216469	0.138510
C251	C	1.238843	0.116864	0.471843
C252	C	1.572177	0.450198	0.805176
C253	C	0.905553	-0.216484	0.068868
C254	C	1.238886	0.116850	0.402202
C255	C	1.572219	0.450183	0.735535
C256	C	0.945449	-0.187712	0.567066
C257	C	1.278782	0.145621	0.900399
C258	C	1.612115	0.478954	1.233733
C259	C	0.945478	-0.187722	0.632502
C260	C	1.278811	0.145611	0.965835
C261	C	1.612144	0.478944	1.299168
C262	C	0.905396	-0.216429	0.665230
C263	C	1.238730	0.116905	0.998564
C264	C	1.572063	0.450238	1.331897
C265	C	0.865294	-0.245135	0.632518
C266	C	1.198627	0.088198	0.965851
C267	C	1.531961	0.421531	1.299185
C268	C	0.865271	-0.245128	0.567084
C269	C	1.198604	0.088206	0.900417
C270	C	1.531937	0.421539	1.233751
C271	C	0.848981	-0.219949	0.768941
C272	C	1.182315	0.113384	1.102274
C273	C	1.515648	0.446717	1.435607
C274	C	0.849004	-0.219954	0.834374
C275	C	1.182337	0.113380	1.167707
C276	C	1.515670	0.446713	1.501040
C277	C	0.905469	-0.216455	0.867051
C278	C	1.238803	0.116878	1.200384
C279	C	1.572136	0.450212	1.533718
C280	C	0.961914	-0.212942	0.834287
C281	C	1.295247	0.120391	1.167620
C282	C	1.628581	0.453724	1.500954
C283	C	0.961891	-0.212935	0.768853
C284	C	1.295224	0.120399	1.102186
C285	C	1.628557	0.453732	1.435520
C286	C	0.905418	-0.216440	0.736183
C287	C	1.238751	0.116893	1.069516
C288	C	1.572084	0.450226	1.402849
C289	C	0.945604	-0.187763	0.970708
C290	C	1.278937	0.145570	1.304041
C291	C	1.612270	0.478903	1.637374
C292	C	0.945634	-0.187777	1.036144
C293	C	1.278967	0.145557	1.369478
C294	C	1.612300	0.478890	1.702811
C295	C	0.865445	-0.245187	1.036160
C296	C	1.198778	0.088146	1.369493
C297	C	1.532111	0.421480	1.702826
C298	C	0.865420	-0.245176	0.970724
C299	C	1.198753	0.088157	1.304058
C300	C	1.532087	0.421490	1.637391
C301	C	0.905499	-0.216462	0.938002
C302	C	1.238832	0.116871	1.271336
C303	C	1.572165	0.450205	1.604669
H304	H	0.346327	-0.142989	0.310771
H305	H	0.679660	0.190345	0.644105
H306	H	1.012994	0.523678	0.977438
H307	H	1.018159	-0.603722	0.414649
H308	H	1.351492	-0.270389	0.747982
H309	H	1.684825	0.062945	1.081315
Cl310	Cl	1.032846	-0.208523	0.727666
Cl311	Cl	1.366180	0.124810	1.060999
Cl312	Cl	1.699513	0.458144	1.394333
Cl313	Cl	0.815003	-0.281258	0.929608
Cl314	Cl	1.148337	0.052076	1.262941
Cl315	Cl	1.481670	0.385409	1.596275
H316	H	0.144612	-0.268669	0.229364
H317	H	0.477946	0.064665	0.562697
H318	H	0.811279	0.397998	0.896030
H319	H	0.978134	-0.164351	0.659134
H320	H	1.311467	0.168983	0.992468
H321	H	1.644800	0.502316	1.325801
H322	H	0.263319	-0.268662	0.229352
H323	H	0.596652	0.064671	0.562685
H324	H	0.929986	0.398004	0.896019
H325	H	0.832806	-0.473016	0.229167
H326	H	1.166139	-0.139682	0.562500
H327	H	1.499472	0.193651	0.895834
H328	H	1.007894	-0.210093	0.860891
H329	H	1.341227	0.123240	1.194225
H330	H	1.674561	0.456573	1.527558
Cl331	Cl	0.814855	-0.281211	0.525968
Cl332	Cl	1.148188	0.052122	0.859301
Cl333	Cl	1.481522	0.385455	1.192634
Cl334	Cl	0.479511	-0.125053	0.312899
Cl335	Cl	0.812845	0.208281	0.646233
Cl336	Cl	1.146178	0.541614	0.979566
H337	H	0.802997	-0.222800	0.742342
H338	H	1.136330	0.110533	1.075675
H339	H	1.469663	0.443867	1.409008
H340	H	1.018180	-0.829586	0.414588
H341	H	1.351513	-0.496252	0.747921
H342	H	1.684847	-0.162919	1.081254
Cl343	Cl	0.681321	-0.151460	0.392239
Cl344	Cl	1.014655	0.181874	0.725573
Cl345	Cl	1.347988	0.515207	1.058906
Cl346	Cl	0.995842	-0.151621	0.525933
Cl347	Cl	1.329176	0.181712	0.859267
Cl348	Cl	1.662509	0.515046	1.192600
H349	H	0.346418	-0.289889	0.293114
H350	H	0.679751	0.043445	0.626448
H351	H	1.013085	0.376778	0.959781
Cl352	Cl	1.035900	-0.699217	0.432388
Cl353	Cl	1.369233	-0.365884	0.765722
Cl354	Cl	1.702567	-0.032551	1.099055
H355	H	0.832812	-0.268562	1.062807
H356	H	1.166146	0.064771	1.396140
H357	H	1.499479	0.398104	1.729473
H358	H	0.263211	-0.164229	0.374557
H359	H	0.596544	0.169104	0.707890
H360	H	0.929877	0.502438	1.041223
Cl361	Cl	0.814909	-0.281225	0.673662
Cl362	Cl	1.148242	0.052108	1.006995
Cl363	Cl	1.481576	0.385441	1.340328
Cl364	Cl	0.775054	-0.839985	0.171271
Cl365	Cl	1.108387	-0.506652	0.504604
Cl366	Cl	1.441720	-0.173319	0.837938
H367	H	0.465130	-0.289882	0.293102
H368	H	0.798464	0.043451	0.626435
H369	H	1.131797	0.376785	0.959769
Cl370	Cl	0.533771	-0.281396	0.211597
Cl371	Cl	0.867104	0.051937	0.544931
Cl372	Cl	1.200437	0.385271	0.878264
H373	H	0.803043	-0.222810	0.861045
H374	H	1.136376	0.110524	1.194378
H375	H	1.469709	0.443857	1.527712
Cl376	Cl	0.815076	-0.377517	0.211433
Cl377	Cl	1.148410	-0.044184	0.544767
Cl378	Cl	1.481743	0.289149	0.878100
Cl379	Cl	0.533631	-0.151461	0.392244
Cl380	Cl	0.866965	0.181873	0.725578
Cl381	Cl	1.200298	0.515206	1.058911
Cl382	Cl	0.681461	-0.281396	0.211594
Cl383	Cl	1.014794	0.051938	0.544927
Cl384	Cl	1.348128	0.385271	0.878260
H385	H	0.792775	-0.688835	0.189047
H386	H	1.126108	-0.355501	0.522380
H387	H	1.459442	-0.022168	0.855713
Cl388	Cl	0.815122	-1.055815	0.211288
Cl389	Cl	1.148455	-0.722482	0.544622
Cl390	Cl	1.481789	-0.389148	0.877955
H391	H	1.018170	-0.744480	0.414609
H392	H	1.351503	-0.411147	0.747942
H393	H	1.684837	-0.077814	1.081275
H394	H	0.978155	-0.960308	0.374485
H395	H	1.311488	-0.626974	0.707818
H396	H	1.644821	-0.293641	1.041151
H397	H	0.978117	-0.387904	0.374603
H398	H	1.311450	-0.054570	0.707936
H399	H	1.644783	0.278763	1.041270
H400	H	0.144497	-0.164235	0.374578
H401	H	0.477830	0.169098	0.707911
H402	H	0.811164	0.502432	1.041244
Cl403	Cl	0.775041	-0.734089	0.171285
Cl404	Cl	1.108374	-0.400755	0.504619
Cl405	Cl	1.441707	-0.067422	0.837952
Cl406	Cl	0.996054	-0.151695	1.077259
Cl407	Cl	1.329387	0.181638	1.410592
Cl408	Cl	1.662721	0.514972	1.743926
Cl409	Cl	0.815111	-0.949913	0.211303
Cl410	Cl	1.148445	-0.616580	0.544636
Cl411	Cl	1.481778	-0.283247	0.877969
Cl412	Cl	0.995909	-1.055804	0.392200
Cl413	Cl	1.329242	-0.722471	0.725534
Cl414	Cl	1.662575	-0.389137	1.058867
Cl415	Cl	0.775033	-0.593342	0.171315
Cl416	Cl	1.108366	-0.260009	0.504649
Cl417	Cl	1.441699	0.073325	0.837982
Cl418	Cl	0.995868	-0.483417	0.392330
Cl419	Cl	1.329201	-0.150084	0.725663
Cl420	Cl	1.662535	0.183249	1.058997
Cl421	Cl	0.995987	-0.151666	0.929568
Cl422	Cl	1.329320	0.181667	1.262902
Cl423	Cl	1.662653	0.515001	1.596235
