data_functionalizedCrystal
_audit_creation_method	'MofGen! by Chris Wilmer'
_symmetry_space_group_name_H-M	'P1'
_symmetry_Int_Tables_number	1
_symmetry_cell_setting	triclinic
loop_
_symmetry_equiv_pos_as_xyz
  x,y,z
_cell_length_a	18.215407
_cell_length_b	15.297327
_cell_length_c	18.215399
_cell_angle_alpha	99.645421
_cell_angle_beta	89.983176
_cell_angle_gamma	99.707397
loop_
_atom_site_label
_atom_site_type_symbol
_atom_site_fract_x
_atom_site_fract_y
_atom_site_fract_z
Zn1	Zn	1.074338	-0.359142	-0.466791
Zn2	Zn	1.052949	-0.510019	-0.365013
Zn3	Zn	0.951272	-0.359178	-0.343743
Zn4	Zn	0.929941	-0.509963	-0.488030
O5	O	1.002125	-0.434575	-0.415894
O6	O	1.174484	-0.379165	-0.453303
O7	O	1.039437	-0.490049	-0.259213
O8	O	0.985476	-0.232926	-0.342275
O9	O	1.158769	-0.490014	-0.378527
O10	O	1.075892	-0.232900	-0.432678
O11	O	0.964736	-0.379226	-0.243586
O12	O	0.845460	-0.379171	-0.362870
O13	O	0.949119	-0.489917	-0.588192
O14	O	0.829787	-0.489952	-0.468877
O15	O	1.055208	-0.379110	-0.572587
O16	O	1.018753	-0.636259	-0.399122
O17	O	0.928379	-0.636217	-0.489502
C18	C	0.810921	-0.434560	-0.415871
C19	C	0.729120	-0.434575	-0.415882
C20	C	0.532772	-0.492350	-0.471033
C21	C	0.455913	-0.492352	-0.471043
C22	C	0.472228	-0.376818	-0.360774
C23	C	0.549086	-0.376811	-0.360768
C24	C	0.579356	-0.434582	-0.415897
C25	C	0.425638	-0.434592	-0.415913
C26	C	0.342304	-0.434594	-0.415923
C27	C	0.662695	-0.434578	-0.415888
C28	C	0.968950	-0.668972	-0.448941
C29	C	0.954825	-0.769248	-0.463103
C30	C	1.103383	-1.051871	-0.314927
C31	C	1.116654	-0.957656	-0.301617
C32	C	1.076198	-0.910550	-0.341987
C33	C	1.022468	-0.957666	-0.395670
C34	C	1.009192	-1.051890	-0.408977
C35	C	0.982007	-0.910569	-0.436037
C36	C	0.928278	-0.957686	-0.489720
C37	C	0.915004	-1.051900	-0.503025
C38	C	0.955460	-1.099007	-0.462654
C39	C	0.995284	-0.816346	-0.422730
C40	C	0.901093	-0.816365	-0.516781
C41	C	0.887822	-0.910579	-0.530090
C42	C	1.194076	-0.434592	-0.415918
C43	C	1.275874	-0.434598	-0.415928
C44	C	1.002170	-0.434503	-0.607837
C45	C	1.002189	-0.434473	-0.689632
C46	C	1.035450	-0.199263	-0.382735
C47	C	1.049651	-0.098987	-0.368604
C48	C	0.963337	-0.376728	-0.869684
C49	C	0.963353	-0.376710	-0.946540
C50	C	1.041144	-0.492109	-0.962802
C51	C	1.041124	-0.492131	-0.885948
C52	C	1.002222	-0.434436	-0.839390
C53	C	1.002258	-0.434396	-0.993101
C54	C	1.002275	-0.434376	-1.076432
C55	C	1.002204	-0.434456	-0.756054
C56	C	1.002132	-0.434582	-0.224689
C57	C	1.002291	-0.434359	-0.142859
H58	H	0.417987	-0.539391	-0.515941
H59	H	0.871246	-1.090260	-0.546728
C60	C	0.920569	-0.313245	-0.979866
H61	H	0.926140	-0.321504	-1.032307
H62	H	0.939909	-0.252629	-0.958740
H63	H	0.869249	-0.326468	-0.969120
H64	H	0.447573	-0.329784	-0.315889
C65	C	1.175755	-0.905834	-0.242577
H66	H	1.197953	-0.947381	-0.220444
H67	H	1.152796	-0.869134	-0.205302
H68	H	1.212992	-0.869026	-0.265565
C69	C	1.147875	-1.103684	-0.270521
H70	H	1.181774	-1.062132	-0.236641
H71	H	1.174751	-1.140388	-0.303881
H72	H	1.114546	-1.140488	-0.243627
H73	H	0.931661	-0.329749	-0.831779
C74	C	0.940860	-1.202643	-0.477290
H75	H	0.972649	-1.223946	-0.445556
H76	H	0.950559	-1.223907	-0.527795
H77	H	0.890364	-1.224015	-0.467532
H78	H	1.039030	-0.777991	-0.379022
C79	C	1.083940	-0.555561	-1.014016
H80	H	1.078391	-0.547277	-1.064126
H81	H	1.064587	-0.616181	-1.009960
H82	H	1.135256	-0.542354	-0.999561
H83	H	1.087006	-0.833836	-0.331147
H84	H	0.557415	-0.539388	-0.515925
C85	C	0.600331	-0.313265	-0.300115
H86	H	0.571296	-0.278869	-0.267276
H87	H	0.635881	-0.273997	-0.322780
H88	H	0.625424	-0.347732	-0.272860
H89	H	1.072790	-0.539127	-0.861283
H90	H	0.868149	-0.778011	-0.549652
H91	H	0.844075	-0.948955	-0.573799
