data_functionalizedCrystal
_audit_creation_method	'MofGen! by Chris Wilmer'
_symmetry_space_group_name_H-M	'P1'
_symmetry_Int_Tables_number	1
_symmetry_cell_setting	triclinic
loop_
_symmetry_equiv_pos_as_xyz
  x,y,z
_cell_length_a	10.723023
_cell_length_b	10.723024
_cell_length_c	9.198806
_cell_angle_alpha	89.997736
_cell_angle_beta	89.996443
_cell_angle_gamma	84.467709
loop_
_atom_site_label
_atom_site_type_symbol
_atom_site_fract_x
_atom_site_fract_y
_atom_site_fract_z
O1	O	1.657188	0.175020	-0.120884
O2	O	2.157188	0.675020	0.379116
O3	O	1.294035	0.191775	-0.120888
O4	O	1.794035	0.691775	0.379112
O5	O	1.483988	0.001821	-0.120881
O6	O	1.983988	0.501821	0.379119
O7	O	1.467235	0.364974	-0.120892
O8	O	1.967235	0.864974	0.379108
O9	O	1.483974	0.001820	0.120904
O10	O	1.983974	0.501820	0.620904
O11	O	1.294021	0.191773	0.120897
O12	O	1.794021	0.691773	0.620897
O13	O	1.657174	0.175019	0.120901
O14	O	2.157174	0.675019	0.620901
Cu15	Cu	1.475596	0.183396	0.142976
Cu16	Cu	1.975596	0.683396	0.642976
Cu17	Cu	1.475613	0.183398	-0.142963
Cu18	Cu	1.975613	0.683398	0.357037
O19	O	1.467221	0.364972	0.120893
O20	O	1.967221	0.864972	0.620893
C21	C	1.247529	0.190555	0.000004
C22	C	1.747529	0.690555	0.500004
C23	C	1.108974	0.186908	0.000003
C24	C	1.608974	0.686908	0.500003
C25	C	1.047210	0.185282	-0.125249
C26	C	1.547210	0.685282	0.374751
C27	C	0.904007	0.181513	-0.125254
C28	C	1.404007	0.681513	0.374746
C29	C	1.482762	-0.044679	0.000010
C30	C	1.982762	0.455321	0.500010
C31	C	1.479114	-0.183233	0.000005
C32	C	1.979114	0.316767	0.500005
C33	C	1.585402	-0.258216	0.000004
C34	C	2.085402	0.241784	0.500004
C35	C	1.581634	-0.401420	-0.000001
C36	C	2.081634	0.098580	0.499999
C37	C	1.703680	0.176239	0.000005
C38	C	2.203680	0.676239	0.500005
C39	C	1.842235	0.179886	-0.000003
C40	C	2.342235	0.679886	0.499997
C41	C	1.468447	0.411473	-0.000001
C42	C	1.968447	0.911473	0.499999
C43	C	1.472095	0.550027	-0.000005
C44	C	1.972095	1.050027	0.499995
N45	N	1.475593	0.183394	0.344090
N46	N	1.975593	0.683394	0.844090
N47	N	1.475625	0.183390	-0.344077
N48	N	1.975625	0.683390	0.155923
C49	C	1.555546	0.103465	0.583694
C50	C	2.055546	0.603465	1.083694
C51	C	1.555530	0.103466	0.416281
C52	C	2.055530	0.603466	0.916281
H53	H	0.895343	0.181278	0.107236
H54	H	1.395343	0.681278	0.607236
H55	H	1.623949	0.035034	0.354167
H56	H	2.123949	0.535034	0.854167
H57	H	1.055835	0.185515	0.107233
H58	H	1.555835	0.685515	0.607233
H59	H	1.381099	-0.385548	0.000006
H60	H	1.881099	0.114452	0.500006
H61	H	1.679188	-0.216394	0.000014
H62	H	2.179188	0.283606	0.500014
H63	H	1.672625	-0.465852	0.000004
H64	H	2.172625	0.034148	0.500004
H65	H	1.385328	-0.225055	-0.000005
H66	H	1.885328	0.274945	0.499995
H67	H	1.100348	0.186688	-0.232479
H68	H	1.600348	0.686688	0.267521
Cl69	Cl	1.661219	-0.002183	0.679558
Cl70	Cl	2.161219	0.497817	1.179558
Cl71	Cl	0.822009	0.179345	-0.290823
Cl72	Cl	1.322009	0.679345	0.209177
Cl73	Cl	1.369938	0.289042	0.439974
Cl74	Cl	1.869938	0.789042	0.939974
Cl75	Cl	1.369967	0.289049	0.560055
Cl76	Cl	1.869967	0.789049	1.060055
