data_functionalizedCrystal
_audit_creation_method	'MofGen! by Chris Wilmer'
_symmetry_space_group_name_H-M	'P1'
_symmetry_Int_Tables_number	1
_symmetry_cell_setting	triclinic
loop_
_symmetry_equiv_pos_as_xyz
  x,y,z
_cell_length_a	14.853558
_cell_length_b	14.853567
_cell_length_c	9.730217
_cell_angle_alpha	90.000542
_cell_angle_beta	89.999116
_cell_angle_gamma	83.633032
loop_
_atom_site_label
_atom_site_type_symbol
_atom_site_fract_x
_atom_site_fract_y
_atom_site_fract_z
O1	O	1.196366	0.117663	-0.114261
O2	O	0.933905	0.131693	-0.114266
O3	O	1.072146	-0.006552	-0.114268
O4	O	1.058125	0.255908	-0.114260
O5	O	1.072142	-0.006553	0.114312
O6	O	0.933901	0.131692	0.114314
O7	O	1.196362	0.117662	0.114319
Zn8	Zn	1.065131	0.124676	0.150608
Zn9	Zn	1.065136	0.124678	-0.150556
O10	O	1.058121	0.255907	0.114320
C11	C	0.900314	0.131058	0.000023
C12	C	0.800230	0.129158	0.000020
C13	C	0.753212	0.128267	-0.124584
C14	C	0.753206	0.128255	0.124623
C15	C	0.659173	0.126465	0.124625
C16	C	0.612155	0.125574	0.000021
C17	C	0.659170	0.126474	-0.124585
C18	C	0.612151	0.125555	0.249229
C19	C	0.518112	0.123764	0.249237
C20	C	0.471091	0.122880	0.124631
C21	C	0.518113	0.123781	0.000019
C22	C	0.471095	0.122890	-0.124585
C23	C	0.518114	0.123797	-0.249198
C24	C	0.612150	0.125589	-0.249191
C25	C	0.377055	0.121087	0.124624
C26	C	0.377053	0.121097	-0.124586
C27	C	1.071509	-0.040141	0.000018
C28	C	1.069605	-0.140225	0.000006
C29	C	0.979439	-0.552756	0.000031
C30	C	1.143673	-0.574042	0.000034
C31	C	1.145463	-0.480009	0.000026
C32	C	1.064240	-0.422344	0.000022
C33	C	0.981227	-0.458713	0.000027
C34	C	1.228474	-0.443632	0.000035
C35	C	1.230268	-0.349593	0.000029
C36	C	1.149044	-0.291927	0.000015
C37	C	1.066027	-0.328301	0.000018
C38	C	0.984805	-0.270637	0.000015
C39	C	0.901787	-0.307009	0.000008
C40	C	0.900003	-0.401047	0.000013
C41	C	1.150828	-0.197890	0.000010
C42	C	0.986592	-0.176594	0.000011
C43	C	1.229953	0.118296	0.000027
C44	C	1.330037	0.120197	0.000020
C45	C	1.058758	0.289496	0.000031
C46	C	1.060662	0.389580	0.000034
N47	N	1.065134	0.124675	0.356145
N48	N	1.065141	0.124673	-0.356092
C49	C	1.187596	0.002294	0.356134
C50	C	1.248833	-0.058894	0.428069
C51	C	1.248842	-0.058894	0.571948
C52	C	1.187606	0.002298	0.643897
C53	C	1.126369	0.063485	0.571962
C54	C	1.126368	0.063481	0.428079
C55	C	1.003904	0.185860	0.571973
C56	C	1.003897	0.185867	0.428093
C57	C	0.942667	0.247052	0.643922
C58	C	0.881433	0.308246	0.571987
C59	C	0.881427	0.308245	0.428099
C60	C	0.942660	0.247054	0.356159
H61	H	0.479837	0.123024	0.350704
N62	N	0.815396	0.374240	0.649589
H63	H	0.776603	0.413007	0.582191
H64	H	0.775506	0.339646	0.709283
H65	H	0.831557	0.358068	0.369537
H66	H	0.479820	0.123067	-0.350650
H67	H	1.187602	0.002296	0.238980
N68	N	1.314857	-0.124913	0.350470
H69	H	1.305558	-0.115636	0.248407
H70	H	1.378830	-0.114395	0.375596
N71	N	1.319799	-0.310361	0.000013
H72	H	1.324204	-0.271813	0.084741
H73	H	1.370931	-0.361208	-0.000038
H74	H	0.650441	0.126272	0.350675
H75	H	0.942664	0.247051	0.239004
H76	H	0.835656	-0.260047	0.000015
H77	H	0.338777	0.120377	-0.226056
N78	N	0.942682	0.247052	0.799105
H79	H	0.955862	0.308335	0.833752
H80	H	0.881410	0.233780	0.833667
N81	N	0.889899	-0.591973	0.000025
H82	H	0.885495	-0.630514	-0.084710
H83	H	0.885546	-0.630468	0.084815
N84	N	0.662862	0.126563	-0.383585
H85	H	0.729568	0.127827	-0.364673
H86	H	0.653665	0.070406	-0.437999
N87	N	0.803917	0.129249	-0.258983
H88	H	0.870623	0.130522	-0.240083
H89	H	0.794723	0.073093	-0.313401
N90	N	1.314887	-0.124888	0.649545
H91	H	1.353679	-0.163653	0.582141
H92	H	1.354778	-0.090289	0.709232
N93	N	1.231272	-0.636235	0.000026
H94	H	1.284130	-0.598924	0.000019
H95	H	1.234108	-0.675712	0.084766
N96	N	0.803913	0.129212	0.259011
H97	H	0.870620	0.130484	0.240105
H98	H	0.780234	0.184743	0.313424
N99	N	0.810474	-0.440284	0.000023
H100	H	0.774885	-0.419260	0.084757
H101	H	0.774954	-0.419263	-0.084769
N102	N	0.326345	0.120099	0.259012
H103	H	0.370481	0.120316	0.337941
H104	H	0.280506	0.175513	0.264864
N105	N	0.898986	-0.114401	-0.000005
H106	H	0.846129	-0.151714	-0.000010
H107	H	0.896145	-0.074920	0.084733
N108	N	1.187616	0.002297	0.799080
H109	H	1.139536	0.050345	0.833744
H110	H	1.174463	-0.059016	0.833628
N111	N	1.316067	-0.505834	0.000056
H112	H	1.318988	-0.545325	-0.084678
H113	H	1.368882	-0.468468	0.000119
N114	N	1.240356	-0.158657	0.000031
H115	H	1.291538	-0.209456	0.000043
H116	H	1.244682	-0.120108	-0.084708
