data_functionalizedCrystal
_audit_creation_method	'MofGen! by Chris Wilmer'
_symmetry_space_group_name_H-M	'P1'
_symmetry_Int_Tables_number	1
_symmetry_cell_setting	triclinic
loop_
_symmetry_equiv_pos_as_xyz
  x,y,z
_cell_length_a	21.395362
_cell_length_b	21.395364
_cell_length_c	21.395355
_cell_angle_alpha	90.025298
_cell_angle_beta	89.979451
_cell_angle_gamma	89.953508
loop_
_atom_site_label
_atom_site_type_symbol
_atom_site_fract_x
_atom_site_fract_y
_atom_site_fract_z
Zn1	Zn	-0.249232	-0.957863	-0.354265
Zn2	Zn	0.250768	-0.457863	0.145735
Zn3	Zn	-0.353992	-0.957767	-0.249484
Zn4	Zn	0.146008	-0.457767	0.250516
Zn5	Zn	-0.249263	-0.853078	-0.249500
Zn6	Zn	0.250737	-0.353078	0.250500
Zn7	Zn	-0.354006	-0.853049	-0.354223
Zn8	Zn	0.145994	-0.353049	0.145777
O9	O	-0.301623	-0.905439	-0.301868
O10	O	0.198377	-0.405439	0.198132
O11	O	-0.263110	-1.045528	-0.340376
O12	O	0.236890	-0.545528	0.159624
O13	O	-0.340106	-0.943852	-0.161808
O14	O	0.159894	-0.443852	0.338192
O15	O	-0.161581	-0.867030	-0.263422
O16	O	0.338419	-0.367030	0.236578
O17	O	-0.340076	-1.045458	-0.263394
O18	O	0.159924	-0.545458	0.236606
O19	O	-0.161558	-0.944016	-0.340393
O20	O	0.338442	-0.444016	0.159607
O21	O	-0.263162	-0.866938	-0.161820
O22	O	0.236838	-0.366938	0.338180
O23	O	-0.263176	-0.765396	-0.263381
O24	O	0.236824	-0.265396	0.236619
O25	O	-0.340101	-0.866981	-0.441906
O26	O	0.159899	-0.366981	0.058094
O27	O	-0.340131	-0.765375	-0.340320
O28	O	0.159869	-0.265375	0.159680
O29	O	-0.263124	-0.943987	-0.441937
O30	O	0.236876	-0.443987	0.058063
O31	O	-0.441672	-0.943824	-0.263353
O32	O	0.058328	-0.443824	0.236647
O33	O	-0.441682	-0.866888	-0.340304
O34	O	0.058318	-0.366888	0.159696
C35	C	-0.301659	-0.742652	-0.301848
C36	C	0.198341	-0.242652	0.198152
C37	C	-0.301689	-0.673011	-0.301855
C38	C	0.198311	-0.173011	0.198145
C39	C	-0.261679	-0.640356	-0.342001
C40	C	0.238321	-0.140356	0.157999
C41	C	-0.261664	-0.574921	-0.342003
C42	C	0.238336	-0.074921	0.157997
C43	C	-0.301671	-0.542142	-0.301864
C44	C	0.198329	-0.042142	0.198136
C45	C	-0.341683	-0.574804	-0.261710
C46	C	0.158317	-0.074804	0.238290
C47	C	-0.341692	-0.640238	-0.261706
C48	C	0.158308	-0.140238	0.238294
C49	C	-0.358098	-0.438419	-0.296824
C50	C	0.141902	0.061581	0.203176
C51	C	-0.358090	-0.372986	-0.296833
C52	C	0.141910	0.127014	0.203167
C53	C	-0.301642	-0.340322	-0.301876
C54	C	0.198358	0.159678	0.198124
C55	C	-0.245200	-0.373098	-0.306923
C56	C	0.254800	0.126902	0.193077
C57	C	-0.245210	-0.438532	-0.306918
C58	C	0.254790	0.061468	0.193082
C59	C	-0.301665	-0.471190	-0.301865
C60	C	0.198335	0.028810	0.198135
C61	C	-0.261613	-0.236715	-0.342026
C62	C	0.238387	0.263285	0.157974
C63	C	-0.261597	-0.171278	-0.342023
C64	C	0.238403	0.328722	0.157977
C65	C	-0.341622	-0.171163	-0.261734
C66	C	0.158378	0.328837	0.238266
C67	C	-0.341632	-0.236598	-0.261734
C68	C	0.158368	0.263402	0.238266
C69	C	-0.301629	-0.269370	-0.301883
C70	C	0.198371	0.230630	0.198117
C71	C	-0.464411	-0.905359	-0.301836
C72	C	0.035589	-0.405359	0.198164
C73	C	-0.534052	-0.905382	-0.301843
C74	C	-0.034052	-0.405382	0.198157
C75	C	-0.566696	-0.945446	-0.341950
C76	C	-0.066696	-0.445446	0.158050
C77	C	-0.632132	-0.945468	-0.341965
C78	C	-0.132132	-0.445468	0.158035
C79	C	-0.664920	-0.905433	-0.301863
C80	C	-0.164920	-0.405433	0.198137
C81	C	-0.632268	-0.865362	-0.261753
C82	C	-0.132268	-0.365362	0.238247
C83	C	-0.566834	-0.865337	-0.261743
C84	C	-0.066834	-0.365337	0.238257
C85	C	-0.768622	-0.900556	-0.245424
C86	C	-0.268622	-0.400556	0.254576
C87	C	-0.834055	-0.900586	-0.245432
C88	C	-0.334055	-0.400586	0.254568
C89	C	-0.866741	-0.905507	-0.301893
C90	C	-0.366741	-0.405507	0.198107
C91	C	-0.833986	-0.910413	-0.358346
C92	C	-0.333986	-0.410413	0.141654
C93	C	-0.768552	-0.910387	-0.358337
C94	C	-0.268552	-0.410387	0.141663
C95	C	-0.735873	-0.905456	-0.301869
C96	C	-0.235873	-0.405456	0.198131
C97	C	-0.970338	-0.945597	-0.342020
C98	C	-0.470338	-0.445597	0.157980
C99	C	-1.035775	-0.945614	-0.342036
C100	C	-0.535775	-0.445614	0.157964
C101	C	-1.035909	-0.865512	-0.261818
C102	C	-0.535909	-0.365512	0.238182
C103	C	-0.970474	-0.865491	-0.261807
C104	C	-0.470474	-0.365491	0.238193
C105	C	-0.937692	-0.905537	-0.301907
C106	C	-0.437692	-0.405537	0.198093
C107	C	-0.138200	-0.905537	-0.301914
C108	C	0.361800	-0.405537	0.198086
C109	C	-0.068558	-0.905579	-0.301934
C110	C	0.431442	-0.405579	0.198066
C111	C	-0.301610	-0.905491	-0.465291
C112	C	0.198390	-0.405491	0.034709
C113	C	-0.301605	-0.905514	-0.534933
C114	C	0.198395	-0.405514	-0.034933
C115	C	-0.301596	-0.068863	-0.301885
C116	C	0.198404	0.431137	0.198115
C117	C	-0.301604	-0.138504	-0.301884
C118	C	0.198396	0.361496	0.198116
C119	C	-0.261521	-0.945609	-0.567663
C120	C	0.238479	-0.445609	-0.067663
C121	C	-0.261494	-0.945608	-0.633098
C122	C	0.238506	-0.445608	-0.133098
C123	C	-0.301562	-0.905519	-0.665801
C124	C	0.198438	-0.405519	-0.165801
C125	C	-0.341649	-0.865415	-0.633063
C126	C	0.158351	-0.365415	-0.133063
C127	C	-0.341670	-0.865413	-0.567629
C128	C	0.158330	-0.365413	-0.067629
C129	C	-0.357979	-0.900543	-0.769465
C130	C	0.142021	-0.400543	-0.269465
C131	C	-0.357959	-0.900550	-0.834898
C132	C	0.142041	-0.400550	-0.334898
C133	C	-0.301496	-0.905522	-0.867622
C134	C	0.198504	-0.405522	-0.367622
C135	C	-0.245052	-0.910501	-0.834905
C136	C	0.254948	-0.410501	-0.334905
C137	C	-0.245073	-0.910498	-0.769471
C138	C	0.254927	-0.410498	-0.269471
C139	C	-0.301543	-0.905516	-0.736753
C140	C	0.198457	-0.405516	-0.236753
C141	C	-0.261380	-0.945619	-0.971305
C142	C	0.238620	-0.445619	-0.471305
C143	C	-0.261352	-0.945614	-1.036742
C144	C	0.238648	-0.445614	-0.536742
C145	C	-0.341512	-0.865424	-1.036705
C146	C	0.158488	-0.365424	-0.536705
C147	C	-0.341534	-0.865426	-0.971269
C148	C	0.158466	-0.365426	-0.471269
C149	C	-0.301469	-0.905527	-0.938573
C150	C	0.198531	-0.405527	-0.438573
C151	C	-0.301591	-0.905424	-0.139080
C152	C	0.198409	-0.405424	0.360920
C153	C	-0.301419	-0.905523	-0.069440
C154	C	0.198581	-0.405523	0.430560
H155	H	-0.374274	-0.666825	-0.229013
H156	H	0.125726	-0.166825	0.270987
H157	H	-0.374196	-0.144475	-0.229053
H158	H	0.125804	0.355525	0.270947
N159	N	-0.937129	-0.824559	-0.220842
N160	N	-0.437129	-0.324559	0.279158
N161	N	-0.944509	-0.766746	-0.224951
N162	N	-0.444509	-0.266746	0.275049
H163	H	-0.920961	-0.737833	-0.196019
H164	H	-0.420961	-0.237833	0.303981
N165	N	-0.187541	-0.339732	-0.312081
N166	N	0.312459	0.160268	0.187919
N167	N	-0.187538	-0.281309	-0.312084
N168	N	0.312462	0.218691	0.187916
H169	H	-0.146818	-0.257741	-0.315730
H170	H	0.353182	0.242259	0.184270
N171	N	-1.069113	-0.986538	-0.383017
N172	N	-0.569113	-0.486538	0.116983
N173	N	-1.039832	-1.022285	-0.418816
N174	N	-0.539832	-0.522285	0.081184
H175	H	-1.063377	-1.051189	-0.447760
H176	H	-0.563377	-0.551189	0.052240
N177	N	-0.867500	-0.895617	-0.187761
N178	N	-0.367500	-0.395617	0.312239
N179	N	-0.838311	-0.891239	-0.137352
N180	N	-0.338311	-0.391239	0.362648
H181	H	-0.861930	-0.887744	-0.096618
H182	H	-0.361930	-0.387744	0.403382
N183	N	-0.533222	-0.986353	-0.382914
N184	N	-0.033222	-0.486353	0.117086
N185	N	-0.562382	-1.022122	-0.418722
N186	N	-0.062382	-0.522122	0.081278
H187	H	-0.538740	-1.051013	-0.447654
H188	H	-0.038740	-0.551013	0.052346
N189	N	-0.382619	-0.824464	-0.534182
N190	N	0.117381	-0.324464	-0.034182
N191	N	-0.382634	-0.824470	-0.475760
N192	N	0.117366	-0.324470	0.024240
H193	H	-0.411554	-0.795550	-0.452136
H194	H	0.088446	-0.295550	0.047864
N195	N	-0.220738	-0.270197	-0.383019
N196	N	0.279262	0.229803	0.116981
N197	N	-0.180788	-0.306737	-0.361040
N198	N	0.319212	0.193263	0.138960
H199	H	-0.151918	-0.330383	-0.389990
H200	H	0.348082	0.169617	0.110010
H201	H	-0.742014	-0.896546	-0.199444
H202	H	-0.242014	-0.396546	0.300556
N203	N	-0.533482	-0.824420	-0.220766
N204	N	-0.033482	-0.324420	0.279234
N205	N	-0.496964	-0.846470	-0.180854
N206	N	0.003036	-0.346470	0.319146
H207	H	-0.473407	-0.817573	-0.151913
H208	H	0.026593	-0.317573	0.348087
H209	H	-0.943646	-0.978202	-0.374674
H210	H	-0.443646	-0.478202	0.125326
N211	N	-0.220735	-0.137911	-0.383035
N212	N	0.279265	0.362089	0.116965
N213	N	-0.220731	-0.079488	-0.383033
N214	N	0.279269	0.420512	0.116967
H215	H	-0.191872	-0.055921	-0.411999
H216	H	0.308128	0.444079	0.088001
H217	H	-0.658716	-0.978087	-0.374632
H218	H	-0.158716	-0.478087	0.125368
H219	H	-0.374179	-0.832780	-0.944620
H220	H	0.125821	-0.332780	-0.444620
N221	N	-1.069403	-0.824615	-0.220863
N222	N	-0.569403	-0.324615	0.279137
N223	N	-1.127826	-0.824639	-0.220879
N224	N	-0.627826	-0.324639	0.279121
H225	H	-1.151485	-0.795753	-0.191955
H226	H	-0.651485	-0.295753	0.308045
H227	H	-0.228707	-0.978264	-1.063389
H228	H	0.271293	-0.478264	-0.563389
N229	N	-0.382507	-0.269948	-0.220722
N230	N	0.117493	0.230052	0.279278
N231	N	-0.418223	-0.240676	-0.184885
N232	N	0.081777	0.259324	0.315115
H233	H	-0.447092	-0.264228	-0.155916
H234	H	0.052908	0.235772	0.344084
N235	N	-0.415614	-0.895424	-0.868304
N236	N	0.084386	-0.395424	-0.368304
N237	N	-0.466019	-0.890946	-0.839081
N238	N	0.033981	-0.390946	-0.339081
H239	H	-0.506739	-0.887307	-0.862672
H240	H	-0.006739	-0.387307	-0.362672
N241	N	-0.382580	-0.824459	-0.666455
N242	N	0.117420	-0.324459	-0.166455
N243	N	-0.418365	-0.788657	-0.637220
N244	N	0.081635	-0.288657	-0.137220
H245	H	-0.447270	-0.759726	-0.660802
H246	H	0.052730	-0.259726	-0.160802
H247	H	-0.404049	-0.346304	-0.292726
H248	H	0.095951	0.153696	0.207274
N249	N	-0.415768	-0.471771	-0.291663
N250	N	0.084232	0.028229	0.208337
N251	N	-0.466156	-0.442502	-0.287161
N252	N	0.033844	0.057498	0.212839
H253	H	-0.506884	-0.466056	-0.283514
H254	H	-0.006884	0.033944	0.216486
H255	H	-0.374256	-0.548112	-0.229029
H256	H	0.125744	-0.048112	0.270971
H257	H	-0.741884	-0.914380	-0.404302
H258	H	-0.241884	-0.414380	0.095698
N259	N	-0.665767	-0.824468	-0.220797
N260	N	-0.165767	-0.324468	0.279203
N261	N	-0.724190	-0.824495	-0.220810
N262	N	-0.224190	-0.324495	0.279190
H263	H	-0.747849	-0.795610	-0.191886
H264	H	-0.247849	-0.295610	0.308114
H265	H	-0.860597	-0.914421	-0.404322
H266	H	-0.360597	-0.414421	0.095678
H267	H	-0.228896	-0.978262	-0.541046
H268	H	0.271104	-0.478262	-0.041046
H269	H	-0.228850	-0.978258	-0.659753
H270	H	0.271150	-0.478258	-0.159753
N271	N	-0.187417	-0.915584	-0.736061
N272	N	0.312583	-0.415584	-0.236061
N273	N	-0.137005	-0.920026	-0.765280
N274	N	0.362995	-0.420026	-0.265280
H275	H	-0.096284	-0.923616	-0.741685
H276	H	0.403716	-0.423616	-0.241685
H277	H	-0.199075	-0.914551	-0.861548
H278	H	0.300925	-0.414551	-0.361548
N279	N	-0.220450	-0.986580	-0.937912
N280	N	0.279550	-0.486580	-0.437912
N281	N	-0.184657	-1.022373	-0.967147
N282	N	0.315343	-0.522373	-0.467147
H283	H	-0.155748	-1.051302	-0.943565
H284	H	0.344252	-0.551302	-0.443565
N285	N	-0.382432	-0.824462	-1.070099
N286	N	0.117568	-0.324462	-0.570099
N287	N	-0.360384	-0.784548	-1.106592
N288	N	0.139616	-0.284548	-0.606592
H289	H	-0.389283	-0.755614	-1.130179
H290	H	0.110717	-0.255614	-0.630179
N291	N	-0.220816	-0.673822	-0.383017
N292	N	0.279184	-0.173822	0.116983
N293	N	-0.185096	-0.644653	-0.418861
N294	N	0.314904	-0.144653	0.081139
H295	H	-0.156236	-0.668288	-0.447830
H296	H	0.343764	-0.168288	0.052170
N297	N	-0.220801	-0.541566	-0.383028
N298	N	0.279199	-0.041566	0.116972
N299	N	-0.185095	-0.570834	-0.418878
N300	N	0.314905	-0.070834	0.081122
H301	H	-0.156240	-0.547280	-0.447859
H302	H	0.343760	-0.047280	0.052141
N303	N	-0.415656	-0.895499	-0.736031
N304	N	0.084344	-0.395499	-0.236031
N305	N	-0.415670	-0.895517	-0.677609
N306	N	0.084330	-0.395517	-0.177609
H307	H	-0.456403	-0.891965	-0.653996
H308	H	0.043597	-0.391965	-0.153996
H309	H	-0.199253	-0.465216	-0.311025
H310	H	0.300747	0.034784	0.188975
