data_functionalizedCrystal
_audit_creation_method	'MofGen! by Chris Wilmer'
_symmetry_space_group_name_H-M	'P1'
_symmetry_Int_Tables_number	1
_symmetry_cell_setting	triclinic
loop_
_symmetry_equiv_pos_as_xyz
  x,y,z
_cell_length_a	16.992694
_cell_length_b	10.065875
_cell_length_c	16.974959
_cell_angle_alpha	77.625590
_cell_angle_beta	87.028296
_cell_angle_gamma	99.345951
loop_
_atom_site_label
_atom_site_type_symbol
_atom_site_fract_x
_atom_site_fract_y
_atom_site_fract_z
O1	O	1.049920	0.095845	0.158443
O2	O	0.821661	0.096090	0.156580
O3	O	0.943439	0.108744	0.041586
O4	O	0.928142	0.083191	0.273436
O5	O	0.920217	-0.120668	0.063608
O6	O	0.798439	-0.133322	0.178601
O7	O	1.026697	-0.133567	0.180464
Zn8	Zn	0.908881	-0.169868	0.183029
Zn9	Zn	0.939478	0.132392	0.154015
O10	O	0.904919	-0.146221	0.295458
C11	C	0.780867	-0.018347	0.165199
C12	C	0.693911	-0.017544	0.158062
N13	N	0.888005	-0.376153	0.202831
C14	C	0.642834	-0.025133	0.226905
C15	C	0.561127	-0.024412	0.220198
C16	C	0.530500	-0.016094	0.144647
C17	C	0.581583	-0.008509	0.075800
C18	C	0.663287	-0.009239	0.082508
C19	C	0.287236	-0.013066	0.116842
C20	C	0.205526	-0.012332	0.110138
C21	C	0.185075	-0.028238	0.254537
C22	C	0.266783	-0.028959	0.261239
C23	C	0.317858	-0.021382	0.192392
N24	N	0.446983	-0.015353	0.137789
N25	N	0.401372	-0.022133	0.199252
C26	C	0.932209	-0.439318	0.160899
C27	C	0.916149	-0.598163	0.176145
C28	C	1.067492	-0.019127	0.171845
C29	C	1.154449	-0.019920	0.178981
C30	C	0.931675	-0.002674	0.022793
C31	C	0.931208	0.007123	-0.066014
N32	N	0.960360	0.338677	0.134208
C33	C	0.930025	0.075847	-0.567209
C34	C	0.930453	0.066613	-0.483762
C35	C	0.918003	-0.063057	-0.430051
C36	C	0.905131	-0.183500	-0.459791
C37	C	0.904708	-0.174265	-0.543236
C38	C	0.917913	-0.104085	-0.179199
C39	C	0.918335	-0.113311	-0.095748
C40	C	0.943659	0.136803	-0.119726
C41	C	0.943230	0.146027	-0.203172
C42	C	0.930363	0.025583	-0.232904
N43	N	0.918437	-0.072498	-0.344755
N44	N	0.929934	0.035026	-0.318200
C45	C	0.916684	-0.034800	0.314251
C46	C	0.917152	-0.044588	0.403057
H47	H	0.667764	-0.031906	0.288426
H48	H	0.894225	-0.272336	-0.567444
H49	H	0.981942	-0.375801	0.113709
H50	H	0.954135	0.234861	-0.095508
H51	H	1.010095	-0.597809	0.087015
O52	O	0.906238	-0.239390	-0.043683
C53	C	0.894756	-0.343718	-0.087816
H54	H	0.923021	-0.300318	-0.152525
H55	H	0.827899	-0.381607	-0.088671
C56	C	0.899633	-0.518431	0.032019
C57	C	0.934354	-0.465129	-0.047456
H58	H	0.924055	-0.593327	0.056916
H59	H	0.907365	-0.448145	0.061753
H60	H	0.843921	-0.549994	0.031296
H61	H	0.990063	-0.433552	-0.046731
H62	H	0.926632	-0.535414	-0.077190
H63	H	0.866408	-0.661676	0.223332
H64	H	0.143481	-0.034410	0.310588
H65	H	0.180593	-0.005556	0.048612
H66	H	0.838267	-0.439671	0.250014
H67	H	0.940157	0.181438	-0.610936
H68	H	0.940938	0.164684	-0.459557
O69	O	0.511628	-0.031730	0.287147
C70	C	0.556178	-0.039255	0.355270
H71	H	0.621810	0.005995	0.334714
H72	H	0.550596	-0.151837	0.388751
C73	C	0.443115	-0.012094	0.437473
C74	C	0.523724	0.043493	0.412226
H75	H	0.423095	0.038942	0.472608
H76	H	0.413100	-0.007030	0.391578
H77	H	0.438474	-0.105912	0.465369
H78	H	0.528363	0.137302	0.384322
H79	H	0.553740	0.038446	0.458118
O80	O	0.955281	0.271879	-0.255454
C81	C	0.952167	0.254203	-0.335483
H82	H	0.916398	0.147807	-0.334858
H83	H	1.015564	0.263213	-0.364087
C84	C	0.955377	0.497126	-0.385873
C85	C	0.911438	0.366453	-0.385106
H86	H	0.930257	0.566369	-0.416485
H87	H	0.957478	0.509036	-0.331957
H88	H	1.008205	0.504614	-0.409708
H89	H	0.858615	0.358960	-0.361261
H90	H	0.909327	0.354544	-0.439019
H91	H	0.704874	-0.003059	0.026449
O92	O	0.336739	-0.005630	0.049880
C93	C	0.292179	0.001838	-0.018236
H94	H	0.235335	0.043466	-0.006018
H95	H	0.275498	-0.105699	-0.030580
C96	C	0.412644	0.047901	-0.107476
C97	C	0.342830	0.099041	-0.092473
H98	H	0.443887	0.107855	-0.153270
H99	H	0.442665	0.042865	-0.061585
H100	H	0.398732	-0.041713	-0.117758
H101	H	0.356742	0.188645	-0.082181
H102	H	0.312812	0.104094	-0.138363
O103	O	0.905280	-0.221000	-0.208145
C104	C	0.836334	-0.223632	-0.250958
H105	H	0.824652	-0.113824	-0.272321
H106	H	0.782683	-0.289190	-0.209569
C107	C	0.863623	-0.421150	-0.298539
C108	C	0.849279	-0.286280	-0.324783
H109	H	0.871606	-0.459800	-0.344076
H110	H	0.910072	-0.419381	-0.269693
H111	H	0.818912	-0.475764	-0.264048
H112	H	0.893994	-0.231665	-0.359265
H113	H	0.802838	-0.288042	-0.353637
H114	H	0.291715	-0.035717	0.322758
H115	H	0.556638	-0.001756	0.014286
H116	H	0.894998	-0.289080	-0.416052
