data_functionalizedCrystal
_audit_creation_method	'MofGen! by Chris Wilmer'
_symmetry_space_group_name_H-M	'P1'
_symmetry_Int_Tables_number	1
_symmetry_cell_setting	triclinic
loop_
_symmetry_equiv_pos_as_xyz
  x,y,z
_cell_length_a	12.759400
_cell_length_b	19.077312
_cell_length_c	12.759393
_cell_angle_alpha	92.276336
_cell_angle_beta	89.970739
_cell_angle_gamma	87.719933
loop_
_atom_site_label
_atom_site_type_symbol
_atom_site_fract_x
_atom_site_fract_y
_atom_site_fract_z
Zn1	Zn	-0.482647	1.076018	-0.529508
Zn2	Zn	-0.658358	1.075947	-0.353837
Zn3	Zn	-0.475651	0.958319	-0.360901
Zn4	Zn	-0.651237	0.958314	-0.536527
O5	O	-0.566973	1.017150	-0.445193
O6	O	-0.511864	1.174496	-0.500311
O7	O	-0.634174	1.060315	-0.207754
O8	O	-0.329560	0.973963	-0.383286
O9	O	-0.640959	1.174444	-0.371246
O10	O	-0.334700	1.060437	-0.507161
O11	O	-0.499940	0.973894	-0.212945
O12	O	-0.493034	0.859831	-0.390092
O13	O	-0.628820	0.973956	-0.682616
O14	O	-0.622036	0.859828	-0.519124
O15	O	-0.504958	1.060433	-0.677459
O16	O	-0.804433	1.060311	-0.378052
O17	O	-0.799200	0.973887	-0.512274
C18	C	-0.556004	0.834293	-0.456137
C19	C	-0.551336	0.756066	-0.460844
C20	C	-0.839938	1.017110	-0.445180
C21	C	-0.956718	1.017157	-0.445205
C22	C	-0.517775	0.315734	-0.494612
C23	C	-0.522181	0.389236	-0.490184
C24	C	-0.591485	0.425951	-0.420663
C25	C	-0.656396	0.389160	-0.355575
C26	C	-0.651996	0.315659	-0.360009
C27	C	-0.611847	0.645773	-0.400189
C28	C	-0.616240	0.719279	-0.395758
C29	C	-0.482025	0.719351	-0.530369
C30	C	-0.477626	0.645848	-0.534793
C31	C	-0.542541	0.609063	-0.469708
N32	N	-0.595987	0.501083	-0.416133
N33	N	-0.538044	0.533933	-0.474244
C34	C	-1.123904	1.062199	-0.509786
C35	C	-1.014178	1.062163	-0.509764
C36	C	-1.008989	0.972190	-0.380656
C37	C	-1.118714	0.972230	-0.380673
C38	C	-0.292943	1.017209	-0.445229
C39	C	-0.176168	1.017234	-0.445244
C40	C	-0.566875	1.017202	-0.719224
C41	C	-0.566834	1.017225	-0.835999
C42	C	-0.577986	1.200720	-0.434208
C43	C	-0.582679	1.278948	-0.429526
C44	C	-0.502328	1.062256	-0.888177
C45	C	-0.502284	1.062268	-0.997901
C46	C	-0.631259	0.972215	-1.003258
C47	C	-0.631297	0.972200	-0.893537
C48	C	-0.566997	1.017138	-0.172227
C49	C	-0.566751	1.017251	-0.055444
H50	H	-0.461334	0.285846	-0.551217
H51	H	-0.683745	0.935559	-1.050118
C52	C	-1.187106	1.111704	-0.580801
H53	H	-1.259940	1.105286	-0.571577
H54	H	-1.171910	1.158990	-0.562648
H55	H	-1.168467	1.101370	-0.651998
H56	H	-0.704850	0.285708	-0.307011
H57	H	-0.971628	1.098779	-0.562319
C58	C	-0.450792	0.429702	-0.561780
H59	H	-0.463347	0.478735	-0.549196
H60	H	-0.379460	0.417665	-0.547258
H61	H	-0.465545	0.417678	-0.633071
C62	C	-0.683238	0.605318	-0.328586
H63	H	-0.725131	0.637713	-0.286540
H64	H	-0.727354	0.576653	-0.370416
H65	H	-0.641265	0.576635	-0.284607
C66	C	-0.431333	1.111806	-1.055292
H67	H	-0.392955	1.138621	-1.005307
H68	H	-0.383922	1.084904	-1.099708
H69	H	-0.473357	1.142469	-1.096257
H70	H	-0.421195	0.615960	-0.591407
H71	H	-0.683824	0.935525	-0.851053
H72	H	-0.962199	0.935548	-0.328085
H73	H	-0.449835	1.098916	-0.841333
C74	C	-0.410636	0.759816	-0.601966
H75	H	-0.423187	0.808849	-0.589378
H76	H	-0.339305	0.747775	-0.587446
H77	H	-0.425393	0.747794	-0.673256
C78	C	-0.692495	0.759664	-0.319298
H79	H	-0.730537	0.727230	-0.281181
H80	H	-0.653977	0.788328	-0.271857
H81	H	-0.740032	0.788343	-0.357701
H82	H	-1.161268	0.935613	-0.328110
H83	H	-0.712830	0.419059	-0.298974
