data_functionalizedCrystal
_audit_creation_method	'MofGen! by Chris Wilmer'
_symmetry_space_group_name_H-M	'P1'
_symmetry_Int_Tables_number	1
_symmetry_cell_setting	triclinic
loop_
_symmetry_equiv_pos_as_xyz
  x,y,z
_cell_length_a	19.288840
_cell_length_b	13.185407
_cell_length_c	17.766277
_cell_angle_alpha	89.992547
_cell_angle_beta	89.983415
_cell_angle_gamma	67.549750
loop_
_atom_site_label
_atom_site_type_symbol
_atom_site_fract_x
_atom_site_fract_y
_atom_site_fract_z
O1	O	0.896205	0.136038	-0.062715
O2	O	1.396205	0.636038	0.437285
O3	O	0.690540	0.154435	-0.062688
O4	O	1.190540	0.654435	0.437312
O5	O	0.828609	-0.013690	-0.062703
O6	O	1.328609	0.486310	0.437297
O7	O	0.758136	0.304163	-0.062699
O8	O	1.258136	0.804163	0.437301
O9	O	0.828592	-0.013699	0.062485
O10	O	1.328592	0.486301	0.562485
O11	O	0.690522	0.154427	0.062501
O12	O	1.190522	0.654427	0.562501
O13	O	0.896188	0.136029	0.062474
O14	O	1.396188	0.636029	0.562474
Cu15	Cu	0.793354	0.145227	0.073918
Cu16	Cu	1.293354	0.645227	0.573918
Cu17	Cu	0.793374	0.145237	-0.074132
Cu18	Cu	1.293374	0.645237	0.425868
O19	O	0.758119	0.304155	0.062489
O20	O	1.258119	0.804155	0.562489
C21	C	0.664763	0.153844	-0.000090
C22	C	1.164763	0.653844	0.499910
C23	C	0.587985	0.152080	-0.000080
C24	C	1.087985	0.652080	0.499920
C25	C	0.551947	0.151238	-0.068322
C26	C	1.051947	0.651238	0.431678
C27	C	0.479809	0.149569	-0.068332
C28	C	0.979809	0.649569	0.431668
C29	C	0.443717	0.148720	-0.000095
C30	C	0.943717	0.648720	0.499905
C31	C	0.479761	0.149569	0.068156
C32	C	0.979761	0.649569	0.568156
C33	C	0.551895	0.151249	0.068164
C34	C	1.051895	0.651249	0.568164
C35	C	0.346698	0.082120	0.052173
C36	C	0.846698	0.582120	0.552173
C37	C	0.274568	0.080434	0.052163
C38	C	0.774568	0.580434	0.552163
C39	C	0.221230	0.143544	-0.000115
C40	C	0.721230	0.643544	0.499885
C41	C	0.240037	0.208327	-0.052394
C42	C	0.740037	0.708327	0.447606
C43	C	0.312171	0.210007	-0.052387
C44	C	0.812171	0.710007	0.447613
C45	C	0.365499	0.146900	-0.000095
C46	C	0.865499	0.646900	0.499905
C47	C	0.106972	0.140893	-0.068371
C48	C	0.606972	0.640893	0.431629
C49	C	0.034831	0.139231	-0.068378
C50	C	0.534831	0.639231	0.431622
C51	C	0.034788	0.139220	0.068112
C52	C	0.534788	0.639220	0.568112
C53	C	0.106925	0.140894	0.068117
C54	C	0.606925	0.640894	0.568117
C55	C	0.143014	0.141725	-0.000127
C56	C	0.643014	0.641725	0.499873
C57	C	0.835745	-0.054359	-0.000111
C58	C	1.335745	0.445641	0.499889
C59	C	0.857025	-0.175527	-0.000116
C60	C	1.357025	0.324473	0.499884
C61	C	0.653936	-0.463755	-0.000097
C62	C	1.153936	0.036245	0.499903
C63	C	0.633940	-0.349912	-0.000099
C64	C	1.133940	0.150088	0.499901
C65	C	0.689709	-0.306310	-0.000103
C66	C	1.189709	0.193690	0.499897
C67	C	0.765478	-0.376563	-0.000105
C68	C	1.265478	0.123437	0.499895
C69	C	0.785476	-0.490418	-0.000109
C70	C	1.285476	0.009582	0.499891
C71	C	0.821250	-0.332972	-0.000115
C72	C	1.321250	0.167028	0.499885
C73	C	0.897018	-0.403225	-0.000118
C74	C	1.397018	0.096775	0.499882
C75	C	0.917013	-0.517069	-0.000121
C76	C	1.417013	-0.017069	0.499879
C77	C	0.861243	-0.560671	-0.000117
C78	C	1.361243	-0.060671	0.499883
C79	C	0.801252	-0.219117	-0.000112
C80	C	1.301252	0.280883	0.499888
C81	C	0.932792	-0.245780	-0.000124
C82	C	1.432792	0.254220	0.499876
C83	C	0.952788	-0.359623	-0.000122
C84	C	1.452788	0.140377	0.499878
C85	C	0.921965	0.136621	-0.000125
C86	C	1.421965	0.636621	0.499875
C87	C	0.998743	0.138384	-0.000140
C88	C	1.498743	0.638384	0.499860
C89	C	0.750983	0.344824	-0.000105
C90	C	1.250983	0.844824	0.499895
C91	C	0.729703	0.465992	-0.000104
C92	C	1.229703	0.965992	0.499896
N93	N	0.793345	0.145220	0.178048
N94	N	1.293345	0.645220	0.678048
N95	N	0.793390	0.145237	-0.178262
N96	N	1.293390	0.645237	0.321738
C97	C	0.854490	0.070810	0.217428
C98	C	1.354490	0.570810	0.717428
C99	C	0.854495	0.070805	0.296230
C100	C	1.354495	0.570805	0.796230
C101	C	0.793358	0.145228	0.335649
C102	C	1.293358	0.645228	0.835649
C103	C	0.732202	0.219644	0.296259
C104	C	1.232202	0.719644	0.796259
C105	C	0.732196	0.219639	0.217459
C106	C	1.232196	0.719639	0.717459
C107	C	0.765665	0.244686	0.460489
C108	C	1.265665	0.744686	0.960489
C109	C	0.765676	0.244692	0.539288
C110	C	1.265676	0.744692	1.039288
C111	C	0.793374	0.145241	0.578695
C112	C	1.293374	0.645241	1.078695
C113	C	0.821076	0.045781	0.539294
C114	C	1.321076	0.545781	1.039294
C115	C	0.821069	0.045777	0.460494
C116	C	1.321069	0.545777	0.960494
C117	C	0.793358	0.145241	0.421095
C118	C	1.293358	0.645241	0.921095
C119	C	0.854528	0.070820	0.703521
C120	C	1.354528	0.570820	1.203521
C121	C	0.854529	0.070814	0.782324
C122	C	1.354529	0.570814	1.282324
C123	C	0.732237	0.219662	0.782352
C124	C	1.232237	0.719662	1.282352
C125	C	0.732235	0.219659	0.703550
C126	C	1.232235	0.719659	1.203550
C127	C	0.793384	0.145239	0.664140
C128	C	1.293384	0.645239	1.164140
H129	H	0.136354	0.141582	-0.123940
H130	H	0.636354	0.641582	0.376060
F131	F	-0.003622	0.138327	0.140736
F132	F	0.496378	0.638327	0.640736
H133	H	1.014480	-0.416839	-0.000124
H134	H	1.514480	0.083161	0.499876
F135	F	0.441447	0.148672	-0.140967
F136	F	0.941447	0.648672	0.359033
F137	F	0.992150	-0.199382	-0.000132
F138	F	1.492150	0.300618	0.499868
H139	H	0.608537	-0.499268	-0.000099
H140	H	1.108537	0.000732	0.499901
F141	F	0.667167	0.298862	0.824300
F142	F	1.167167	0.798862	1.324300
F143	F	0.667158	0.298861	0.661636
F144	F	1.167158	0.798861	1.161636
F145	F	0.850546	-0.060073	0.418563
F146	F	1.350546	0.439927	0.918563
H147	H	0.978708	-0.574267	-0.000130
H148	H	1.478708	-0.074267	0.499870
H149	H	0.743124	0.325678	0.571362
H150	H	1.243124	0.825678	1.071362
H151	H	0.904280	0.010211	0.185343
H152	H	1.404280	0.510211	0.685343
F153	F	0.736233	0.350544	0.418556
F154	F	1.236233	0.850544	0.918556
H155	H	0.904289	0.010209	0.328299
H156	H	1.404289	0.510209	0.828299
H157	H	0.581326	0.151915	-0.123892
H158	H	1.081326	0.651915	0.376108
H159	H	0.904320	0.010215	0.814388
H160	H	1.404320	0.510215	1.314388
F161	F	0.667114	0.298840	0.175546
F162	F	1.167114	0.798840	0.675546
F163	F	0.145281	0.141784	0.140750
F164	F	0.645281	0.641784	0.640750
H165	H	0.259264	0.027678	0.094728
H166	H	0.759264	0.527678	0.594728
F167	F	0.332183	0.278954	-0.108023
F168	F	0.832183	0.778954	0.391977
F169	F	0.553305	-0.275152	-0.000102
F170	F	1.053305	0.224848	0.499898
H171	H	0.390122	0.030726	0.094747
H172	H	0.890122	0.530726	0.594747
F173	F	0.667133	0.298847	0.338212
F174	F	1.167133	0.798847	0.838212
H175	H	0.843630	-0.035201	0.571378
H176	H	1.343630	0.464799	1.071378
F177	F	0.720615	-0.144362	-0.000109
F178	F	1.220615	0.355638	0.499891
F179	F	0.882521	-0.681837	-0.000110
F180	F	1.382521	-0.181837	0.499890
H181	H	0.196609	0.259722	-0.094961
H182	H	0.696609	0.759722	0.405039
F183	F	-0.003525	0.138343	-0.141015
F184	F	0.496475	0.638343	0.358985
H185	H	0.904318	0.010220	0.671432
H186	H	1.404318	0.510220	1.171432
H187	H	0.581236	0.151936	0.123736
H188	H	1.081236	0.651936	0.623736
F189	F	0.441347	0.148672	0.140779
F190	F	0.941347	0.648672	0.640779
F191	F	0.668426	-0.185146	-0.000105
F192	F	1.168426	0.314854	0.499895
