data_functionalizedCrystal
_audit_creation_method	'MofGen! by Chris Wilmer'
_symmetry_space_group_name_H-M	'P1'
_symmetry_Int_Tables_number	1
_symmetry_cell_setting	triclinic
loop_
_symmetry_equiv_pos_as_xyz
  x,y,z
_cell_length_a	13.635800
_cell_length_b	27.923496
_cell_length_c	17.982968
_cell_angle_alpha	83.146205
_cell_angle_beta	77.548040
_cell_angle_gamma	98.963946
loop_
_atom_site_label
_atom_site_type_symbol
_atom_site_fract_x
_atom_site_fract_y
_atom_site_fract_z
V1	V	-1.996400	-0.067581	0.238033
O2	O	-2.001869	0.002780	0.233007
O3	O	-1.961320	-0.133552	0.236882
O4	O	-1.969791	-0.066746	0.341630
O5	O	-1.993340	-0.064488	0.127533
V6	V	-2.239936	-0.059141	0.224759
O7	O	-2.123137	-0.086095	0.267152
O8	O	-2.338297	-0.040626	0.195640
O9	O	-2.163412	0.006830	0.225910
O10	O	-2.293165	-0.129501	0.229786
O11	O	-2.301694	-0.062234	0.335259
O12	O	-2.154941	-0.059975	0.121162
V13	V	-1.496400	-0.067581	0.238033
O14	O	-1.501869	0.002780	0.233007
O15	O	-1.461320	-0.133552	0.236882
O16	O	-1.469791	-0.066746	0.341630
O17	O	-1.493340	-0.064488	0.127533
V18	V	-1.739936	-0.059141	0.224759
O19	O	-1.623137	-0.086095	0.267152
O20	O	-1.838297	-0.040626	0.195640
O21	O	-1.663412	0.006830	0.225910
O22	O	-1.793165	-0.129501	0.229786
O23	O	-1.801694	-0.062234	0.335259
O24	O	-1.654941	-0.059975	0.121162
C25	C	-1.881252	-0.149627	0.233250
C26	C	-1.893198	-0.203561	0.232999
C27	C	-2.057958	-0.540493	0.235346
C28	C	-2.102918	-0.743200	0.234440
O29	O	-2.185751	-0.771522	0.237604
N30	N	-2.017983	-0.766068	0.230503
C31	C	-1.921802	-0.738255	0.226799
O32	O	-1.850594	-0.762357	0.223438
C33	C	-1.876845	-0.535550	0.227711
C34	C	-1.961785	-0.512684	0.231640
C35	C	-2.142890	-0.517628	0.239275
C36	C	-2.131649	-0.466953	0.239498
C37	C	-2.035476	-0.439145	0.235791
C38	C	-1.950543	-0.462010	0.231862
C39	C	-1.780667	-0.507739	0.224012
C40	C	-1.769436	-0.457060	0.224242
C41	C	-1.854375	-0.434194	0.228171
C42	C	-1.843129	-0.383527	0.228378
N43	N	-1.928063	-0.360660	0.232314
C44	C	-2.024237	-0.388469	0.236021
C45	C	-1.945412	-0.844679	0.226319
C46	C	-1.956650	-0.895355	0.226089
C47	C	-2.137766	-0.900297	0.233731
C48	C	-2.126525	-0.849619	0.233955
C49	C	-2.030346	-0.821812	0.230255
C50	C	-2.000622	-0.282049	0.236487
C51	C	-1.989371	-0.231370	0.236706
C52	C	-1.808259	-0.226433	0.229068
C53	C	-1.819507	-0.277107	0.228845
C54	C	-1.915697	-0.304914	0.232557
O55	O	-1.760331	-0.355176	0.225224
O56	O	-2.095436	-0.364359	0.239398
C57	C	-2.069199	-0.591167	0.235124
C58	C	-1.984267	-0.614033	0.231195
C59	C	-1.888094	-0.586224	0.227488
C60	C	-1.995506	-0.664709	0.230965
C61	C	-2.091679	-0.692518	0.234672
C62	C	-2.176614	-0.669650	0.238608
C63	C	-2.165373	-0.618976	0.238831
C64	C	-1.803159	-0.609091	0.223552
C65	C	-1.814407	-0.659766	0.223329
C66	C	-1.910581	-0.687574	0.227036
C67	C	-1.892057	-0.064410	0.366866
C68	C	-1.910871	-0.064165	0.451560
C69	C	-2.075151	0.022903	0.229540
C70	C	-2.052824	0.076836	0.229796
C71	C	-2.064346	-0.062313	0.095922
C72	C	-2.035152	-0.062556	0.011227
C73	C	-1.381252	-0.149627	0.233250
C74	C	-1.393198	-0.203561	0.232999
C75	C	-1.392057	-0.064410	0.366866
C76	C	-1.410871	-0.064165	0.451560
C77	C	-2.010269	-0.066480	0.495249
C78	C	-2.027941	-0.066249	0.574828
C79	C	-1.946215	-0.063706	0.610718
C80	C	-1.846808	-0.061388	0.567023
C81	C	-1.829136	-0.061616	0.487445
C82	C	-1.918073	-0.060470	0.887954
C83	C	-1.935753	-0.060244	0.967538
C84	C	-2.116878	-0.065103	0.975336
C85	C	-2.099206	-0.065330	0.895758
C86	C	-1.999801	-0.063010	0.852070
C87	C	-1.980640	-0.063260	0.765781
C88	C	-1.965375	-0.063460	0.697006
C89	C	-1.575151	0.022903	0.229540
C90	C	-1.552824	0.076836	0.229796
C91	C	-1.564346	-0.062313	0.095922
C92	C	-1.535152	-0.062556	0.011227
C93	C	-1.489371	-0.231370	0.236706
C94	C	-1.500613	-0.282047	0.236482
C95	C	-1.415678	-0.304914	0.232546
C96	C	-1.319497	-0.277102	0.228841
C97	C	-1.308258	-0.226426	0.229071
C98	C	-1.510275	-0.066476	0.495234
C99	C	-1.527965	-0.066238	0.574813
C100	C	-1.446251	-0.063694	0.610716
C101	C	-1.346839	-0.061381	0.567036
C102	C	-1.329149	-0.061615	0.487458
C103	C	-1.629144	0.104645	0.226091
C104	C	-1.608174	0.155322	0.226319
C105	C	-1.510886	0.178189	0.230257
C106	C	-1.434560	0.150377	0.233959
C107	C	-1.455528	0.099702	0.233726
C108	C	-1.434636	-0.065095	-0.024657
C109	C	-1.407188	-0.065318	-0.104238
C110	C	-1.480259	-0.063005	-0.147933
C111	C	-1.580783	-0.060464	-0.112044
C112	C	-1.608228	-0.060238	-0.032465
H113	H	-2.058543	-0.212755	0.239902
H114	H	-1.608918	-0.068124	0.610367
H115	H	-1.869195	-0.058171	0.996757
H116	H	-1.558540	-0.212757	0.239906
F117	F	-1.732694	0.080317	0.221900
H118	H	-1.457901	-0.063195	-0.212728
F119	F	-2.133734	-0.068719	0.621322
H120	H	-2.078948	-0.304684	0.239511
F121	F	-2.222676	-0.067570	1.021838
F122	F	-1.427654	-0.358849	0.232301
H123	H	-2.165759	-0.067404	0.866541
H124	H	-2.221209	-0.540265	0.242297
F125	F	-1.658543	-0.058006	-0.158557
H126	H	-1.460669	-0.063504	0.675514
H127	H	-1.248203	-0.059734	0.451904
F128	F	-2.216930	-0.825289	0.238139
H129	H	-1.250348	-0.295728	0.225637
F130	F	-2.222054	-0.442624	0.243673
F131	F	-2.240124	-0.929901	0.237678
F132	F	-1.705905	-0.196827	0.225115
H133	H	-1.325332	-0.067387	-0.133446
F134	F	-1.488585	0.232124	0.230504
F135	F	-1.259883	-0.058678	0.605259
H136	H	-1.837139	-0.058598	0.852396
H137	H	-1.887480	-0.913966	0.222880
F138	F	-1.205892	-0.196834	0.225119
H139	H	-1.711496	-0.526346	0.220807
F140	F	-1.759828	-0.058681	0.605222
F141	F	-1.723343	-0.059148	0.440948
H142	H	-1.690080	-0.058173	-0.003255
F143	F	-1.689420	0.184912	0.222379
F144	F	-1.331020	0.174722	0.238146
F145	F	-1.374290	0.070110	0.237672
F146	F	-1.356851	-0.067557	0.021833
H147	H	-1.576823	-0.068549	0.466013
F148	F	-1.843040	-0.815090	0.222377
F149	F	-1.729105	-0.301443	0.224660
F150	F	-1.667068	-0.427468	0.220306
H151	H	-2.234541	-0.600364	0.242029
H152	H	-2.254922	-0.692300	0.241619
F153	F	-1.723992	-0.684094	0.219139
F154	F	-1.602982	-0.311638	0.240422
H155	H	-2.076824	-0.068555	0.466034
F156	F	-1.700794	-0.579501	0.219606
