data_functionalizedCrystal
_audit_creation_method	'MofGen! by Chris Wilmer'
_symmetry_space_group_name_H-M	'P1'
_symmetry_Int_Tables_number	1
_symmetry_cell_setting	triclinic
loop_
_symmetry_equiv_pos_as_xyz
  x,y,z
_cell_length_a	19.077236
_cell_length_b	16.959453
_cell_length_c	19.076929
_cell_angle_alpha	87.731693
_cell_angle_beta	90.110372
_cell_angle_gamma	92.312753
loop_
_atom_site_label
_atom_site_type_symbol
_atom_site_fract_x
_atom_site_fract_y
_atom_site_fract_z
Zn1	Zn	1.058294	-0.286903	0.440539
Zn2	Zn	1.062948	-0.413581	0.323032
Zn3	Zn	0.945515	-0.286496	0.318319
Zn4	Zn	0.940764	-0.424120	0.435770
O5	O	1.001880	-0.352775	0.379415
O6	O	1.157245	-0.299468	0.428919
O7	O	1.051306	-0.392142	0.224076
O8	O	0.960516	-0.175938	0.334556
O9	O	1.160664	-0.392537	0.342587
O10	O	1.043375	-0.176238	0.424350
O11	O	0.965028	-0.298773	0.220614
O12	O	0.846551	-0.308992	0.329931
O13	O	0.952418	-0.410500	0.534733
O14	O	0.843061	-0.410104	0.416221
O15	O	1.038768	-0.309687	0.538237
O16	O	1.046699	-0.525591	0.337963
O17	O	0.956931	-0.533334	0.420791
C18	C	0.819309	-0.360648	0.372048
C19	C	0.741204	-0.364036	0.368913
C20	C	0.702728	-0.317254	0.412457
C21	C	0.629340	-0.320433	0.409505
C22	C	0.594429	-0.370399	0.363012
C23	C	0.632910	-0.417182	0.319463
C24	C	0.706297	-0.413998	0.322412
C25	C	0.375137	-0.385104	0.349363
C26	C	0.301745	-0.388286	0.346419
C27	C	0.298179	-0.291536	0.436460
C28	C	0.371567	-0.288360	0.439408
C29	C	0.410043	-0.335140	0.395856
N30	N	0.519414	-0.373651	0.359995
N31	N	0.485056	-0.331883	0.398870
C32	C	1.001823	-0.558143	0.379387
C33	C	1.001861	-0.645998	0.379401
C34	C	1.045079	-1.017573	0.426258
C35	C	0.958874	-1.017371	0.332684
C36	C	0.958848	-0.934826	0.332667
C37	C	1.001938	-0.893650	0.379447
C38	C	1.045053	-0.935020	0.426243
C39	C	0.915728	-0.893450	0.285876
C40	C	0.915701	-0.810900	0.285857
C41	C	0.958795	-0.769722	0.332634
C42	C	1.001912	-0.811097	0.379432
C43	C	1.045002	-0.769921	0.426212
C44	C	1.088124	-0.811294	0.473007
C45	C	1.088147	-0.893842	0.473020
C46	C	0.958771	-0.687174	0.332621
C47	C	1.044977	-0.687368	0.426198
C48	C	1.185164	-0.344872	0.386811
C49	C	1.263269	-0.341505	0.389963
C50	C	0.994544	-0.361314	0.562694
C51	C	0.991418	-0.364953	0.640796
C52	C	1.001956	-0.146606	0.379459
C53	C	1.001989	-0.058748	0.379478
C54	C	1.009228	-0.344211	0.196851
C55	C	1.012490	-0.340343	0.118754
C56	C	0.969001	-0.391115	1.080235
C57	C	0.971935	-0.387684	1.006849
C58	C	1.018364	-0.333485	0.971984
C59	C	1.061855	-0.282708	1.010509
C60	C	1.058916	-0.286136	1.083893
C61	C	1.031971	-0.317604	0.752705
C62	C	1.034908	-0.314182	0.679315
C63	C	0.944986	-0.419157	0.675661
C64	C	0.942055	-0.422582	0.749047
C65	C	0.985544	-0.371803	0.787565
N66	N	1.021366	-0.329979	0.896972
N67	N	0.982537	-0.375306	0.862575
H68	H	1.080069	-0.653848	0.464289
N69	N	1.085002	-0.255748	0.641699
H70	H	1.057695	-0.218929	0.610093
H71	H	1.118747	-0.285142	0.612612
H72	H	1.123254	-0.927535	0.511119
N73	N	1.105825	-0.231382	1.125446
H74	H	1.076061	-0.197404	1.154750
H75	H	1.135678	-0.196577	1.092184
H76	H	1.080190	-1.051262	0.464356
H77	H	1.123205	-0.777760	0.511099
H78	H	0.923789	-1.050901	0.294601
N79	N	0.918928	-0.449577	1.117837
H80	H	0.891823	-0.481218	1.082296
H81	H	0.885203	-0.420225	1.146982
N82	N	0.256686	-0.241070	0.483423
H83	H	0.267455	-0.255214	0.534123
H84	H	0.204913	-0.250683	0.474443
H85	H	0.604480	-0.457861	0.281604
H86	H	0.731146	-0.276569	0.450318
N87	N	0.898070	-0.473914	0.634121
H88	H	0.908445	-0.530518	0.647315
H89	H	0.906992	-0.463455	0.582355
N90	N	1.078863	-0.262824	0.794243
H91	H	1.108717	-0.227969	0.761019
H92	H	1.110154	-0.295004	0.826003
H93	H	0.598015	-0.282341	0.444965
H94	H	0.880645	-0.926982	0.247792
N95	N	0.747800	-0.464450	0.275443
H96	H	0.714550	-0.496587	0.245543
H97	H	0.777108	-0.501089	0.305209
H98	H	0.880590	-0.777219	0.247754
H99	H	0.904248	-0.466717	0.777428
N100	N	0.912263	-0.642550	0.282161
H101	H	0.884967	-0.681161	0.252531
H102	H	0.942181	-0.605542	0.250812
H103	H	0.936529	-0.429036	0.975490
N104	N	1.111948	-0.224266	0.972909
H105	H	1.107219	-0.229807	0.920576
H106	H	1.161607	-0.235030	0.987771
H107	H	0.406455	-0.423196	0.313901
H108	H	0.273323	-0.428978	0.308558
N109	N	0.409220	-0.234472	0.489556
H110	H	0.373709	-0.205318	0.516694
H111	H	0.440814	-0.195192	0.462236
