data_functionalizedCrystal
_audit_creation_method	'MofGen! by Chris Wilmer'
_symmetry_space_group_name_H-M	'P1'
_symmetry_Int_Tables_number	1
_symmetry_cell_setting	triclinic
loop_
_symmetry_equiv_pos_as_xyz
  x,y,z
_cell_length_a	17.699097
_cell_length_b	14.044190
_cell_length_c	16.176319
_cell_angle_alpha	90.005109
_cell_angle_beta	90.010997
_cell_angle_gamma	88.240103
loop_
_atom_site_label
_atom_site_type_symbol
_atom_site_fract_x
_atom_site_fract_y
_atom_site_fract_z
O1	O	1.012347	0.119902	0.068825
O2	O	0.793045	0.135482	0.068813
O3	O	0.899401	-0.010285	0.068803
O4	O	0.905990	0.265669	0.068835
O5	O	0.899384	-0.010277	-0.068691
O6	O	0.793028	0.135490	-0.068680
O7	O	1.012330	0.119910	-0.068668
Cu8	Cu	0.902677	0.127701	-0.081228
Cu9	Cu	0.902697	0.127691	0.081373
O10	O	0.905973	0.265677	-0.068658
C11	C	0.764801	0.134925	0.000065
C12	C	0.680667	0.133244	0.000059
C13	C	0.896510	-0.045589	0.000053
C14	C	0.887912	-0.150796	0.000046
C15	C	0.164247	0.122935	0.075039
C16	C	0.243300	0.124508	0.075035
C17	C	0.282811	0.125301	0.000084
C18	C	0.243266	0.124510	-0.074868
C19	C	0.164215	0.122930	-0.074863
C20	C	0.562069	0.130881	-0.074889
C21	C	0.641126	0.132464	-0.074888
C22	C	0.641154	0.132459	0.075009
C23	C	0.562103	0.130879	0.075014
C24	C	0.522565	0.130083	0.000063
C25	C	0.436847	0.128376	0.000068
C26	C	0.368527	0.127015	0.000078
C27	C	0.933172	-0.401184	0.000081
C28	C	0.872205	-0.343418	0.000072
C29	C	0.880947	-0.236234	0.000057
C30	C	0.924432	-0.508379	0.000095
C31	C	1.040574	0.120467	0.000082
C32	C	1.124707	0.122148	0.000093
C33	C	0.908864	0.300981	0.000093
C34	C	0.917462	0.406188	0.000106
N35	N	0.902668	0.127707	-0.195594
C36	C	0.949814	0.063155	-0.760981
C37	C	0.949811	0.063162	-0.674434
C38	C	0.902701	0.127687	-0.631169
C39	C	0.855597	0.192216	-0.674456
C40	C	0.855604	0.192214	-0.761001
C41	C	0.855567	0.192230	-0.325428
C42	C	0.855561	0.192226	-0.238876
C43	C	0.949774	0.063178	-0.238860
C44	C	0.949781	0.063175	-0.325405
C45	C	0.902680	0.127707	-0.368685
C46	C	0.902685	0.127701	-0.462529
C47	C	0.902692	0.127690	-0.537326
N48	N	0.902711	0.127678	0.195738
H49	H	0.132083	0.122297	0.136073
N50	N	1.011004	-0.360071	0.000059
H51	H	1.039450	-0.382200	0.051027
H52	H	1.006227	-0.288226	0.000014
N53	N	0.519487	0.130014	0.155852
H54	H	0.484519	0.188084	0.159205
H55	H	0.556579	0.130712	0.203284
H56	H	0.673356	0.133102	0.136038
H57	H	0.813445	-0.374462	0.000073
H58	H	0.988166	0.010623	-0.639195
H59	H	0.988140	0.010630	-0.360629
H60	H	0.988173	0.010607	-0.796201
N61	N	1.000570	-0.006438	-0.192180
H62	H	0.993419	0.003349	-0.130789
H63	H	1.054997	0.004412	-0.207288
H64	H	0.817197	0.244773	-0.203651
H65	H	0.817214	0.244772	-0.360659
N66	N	0.804787	0.261816	-0.627796
H67	H	0.811926	0.252026	-0.566402
H68	H	0.750366	0.250947	-0.642944
H69	H	0.275442	0.125150	-0.135894
N70	N	0.804792	0.261798	-0.807684
H71	H	0.811946	0.252008	-0.869075
H72	H	0.818070	0.329020	-0.792548
N73	N	0.285948	0.125345	0.155869
H74	H	0.248922	0.124606	0.203350
H75	H	0.316584	0.184725	0.159143
N76	N	0.683738	0.133318	-0.155735
H77	H	0.672148	0.074314	-0.188504
H78	H	0.739801	0.134481	-0.144295
N79	N	0.519427	0.130025	-0.155723
H80	H	0.556475	0.130100	-0.203203
H81	H	0.484845	0.188438	-0.159233
N82	N	0.121566	0.122075	-0.155698
H83	H	0.158615	0.122153	-0.203178
H84	H	0.086980	0.180485	-0.159210
