data_functionalizedCrystal
_audit_creation_method	'MofGen! by Chris Wilmer'
_symmetry_space_group_name_H-M	'P1'
_symmetry_Int_Tables_number	1
_symmetry_cell_setting	triclinic
loop_
_symmetry_equiv_pos_as_xyz
  x,y,z
_cell_length_a	12.759395
_cell_length_b	10.686285
_cell_length_c	10.686551
_cell_angle_alpha	80.915481
_cell_angle_beta	85.605421
_cell_angle_gamma	85.633293
loop_
_atom_site_label
_atom_site_type_symbol
_atom_site_fract_x
_atom_site_fract_y
_atom_site_fract_z
Zn1	Zn	1.678452	-0.450115	-0.678973
Zn2	Zn	1.678367	-0.678695	-0.450471
Zn3	Zn	1.490236	-0.466474	-0.466739
Zn4	Zn	1.515278	-0.662317	-0.662677
O5	O	1.590583	-0.564400	-0.564715
O6	O	1.825463	-0.480445	-0.648673
O7	O	1.642895	-0.664244	-0.274998
O8	O	1.504758	-0.286682	-0.508520
O9	O	1.825401	-0.648381	-0.480793
O10	O	1.643040	-0.274663	-0.664448
O11	O	1.504676	-0.508327	-0.286950
O12	O	1.346535	-0.492445	-0.492719
O13	O	1.547440	-0.620467	-0.842469
O14	O	1.364934	-0.636330	-0.636674
O15	O	1.667323	-0.464564	-0.854441
O16	O	1.667178	-0.854145	-0.464992
O17	O	1.547357	-0.842112	-0.620900
C18	C	1.610006	-0.894182	-0.539440
C19	C	1.618414	-1.035260	-0.528670
C20	C	1.317614	-0.564387	-0.564694
C21	C	1.200840	-0.564409	-0.564713
C22	C	1.220037	-0.714519	-0.714331
C23	C	1.174775	-0.789584	-0.789143
C24	C	1.065055	-0.789598	-0.789158
C25	C	1.000594	-0.714536	-0.714355
C26	C	1.045855	-0.639472	-0.639543
C27	C	1.155578	-0.639469	-0.639534
C28	C	1.026658	-0.489357	-0.489934
C29	C	1.136378	-0.489348	-0.489910
C30	C	0.962196	-0.414295	-0.415131
C31	C	1.007457	-0.339236	-0.340310
C32	C	1.117184	-0.339226	-0.340298
C33	C	1.181639	-0.414283	-0.415099
C34	C	1.864619	-0.564415	-0.564736
C35	C	1.981397	-0.564421	-0.564745
C36	C	1.610184	-0.538864	-0.895801
C37	C	1.618537	-0.527981	-1.036890
C38	C	1.571115	-0.233329	-0.590116
C39	C	1.562819	-0.092246	-0.600941
C40	C	1.571114	-0.589746	-0.234924
C41	C	1.562944	-0.600271	-0.093863
H42	H	1.508791	-1.033107	-0.671056
H43	H	1.672438	-1.094409	-0.458542
O44	O	1.498527	-0.684152	-1.023482
C45	C	1.375474	-0.844095	-1.024822
C46	C	1.448400	-0.749167	-1.104690
H47	H	1.334909	-0.896666	-1.090447
H48	H	1.423946	-0.915278	-0.957702
H49	H	1.313519	-0.790541	-0.967182
H50	H	1.510367	-0.802614	-1.162407
H51	H	1.399858	-0.677986	-1.171730
O52	O	1.682792	-0.444065	-1.107529
C53	C	1.695624	-0.261314	-1.270555
C54	C	1.622736	-0.356244	-1.190623
H55	H	1.647102	-0.190304	-1.337775
H56	H	1.736112	-0.208542	-1.205033
H57	H	1.757642	-0.314887	-1.328096
H58	H	1.560661	-0.302770	-1.133073
H59	H	1.582327	-0.409016	-1.256214
O60	O	1.237283	-0.862677	-0.861727
C61	C	1.287256	-1.073969	-0.906361
C62	C	1.216394	-0.991342	-0.824086
H63	H	1.270408	-1.178013	-0.875941
H64	H	1.270440	-1.044055	-1.010463
H65	H	1.373444	-1.061005	-0.893532
H66	H	1.130183	-1.004265	-0.836806
H67	H	1.233300	-1.021276	-0.720015
H68	H	1.309377	-0.714525	-0.714317
H69	H	0.911255	-0.714543	-0.714385
O70	O	1.021202	-0.862430	-0.862013
C71	C	1.004014	-0.907684	-1.073091
C72	C	1.053769	-0.825137	-0.990728
H73	H	1.030307	-0.877545	-1.177176
H74	H	1.030302	-1.011743	-1.042893
H75	H	0.914525	-0.894815	-1.060177
H76	H	1.143261	-0.837896	-1.003602
H77	H	1.027396	-0.721109	-1.020946
H78	H	0.872857	-0.414307	-0.415154
O79	O	0.944951	-0.266404	-0.267474
C80	C	0.894860	-0.221140	-0.056409
C81	C	0.965731	-0.303690	-0.138752
H82	H	0.911620	-0.251273	0.047682
H83	H	0.911756	-0.117081	-0.086607
H84	H	0.808675	-0.234009	-0.069345
H85	H	1.051940	-0.290930	-0.125857
H86	H	0.948745	-0.407718	-0.108534
H87	H	1.154028	-0.278089	-0.279386
H88	H	1.270980	-0.414286	-0.415092
