data_functionalizedCrystal
_audit_creation_method	'MofGen! by Chris Wilmer'
_symmetry_space_group_name_H-M	'P1'
_symmetry_Int_Tables_number	1
_symmetry_cell_setting	triclinic
loop_
_symmetry_equiv_pos_as_xyz
  x,y,z
_cell_length_a	14.971486
_cell_length_b	15.072220
_cell_length_c	14.971494
_cell_angle_alpha	89.999404
_cell_angle_beta	83.615843
_cell_angle_gamma	90.007545
loop_
_atom_site_label
_atom_site_type_symbol
_atom_site_fract_x
_atom_site_fract_y
_atom_site_fract_z
O1	O	1.186959	0.073677	0.116556
O2	O	1.686959	0.573677	0.616556
O3	O	0.926559	0.073701	0.130515
O4	O	1.426559	0.573701	0.630515
O5	O	1.063735	0.073686	-0.006664
O6	O	1.563735	0.573686	0.493336
O7	O	1.049784	0.073692	0.253735
O8	O	1.549784	0.573692	0.753735
O9	O	1.063701	-0.073879	-0.006656
O10	O	1.563701	0.426121	0.493344
O11	O	0.926526	-0.073864	0.130523
O12	O	1.426526	0.426136	0.630523
O13	O	1.186925	-0.073888	0.116564
O14	O	1.686925	0.426112	0.616564
Zn15	Zn	1.056720	-0.097305	0.123544
Zn16	Zn	1.556720	0.402695	0.623544
Zn17	Zn	1.056765	0.097118	0.123534
Zn18	Zn	1.556765	0.597118	0.623534
O19	O	1.049750	-0.073874	0.253743
O20	O	1.549750	0.426126	0.753743
C21	C	0.893218	-0.000079	0.129895
C22	C	1.393218	0.499921	0.629895
C23	C	0.793921	-0.000070	0.128024
C24	C	1.293921	0.499930	0.628024
N25	N	1.056696	-0.229994	0.123551
N26	N	1.556696	0.270006	0.623551
C27	C	0.736698	-0.000069	0.208613
C28	C	1.236698	0.499931	0.708613
C29	C	0.643398	-0.000082	0.206850
C30	C	1.143398	0.499918	0.706850
C31	C	0.607323	-0.000090	0.124497
C32	C	1.107323	0.499910	0.624497
C33	C	0.664554	-0.000093	0.043902
C34	C	1.164554	0.499907	0.543902
C35	C	0.757851	-0.000086	0.045666
C36	C	1.257851	0.499914	0.545666
C37	C	0.470091	-0.000105	0.040231
C38	C	0.970091	0.499895	0.540231
C39	C	0.376787	-0.000110	0.038466
C40	C	0.876787	0.499890	0.538466
C41	C	0.355638	-0.000102	0.201415
C42	C	0.855638	0.499898	0.701415
C43	C	0.448936	-0.000095	0.203179
C44	C	0.948936	0.499905	0.703179
C45	C	0.506159	-0.000096	0.122583
C46	C	1.006159	0.499904	0.622583
C47	C	1.056763	-0.589196	0.123531
C48	C	1.556763	-0.089196	0.623531
C49	C	0.983116	-0.551581	0.196686
C50	C	1.483116	-0.051581	0.696686
C51	C	0.983285	-0.448755	0.196954
C52	C	1.483285	0.051245	0.696954
C53	C	1.056729	-0.410992	0.123541
C54	C	1.556729	0.089008	0.623541
C55	C	1.150080	-0.448291	0.144025
C56	C	1.650080	0.051709	0.644025
C57	C	1.149667	-0.551149	0.144545
C58	C	1.649667	-0.051149	0.644545
C59	C	1.037891	-0.551296	0.029676
C60	C	1.537891	-0.051296	0.529676
C61	C	1.035750	-0.448432	0.030299
C62	C	1.535750	0.051568	0.530299
C63	C	1.056716	-0.310278	0.123545
C64	C	1.556716	0.189722	0.623545
C65	C	1.056782	-0.689909	0.123529
C66	C	1.556782	-0.189909	0.623529
C67	C	1.220267	-0.000107	0.117184
C68	C	1.720267	0.499893	0.617184
C69	C	1.319564	-0.000110	0.119055
C70	C	1.819564	0.499890	0.619055
C71	C	1.063093	-0.000095	-0.039985
C72	C	1.563093	0.499905	0.460015
C73	C	1.061219	-0.000091	-0.139281
C74	C	1.561219	0.499909	0.360719
N75	N	1.056796	0.229807	0.123521
N76	N	1.556796	0.729807	0.623521
C77	C	1.060359	0.080348	-0.185930
C78	C	1.560359	0.580348	0.314070
C79	C	1.058593	0.080350	-0.279229
C80	C	1.558593	0.580350	0.220771
C81	C	1.057693	-0.000089	-0.325879
C82	C	1.557693	0.499911	0.174121
C83	C	1.058550	-0.080534	-0.279223
C84	C	1.558550	0.419466	0.220777
C85	C	1.060310	-0.080534	-0.185925
C86	C	1.560310	0.419466	0.314075
C87	C	1.054884	-0.080528	-0.473686
C88	C	1.554884	0.419472	0.026314
C89	C	1.053126	-0.080528	-0.566991
C90	C	1.553126	0.419472	-0.066991
C91	C	1.053167	0.080356	-0.566991
C92	C	1.553167	0.580356	-0.066991
C93	C	1.054927	0.080356	-0.473692
C94	C	1.554927	0.580356	0.026308
C95	C	1.055786	-0.000090	-0.427043
C96	C	1.555786	0.499910	0.072957
C97	C	1.050392	-0.000091	0.287064
C98	C	1.550392	0.499909	0.787064
C99	C	1.052266	-0.000089	0.386360
C100	C	1.552266	0.499911	0.886360
H101	H	0.766062	-0.000063	0.275674
H102	H	1.266062	0.499937	0.775674
H103	H	1.057811	-0.146029	-0.317211
H104	H	1.557811	0.353971	0.182789
O105	O	0.949659	-0.585679	0.003621
O106	O	1.449659	-0.085679	0.503621
H107	H	0.894303	-0.565066	0.054931
H108	H	1.394303	-0.065066	0.554931
O109	O	1.057651	0.167121	-0.329523
O110	O	1.557651	0.667121	0.170477
H111	H	1.117757	0.170982	-0.379948
H112	H	1.617757	0.670982	0.120052
O113	O	1.061241	-0.167297	-0.135611
O114	O	1.561241	0.332703	0.364389
H115	H	1.062607	-0.153784	-0.062897
H116	H	1.562607	0.346216	0.437103
H117	H	0.913899	-0.423538	0.184734
H118	H	1.413899	0.076462	0.684734
H119	H	1.055564	-0.146035	-0.435705
H120	H	1.555564	0.353965	0.064295
O121	O	0.337879	-0.000135	-0.050358
O122	O	0.837879	0.499865	0.449642
H123	H	0.263390	-0.000132	-0.038041
H124	H	0.763390	0.499868	0.461959
H125	H	1.061097	0.145851	-0.147956
H126	H	1.561097	0.645851	0.352044
H127	H	1.055666	0.145856	-0.435714
H128	H	1.555666	0.645856	0.064286
O129	O	1.052231	0.167126	-0.617295
O130	O	1.552231	0.667126	-0.117295
H131	H	1.050843	0.153616	-0.690007
H132	H	1.550843	0.653616	-0.190007
O133	O	1.052141	-0.167283	-0.617310
O134	O	1.552141	0.332717	-0.117310
H135	H	1.053017	-0.223222	-0.569197
H136	H	1.553017	0.276778	-0.069197
O137	O	0.531816	-0.000102	-0.046695
O138	O	1.031816	0.499898	0.453305
H139	H	0.491059	-0.000098	-0.104257
H140	H	0.991059	0.499902	0.395743
O141	O	0.581678	-0.000086	0.293771
O142	O	1.081678	0.499914	0.793771
H143	H	0.594509	0.060067	0.333169
H144	H	1.094509	0.560067	0.833169
O145	O	0.487851	-0.000098	0.291999
O146	O	0.987851	0.499902	0.791999
H147	H	0.432388	-0.000112	0.347746
H148	H	0.932388	0.499888	0.847746
O149	O	0.625651	-0.000108	-0.044925
O150	O	1.125651	0.499892	0.455075
H151	H	0.583661	0.060037	-0.049638
H152	H	1.083661	0.560037	0.450362
H153	H	0.804442	-0.000086	-0.019958
H154	H	1.304442	0.499914	0.480042
H155	H	0.309041	-0.000105	0.267038
H156	H	0.809041	0.499895	0.767038
H157	H	0.913506	-0.576336	0.184666
H158	H	1.413506	-0.076336	0.684666
H159	H	0.995012	-0.577419	0.265940
H160	H	1.495012	-0.077419	0.765940
H161	H	0.995347	-0.424141	0.266600
H162	H	1.495347	0.075859	0.766600
O163	O	1.172611	-0.414165	0.233665
O164	O	1.672611	0.085835	0.733665
H165	H	1.238761	-0.440993	0.247396
H166	H	1.738761	0.059007	0.747396
O167	O	0.944785	-0.416146	0.009714
O168	O	1.444785	0.083854	0.509714
H169	H	0.952632	-0.377185	-0.053585
H170	H	1.452632	0.122815	0.446415
H171	H	1.166282	-0.575131	0.212996
H172	H	1.666282	-0.075131	0.712996
H173	H	1.206187	-0.576030	0.093368
H174	H	1.706187	-0.076030	0.593368
H175	H	1.206196	-0.423828	0.092164
H176	H	1.706196	0.076172	0.592164
H177	H	1.085899	-0.422729	-0.026697
H178	H	1.585899	0.077271	0.473303
H179	H	1.091597	-0.575620	-0.024765
H180	H	1.591597	-0.075620	0.475235
