data_functionalizedCrystal
_audit_creation_method	'MofGen! by Chris Wilmer'
_symmetry_space_group_name_H-M	'P1'
_symmetry_Int_Tables_number	1
_symmetry_cell_setting	triclinic
loop_
_symmetry_equiv_pos_as_xyz
  x,y,z
_cell_length_a	10.489741
_cell_length_b	9.065218
_cell_length_c	8.140239
_cell_angle_alpha	90.002802
_cell_angle_beta	89.996756
_cell_angle_gamma	95.222470
loop_
_atom_site_label
_atom_site_type_symbol
_atom_site_fract_x
_atom_site_fract_y
_atom_site_fract_z
O1	O	0.187043	-1.959494	-0.136617
O2	O	0.687043	-1.459494	0.363383
O3	O	0.202385	-1.530135	-0.136619
O4	O	0.702385	-1.030135	0.363381
O5	O	0.009151	-1.754585	-0.136608
O6	O	0.509151	-1.254585	0.363392
O7	O	0.380276	-1.735045	-0.136628
O8	O	0.880276	-1.235045	0.363372
O9	O	0.009149	-1.754572	0.136619
O10	O	0.509149	-1.254572	0.636619
O11	O	0.202383	-1.530123	0.136608
O12	O	0.702383	-1.030123	0.636608
O13	O	0.187040	-1.959482	0.136610
O14	O	0.687040	-1.459482	0.636610
Zn15	Zn	0.194711	-1.744800	0.179990
Zn16	Zn	0.694711	-1.244800	0.679990
Zn17	Zn	0.194714	-1.744817	-0.179999
Zn18	Zn	0.694714	-1.244817	0.320001
O19	O	0.380274	-1.735032	0.136599
O20	O	0.880274	-1.235032	0.636599
C21	C	0.200909	-1.475149	-0.000006
C22	C	0.700909	-0.975149	0.499994
C23	C	0.196501	-1.311328	-0.000006
C24	C	0.696501	-0.811328	0.499994
N25	N	0.194708	-1.744800	0.425672
N26	N	0.694708	-1.244800	0.925672
C27	C	-0.038387	-1.753102	0.000004
C28	C	0.461613	-1.253102	0.500004
C29	C	-0.180032	-1.748687	0.000001
C30	C	0.319968	-1.248687	0.500001
C31	C	-0.248688	-1.605877	-0.000011
C32	C	0.251312	-1.105877	0.499989
C33	C	-0.340568	-1.673333	0.134704
C34	C	0.159432	-1.173333	0.634704
C35	C	-0.340540	-1.673379	-0.134676
C36	C	0.159460	-1.173379	0.365324
C37	C	-0.270047	-1.816202	0.134828
C38	C	0.229953	-1.316202	0.634828
C39	C	-0.270009	-1.816228	-0.134673
C40	C	0.229991	-1.316228	0.365327
C41	C	-0.361862	-1.883788	0.000075
C42	C	0.138138	-1.383788	0.500075
C43	C	0.427812	-1.736514	-0.000017
C44	C	0.927812	-1.236514	0.499983
C45	C	0.569458	-1.740930	-0.000025
C46	C	1.069458	-1.240930	0.499975
C47	C	0.188516	-2.014467	-0.000007
C48	C	0.688516	-1.514467	0.499993
C49	C	0.192925	-2.178289	-0.000017
C50	C	0.692925	-1.678289	0.499983
N51	N	0.194707	-1.744829	-0.425681
N52	N	0.694707	-1.244829	0.074319
H53	H	-0.199461	-1.488459	0.000124
H54	H	0.300539	-0.988459	0.500124
H55	H	-0.410861	-2.001312	0.000150
H56	H	0.089139	-1.501312	0.500150
H57	H	-0.238746	-1.876609	-0.248571
H58	H	0.261254	-1.376609	0.251429
F59	F	-0.229469	-1.895114	0.283858
F60	F	0.270531	-1.395114	0.783858
H61	H	-0.371799	-1.612901	0.248596
H62	H	0.128201	-1.112901	0.748596
H63	H	-0.371722	-1.612940	-0.248579
H64	H	0.128278	-1.112940	0.251421
