data_functionalizedCrystal
_audit_creation_method	'MofGen! by Chris Wilmer'
_symmetry_space_group_name_H-M	'P1'
_symmetry_Int_Tables_number	1
_symmetry_cell_setting	triclinic
loop_
_symmetry_equiv_pos_as_xyz
  x,y,z
_cell_length_a	25.427154
_cell_length_b	25.426324
_cell_length_c	25.422586
_cell_angle_alpha	60.006367
_cell_angle_beta	60.012446
_cell_angle_gamma	59.992398
loop_
_atom_site_label
_atom_site_type_symbol
_atom_site_fract_x
_atom_site_fract_y
_atom_site_fract_z
O1	O	0.072968	-0.768436	0.642532
O2	O	0.572968	-0.268436	1.142532
O3	O	0.027520	-0.598284	0.517710
O4	O	0.527520	-0.098284	1.017710
O5	O	0.135268	-0.705940	0.517611
O6	O	0.635268	-0.205940	1.017611
O7	O	-0.034780	-0.660780	0.642632
O8	O	0.465220	-0.160780	1.142632
O9	O	0.171018	-0.670200	0.553260
O10	O	0.671018	-0.170200	1.053260
O11	O	0.063270	-0.562544	0.553360
O12	O	0.563270	-0.062544	1.053360
O13	O	0.108718	-0.732696	0.678182
O14	O	0.608718	-0.232696	1.178182
Zn15	Zn	0.091670	-0.641945	0.621431
Zn16	Zn	0.591670	-0.141945	1.121431
Zn17	Zn	0.044568	-0.689034	0.574461
Zn18	Zn	0.544568	-0.189034	1.074461
O19	O	0.000970	-0.625039	0.678281
O20	O	0.500970	-0.125039	1.178281
N21	N	0.123818	-0.609812	0.653490
N22	N	0.623818	-0.109812	1.153490
N23	N	0.012426	-0.721173	0.542402
N24	N	0.512426	-0.221173	1.042402
C25	C	0.168482	-0.466269	0.698103
C26	C	0.668482	0.033731	1.198103
C27	C	0.168494	-0.565177	0.698095
C28	C	0.668494	-0.065177	1.198095
C29	C	0.193243	-0.540453	0.722807
C30	C	0.693243	-0.040453	1.222807
C31	C	0.301113	-0.521853	0.665993
C32	C	0.801113	-0.021853	1.165993
C33	C	0.368545	-0.544324	0.643486
C34	C	0.868545	-0.044324	1.143486
C35	C	0.368579	-0.653434	0.685090
C36	C	0.868579	-0.153434	1.185090
C37	C	0.301149	-0.630961	0.707599
C38	C	0.801149	-0.130961	1.207599
C39	C	0.184722	-0.432539	0.631812
C40	C	0.684722	0.067461	1.131812
C41	C	0.162210	-0.365100	0.609357
C42	C	0.662210	0.134900	1.109357
C43	C	0.107225	-0.365129	0.719489
C44	C	0.607225	0.134871	1.219489
C45	C	0.129737	-0.432567	0.741943
C46	C	0.629737	0.067433	1.241943
C47	C	0.102194	-0.548896	0.714421
C48	C	0.602194	-0.048896	1.214421
C49	C	0.079702	-0.571372	0.691949
C50	C	0.579702	-0.071372	1.191949
C51	C	0.189805	-0.626409	0.636839
C52	C	0.689805	-0.126409	1.136839
C53	C	0.212300	-0.603934	0.659303
C54	C	0.712300	-0.103934	1.159303
C55	C	0.102289	-0.548918	0.830735
C56	C	0.602289	-0.048918	1.330735
C57	C	0.079866	-0.571415	0.898171
C58	C	0.579866	-0.071415	1.398171
C59	C	0.190015	-0.626466	0.898104
C60	C	0.690015	-0.126466	1.398104
C61	C	0.212437	-0.603971	0.830666
C62	C	0.712437	-0.103971	1.330666
C63	C	0.168573	-0.565195	0.796984
C64	C	0.668573	-0.065195	1.296984
C65	C	0.267418	-0.565170	0.698047
C66	C	0.767418	-0.065170	1.198047
C67	C	-0.130981	-0.765617	0.497386
C68	C	0.369019	-0.265617	0.997386
C69	C	-0.032127	-0.765741	0.497606
C70	C	0.467873	-0.265741	0.997606
C71	C	-0.056804	-0.790430	0.472789
C72	C	0.443196	-0.290430	0.972789
C73	C	-0.075480	-0.898263	0.529507
C74	C	0.424520	-0.398263	1.029507
C75	C	-0.053057	-0.965702	0.552014
C76	C	0.446943	-0.465702	1.052014
C77	C	0.056052	-0.965829	0.510599
C78	C	0.556052	-0.465829	1.010599
C79	C	0.033627	-0.898392	0.488091
C80	C	0.533627	-0.398392	0.988091
C81	C	-0.164787	-0.781859	0.563659
C82	C	0.335213	-0.281859	1.063659
C83	C	-0.232219	-0.759299	0.586018
C84	C	0.267781	-0.259299	1.086018
C85	C	-0.232034	-0.704261	0.475827
C86	C	0.267966	-0.204261	0.975827
C87	C	-0.164602	-0.726821	0.453469
C88	C	0.335398	-0.226821	0.953469
C89	C	-0.048372	-0.699446	0.481299
C90	C	0.451628	-0.199446	0.981299
C91	C	-0.025938	-0.677008	0.503867
C92	C	0.474062	-0.177008	1.003867
C93	C	0.028987	-0.787155	0.559036
C94	C	0.528987	-0.287155	1.059036
C95	C	0.006552	-0.809596	0.536475
C96	C	0.506552	-0.309596	1.036475
C97	C	-0.048188	-0.699454	0.364860
C98	C	0.451812	-0.199454	0.864860
C99	C	-0.025608	-0.677017	0.297425
C100	C	0.474392	-0.177017	0.797425
C101	C	0.029406	-0.787170	0.297492
C102	C	0.529406	-0.287170	0.797492
C103	C	0.006827	-0.809605	0.364929
C104	C	0.506827	-0.309605	0.864929
C105	C	-0.031972	-0.765745	0.398611
C106	C	0.468028	-0.265745	0.898611
C107	C	-0.032140	-0.864611	0.497548
C108	C	0.467860	-0.364611	0.997548
N109	N	0.401319	-0.609788	0.653344
N110	N	0.901319	-0.109788	1.153344
O111	O	0.621664	-0.620517	0.494685
O112	O	1.121664	-0.120517	0.994685
O113	O	0.621901	-0.745740	0.664659
O114	O	1.121901	-0.245740	1.164659
O115	O	0.621803	-0.745452	0.556857
O116	O	1.121803	-0.245452	1.056857
O117	O	0.621762	-0.620805	0.602487
O118	O	1.121762	-0.120805	1.102487
O119	O	0.514676	-0.709815	0.592658
O120	O	1.014676	-0.209815	1.092658
O121	O	0.514774	-0.710104	0.700460
O122	O	1.014774	-0.210104	1.200460
O123	O	0.514537	-0.584881	0.530485
O124	O	1.014537	-0.084881	1.030485
Zn125	Zn	0.497647	-0.641834	0.621157
Zn126	Zn	0.997647	-0.141834	1.121157
Zn127	Zn	0.638791	-0.688787	0.573988
Zn128	Zn	1.138791	-0.188787	1.073988
O129	O	0.514635	-0.585169	0.638287
O130	O	1.014635	-0.085169	1.138287
N131	N	0.735119	-0.720834	0.541794
N132	N	1.235119	-0.220834	1.041794
N133	N	0.123794	-0.332357	0.653504
N134	N	0.623794	0.167643	1.153504
O135	O	-0.034774	-0.111885	0.642639
O136	O	0.465226	0.388115	1.142639
O137	O	0.135202	-0.111860	0.517412
O138	O	0.635202	0.388140	1.017412
O139	O	0.027364	-0.111888	0.517742
O140	O	0.527364	0.388112	1.017742
O141	O	0.073064	-0.111857	0.642310
O142	O	0.573064	0.388143	1.142310
O143	O	0.063120	-0.219026	0.553444
O144	O	0.563120	0.280974	1.053444
O145	O	0.170958	-0.218998	0.553115
O146	O	0.670958	0.281002	1.053115
O147	O	0.000983	-0.219022	0.678342
O148	O	0.500983	0.280978	1.178342
Zn149	Zn	0.091647	-0.236020	0.621397
Zn150	Zn	0.591647	0.263980	1.121397
Zn151	Zn	0.044537	-0.094862	0.574357
Zn152	Zn	0.544537	0.405138	1.074357
O153	O	0.108821	-0.218994	0.678013
O154	O	0.608821	0.281006	1.178013
N155	N	0.012383	0.001474	0.542251
N156	N	0.512383	0.501474	1.042251
N157	N	0.124036	-0.609854	0.930891
N158	N	0.624036	-0.109854	1.430891
O159	O	0.113202	-0.768401	1.151342
O160	O	0.613202	-0.268401	1.651342
O161	O	-0.011992	-0.598359	1.151385
O162	O	0.488008	-0.098359	1.651385
O163	O	-0.011700	-0.706176	1.151343
O164	O	0.488300	-0.206176	1.651343
O165	O	0.112910	-0.660584	1.151384
O166	O	0.612910	-0.160584	1.651384
O167	O	0.023980	-0.670446	1.044212
O168	O	0.523980	-0.170446	1.544212
O169	O	0.023689	-0.562630	1.044253
O170	O	0.523689	-0.062630	1.544253
O171	O	0.148882	-0.732671	1.044211
O172	O	0.648882	-0.232671	1.544211
Zn173	Zn	0.091951	-0.641977	1.027223
Zn174	Zn	0.591951	-0.141977	1.527223
Zn175	Zn	0.044940	-0.689053	1.168373
Zn176	Zn	0.544940	-0.189053	1.668373
O177	O	0.148590	-0.624854	1.044252
O178	O	0.648590	-0.124854	1.544252
N179	N	0.012853	-0.721183	1.264704
N180	N	0.512853	-0.221183	1.764704
C181	C	0.041135	-0.558973	0.518338
C182	C	0.541135	-0.058973	1.018338
C183	C	0.174567	-0.692292	0.518215
C184	C	0.674567	-0.192292	1.018215
C185	C	0.095103	-0.772007	0.677553
C186	C	0.595103	-0.272007	1.177553
C187	C	-0.038330	-0.638687	0.677677
C188	C	0.461670	-0.138687	1.177677
C189	C	0.568366	-0.745166	0.703974
C190	C	1.068366	-0.245166	1.203974
C191	C	0.568246	-0.744810	0.570474
C192	C	1.068246	-0.244810	1.070474
C193	C	0.568069	-0.585454	0.491172
C194	C	1.068069	-0.085454	0.991172
C195	C	0.568192	-0.585812	0.624671
C196	C	1.068192	-0.085812	1.124671
C197	C	0.174449	-0.165294	0.517975
C198	C	0.674449	0.334706	1.017975
C199	C	0.040949	-0.165460	0.518427
C200	C	0.540949	0.334540	1.018427
C201	C	-0.038309	-0.165456	0.677735
C202	C	0.461691	0.334544	1.177735
C203	C	0.095236	-0.165423	0.677328
C204	C	0.595236	0.334577	1.177328
C205	C	-0.011393	-0.559072	1.097824
C206	C	0.488607	-0.059072	1.597824
C207	C	-0.011024	-0.692583	1.097752
C208	C	0.488976	-0.192583	1.597752
C209	C	0.148283	-0.771958	1.097772
C210	C	0.648283	-0.271958	1.597772
C211	C	0.147922	-0.638440	1.097820
C212	C	0.647922	-0.138440	1.597820
H213	H	0.025889	-0.558152	0.925643
H214	H	0.525889	-0.058152	1.425643
H215	H	0.105023	-0.165413	0.716462
H216	H	0.605023	0.334587	1.216462
O217	O	0.106688	-0.830268	0.724384
O218	O	0.606688	-0.330268	1.224384
C219	C	0.099509	-0.821866	0.778675
C220	C	0.599509	-0.321866	1.278675
H221	H	0.106535	-0.774658	0.763201
H222	H	0.606535	-0.274658	1.263201
H223	H	0.049192	-0.820517	0.815137
H224	H	0.549192	-0.320517	1.315137
C225	C	0.141515	-0.936260	0.828632
C226	C	0.641515	-0.436260	1.328632
C227	C	0.150150	-0.878281	0.809626
C228	C	0.650150	-0.378281	1.309626
H229	H	0.172751	-0.971060	0.847727
H230	H	0.672751	-0.471060	1.347727
H231	H	0.146350	-0.941922	0.792057
H232	H	0.646350	-0.441922	1.292057
H233	H	0.099583	-0.935127	0.859015
H234	H	0.599583	-0.435127	1.359015
H235	H	0.192078	-0.879412	0.779238
H236	H	0.692078	-0.379412	1.279238
H237	H	0.145324	-0.872621	0.846197
H238	H	0.645324	-0.372621	1.346197
O239	O	0.195257	-0.830172	1.097729
O240	O	0.695257	-0.330172	1.597729
C241	C	0.250692	-0.830171	1.097757
C242	C	0.750692	-0.330171	1.597757
H243	H	0.249920	-0.778498	1.077491
H244	H	0.749920	-0.278498	1.577491
H245	H	0.251459	-0.853202	1.149155
H246	H	0.751459	-0.353202	1.649155
C247	C	0.312201	-0.932324	1.080622
C248	C	0.812201	-0.432324	1.580622
C249	C	0.311256	-0.868859	1.055727
C250	C	0.811256	-0.368859	1.555727
H251	H	0.349560	-0.956191	1.054699
H252	H	0.849560	-0.456191	1.554699
H253	H	0.274853	-0.932326	1.080606
H254	H	0.774853	-0.432326	1.580606
H255	H	0.312838	-0.951508	1.123453
H256	H	0.812838	-0.451508	1.623453
H257	H	0.310611	-0.849673	1.012900
H258	H	0.810611	-0.349673	1.512900
H259	H	0.348606	-0.868854	1.055735
H260	H	0.848606	-0.368854	1.555735
H261	H	0.568427	-0.784476	0.752793
H262	H	1.068427	-0.284476	1.252793
O263	O	0.194691	-0.626923	1.097851
O264	O	0.694691	-0.126923	1.597851
C265	C	0.250290	-0.682238	1.097819
C266	C	0.750290	-0.182238	1.597819
H267	H	0.236232	-0.726525	1.118091
H268	H	0.736232	-0.226525	1.618091
H269	H	0.285304	-0.677036	1.046419
H270	H	0.785304	-0.177036	1.546419
C271	C	0.299980	-0.635473	1.114935
C272	C	0.799980	-0.135473	1.614935
C273	C	0.282713	-0.689867	1.139838
C274	C	0.782713	-0.189867	1.639838
H275	H	0.319983	-0.640177	1.140851
H276	H	0.819983	-0.140177	1.640851
H277	H	0.262523	-0.598204	1.114954
H278	H	0.762523	-0.098204	1.614954
H279	H	0.329155	-0.631143	1.072102
H280	H	0.829155	-0.131143	1.572102
H281	H	0.253532	-0.694191	1.182667
H282	H	0.753532	-0.194191	1.682667
H283	H	0.320166	-0.727136	1.139827
H284	H	0.820166	-0.227136	1.639827
H285	H	0.031160	-0.165463	0.479291
H286	H	0.531160	0.334537	0.979291
H287	H	0.223163	-0.164989	0.478564
H288	H	0.723163	0.335011	0.978564
O289	O	0.059589	-0.511281	0.798116
O290	O	0.559589	-0.011281	1.298116
C291	C	-0.003724	-0.501722	0.842366
C292	C	0.496276	-0.001722	1.342366
H293	H	-0.003562	-0.542386	0.890425
H294	H	0.496438	-0.042386	1.390425
H295	H	-0.023044	-0.453685	0.849550
H296	H	0.476956	0.046315	1.349550
C297	C	-0.047203	-0.451298	0.757052
C298	C	0.452797	0.048702	1.257052
C299	C	-0.047005	-0.501245	0.816078
C300	C	0.452995	-0.001245	1.316078
H301	H	-0.073903	-0.451000	0.740835
H302	H	0.426097	0.049000	1.240835
H303	H	-0.004549	-0.457735	0.727239
H304	H	0.495451	0.042265	1.227239
H305	H	-0.063302	-0.411272	0.763046
H306	H	0.436698	0.088728	1.263046
H307	H	-0.030899	-0.541270	0.810081
H308	H	0.469101	-0.041270	1.310081
H309	H	-0.089658	-0.494814	0.845889
H310	H	0.410342	0.005186	1.345889
H311	H	-0.050155	-0.702322	1.097697
H312	H	0.449845	-0.202322	1.597697
H313	H	0.225736	-0.658027	0.925521
H314	H	0.725736	-0.158027	1.425521
O315	O	0.069513	-0.332319	0.762014
O316	O	0.569513	0.167681	1.262014
C317	C	0.009527	-0.293339	0.752361
C318	C	0.509527	0.206661	1.252361
H319	H	0.014914	-0.283225	0.701195
H320	H	0.514914	0.216775	1.201195
H321	H	-0.027085	-0.319350	0.788208
H322	H	0.472915	0.180650	1.288208
C323	C	-0.020437	-0.241708	0.825352
C324	C	0.479563	0.258292	1.325352
C325	C	-0.013819	-0.229281	0.762508
C326	C	0.486181	0.270719	1.262508
H327	H	-0.034840	-0.202195	0.831614
H328	H	0.465160	0.297805	1.331614
H329	H	0.019976	-0.267971	0.831858
H330	H	0.519976	0.232029	1.331858
H331	H	-0.050945	-0.263385	0.855218
H332	H	0.449055	0.236615	1.355218
H333	H	0.016695	-0.207612	0.732644
H334	H	0.516695	0.292388	1.232644
H335	H	-0.054227	-0.203013	0.755998
H336	H	0.445773	0.296987	1.255998
H337	H	-0.087123	-0.165464	0.717049
H338	H	0.412877	0.334536	1.217049
H339	H	-0.087172	-0.629063	0.716934
H340	H	0.412828	-0.129063	1.216934
H341	H	0.116505	-0.460032	0.795926
H342	H	0.616505	0.039968	1.295926
O343	O	-0.058225	-0.500787	1.097866
O344	O	0.441775	-0.000787	1.597866
C345	C	-0.035034	-0.460699	1.097868
C346	C	0.464966	0.039301	1.597868
H347	H	0.006323	-0.491678	1.118149
H348	H	0.506323	0.008322	1.618149
H349	H	-0.017162	-0.428164	1.046477
H350	H	0.482838	0.071836	1.546477
C351	C	-0.140506	-0.380960	1.114985
C352	C	0.359494	0.119040	1.614985
C353	C	-0.089714	-0.419010	1.139900
C354	C	0.410286	0.080990	1.639900
H355	H	-0.174235	-0.355243	1.140909
H356	H	0.325765	0.144757	1.640909
H357	H	-0.156130	-0.407967	1.114981
H358	H	0.343870	0.092033	1.614981
H359	H	-0.125604	-0.353854	1.072160
H360	H	0.374396	0.146146	1.572160
H361	H	-0.104614	-0.446121	1.182721
H362	H	0.395386	0.053879	1.682721
H363	H	-0.074094	-0.392007	1.139912
H364	H	0.425906	0.107993	1.639912
H365	H	0.223406	-0.701920	0.478955
H366	H	0.723406	-0.201920	0.978955
O367	O	0.568236	-0.791446	0.558732
O368	O	1.068236	-0.291446	1.058732
C369	C	0.568179	-0.767982	0.495421
C370	C	1.068179	-0.267982	0.995421
H371	H	0.547847	-0.713113	0.478497
H372	H	1.047847	-0.213113	0.978497
H373	H	0.619558	-0.784241	0.462061
H374	H	1.119558	-0.284241	0.962061
C375	C	0.551151	-0.861900	0.514978
C376	C	1.051151	-0.361900	1.014978
C377	C	0.526173	-0.794509	0.494192
C378	C	1.026173	-0.294509	0.994192
H379	H	0.525242	-0.878265	0.514218
H380	H	1.025242	-0.378265	1.014218
H381	H	0.551191	-0.877710	0.557631
H382	H	1.051191	-0.377710	1.057631
H383	H	0.593966	-0.875441	0.487174
H384	H	1.093966	-0.375441	0.987174
H385	H	0.483362	-0.780969	0.522000
H386	H	0.983362	-0.280969	1.022000
H387	H	0.526125	-0.778697	0.451544
H388	H	1.026125	-0.278697	0.951544
H389	H	0.266414	-0.617231	0.803190
H390	H	0.766414	-0.117231	1.303190
O391	O	0.029486	-0.500693	0.471547
O392	O	0.529486	-0.000693	0.971547
C393	C	-0.022683	-0.489192	0.456741
C394	C	0.477317	0.010808	0.956741
H395	H	-0.027802	-0.537041	0.470951
H396	H	0.472198	-0.037041	0.970951
H397	H	-0.068856	-0.458172	0.484467
H398	H	0.431144	0.041828	0.984467
C399	C	-0.004097	-0.395127	0.366466
C400	C	0.495903	0.104873	0.866466
C401	C	-0.010380	-0.453897	0.383915
C402	C	0.489620	0.046103	0.883915
H403	H	0.003490	-0.373353	0.321544
H404	H	0.503490	0.126647	0.821544
H405	H	0.031049	-0.402874	0.376442
H406	H	0.531049	0.097126	0.876442
H407	H	-0.042576	-0.369285	0.389576
H408	H	0.457424	0.130715	0.889576
H409	H	0.028102	-0.479741	0.360811
H410	H	0.528102	0.020259	0.860811
H411	H	-0.045520	-0.446154	0.373933
H412	H	0.454480	0.053846	0.873933
H413	H	0.567992	-0.546139	0.442358
H414	H	1.067992	-0.046139	0.942358
O415	O	0.015304	-0.555484	0.707696
O416	O	0.515304	-0.055484	1.207696
C417	C	-0.001044	-0.521537	0.651058
C418	C	0.498956	-0.021537	1.151058
H419	H	0.036945	-0.498706	0.610535
H420	H	0.536945	0.001294	1.110535
H421	H	-0.003293	-0.556208	0.636865
H422	H	0.496707	-0.056208	1.136865
C423	C	-0.113839	-0.496503	0.712873
C424	C	0.386161	0.003497	1.212873
C425	C	-0.067184	-0.468457	0.663104
C426	C	0.432816	0.031543	1.163104
H427	H	-0.154638	-0.463762	0.720304
H428	H	0.345362	0.036238	1.220304
H429	H	-0.102826	-0.519376	0.751032
H430	H	0.397174	-0.019376	1.251032
H431	H	-0.115705	-0.525395	0.701039
H432	H	0.384295	-0.025395	1.201039
H433	H	-0.065313	-0.439572	0.674942
H434	H	0.434687	0.060428	1.174942
H435	H	-0.078198	-0.445578	0.624947
H436	H	0.421802	0.054422	1.124947
H437	H	0.225479	-0.657972	0.605261
H438	H	0.725479	-0.157972	1.105261
O439	O	0.276724	-0.619811	0.643393
O440	O	0.776724	-0.119811	1.143393
C441	C	0.310567	-0.658815	0.604314
C442	C	0.810567	-0.158815	1.104314
H443	H	0.278421	-0.683355	0.612944
H444	H	0.778421	-0.183355	1.112944
H445	H	0.325037	-0.627679	0.551499
H446	H	0.825037	-0.127679	1.051499
C447	C	0.410893	-0.680189	0.610713
C448	C	0.910893	-0.180189	1.110713
C449	C	0.371413	-0.710334	0.621317
C450	C	0.871413	-0.210334	1.121317
H451	H	0.448427	-0.711967	0.621199
H452	H	0.948427	-0.211967	1.121199
H453	H	0.388093	-0.653910	0.637040
H454	H	0.888093	-0.153910	1.137040
H455	H	0.422945	-0.654243	0.566700
H456	H	0.922945	-0.154243	1.066700
H457	H	0.359355	-0.736272	0.665330
H458	H	0.859355	-0.236272	1.165330
H459	H	0.394212	-0.736619	0.594998
H460	H	0.894212	-0.236619	1.094998
O461	O	0.268516	-0.673125	0.738697
O462	O	0.768516	-0.173125	1.238697
C463	C	0.312750	-0.736014	0.742308
C464	C	0.812750	-0.236014	1.242308
H465	H	0.360798	-0.733442	0.702464
H466	H	0.860798	-0.233442	1.202464
H467	H	0.319963	-0.761761	0.791167
H468	H	0.819963	-0.261761	1.291167
C469	C	0.227408	-0.776563	0.783014
C470	C	0.727408	-0.276563	1.283014
C471	C	0.286420	-0.773404	0.734073
C472	C	0.786420	-0.273404	1.234073
H473	H	0.211165	-0.799629	0.777937
H474	H	0.711165	-0.299629	1.277937
H475	H	0.197605	-0.734194	0.780584
H476	H	0.697605	-0.234194	1.280584
H477	H	0.233426	-0.798017	0.823725
H478	H	0.733426	-0.298017	1.323725
H479	H	0.280399	-0.751943	0.693364
H480	H	0.780399	-0.251943	1.193364
H481	H	0.316221	-0.815770	0.736496
H482	H	0.816221	-0.315770	1.236496
H483	H	0.568183	-0.546658	0.634434
H484	H	1.068183	-0.046658	1.134434
H485	H	0.066522	-0.517340	0.746005
H486	H	0.566522	-0.017340	1.246005
O487	O	0.075814	-0.865801	0.457083
O488	O	0.575814	-0.365801	0.957083
C489	C	0.138671	-0.910080	0.453554
C490	C	0.638671	-0.410080	0.953554
H491	H	0.136043	-0.958129	0.493386
H492	H	0.636043	-0.458129	0.993386
H493	H	0.164470	-0.917283	0.404691
H494	H	0.664470	-0.417283	0.904691
C495	C	0.179261	-0.824799	0.412979
C496	C	0.679261	-0.324799	0.912979
C497	C	0.176033	-0.883812	0.461904
C498	C	0.676033	-0.383812	0.961904
H499	H	0.202310	-0.808595	0.418126
H500	H	0.702310	-0.308595	0.918126
H501	H	0.136914	-0.794966	0.415354
H502	H	0.636914	-0.294966	0.915354
H503	H	0.200759	-0.830809	0.372264
H504	H	0.700759	-0.330809	0.872264
H505	H	0.154529	-0.877799	0.502616
H506	H	0.654529	-0.377799	1.002616
H507	H	0.218378	-0.913643	0.459536
H508	H	0.718378	-0.413643	0.959536
H509	H	0.396045	-0.707006	0.692856
H510	H	0.896045	-0.207006	1.192856
H511	H	0.273654	-0.468282	0.658214
H512	H	0.773654	0.031718	1.158214
O513	O	0.401178	-0.502156	0.612336
O514	O	0.901178	-0.002156	1.112336
C515	C	0.356946	-0.439270	0.608745
C516	C	0.856946	0.060730	1.108745
H517	H	0.308870	-0.436645	0.613185
H518	H	0.808870	0.063355	1.113185
H519	H	0.349803	-0.426684	0.649599
H520	H	0.849803	0.073316	1.149599
C521	C	0.442269	-0.394346	0.538186
C522	C	0.942269	0.105654	1.038186
C523	C	0.383222	-0.391122	0.543634
C524	C	0.883222	0.108878	1.043634
H525	H	0.458478	-0.364645	0.498024
H526	H	0.958478	0.135355	0.998024
H527	H	0.472070	-0.436714	0.540607
H528	H	0.972070	0.063286	1.040607
H529	H	0.436308	-0.383859	0.572234
H530	H	0.936308	0.116141	1.072234
H531	H	0.389185	-0.401616	0.509590
H532	H	0.889185	0.098384	1.009590
H533	H	0.353423	-0.348754	0.541206
H534	H	0.853423	0.151246	1.041206
H535	H	0.175430	-0.337636	0.555374
H536	H	0.675430	0.162364	1.055374
O537	O	0.222260	-0.465251	0.589205
O538	O	0.722260	0.034749	1.089205
C539	C	0.188174	-0.448759	0.550236
C540	C	0.688174	0.051241	1.050236
H541	H	0.134232	-0.430232	0.576302
H542	H	0.634232	0.069768	1.076302
H543	H	0.202492	-0.409605	0.502858
H544	H	0.702492	0.090395	1.002858
C545	C	0.270718	-0.531417	0.504443
C546	C	0.770718	-0.031417	1.004443
C547	C	0.204466	-0.508667	0.536460
C548	C	0.704466	-0.008667	1.036460
H549	H	0.280769	-0.568369	0.495942
H550	H	0.780769	-0.068369	0.995942
H551	H	0.293684	-0.542527	0.530695
H552	H	0.793684	-0.042527	1.030695
H553	H	0.282642	-0.498783	0.464965
H554	H	0.782642	0.001217	0.964965
H555	H	0.192545	-0.541298	0.575940
H556	H	0.692545	-0.041298	1.075940
H557	H	0.181498	-0.497564	0.510214
H558	H	0.681498	0.002436	1.010214
O559	O	-0.085838	-0.656758	0.397479
O560	O	0.414162	-0.156758	0.897479
C561	C	-0.095320	-0.593435	0.353229
C562	C	0.404680	-0.093435	0.853229
H563	H	-0.054617	-0.593611	0.305203
H564	H	0.445383	-0.093611	0.805203
H565	H	-0.143326	-0.574055	0.345964
H566	H	0.356674	-0.074055	0.845964
C567	C	-0.145803	-0.549989	0.438571
C568	C	0.354197	-0.049989	0.938571
C569	C	-0.095809	-0.550204	0.379585
C570	C	0.404191	-0.050204	0.879585
H571	H	-0.146108	-0.523321	0.454829
H572	H	0.353892	-0.023321	0.954829
H573	H	-0.139417	-0.592650	0.468384
H574	H	0.360583	-0.092650	0.968384
H575	H	-0.185804	-0.533841	0.432508
H576	H	0.314196	-0.033841	0.932508
H577	H	-0.055809	-0.566360	0.385650
H578	H	0.444191	-0.066360	0.885650
H579	H	-0.102188	-0.507544	0.349774
H580	H	0.397812	-0.007544	0.849774
O581	O	0.067101	-0.829863	0.264878
O582	O	0.567101	-0.329863	0.764878
C583	C	0.076553	-0.893184	0.309131
C584	C	0.576553	-0.393184	0.809131
H585	H	0.068948	-0.893050	0.357226
H586	H	0.568948	-0.393050	0.857226
H587	H	0.040661	-0.912448	0.316222
H588	H	0.540661	-0.412448	0.816222
C589	C	0.154974	-0.936677	0.223854
C590	C	0.654974	-0.436677	0.723854
C591	C	0.145639	-0.936513	0.282924
C592	C	0.645639	-0.436513	0.782924
H593	H	0.197589	-0.963406	0.207688
H594	H	0.697589	-0.463406	0.707688
H595	H	0.148605	-0.894017	0.194039
H596	H	0.648605	-0.394017	0.694039
H597	H	0.125059	-0.952729	0.229771
H598	H	0.625059	-0.452729	0.729771
H599	H	0.175548	-0.920454	0.277004
H600	H	0.675548	-0.420454	0.777004
H601	H	0.152015	-0.979172	0.312737
H602	H	0.652015	-0.479172	0.812737
O603	O	0.066532	-0.829845	0.596804
O604	O	0.566532	-0.329845	1.096804
C605	C	0.076072	-0.893168	0.606337
C606	C	0.576072	-0.393168	1.106337
H607	H	0.035450	-0.892996	0.598703
H608	H	0.535450	-0.392996	1.098703
H609	H	0.124140	-0.912540	0.570507
H610	H	0.624140	-0.412540	1.070507
C611	C	0.126328	-0.936616	0.684838
C612	C	0.626328	-0.436616	1.184838
C613	C	0.076432	-0.936405	0.675467
C614	C	0.576432	-0.436405	1.175467
H615	H	0.126554	-0.963288	0.727479
H616	H	0.626554	-0.463288	1.227479
H617	H	0.119903	-0.893954	0.678414
H618	H	0.619903	-0.393954	1.178414
H619	H	0.166380	-0.952758	0.654975
H620	H	0.666380	-0.452758	1.154975
H621	H	0.036382	-0.920256	0.705324
H622	H	0.536382	-0.420256	1.205324
H623	H	0.082851	-0.979065	0.681898
H624	H	0.582851	-0.479065	1.181898
O625	O	-0.041264	-0.612623	0.264615
O626	O	0.458736	-0.112623	0.764615
C627	C	0.015422	-0.596394	0.225690
C628	C	0.515422	-0.096394	0.725690
H629	H	0.055880	-0.634439	0.246098
H630	H	0.555880	-0.134439	0.746098
H631	H	0.029686	-0.594177	0.174571
H632	H	0.529686	-0.094177	0.674571
C633	C	-0.046266	-0.483542	0.199594
C634	C	0.453734	0.016458	0.699594
C635	C	0.003423	-0.530267	0.224662
C636	C	0.503423	-0.030267	0.724662
H637	H	-0.053668	-0.442750	0.198956
H638	H	0.446332	0.057250	0.698956
H639	H	-0.084458	-0.494475	0.225816
H640	H	0.415542	0.005525	0.725816
H641	H	-0.034373	-0.481702	0.156996
H642	H	0.465627	0.018298	0.656996
H643	H	-0.008474	-0.532112	0.267261
H644	H	0.491526	-0.032112	0.767261
H645	H	0.041612	-0.519332	0.198446
H646	H	0.541612	-0.019332	0.698446
H647	H	-0.079862	-0.663733	0.449648
H648	H	0.420138	-0.163733	0.949648
O649	O	-0.095258	-0.998293	0.583148
O650	O	0.404742	-0.498293	1.083148
C651	C	-0.158119	-0.954016	0.586695
C652	C	0.341881	-0.454016	1.086695
H653	H	-0.160696	-0.905938	0.582207
H654	H	0.339304	-0.405938	1.082207
H655	H	-0.170713	-0.946884	0.545850
H656	H	0.329287	-0.446884	1.045850
C657	C	-0.203128	-1.039278	0.657320
C658	C	0.296872	-0.539278	1.157320
C659	C	-0.206295	-0.980230	0.651813
C660	C	0.293705	-0.480230	1.151813
H661	H	-0.232846	-1.055448	0.697487
H662	H	0.267154	-0.555448	1.197487
H663	H	-0.160778	-1.069109	0.654928
H664	H	0.339222	-0.569109	1.154928
H665	H	-0.213621	-1.033327	0.623279
H666	H	0.286379	-0.533327	1.123279
H667	H	-0.195794	-0.986183	0.685849
H668	H	0.304206	-0.486183	1.185849
H669	H	-0.248645	-0.950400	0.654212
H670	H	0.251355	-0.450400	1.154212
O671	O	-0.132226	-0.819514	0.606405
O672	O	0.367774	-0.319514	1.106405
C673	C	-0.176526	-0.829019	0.669696
C674	C	0.323474	-0.329019	1.169696
H675	H	-0.224562	-0.788317	0.669491
H676	H	0.275438	-0.288317	1.169491
H677	H	-0.183736	-0.877030	0.688994
H678	H	0.316264	-0.377030	1.188994
C679	C	-0.091289	-0.879520	0.713290
C680	C	0.408711	-0.379520	1.213290
C681	C	-0.150286	-0.829525	0.713039
C682	C	0.349714	-0.329525	1.213039
H683	H	-0.075102	-0.879835	0.740028
H684	H	0.424898	-0.379835	1.240028
H685	H	-0.061442	-0.873119	0.670651
H686	H	0.438558	-0.373119	1.170651
H687	H	-0.097305	-0.919524	0.729371
H688	H	0.402695	-0.419524	1.229371
H689	H	-0.144267	-0.789522	0.696952
H690	H	0.355733	-0.289522	1.196952
H691	H	-0.180131	-0.835920	0.755678
H692	H	0.319869	-0.335920	1.255678
O693	O	-0.265088	-0.774967	0.650393
O694	O	0.234912	-0.274967	1.150393
C695	C	-0.304106	-0.718282	0.666653
C696	C	0.195894	-0.218282	1.166653
H697	H	-0.283729	-0.677809	0.628671
H698	H	0.216271	-0.177809	1.128671
H699	H	-0.355188	-0.704034	0.668792
H700	H	0.144812	-0.204034	1.168792
C701	C	-0.330274	-0.779993	0.779484
C702	C	0.169726	-0.279993	1.279484
C703	C	-0.305244	-0.730284	0.732836
C704	C	0.194756	-0.230284	1.232836
H705	H	-0.330979	-0.787396	0.820310
H706	H	0.169021	-0.287396	1.320310
H707	H	-0.303989	-0.818183	0.768530
H708	H	0.196011	-0.318183	1.268530
H709	H	-0.372840	-0.768113	0.781258
H710	H	0.127160	-0.268113	1.281258
H711	H	-0.262677	-0.742168	0.731057
H712	H	0.237323	-0.242168	1.231057
H713	H	-0.331522	-0.692096	0.743791
H714	H	0.168478	-0.192096	1.243791
O715	O	0.119919	-0.998676	0.501533
O716	O	0.619919	-0.498676	1.001533
C717	C	0.128987	-1.037692	0.561773
C718	C	0.628987	-0.537692	1.061773
H719	H	0.086262	-1.017327	0.600613
H720	H	0.586262	-0.517327	1.100613
H721	H	0.132946	-1.088787	0.573438
H722	H	0.632946	-0.588787	1.073438
C723	C	0.243734	-1.063816	0.511650
C724	C	0.743734	-0.563816	1.011650
C725	C	0.191261	-1.038799	0.559353
C726	C	0.691261	-0.538799	1.059353
H727	H	0.282149	-1.064501	0.510157
H728	H	0.782149	-0.564501	1.010157
H729	H	0.237626	-1.037532	0.471064
H730	H	0.737626	-0.537532	0.971064
H731	H	0.247025	-1.106392	0.521376
H732	H	0.747025	-0.606392	1.021376
H733	H	0.187966	-0.996221	0.549622
H734	H	0.687966	-0.496221	1.049622
H735	H	0.197370	-1.065076	0.599938
H736	H	0.697370	-0.565076	1.099938
H737	H	-0.039168	-0.623025	0.490592
H738	H	0.460832	-0.123025	0.990592
O739	O	-0.264630	-0.666655	0.433109
O740	O	0.235370	-0.166655	0.933109
C741	C	-0.248128	-0.700724	0.394122
C742	C	0.251872	-0.200724	0.894122
H743	H	-0.199197	-0.740025	0.393542
H744	H	0.300803	-0.240025	0.893542
H745	H	-0.286101	-0.723554	0.414338
H746	H	0.213899	-0.223554	0.914338
C747	C	-0.305000	-0.605739	0.325724
C748	C	0.195000	-0.105739	0.825724
C749	C	-0.244900	-0.654006	0.325007
C750	C	0.255100	-0.154006	0.825007
H751	H	-0.303011	-0.576922	0.283091
H752	H	0.196989	-0.076922	0.783091
H753	H	-0.316120	-0.582786	0.351991
H754	H	0.183880	-0.082786	0.851991
H755	H	-0.336638	-0.624772	0.342574
H756	H	0.163362	-0.124772	0.842574
H757	H	-0.213264	-0.634974	0.308166
H758	H	0.286736	-0.134974	0.808166
H759	H	-0.233774	-0.676955	0.298735
H760	H	0.266226	-0.176955	0.798735
H761	H	0.019779	-0.863579	0.549754
H762	H	0.519779	-0.363579	1.049754
H763	H	0.020039	-0.863588	0.392405
H764	H	0.520039	-0.363588	0.892405
H765	H	-0.129033	-0.870764	0.537213
H766	H	0.370967	-0.370764	1.037213
H767	H	-0.137077	-0.713589	0.399501
H768	H	0.362923	-0.213589	0.899501
