data_functionalizedCrystal
_audit_creation_method	'MofGen! by Chris Wilmer'
_symmetry_space_group_name_H-M	'P1'
_symmetry_Int_Tables_number	1
_symmetry_cell_setting	triclinic
loop_
_symmetry_equiv_pos_as_xyz
  x,y,z
_cell_length_a	19.851628
_cell_length_b	20.875444
_cell_length_c	20.875641
_cell_angle_alpha	64.273268
_cell_angle_beta	90.001337
_cell_angle_gamma	61.745332
loop_
_atom_site_label
_atom_site_type_symbol
_atom_site_fract_x
_atom_site_fract_y
_atom_site_fract_z
Zr1	Zr	0.686954	0.664134	-0.047825
O2	O	0.589552	0.784858	-0.140543
O3	O	0.712158	0.538606	-0.023854
O4	O	0.723366	0.657221	-0.146971
O5	O	0.574798	0.673371	0.084755
O6	O	0.834216	0.657233	-0.146976
O7	O	0.578344	0.666243	-0.017427
O8	O	0.814166	0.445052	0.073258
O9	O	0.594848	0.885552	-0.135478
O10	O	0.811256	0.592025	-0.008255
O11	O	0.725884	0.597336	0.068006
O12	O	0.739081	0.736990	-0.076949
O13	O	0.653708	0.742301	-0.000688
Zr14	Zr	0.858090	0.675520	0.115135
Zr15	Zr	0.863746	0.664152	-0.047833
Zr16	Zr	0.681298	0.675502	0.115143
Zr17	Zr	0.695399	0.824729	-0.039747
Zr18	Zr	0.849645	0.514926	0.107057
O19	O	0.832887	0.801048	0.091164
O20	O	0.840928	0.784884	-0.140555
O21	O	0.581511	0.801022	0.091176
O22	O	0.955492	0.554796	0.207854
O23	O	0.963533	0.538632	-0.023866
O24	O	0.704116	0.554770	0.207865
O25	O	0.970246	0.666283	-0.017445
O26	O	0.821678	0.682433	0.214281
O27	O	0.710829	0.682422	0.214286
O28	O	0.966700	0.673411	0.084737
O29	O	0.735374	0.885566	-0.135485
O30	O	0.809670	0.454088	0.202795
O31	O	0.950197	0.454102	0.202789
O32	O	0.954692	0.445066	0.073251
O33	O	0.590352	0.894588	-0.005941
O34	O	0.730878	0.894602	-0.005947
O35	O	0.805964	0.602664	0.144259
O36	O	0.891336	0.597353	0.067998
O37	O	0.819160	0.742318	-0.000695
O38	O	0.733788	0.747629	0.075566
C39	C	0.761958	0.468947	0.023551
C40	C	0.758373	0.400771	0.020121
C41	C	0.732156	0.022444	-0.004717
C42	C	0.735524	0.086518	-0.001526
C43	C	0.793411	0.067030	0.053568
C44	C	0.847929	-0.016540	0.105479
C45	C	0.844557	-0.080612	0.102291
C46	C	0.809519	0.253130	0.068844
C47	C	0.812888	0.317210	0.072027
C48	C	0.700482	0.420264	-0.034978
C49	C	0.697118	0.356185	-0.038164
C50	C	0.751633	0.272622	0.013749
N51	N	0.796856	0.132522	0.056830
N52	N	0.748184	0.207132	0.010490
C53	C	0.551382	0.669804	0.033665
C54	C	0.476329	0.669797	0.033669
C55	C	0.334317	0.590774	0.071115
C56	C	0.267977	0.633836	0.103314
C57	C	0.338899	0.669818	0.033660
C58	C	0.271504	0.626752	0.001487
C59	C	0.206151	0.669833	0.033652
C60	C	0.273545	0.712884	0.065901
C61	C	0.277083	0.705785	-0.035966
C62	C	0.210734	0.748906	-0.003782
C63	C	0.415373	0.669807	0.033667
C64	C	0.129675	0.669851	0.033647
C65	C	0.993662	0.669850	0.033645
C66	C	1.068715	0.669858	0.033642
C67	C	0.779597	0.655607	-0.170193
C68	C	0.781998	0.650781	-0.239377
C69	C	0.783086	0.870707	0.043760
C70	C	0.786671	0.938883	0.047189
C71	C	0.745452	0.724182	-0.307737
C72	C	0.747718	0.719642	-0.372741
C73	C	0.786526	0.641701	-0.369383
C74	C	0.823076	0.568294	-0.301015
C75	C	0.820814	0.572835	-0.236013
C76	C	0.797335	0.620007	-0.559943
C77	C	0.799592	0.615472	-0.624952
C78	C	0.724235	0.766821	-0.696674
C79	C	0.721973	0.771354	-0.631667
C80	C	0.758527	0.697948	-0.563306
N81	N	0.788841	0.637059	-0.435826
N82	N	0.756216	0.702591	-0.496864
C83	C	0.765448	0.684047	0.237503
C84	C	0.763047	0.688873	0.306687
C85	C	0.983099	0.468970	0.023541
C86	C	1.054566	0.400801	0.020108
C87	C	0.754884	0.483167	0.227399
C88	C	0.748898	0.419817	0.293154
C89	C	0.976024	0.483190	0.227389
C90	C	1.045091	0.419847	0.293140
C91	C	0.569020	0.856464	-0.160078
C92	C	0.499953	0.919807	-0.225830
C93	C	0.561946	0.870684	0.043770
C94	C	0.490478	0.938853	0.047203
C95	C	0.790160	0.856487	-0.160088
C96	C	0.796146	0.919837	-0.225843
C97	C	1.046328	0.366007	-0.021314
C98	C	1.113474	0.301963	-0.024555
C99	C	1.188857	0.272710	0.013632
C100	C	1.197094	0.307511	0.055056
C101	C	1.129949	0.371558	0.058291
C102	C	0.787887	0.392849	0.363843
C103	C	0.782259	0.333333	0.425633
C104	C	0.737647	0.300783	0.416733
C105	C	0.698653	0.327757	0.346036
C106	C	0.704276	0.387276	0.284247
C107	C	1.122096	0.387329	0.284210
C108	C	1.186999	0.327820	0.345985
C109	C	1.174895	0.300827	0.416688
C110	C	1.097882	0.333352	0.425617
C111	C	1.032981	0.392864	0.363843
C112	C	0.422948	0.952333	-0.216899
C113	C	0.358046	1.011862	-0.278673
C114	C	0.370151	1.038859	-0.349377
C115	C	0.447164	1.006330	-0.358305
C116	C	0.512064	0.946806	-0.296532
C117	C	0.498717	0.973654	0.088618
C118	C	0.431572	1.037714	0.091842
C119	C	0.356190	1.066969	0.053653
C120	C	0.347952	1.032165	0.012232
C121	C	0.415096	0.968110	0.009005
C122	C	0.840765	0.952369	-0.216919
C123	C	0.846406	1.011885	-0.278697
C124	C	0.807422	1.038873	-0.349398
C125	C	0.762801	1.006336	-0.358321
C126	C	0.757166	0.946816	-0.296544
H127	H	0.860028	0.301332	0.116896
H128	H	0.263380	0.603432	0.162193
H129	H	0.685021	0.038322	-0.049584
C130	C	0.581631	0.941485	0.130626
H131	H	0.620447	0.898346	0.122783
H132	H	0.590916	0.986103	0.113276
H133	H	0.584684	0.920150	0.181741
C134	C	0.661391	0.416929	0.206492
H135	H	0.634024	0.389010	0.210048
H136	H	0.624642	0.475518	0.182512
H137	H	0.699054	0.404535	0.178952
H138	H	0.888948	-0.148651	0.144559
H139	H	0.853911	0.185097	0.111114
C140	C	0.825163	0.303665	0.503390
H141	H	0.852548	0.331567	0.499835
H142	H	0.787514	0.316049	0.530940
H143	H	0.861912	0.245072	0.527360
C144	C	0.298755	1.104321	-0.417321
H145	H	0.251161	1.119814	-0.401870
H146	H	0.302385	1.152258	-0.444224
H147	H	0.298663	1.081264	-0.447779
H148	H	1.131967	0.409297	0.226645
C149	C	0.440647	1.075979	0.137414
H150	H	0.495158	1.049368	0.159704
H151	H	0.419318	1.134057	0.106107
H152	H	0.413072	1.068102	0.174558
H153	H	0.301523	1.119127	0.056286
H154	H	0.387285	0.523942	0.102834
C155	C	1.271703	0.292045	0.336150
H156	H	1.269610	0.316636	0.285193
H157	H	1.300746	0.304203	0.360369
H158	H	1.297005	0.233219	0.356811
H159	H	0.457010	1.028318	-0.415879
C160	C	1.280016	0.275321	0.097064
H161	H	1.318818	0.232187	0.089207
H162	H	1.289319	0.319925	0.079731
H163	H	1.283073	0.253970	0.148181
C164	C	0.596766	0.911023	-0.306365
H165	H	0.594671	0.935623	-0.357322
H166	H	0.625817	0.923166	-0.282138
H167	H	0.622059	0.852199	-0.285714
H168	H	0.970281	0.419333	0.371124
H169	H	0.275079	0.749273	0.093175
H170	H	1.106752	0.273635	-0.058286
H171	H	0.408377	0.939776	-0.024719
H172	H	0.286567	1.055994	-0.018860
H173	H	0.157860	0.815798	-0.035449
C174	C	1.084577	0.303645	0.503392
H175	H	1.134262	0.263537	0.538897
H176	H	1.057496	0.350015	0.511425
H177	H	1.053774	0.279035	0.507841
H178	H	0.662330	0.301246	0.338799
H179	H	0.984954	0.389823	-0.052420
H180	H	0.720829	0.920335	-0.303821
H181	H	0.872512	0.930405	-0.159356
H182	H	0.295345	1.038337	-0.271389
H183	H	0.827100	0.560235	-0.504289
H184	H	0.882739	1.038372	-0.271417
C185	C	0.813619	1.104351	-0.417346
H186	H	0.845771	1.119862	-0.401898
H187	H	0.836656	1.081315	-0.447816
H188	H	0.762249	1.152282	-0.444234
H189	H	1.227748	0.252367	0.466982
H190	H	0.413077	0.930356	-0.159335
C191	C	0.865762	0.482561	-0.297320
H192	H	0.861869	0.490368	-0.345823
H193	H	0.919941	0.452214	-0.271933
H194	H	0.841797	0.452211	-0.271931
C195	C	0.283348	0.746813	-0.115486
H196	H	0.283277	0.716119	-0.138281
H197	H	0.239526	0.802651	-0.142327
H198	H	0.331126	0.746959	-0.114908
H199	H	0.831193	0.552000	-0.622210
C200	C	0.719915	1.036036	-0.436094
H201	H	0.729659	1.076150	-0.471601
H202	H	0.739008	0.989665	-0.444126
H203	H	0.664611	1.060637	-0.440538
H204	H	0.691140	0.154555	-0.043800
H205	H	0.824215	0.419345	0.371105
C206	C	0.633435	0.377624	-0.098758
H207	H	0.639237	0.327496	-0.093225
H208	H	0.582391	0.411080	-0.094745
H209	H	0.639400	0.407511	-0.145693
C210	C	0.640514	0.512179	-0.092070
H211	H	0.650806	0.547550	-0.082279
H212	H	0.645370	0.521069	-0.140046
H213	H	0.588362	0.524630	-0.089097
C214	C	0.861011	0.492094	-0.160817
H215	H	0.884441	0.445024	-0.168125
H216	H	0.900763	0.490723	-0.133968
H217	H	0.822621	0.490716	-0.133970
H218	H	0.717960	0.779413	-0.428400
C219	C	0.911605	-0.037978	0.166080
H220	H	0.905812	0.012148	0.160541
H221	H	0.905642	-0.067865	0.213011
H222	H	0.962653	-0.071435	0.162064
H223	H	1.243524	0.220558	0.010992
H224	H	0.713845	0.787650	-0.310480
C225	C	0.269342	0.577551	-0.035271
H226	H	0.312664	0.521400	-0.008594
H227	H	0.221105	0.578336	-0.035417
H228	H	0.272943	0.602554	-0.084475
H229	H	0.690374	0.834823	-0.634410
C230	C	0.684033	0.847562	-0.771867
H231	H	0.660592	0.894631	-0.764557
H232	H	0.722414	0.848944	-0.798718
H233	H	0.644275	0.848933	-0.798713
H234	H	1.136668	0.399880	0.092026
C235	C	0.731472	0.235309	0.484704
H236	H	0.761092	0.223908	0.528076
H237	H	0.677563	0.256292	0.485776
H238	H	0.751974	0.185323	0.482200
