data_functionalizedCrystal
_audit_creation_method	'MofGen! by Chris Wilmer'
_symmetry_space_group_name_H-M	'P1'
_symmetry_Int_Tables_number	1
_symmetry_cell_setting	triclinic
loop_
_symmetry_equiv_pos_as_xyz
  x,y,z
_cell_length_a	10.654550
_cell_length_b	17.699083
_cell_length_c	9.130313
_cell_angle_alpha	90.004538
_cell_angle_beta	90.004138
_cell_angle_gamma	83.883958
loop_
_atom_site_label
_atom_site_type_symbol
_atom_site_fract_x
_atom_site_fract_y
_atom_site_fract_z
O1	O	1.665974	0.106302	0.121923
O2	O	1.300318	0.116430	0.121900
O3	O	1.493476	0.001242	0.121899
O4	O	1.472815	0.221489	0.121924
O5	O	1.493474	0.001240	-0.121700
O6	O	1.300315	0.116427	-0.121699
O7	O	1.665971	0.106300	-0.121676
Cu8	Cu	1.483143	0.111363	-0.143930
Cu9	Cu	1.483146	0.111366	0.144154
O10	O	1.472812	0.221487	-0.121675
C11	C	1.253531	0.115685	0.000097
C12	C	1.114127	0.113460	0.000088
C13	C	1.033454	0.181281	0.000117
C14	C	0.902470	0.179185	0.000142
C15	C	0.932845	0.041443	0.000115
C16	C	1.063826	0.043539	0.000080
C17	C	1.015917	0.260805	0.000139
C18	C	0.884933	0.258710	0.000164
C19	C	1.492735	-0.026961	0.000099
C20	C	1.490514	-0.110993	0.000099
C21	C	1.603894	-0.158893	0.000104
C22	C	1.601799	-0.237850	0.000117
C23	C	1.486324	-0.268905	0.000114
C24	C	1.372935	-0.220998	0.000113
C25	C	1.375031	-0.142043	0.000111
C26	C	1.364481	-0.539415	0.000124
C27	C	1.362394	-0.618376	0.000122
C28	C	1.591249	-0.635222	0.000130
C29	C	1.593345	-0.556266	0.000128
C30	C	1.479957	-0.508367	0.000135
C31	C	1.482229	-0.422753	0.000124
C32	C	1.484050	-0.354517	0.000114
C33	C	1.712757	0.107044	0.000130
C34	C	1.852161	0.109269	0.000149
C35	C	1.473554	0.249690	0.000128
C36	C	1.475775	0.333722	0.000138
N37	N	1.483150	0.111361	-0.346553
N38	N	1.483149	0.111362	0.346777
C39	C	1.559001	0.157789	0.576799
C40	C	1.559005	0.157788	0.423462
C41	C	1.407294	0.064929	0.423436
C42	C	1.407299	0.064927	0.576770
C43	C	1.646586	0.211403	0.576813
C44	C	1.646589	0.211402	0.423476
H45	H	0.891873	-0.015484	0.000131
H46	H	1.282705	-0.103043	0.000107
O47	O	1.054114	0.301983	-0.134893
H48	H	1.120540	0.263223	-0.200966
O49	O	1.062579	0.294355	0.139438
H50	H	0.981390	0.310450	0.213317
H51	H	1.278912	-0.246289	0.000120
H52	H	1.687377	-0.530986	0.000123
O53	O	1.603990	0.290425	0.368355
H54	H	1.604036	0.290375	0.246788
H55	H	1.683575	-0.674231	0.000132
O56	O	1.150844	-0.029609	0.000023
H57	H	1.093857	-0.078578	0.000032
O58	O	1.237840	-0.651876	0.000131
H59	H	1.159345	-0.605305	0.000150
H60	H	0.838839	0.282742	-0.105002
O61	O	1.325494	0.014848	0.659448
H62	H	1.272743	-0.017433	0.580365
H63	H	1.605893	0.268354	0.624382
H64	H	0.842677	0.288674	0.102121
H65	H	1.697927	-0.133615	0.000097
H66	H	1.746005	0.192913	0.618426
H67	H	1.694125	-0.276847	0.000118
H68	H	1.345539	0.027123	0.360986
O69	O	1.772506	0.180053	0.360461
H70	H	1.839264	0.163436	0.451055
O71	O	1.242190	-0.487756	0.000095
H72	H	1.161545	-0.522618	0.000067
