data_functionalizedCrystal
_audit_creation_method	'MofGen! by Chris Wilmer'
_symmetry_space_group_name_H-M	'P1'
_symmetry_Int_Tables_number	1
_symmetry_cell_setting	triclinic
loop_
_symmetry_equiv_pos_as_xyz
  x,y,z
_cell_length_a	18.215407
_cell_length_b	17.640280
_cell_length_c	18.215399
_cell_angle_alpha	78.775397
_cell_angle_beta	89.980167
_cell_angle_gamma	78.800709
loop_
_atom_site_label
_atom_site_type_symbol
_atom_site_fract_x
_atom_site_fract_y
_atom_site_fract_z
Zn1	Zn	1.184366	-0.314661	-0.356963
Zn2	Zn	1.684366	0.185339	0.143037
Zn3	Zn	1.209181	-0.446838	-0.209048
Zn4	Zn	1.709181	0.053162	0.290952
Zn5	Zn	1.061303	-0.314687	-0.233905
Zn6	Zn	1.561303	0.185313	0.266095
Zn7	Zn	1.086163	-0.446794	-0.332082
Zn8	Zn	1.586163	0.053206	0.167918
O9	O	1.135253	-0.380745	-0.282999
O10	O	1.635253	0.119255	0.217001
O11	O	1.290643	-0.332202	-0.337352
O12	O	1.790643	0.167798	0.162648
O13	O	1.189546	-0.429337	-0.109356
O14	O	1.689546	0.070663	0.390644
O15	O	1.056838	-0.204079	-0.271045
O16	O	1.556838	0.295921	0.228955
O17	O	1.308875	-0.429312	-0.228680
O18	O	1.808875	0.070688	0.271320
O19	O	1.147252	-0.204060	-0.361454
O20	O	1.647252	0.295940	0.138546
O21	O	1.080901	-0.332246	-0.127618
O22	O	1.580901	0.167754	0.372382
O23	O	0.961615	-0.332203	-0.246918
O24	O	1.461615	0.167797	0.253082
O25	O	1.099208	-0.429237	-0.438372
O26	O	1.599208	0.070763	0.061628
O27	O	0.979879	-0.429262	-0.319048
O28	O	1.479879	0.070738	0.180952
O29	O	1.171357	-0.332159	-0.456652
O30	O	1.671357	0.167841	0.043348
O31	O	1.213652	-0.557436	-0.204553
O32	O	1.713652	-0.057436	0.295447
O33	O	1.123271	-0.557404	-0.294945
O34	O	1.623271	-0.057404	0.205055
C35	C	0.944044	-0.380731	-0.282981
C36	C	1.444044	0.119269	0.217019
C37	C	0.862248	-0.380745	-0.282987
C38	C	1.362248	0.119255	0.217013
C39	C	0.683598	-0.431363	-0.320471
C40	C	1.183598	0.068637	0.179529
C41	C	0.606740	-0.431365	-0.320479
C42	C	1.106740	0.068635	0.179521
C43	C	0.587662	-0.330142	-0.245542
C44	C	1.087662	0.169858	0.254458
C45	C	0.664519	-0.330136	-0.245538
C46	C	1.164519	0.169864	0.254462
C47	C	0.712485	-0.380751	-0.283000
C48	C	1.212485	0.119249	0.217000
C49	C	0.558771	-0.380759	-0.283013
C50	C	1.058771	0.119241	0.216987
C51	C	0.475438	-0.380761	-0.283022
C52	C	0.975438	0.119239	0.216978
C53	C	0.795824	-0.380748	-0.282993
C54	C	1.295824	0.119252	0.217007
C55	C	1.173871	-0.586099	-0.244368
C56	C	1.673871	-0.086099	0.255632
C57	C	1.190460	-0.673950	-0.227866
C58	C	1.690460	-0.173950	0.272134
C59	C	1.009534	-0.962935	-0.408631
C60	C	1.509534	-0.462935	0.091369
C61	C	1.025123	-1.045484	-0.393101
C62	C	1.525123	-0.545484	0.106899
C63	C	1.119295	-1.045452	-0.299071
C64	C	1.619295	-0.545452	0.200929
C65	C	1.103717	-0.962901	-0.314596
C66	C	1.603717	-0.462901	0.185404
C67	C	1.048835	-0.921649	-0.369375
C68	C	1.548835	-0.421649	0.130625
C69	C	1.143018	-0.921615	-0.275340
C70	C	1.643018	-0.421615	0.224660
C71	C	1.127438	-0.839071	-0.290861
C72	C	1.627438	-0.339071	0.209139
C73	C	1.072557	-0.797813	-0.345636
C74	C	1.572557	-0.297813	0.154364
C75	C	1.033255	-0.839105	-0.384896
C76	C	1.533255	-0.339105	0.115104
C77	C	1.197896	-0.962869	-0.220557
C78	C	1.697896	-0.462869	0.279443
C79	C	1.237196	-0.921583	-0.181301
C80	C	1.737196	-0.421583	0.318699
C81	C	1.221620	-0.839038	-0.196825
C82	C	1.721620	-0.339038	0.303175
C83	C	1.166739	-0.797780	-0.251601
C84	C	1.666739	-0.297780	0.248399
C85	C	1.260922	-0.797746	-0.157566
C86	C	1.760922	-0.297746	0.342434
C87	C	1.245342	-0.715202	-0.173086
C88	C	1.745342	-0.215202	0.326914
C89	C	1.151159	-0.715236	-0.267122
C90	C	1.651159	-0.215236	0.232878
C91	C	1.327209	-0.380759	-0.283018
C92	C	1.827209	0.119241	0.216982
C93	C	1.409009	-0.380765	-0.283027
C94	C	1.909009	0.119235	0.216973
C95	C	1.135288	-0.380690	-0.474963
C96	C	1.635288	0.119310	0.025037
C97	C	1.135302	-0.380667	-0.556766
C98	C	1.635302	0.119333	-0.056766
C99	C	1.096504	-0.174589	-0.321798
C100	C	1.596504	0.325411	0.178202
C101	C	1.079991	-0.086738	-0.338331
C102	C	1.579991	0.413262	0.161669
C103	C	1.172878	-0.330072	-0.754489
C104	C	1.672878	0.169928	-0.254489
C105	C	1.172883	-0.330049	-0.831352
C106	C	1.672883	0.169951	-0.331352
C107	C	1.097755	-0.431141	-0.812304
C108	C	1.597755	0.068859	-0.312304
C109	C	1.097747	-0.431159	-0.735444
C110	C	1.597747	0.068841	-0.235444
C111	C	1.135313	-0.380626	-0.706537
C112	C	1.635313	0.119374	-0.206537
C113	C	1.135326	-0.380584	-0.860261
C114	C	1.635326	0.119416	-0.360261
C115	C	1.135330	-0.380560	-0.943600
C116	C	1.635330	0.119440	-0.443600
C117	C	1.135307	-0.380649	-0.623194
C118	C	1.635307	0.119351	-0.123194
C119	C	1.135250	-0.380742	-0.091794
C120	C	1.635250	0.119258	0.408206
C121	C	1.135336	-0.380543	-0.010033
C122	C	1.635336	0.119457	0.489967
H123	H	0.583224	-0.472577	-0.350993
H124	H	1.083224	0.027423	0.149007
H125	H	1.281879	-0.955182	-0.136698
H126	H	1.781879	-0.455182	0.363302
H127	H	1.203471	-0.288881	-0.870391
H128	H	1.703471	0.211119	-0.370391
H129	H	0.964849	-0.929345	-0.453244
H130	H	1.464849	-0.429345	0.046756
H131	H	0.548599	-0.288934	-0.215039
H132	H	1.048599	0.211066	0.284961
H133	H	1.067172	-0.472285	-0.835849
H134	H	1.567172	0.027715	-0.335849
O135	O	0.730144	-0.480438	-0.356988
O136	O	1.230144	0.019562	0.143012
C137	C	0.708150	-0.463272	-0.433590
C138	C	1.208150	0.036728	0.066410
H139	H	0.675148	-0.400136	-0.449274
H140	H	1.175148	0.099864	0.050726
H141	H	0.759997	-0.470124	-0.468647
H142	H	1.259997	0.029876	0.031353
H143	H	0.671520	-0.505675	-0.444791
H144	H	1.171520	-0.005675	0.055209
H145	H	1.305601	-0.831346	-0.112959
H146	H	1.805601	-0.331346	0.387041
O147	O	1.061155	-0.480159	-0.688847
O148	O	1.561155	0.019841	-0.188847
C149	C	1.005171	-0.435168	-0.652836
C150	C	1.505171	0.064832	-0.152836
H151	H	0.988924	-0.372913	-0.687718
H152	H	1.488924	0.127087	-0.187718
H153	H	0.953909	-0.463752	-0.646570
H154	H	1.453909	0.036248	-0.146570
H155	H	1.027408	-0.432457	-0.595103
H156	H	1.527408	0.067543	-0.095103
H157	H	0.688037	-0.288916	-0.215026
H158	H	1.188037	0.211084	0.284974
O159	O	1.097908	-0.675239	-0.320429
O160	O	1.597908	-0.175239	0.179571
C161	C	1.117765	-0.695342	-0.390011
C162	C	1.617765	-0.195342	0.109989
H163	H	1.157354	-0.755255	-0.380297
H164	H	1.657354	-0.255255	0.119703
H165	H	1.065175	-0.698181	-0.422437
H166	H	1.565175	-0.198181	0.077563
H167	H	1.146823	-0.648846	-0.423565
H168	H	1.646823	-0.148846	0.076435
H169	H	0.993124	-1.079096	-0.425081
H170	H	1.493124	-0.579096	0.074919
O171	O	1.057416	-0.717630	-0.360581
O172	O	1.557416	-0.217630	0.139419
C173	C	1.033343	-0.690098	-0.295214
C174	C	1.533343	-0.190098	0.204786
H175	H	1.054924	-0.737673	-0.243888
H176	H	1.554924	-0.237673	0.256112
H177	H	1.056116	-0.634851	-0.292555
H178	H	1.556116	-0.134851	0.207445
H179	H	0.969527	-0.675507	-0.296341
H180	H	1.469527	-0.175507	0.203659
H181	H	0.988570	-0.805515	-0.429509
H182	H	1.488570	-0.305515	0.070491
O183	O	1.172595	-1.085650	-0.245898
O184	O	1.672595	-0.585650	0.254102
C185	C	1.177901	-1.167359	-0.240595
C186	C	1.677901	-0.667359	0.259405
H187	H	1.155901	-1.178631	-0.295250
H188	H	1.655901	-0.678631	0.204750
H189	H	1.238938	-1.198693	-0.229749
H190	H	1.738938	-0.698693	0.270251
H191	H	1.143155	-1.190826	-0.192498
H192	H	1.643155	-0.690826	0.307502
H193	H	1.277344	-0.681587	-0.141120
H194	H	1.777344	-0.181587	0.358880
O195	O	1.213103	-1.043053	-0.205599
O196	O	1.713103	-0.543053	0.294401
C197	C	1.237146	-1.070577	-0.270977
C198	C	1.737146	-0.570577	0.229023
H199	H	1.260221	-1.022962	-0.310381
H200	H	1.760221	-0.522962	0.189619
H201	H	1.282861	-1.125767	-0.255362
H202	H	1.782861	-0.625767	0.244638
H203	H	1.187801	-1.085258	-0.300054
H204	H	1.687801	-0.585258	0.199946
O205	O	1.209372	-0.280906	-0.726537
O206	O	1.709372	0.219094	-0.226537
C207	C	1.242543	-0.236294	-0.785343
C208	C	1.742543	0.263706	-0.285343
H209	H	1.211891	-0.233546	-0.840641
H210	H	1.711891	0.266454	-0.340641
H211	H	1.238682	-0.174025	-0.774861
H212	H	1.738682	0.325975	-0.274861
H213	H	1.303879	-0.265235	-0.788081
H214	H	1.803879	0.234765	-0.288081
