data_functionalizedCrystal
_audit_creation_method	'MofGen! by Chris Wilmer'
_symmetry_space_group_name_H-M	'P1'
_symmetry_Int_Tables_number	1
_symmetry_cell_setting	triclinic
loop_
_symmetry_equiv_pos_as_xyz
  x,y,z
_cell_length_a	11.792241
_cell_length_b	11.792241
_cell_length_c	14.586319
_cell_angle_alpha	89.996059
_cell_angle_beta	90.000696
_cell_angle_gamma	84.193416
loop_
_atom_site_label
_atom_site_type_symbol
_atom_site_fract_x
_atom_site_fract_y
_atom_site_fract_z
O1	O	1.506907	0.155566	-0.076152
O2	O	1.756907	0.405566	0.173848
O3	O	2.006907	0.655566	0.423848
O4	O	2.256907	0.905566	0.673848
O5	O	1.176566	0.171599	-0.076173
O6	O	1.426566	0.421599	0.173827
O7	O	1.676566	0.671599	0.423827
O8	O	1.926566	0.921599	0.673827
O9	O	1.349753	-0.001588	-0.076155
O10	O	1.599753	0.248412	0.173845
O11	O	1.849753	0.498412	0.423845
O12	O	2.099753	0.748412	0.673845
O13	O	1.333720	0.328753	-0.076169
O14	O	1.583720	0.578753	0.173831
O15	O	1.833720	0.828753	0.423831
O16	O	2.083720	1.078753	0.673831
O17	O	1.349741	-0.001590	0.076325
O18	O	1.599741	0.248410	0.326325
O19	O	1.849741	0.498410	0.576325
O20	O	2.099741	0.748410	0.826325
O21	O	1.176554	0.171597	0.076308
O22	O	1.426554	0.421597	0.326308
O23	O	1.676554	0.671597	0.576308
O24	O	1.926554	0.921597	0.826308
O25	O	1.506895	0.155564	0.076329
O26	O	1.756895	0.405564	0.326329
O27	O	2.006895	0.655564	0.576329
O28	O	2.256895	0.905564	0.826329
Cu29	Cu	1.341724	0.163580	0.090241
Cu30	Cu	1.591724	0.413580	0.340241
Cu31	Cu	1.841724	0.663580	0.590241
Cu32	Cu	2.091724	0.913580	0.840241
Cu33	Cu	1.341738	0.163583	-0.090085
Cu34	Cu	1.591738	0.413583	0.159915
Cu35	Cu	1.841738	0.663583	0.409915
Cu36	Cu	2.091738	0.913583	0.659915
O37	O	1.333708	0.328751	0.076311
O38	O	1.583708	0.578751	0.326311
O39	O	1.833708	0.828751	0.576311
O40	O	2.083708	1.078751	0.826311
C41	C	1.134269	0.170591	0.000065
C42	C	1.384269	0.420591	0.250065
C43	C	1.634269	0.670591	0.500065
C44	C	1.884269	0.920591	0.750065
C45	C	1.008255	0.167576	0.000057
C46	C	1.258255	0.417576	0.250057
C47	C	1.508255	0.667576	0.500057
C48	C	1.758255	0.917576	0.750057
C49	C	0.777543	0.162034	0.000083
C50	C	1.027543	0.412034	0.250083
C51	C	1.277543	0.662034	0.500083
C52	C	1.527543	0.912034	0.750083
C53	C	0.905928	0.165113	0.000069
C54	C	1.155928	0.415113	0.250069
C55	C	1.405928	0.665113	0.500069
C56	C	1.655928	0.915113	0.750069
C57	C	1.348740	-0.043880	0.000085
C58	C	1.598740	0.206120	0.250085
C59	C	1.848740	0.456120	0.500085
C60	C	2.098740	0.706120	0.750085
C61	C	1.345726	-0.169894	0.000084
C62	C	1.595726	0.080106	0.250084
C63	C	1.845726	0.330106	0.500084
C64	C	2.095726	0.580106	0.750084
C65	C	1.340183	-0.400606	0.000068
C66	C	1.590183	-0.150606	0.250068
C67	C	1.840183	0.099394	0.500068
C68	C	2.090183	0.349394	0.750068
C69	C	1.343262	-0.272221	0.000076
C70	C	1.593262	-0.022221	0.250076
C71	C	1.843262	0.227779	0.500076
C72	C	2.093262	0.477779	0.750076
C73	C	1.549192	0.156572	0.000089
C74	C	1.799192	0.406572	0.250089
C75	C	2.049192	0.656572	0.500089
C76	C	2.299192	0.906572	0.750089
C77	C	1.675206	0.159587	0.000091
C78	C	1.925206	0.409587	0.250091
C79	C	2.175206	0.659587	0.500091
C80	C	2.425206	0.909587	0.750091
C81	C	1.334721	0.371043	0.000069
C82	C	1.584721	0.621043	0.250069
C83	C	1.834721	0.871043	0.500069
C84	C	2.084721	1.121043	0.750069
C85	C	1.337736	0.497057	0.000064
C86	C	1.587736	0.747057	0.250064
C87	C	1.837736	0.997057	0.500064
C88	C	2.087736	1.247057	0.750064
N89	N	1.341722	0.163577	0.217073
N90	N	1.591722	0.413577	0.467073
N91	N	1.841722	0.663577	0.717073
N92	N	2.091722	0.913577	0.967073
N93	N	1.341749	0.163577	-0.216917
N94	N	1.591749	0.413577	0.033083
N95	N	1.841749	0.663577	0.283083
N96	N	2.091749	0.913577	0.533083
C97	C	1.418435	0.086916	0.452087
C98	C	1.668435	0.336916	0.702087
C99	C	1.918435	0.586916	0.952087
C100	C	2.168435	0.836916	1.202087
C101	C	1.418438	0.086913	0.548068
C102	C	1.668438	0.336913	0.798068
C103	C	1.918438	0.586913	1.048068
C104	C	2.168438	0.836913	1.298068
C105	C	1.265027	0.240242	0.548062
C106	C	1.515027	0.490242	0.798062
C107	C	1.765027	0.740242	1.048062
C108	C	2.015027	0.990242	1.298062
C109	C	1.265020	0.240238	0.452083
C110	C	1.515020	0.490238	0.702083
C111	C	1.765020	0.740238	0.952083
C112	C	2.015020	0.990238	1.202083
C113	C	1.341730	0.163577	0.404098
C114	C	1.591730	0.413577	0.654098
C115	C	1.841730	0.663577	0.904098
C116	C	2.091730	0.913577	1.154098
C117	C	1.341741	0.163578	0.596058
C118	C	1.591741	0.413578	0.846058
C119	C	1.841741	0.663578	1.096058
C120	C	2.091741	0.913578	1.346058
C121	C	1.341744	0.163575	0.700126
C122	C	1.591744	0.413575	0.950126
C123	C	1.841744	0.663575	1.200126
C124	C	2.091744	0.913575	1.450126
C125	C	1.341726	0.163577	0.300024
C126	C	1.591726	0.413577	0.550024
C127	C	1.841726	0.663577	0.800024
C128	C	2.091726	0.913577	1.050024
H129	H	1.480897	0.024488	0.587139
H130	H	1.730897	0.274488	0.837139
H131	H	1.980897	0.524488	1.087139
H132	H	2.230897	0.774488	1.337139
H133	H	1.202573	0.302660	0.587141
H134	H	1.452573	0.552660	0.837141
H135	H	1.702573	0.802660	1.087141
H136	H	1.952573	1.052660	1.337141
H137	H	1.202552	0.302665	0.413007
H138	H	1.452552	0.552665	0.663007
H139	H	1.702552	0.802665	0.913007
H140	H	1.952552	1.052665	1.163007
N141	N	1.501140	0.004204	0.400333
N142	N	1.751140	0.254204	0.650333
N143	N	2.001140	0.504204	0.900333
N144	N	2.251140	0.754204	1.150333
H145	H	1.489495	0.015828	0.332248
H146	H	1.739495	0.265828	0.582248
H147	H	1.989495	0.515828	0.832248
H148	H	2.239495	0.765828	1.082248
H149	H	1.581744	0.017836	0.417099
H150	H	1.831744	0.267836	0.667099
H151	H	2.081744	0.517836	0.917099
H152	H	2.331744	0.767836	1.167099
