data_functionalizedCrystal
_audit_creation_method	'MofGen! by Chris Wilmer'
_symmetry_space_group_name_H-M	'P1'
_symmetry_Int_Tables_number	1
_symmetry_cell_setting	triclinic
loop_
_symmetry_equiv_pos_as_xyz
  x,y,z
_cell_length_a	16.120530
_cell_length_b	12.759400
_cell_length_c	12.759393
_cell_angle_alpha	89.968436
_cell_angle_beta	92.919000
_cell_angle_gamma	92.889638
loop_
_atom_site_label
_atom_site_type_symbol
_atom_site_fract_x
_atom_site_fract_y
_atom_site_fract_z
Zn1	Zn	1.274626	0.499755	0.675426
Zn2	Zn	1.774626	0.999755	1.175426
Zn3	Zn	1.274542	0.675468	0.499741
Zn4	Zn	1.774542	1.175468	0.999741
Zn5	Zn	1.135203	0.490889	0.490856
Zn6	Zn	1.635203	0.990889	0.990856
Zn7	Zn	1.135194	0.666471	0.666478
Zn8	Zn	1.635194	1.166471	1.166478
O9	O	1.204891	0.583146	0.583125
O10	O	1.704891	1.083146	1.083125
O11	O	1.391282	0.530539	0.659583
O12	O	1.891282	1.030539	1.159583
O13	O	1.256027	0.651038	0.351539
O14	O	1.756027	1.151038	0.851539
O15	O	1.153736	0.345047	0.515367
O16	O	1.653736	0.845047	1.015367
O17	O	1.391220	0.659635	0.530508
O18	O	1.891220	1.159635	1.030508
O19	O	1.256170	0.351560	0.650969
O20	O	1.756170	0.851560	1.150969
O21	O	1.153655	0.515429	0.345012
O22	O	1.653655	1.015429	0.845012
O23	O	1.018535	0.506705	0.506690
O24	O	1.518535	1.006705	1.006690
O25	O	1.153721	0.644301	0.814688
O26	O	1.653721	1.144301	1.314688
O27	O	1.018528	0.635704	0.635719
O28	O	1.518528	1.135704	1.135719
O29	O	1.256161	0.521815	0.821262
O30	O	1.756161	1.021815	1.321262
O31	O	1.256019	0.821293	0.521832
O32	O	1.756019	1.321293	1.021832
O33	O	1.153640	0.814683	0.644333
O34	O	1.653640	1.314683	1.144333
C35	C	1.204842	0.856110	0.583100
C36	C	1.704842	1.356110	1.083100
C37	C	1.204897	0.972890	0.583129
C38	C	1.704897	1.472890	1.083129
C39	C	0.988281	0.569267	0.569270
C40	C	1.488281	1.069267	1.069270
C41	C	0.895614	0.563355	0.563368
C42	C	1.395614	1.063355	1.063368
C43	C	1.204950	0.583044	0.857162
C44	C	1.704950	1.083044	1.357162
C45	C	1.204974	0.583000	0.973941
C46	C	1.704974	1.083000	1.473941
C47	C	0.725951	0.552536	0.552601
C48	C	1.225951	1.052536	1.052601
C49	C	0.684672	0.613833	0.613726
C50	C	1.184672	1.113833	1.113726
C51	C	0.590265	0.607813	0.607735
C52	C	1.090265	1.107813	1.107735
C53	C	0.820366	0.558555	0.558590
C54	C	1.320366	1.058555	1.058590
C55	C	1.422347	0.597080	0.597035
C56	C	1.922347	1.097080	1.097035
C57	C	1.515014	0.603017	0.602962
C58	C	2.015014	1.103017	1.102962
C59	C	1.204964	0.309117	0.583175
C60	C	1.704964	0.809117	1.083175
C61	C	1.204994	0.192343	0.583196
C62	C	1.704994	0.692343	1.083196
C63	C	1.258265	1.031163	0.519421
C64	C	1.758265	1.531163	1.019421
C65	C	1.258316	1.140890	0.519457
C66	C	1.758316	1.640890	1.019457
C67	C	1.151624	1.134062	0.646912
C68	C	1.651624	1.634062	1.146912
C69	C	1.151578	1.024337	0.646881
C70	C	1.651578	1.524337	1.146881
C71	C	1.311583	0.979716	0.455670
C72	C	1.811583	1.479716	0.955670
C73	C	1.364955	1.037989	0.391955
C74	C	1.864955	1.537989	0.891955
C75	C	1.365006	1.147717	0.391991
C76	C	1.865006	1.647717	0.891991
C77	C	1.311686	1.199171	0.455741
C78	C	1.811686	1.699171	0.955741
C79	C	1.204881	0.583175	0.310157
C80	C	1.704881	1.083175	0.810157
C81	C	1.205018	0.582933	0.193390
C82	C	1.705018	1.082933	0.693390
C83	C	1.258322	0.519216	1.032228
C84	C	1.758322	1.019216	1.532228
C85	C	1.258342	0.519179	1.141953
C86	C	1.758342	1.019179	1.641953
C87	C	1.151664	0.646720	1.135095
C88	C	1.651664	1.146720	1.635095
C89	C	1.151640	0.646750	1.025371
C90	C	1.651640	1.146750	1.525371
C91	C	1.311656	0.455465	0.980798
C92	C	1.811656	0.955465	1.480798
C93	C	1.365009	0.391677	1.039085
C94	C	1.865009	0.891677	1.539085
C95	C	1.365029	0.391640	1.148811
C96	C	1.865029	0.891640	1.648811
C97	C	1.311696	0.455392	1.200249
C98	C	1.811696	0.955392	1.700249
H99	H	0.720233	0.670829	0.670558
H100	H	1.220233	1.170829	1.170558
H101	H	0.690392	0.495544	0.495775
H102	H	1.190392	0.995544	0.995775
H103	H	1.108242	0.698623	1.176984
H104	H	1.608242	1.198623	1.676984
H105	H	1.108122	0.976891	0.698759
H106	H	1.608122	1.476891	1.198759
H107	H	1.311545	0.890371	0.455630
H108	H	1.811545	1.390371	0.955630
H109	H	1.408371	0.996090	0.340058
H110	H	1.908371	1.496090	0.840058
H111	H	1.311648	0.455490	0.891454
H112	H	1.811648	0.955490	1.391454
H113	H	1.408469	1.195160	0.340119
H114	H	1.908469	1.695160	0.840119
H115	H	1.311738	1.288519	0.455774
H116	H	1.811738	1.788519	0.955774
H117	H	1.108187	0.698672	0.977911
H118	H	1.608187	1.198672	1.477911
H119	H	1.108213	1.175965	0.698813
H120	H	1.608213	1.675965	1.198813
H121	H	1.408426	0.339765	0.997197
H122	H	1.908426	0.839765	1.497197
H123	H	1.408466	0.339692	1.196265
H124	H	1.908466	0.839692	1.696265
H125	H	1.311707	0.455344	1.289594
H126	H	1.811707	0.955344	1.789594
