data_functionalizedCrystal
_audit_creation_method	'MofGen! by Chris Wilmer'
_symmetry_space_group_name_H-M	'P1'
_symmetry_Int_Tables_number	1
_symmetry_cell_setting	triclinic
loop_
_symmetry_equiv_pos_as_xyz
  x,y,z
_cell_length_a	8.559649
_cell_length_b	9.016244
_cell_length_c	8.559649
_cell_angle_alpha	90.000963
_cell_angle_beta	69.778664
_cell_angle_gamma	90.006747
loop_
_atom_site_label
_atom_site_type_symbol
_atom_site_fract_x
_atom_site_fract_y
_atom_site_fract_z
O1	O	2.126890	0.123317	-0.055043
O2	O	1.651405	0.123323	0.028738
O3	O	1.931038	0.123318	-0.250895
O4	O	1.847257	0.123322	0.224590
O5	O	1.931001	-0.123363	-0.250884
O6	O	1.651368	-0.123358	0.028749
O7	O	2.126853	-0.123364	-0.055032
Cu8	Cu	1.889107	-0.145885	-0.013141
Cu9	Cu	1.889151	0.145844	-0.013153
O10	O	1.847220	-0.123359	0.224601
C11	C	1.591077	-0.000017	0.035093
C12	C	1.411378	-0.000014	0.053992
N13	N	1.889088	-0.351071	-0.013135
C14	C	1.739155	-0.586101	0.136060
C15	C	1.739384	-0.414210	0.136515
C16	C	2.053826	-0.413411	0.003067
C17	C	2.052979	-0.585356	0.004095
C18	C	1.876026	-0.585615	-0.179185
C19	C	1.871984	-0.413661	-0.177566
C20	C	2.187180	-0.000021	-0.061387
C21	C	2.366879	-0.000014	-0.080286
C22	C	1.937369	-0.000020	-0.311198
C23	C	1.956268	-0.000012	-0.490898
N24	N	1.889184	0.351030	-0.013174
C25	C	1.840889	-0.000018	0.284904
C26	C	1.821990	-0.000016	0.464604
H27	H	1.466258	-0.000007	-0.209705
C28	C	1.647151	-0.000000	-0.401154
H29	H	1.656957	0.000020	-0.293935
H30	H	1.588296	-0.086020	-0.413329
H31	H	1.588343	0.086037	-0.413357
H32	H	1.311990	-0.000005	0.183420
C33	C	2.207073	-0.358151	-0.141015
H34	H	2.171864	-0.296415	-0.212497
H35	H	2.266532	-0.440688	-0.202107
H36	H	2.277356	-0.303225	-0.097322
H37	H	2.069473	-0.370333	0.122005
C38	C	2.131116	-0.000013	-0.625149
H39	H	2.121314	-0.000009	-0.732369
H40	H	2.189943	-0.086029	-0.612952
H41	H	2.189949	0.086028	-0.612964
C42	C	1.573050	-0.357267	0.127646
H43	H	1.504726	-0.439221	0.123739
H44	H	1.593742	-0.298529	0.030432
H45	H	1.518040	-0.298942	0.223330
C46	C	1.572227	-0.642032	0.127736
H47	H	1.592527	-0.704234	0.033182
H48	H	1.506318	-0.559792	0.119125
H49	H	1.514860	-0.696613	0.225765
C50	C	1.747295	-0.644434	0.302163
H51	H	1.841731	-0.706932	0.280960
H52	H	1.649151	-0.699176	0.358691
H53	H	1.756061	-0.563171	0.369302
C54	C	2.024138	-0.640545	-0.328883
H55	H	2.093678	-0.701792	-0.290489
H56	H	2.086184	-0.557855	-0.386947
H57	H	1.983921	-0.695910	-0.401546
C58	C	1.747810	-0.358612	0.303522
H59	H	1.751123	-0.441113	0.371347
H60	H	1.652303	-0.300138	0.358653
H61	H	1.845236	-0.300302	0.283595
H62	H	2.067746	-0.625444	0.124532
H63	H	1.759644	-0.629062	-0.199924
C64	C	2.206864	-0.641542	-0.138612
H65	H	2.269627	-0.559278	-0.196948
H66	H	2.172050	-0.700101	-0.212861
H67	H	2.273870	-0.699889	-0.094051
C68	C	1.708421	-0.358631	-0.194836
H69	H	1.650790	-0.297756	-0.102239
H70	H	1.640891	-0.441297	-0.198326
H71	H	1.732681	-0.302857	-0.294591
H72	H	1.975747	-0.370687	-0.292210
