data_functionalizedCrystal
_audit_creation_method	'MofGen! by Chris Wilmer'
_symmetry_space_group_name_H-M	'P1'
_symmetry_Int_Tables_number	1
_symmetry_cell_setting	triclinic
loop_
_symmetry_equiv_pos_as_xyz
  x,y,z
_cell_length_a	19.077105
_cell_length_b	12.594516
_cell_length_c	19.076919
_cell_angle_alpha	87.722761
_cell_angle_beta	89.923776
_cell_angle_gamma	87.712633
loop_
_atom_site_label
_atom_site_type_symbol
_atom_site_fract_x
_atom_site_fract_y
_atom_site_fract_z
Zn1	Zn	1.058319	-0.514930	0.440450
Zn2	Zn	1.391652	-0.181597	0.773784
Zn3	Zn	1.724986	0.151736	1.107117
Zn4	Zn	1.062975	-0.686069	0.322954
Zn5	Zn	1.396308	-0.352736	0.656288
Zn6	Zn	1.729642	-0.019402	0.989621
Zn7	Zn	0.945535	-0.500672	0.318243
Zn8	Zn	1.278869	-0.167339	0.651576
Zn9	Zn	1.612202	0.165995	0.984909
Zn10	Zn	0.940797	-0.685427	0.435707
Zn11	Zn	1.274130	-0.352094	0.769040
Zn12	Zn	1.607463	-0.018761	1.102373
O13	O	1.001907	-0.596775	0.379338
O14	O	1.335240	-0.263441	0.712672
O15	O	1.668573	0.069892	1.046005
O16	O	1.157269	-0.543868	0.428821
O17	O	1.490602	-0.210535	0.762154
O18	O	1.823936	0.122798	1.095488
O19	O	1.051328	-0.655777	0.223998
O20	O	1.384662	-0.322444	0.557331
O21	O	1.717995	0.010890	0.890664
O22	O	0.960531	-0.353620	0.334467
O23	O	1.293864	-0.020287	0.667800
O24	O	1.627198	0.313046	1.001134
O25	O	1.160690	-0.669603	0.342497
O26	O	1.494023	-0.336270	0.675831
O27	O	1.827356	-0.002936	1.009164
O28	O	1.043393	-0.364096	0.424253
O29	O	1.376726	-0.030763	0.757586
O30	O	1.710059	0.302571	1.090919
O31	O	0.965046	-0.519567	0.220536
O32	O	1.298379	-0.186233	0.553869
O33	O	1.631712	0.147100	0.887203
O34	O	0.846574	-0.518944	0.329868
O35	O	1.179908	-0.185611	0.663201
O36	O	1.513241	0.147723	0.996534
O37	O	0.952455	-0.668509	0.534668
O38	O	1.285788	-0.335176	0.868001
O39	O	1.619121	-0.001842	1.201334
O40	O	0.843093	-0.654683	0.416168
O41	O	1.176426	-0.321350	0.749501
O42	O	1.509760	0.011984	1.082835
O43	O	1.038798	-0.543246	0.538153
O44	O	1.372131	-0.209913	0.871486
O45	O	1.705464	0.123421	1.204819
O46	O	1.046733	-0.834927	0.337898
O47	O	1.380067	-0.501593	0.671231
O48	O	1.713400	-0.168260	1.004564
O49	O	0.956969	-0.834455	0.420737
O50	O	1.290303	-0.501122	0.754070
O51	O	1.623636	-0.167789	1.087403
C52	C	0.819337	-0.585197	0.371992
C53	C	1.152671	-0.251864	0.705326
C54	C	1.486004	0.081469	1.038659
C55	C	0.741233	-0.580271	0.368866
C56	C	1.074566	-0.246938	0.702199
C57	C	1.407899	0.086395	1.035533
C58	C	0.702747	-0.648728	0.412259
C59	C	1.036081	-0.315394	0.745592
C60	C	1.369414	0.017939	1.078925
C61	C	0.629360	-0.644085	0.409325
C62	C	0.962693	-0.310752	0.742658
C63	C	1.296026	0.022582	1.075992
C64	C	0.594459	-0.570991	0.362994
C65	C	0.927792	-0.237657	0.696328
C66	C	1.261125	0.095676	1.029661
C67	C	0.632949	-0.502527	0.319600
C68	C	0.966282	-0.169194	0.652933
C69	C	1.299616	0.164139	0.986266
C70	C	0.706335	-0.507165	0.322538
C71	C	1.039668	-0.173832	0.655871
C72	C	1.373002	0.159501	0.989204
C73	C	0.375169	-0.549525	0.349400
C74	C	0.708503	-0.216192	0.682734
C75	C	1.041836	0.117141	1.016067
C76	C	0.301778	-0.544895	0.346464
C77	C	0.635111	-0.211561	0.679797
C78	C	0.968445	0.121772	1.013131
C79	C	0.298194	-0.686452	0.436191
C80	C	0.631527	-0.353118	0.769524
C81	C	0.964860	-0.019785	1.102857
C82	C	0.371582	-0.691088	0.439121
C83	C	0.704915	-0.357754	0.772455
C84	C	1.038248	-0.024421	1.105788
C85	C	0.410065	-0.622620	0.395730
C86	C	0.743399	-0.289287	0.729063
C87	C	1.076732	0.044046	1.062396
N88	N	0.519445	-0.566246	0.359993
N89	N	0.852778	-0.232913	0.693326
N90	N	1.186111	0.100421	1.026659
N91	N	0.485078	-0.627361	0.398735
N92	N	0.818411	-0.294028	0.732069
N93	N	1.151745	0.039306	1.065402
C94	C	1.001861	-0.873312	0.379330
C95	C	1.335194	-0.539979	0.712663
C96	C	1.668527	-0.206646	1.045996
C97	C	1.001905	-0.991622	0.379352
C98	C	1.335238	-0.658288	0.712685
C99	C	1.668571	-0.324955	1.046019
C100	C	0.953079	-1.060655	0.424375
C101	C	1.286412	-0.727322	0.757708
C102	C	1.619745	-0.393988	1.091042
C103	C	0.938538	-1.126689	0.359570
C104	C	1.271871	-0.793356	0.692903
C105	C	1.605205	-0.460022	1.026236
C106	C	1.016509	-1.136391	0.444171
C107	C	1.349842	-0.803058	0.777504
C108	C	1.683176	-0.469725	1.110838
C109	C	0.987331	-1.056094	0.314511
C110	C	1.320665	-0.722760	0.647845
C111	C	1.653998	-0.389427	0.981178
C112	C	1.065330	-1.065794	0.399157
C113	C	1.398664	-0.732461	0.732491
C114	C	1.731997	-0.399127	1.065824
C115	C	1.050816	-1.131795	0.334309
C116	C	1.384149	-0.798462	0.667642
C117	C	1.717482	-0.465128	1.000975
C118	C	1.185189	-0.608398	0.386714
C119	C	1.518522	-0.275064	0.720047
C120	C	1.851855	0.058269	1.053381
C121	C	1.263293	-0.613351	0.389857
C122	C	1.596626	-0.280018	0.723190
C123	C	1.929959	0.053316	1.056523
C124	C	0.994578	-0.607396	0.562619
C125	C	1.327911	-0.274063	0.895953
C126	C	1.661245	0.059270	1.229286
C127	C	0.991455	-0.611923	0.640723
C128	C	1.324788	-0.278589	0.974056
C129	C	1.658122	0.054744	1.307389
C130	C	1.001971	-0.319159	0.379363
C131	C	1.335304	0.014174	0.712697
C132	C	1.668638	0.347507	1.046030
C133	C	1.001998	-0.200856	0.379374
C134	C	1.335332	0.132477	0.712707
C135	C	1.668665	0.465811	1.046041
C136	C	1.009247	-0.586120	0.196772
C137	C	1.342580	-0.252787	0.530106
C138	C	1.675914	0.080547	0.863439
C139	C	1.012506	-0.581302	0.118675
C140	C	1.345839	-0.247969	0.452008
C141	C	1.679173	0.085364	0.785341
C142	C	1.034940	-0.548834	0.679231
C143	C	1.368273	-0.215501	1.012565
C144	C	1.701607	0.117832	1.345898
C145	C	1.031997	-0.553083	0.752617
C146	C	1.365330	-0.219749	1.085951
C147	C	1.698664	0.113584	1.419284
C148	C	0.985572	-0.620426	0.787494
C149	C	1.318906	-0.287092	1.120827
C150	C	1.652239	0.046241	1.454160
C151	C	0.942083	-0.683517	0.748980
C152	C	1.275416	-0.350183	1.082313
C153	C	1.608750	-0.016850	1.415646
C154	C	0.945023	-0.679262	0.675595
C155	C	1.278356	-0.345929	1.008928
C156	C	1.611689	-0.012595	1.342261
C157	C	0.971956	-0.640139	1.006776
C158	C	1.305290	-0.306805	1.340109
C159	C	1.638623	0.026528	1.673443
C160	C	0.969021	-0.644391	1.080166
C161	C	1.302355	-0.311058	1.413499
C162	C	1.635688	0.022276	1.746833
C163	C	1.058935	-0.513955	1.083799
C164	C	1.392268	-0.180622	1.417132
C165	C	1.725601	0.152712	1.750465
C166	C	1.061873	-0.509711	1.010412
C167	C	1.395207	-0.176378	1.343746
C168	C	1.728540	0.156956	1.677079
C169	C	1.018381	-0.572798	0.971905
C170	C	1.351715	-0.239464	1.305238
C171	C	1.685048	0.093869	1.638571
N172	N	0.982565	-0.624772	0.862506
N173	N	1.315898	-0.291439	1.195839
N174	N	1.649231	0.041894	1.529173
N175	N	1.021386	-0.568445	0.896894
N176	N	1.354719	-0.235111	1.230227
N177	N	1.688053	0.098222	1.563560
H178	H	0.737669	-0.451416	0.287206
H179	H	1.071002	-0.118082	0.620540
H180	H	1.404336	0.215251	0.953873
H181	H	1.099679	-0.454876	0.982021
H182	H	1.433013	-0.121543	1.315355
H183	H	1.766346	0.211791	1.648688
H184	H	0.909606	-0.730624	0.644242
H185	H	1.242939	-0.397291	0.977575
H186	H	1.576272	-0.063957	1.310908
H187	H	1.092148	-1.162827	0.296198
H188	H	1.425481	-0.829494	0.629531
H189	H	1.758815	-0.496161	0.962865
H190	H	1.118911	-1.038859	0.415922
H191	H	1.452244	-0.705526	0.749255
H192	H	1.785578	-0.372192	1.082589
H193	H	0.936552	-0.691524	0.975432
H194	H	1.269886	-0.358191	1.308765
H195	H	1.603219	-0.024858	1.642099
H196	H	0.931215	-0.699232	1.108560
H197	H	1.264548	-0.365899	1.441893
H198	H	1.597881	-0.032565	1.775227
H199	H	1.072746	-0.494000	0.650841
H200	H	1.406079	-0.160666	0.984174
H201	H	1.739413	0.172667	1.317507
H202	H	0.904280	-0.738345	0.777382
H203	H	1.237614	-0.405011	1.110715
H204	H	1.570947	-0.071678	1.444048
H205	H	0.911720	-1.029418	0.462389
H206	H	1.245053	-0.696085	0.795722
H207	H	1.578386	-0.362752	1.129055
H208	H	1.028824	-1.171502	0.498979
H209	H	1.362157	-0.838169	0.832312
H210	H	1.695490	-0.504835	1.165646
H211	H	1.067409	-0.501712	0.783968
H212	H	1.400742	-0.168379	1.117301
H213	H	1.734075	0.164955	1.450635
H214	H	0.273363	-0.485360	0.308740
H215	H	0.606697	-0.152027	0.642074
H216	H	0.940030	0.181306	0.975407
H217	H	0.731159	-0.708252	0.449984
H218	H	1.064492	-0.374919	0.783317
H219	H	1.397825	-0.041586	1.116651
H220	H	0.406494	-0.493782	0.314062
H221	H	0.739828	-0.160449	0.647396
H222	H	1.073161	0.172884	0.980729
H223	H	0.598028	-0.699830	0.444659
H224	H	0.931362	-0.366497	0.777993
H225	H	1.264695	-0.033164	1.111326
H226	H	0.884944	-1.153628	0.342835
H227	H	1.218277	-0.820295	0.676168
H228	H	1.551610	-0.486961	1.009502
H229	H	0.399993	-0.750611	0.476847
H230	H	0.733326	-0.417278	0.810180
H231	H	1.066660	-0.083944	1.143514
H232	H	0.974954	-1.021106	0.259686
H233	H	1.308288	-0.687773	0.593019
H234	H	1.641621	-0.354440	0.926353
H235	H	0.266852	-0.742192	0.471519
H236	H	0.600186	-0.408859	0.804852
H237	H	0.933519	-0.075526	1.138185
H238	H	0.604527	-0.443008	0.281879
H239	H	0.937860	-0.109675	0.615213
H240	H	1.271193	0.223659	0.948546
H241	H	1.094343	-0.462592	1.115159
H242	H	1.427676	-0.129259	1.448493
H243	H	1.761009	0.204075	1.781826
