data_functionalizedCrystal
_audit_creation_method	'MofGen! by Chris Wilmer'
_symmetry_space_group_name_H-M	'P1'
_symmetry_Int_Tables_number	1
_symmetry_cell_setting	triclinic
loop_
_symmetry_equiv_pos_as_xyz
  x,y,z
_cell_length_a	14.560438
_cell_length_b	14.560438
_cell_length_c	14.560438
_cell_angle_alpha	60.000905
_cell_angle_beta	90.001334
_cell_angle_gamma	59.999682
loop_
_atom_site_label
_atom_site_type_symbol
_atom_site_fract_x
_atom_site_fract_y
_atom_site_fract_z
Zr1	Zr	0.884763	1.005268	-0.120497
O2	O	0.738112	1.196873	-0.267144
O3	O	0.929719	0.813667	-0.075545
O4	O	0.929715	1.005271	-0.267146
O5	O	0.738120	1.005267	0.075597
O6	O	1.080855	1.005269	-0.267144
O7	O	0.738116	1.005269	-0.075543
O8	O	1.080863	0.662525	0.075595
O9	O	0.738112	1.348011	-0.267141
O10	O	1.061687	0.892473	-0.056369
O11	O	0.948896	0.892472	0.056425
O12	O	0.948891	1.118061	-0.169161
O13	O	0.836099	1.118060	-0.056367
Zr14	Zr	1.125821	1.005262	0.120557
Zr15	Zr	1.125814	1.005266	-0.120495
Zr16	Zr	0.884769	1.005264	0.120555
Zr17	Zr	0.884764	1.246316	-0.120493
Zr18	Zr	1.125820	0.764215	0.120553
O19	O	1.080864	1.196864	0.075605
O20	O	1.080856	1.196870	-0.267140
O21	O	0.738120	1.196867	0.075601
O22	O	1.272472	0.813658	0.267204
O23	O	1.272463	0.813663	-0.075541
O24	O	0.929728	0.813661	0.267200
O25	O	1.272464	1.005264	-0.075538
O26	O	1.080869	1.005260	0.267205
O27	O	0.929729	1.005262	0.267204
O28	O	1.272468	1.005262	0.075603
O29	O	0.929716	1.348009	-0.267139
O30	O	1.080868	0.662521	0.267199
O31	O	1.272472	0.662520	0.267201
O32	O	1.272467	0.662523	0.075597
O33	O	0.738117	1.348008	-0.075537
O34	O	0.929721	1.348006	-0.075535
O35	O	1.061693	0.892469	0.169220
O36	O	1.174485	0.892470	0.056427
O37	O	1.061688	1.118058	-0.056365
O38	O	0.948896	1.118057	0.056429
C39	C	1.005291	0.703751	0.000024
C40	C	1.005291	0.601420	0.000022
C41	C	1.064165	0.553345	-0.058855
C42	C	1.064169	0.457185	-0.058844
C43	C	0.946417	0.457190	0.058922
C44	C	0.946420	0.553341	0.058917
C45	C	0.703774	1.005268	0.000027
C46	C	0.601441	1.005269	0.000025
C47	C	0.553363	1.005273	-0.083241
C48	C	0.457215	1.005265	-0.083235
C49	C	0.457230	1.005253	0.083309
C50	C	0.553380	1.005253	0.083307
C51	C	1.306810	1.005262	0.000033
C52	C	1.409143	1.005261	0.000034
C53	C	1.005284	1.005270	-0.301490
C54	C	1.005282	1.005272	-0.403822
C55	C	1.005292	1.306779	0.000036
C56	C	1.005293	1.409110	0.000038
C57	C	0.946404	1.123025	-0.510775
C58	C	0.946417	1.123018	-0.606924
C59	C	1.064187	0.887497	-0.489154
C60	C	1.064180	0.887504	-0.393008
C61	C	1.005300	1.005260	0.301549
C62	C	1.005302	1.005259	0.403882
C63	C	1.306810	0.703749	0.000028
C64	C	1.409142	0.601417	0.000027
C65	C	1.005299	0.703746	0.301544
C66	C	1.005301	0.601414	0.403875
C67	C	1.306817	0.703744	0.301547
C68	C	1.409152	0.601410	0.403879
C69	C	0.703766	1.306787	-0.301487
C70	C	0.601432	1.409121	-0.403819
C71	C	0.703774	1.306782	0.000032
C72	C	0.601442	1.409114	0.000033
C73	C	1.005285	1.306784	-0.301484
C74	C	1.005282	1.409117	-0.403815
C75	C	1.398342	0.553340	-0.058849
C76	C	1.494498	0.457196	-0.058854
C77	C	1.612251	0.457210	0.058903
C78	C	1.516096	0.553359	0.058900
C79	C	1.064180	0.553334	0.510828
C80	C	1.064170	0.457191	0.606975
C81	C	0.946400	0.457211	0.489201
C82	C	0.946404	0.553359	0.393057
C83	C	1.516105	0.553331	0.393081
C84	C	1.612256	0.457187	0.489237
C85	C	1.494487	0.457203	0.606986
C86	C	1.398339	0.553353	0.510831
H87	H	0.898485	0.418033	0.106871
H88	H	1.112134	0.592462	0.519643
H89	H	0.898477	0.592483	0.106867
H90	H	1.485694	0.418058	-0.106799
C91	C	1.128946	0.757968	-0.275348
C92	C	1.193719	0.628428	-0.263448
C93	C	1.258485	0.498898	-0.145791
C94	C	1.258479	0.498909	-0.040035
C95	C	1.193704	0.628454	-0.051932
C96	C	1.128938	0.757983	-0.169589
H97	H	1.193726	0.628415	-0.341738
H98	H	1.306436	0.403000	-0.136985
H99	H	1.306423	0.403023	0.047061
H100	H	1.193697	0.628466	0.026358
H101	H	1.080987	0.853881	-0.178395
H102	H	0.592493	1.005284	-0.151052
H103	H	0.898452	0.592509	0.305964
H104	H	0.898446	1.218919	-0.519587
H105	H	0.418073	1.005266	-0.151037
H106	H	1.699342	0.418068	0.106837
H107	H	1.112111	0.418043	-0.106786
H108	H	1.524898	0.592507	0.106844
C109	C	0.881621	0.404344	0.477307
C110	C	0.881614	0.298582	0.583058
C111	C	0.816834	0.245717	0.571159
C112	C	0.752061	0.298612	0.453509
C113	C	0.752066	0.404379	0.347749
C114	C	0.816845	0.457245	0.359648
H115	H	0.929564	0.259421	0.670157
H116	H	0.816831	0.167421	0.649450
H117	H	0.704107	0.259478	0.444701
H118	H	0.704115	0.443541	0.260650
H119	H	0.816848	0.535541	0.281357
H120	H	1.112113	0.418050	0.694059
H121	H	1.524916	0.592459	0.306000
H122	H	1.311246	0.592502	0.519632
H123	H	0.418088	1.005243	0.151114
H124	H	1.112103	0.592487	-0.106809
H125	H	1.311259	0.592477	-0.106799
H126	H	0.592531	1.005245	0.151118
H127	H	0.898475	1.218904	-0.694006
H128	H	1.112138	0.791615	-0.480362
H129	H	1.699340	0.418045	0.480437
H130	H	1.485696	0.418061	0.694075
