data_functionalizedCrystal
_audit_creation_method	'MofGen! by Chris Wilmer'
_symmetry_space_group_name_H-M	'P1'
_symmetry_Int_Tables_number	1
_symmetry_cell_setting	triclinic
loop_
_symmetry_equiv_pos_as_xyz
  x,y,z
_cell_length_a	16.120530
_cell_length_b	19.121063
_cell_length_c	16.120297
_cell_angle_alpha	84.820568
_cell_angle_beta	89.871860
_cell_angle_gamma	89.687057
loop_
_atom_site_label
_atom_site_type_symbol
_atom_site_fract_x
_atom_site_fract_y
_atom_site_fract_z
Zn1	Zn	1.228532	-0.355748	0.551587
Zn2	Zn	1.478532	-0.105748	0.801587
Zn3	Zn	1.728532	0.144252	1.051587
Zn4	Zn	1.978532	0.394252	1.301587
Zn5	Zn	1.229542	-0.467532	0.417878
Zn6	Zn	1.479542	-0.217532	0.667878
Zn7	Zn	1.729542	0.032468	0.917878
Zn8	Zn	1.979542	0.282468	1.167878
Zn9	Zn	1.097153	-0.343883	0.404937
Zn10	Zn	1.347153	-0.093883	0.654937
Zn11	Zn	1.597153	0.156117	0.904937
Zn12	Zn	1.847153	0.406117	1.154937
Zn13	Zn	1.083532	-0.466885	0.549816
Zn14	Zn	1.333532	-0.216885	0.799816
Zn15	Zn	1.583532	0.033115	1.049816
Zn16	Zn	1.833532	0.283115	1.299816
O17	O	1.159690	-0.408512	0.481054
O18	O	1.409690	-0.158512	0.731054
O19	O	1.659690	0.091488	0.981054
O20	O	1.909690	0.341488	1.231054
O21	O	1.344754	-0.375813	0.540007
O22	O	1.594754	-0.125813	0.790007
O23	O	1.844754	0.124187	1.040007
O24	O	2.094754	0.374187	1.290007
O25	O	1.218103	-0.446434	0.299571
O26	O	1.468103	-0.196434	0.549571
O27	O	1.718103	0.053566	0.799571
O28	O	1.968103	0.303566	1.049571
O29	O	1.119859	-0.247198	0.419716
O30	O	1.369859	0.002802	0.669716
O31	O	1.619859	0.252802	0.919716
O32	O	1.869859	0.502802	1.169716
O33	O	1.345496	-0.457940	0.441771
O34	O	1.595496	-0.207940	0.691771
O35	O	1.845496	0.042060	0.941771
O36	O	2.095496	0.292060	1.191771
O37	O	1.216382	-0.255916	0.527458
O38	O	1.466382	-0.005916	0.777458
O39	O	1.716382	0.244084	1.027458
O40	O	1.966382	0.494084	1.277458
O41	O	1.120838	-0.355590	0.290063
O42	O	1.370838	-0.105590	0.540063
O43	O	1.620838	0.144410	0.790063
O44	O	1.870838	0.394410	1.040063
O45	O	0.979258	-0.354963	0.417999
O46	O	1.229258	-0.104963	0.667999
O47	O	1.479258	0.145037	0.917999
O48	O	1.729258	0.395037	1.167999
O49	O	1.096644	-0.456838	0.666641
O50	O	1.346644	-0.206838	0.916641
O51	O	1.596644	0.043162	1.166641
O52	O	1.846644	0.293162	1.416641
O53	O	0.969251	-0.445332	0.524441
O54	O	1.219251	-0.195332	0.774441
O55	O	1.469251	0.054668	1.024441
O56	O	1.719251	0.304668	1.274441
O57	O	1.203175	-0.375186	0.667942
O58	O	1.453175	-0.125186	0.917942
O59	O	1.703175	0.124814	1.167942
O60	O	1.953175	0.374814	1.417942
O61	O	1.204895	-0.565705	0.440054
O62	O	1.454895	-0.315705	0.690054
O63	O	1.704895	-0.065705	0.940054
O64	O	1.954895	0.184295	1.190054
O65	O	1.097623	-0.565230	0.536989
O66	O	1.347623	-0.315230	0.786989
O67	O	1.597623	-0.065230	1.036989
O68	O	1.847623	0.184770	1.286989
C69	C	0.944155	-0.398790	0.469624
C70	C	1.194155	-0.148790	0.719624
C71	C	1.444155	0.101210	0.969624
C72	C	1.694155	0.351210	1.219624
C73	C	0.851946	-0.394649	0.464754
C74	C	1.101946	-0.144649	0.714754
C75	C	1.351946	0.105351	0.964754
C76	C	1.601946	0.355351	1.214754
C77	C	1.149912	-0.590946	0.489753
C78	C	1.399912	-0.340946	0.739753
C79	C	1.649912	-0.090946	0.989753
C80	C	1.899912	0.159054	1.239753
C81	C	1.145804	-0.668997	0.493506
C82	C	1.395804	-0.418997	0.743506
C83	C	1.645804	-0.168997	0.993506
C84	C	1.895804	0.081003	1.243506
C85	C	0.683119	-0.387072	0.455870
C86	C	0.933119	-0.137072	0.705870
C87	C	1.183119	0.112928	0.955870
C88	C	1.433119	0.362928	1.205870
C89	C	0.637096	-0.430006	0.506302
C90	C	0.887096	-0.180006	0.756302
C91	C	1.137096	0.069994	1.006302
C92	C	1.387096	0.319994	1.256302
C93	C	0.543155	-0.425790	0.501358
C94	C	0.793155	-0.175790	0.751358
C95	C	1.043155	0.074210	1.001358
C96	C	1.293155	0.324210	1.251358
C97	C	0.777068	-0.391287	0.460812
C98	C	1.027068	-0.141287	0.710812
C99	C	1.277068	0.108713	0.960812
C100	C	1.527068	0.358713	1.210812
C101	C	1.199763	-0.705893	0.444847
C102	C	1.449763	-0.455893	0.694847
C103	C	1.699763	-0.205893	0.944847
C104	C	1.949763	0.044107	1.194847
C105	C	1.195904	-0.779230	0.448382
C106	C	1.445904	-0.529230	0.698382
C107	C	1.695904	-0.279230	0.948382
C108	C	1.945904	-0.029230	1.198382
C109	C	1.138080	-0.815670	0.500573
C110	C	1.388080	-0.565670	0.750573
C111	C	1.638080	-0.315670	1.000573
C112	C	1.888080	-0.065670	1.250573
C113	C	1.084118	-0.778769	0.549237
C114	C	1.334118	-0.528769	0.799237
C115	C	1.584118	-0.278769	1.049237
C116	C	1.834118	-0.028769	1.299237
C117	C	1.087982	-0.705433	0.545706
C118	C	1.337982	-0.455433	0.795706
C119	C	1.587982	-0.205433	1.045706
C120	C	1.837982	0.044567	1.295706
C121	C	1.123621	-1.037085	0.513761
C122	C	1.373621	-0.787085	0.763761
C123	C	1.623621	-0.537085	1.013761
C124	C	1.873621	-0.287085	1.263761
C125	C	1.119760	-1.110426	0.517287
C126	C	1.369760	-0.860426	0.767287
C127	C	1.619760	-0.610426	1.017287
C128	C	1.869760	-0.360426	1.267287
C129	C	1.231547	-1.110882	0.416433
C130	C	1.481547	-0.860882	0.666433
C131	C	1.731547	-0.610882	0.916433
C132	C	1.981547	-0.360882	1.166433
C133	C	1.235403	-1.037545	0.412903
C134	C	1.485403	-0.787545	0.662903
C135	C	1.735403	-0.537545	0.912903
C136	C	1.985403	-0.287545	1.162903
C137	C	1.181443	-1.000650	0.461570
C138	C	1.431443	-0.750650	0.711570
C139	C	1.681443	-0.500650	0.961570
C140	C	1.931443	-0.250650	1.211570
C141	C	1.134132	-0.890632	0.504185
C142	C	1.384132	-0.640632	0.754185
C143	C	1.634132	-0.390632	1.004185
C144	C	1.884132	-0.140632	1.254185
C145	C	1.185396	-0.925690	0.457962
C146	C	1.435396	-0.675690	0.707962
C147	C	1.685396	-0.425690	0.957962
C148	C	1.935396	-0.175690	1.207962
C149	C	1.376067	-0.418272	0.492530
C150	C	1.626067	-0.168272	0.742530
C151	C	1.876067	0.081728	0.992530
C152	C	2.126067	0.331728	1.242530
C153	C	1.468274	-0.422431	0.497420
C154	C	1.718274	-0.172431	0.747420
C155	C	1.968274	0.077569	0.997420
C156	C	2.218274	0.327569	1.247420
C157	C	1.148278	-0.417263	0.698367
C158	C	1.398278	-0.167263	0.948367
C159	C	1.648278	0.082737	1.198367
C160	C	1.898278	0.332737	1.448367
C161	C	1.143414	-0.420993	0.790973
C162	C	1.393414	-0.170993	1.040973
C163	C	1.643414	0.079007	1.290973
C164	C	1.893414	0.329007	1.540973
C165	C	1.169527	-0.225367	0.472341
C166	C	1.419527	0.024633	0.722341
C167	C	1.669527	0.274633	0.972341
C168	C	1.919527	0.524633	1.222341
C169	C	1.173720	-0.147322	0.468628
C170	C	1.423720	0.102678	0.718628
C171	C	1.673720	0.352678	0.968628
C172	C	1.923720	0.602678	1.218628
C173	C	1.171108	-0.399746	0.264587
C174	C	1.421108	-0.149746	0.514587
C175	C	1.671108	0.100254	0.764587
C176	C	1.921108	0.350254	1.014587
C177	C	1.176143	-0.395826	0.171981
C178	C	1.426143	-0.145826	0.421981
C179	C	1.676143	0.104174	0.671981
C180	C	1.926143	0.354174	0.921981
C181	C	1.134506	-0.427785	0.960523
C182	C	1.384506	-0.177785	1.210523
C183	C	1.634506	0.072215	1.460523
C184	C	1.884506	0.322215	1.710523
C185	C	1.185049	-0.389036	1.002436
C186	C	1.435049	-0.139036	1.252436
C187	C	1.685049	0.110964	1.502436
C188	C	1.935049	0.360964	1.752436
C189	C	1.180092	-0.392815	1.096780
C190	C	1.430092	-0.142815	1.346780
C191	C	1.680092	0.107185	1.596780
C192	C	1.930092	0.357185	1.846780
C193	C	1.139461	-0.424006	0.866171
C194	C	1.389461	-0.174006	1.116171
C195	C	1.639461	0.075994	1.366171
C196	C	1.889461	0.325994	1.616171
H197	H	0.668246	-0.469929	0.553190
H198	H	0.918246	-0.219929	0.803190
H199	H	1.168246	0.030071	1.053190
H200	H	1.418246	0.280071	1.303190
H201	H	1.087516	-0.463794	0.995491
H202	H	1.337516	-0.213794	1.245491
H203	H	1.587516	0.036206	1.495491
H204	H	1.837516	0.286206	1.745491
H205	H	0.651970	-0.347152	0.408986
H206	H	0.901970	-0.097152	0.658986
H207	H	1.151970	0.152848	0.908986
H208	H	1.401970	0.402848	1.158986
H209	H	1.246846	-0.676228	0.402345
H210	H	1.496846	-0.426228	0.652345
H211	H	1.746846	-0.176228	0.902345
H212	H	1.996846	0.073772	1.152345
C213	C	1.070519	-0.930722	0.561584
C214	C	1.320519	-0.680722	0.811584
C215	C	1.570519	-0.430722	1.061584
C216	C	1.820519	-0.180722	1.311584
N217	N	1.022604	-0.960920	0.604814
N218	N	1.272604	-0.710920	0.854814
N219	N	1.522604	-0.460920	1.104814
N220	N	1.772604	-0.210920	1.354814
C221	C	1.298993	-0.997465	0.355467
C222	C	1.548993	-0.747465	0.605467
C223	C	1.798993	-0.497465	0.855467
C224	C	2.048993	-0.247465	1.105467
N225	N	1.346881	-0.967276	0.312195
N226	N	1.596881	-0.717276	0.562195
N227	N	1.846881	-0.467276	0.812195
N228	N	2.096881	-0.217276	1.062195
C229	C	1.255259	-0.819812	0.394848
C230	C	1.505259	-0.569812	0.644848
C231	C	1.755259	-0.319812	0.894848
C232	C	2.005259	-0.069812	1.144848
N233	N	1.299968	-0.850378	0.354521
N234	N	1.549968	-0.600378	0.604521
N235	N	1.799968	-0.350378	0.854521
N236	N	2.049968	-0.100378	1.104521
C237	C	1.290901	-1.151472	0.362905
C238	C	1.540901	-0.901472	0.612905
C239	C	1.790901	-0.651472	0.862905
C240	C	2.040901	-0.401472	1.112905
N241	N	1.335609	-1.182045	0.322587
N242	N	1.585609	-0.932045	0.572587
N243	N	1.835609	-0.682045	0.822587
N244	N	2.085609	-0.432045	1.072587
H245	H	1.079684	-1.007051	0.553387
H246	H	1.329684	-0.757051	0.803387
H247	H	1.579684	-0.507051	1.053387
H248	H	1.829684	-0.257051	1.303387
C249	C	1.056152	-1.150508	0.574708
C250	C	1.306152	-0.900508	0.824708
C251	C	1.556152	-0.650508	1.074708
C252	C	1.806152	-0.400508	1.324708
N253	N	1.008245	-1.180698	0.617957
N254	N	1.258245	-0.930698	0.867957
N255	N	1.508245	-0.680698	1.117957
N256	N	1.758245	-0.430698	1.367957
C257	C	1.248543	-0.340392	0.955195
C258	C	1.498543	-0.090392	1.205195
C259	C	1.748543	0.159608	1.455195
C260	C	1.998543	0.409608	1.705195
N261	N	1.296368	-0.303758	0.919610
N262	N	1.546368	-0.053758	1.169610
N263	N	1.796368	0.196242	1.419610
N264	N	2.046368	0.446242	1.669610
H265	H	1.044044	-0.675393	0.585330
H266	H	1.294044	-0.425393	0.835330
H267	H	1.544044	-0.175393	1.085330
H268	H	1.794044	0.074607	1.335330
C269	C	1.020509	-0.818855	0.606644
C270	C	1.270509	-0.568855	0.856644
C271	C	1.520509	-0.318855	1.106644
C272	C	1.770509	-0.068855	1.356644
N273	N	0.972594	-0.849046	0.649881
N274	N	1.222594	-0.599046	0.899881
N275	N	1.472594	-0.349046	1.149881
N276	N	1.722594	-0.099046	1.399881
H277	H	1.232479	-0.896019	0.415471
H278	H	1.482479	-0.646019	0.665471
H279	H	1.732479	-0.396019	0.915471
H280	H	1.982479	-0.146019	1.165471
