data_functionalizedCrystal
_audit_creation_method	'MofGen! by Chris Wilmer'
_symmetry_space_group_name_H-M	'P1'
_symmetry_Int_Tables_number	1
_symmetry_cell_setting	triclinic
loop_
_symmetry_equiv_pos_as_xyz
  x,y,z
_cell_length_a	11.792241
_cell_length_b	15.995350
_cell_length_c	10.268362
_cell_angle_alpha	89.997153
_cell_angle_beta	89.998946
_cell_angle_gamma	83.842895
loop_
_atom_site_label
_atom_site_type_symbol
_atom_site_fract_x
_atom_site_fract_y
_atom_site_fract_z
O1	O	1.505953	0.114763	-0.108167
O2	O	2.005953	0.614763	0.391833
O3	O	1.175513	0.126591	-0.108197
O4	O	1.675513	0.626591	0.391803
O5	O	1.349766	-0.001170	-0.108180
O6	O	1.849766	0.498830	0.391820
O7	O	1.331700	0.242523	-0.108184
O8	O	1.831700	0.742523	0.391816
O9	O	1.349748	-0.001175	0.108421
O10	O	1.849748	0.498825	0.608421
O11	O	1.175496	0.126586	0.108404
O12	O	1.675496	0.626586	0.608404
O13	O	1.505935	0.114758	0.108434
O14	O	2.005935	0.614758	0.608434
Cu15	Cu	1.340714	0.120672	0.128196
Cu16	Cu	1.840714	0.620672	0.628196
Cu17	Cu	1.340734	0.120677	-0.127959
Cu18	Cu	1.840734	0.620677	0.372041
O19	O	1.331683	0.242519	0.108417
O20	O	1.831683	0.742519	0.608417
C21	C	1.133220	0.125845	0.000100
C22	C	1.633220	0.625845	0.500100
C23	C	1.007224	0.123621	0.000088
C24	C	1.507224	0.623621	0.500088
C25	C	0.776546	0.119532	0.000126
C26	C	1.276546	0.619532	0.500126
C27	C	0.904913	0.121804	0.000105
C28	C	1.404913	0.621804	0.500105
C29	C	1.349010	-0.032370	0.000118
C30	C	1.849010	0.467630	0.500118
C31	C	1.346771	-0.125331	0.000111
C32	C	1.846771	0.374669	0.500111
C33	C	1.338730	-0.463115	0.000114
C34	C	1.838730	0.036885	0.500114
C35	C	1.214630	-0.416244	-0.000383
C36	C	1.714630	0.083756	0.499617
C37	C	1.216870	-0.319544	0.000106
C38	C	1.716870	0.180456	0.500106
C39	C	1.342718	-0.295536	0.000112
C40	C	1.842718	0.204464	0.500112
C41	C	1.403919	-0.336339	0.123804
C42	C	1.903919	0.163661	0.623804
C43	C	1.400801	-0.432988	0.123908
C44	C	1.900801	0.067012	0.623908
C45	C	1.403385	-0.433330	-0.122408
C46	C	1.903385	0.066670	0.377592
C47	C	1.403355	-0.336384	-0.124042
C48	C	1.903355	0.163616	0.375958
C49	C	1.344979	-0.200829	0.000115
C50	C	1.844979	0.299171	0.500115
C51	C	1.336473	-0.557823	0.000120
C52	C	1.836473	-0.057823	0.500120
C53	C	1.548229	0.115504	0.000134
C54	C	2.048229	0.615504	0.500134
C55	C	1.674224	0.117727	0.000137
C56	C	2.174224	0.617727	0.500137
C57	C	1.332438	0.273719	0.000116
C58	C	1.832438	0.773719	0.500116
C59	C	1.334677	0.366680	0.000115
C60	C	1.834677	0.866680	0.500115
N61	N	1.340708	0.120667	0.308362
N62	N	1.840708	0.620667	0.808362
C63	C	1.340721	0.120678	0.574033
C64	C	1.840721	0.620678	1.074033
C65	C	1.340710	0.120674	0.426195
C66	C	1.840710	0.620674	0.926195
N67	N	1.340739	0.120678	0.691875
N68	N	1.840739	0.620678	1.191875
H69	H	1.168762	-0.291338	-0.088562
H70	H	1.668762	0.208662	0.411438
H71	H	1.491913	-0.464823	0.129524
H72	H	1.991913	0.035177	0.629524
C73	C	1.037634	-0.398853	-0.117876
C74	C	1.537634	0.101147	0.382124
C75	C	1.147670	-0.441556	-0.120128
C76	C	1.647670	0.058444	0.379872
H77	H	0.996300	-0.414479	-0.191811
H78	H	1.496300	0.085521	0.308189
H79	H	0.999580	-0.413163	-0.040799
H80	H	1.499580	0.086837	0.459201
H81	H	1.042399	-0.339953	-0.119512
H82	H	1.542399	0.160047	0.380488
H83	H	1.142904	-0.500456	-0.118482
H84	H	1.642904	-0.000456	0.381518
H85	H	1.185732	-0.427251	-0.197225
H86	H	1.685732	0.072749	0.302775
H87	H	1.362818	-0.454051	-0.216159
H88	H	1.862818	0.045949	0.283841
C89	C	1.415275	-0.513608	0.321595
C90	C	1.915275	-0.013608	0.821595
C91	C	1.340522	-0.457978	0.248710
C92	C	1.840522	0.042022	0.748710
H93	H	1.378058	-0.529028	0.398645
H94	H	1.878058	-0.029028	0.898645
H95	H	1.437637	-0.562482	0.271397
H96	H	1.937637	-0.062482	0.771397
H97	H	1.480821	-0.487036	0.344190
H98	H	1.980821	0.012964	0.844190
H99	H	1.274980	-0.484552	0.226106
H100	H	1.774980	0.015448	0.726106
H101	H	1.318145	-0.409096	0.298917
H102	H	1.818145	0.090904	0.798917
H103	H	1.168424	-0.291901	0.088916
H104	H	1.668424	0.208099	0.588916
H105	H	1.496376	-0.321793	0.128409
H106	H	1.996376	0.178207	0.628409
H107	H	1.361398	-0.308152	0.215848
H108	H	1.861398	0.191848	0.715848
H109	H	1.495130	-0.320606	-0.131506
H110	H	1.995130	0.179394	0.368494
C111	C	1.420487	-0.260580	-0.323661
C112	C	1.920487	0.239420	0.176339
C113	C	1.343043	-0.299798	-0.247579
C114	C	1.843043	0.200202	0.252421
H115	H	1.383250	-0.237993	-0.399928
H116	H	1.883250	0.262007	0.100072
H117	H	1.448351	-0.216560	-0.275090
H118	H	1.948351	0.283440	0.224910
H119	H	1.482372	-0.300596	-0.347580
H120	H	1.982372	0.199404	0.152420
H121	H	1.281160	-0.259781	-0.223652
H122	H	1.781160	0.240219	0.276348
H123	H	1.315161	-0.343824	-0.296159
H124	H	1.815161	0.156176	0.203841
C125	C	1.141820	-0.529888	0.114387
C126	C	1.641820	-0.029888	0.614387
C127	C	1.147959	-0.442993	0.118690
C128	C	1.647959	0.057007	0.618690
H129	H	1.100669	-0.546401	0.187905
H130	H	1.600669	-0.046401	0.687905
H131	H	1.103929	-0.543712	0.036943
H132	H	1.603929	-0.043712	0.536943
H133	H	1.216702	-0.558482	0.115419
H134	H	1.716702	-0.058482	0.615419
H135	H	1.073076	-0.414399	0.117649
H136	H	1.573076	0.085601	0.617649
H137	H	1.185847	-0.429160	0.196155
H138	H	1.685847	0.070840	0.696155
C139	C	1.526240	-0.563082	-0.128232
C140	C	2.026240	-0.063082	0.371768
C141	C	1.526901	-0.475647	-0.123543
C142	C	2.026901	0.024353	0.376457
H143	H	1.602491	-0.589207	-0.128935
H144	H	2.102491	-0.089207	0.371065
H145	H	1.487612	-0.581313	-0.053990
H146	H	1.987612	-0.081313	0.446010
H147	H	1.488182	-0.578022	-0.204967
H148	H	1.988182	-0.078022	0.295033
H149	H	1.564952	-0.460706	-0.046803
H150	H	2.064952	0.039294	0.453197
H151	H	1.565545	-0.457409	-0.197793
H152	H	2.065545	0.042591	0.302207
