data_functionalizedCrystal
_audit_creation_method	'MofGen! by Chris Wilmer'
_symmetry_space_group_name_H-M	'P1'
_symmetry_Int_Tables_number	1
_symmetry_cell_setting	triclinic
loop_
_symmetry_equiv_pos_as_xyz
  x,y,z
_cell_length_a	31.640172
_cell_length_b	19.377369
_cell_length_c	19.376995
_cell_angle_alpha	62.446887
_cell_angle_beta	75.508743
_cell_angle_gamma	48.633885
loop_
_atom_site_label
_atom_site_type_symbol
_atom_site_fract_x
_atom_site_fract_y
_atom_site_fract_z
Zr1	Zr	0.315302	0.779797	0.049401
O2	O	0.245015	0.928453	-0.037198
O3	O	0.350887	0.631150	0.057066
O4	O	0.353438	0.779792	-0.064411
O5	O	0.224483	0.779812	0.201581
O6	O	0.422994	0.779777	-0.064398
O7	O	0.242464	0.779811	0.084279
O8	O	0.418431	0.513885	0.152901
O9	O	0.229046	1.045704	-0.015718
O10	O	0.401012	0.692276	0.083157
O11	O	0.335683	0.692288	0.170689
O12	O	0.338687	0.867294	0.027666
O13	O	0.273358	0.867305	0.115198
Zr14	Zr	0.397558	0.779774	0.236505
Zr15	Zr	0.426237	0.779773	0.049422
Zr16	Zr	0.286624	0.779798	0.236485
Zr17	Zr	0.289833	0.966799	0.083658
Zr18	Zr	0.423027	0.592772	0.202248
O19	O	0.361973	0.928421	0.228840
O20	O	0.402750	0.928419	-0.037168
O21	O	0.204238	0.928454	0.228811
O22	O	0.467845	0.631119	0.323104
O23	O	0.508622	0.631117	0.057095
O24	O	0.310110	0.631152	0.323074
O25	O	0.488378	0.779759	0.084325
O26	O	0.359422	0.779779	0.350317
O27	O	0.289866	0.779794	0.350304
O28	O	0.470396	0.779760	0.201627
O29	O	0.317224	1.045685	-0.015702
O30	O	0.395636	0.513886	0.301608
O31	O	0.483814	0.513867	0.301624
O32	O	0.506610	0.513866	0.152918
O33	O	0.206250	1.045705	0.132988
O34	O	0.294429	1.045686	0.133005
O35	O	0.374173	0.692277	0.258240
O36	O	0.439502	0.692266	0.170708
O37	O	0.377177	0.867283	0.115217
O38	O	0.311848	0.867295	0.202749
C39	C	0.388288	0.545874	0.100103
C40	C	0.399100	0.466486	0.085560
C41	C	0.264338	0.205112	0.266430
C42	C	0.274559	0.130424	0.252827
C43	C	0.342757	0.130421	0.161451
C44	C	0.332544	0.205107	0.175049
C45	C	0.293333	0.242447	0.227539
C46	C	0.361539	0.242442	0.136158
C47	C	0.351324	0.317125	0.149752
C48	C	0.312114	0.354472	0.202238
C49	C	0.283118	0.317130	0.241133
C50	C	0.400747	0.205106	0.083664
C51	C	0.429742	0.242441	0.044773
C52	C	0.419530	0.317120	0.058371
C53	C	0.380320	0.354468	0.110857
C54	C	0.448526	0.354463	0.019475
C55	C	0.438311	0.429146	0.033070
C56	C	0.370105	0.429151	0.124451
C57	C	0.217668	0.779815	0.142927
C58	C	0.170573	0.779825	0.142919
C59	C	-0.088902	0.688419	0.171935
C60	C	-0.265888	0.688401	0.171949
O61	O	-0.261110	0.610705	0.196615
N62	N	-0.320550	0.779758	0.142982
C63	C	-0.330967	0.871125	0.114014
O64	O	-0.381523	0.948829	0.089383
C65	C	-0.153983	0.871142	0.114005
C66	C	-0.099319	0.779779	0.142967
C67	C	-0.034242	0.597063	0.200895
C68	C	0.010002	0.597069	0.200888
C69	C	-0.000415	0.688429	0.171920
C70	C	-0.055075	0.779784	0.142959
C71	C	-0.164401	0.962508	0.085042
C72	C	-0.120149	0.962504	0.085044
C73	C	-0.065486	0.871142	0.114006
C74	C	-0.021248	0.871150	0.113983
N75	N	0.033414	0.779794	0.142951
C76	C	0.043831	0.688433	0.171919
C77	C	-0.423884	0.871110	0.114019
C78	C	-0.468129	0.871107	0.114020
C79	C	-0.403047	0.688382	0.171956
C80	C	-0.358800	0.688387	0.171950
C81	C	-0.369221	0.779754	0.142986
C82	C	0.136744	0.688451	0.171900
C83	C	0.180990	0.688465	0.171887
C84	C	0.115903	0.871188	0.113954
C85	C	0.071662	0.871176	0.113963
C86	C	0.082086	0.779799	0.142941
O87	O	-0.025985	0.948806	0.089338
O88	O	0.094388	0.610741	0.196562
C89	C	-0.133146	0.688413	0.171943
C90	C	-0.187807	0.779769	0.142982
C91	C	-0.198224	0.871129	0.114014
C92	C	-0.232053	0.779765	0.142983
C93	C	-0.221636	0.688404	0.171951
C94	C	-0.166973	0.597048	0.200918
C95	C	-0.122730	0.597053	0.200911
C96	C	-0.252887	0.962486	0.085047
C97	C	-0.297128	0.962473	0.085056
C98	C	-0.286711	0.871113	0.114024
C99	C	0.495193	0.779756	0.142979
C100	C	0.542287	0.779746	0.142988
C101	C	0.392302	0.779784	-0.091060
C102	C	0.404477	0.779783	-0.170482
C103	C	0.324572	1.013697	0.185803
C104	C	0.313760	1.093085	0.200346
C105	C	0.459954	0.779773	-0.282417
C106	C	0.448509	0.779774	-0.207788
C107	C	0.371873	0.779786	-0.207794
C108	C	0.383313	0.779780	-0.282423
C109	C	0.427354	0.779775	-0.319729
C110	C	0.350713	0.779782	-0.319735
C111	C	0.362150	0.779782	-0.394358
C112	C	0.406187	0.779779	-0.431671
C113	C	0.438791	0.779775	-0.394353
C114	C	0.306670	0.779795	-0.282429
C115	C	0.274069	0.779796	-0.319741
C116	C	0.285509	0.779789	-0.394364
C117	C	0.329546	0.779786	-0.431676
C118	C	0.252905	0.779793	-0.431682
C119	C	0.264343	0.779793	-0.506306
C120	C	0.340984	0.779786	-0.506300
C121	C	0.320558	0.779787	0.376966
C122	C	0.308383	0.779788	0.456388
C123	C	0.527051	0.545844	0.100128
C124	C	0.584958	0.466447	0.085594
C125	C	0.352416	0.545875	0.334116
C126	C	0.351054	0.466488	0.398995
C127	C	0.491178	0.545846	0.334142
C128	C	0.536911	0.466449	0.399029
C129	C	0.221682	1.013725	-0.048235
C130	C	0.175949	1.093122	-0.113123
C131	C	0.185810	1.013727	0.185778
C132	C	0.127903	1.093124	0.200312
C133	C	0.360444	1.013696	-0.048210
C134	C	0.361807	1.093083	-0.113089
C135	C	0.592061	0.429166	0.033060
C136	C	0.646468	0.354574	0.019388
C137	C	0.693770	0.317259	0.058255
C138	C	0.686665	0.354546	0.110792
C139	C	0.632259	0.429142	0.124459
C140	C	0.370504	0.429202	0.475171
C141	C	0.369219	0.354620	0.536141
C142	C	0.348488	0.317320	0.520931
C143	C	0.329034	0.354614	0.444748
C144	C	0.330316	0.429200	0.383780
C145	C	0.592493	0.429157	0.383810
C146	C	0.635467	0.354565	0.444774
C147	C	0.622859	0.317262	0.520955
C148	C	0.567271	0.354561	0.536173
C149	C	0.524297	0.429156	0.475211
C150	C	0.120366	1.130423	-0.097903
C151	C	0.077389	1.205038	-0.158862
C152	C	0.089996	1.242345	-0.235042
C153	C	0.145585	1.205042	-0.250261
C154	C	0.188560	1.130433	-0.189302
C155	C	0.120799	1.130413	0.252840
C156	C	0.066393	1.205025	0.266495
C157	C	0.019090	1.242343	0.227626
C158	C	0.026196	1.205052	0.175092
C159	C	0.080602	1.130446	0.161433
C160	C	0.382542	1.130359	-0.097856
C161	C	0.383833	1.204941	-0.158811
C162	C	0.364384	1.242252	-0.234997
C163	C	0.343648	1.204969	-0.250230
C164	C	0.342361	1.130382	-0.189276
H165	H	0.338176	0.459555	0.167194
Br166	Br	0.395624	0.304021	0.639524
Br167	Br	0.609618	0.479772	0.280429
Br168	Br	0.750867	0.303890	0.163536
Br169	Br	0.031665	1.343601	-0.317766
Br170	Br	-0.002522	0.995168	0.074636
H171	H	0.387385	0.459563	0.487570
H172	H	0.327813	1.235359	-0.312269
Br173	Br	0.291145	0.779806	-0.181156
H174	H	0.110091	1.100052	-0.035879
H175	H	0.347448	0.256588	0.570582
Br176	Br	0.184987	1.079787	0.305599
H177	H	-0.158498	0.522659	0.224500
Br178	Br	0.767604	0.216020	0.039697
Br179	Br	0.400762	0.779758	-0.556927
H180	H	0.155844	1.235427	-0.312294
Br181	Br	0.622628	0.479723	0.195764
Br182	Br	-0.542310	0.995104	0.074697
H183	H	0.233819	1.100064	-0.201705
H184	H	0.060618	1.235376	0.309274
H185	H	0.479041	0.459509	0.487613
Br186	Br	0.710902	0.303959	0.424102
H187	H	0.312155	0.324234	0.432375
Br188	Br	0.498569	0.779747	-0.444980
H189	H	0.251189	0.347534	0.283876
Br190	Br	0.303918	0.479790	0.280398
Br191	Br	0.235200	0.079762	0.305609
Br192	Br	-0.054743	1.343596	0.246172
Br193	Br	-0.038006	1.255706	0.122349
H194	H	0.657856	0.256521	0.570587
Br195	Br	0.477659	0.479824	-0.019715
Br196	Br	0.001953	1.255647	-0.138190
Br197	Br	0.366133	1.343479	-0.317712
H198	H	0.086378	1.100088	0.118663
H199	H	0.557013	0.324177	0.598207
Br200	Br	0.408941	1.079740	0.005535
Br201	Br	0.101775	0.995172	0.074656
H202	H	0.400717	1.235289	-0.146393
H203	H	0.415497	0.779784	-0.492436
Br204	Br	0.314212	1.079811	-0.209963
H205	H	0.303796	0.415288	0.213302
H206	H	0.232409	0.235516	0.309173
H207	H	0.374681	0.100013	0.118711
H208	H	0.461666	0.212033	0.002033
Br209	Br	0.414604	0.103757	0.065210
H210	H	0.652243	0.324223	-0.023391
Br211	Br	0.501730	0.303794	-0.051770
H212	H	0.145240	0.614043	0.195497
Br213	Br	0.255177	0.564464	0.211191
H214	H	0.553552	0.459547	0.001398
H215	H	0.217044	0.779808	-0.401301
Br216	Br	0.084183	0.473070	0.240201
H217	H	-0.025751	0.522663	0.224488
H218	H	-0.314294	0.613991	0.195541
H219	H	0.238210	0.779805	-0.289359
Br220	Br	-0.438037	0.995121	0.074705
Br221	Br	-0.388918	0.564393	0.211269
H222	H	-0.128643	1.036908	0.061469
Br223	Br	-0.238580	1.086509	0.045742
Br224	Br	-0.048548	0.473054	0.240218
H225	H	-0.341636	1.036877	0.061464
Br226	Br	0.519732	0.779746	-0.333044
H227	H	-0.261377	1.036884	0.061456
Br228	Br	0.220095	0.779804	-0.556948
Br229	Br	0.492757	0.779780	-0.157158
H230	H	0.336014	0.779794	-0.177412
