data_functionalizedCrystal
_audit_creation_method	'MofGen! by Chris Wilmer'
_symmetry_space_group_name_H-M	'P1'
_symmetry_Int_Tables_number	1
_symmetry_cell_setting	triclinic
loop_
_symmetry_equiv_pos_as_xyz
  x,y,z
_cell_length_a	14.044202
_cell_length_b	8.559649
_cell_length_c	7.088929
_cell_angle_alpha	95.325015
_cell_angle_beta	96.800065
_cell_angle_gamma	98.514317
loop_
_atom_site_label
_atom_site_type_symbol
_atom_site_fract_x
_atom_site_fract_y
_atom_site_fract_z
O1	O	0.021003	2.100734	-0.158950
O2	O	0.354336	2.434068	0.174383
O3	O	0.687670	2.767401	0.507716
O4	O	-0.027448	1.642436	-0.158975
O5	O	0.305885	1.975770	0.174358
O6	O	0.639218	2.309103	0.507692
O7	O	0.134264	1.864704	-0.158911
O8	O	0.467597	2.198037	0.174422
O9	O	0.800931	2.531370	0.507756
O10	O	-0.140710	1.878467	-0.159014
O11	O	0.192624	2.211801	0.174319
O12	O	0.525957	2.545134	0.507652
O13	O	0.155919	1.894401	0.159073
O14	O	0.489252	2.227734	0.492406
O15	O	0.822586	2.561068	0.825739
O16	O	-0.005794	1.672134	0.159009
O17	O	0.327540	2.005467	0.492342
O18	O	0.660873	2.338801	0.825675
O19	O	0.042658	2.130432	0.159033
O20	O	0.375991	2.463765	0.492367
O21	O	0.709324	2.797099	0.825700
Cu22	Cu	0.020409	1.903995	0.188055
Cu23	Cu	0.353743	2.237328	0.521389
Cu24	Cu	0.687076	2.570661	0.854722
Cu25	Cu	-0.005200	1.868874	-0.187997
Cu26	Cu	0.328133	2.202207	0.145336
Cu27	Cu	0.661467	2.535540	0.478670
O28	O	-0.119055	1.908165	0.158969
O29	O	0.214279	2.241498	0.492303
O30	O	0.547612	2.574831	0.825636
C31	C	0.179968	1.873529	0.000090
C32	C	0.513301	2.206862	0.333423
C33	C	0.846635	2.540195	0.666756
C34	C	0.283888	1.855562	0.000116
C35	C	0.617221	2.188895	0.333450
C36	C	0.950554	2.522228	0.666783
C37	C	-0.020293	1.598279	0.000014
C38	C	0.313041	1.931612	0.333348
C39	C	0.646374	2.264945	0.666681
C40	C	-0.031222	1.422456	0.000008
C41	C	0.302111	1.755790	0.333341
C42	C	0.635444	2.089123	0.666674
C43	C	0.541056	1.950139	0.000072
C44	C	0.874389	2.283472	0.333406
C45	C	1.207723	2.616806	0.666739
C46	C	0.474152	1.822731	0.000073
C47	C	0.807486	2.156064	0.333406
C48	C	1.140819	2.489398	0.666740
C49	C	0.368280	1.841002	0.000097
C50	C	0.701613	2.174336	0.333431
C51	C	1.034946	2.507669	0.666764
C52	C	0.646939	1.931870	0.000048
C53	C	0.980272	2.265203	0.333381
C54	C	1.313605	2.598537	0.666715
C55	C	0.835242	1.899338	-0.000010
C56	C	1.168576	2.232671	0.333324
C57	C	1.501909	2.566005	0.666657
C58	C	0.731326	1.917301	0.000029
C59	C	1.064659	2.250635	0.333362
C60	C	1.397992	2.583968	0.666696
C61	C	0.035502	2.174589	0.000040
C62	C	0.368835	2.507923	0.333373
C63	C	0.702169	2.841256	0.666706
C64	C	0.046431	2.350410	0.000034
C65	C	0.379764	2.683744	0.333367
C66	C	0.713097	3.017077	0.666701
N67	N	0.038423	1.928708	0.452551
N68	N	0.371756	2.262041	0.785884
N69	N	0.705090	2.595375	1.119217
N70	N	-0.023205	1.844172	-0.452492
N71	N	0.310128	2.177505	-0.119159
N72	N	0.643461	2.510838	0.214174
H73	H	0.496388	1.699932	0.000059
H74	H	0.829721	2.033265	0.333393
H75	H	1.163054	2.366598	0.666726
Cl76	Cl	-0.121811	1.708899	0.421416
Cl77	Cl	0.211523	2.042233	0.754749
Cl78	Cl	0.544856	2.375566	1.088083
H79	H	0.518822	2.072929	0.000095
H80	H	0.852156	2.406263	0.333428
H81	H	1.185489	2.739596	0.666762
Cl82	Cl	0.161987	1.462846	0.000066
Cl83	Cl	0.495320	1.796179	0.333400
Cl84	Cl	0.828654	2.129513	0.666733
Cl85	Cl	-0.146786	1.310012	-0.000055
Cl86	Cl	0.186547	1.643345	0.333279
Cl87	Cl	0.519880	1.976678	0.666612
Cl88	Cl	0.137025	2.064005	0.578649
Cl89	Cl	0.470358	2.397338	0.911983
Cl90	Cl	0.803691	2.730671	1.245316
