data_functionalizedCrystal
_audit_creation_method	'MofGen! by Chris Wilmer'
_symmetry_space_group_name_H-M	'P1'
_symmetry_Int_Tables_number	1
_symmetry_cell_setting	triclinic
loop_
_symmetry_equiv_pos_as_xyz
  x,y,z
_cell_length_a	10.540510
_cell_length_b	10.540539
_cell_length_c	16.776229
_cell_angle_alpha	89.995514
_cell_angle_beta	89.992634
_cell_angle_gamma	84.519401
loop_
_atom_site_label
_atom_site_type_symbol
_atom_site_fract_x
_atom_site_fract_y
_atom_site_fract_z
O1	O	1.685914	0.178723	-0.066289
O2	O	1.316496	0.195619	-0.066289
O3	O	1.509633	0.002464	-0.066288
O4	O	1.492777	0.371879	-0.066290
O5	O	1.509607	0.002451	0.066288
O6	O	1.316470	0.195607	0.066287
O7	O	1.685888	0.178711	0.066287
Zn8	Zn	1.501175	0.187157	0.087337
Zn9	Zn	1.501209	0.187173	-0.087339
O10	O	1.492751	0.371866	0.066286
C11	C	1.269179	0.194354	-0.000001
C12	C	1.128229	0.190587	-0.000001
C13	C	0.910774	0.324771	-0.000306
C14	C	1.057370	0.328789	-0.000003
C15	C	1.083455	0.119834	0.075705
C16	C	0.936694	0.116795	0.075764
C17	C	0.936917	0.113930	-0.075001
C18	C	1.083259	0.120486	-0.075996
C19	C	1.508356	-0.044845	-0.000001
C20	C	1.504574	-0.185793	-0.000006
C21	C	1.359655	-0.369204	-0.000303
C22	C	1.363489	-0.222587	-0.000005
C23	C	1.572456	-0.247465	0.075702
C24	C	1.567640	-0.394009	0.075766
C25	C	1.570539	-0.394513	-0.074998
C26	C	1.571839	-0.247532	-0.075999
C27	C	1.733204	0.179976	-0.000003
C28	C	1.874154	0.183743	-0.000008
C29	C	1.494028	0.419175	-0.000002
C30	C	1.497810	0.560123	-0.000003
N31	N	1.501161	0.187145	0.206548
N32	N	1.501233	0.187175	-0.206550
C33	C	1.586708	0.101652	0.248265
C34	C	1.586715	0.101651	0.331718
C35	C	1.501180	0.187150	0.373451
C36	C	1.415623	0.272648	0.331727
C37	C	1.415611	0.272642	0.248277
C38	C	1.415669	0.272673	0.668275
C39	C	1.415691	0.272675	0.751731
C40	C	1.586774	0.101682	0.751716
C41	C	1.586762	0.101676	0.668265
C42	C	1.501201	0.187169	0.626549
C43	C	1.501193	0.187167	0.536060
C44	C	1.501193	0.187159	0.463938
H45	H	1.132327	0.019588	-0.080568
H46	H	1.111888	0.171965	-0.132003
C47	C	1.504804	-0.192246	-0.151665
N48	N	1.454301	-0.150609	-0.208655
C49	C	1.147518	-0.017598	0.079531
N50	N	1.195787	-0.121106	0.082418
C51	C	0.854105	0.397523	-0.073653
N52	N	0.811412	0.452321	-0.128900
C53	C	0.906985	-0.026246	-0.075693
N54	N	0.884431	-0.131821	-0.076210
C55	C	1.097040	0.403500	-0.073347
N56	N	1.126916	0.459753	-0.128602
H57	H	1.345972	0.342259	0.365711
H58	H	1.310075	-0.179973	-0.054275
H59	H	1.114298	0.168960	0.132045
C60	C	0.905623	-0.022847	0.080414
N61	N	0.882227	-0.128023	0.083921
C62	C	1.710808	-0.214835	-0.082173
N63	N	1.815487	-0.190213	-0.086816
H64	H	1.656438	0.032066	0.785690
H65	H	1.525280	-0.204865	0.132041
H66	H	1.346005	0.342286	0.634316
C67	C	1.680805	0.007593	0.202367
N68	N	1.751678	-0.063259	0.167798
H69	H	0.867256	0.378298	0.053678
C70	C	1.680794	0.007571	0.377603
N71	N	1.751647	-0.063307	0.412164
H72	H	1.304139	-0.399411	0.053684
C73	C	1.680854	0.007618	0.622363
N74	N	1.751722	-0.063234	0.587791
C75	C	1.284366	-0.407840	-0.073643
N76	N	1.227656	-0.436953	-0.128883
H77	H	1.085763	0.384466	0.054357
H78	H	0.894380	0.157518	-0.132382
H79	H	1.346032	0.342302	0.785709
C80	C	0.882342	0.182128	0.152207
N81	N	0.841410	0.231348	0.209783
H82	H	1.309679	-0.180830	0.054356
H83	H	1.669106	-0.441988	0.079200
C84	C	1.321512	0.366701	0.202388
N85	N	1.250634	0.437551	0.167825
H86	H	1.517451	-0.422208	0.132359
C87	C	1.508862	-0.437120	-0.152519
N88	N	1.462393	-0.469208	-0.210904
H89	H	1.676064	-0.225122	0.078517
H90	H	1.672445	-0.441750	-0.075508
