data_functionalizedCrystal
_audit_creation_method	'MofGen! by Chris Wilmer'
_symmetry_space_group_name_H-M	'P1'
_symmetry_Int_Tables_number	1
_symmetry_cell_setting	triclinic
loop_
_symmetry_equiv_pos_as_xyz
  x,y,z
_cell_length_a	12.811438
_cell_length_b	27.732064
_cell_length_c	11.892095
_cell_angle_alpha	93.861044
_cell_angle_beta	80.666371
_cell_angle_gamma	83.349866
loop_
_atom_site_label
_atom_site_type_symbol
_atom_site_fract_x
_atom_site_fract_y
_atom_site_fract_z
O1	O	1.408776	0.057302	-0.238403
O2	O	1.100807	0.065414	-0.206835
O3	O	1.264348	-0.009019	-0.223603
O4	O	1.245236	0.131734	-0.221635
O5	O	1.250712	-0.002822	-0.034198
O6	O	1.087171	0.071610	-0.017430
O7	O	1.395141	0.063498	-0.048998
Zn8	Zn	1.238991	0.068538	-0.003142
Zn9	Zn	1.256957	0.060374	-0.252691
O10	O	1.231600	0.137931	-0.032230
C11	C	1.054601	0.068247	-0.108095
C12	C	0.937237	0.067453	-0.096065
C13	C	0.764385	0.069711	0.024129
C14	C	0.874659	0.070458	0.012831
C15	C	0.889533	0.063702	-0.193670
C16	C	0.779260	0.062956	-0.182373
C17	C	0.716689	0.065959	-0.073469
C18	C	0.606415	0.065209	-0.062173
C19	C	0.621290	0.058457	-0.268673
C20	C	0.731564	0.059204	-0.279971
C21	C	1.257126	-0.023928	-0.128863
C22	C	1.255911	-0.077586	-0.128749
C23	C	1.150988	-0.454875	-0.117998
C24	C	1.155464	-0.253205	-0.118458
O25	O	1.074051	-0.222121	-0.110158
N26	N	1.252441	-0.233878	-0.128399
C27	C	1.348305	-0.264972	-0.138233
O28	O	1.430893	-0.243906	-0.146710
C29	C	1.343829	-0.466641	-0.137780
C30	C	1.246845	-0.485965	-0.127828
C31	C	1.054013	-0.474199	-0.108047
C32	C	1.052894	-0.524613	-0.107926
C33	C	1.148751	-0.555703	-0.117756
C34	C	1.245727	-0.536379	-0.127706
C35	C	1.439693	-0.497734	-0.147622
C36	C	1.438566	-0.548154	-0.147511
C37	C	1.341582	-0.567478	-0.137558
C38	C	1.340466	-0.617883	-0.137415
N39	N	1.243489	-0.637210	-0.127474
C40	C	1.147632	-0.606120	-0.117645
C41	C	1.350649	-0.159093	-0.138467
C42	C	1.351768	-0.108676	-0.138578
C43	C	1.158926	-0.096912	-0.118806
C44	C	1.157808	-0.147330	-0.118687
C45	C	1.253672	-0.178420	-0.128526
C46	C	1.145291	-0.711994	-0.117390
C47	C	1.144180	-0.762413	-0.117265
C48	C	1.337022	-0.774172	-0.137043
C49	C	1.338132	-0.723757	-0.137162
C50	C	1.242258	-0.692669	-0.127339
O51	O	1.421837	-0.648995	-0.145723
O52	O	1.065058	-0.627196	-0.109194
C53	C	1.152107	-0.404460	-0.118119
C54	C	1.249082	-0.385136	-0.128070
C55	C	1.344939	-0.416226	-0.137899
C56	C	1.250201	-0.334719	-0.128181
C57	C	1.154344	-0.303629	-0.118351
C58	C	1.057368	-0.322956	-0.108411
C59	C	1.056249	-0.373370	-0.108290
C60	C	1.441916	-0.396899	-0.147840
C61	C	1.443026	-0.346484	-0.147959
C62	C	1.347169	-0.315394	-0.138130
C63	C	1.441347	0.060665	-0.147740
C64	C	1.558712	0.061459	-0.159778
C65	C	1.238822	0.152840	-0.126973
C66	C	1.240037	0.206497	-0.127094
N67	N	1.226738	0.074110	0.167169
N68	N	1.269218	0.054798	-0.423003
C69	C	1.354482	0.016002	0.390719
C70	C	1.345925	0.019899	0.509938
C71	C	1.201062	0.085801	0.524829
C72	C	1.209619	0.081903	0.405610
C73	C	1.286333	0.047003	0.338559
C74	C	1.294894	0.043107	0.219337
C75	C	1.150027	0.109006	0.234230
C76	C	1.141470	0.112904	0.353450
H77	H	0.913487	0.073514	0.092305
H78	H	1.094538	0.134250	0.191748
F79	F	1.043251	-0.678914	-0.106933
F80	F	1.119413	0.122938	0.596203
F81	F	0.798167	0.056007	-0.395867
F82	F	1.436135	-0.021137	0.319357
F83	F	1.059826	0.150044	0.424820
H84	H	1.401417	-0.005345	0.552403
F85	F	0.956142	0.060506	-0.309563
F86	F	0.570518	0.054477	-0.372550
H87	H	1.065201	-0.778143	-0.109155
H88	H	0.973921	-0.540341	-0.099831
F89	F	0.539825	0.068403	0.053730
H90	H	0.713438	0.072160	0.112802
H91	H	0.975950	-0.448890	-0.100046
H92	H	1.080876	-0.071590	-0.110797
F93	F	1.054586	-0.167891	-0.108096
F94	F	1.452688	-0.192175	-0.148935
F95	F	1.454990	-0.088115	-0.149155
F96	F	1.546257	-0.325925	-0.158551
F97	F	1.376542	0.005965	0.147978
F98	F	1.542919	-0.477181	-0.158236
H99	H	1.516633	-0.573466	-0.155530
F100	F	1.439034	-0.807269	-0.147495
F101	F	0.953026	-0.393929	-0.097698
F102	F	1.441349	-0.703190	-0.147719
H103	H	0.979317	-0.297633	-0.100400
F104	F	1.543946	-0.429981	-0.158301
