data_functionalizedCrystal
_audit_creation_method	'MofGen! by Chris Wilmer'
_symmetry_space_group_name_H-M	'P1'
_symmetry_Int_Tables_number	1
_symmetry_cell_setting	triclinic
loop_
_symmetry_equiv_pos_as_xyz
  x,y,z
_cell_length_a	10.654541
_cell_length_b	11.792241
_cell_length_c	9.130307
_cell_angle_alpha	90.004859
_cell_angle_beta	89.999406
_cell_angle_gamma	84.338672
loop_
_atom_site_label
_atom_site_type_symbol
_atom_site_fract_x
_atom_site_fract_y
_atom_site_fract_z
O1	O	1.667386	0.159407	0.121755
O2	O	1.301864	0.174599	0.121768
O3	O	1.493495	0.001853	0.121751
O4	O	1.475755	0.332153	0.121772
O5	O	1.493492	0.001846	-0.121848
O6	O	1.301861	0.174592	-0.121831
O7	O	1.667383	0.159401	-0.121844
Cu8	Cu	1.484622	0.166996	-0.144080
Cu9	Cu	1.484625	0.167004	0.144004
O10	O	1.475752	0.332147	-0.121827
C11	C	1.255068	0.173481	-0.000030
C12	C	1.115634	0.170145	-0.000025
C13	C	1.087078	0.376710	0.000006
C14	C	1.007297	0.478420	0.000028
C15	C	0.876287	0.475279	0.000029
C16	C	0.825059	0.370416	0.000004
C17	C	0.904841	0.268706	-0.000017
C18	C	1.035851	0.271858	-0.000014
C19	C	0.933396	0.062144	-0.000059
C20	C	1.064405	0.065282	-0.000050
C21	C	0.882167	-0.042719	-0.000084
C22	C	0.961949	-0.144432	-0.000095
C23	C	1.092966	-0.141286	-0.000095
C24	C	1.144187	-0.036428	-0.000072
C25	C	1.492380	-0.040444	-0.000048
C26	C	1.489044	-0.166465	-0.000046
C27	C	1.482911	-0.397192	-0.000022
C28	C	1.486319	-0.268799	-0.000035
C29	C	1.714180	0.160519	-0.000043
C30	C	1.853614	0.163854	-0.000038
C31	C	1.476868	0.374443	-0.000025
C32	C	1.480203	0.500465	-0.000017
N33	N	1.484629	0.167001	0.346627
N34	N	1.484629	0.166990	-0.346703
C35	C	1.654655	0.014322	0.346602
C36	C	1.739664	-0.062025	0.423256
C37	C	1.739663	-0.062038	0.576590
C38	C	1.654647	0.014307	0.653272
C39	C	1.569638	0.090655	0.576618
C40	C	1.569645	0.090657	0.423281
C41	C	1.399620	0.243337	0.576643
C42	C	1.399612	0.243346	0.423310
C43	C	1.314604	0.319683	0.653326
C44	C	1.229587	0.396026	0.576672
C45	C	1.229590	0.396035	0.423329
C46	C	1.314604	0.319694	0.346655
H47	H	0.920227	-0.229803	-0.000114
H48	H	1.654662	0.014302	0.778125
H49	H	1.157918	-0.224112	-0.000118
O50	O	1.831328	-0.144389	0.659295
H51	H	1.929288	-0.128964	0.629890
H52	H	1.314609	0.319690	0.221803
O53	O	1.654659	0.014328	0.181221
H54	H	1.581261	0.080239	0.140801
O55	O	1.137907	0.478401	0.340671
H56	H	1.076646	0.430023	0.270789
H57	H	1.250860	-0.033857	-0.000054
O58	O	1.062557	0.591515	0.000056
H59	H	1.030575	0.640437	-0.099228
H60	H	0.811328	0.558101	0.000036
O61	O	0.683756	0.367028	-0.000023
H62	H	0.655362	0.321603	0.099246
O63	O	1.831356	-0.144371	0.340554
H64	H	1.817071	-0.131548	0.221053
H65	H	1.314612	0.319674	0.778178
O66	O	1.137887	0.478340	0.659391
H67	H	1.190994	0.534039	0.729277
O68	O	1.228382	0.380093	0.000010
H69	H	1.250601	0.470093	0.000023
H70	H	0.775491	-0.045269	-0.000091
