data_functionalizedCrystal
_audit_creation_method	'MofGen! by Chris Wilmer'
_symmetry_space_group_name_H-M	'P1'
_symmetry_Int_Tables_number	1
_symmetry_cell_setting	triclinic
loop_
_symmetry_equiv_pos_as_xyz
  x,y,z
_cell_length_a	23.532407
_cell_length_b	27.731996
_cell_length_c	22.610064
_cell_angle_alpha	89.998076
_cell_angle_beta	89.997161
_cell_angle_gamma	82.735033
loop_
_atom_site_label
_atom_site_type_symbol
_atom_site_fract_x
_atom_site_fract_y
_atom_site_fract_z
O1	O	0.755125	0.058674	-0.049118
O2	O	1.088459	0.392007	0.284215
O3	O	1.421792	0.725340	0.617548
O4	O	0.589242	0.067164	-0.049137
O5	O	0.922575	0.400497	0.284197
O6	O	1.255909	0.733831	0.617530
O7	O	0.677351	-0.007472	-0.049114
O8	O	1.010684	0.325862	0.284219
O9	O	1.344018	0.659195	0.617552
O10	O	0.667016	0.133309	-0.049141
O11	O	1.000349	0.466643	0.284192
O12	O	1.333683	0.799976	0.617526
O13	O	0.677335	-0.007461	0.049255
O14	O	1.010669	0.325872	0.382588
O15	O	1.344002	0.659206	0.715922
O16	O	0.589226	0.067175	0.049232
O17	O	0.922560	0.400508	0.382566
O18	O	1.255893	0.733842	0.715899
O19	O	0.755110	0.058684	0.049251
O20	O	1.088443	0.392018	0.382584
O21	O	1.421776	0.725351	0.715918
Zn22	Zn	0.672166	0.062931	0.064860
Zn23	Zn	1.005499	0.396265	0.398193
Zn24	Zn	1.338832	0.729598	0.731527
Zn25	Zn	0.672186	0.062917	-0.064746
Zn26	Zn	1.005519	0.396250	0.268588
Zn27	Zn	1.338853	0.729584	0.601921
O28	O	0.667001	0.133320	0.049228
O29	O	1.000334	0.466654	0.382562
O30	O	1.333667	0.799987	0.715895
C31	C	0.568019	0.066953	0.000046
C32	C	0.901352	0.400287	0.333379
C33	C	1.234685	0.733620	0.666712
C34	C	0.504803	0.066303	0.000039
C35	C	0.838136	0.399637	0.333373
C36	C	1.171470	0.732970	0.666706
C37	C	0.105606	0.106394	0.000058
C38	C	0.438939	0.439727	0.333392
C39	C	0.772272	0.773061	0.666725
C40	C	0.046207	0.105790	0.000062
C41	C	0.379540	0.439123	0.333395
C42	C	0.712873	0.772457	0.666729
O43	O	0.009375	0.142955	0.000077
O44	O	0.342708	0.476288	0.333410
O45	O	0.676041	0.809621	0.666743
N46	N	0.023685	0.061419	0.000070
N47	N	0.357018	0.394752	0.333403
N48	N	0.690352	0.728086	0.666736
C49	C	0.060566	0.017649	0.000079
C50	C	0.393899	0.350982	0.333413
C51	C	0.727233	0.684316	0.666746
O52	O	0.035955	-0.020147	0.000086
O53	O	0.369289	0.313186	0.333420
O54	O	0.702622	0.646519	0.666753
C55	C	0.119963	0.018253	0.000080
C56	C	0.453297	0.351587	0.333413
C57	C	0.786630	0.684920	0.666746
C58	C	0.142482	0.062627	0.000066
C59	C	0.475815	0.395961	0.333400
C60	C	0.809148	0.729294	0.666733
C61	C	0.128124	0.150764	0.000046
C62	C	0.461458	0.484098	0.333379
C63	C	0.794791	0.817431	0.666712
C64	C	0.187519	0.151368	0.000041
C65	C	0.520852	0.484701	0.333374
C66	C	0.854186	0.818035	0.666707
C67	C	0.224395	0.107601	0.000049
C68	C	0.557728	0.440935	0.333382
C69	C	0.891062	0.774268	0.666715
C70	C	0.201876	0.063231	0.000061
C71	C	0.535210	0.396564	0.333395
C72	C	0.868543	0.729898	0.666728
C73	C	0.156843	-0.025516	0.000094
C74	C	0.490176	0.307817	0.333427
C75	C	0.823510	0.641151	0.666760
C76	C	0.216244	-0.024908	0.000095
C77	C	0.549577	0.308426	0.333428
C78	C	0.882911	0.641759	0.666761
C79	C	0.238762	0.019466	0.000081
C80	C	0.572096	0.352799	0.333415
C81	C	0.905429	0.686133	0.666748
C82	C	0.298147	0.020068	0.000065
C83	C	0.631480	0.353401	0.333398
C84	C	0.964814	0.686735	0.666731
N85	N	0.320669	0.064439	0.000057
N86	N	0.654002	0.397772	0.333390
N87	N	0.987335	0.731106	0.666724
C88	C	0.283793	0.108206	0.000049
C89	C	0.617126	0.441539	0.333383
C90	C	0.950459	0.774872	0.666716
C91	C	-0.064174	0.016383	0.000079
C92	C	0.269160	0.349717	0.333413
C93	C	0.602493	0.683050	0.666746
C94	C	-0.123570	0.015778	0.000075
C95	C	0.209763	0.349112	0.333408
C96	C	0.543096	0.682445	0.666741
C97	C	-0.137925	0.103920	0.000058
C98	C	0.195408	0.437253	0.333392
C99	C	0.528741	0.770586	0.666725
C100	C	-0.078528	0.104524	0.000059
C101	C	0.254806	0.437857	0.333392
C102	C	0.588139	0.771191	0.666726
C103	C	-0.041652	0.060754	0.000072
C104	C	0.291681	0.394088	0.333405
C105	C	0.625015	0.727421	0.666738
C106	C	0.408526	0.109470	0.000039
C107	C	0.741860	0.442803	0.333372
C108	C	1.075193	0.776137	0.666705
C109	C	0.467927	0.110070	0.000031
C110	C	0.801260	0.443403	0.333365
C111	C	1.134594	0.776737	0.666698
C112	C	0.482277	0.021929	0.000050
C113	C	0.815610	0.355262	0.333384
C114	C	1.148944	0.688596	0.666717
C115	C	0.422881	0.021329	0.000055
C116	C	0.756215	0.354662	0.333388
C117	C	1.089548	0.687996	0.666721
C118	C	0.386007	0.065103	0.000051
C119	C	0.719340	0.398437	0.333384
C120	C	1.052674	0.731770	0.666717
O121	O	0.335014	-0.017077	0.000053
O122	O	0.668347	0.316256	0.333386
O123	O	1.001680	0.649590	0.666719
O124	O	0.308412	0.145996	0.000050
O125	O	0.641745	0.479329	0.333383
O126	O	0.975078	0.812663	0.666716
C127	C	0.677131	-0.025474	0.000072
C128	C	1.010464	0.307859	0.333406
C129	C	1.343798	0.641193	0.666739
C130	C	0.676491	-0.079131	0.000078
C131	C	1.009825	0.254202	0.333412
C132	C	1.343158	0.587535	0.666745
C133	C	0.672477	-0.411860	-0.053572
C134	C	1.005810	-0.078526	0.279761
C135	C	1.339143	0.254807	0.613095
C136	C	0.670048	-0.613522	-0.053583
C137	C	1.003382	-0.280188	0.279751
C138	C	1.336715	0.053145	0.613084
O139	O	0.669717	-0.639598	-0.099186
O140	O	1.003051	-0.306265	0.234148
O141	O	1.336384	0.027069	0.567481
N142	N	0.669738	-0.638733	0.000038
N143	N	1.003072	-0.305400	0.333371
N144	N	1.336405	0.027933	0.666704
C145	C	0.670032	-0.613526	0.053665
C146	C	1.003365	-0.280193	0.386998
C147	C	1.336698	0.053141	0.720331
O148	O	0.669706	-0.639597	0.099272
O149	O	1.003040	-0.306263	0.432605
O150	O	1.336373	0.027070	0.765939
C151	C	0.672456	-0.411864	0.053675
C152	C	1.005789	-0.078531	0.387008
C153	C	1.339123	0.254802	0.720341
C154	C	0.672772	-0.386656	0.000051
C155	C	1.006105	-0.053323	0.333384
C156	C	1.339438	0.280011	0.666717
C157	C	0.672792	-0.386651	-0.107192
C158	C	1.006125	-0.053318	0.226142
C159	C	1.339459	0.280015	0.559475
C160	C	0.673402	-0.336239	-0.107188
C161	C	1.006735	-0.002906	0.226145
C162	C	1.340069	0.330428	0.559478
C163	C	0.673697	-0.311036	-0.053566
C164	C	1.007030	0.022298	0.279768
C165	C	1.340364	0.355631	0.613101
C166	C	0.673382	-0.336244	0.000054
C167	C	1.006715	-0.002911	0.333387
C168	C	1.340049	0.330423	0.666721
C169	C	0.672745	-0.386658	0.107301
C170	C	1.006078	-0.053324	0.440635
C171	C	1.339412	0.280009	0.773968
C172	C	0.673350	-0.336239	0.107299
C173	C	1.006683	-0.002905	0.440632
C174	C	1.340016	0.330428	0.773966
C175	C	0.673665	-0.311030	0.053675
C176	C	1.006999	0.022303	0.387008
C177	C	1.340332	0.355636	0.720342
C178	C	0.674287	-0.260628	0.053680
C179	C	1.007620	0.072705	0.387013
C180	C	1.340954	0.406038	0.720347
N181	N	0.674597	-0.235417	0.000060
N182	N	1.007930	0.097917	0.333393
N183	N	1.341264	0.431250	0.666726
C184	C	0.674302	-0.260620	-0.053563
C185	C	1.007635	0.072713	0.279770
C186	C	1.340969	0.406046	0.613103
C187	C	0.668760	-0.719401	0.053656
C188	C	1.002093	-0.386068	0.386989
C189	C	1.335427	-0.052735	0.720322
C190	C	0.668155	-0.769817	0.053653
C191	C	1.001488	-0.436483	0.386987
C192	C	1.334822	-0.103150	0.720320
C193	C	0.668171	-0.769809	-0.053594
C194	C	1.001504	-0.436475	0.279739
C195	C	1.334838	-0.103142	0.613072
C196	C	0.668780	-0.719393	-0.053591
C197	C	1.002113	-0.386060	0.279742
C198	C	1.335447	-0.052726	0.613075
C199	C	0.669070	-0.694190	0.000035
C200	C	1.002403	-0.360856	0.333369
C201	C	1.335737	-0.027523	0.666702
C202	C	0.675584	-0.154751	-0.053552
C203	C	1.008917	0.178582	0.279781
C204	C	1.342251	0.511915	0.613114
C205	C	0.676197	-0.104335	-0.053545
C206	C	1.009530	0.228998	0.279789
C207	C	1.342863	0.562332	0.613122
C208	C	0.676178	-0.104347	0.053703
C209	C	1.009511	0.228986	0.387036
C210	C	1.342844	0.562320	0.720369
C211	C	0.675568	-0.154759	0.053695
C212	C	1.008902	0.178574	0.387029
C213	C	1.342235	0.511908	0.720362
C214	C	0.675269	-0.179960	0.000063
C215	C	1.008603	0.153373	0.333396
C216	C	1.341936	0.486707	0.666729
O217	O	0.674612	-0.234520	0.099259
O218	O	1.007945	0.098813	0.432593
O219	O	1.341279	0.432146	0.765926
O220	O	0.674615	-0.234539	-0.099164
O221	O	1.007948	0.098794	0.234170
O222	O	1.341281	0.432127	0.567503
C223	C	0.671867	-0.462272	-0.053575
C224	C	1.005200	-0.128939	0.279758
C225	C	1.338533	0.204395	0.613091
C226	C	0.671551	-0.487480	0.000044
C227	C	1.004885	-0.154147	0.333378
C228	C	1.338218	0.179186	0.666711
C229	C	0.671846	-0.462277	0.053667
C230	C	1.005180	-0.128943	0.387001
C231	C	1.338513	0.204390	0.720334
C232	C	0.670946	-0.537896	0.000042
C233	C	1.004280	-0.204562	0.333375
C234	C	1.337613	0.128771	0.666709
C235	C	0.670651	-0.563099	-0.053581
C236	C	1.003985	-0.229766	0.279753
C237	C	1.337318	0.103567	0.613086
C238	C	0.670961	-0.537888	-0.107201
C239	C	1.004295	-0.204554	0.226132
C240	C	1.337628	0.128779	0.559465
C241	C	0.671572	-0.487475	-0.107198
C242	C	1.004905	-0.154142	0.226135
C243	C	1.338238	0.179191	0.559469
C244	C	0.671536	-0.487488	0.107288
C245	C	1.004870	-0.154155	0.440621
C246	C	1.338203	0.179178	0.773954
C247	C	0.670927	-0.537901	0.107280
C248	C	1.004260	-0.204567	0.440613
C249	C	1.337593	0.128766	0.773947
C250	C	0.670632	-0.563104	0.053657
C251	C	1.003965	-0.229771	0.386991
C252	C	1.337298	0.103562	0.720324
C253	C	0.776333	0.058895	0.000067
C254	C	1.109666	0.392229	0.333400
C255	C	1.443000	0.725562	0.666734
C256	C	0.839549	0.059545	0.000070
C257	C	1.172882	0.392879	0.333403
C258	C	1.506215	0.726212	0.666736
C259	C	0.667221	0.151323	0.000040
C260	C	1.000554	0.484656	0.333374
C261	C	1.333887	0.817989	0.666707
C262	C	0.667860	0.204980	0.000031
C263	C	1.001193	0.538313	0.333364
C264	C	1.334527	0.871646	0.666697
N265	N	0.672156	0.062941	0.153312
N266	N	1.005489	0.396274	0.486646
N267	N	1.338822	0.729608	0.819979
N268	N	0.672200	0.062904	-0.153198
N269	N	1.005534	0.396237	0.180135
N270	N	1.338867	0.729570	0.513468
C271	C	0.711202	0.029873	0.561964
C272	C	1.044536	0.363207	0.895297
C273	C	1.377869	0.696540	1.228630
C274	C	0.711205	0.029870	0.623884
C275	C	1.044539	0.363203	0.957217
C276	C	1.377872	0.696536	1.290550
O277	O	0.744380	0.001762	0.655911
O278	O	1.077713	0.335095	0.989244
O279	O	1.411047	0.668428	1.322578
N280	N	0.672186	0.062907	0.654849
N281	N	1.005519	0.396240	0.988183
N282	N	1.338852	0.729574	1.321516
C283	C	0.633157	0.095947	0.623892
C284	C	0.966490	0.429280	0.957226
C285	C	1.299823	0.762613	1.290559
O286	O	0.599967	0.124047	0.655917
O287	O	0.933301	0.457380	0.989250
O288	O	1.266634	0.790713	1.322583
C289	C	0.633151	0.095947	0.561973
C290	C	0.966485	0.429281	0.895307
C291	C	1.299818	0.762614	1.228640
C292	C	0.672178	0.062911	0.531011
C293	C	1.005511	0.396245	0.864344
C294	C	1.338844	0.729578	1.197677
C295	C	0.750225	-0.003160	0.531001
C296	C	1.083558	0.330173	0.864334
C297	C	1.416892	0.663506	1.197668
C298	C	0.750223	-0.003156	0.469085
C299	C	1.083556	0.330177	0.802419
C300	C	1.416889	0.663510	1.135752
C301	C	0.711198	0.029882	0.438132
C302	C	1.044531	0.363215	0.771466
C303	C	1.377864	0.696548	1.104799
C304	C	0.672175	0.062916	0.469095
C305	C	1.005509	0.396249	0.802428
C306	C	1.338842	0.729582	1.135762
C307	C	0.594120	0.128984	0.531017
C308	C	0.927453	0.462318	0.864351
C309	C	1.260787	0.795651	1.197684
C310	C	0.594118	0.128982	0.469094
C311	C	0.927451	0.462315	0.802428
C312	C	1.260785	0.795649	1.135761
C313	C	0.633144	0.095946	0.438132
C314	C	0.966477	0.429279	0.771465
C315	C	1.299811	0.762613	1.104798
C316	C	0.633148	0.095958	0.376227
C317	C	0.966481	0.429291	0.709560
C318	C	1.299815	0.762625	1.042893
N319	N	0.672168	0.062921	0.345261
N320	N	1.005501	0.396254	0.678594
N321	N	1.338834	0.729587	1.011927
C322	C	0.711193	0.029883	0.376214
C323	C	1.044526	0.363216	0.709547
C324	C	1.377859	0.696549	1.042880
C325	C	0.633170	0.095942	0.753926
C326	C	0.966503	0.429275	1.087259
C327	C	1.299836	0.762608	1.420592
C328	C	0.633177	0.095944	0.815843
C329	C	0.966511	0.429277	1.149177
C330	C	1.299844	0.762610	1.482510
C331	C	0.711225	0.029866	0.815831
C332	C	1.044559	0.363199	1.149164
C333	C	1.377892	0.696533	1.482497
C334	C	0.711220	0.029867	0.753912
C335	C	1.044554	0.363200	1.087245
C336	C	1.377887	0.696534	1.420578
C337	C	0.672190	0.062905	0.722960
C338	C	1.005523	0.396238	1.056293
C339	C	1.338856	0.729571	1.389627
C340	C	0.711185	0.029894	0.246186
C341	C	1.044518	0.363228	0.579520
C342	C	1.377852	0.696561	0.912853
C343	C	0.711181	0.029903	0.184265
C344	C	1.044514	0.363236	0.517599
C345	C	1.377847	0.696570	0.850932
C346	C	0.633131	0.095978	0.184283
C347	C	0.966464	0.429312	0.517617
C348	C	1.299797	0.762645	0.850950
C349	C	0.633137	0.095972	0.246199
C350	C	0.966470	0.429305	0.579532
C351	C	1.299803	0.762639	0.912866
C352	C	0.672166	0.062926	0.277149
C353	C	1.005499	0.396259	0.610482
C354	C	1.338833	0.729592	0.943816
O355	O	0.599989	0.124050	0.344160
O356	O	0.933322	0.457384	0.677493
O357	O	1.266655	0.790717	1.010827
O358	O	0.744371	0.001783	0.344182
O359	O	1.077705	0.335116	0.677515
O360	O	1.411038	0.668450	1.010848
H361	H	-0.167961	0.139557	0.000055
H362	H	0.165372	0.472890	0.333388
H363	H	0.498706	0.806223	0.666721
F364	F	0.591606	0.131138	0.279151
F365	F	0.924939	0.464472	0.612484
F366	F	1.258273	0.797805	0.945817
H367	H	0.378510	0.145116	0.000037
H368	H	0.711843	0.478449	0.333371
H369	H	1.045176	0.811782	0.666704
H370	H	0.742965	0.002985	0.271379
H371	H	1.076299	0.336318	0.604712
H372	H	1.409632	0.669651	0.938045
H373	H	0.512312	-0.013705	0.000055
H374	H	0.845645	0.319629	0.333388
H375	H	1.178979	0.652962	0.666721
H376	H	0.670724	-0.558417	-0.150863
H377	H	1.004057	-0.225084	0.182470
H378	H	1.337391	0.108249	0.515804
F379	F	0.670594	-0.564724	0.164358
F380	F	1.003928	-0.231391	0.497692
F381	F	1.337261	0.101942	0.831025
F382	F	0.752756	-0.005295	0.720965
F383	F	1.086090	0.328038	1.054298
F384	F	1.419423	0.661372	1.387631
F385	F	0.671846	-0.460671	0.164364
F386	F	1.005179	-0.127338	0.497697
F387	F	1.338513	0.205996	0.831030
H388	H	0.675316	-0.175285	0.097360
H389	H	1.008650	0.158048	0.430694
H390	H	1.341983	0.491381	0.764027
F391	F	-0.147529	-0.031450	0.000075
F392	F	0.185805	0.301883	0.333409
F393	F	0.519138	0.635216	0.666742
H394	H	0.781999	-0.030058	0.443879
H395	H	1.115333	0.303275	0.777213
H396	H	1.448666	0.636608	1.110546
H397	H	0.246266	-0.060551	0.000106
H398	H	0.579599	0.272782	0.333439
H399	H	0.912933	0.606115	0.666772
H400	H	0.676455	-0.083813	-0.097214
H401	H	1.009788	0.249521	0.236120
H402	H	1.343122	0.582854	0.569453
F403	F	0.669066	-0.692584	0.110736
F404	F	1.002399	-0.359251	0.444070
F405	F	1.335733	-0.025917	0.777403
F406	F	0.791763	-0.038328	0.563935
F407	F	1.125097	0.295006	0.897268
F408	F	1.458430	0.628339	1.230602
F409	F	0.211477	0.198597	0.000029
F410	F	0.544810	0.531930	0.333363
F411	F	0.878143	0.865264	0.666696
H412	H	0.742962	0.003001	0.159057
H413	H	1.076296	0.336334	0.492391
H414	H	1.409629	0.669668	0.825724
H415	H	0.672550	-0.407166	-0.150860
H416	H	1.005883	-0.073833	0.182473
H417	H	1.339216	0.259500	0.515806
F418	F	0.752758	-0.005297	0.848785
F419	F	1.086092	0.328037	1.182118
F420	F	1.419425	0.661370	1.515451
H421	H	0.601405	0.122850	0.841049
H422	H	0.934738	0.456183	1.174382
H423	H	1.268071	0.789516	1.507716
H424	H	0.601388	0.122849	0.728728
H425	H	0.934721	0.456182	1.062061
H426	H	1.268054	0.789516	1.395394
F427	F	-0.024932	-0.030206	0.000087
F428	F	0.308401	0.303128	0.333421
F429	F	0.641735	0.636461	0.666754
F430	F	0.672406	-0.413475	0.164376
F431	F	1.005740	-0.080142	0.497710
F432	F	1.339073	0.253192	0.831043
H433	H	0.404547	-0.014804	0.000057
H434	H	0.737880	0.318529	0.333390
H435	H	1.071213	0.651863	0.666724
F436	F	0.669115	-0.692569	-0.110665
F437	F	1.002448	-0.359235	0.222669
F438	F	1.335782	-0.025902	0.556002
H439	H	0.138520	-0.061650	0.000105
H440	H	0.471853	0.271683	0.333438
H441	H	0.805186	0.605017	0.666772
F442	F	0.667829	-0.796641	0.110727
F443	F	1.001163	-0.463308	0.444061
F444	F	1.334496	-0.129974	0.777394
F445	F	0.671907	-0.460653	-0.164273
F446	F	1.005241	-0.127320	0.169061
F447	F	1.338574	0.206014	0.502394
H448	H	0.562341	0.155885	0.556218
H449	H	0.895675	0.489218	0.889552
H450	H	1.229008	0.822552	1.222885
F451	F	0.675266	-0.181565	-0.110634
F452	F	1.008599	0.151769	0.222699
F453	F	1.341933	0.485102	0.556033
H454	H	0.562333	0.155885	0.443896
H455	H	0.895666	0.489218	0.777230
H456	H	1.228999	0.822552	1.110563
F457	F	0.591600	0.131140	0.151332
F458	F	0.924934	0.464473	0.484665
F459	F	1.258267	0.797806	0.817998
H460	H	0.673577	-0.315720	0.150969
H461	H	1.006911	0.017613	0.484303
H462	H	1.340244	0.350947	0.817636
H463	H	0.486258	0.146206	0.000020
H464	H	0.819591	0.479539	0.333353
H465	H	1.152924	0.812873	0.666687
H466	H	0.098105	0.186406	0.000041
H467	H	0.431438	0.519740	0.333375
H468	H	0.764772	0.853073	0.666708
F469	F	0.667855	-0.796641	-0.110664
F470	F	1.001189	-0.463307	0.222669
F471	F	1.334522	-0.129974	0.556003
F472	F	-0.054568	0.151752	0.000046
F473	F	0.278766	0.485085	0.333379
F474	F	0.612099	0.818419	0.666712
H475	H	0.676420	-0.083817	0.097361
H476	H	1.009754	0.249516	0.430695
H477	H	1.343087	0.582849	0.764028
F478	F	0.673734	-0.309416	-0.164263
F479	F	1.007068	0.023917	0.169070
F480	F	1.340401	0.357250	0.502404
