data_functionalizedCrystal
_audit_creation_method	'MofGen! by Chris Wilmer'
_symmetry_space_group_name_H-M	'P1'
_symmetry_Int_Tables_number	1
_symmetry_cell_setting	triclinic
loop_
_symmetry_equiv_pos_as_xyz
  x,y,z
_cell_length_a	19.288840
_cell_length_b	19.288857
_cell_length_c	17.766277
_cell_angle_alpha	89.991474
_cell_angle_beta	89.983415
_cell_angle_gamma	83.129562
loop_
_atom_site_label
_atom_site_type_symbol
_atom_site_fract_x
_atom_site_fract_y
_atom_site_fract_z
O1	O	0.921362	0.086566	-0.062723
O2	O	0.719098	0.098273	-0.062698
O3	O	0.826077	-0.008712	-0.062702
O4	O	0.814383	0.193551	-0.062719
O5	O	0.826059	-0.008717	0.062486
O6	O	0.719080	0.098268	0.062491
O7	O	0.921343	0.086561	0.062465
Cu8	Cu	0.820210	0.092414	0.073909
Cu9	Cu	0.820232	0.092420	-0.074141
O10	O	0.814364	0.193546	0.062470
C11	C	0.693212	0.097897	-0.000100
C12	C	0.616108	0.096775	-0.000090
C13	C	0.579914	0.096239	-0.068332
C14	C	0.507468	0.095177	-0.068341
C15	C	0.471219	0.094637	-0.000104
C16	C	0.507420	0.095177	0.068147
C17	C	0.579865	0.096246	0.068154
C18	C	0.361884	0.052256	0.052168
C19	C	0.289442	0.051183	0.052158
C20	C	0.247775	0.091342	-0.000124
C21	C	0.278561	0.132566	-0.052408
C22	C	0.351006	0.133635	-0.052401
C23	C	0.392665	0.093478	-0.000105
C24	C	0.133026	0.089656	-0.068381
C25	C	0.060578	0.088598	-0.068387
C26	C	0.060533	0.088591	0.068103
C27	C	0.132979	0.089656	0.068107
C28	C	0.169222	0.090185	-0.000136
C29	C	0.825693	-0.034591	-0.000107
C30	C	0.824566	-0.111695	-0.000105
C31	C	0.824050	-0.147902	-0.068345
C32	C	0.822981	-0.220348	-0.068351
C33	C	0.822442	-0.256585	-0.000112
C34	C	0.822954	-0.220369	0.068137
C35	C	0.824016	-0.147923	0.068141
C36	C	0.861436	-0.376823	0.052158
C37	C	0.860379	-0.449267	0.052152
C38	C	0.819164	-0.480031	-0.000120
C39	C	0.779016	-0.438342	-0.052398
C40	C	0.780078	-0.365897	-0.052395
C41	C	0.821291	-0.335140	-0.000108
C42	C	0.817489	-0.594793	-0.068371
C43	C	0.816416	-0.667239	-0.068374
C44	C	0.816396	-0.667259	0.068116
C45	C	0.817462	-0.594813	0.068117
C46	C	0.818012	-0.558585	-0.000129
C47	C	0.947229	0.086937	-0.000134
C48	C	1.024334	0.088059	-0.000149
C49	C	0.814749	0.219425	-0.000127
C50	C	0.815876	0.296528	-0.000134
N51	N	0.820199	0.092409	0.178039
N52	N	0.820248	0.092420	-0.178272
C53	C	0.867585	0.045059	0.217424
C54	C	0.867589	0.045056	0.296226
C55	C	0.820214	0.092414	0.335639
C56	C	0.772819	0.139768	0.296245
C57	C	0.772812	0.139765	0.217445
C58	C	0.810913	0.155703	0.460473
C59	C	0.810925	0.155707	0.539272
C60	C	0.820232	0.092423	0.578686
C61	C	0.829542	0.029132	0.539291
C62	C	0.829535	0.029129	0.460491
C63	C	0.820216	0.092422	0.421085
C64	C	0.867625	0.045066	0.703517
C65	C	0.867624	0.045061	0.782320
C66	C	0.772858	0.139779	0.782338
C67	C	0.772855	0.139777	0.703536
C68	C	0.820243	0.092421	0.664130
H69	H	0.477901	0.094739	0.123706
F70	F	0.021958	0.088023	0.140727
F71	F	0.801057	0.223065	0.418533
H72	H	0.734245	0.178327	0.328340
F73	F	0.903111	-0.493629	0.107787
F74	F	0.383768	0.177509	-0.108041
F75	F	0.818070	-0.556232	-0.141003
H76	H	0.734272	0.178337	0.671467
H77	H	0.894998	-0.351781	0.094730
H78	H	0.609333	0.096683	0.123727
H79	H	0.906209	0.006500	0.814388
H80	H	0.815992	-0.696718	-0.123945
H81	H	0.244637	0.165271	-0.094978
F82	F	0.824563	-0.109387	0.140775
F83	F	0.722376	0.190163	0.175527
F84	F	0.918026	-0.005343	0.338149
H85	H	0.162449	0.090088	0.123678
F86	F	0.171601	0.090224	-0.141011
H87	H	0.395804	0.019552	0.094745
F88	F	0.468940	0.094606	-0.140977
F89	F	0.256682	0.007322	0.107813
F90	F	0.918015	-0.005343	0.175487
F91	F	0.824632	-0.109349	-0.140979
H92	H	0.822513	-0.249877	0.123698
H93	H	0.609419	0.096669	-0.123902
F94	F	0.022058	0.088033	-0.141024
H95	H	0.803349	0.207242	0.571341
F96	F	0.822431	-0.258891	-0.140984
H97	H	0.734282	0.178337	0.814428
F98	F	0.737349	-0.321531	-0.108029
H99	H	0.745455	-0.463388	-0.094963
F100	F	0.839437	-0.038227	0.418567
H101	H	0.906208	0.006503	0.671431
F102	F	0.815819	-0.705821	0.140742
F103	F	0.818011	-0.556277	0.140749
F104	F	0.839452	-0.038225	0.581232
