data_functionalizedCrystal
_audit_creation_method	'MofGen! by Chris Wilmer'
_symmetry_space_group_name_H-M	'P1'
_symmetry_Int_Tables_number	1
_symmetry_cell_setting	triclinic
loop_
_symmetry_equiv_pos_as_xyz
  x,y,z
_cell_length_a	6.817900
_cell_length_b	11.168121
_cell_length_c	16.856660
_cell_angle_alpha	97.919540
_cell_angle_beta	90.698724
_cell_angle_gamma	108.508496
loop_
_atom_site_label
_atom_site_type_symbol
_atom_site_fract_x
_atom_site_fract_y
_atom_site_fract_z
V1	V	3.912216	0.173968	0.247301
O2	O	3.875569	-0.009118	0.242587
O3	O	3.889850	0.345678	0.245617
O4	O	3.802300	0.170959	0.355155
O5	O	3.963725	0.166810	0.132290
V6	V	4.400442	0.152108	0.233544
O7	O	4.163159	0.221919	0.277479
O8	O	4.599696	0.104157	0.203367
O9	O	4.199601	-0.019602	0.235229
O10	O	4.554486	0.335194	0.238259
O11	O	4.466330	0.159265	0.348556
O12	O	4.287151	0.155117	0.125691
C13	C	3.743175	0.387548	0.241717
C14	C	3.805765	0.527921	0.241058
C15	C	3.631495	0.164675	0.381443
C16	C	3.623083	0.163351	0.469614
C17	C	4.121286	0.161403	0.099398
C18	C	4.108707	0.162750	0.009570
V19	V	3.829558	0.172052	-0.124572
O20	O	3.763666	0.164893	-0.239583
O21	O	3.942854	0.169046	-0.016719
O22	O	4.030393	0.343764	-0.126258
O23	O	3.675521	-0.011035	-0.129286
V24	V	3.317765	0.150184	-0.138328
O25	O	3.630301	0.220000	-0.094394
O26	O	3.066821	0.102228	-0.168504
O27	O	3.427678	0.153194	-0.246182
O28	O	3.266259	0.157341	-0.023316
O29	O	3.354405	0.333269	-0.133613
O30	O	3.340139	-0.021525	-0.136643
C31	C	4.009620	-0.061465	0.239127
C32	C	3.926266	-0.201837	0.239791
C33	C	4.220373	0.385630	-0.130156
C34	C	4.303722	0.526002	-0.130820
C35	C	4.005502	0.596603	0.244527
C36	C	4.070196	0.741686	0.243846
C37	C	3.598483	0.159480	-0.272471
C38	C	3.606892	0.160803	-0.360642
C39	C	3.791104	0.168738	0.512762
C40	C	3.782413	0.167370	0.603892
C41	C	3.486816	-0.063391	-0.132743
C42	C	3.424224	-0.203764	-0.132081
C43	C	4.175618	0.594681	-0.127353
C44	C	4.261761	0.739763	-0.128039
H45	H	4.128609	0.547996	0.248004
C46	C	3.974394	0.173791	0.653330
C47	C	4.133278	0.287014	0.646382
C48	C	4.310157	0.292984	0.691925
H49	H	4.017828	0.102722	0.634254
H50	H	3.943169	0.172129	0.708023
H51	H	4.164501	0.288664	0.591701
H52	H	4.089911	0.358103	0.665464
H53	H	4.278933	0.291322	0.746617
H54	H	4.353572	0.221909	0.672845
H55	H	4.417975	0.369810	0.687223
H56	H	3.463053	0.156199	0.602272
H57	H	4.573724	0.737211	-0.135060
H58	H	3.472797	0.157718	0.500139
H59	H	4.241305	0.800726	0.246806
C60	C	3.991446	0.175980	0.472088
C61	C	4.050746	0.070354	0.483910
C62	C	4.235282	0.076974	0.446446
H63	H	4.097118	0.252241	0.494500
H64	H	3.970710	0.175837	0.416234
H65	H	4.071494	0.070509	0.539752
H66	H	3.945126	-0.005922	0.461495
H67	H	4.214546	0.076831	0.390593
H68	H	4.340938	0.153239	0.468862
H69	H	4.275530	0.005304	0.454456
H70	H	3.755152	0.739128	0.236819
H71	H	4.477168	0.574610	-0.134303
H72	H	3.682658	0.576530	0.237590
H73	H	4.002169	0.546070	-0.123882
H74	H	4.152230	0.798803	-0.125068
