data_functionalizedCrystal
_audit_creation_method	'MofGen! by Chris Wilmer'
_symmetry_space_group_name_H-M	'P1'
_symmetry_Int_Tables_number	1
_symmetry_cell_setting	triclinic
loop_
_symmetry_equiv_pos_as_xyz
  x,y,z
_cell_length_a	8.559649
_cell_length_b	16.109301
_cell_length_c	7.681452
_cell_angle_alpha	96.429853
_cell_angle_beta	97.064711
_cell_angle_gamma	76.620124
loop_
_atom_site_label
_atom_site_type_symbol
_atom_site_fract_x
_atom_site_fract_y
_atom_site_fract_z
O1	O	0.191918	1.083887	-0.146325
O2	O	0.217476	0.840196	-0.146349
O3	O	-0.027916	0.983511	-0.146333
O4	O	0.437310	0.940572	-0.146341
O5	O	-0.000954	0.995828	0.146526
O6	O	0.244437	0.852513	0.146510
O7	O	0.218879	1.096204	0.146534
Zn8	Zn	0.235939	0.976314	0.193020
Zn9	Zn	0.200417	0.960086	-0.192835
O10	O	0.464271	0.952889	0.146518
C11	C	0.229921	0.815445	0.000077
C12	C	0.226816	0.723347	0.000068
C13	C	0.362282	0.405720	0.000096
C14	C	0.365213	0.492253	0.000086
C15	C	0.074060	0.530674	0.000068
C16	C	0.071130	0.444142	0.000065
C17	C	0.215247	0.381667	0.000089
C18	C	0.221107	0.554732	0.000081
C19	C	0.224284	0.648555	0.000070
C20	C	0.212070	0.287837	0.000096
C21	C	-0.073967	0.992923	0.000093
C22	C	-0.251353	1.002609	0.000084
C23	C	0.510322	0.943476	0.000088
C24	C	0.687707	0.933790	0.000085
C25	C	0.206434	1.120954	0.000104
C26	C	0.209538	1.213052	0.000101
N27	N	0.260181	0.987395	0.456355
N28	N	0.176162	0.949012	-0.456170
H29	H	0.479631	0.354854	0.000114
Br30	Br	0.564768	0.524891	0.000082
Br31	Br	-0.173074	0.823233	0.000085
H32	H	0.345935	1.026577	0.531558
H33	H	-0.334891	1.068943	0.000105
Br34	Br	0.033250	0.883683	0.418487
H35	H	-0.043274	0.581552	0.000053
H36	H	-0.048611	0.424560	0.000053
