data_functionalizedCrystal
_audit_creation_method	'MofGen! by Chris Wilmer'
_symmetry_space_group_name_H-M	'P1'
_symmetry_Int_Tables_number	1
_symmetry_cell_setting	triclinic
loop_
_symmetry_equiv_pos_as_xyz
  x,y,z
_cell_length_a	13.897449
_cell_length_b	14.908571
_cell_length_c	14.908308
_cell_angle_alpha	90.175053
_cell_angle_beta	86.722980
_cell_angle_gamma	93.300640
loop_
_atom_site_label
_atom_site_type_symbol
_atom_site_fract_x
_atom_site_fract_y
_atom_site_fract_z
Zn1	Zn	0.503393	1.345437	-0.587663
Zn2	Zn	1.003393	1.845437	-0.087663
Zn3	Zn	0.655968	1.354060	-0.437328
Zn4	Zn	1.155968	1.854060	0.062672
Zn5	Zn	0.484866	1.203747	-0.428658
Zn6	Zn	0.984866	1.703747	0.071342
Zn7	Zn	0.654822	1.195088	-0.578979
Zn8	Zn	1.154822	1.695088	-0.078979
O9	O	0.574762	1.274583	-0.508157
O10	O	1.074762	1.774583	-0.008157
O11	O	0.531866	1.472409	-0.574983
O12	O	1.031866	1.972409	-0.074983
O13	O	0.625997	1.341354	-0.310352
O14	O	1.125997	1.841354	0.189648
O15	O	0.352343	1.222558	-0.449756
O16	O	0.852343	1.722558	0.050244
O17	O	0.643962	1.478745	-0.464533
O18	O	1.143962	1.978745	0.035467
O19	O	0.365955	1.326657	-0.566576
O20	O	0.865955	1.826657	-0.066576
O21	O	0.500289	1.230919	-0.303982
O22	O	1.000289	1.730919	0.196018
O23	O	0.499177	1.076770	-0.441336
O24	O	0.999177	1.576770	0.058664
O25	O	0.642009	1.207799	-0.705957
O26	O	1.142009	1.707799	-0.205957
O27	O	0.624043	1.070408	-0.551776
O28	O	1.124043	1.570408	-0.051776
O29	O	0.530755	1.318260	-0.712337
O30	O	1.030755	1.818260	-0.212337
O31	O	0.790796	1.332957	-0.456112
O32	O	1.290796	1.832957	0.043888
O33	O	0.789954	1.216161	-0.560183
O34	O	1.289954	1.716161	-0.060183
C35	C	0.559476	1.040963	-0.494673
C36	C	1.059476	1.540963	0.005327
C37	C	0.552961	0.941018	-0.488926
C38	C	1.052961	1.441018	0.011074
C39	C	0.323172	1.274611	-0.508168
C40	C	0.823172	1.774611	-0.008168
C41	C	0.215959	1.274623	-0.508172
C42	C	0.715959	1.774623	-0.008172
C43	C	0.670925	0.746644	-0.592974
C44	C	1.170925	1.246644	-0.092974
C45	C	0.664806	0.652737	-0.587578
C46	C	1.164806	1.152737	-0.087578
C47	C	0.534603	0.659295	-0.472741
C48	C	1.034603	1.159295	0.027259
C49	C	0.540721	0.753202	-0.478138
C50	C	1.040721	1.253202	0.021862
C51	C	0.608885	0.796873	-0.538256
C52	C	1.108885	1.296873	-0.038256
C53	C	0.615007	0.890783	-0.543647
C54	C	1.115007	1.390783	-0.043647
C55	C	0.484800	0.897338	-0.428816
C56	C	0.984800	1.397338	0.071184
C57	C	0.478681	0.803431	-0.423419
C58	C	0.978681	1.303431	0.076581
C59	C	0.019667	1.274649	-0.508202
C60	C	0.519667	1.774649	-0.008202
C61	C	0.128898	1.274637	-0.508188
C62	C	0.628898	1.774637	-0.008188
C63	C	0.825377	1.274578	-0.508167
C64	C	1.325377	1.774578	-0.008167
C65	C	0.932598	1.274657	-0.508206
C66	C	1.432598	1.774657	-0.008206
C67	C	0.588321	1.261102	-0.742684
C68	C	1.088321	1.761102	-0.242684
C69	C	0.594099	1.255357	-0.842626
C70	C	1.094099	1.755357	-0.342626
C71	C	0.590109	1.509115	-0.521694
C72	C	1.090109	2.009115	-0.021694
C73	C	0.596649	1.609059	-0.527462
C74	C	1.096649	2.109059	-0.027462
C75	C	0.489085	1.359582	-1.037072
C76	C	0.989085	1.859582	-0.537072
C77	C	0.494510	1.354187	-1.130976
C78	C	0.994510	1.854187	-0.630976
C79	C	0.610370	1.239168	-1.124340
C80	C	1.110370	1.739168	-0.624340
C81	C	0.604944	1.244563	-1.030436
C82	C	1.104944	1.744563	-0.530436
C83	C	0.544301	1.304773	-0.986805
C84	C	1.044301	1.804773	-0.486805
C85	C	0.538881	1.310172	-0.892900
C86	C	1.038881	1.810172	-0.392900
C87	C	0.654735	1.195149	-0.886265
C88	C	1.154735	1.695149	-0.386265
C89	C	0.660160	1.189754	-0.980169
C90	C	1.160160	1.689754	-0.480169
C91	C	0.561190	1.288064	-0.274545
C92	C	1.061190	1.788064	0.225455
C93	C	0.555152	1.293983	-0.174614
C94	C	1.055152	1.793983	0.325386
H95	H	0.670511	0.926338	-0.592596
H96	H	1.170511	1.426338	-0.092596
H97	H	0.489503	1.359199	-0.857377
H98	H	0.989503	1.859199	-0.357377
H99	H	0.434284	0.938245	-0.384258
H100	H	0.934284	1.438245	0.115742
H101	H	0.726431	0.782202	-0.641919
H102	H	1.226431	1.282202	-0.141919
H103	H	0.439711	1.408612	-1.001547
H104	H	0.939711	1.908612	-0.501547
N105	N	0.434948	1.413294	-1.185194
N106	N	0.934948	1.913294	-0.685194
H107	H	0.395707	1.452250	-1.143301
H108	H	0.895707	1.952250	-0.643301
H109	H	0.479176	1.452668	-1.226559
H110	H	0.979176	1.952668	-0.726559
H111	H	0.423182	0.767861	-0.374476
H112	H	0.923182	1.267861	0.125524
H113	H	0.709533	1.140731	-1.015706
H114	H	1.209533	1.640731	-0.515706
H115	H	0.715323	0.611843	-0.632137
H116	H	1.215323	1.111843	-0.132137
H117	H	0.699699	1.150521	-0.845328
H118	H	1.199699	1.650521	-0.345328
N119	N	0.675734	1.174211	-1.171427
N120	N	1.175734	1.674211	-0.671427
H121	H	0.725071	1.208495	-1.212512
H122	H	1.225071	1.708495	-0.712512
H123	H	0.709828	1.140304	-1.125295
H124	H	1.209828	1.640304	-0.625295
N125	N	0.461120	0.612186	-0.407874
N126	N	0.961120	1.112186	0.092126
H127	H	0.466672	0.545076	-0.412751
H128	H	0.966672	1.045076	0.087249
H129	H	0.473429	0.632294	-0.344591
H130	H	0.973429	1.132294	0.155409
