data_functionalizedCrystal
_audit_creation_method	'MofGen! by Chris Wilmer'
_symmetry_space_group_name_H-M	'P1'
_symmetry_Int_Tables_number	1
_symmetry_cell_setting	triclinic
loop_
_symmetry_equiv_pos_as_xyz
  x,y,z
_cell_length_a	6.817900
_cell_length_b	16.418049
_cell_length_c	9.170709
_cell_angle_alpha	85.761354
_cell_angle_beta	112.460645
_cell_angle_gamma	103.389670
loop_
_atom_site_label
_atom_site_type_symbol
_atom_site_fract_x
_atom_site_fract_y
_atom_site_fract_z
V1	V	-4.108991	-0.079914	-0.486737
O2	O	-4.095314	0.040814	-0.476906
O3	O	-4.059585	-0.194017	-0.483951
O4	O	-4.096618	-0.062462	-0.698772
O5	O	-4.058025	-0.091652	-0.260599
V6	V	-4.588081	-0.067391	-0.459623
O7	O	-4.379974	-0.107386	-0.546214
O8	O	-4.767296	-0.039919	-0.400146
O9	O	-4.414281	0.046712	-0.462408
O10	O	-4.719155	-0.188119	-0.469453
O11	O	-4.756445	-0.055653	-0.685761
O12	O	-4.377248	-0.084843	-0.247588
C13	C	-3.903175	-0.222339	-0.476413
C14	C	-3.944307	-0.315515	-0.475549
C15	C	-3.950414	-0.054527	-0.750436
C16	C	-4.021574	-0.041012	-0.923779
C17	C	-4.222332	-0.533573	-0.481390
C18	C	-4.260970	-0.621121	-0.480592
C19	C	-3.894100	-0.613731	-0.464980
C20	C	-3.855470	-0.526184	-0.465789
C21	C	-4.019589	-0.486108	-0.473987
C22	C	-4.096858	-0.661202	-0.472379
C23	C	-4.138750	-0.756126	-0.471513
C24	C	-3.977697	-0.391178	-0.474855
C25	C	-4.234032	0.075030	-0.469943
C26	C	-4.172140	0.168205	-0.470817
C27	C	-4.186793	-0.092782	-0.195916
C28	C	-4.094871	-0.106292	-0.022571
H29	H	-4.426062	-0.659764	-0.486624
H30	H	-4.013271	0.025222	-0.971818
H31	H	-3.760484	-0.646372	-0.458302
O32	O	-4.381487	-0.494508	-0.489293
C33	C	-4.484624	-0.362916	-0.497562
C34	C	-4.304165	-0.407046	-0.488564
H35	H	-4.422192	-0.292196	-0.497010
H36	H	-4.533185	-0.380814	-0.391556
H37	H	-4.632169	-0.383078	-0.610908
H38	H	-4.156503	-0.386907	-0.375286
H39	H	-4.255789	-0.389147	-0.594650
H40	H	-4.103195	-0.172523	-0.974540
H41	H	-3.690368	-0.487536	-0.459766
