data_functionalizedCrystal
_audit_creation_method	'MofGen! by Chris Wilmer'
_symmetry_space_group_name_H-M	'P1'
_symmetry_Int_Tables_number	1
_symmetry_cell_setting	triclinic
loop_
_symmetry_equiv_pos_as_xyz
  x,y,z
_cell_length_a	21.295420
_cell_length_b	25.639239
_cell_length_c	25.639233
_cell_angle_alpha	90.018747
_cell_angle_beta	90.013450
_cell_angle_gamma	90.034468
loop_
_atom_site_label
_atom_site_type_symbol
_atom_site_fract_x
_atom_site_fract_y
_atom_site_fract_z
Zn1	Zn	0.962250	-0.208273	0.295621
Zn2	Zn	1.212250	0.041727	0.545621
Zn3	Zn	1.462250	0.291727	0.795621
Zn4	Zn	1.712250	0.541727	1.045621
Zn5	Zn	0.962158	-0.295692	0.208185
Zn6	Zn	1.212158	-0.045692	0.458185
Zn7	Zn	1.462158	0.204308	0.708185
Zn8	Zn	1.712158	0.454308	0.958185
Zn9	Zn	0.856994	-0.208266	0.208198
Zn10	Zn	1.106994	0.041734	0.458198
Zn11	Zn	1.356994	0.291734	0.708198
Zn12	Zn	1.606994	0.541734	0.958198
Zn13	Zn	0.856928	-0.295673	0.295588
Zn14	Zn	1.106928	-0.045673	0.545588
Zn15	Zn	1.356928	0.204327	0.795588
Zn16	Zn	1.606928	0.454327	1.045588
O17	O	0.909583	-0.251976	0.251898
O18	O	1.159583	-0.001976	0.501898
O19	O	1.409583	0.248024	0.751898
O20	O	1.659583	0.498024	1.001898
O21	O	1.050327	-0.219881	0.284030
O22	O	1.300327	0.030119	0.534030
O23	O	1.550327	0.280119	0.784030
O24	O	1.800327	0.530119	1.034030
O25	O	0.948197	-0.284100	0.135022
O26	O	1.198197	-0.034100	0.385022
O27	O	1.448197	0.215900	0.635022
O28	O	1.698197	0.465900	0.885022
O29	O	0.871023	-0.135102	0.219814
O30	O	1.121023	0.114898	0.469814
O31	O	1.371023	0.364898	0.719814
O32	O	1.621023	0.614898	0.969814
O33	O	1.050260	-0.284107	0.219792
O34	O	1.300260	-0.034107	0.469792
O35	O	1.550260	0.215893	0.719792
O36	O	1.800260	0.465893	0.969792
O37	O	0.948354	-0.135107	0.284043
O38	O	1.198354	0.114893	0.534043
O39	O	1.448354	0.364893	0.784043
O40	O	1.698354	0.614893	1.034043
O41	O	0.870933	-0.219868	0.135031
O42	O	1.120933	0.030132	0.385031
O43	O	1.370933	0.280132	0.635031
O44	O	1.620933	0.530132	0.885031
O45	O	0.768896	-0.219850	0.219782
O46	O	1.018896	0.030150	0.469782
O47	O	1.268896	0.280150	0.719782
O48	O	1.518896	0.530150	0.969782
O49	O	0.870910	-0.284074	0.368758
O50	O	1.120910	-0.034074	0.618758
O51	O	1.370910	0.215926	0.868758
O52	O	1.620910	0.465926	1.118758
O53	O	0.768847	-0.284067	0.283988
O54	O	1.018847	-0.034067	0.533988
O55	O	1.268847	0.215933	0.783988
O56	O	1.518847	0.465933	1.033988
O57	O	0.948290	-0.219862	0.368782
O58	O	1.198290	0.030138	0.618782
O59	O	1.448290	0.280138	0.868782
O60	O	1.698290	0.530138	1.118782
O61	O	0.948133	-0.368855	0.219760
O62	O	1.198133	-0.118855	0.469760
O63	O	1.448133	0.131145	0.719760
O64	O	1.698133	0.381145	0.969760
O65	O	0.870821	-0.368841	0.283975
O66	O	1.120821	-0.118841	0.533975
O67	O	1.370821	0.131159	0.783975
O68	O	1.620821	0.381159	1.033975
C69	C	0.746031	-0.251956	0.251883
C70	C	0.996031	-0.001956	0.501883
C71	C	1.246031	0.248044	0.751883
C72	C	1.496031	0.498044	1.001883
C73	C	0.676063	-0.251960	0.251889
C74	C	0.926063	-0.001960	0.501889
C75	C	1.176063	0.248040	0.751889
C76	C	1.426063	0.498040	1.001889
C77	C	0.176639	-0.218612	0.285409
C78	C	0.426639	0.031388	0.535409
C79	C	0.676639	0.281388	0.785409
C80	C	0.926639	0.531388	1.035409
C81	C	0.242382	-0.218608	0.285409
C82	C	0.492382	0.031392	0.535409
C83	C	0.742382	0.281392	0.785409
C84	C	0.992382	0.531392	1.035409
C85	C	0.275223	-0.251992	0.251910
C86	C	0.525223	-0.001992	0.501910
C87	C	0.775223	0.248008	0.751910
C88	C	1.025223	0.498008	1.001910
C89	C	0.242317	-0.285391	0.218418
C90	C	0.492317	-0.035391	0.468418
C91	C	0.742317	0.214609	0.718418
C92	C	0.992317	0.464609	0.968418
C93	C	0.176576	-0.285398	0.218423
C94	C	0.426576	-0.035398	0.468423
C95	C	0.676576	0.214602	0.718423
C96	C	0.926576	0.464602	0.968423
N97	N	0.378423	-0.255925	0.206129
N98	N	0.628423	-0.005925	0.456129
N99	N	0.878423	0.244075	0.706129
N100	N	1.128423	0.494075	0.956129
N101	N	0.440875	-0.255915	0.206126
N102	N	0.690875	-0.005915	0.456126
N103	N	0.940875	0.244085	0.706126
N104	N	1.190875	0.494085	0.956126
C105	C	0.473298	-0.251975	0.251895
C106	C	0.723298	-0.001975	0.501895
C107	C	0.973298	0.248025	0.751895
C108	C	1.223298	0.498025	1.001895
N109	N	0.440911	-0.248034	0.297668
N110	N	0.690911	0.001966	0.547668
N111	N	0.940911	0.251966	0.797668
N112	N	1.190911	0.501966	1.047668
N113	N	0.378454	-0.248040	0.297670
N114	N	0.628454	0.001960	0.547670
N115	N	0.878454	0.251960	0.797670
N116	N	1.128454	0.501960	1.047670
C117	C	0.346509	-0.251989	0.251902
C118	C	0.596509	-0.001989	0.501902
C119	C	0.846509	0.248011	0.751902
C120	C	1.096509	0.498011	1.001902
C121	C	0.577482	-0.218576	0.285387
C122	C	0.827482	0.031424	0.535387
C123	C	1.077482	0.281424	0.785387
C124	C	1.327482	0.531424	1.035387
C125	C	0.643226	-0.218576	0.285388
C126	C	0.893226	0.031424	0.535388
C127	C	1.143226	0.281424	0.785388
C128	C	1.393226	0.531424	1.035388
C129	C	0.643160	-0.285356	0.218392
C130	C	0.893160	-0.035356	0.468392
C131	C	1.143160	0.214644	0.718392
C132	C	1.393160	0.464644	0.968392
C133	C	0.577417	-0.285359	0.218396
C134	C	0.827417	-0.035359	0.468396
C135	C	1.077417	0.214641	0.718396
C136	C	1.327417	0.464641	0.968396
C137	C	0.544582	-0.251966	0.251893
C138	C	0.794582	-0.001966	0.501893
C139	C	1.044582	0.248034	0.751893
C140	C	1.294582	0.498034	1.001893
C141	C	0.909477	-0.387819	0.251874
C142	C	1.159477	-0.137819	0.501874
C143	C	1.409477	0.112181	0.751874
C144	C	1.659477	0.362181	1.001874
C145	C	0.909489	-0.445933	0.251881
C146	C	1.159489	-0.195933	0.501881
C147	C	1.409489	0.054067	0.751881
C148	C	1.659489	0.304067	1.001881
C149	C	0.949944	-0.806290	0.218518
C150	C	1.199944	-0.556290	0.468518
C151	C	1.449944	-0.306290	0.718518
C152	C	1.699944	-0.056290	0.968518
C153	C	0.949968	-0.860895	0.218525
C154	C	1.199968	-0.610895	0.468525
C155	C	1.449968	-0.360895	0.718525
C156	C	1.699968	-0.110895	0.968525
O157	O	0.984255	-0.889127	0.190133
O158	O	1.234255	-0.639127	0.440133
O159	O	1.484255	-0.389127	0.690133
O160	O	1.734255	-0.139127	0.940133
N161	N	0.909693	-0.888215	0.251933
N162	N	1.159693	-0.638215	0.501933
N163	N	1.409693	-0.388215	0.751933
N164	N	1.659693	-0.138215	1.001933
C165	C	0.869395	-0.860928	0.285339
C166	C	1.119395	-0.610928	0.535339
C167	C	1.369395	-0.360928	0.785339
C168	C	1.619395	-0.110928	1.035339
O169	O	0.835141	-0.889180	0.313755
O170	O	1.085141	-0.639180	0.563755
O171	O	1.335141	-0.389180	0.813755
O172	O	1.585141	-0.139180	1.063755
C173	C	0.869375	-0.806325	0.285334
C174	C	1.119375	-0.556325	0.535334
C175	C	1.369375	-0.306325	0.785334
C176	C	1.619375	-0.056325	1.035334
C177	C	0.909648	-0.779008	0.251921
C178	C	1.159648	-0.529008	0.501921
C179	C	1.409648	-0.279008	0.751921
C180	C	1.659648	-0.029008	1.001921
C181	C	0.990215	-0.778973	0.185108
C182	C	1.240215	-0.528973	0.435108
C183	C	1.490215	-0.278973	0.685108
C184	C	1.740215	-0.028973	0.935108
C185	C	0.990189	-0.724372	0.185101
C186	C	1.240189	-0.474372	0.435101
C187	C	1.490189	-0.224372	0.685101
C188	C	1.740189	0.025628	0.935101
C189	C	0.949893	-0.697089	0.218503
C190	C	1.199893	-0.447089	0.468503
C191	C	1.449893	-0.197089	0.718503
C192	C	1.699893	0.052911	0.968503
C193	C	0.909623	-0.724407	0.251913
C194	C	1.159623	-0.474407	0.501913
C195	C	1.409623	-0.224407	0.751913
C196	C	1.659623	0.025593	1.001913
C197	C	0.829081	-0.779039	0.318743
C198	C	1.079081	-0.529039	0.568743
C199	C	1.329081	-0.279039	0.818743
C200	C	1.579081	-0.029039	1.068743
C201	C	0.829064	-0.724432	0.318735
C202	C	1.079064	-0.474432	0.568735
C203	C	1.329064	-0.224432	0.818735
C204	C	1.579064	0.025568	1.068735
C205	C	0.869337	-0.697115	0.285322
C206	C	1.119337	-0.447115	0.535322
C207	C	1.369337	-0.197115	0.785322
C208	C	1.619337	0.052885	1.035322
C209	C	0.869301	-0.642524	0.285308
C210	C	1.119301	-0.392524	0.535308
C211	C	1.369301	-0.142524	0.785308
C212	C	1.619301	0.107476	1.035308
N213	N	0.909577	-0.615203	0.251901
N214	N	1.159577	-0.365203	0.501901
N215	N	1.409577	-0.115203	0.751901
N216	N	1.659577	0.134797	1.001901
C217	C	0.949873	-0.642486	0.218498
C218	C	1.199873	-0.392486	0.468498
C219	C	1.449873	-0.142486	0.718498
C220	C	1.699873	0.107514	0.968498
C221	C	0.869443	-0.975599	0.285347
C222	C	1.119443	-0.725599	0.535347
C223	C	1.369443	-0.475599	0.785347
C224	C	1.619443	-0.225599	1.035347
C225	C	0.869460	-1.030201	0.285349
C226	C	1.119460	-0.780201	0.535349
C227	C	1.369460	-0.530201	0.785349
C228	C	1.619460	-0.280201	1.035349
C229	C	0.950034	-1.030164	0.218536
C230	C	1.200034	-0.780164	0.468536
C231	C	1.450034	-0.530164	0.718536
C232	C	1.700034	-0.280164	0.968536
C233	C	0.950013	-0.975561	0.218532
C234	C	1.200013	-0.725561	0.468532
C235	C	1.450013	-0.475561	0.718532
C236	C	1.700013	-0.225561	0.968532
C237	C	0.909718	-0.948279	0.251940
C238	C	1.159718	-0.698279	0.501940
C239	C	1.409718	-0.448279	0.751940
C240	C	1.659718	-0.198279	1.001940
C241	C	0.949816	-0.527821	0.218485
C242	C	1.199816	-0.277821	0.468485
C243	C	1.449816	-0.027821	0.718485
C244	C	1.699816	0.222179	0.968485
C245	C	0.949785	-0.473216	0.218479
C246	C	1.199785	-0.223216	0.468479
C247	C	1.449785	0.026784	0.718479
C248	C	1.699785	0.276784	0.968479
C249	C	0.869214	-0.473258	0.285293
C250	C	1.119214	-0.223258	0.535293
C251	C	1.369214	0.026742	0.785293
C252	C	1.619214	0.276742	1.035293
C253	C	0.869242	-0.527858	0.285298
C254	C	1.119242	-0.277858	0.535298
C255	C	1.369242	-0.027858	0.785298
C256	C	1.619242	0.222142	1.035298
C257	C	0.909548	-0.555139	0.251892
C258	C	1.159548	-0.305139	0.501892
C259	C	1.409548	-0.055139	0.751892
C260	C	1.659548	0.194861	1.001892
O261	O	0.835034	-0.614257	0.313688
O262	O	1.085034	-0.364257	0.563688
O263	O	1.335034	-0.114257	0.813688
O264	O	1.585034	0.135743	1.063688
O265	O	0.984127	-0.614227	0.190092
O266	O	1.234127	-0.364227	0.440092
O267	O	1.484127	-0.114227	0.690092
O268	O	1.734127	0.135773	0.940092
C269	C	1.073773	-0.251997	0.251913
C270	C	1.323773	-0.001997	0.501913
C271	C	1.573773	0.248003	0.751913
C272	C	1.823773	0.498003	1.001913
C273	C	1.143741	-0.252005	0.251920
C274	C	1.393741	-0.002005	0.501920
C275	C	1.643741	0.247995	0.751920
C276	C	1.893741	0.497995	1.001920
C277	C	0.909603	-0.251967	0.388271
C278	C	1.159603	-0.001967	0.638271
C279	C	1.409603	0.248033	0.888271
C280	C	1.659603	0.498033	1.138271
C281	C	0.909612	-0.251963	0.446385
C282	C	1.159612	-0.001963	0.696385
C283	C	1.409612	0.248037	0.946385
C284	C	1.659612	0.498037	1.196385
C285	C	0.909706	-0.115603	0.251933
C286	C	1.159706	0.134397	0.501933
C287	C	1.409706	0.384397	0.751933
C288	C	1.659706	0.634397	1.001933
C289	C	0.909759	-0.057489	0.251949
C290	C	1.159759	0.192511	0.501949
C291	C	1.409759	0.442511	0.751949
C292	C	1.659759	0.692511	1.001949
C293	C	0.909599	-0.251947	0.116055
C294	C	1.159599	-0.001947	0.366055
C295	C	1.409599	0.248053	0.616055
C296	C	1.659599	0.498053	0.866055
C297	C	0.909712	-0.251804	0.057942
C298	C	1.159712	-0.001804	0.307942
C299	C	1.409712	0.248196	0.557942
C300	C	1.659712	0.498196	0.807942
C301	C	0.949954	-0.218428	0.806766
C302	C	1.199954	0.031572	1.056766
C303	C	1.449954	0.281572	1.306766
C304	C	1.699954	0.531572	1.556766
C305	C	0.949962	-0.218414	0.861371
C306	C	1.199962	0.031586	1.111371
C307	C	1.449962	0.281586	1.361371
C308	C	1.699962	0.531586	1.611371
O309	O	0.984212	-0.189963	0.889623
O310	O	1.234212	0.060037	1.139623
O311	O	1.484212	0.310037	1.389623
O312	O	1.734212	0.560037	1.639623
N313	N	0.909681	-0.251840	0.888668
N314	N	1.159681	-0.001840	1.138668
N315	N	1.409681	0.248160	1.388668
N316	N	1.659681	0.498160	1.638668
C317	C	0.869385	-0.285280	0.861358
C318	C	1.119385	-0.035280	1.111358
C319	C	1.369385	0.214720	1.361358
C320	C	1.619385	0.464720	1.611358
O321	O	0.835123	-0.313710	0.889590
O322	O	1.085123	-0.063710	1.139590
O323	O	1.335123	0.186290	1.389590
O324	O	1.585123	0.436290	1.639590
C325	C	0.869374	-0.285291	0.806754
C326	C	1.119374	-0.035291	1.056754
C327	C	1.369374	0.214709	1.306754
C328	C	1.619374	0.464709	1.556754
C329	C	0.909663	-0.251866	0.779460
C330	C	1.159663	-0.001866	1.029460
C331	C	1.409663	0.248134	1.279460
C332	C	1.659663	0.498134	1.529460
C333	C	0.990239	-0.185006	0.779472
C334	C	1.240239	0.064994	1.029472
C335	C	1.490239	0.314994	1.279472
C336	C	1.740239	0.564994	1.529472
C337	C	0.990232	-0.185021	0.724871
C338	C	1.240232	0.064979	0.974871
C339	C	1.490232	0.314979	1.224871
C340	C	1.740232	0.564979	1.474871
C341	C	0.949940	-0.218459	0.697565
C342	C	1.199940	0.031541	0.947565
C343	C	1.449940	0.281541	1.197565
C344	C	1.699940	0.531541	1.447565
C345	C	0.909656	-0.251882	0.724860
C346	C	1.159656	-0.001882	0.974860
C347	C	1.409656	0.248118	1.224860
C348	C	1.659656	0.498118	1.474860
C349	C	0.829076	-0.318728	0.779445
C350	C	1.079076	-0.068728	1.029445
C351	C	1.329076	0.181272	1.279445
C352	C	1.579076	0.431272	1.529445
C353	C	0.829068	-0.318736	0.724838
C354	C	1.079068	-0.068736	0.974838
C355	C	1.329068	0.181264	1.224838
C356	C	1.579068	0.431264	1.474838
C357	C	0.869357	-0.285311	0.697544
C358	C	1.119357	-0.035311	0.947544
C359	C	1.369357	0.214689	1.197544
C360	C	1.619357	0.464689	1.447544
C361	C	0.869357	-0.285335	0.642953
C362	C	1.119357	-0.035335	0.892953
C363	C	1.369357	0.214665	1.142953
C364	C	1.619357	0.464665	1.392953
N365	N	0.909638	-0.251908	0.615656
N366	N	1.159638	-0.001908	0.865656
N367	N	1.409638	0.248092	1.115656
N368	N	1.659638	0.498092	1.365656
C369	C	0.949930	-0.218470	0.642962
C370	C	1.199930	0.031530	0.892962
C371	C	1.449930	0.281530	1.142962
C372	C	1.699930	0.531530	1.392962
C373	C	0.869409	-0.285253	0.976028
C374	C	1.119409	-0.035253	1.226028
C375	C	1.369409	0.214747	1.476028
C376	C	1.619409	0.464747	1.726028
C377	C	0.869422	-0.285244	1.030631
C378	C	1.119422	-0.035244	1.280631
C379	C	1.369422	0.214756	1.530631
C380	C	1.619422	0.464756	1.780631
C381	C	0.949999	-0.218377	1.030640
C382	C	1.199999	0.031623	1.280640
C383	C	1.449999	0.281623	1.530640
C384	C	1.699999	0.531623	1.780640
C385	C	0.949988	-0.218389	0.976037
C386	C	1.199988	0.031611	1.226037
C387	C	1.449988	0.281611	1.476037
C388	C	1.699988	0.531611	1.726037
C389	C	0.909690	-0.251826	0.948731
C390	C	1.159690	-0.001826	1.198731
C391	C	1.409690	0.248174	1.448731
C392	C	1.659690	0.498174	1.698731
C393	C	0.949912	-0.218505	0.528297
C394	C	1.199912	0.031495	0.778297
C395	C	1.449912	0.281495	1.028297
C396	C	1.699912	0.531495	1.278297
C397	C	0.949903	-0.218525	0.473691
C398	C	1.199903	0.031475	0.723691
C399	C	1.449903	0.281475	0.973691
C400	C	1.699903	0.531475	1.223691
C401	C	0.869325	-0.285390	0.473687
C402	C	1.119325	-0.035390	0.723687
C403	C	1.369325	0.214610	0.973687
C404	C	1.619325	0.464610	1.223687
C405	C	0.869335	-0.285372	0.528287
C406	C	1.119335	-0.035372	0.778287
C407	C	1.369335	0.214628	1.028287
C408	C	1.619335	0.464628	1.278287
C409	C	0.909631	-0.251926	0.555591
C410	C	1.159631	-0.001926	0.805591
C411	C	1.409631	0.248074	1.055591
C412	C	1.659631	0.498074	1.305591
O413	O	0.835122	-0.313770	0.614666
O414	O	1.085122	-0.063770	0.864666
O415	O	1.335122	0.186230	1.114666
O416	O	1.585122	0.436230	1.364666
O417	O	0.984180	-0.190040	0.614723
O418	O	1.234180	0.059960	0.864723
O419	O	1.484180	0.309960	1.114723
O420	O	1.734180	0.559960	1.364723
H421	H	0.550747	-0.191385	0.312662
H422	H	0.800747	0.058615	0.562662
H423	H	1.050747	0.308615	0.812662
H424	H	1.300747	0.558615	1.062662
F425	F	0.826520	-0.320847	0.946973
F426	F	1.076520	-0.070847	1.196973
F427	F	1.326520	0.179153	1.446973
F428	F	1.576520	0.429153	1.696973
F429	F	0.992878	-0.946492	0.182969
F430	F	1.242878	-0.696492	0.432969
F431	F	1.492878	-0.446492	0.682969
F432	F	1.742878	-0.196492	0.932969
F433	F	0.542403	-0.320894	0.182745
F434	F	0.792403	-0.070894	0.432745
F435	F	1.042403	0.179106	0.682745
F436	F	1.292403	0.429106	0.932745
F437	F	0.141698	-0.183076	0.321063
F438	F	0.391698	0.066924	0.571063
F439	F	0.641698	0.316924	0.821063
F440	F	0.891698	0.566924	1.071063
H441	H	1.022985	-0.702133	0.157894
H442	H	1.272985	-0.452133	0.407894
H443	H	1.522985	-0.202133	0.657894
H444	H	1.772985	0.047867	0.907894
F445	F	0.992787	-0.182949	0.444646
F446	F	1.242787	0.067051	0.694646
F447	F	1.492787	0.317051	0.944646
F448	F	1.742787	0.567051	1.194646
F449	F	0.826445	-0.320974	0.444616
F450	F	1.076445	-0.070974	0.694616
F451	F	1.326445	0.179026	0.944616
F452	F	1.576445	0.429026	1.194616
H453	H	0.670011	-0.191385	0.312663
H454	H	0.920011	0.058615	0.562663
H455	H	1.170011	0.308615	0.812663
H456	H	1.420011	0.558615	1.062663
H457	H	0.982580	-0.450975	0.191268
H458	H	1.232580	-0.200975	0.441268
H459	H	1.482580	0.049025	0.691268
H460	H	1.732580	0.299025	0.941268
H461	H	1.023038	-0.157802	0.702653
H462	H	1.273038	0.092198	0.952653
H463	H	1.523038	0.342198	1.202653
H464	H	1.773038	0.592198	1.452653
H465	H	0.836659	-1.052439	0.312553
H466	H	1.086659	-0.802439	0.562553
H467	H	1.336659	-0.552439	0.812553
H468	H	1.586659	-0.302439	1.062553
F469	F	0.141562	-0.320939	0.182775
F470	F	0.391562	-0.070939	0.432775
F471	F	0.641562	0.179061	0.682775
F472	F	0.891562	0.429061	0.932775
F473	F	0.992714	-0.556847	0.182930
F474	F	1.242714	-0.306847	0.432930
F475	F	1.492714	-0.056847	0.682930
F476	F	1.742714	0.193153	0.932930
F477	F	0.826332	-0.444212	0.320842
F478	F	1.076332	-0.194212	0.570842
F479	F	1.326332	0.055788	0.820842
F480	F	1.576332	0.305788	1.070842
H481	H	0.269173	-0.191414	0.312680
H482	H	0.519173	0.058586	0.562680
H483	H	0.769173	0.308586	0.812680
H484	H	1.019173	0.558586	1.062680
H485	H	0.982847	-1.052388	0.191340
H486	H	1.232847	-0.802388	0.441340
H487	H	1.482847	-0.552388	0.691340
H488	H	1.732847	-0.302388	0.941340
H489	H	0.982794	-0.191170	0.953817
H490	H	1.232794	0.058830	1.203817
H491	H	1.482794	0.308830	1.453817
H492	H	1.732794	0.558830	1.703817
F493	F	0.826548	-0.946568	0.320903
F494	F	1.076548	-0.696568	0.570903
F495	F	1.326548	-0.446568	0.820903
F496	F	1.576548	-0.196568	1.070903
F497	F	0.678108	-0.320889	0.182743
F498	F	0.928108	-0.070889	0.432743
F499	F	1.178108	0.179111	0.682743
F500	F	1.428108	0.429111	0.932743
F501	F	1.033108	-0.808001	0.149554
F502	F	1.283108	-0.558001	0.399554
F503	F	1.533108	-0.308001	0.649554
F504	F	1.783108	-0.058001	0.899554
H505	H	0.982723	-0.191268	0.550521
H506	H	1.232723	0.058732	0.800521
H507	H	1.482723	0.308732	1.050521
H508	H	1.732723	0.558732	1.300521
F509	F	0.786196	-0.354306	0.808482
F510	F	1.036196	-0.104306	1.058482
F511	F	1.286196	0.145694	1.308482
F512	F	1.536196	0.395694	1.558482
F513	F	0.786221	-0.808101	0.354311
F514	F	1.036221	-0.558101	0.604311
F515	F	1.286221	-0.308101	0.854311
F516	F	1.536221	-0.058101	1.104311
H517	H	0.796245	-0.345960	0.702609
H518	H	1.046245	-0.095960	0.952609
H519	H	1.296245	0.154040	1.202609
H520	H	1.546245	0.404040	1.452609
H521	H	0.836450	-0.550102	0.312507
H522	H	1.086450	-0.300102	0.562507
H523	H	1.336450	-0.050102	0.812507
H524	H	1.586450	0.199898	1.062507
F525	F	0.277270	-0.320922	0.182768
F526	F	0.527270	-0.070922	0.432768
F527	F	0.777270	0.179078	0.682768
F528	F	1.027270	0.429078	0.932768
F529	F	0.786176	-0.695400	0.354295
F530	F	1.036176	-0.445400	0.604295
F531	F	1.286176	-0.195400	0.854295
F532	F	1.536176	0.054600	1.104295
H533	H	1.023049	-0.157774	0.801699
H534	H	1.273049	0.092226	1.051699
H535	H	1.523049	0.342226	1.301699
H536	H	1.773049	0.592226	1.551699
H537	H	0.982805	-0.191149	1.052883
H538	H	1.232805	0.058851	1.302883
H539	H	1.482805	0.308851	1.552883
H540	H	1.732805	0.558851	1.802883
H541	H	0.836622	-0.312468	1.052849
H542	H	1.086622	-0.062468	1.302849
H543	H	1.336622	0.187532	1.552849
H544	H	1.586622	0.437532	1.802849
F545	F	0.826461	-0.320950	0.557337
F546	F	1.076461	-0.070950	0.807337
F547	F	1.326461	0.179050	1.057337
F548	F	1.576461	0.429050	1.307337
