data_functionalizedCrystal
_audit_creation_method	'MofGen! by Chris Wilmer'
_symmetry_space_group_name_H-M	'P1'
_symmetry_Int_Tables_number	1
_symmetry_cell_setting	triclinic
loop_
_symmetry_equiv_pos_as_xyz
  x,y,z
_cell_length_a	16.120530
_cell_length_b	16.625546
_cell_length_c	16.120297
_cell_angle_alpha	92.870382
_cell_angle_beta	90.128140
_cell_angle_gamma	87.117901
loop_
_atom_site_label
_atom_site_type_symbol
_atom_site_fract_x
_atom_site_fract_y
_atom_site_fract_z
Zn1	Zn	1.247449	-0.408498	-0.534548
Zn2	Zn	1.580782	-0.075165	-0.201215
Zn3	Zn	1.914115	0.258169	0.132118
Zn4	Zn	1.254402	-0.536856	-0.395486
Zn5	Zn	1.587735	-0.203523	-0.062152
Zn6	Zn	1.921069	0.129810	0.271181
Zn7	Zn	1.115439	-0.394873	-0.388467
Zn8	Zn	1.448772	-0.061539	-0.055134
Zn9	Zn	1.782105	0.271794	0.278200
Zn10	Zn	1.108359	-0.536114	-0.527455
Zn11	Zn	1.441692	-0.202780	-0.194122
Zn12	Zn	1.775025	0.130553	0.139212
O13	O	1.181412	-0.469085	-0.461489
O14	O	1.514745	-0.135752	-0.128156
O15	O	1.848079	0.197581	0.205178
O16	O	1.364738	-0.431538	-0.522007
O17	O	1.698071	-0.098205	-0.188674
O18	O	2.031404	0.235129	0.144659
O19	O	1.241841	-0.512630	-0.278189
O20	O	1.575175	-0.179297	0.055144
O21	O	1.908508	0.154036	0.388477
O22	O	1.133003	-0.283852	-0.407876
O23	O	1.466337	0.049481	-0.074543
O24	O	1.799670	0.382815	0.258791
O25	O	1.369846	-0.525842	-0.419839
O26	O	1.703179	-0.192509	-0.086505
O27	O	2.036513	0.140824	0.246828
O28	O	1.229990	-0.293862	-0.515202
O29	O	1.563324	0.039471	-0.181868
O30	O	1.896657	0.372804	0.151465
O31	O	1.139746	-0.408316	-0.273033
O32	O	1.473079	-0.074982	0.060301
O33	O	1.806412	0.258351	0.393634
O34	O	0.998133	-0.407596	-0.400998
O35	O	1.331467	-0.074262	-0.067665
O36	O	1.664800	0.259071	0.265669
O37	O	1.120936	-0.524577	-0.644761
O38	O	1.454269	-0.191243	-0.311428
O39	O	1.787603	0.142090	0.021906
O40	O	0.992931	-0.511365	-0.503112
O41	O	1.326265	-0.178032	-0.169779
O42	O	1.659598	0.155302	0.163555
O43	O	1.223125	-0.430818	-0.649973
O44	O	1.556458	-0.097485	-0.316639
O45	O	1.889792	0.235849	0.016694
O46	O	1.234976	-0.649586	-0.412960
O47	O	1.568309	-0.316253	-0.079627
O48	O	1.901643	0.017081	0.253706
O49	O	1.127678	-0.649041	-0.509918
O50	O	1.461012	-0.315707	-0.176584
O51	O	1.794345	0.017626	0.156749
C52	C	1.181335	-0.678570	-0.461450
C53	C	1.514668	-0.345237	-0.128117
C54	C	1.848002	-0.011904	0.205217
C55	C	1.181377	-0.768194	-0.461465
C56	C	1.514710	-0.434861	-0.128132
C57	C	1.848044	-0.101528	0.205201
C58	C	0.965360	-0.457922	-0.450524
C59	C	1.298693	-0.124589	-0.117191
C60	C	1.632026	0.208745	0.216143
C61	C	0.872931	-0.453167	-0.445853
C62	C	1.206264	-0.119833	-0.112520
C63	C	1.539597	0.213500	0.220814
C64	C	1.181518	-1.096381	-0.461559
C65	C	1.514851	-0.763048	-0.128226
C66	C	1.848184	-0.429715	0.205108
C67	C	1.181476	-1.005070	-0.461535
C68	C	1.514809	-0.671736	-0.128202
C69	C	1.848142	-0.338403	0.205132
C70	C	1.181447	-0.932291	-0.461512
C71	C	1.514780	-0.598957	-0.128178
C72	C	1.848113	-0.265624	0.205155
C73	C	1.181406	-0.840973	-0.461489
C74	C	1.514739	-0.507640	-0.128155
C75	C	1.848073	-0.174307	0.205178
C76	C	0.703701	-0.444466	-0.437332
C77	C	1.037034	-0.111133	-0.103999
C78	C	1.370368	0.222201	0.229335
C79	C	0.659961	-0.493767	-0.485707
C80	C	0.993294	-0.160433	-0.152373
C81	C	1.326627	0.172900	0.180960
C82	C	0.565795	-0.488926	-0.480965
C83	C	0.899129	-0.155592	-0.147632
C84	C	1.232462	0.177741	0.185701
C85	C	0.797875	-0.449306	-0.442072
C86	C	1.131208	-0.115973	-0.108739
C87	C	1.464541	0.217361	0.224595
C88	C	1.398308	-0.480293	-0.472497
C89	C	1.731641	-0.146959	-0.139164
C90	C	2.064975	0.186374	0.194170
C91	C	1.490736	-0.485069	-0.477188
C92	C	1.824069	-0.151735	-0.143855
C93	C	2.157403	0.181598	0.189479
C94	C	1.170465	-0.479134	-0.678383
C95	C	1.503798	-0.145801	-0.345049
C96	C	1.837132	0.187532	-0.011716
C97	C	1.165800	-0.483417	-0.770810
C98	C	1.499133	-0.150083	-0.437477
C99	C	1.832467	0.183250	-0.104143
C100	C	1.181511	-0.258784	-0.461547
C101	C	1.514844	0.074549	-0.128214
C102	C	1.848178	0.407883	0.205119
C103	C	1.181553	-0.169166	-0.461572
C104	C	1.514887	0.164167	-0.128239
C105	C	1.848220	0.497501	0.205095
C106	C	1.157253	-0.491215	-0.940034
C107	C	1.490586	-0.157882	-0.606701
C108	C	1.823919	0.175451	-0.273368
C109	C	1.205735	-0.446722	-0.983804
C110	C	1.539069	-0.113388	-0.650470
C111	C	1.872402	0.219945	-0.317137
C112	C	1.200979	-0.451061	-1.077966
C113	C	1.534313	-0.117728	-0.744633
C114	C	1.867646	0.215606	-0.411299
C115	C	1.162007	-0.486877	-0.845863
C116	C	1.495341	-0.153544	-0.512530
C117	C	1.828674	0.179790	-0.179197
C118	C	1.192364	-0.459020	-0.245441
C119	C	1.525698	-0.125686	0.087892
C120	C	1.859031	0.207647	0.421225
C121	C	1.197190	-0.454518	-0.153023
C122	C	1.530524	-0.121185	0.180310
C123	C	1.863857	0.212148	0.513644
H124	H	0.693234	-0.539609	-0.530683
H125	H	1.026567	-0.206276	-0.197350
H126	H	1.359900	0.127058	0.135983
O127	O	1.103552	-0.540533	-0.979821
O128	O	1.436885	-0.207200	-0.646487
O129	O	1.770218	0.126133	-0.313154
C130	C	1.110696	-0.533929	-1.066341
C131	C	1.444030	-0.200596	-0.733008
C132	C	1.777363	0.132737	-0.399674
H133	H	1.174299	-0.511363	-1.081364
H134	H	1.507632	-0.178029	-0.748031
H135	H	1.840966	0.155304	-0.414698
H136	H	1.103399	-0.595526	-1.099132
H137	H	1.436732	-0.262193	-0.765798
H138	H	1.770066	0.071141	-0.432465
H139	H	1.060170	-0.489561	-1.088490
H140	H	1.393503	-0.156228	-0.755156
H141	H	1.726837	0.177106	-0.421823
O142	O	0.664144	-0.389712	-0.383653
O143	O	0.997477	-0.056378	-0.050320
O144	O	1.330811	0.276955	0.283014
C145	C	0.723354	-0.344836	-0.339582
C146	C	1.056688	-0.011502	-0.006249
C147	C	1.390021	0.321831	0.327085
H148	H	0.783591	-0.346785	-0.376703
H149	H	1.116925	-0.013451	-0.043369
H150	H	1.450258	0.319882	0.289964
H151	H	0.698632	-0.279624	-0.329579
H152	H	1.031966	0.053709	0.003754
H153	H	1.365299	0.387043	0.337088
H154	H	0.735718	-0.371809	-0.276829
H155	H	1.069051	-0.038476	0.056504
H156	H	1.402384	0.294858	0.389837
H157	H	1.250814	-0.405370	-0.950558
H158	H	1.584147	-0.072036	-0.617225
H159	H	1.917480	0.261297	-0.283891
