data_functionalizedCrystal
_audit_creation_method	'MofGen! by Chris Wilmer'
_symmetry_space_group_name_H-M	'P1'
_symmetry_Int_Tables_number	1
_symmetry_cell_setting	triclinic
loop_
_symmetry_equiv_pos_as_xyz
  x,y,z
_cell_length_a	17.699077
_cell_length_b	10.723024
_cell_length_c	16.776229
_cell_angle_alpha	89.994545
_cell_angle_beta	89.993415
_cell_angle_gamma	83.874223
loop_
_atom_site_label
_atom_site_type_symbol
_atom_site_fract_x
_atom_site_fract_y
_atom_site_fract_z
O1	O	1.005076	0.157762	-0.066276
O2	O	1.505076	0.657762	0.433724
O3	O	0.784827	0.178299	-0.066279
O4	O	1.284827	0.678299	0.433721
O5	O	0.900032	-0.013633	-0.066274
O6	O	1.400032	0.486367	0.433726
O7	O	0.889871	0.349694	-0.066280
O8	O	1.389871	0.849694	0.433720
O9	O	0.900017	-0.013645	0.066302
O10	O	1.400017	0.486355	0.566302
O11	O	0.784811	0.178287	0.066297
O12	O	1.284811	0.678287	0.566297
O13	O	1.005061	0.157750	0.066301
O14	O	1.505061	0.657750	0.566301
Zn15	Zn	0.894934	0.168017	0.087348
Zn16	Zn	1.394934	0.668017	0.587348
Zn17	Zn	0.894954	0.168032	-0.087327
Zn18	Zn	1.394954	0.668032	0.412673
O19	O	0.889856	0.349682	0.066296
O20	O	1.389856	0.849682	0.566296
C21	C	0.756618	0.177559	0.000009
C22	C	1.256618	0.677559	0.500009
C23	C	0.672585	0.175355	0.000007
C24	C	1.172585	0.675355	0.500007
C25	C	0.633103	0.174310	0.072275
C26	C	1.133103	0.674310	0.572275
C27	C	0.554147	0.172219	0.072276
C28	C	1.054147	0.672219	0.572276
C29	C	0.514675	0.171182	0.000008
C30	C	1.014675	0.671182	0.500008
C31	C	0.554163	0.172223	-0.072266
C32	C	1.054163	0.672223	0.427734
C33	C	0.633118	0.174305	-0.072266
C34	C	1.133118	0.674305	0.427734
C35	C	0.235747	0.163826	-0.072267
C36	C	0.735747	0.663826	0.427733
C37	C	0.156786	0.161748	-0.072262
C38	C	0.656786	0.661748	0.427738
C39	C	0.156776	0.161740	0.072275
C40	C	0.656776	0.661740	0.572275
C41	C	0.235731	0.163822	0.072275
C42	C	0.735731	0.663822	0.572275
C43	C	0.275213	0.164856	0.000002
C44	C	0.775213	0.664856	0.500002
C45	C	0.360826	0.167121	0.000001
C46	C	0.860826	0.667121	0.500001
C47	C	0.429062	0.168927	0.000007
C48	C	0.929062	0.668927	0.500007
C49	C	0.899285	-0.060126	0.000013
C50	C	1.399285	0.439874	0.500013
C51	C	0.897073	-0.198642	0.000010
C52	C	1.397073	0.301358	0.500010
C53	C	0.961535	-0.274732	0.000010
C54	C	1.461535	0.225268	0.500010
C55	C	0.959250	-0.417896	0.000007
C56	C	1.459250	0.082104	0.500007
C57	C	1.033270	0.158490	0.000011
C58	C	1.533270	0.658490	0.500011
C59	C	1.117303	0.160694	0.000008
C60	C	1.617303	0.660694	0.500008
C61	C	0.890603	0.396175	0.000007
C62	C	1.390603	0.896175	0.500007
C63	C	0.892815	0.534691	0.000005
C64	C	1.392815	1.034691	0.500005
N65	N	0.894925	0.168005	0.206560
N66	N	1.394925	0.668005	0.706560
N67	N	0.894969	0.168034	-0.206538
N68	N	1.394969	0.668034	0.293462
C69	C	0.945954	0.083053	0.248279
C70	C	1.445954	0.583053	0.748279
C71	C	0.945958	0.083052	0.331731
C72	C	1.445958	0.583052	0.831731
C73	C	0.894937	0.168010	0.373463
C74	C	1.394937	0.668010	0.873463
C75	C	0.843903	0.252967	0.331737
C76	C	1.343903	0.752967	0.831737
C77	C	0.843895	0.252961	0.248287
C78	C	1.343895	0.752961	0.748287
C79	C	0.843930	0.252992	0.668285
C80	C	1.343930	0.752992	1.168285
C81	C	0.843943	0.252993	0.751741
C82	C	1.343943	0.752993	1.251741
C83	C	0.945993	0.083082	0.751729
C84	C	1.445993	0.583082	1.251729
C85	C	0.945986	0.083076	0.668278
C86	C	1.445986	0.583076	1.168278
C87	C	0.894949	0.168028	0.626561
C88	C	1.394949	0.668028	1.126561
C89	C	0.894944	0.168026	0.536072
C90	C	1.394944	0.668026	1.036072
C91	C	0.894945	0.168019	0.463949
C92	C	1.394945	0.668019	0.963949
H93	H	0.124621	0.160892	0.131124
H94	H	0.624621	0.660892	0.631124
O95	O	0.671522	0.175105	-0.142448
O96	O	1.171522	0.675105	0.357552
C97	C	0.725221	0.068299	-0.146763
C98	C	1.225221	0.568299	0.353237
H99	H	0.707026	-0.007836	-0.105749
H100	H	1.207026	0.492164	0.394251
H101	H	0.728813	0.032067	-0.210681
H102	H	1.228813	0.532067	0.289319
H103	H	0.783246	0.094297	-0.127349
H104	H	1.283246	0.594297	0.372651
O105	O	0.995493	0.000595	0.792379
O106	O	1.495493	0.500595	1.292379
C107	C	0.984574	0.018827	0.874983
C108	C	1.484574	0.518827	1.374983
H109	H	0.924645	0.065586	0.886392
H110	H	1.424645	0.565586	1.386392
H111	H	0.992513	-0.075689	0.906702
H112	H	1.492513	0.424311	1.406702
H113	H	1.027734	0.081326	0.898651
H114	H	1.527734	0.581326	1.398651
H115	H	0.987535	0.013899	0.634303
H116	H	1.487535	0.513899	1.134303
H117	H	0.802356	0.322138	0.365720
H118	H	1.302356	0.822138	0.865720
O119	O	1.025110	-0.495834	0.000147
O120	O	1.525110	0.004166	0.500147
C121	C	1.067543	-0.473291	0.068799
C122	C	1.567543	0.026709	0.568799
H123	H	1.027842	-0.428618	0.116792
H124	H	1.527842	0.071382	0.616792
H125	H	1.097346	-0.565779	0.091845
H126	H	1.597346	-0.065779	0.591845
H127	H	1.111751	-0.407251	0.053276
H128	H	1.611751	0.092749	0.553276
O129	O	0.995428	0.000408	0.372288
O130	O	1.495428	0.500408	0.872288
C131	C	0.954514	-0.076482	0.420589
C132	C	1.454514	0.423518	0.920589
H133	H	0.894815	-0.078473	0.395459
H134	H	1.394815	0.421527	0.895459
H135	H	0.984887	-0.175724	0.421531
H136	H	1.484887	0.324276	0.921531
H137	H	0.950757	-0.037427	0.483835
H138	H	1.450757	0.462573	0.983835
H139	H	0.802392	0.322179	0.785718
H140	H	1.302392	0.822179	1.285718
O141	O	0.826993	-0.387276	-0.000137
O142	O	1.326993	0.112724	0.499863
C143	C	0.824151	-0.311060	-0.068788
C144	C	1.324151	0.188940	0.431212
H145	H	0.862582	-0.358906	-0.116779
H146	H	1.362582	0.141094	0.383221
H147	H	0.763267	-0.296111	-0.091838
H148	H	1.263267	0.203889	0.408162
H149	H	0.844302	-0.216534	-0.053260
H150	H	1.344302	0.283466	0.446740
O151	O	0.794332	0.335637	0.627891
O152	O	1.294332	0.835637	1.127891
C153	C	0.749293	0.410604	0.682622
C154	C	1.249293	0.910604	1.182622
H155	H	0.780338	0.411949	0.742099
H156	H	1.280338	0.911949	1.242099
H157	H	0.738257	0.510280	0.658506
H158	H	1.238257	1.010280	1.158506
H159	H	0.692864	0.370205	0.691518
H160	H	1.192864	0.870205	1.191518
H161	H	0.522019	0.171370	-0.131108
H162	H	1.022019	0.671370	0.368892
O163	O	0.794300	0.335608	0.207882
O164	O	1.294300	0.835608	0.707882
C165	C	0.749256	0.410578	0.262607
C166	C	1.249256	0.910578	0.762607
H167	H	0.780298	0.411930	0.322087
H168	H	1.280298	0.911930	0.822087
H169	H	0.738221	0.510252	0.238488
H170	H	1.238221	1.010252	0.738488
H171	H	0.692828	0.370177	0.271500
H172	H	1.192828	0.870177	0.771500
H173	H	1.018416	-0.233887	0.000016
H174	H	1.518416	0.266113	0.500016
H175	H	0.987505	0.013875	0.214307
H176	H	1.487505	0.513875	0.714307
H177	H	0.522006	0.171347	0.131124
H178	H	1.022006	0.671347	0.631124
O179	O	0.671331	0.175257	0.142550
O180	O	1.171331	0.675257	0.642550
C181	C	0.619545	0.173914	0.206335
C182	C	1.119545	0.673914	0.706335
H183	H	0.566196	0.132946	0.185146
H184	H	1.066196	0.632946	0.685146
H185	H	0.646845	0.113951	0.256880
H186	H	1.146845	0.613951	0.756880
H187	H	0.603721	0.273757	0.228557
H188	H	1.103721	0.773757	0.728557
H189	H	0.267865	0.164672	0.131123
H190	H	0.767865	0.664672	0.631123
O191	O	0.118562	0.160682	-0.142539
O192	O	0.618562	0.660682	0.357461
C193	C	0.170337	0.162071	-0.206330
C194	C	0.670337	0.662071	0.293670
H195	H	0.229548	0.124062	-0.185146
H196	H	0.729548	0.624062	0.314854
H197	H	0.152018	0.100912	-0.256869
H198	H	0.652018	0.600912	0.243131
H199	H	0.171313	0.262358	-0.228559
H200	H	0.671313	0.762358	0.271441
H201	H	0.267883	0.164665	-0.131117
H202	H	0.767883	0.664665	0.368883
O203	O	0.829164	-0.247209	0.000112
O204	O	1.329164	0.252791	0.500112
C205	C	0.787746	-0.206354	0.068785
C206	C	1.287746	0.293646	0.568785
H207	H	0.808761	-0.116094	0.091681
H208	H	1.308761	0.383906	0.591681
H209	H	0.724809	-0.188231	0.053341
H210	H	1.224809	0.311769	0.553341
H211	H	0.796176	-0.281698	0.116862
H212	H	1.296176	0.218302	0.616862
