data_functionalizedCrystal
_audit_creation_method	'MofGen! by Chris Wilmer'
_symmetry_space_group_name_H-M	'P1'
_symmetry_Int_Tables_number	1
_symmetry_cell_setting	triclinic
loop_
_symmetry_equiv_pos_as_xyz
  x,y,z
_cell_length_a	15.995350
_cell_length_b	10.654559
_cell_length_c	9.130313
_cell_angle_alpha	89.999532
_cell_angle_beta	89.997128
_cell_angle_gamma	96.009471
loop_
_atom_site_label
_atom_site_type_symbol
_atom_site_fract_x
_atom_site_fract_y
_atom_site_fract_z
O1	O	-0.117635	1.666291	-0.121793
O2	O	-0.128832	1.300667	-0.121792
O3	O	-0.001404	1.493473	-0.121798
O4	O	-0.245063	1.473484	-0.121787
O5	O	-0.001408	1.493471	0.121801
O6	O	-0.128835	1.300665	0.121806
O7	O	-0.117639	1.666288	0.121806
Cu8	Cu	-0.123237	1.483476	0.144049
Cu9	Cu	-0.123233	1.483479	-0.144035
O10	O	-0.245066	1.473482	0.121812
C11	C	-0.128010	1.253879	0.000007
C12	C	-0.125545	1.114469	0.000006
C13	C	-0.048202	1.063939	0.000007
C14	C	-0.045891	0.932947	-0.000005
C15	C	-0.198275	0.903024	-0.000010
C16	C	-0.200585	1.034014	-0.000009
C17	C	0.039776	1.081214	0.000016
C18	C	0.042086	0.950222	0.000005
C19	C	-0.276264	1.474310	0.000014
C20	C	-0.369229	1.476787	0.000018
C21	C	-0.707029	1.485684	-0.000005
C22	C	-0.660395	1.622997	-0.000548
C23	C	-0.563690	1.620519	0.000008
C24	C	-0.539442	1.481271	0.000006
C25	C	-0.580132	1.413542	0.139107
C26	C	-0.676788	1.416992	0.139216
C27	C	-0.677115	1.414158	-0.137802
C28	C	-0.580170	1.414190	-0.139632
C29	C	-0.444730	1.478770	0.000017
C30	C	-0.801741	1.488182	-0.000006
C31	C	0.029794	1.492646	-0.000003
C32	C	0.122758	1.490168	-0.000017
C33	C	-0.118461	1.713076	0.000004
C34	C	-0.120925	1.852487	-0.000005
N35	N	-0.123240	1.483483	0.346672
N36	N	-0.123224	1.483482	-0.346658
C37	C	-0.066834	1.568880	0.423321
C38	C	-0.066824	1.568876	0.576658
C39	C	-0.179633	1.398077	0.576682
C40	C	-0.179638	1.398075	0.423348
C41	C	-0.001707	1.667493	0.423308
C42	C	-0.001697	1.667490	0.576645
H43	H	0.076487	0.921301	0.101950
H44	H	0.070109	0.914960	-0.105178
F45	F	-0.686426	1.694417	0.129108
H46	H	0.066353	1.127202	0.105197
H47	H	-0.259369	0.837503	-0.000023
F48	F	-0.020445	1.793391	0.631049
H49	H	-0.225560	1.328528	0.360942
H50	H	-0.022102	1.758410	0.375751
F51	F	-0.704304	1.472829	-0.275614
F52	F	-0.544857	1.478826	-0.274142
H53	H	-0.535573	1.673766	-0.099700
H54	H	-0.225550	1.328538	0.639129
H55	H	-0.708449	1.316179	0.145538
F56	F	-0.282904	1.087786	-0.000038
F57	F	0.083115	1.136356	-0.133222
H58	H	-0.679231	1.677874	-0.100317
H59	H	-0.536143	1.674111	0.099899
H60	H	0.062650	1.646891	0.381685
H61	H	-0.695383	1.466380	0.243199
F62	F	-0.543409	1.475031	0.274422
F63	F	-0.560893	1.279825	0.145870
F64	F	-0.559248	1.281500	-0.150696
F65	F	-0.717853	1.281828	-0.139029
F66	F	0.077791	1.628638	0.638796
