data_functionalizedCrystal
_audit_creation_method	'MofGen! by Chris Wilmer'
_symmetry_space_group_name_H-M	'P1'
_symmetry_Int_Tables_number	1
_symmetry_cell_setting	triclinic
loop_
_symmetry_equiv_pos_as_xyz
  x,y,z
_cell_length_a	19.288840
_cell_length_b	13.330367
_cell_length_c	19.288865
_cell_angle_alpha	89.990328
_cell_angle_beta	83.131131
_cell_angle_gamma	89.984584
loop_
_atom_site_label
_atom_site_type_symbol
_atom_site_fract_x
_atom_site_fract_y
_atom_site_fract_z
O1	O	0.921363	-0.083602	0.086564
O2	O	1.421363	0.416398	0.586564
O3	O	0.719100	-0.083569	0.098271
O4	O	1.219100	0.416431	0.598271
O5	O	0.826076	-0.083567	-0.008713
O6	O	1.326076	0.416433	0.491287
O7	O	0.814387	-0.083605	0.193548
O8	O	1.314387	0.416395	0.693548
O9	O	0.826059	0.083280	-0.008715
O10	O	1.326059	0.583280	0.491285
O11	O	0.719083	0.083278	0.098269
O12	O	1.219083	0.583278	0.598269
O13	O	0.921346	0.083245	0.086562
O14	O	1.421346	0.583245	0.586562
Cu15	Cu	0.820213	0.098496	0.092416
Cu16	Cu	1.320213	0.598496	0.592416
Cu17	Cu	0.820233	-0.098820	0.092418
Cu18	Cu	1.320233	0.401180	0.592418
O19	O	0.814370	0.083242	0.193547
O20	O	1.314370	0.583242	0.693547
C21	C	0.693215	-0.000141	0.097896
C22	C	1.193215	0.499859	0.597896
C23	C	0.616110	-0.000128	0.096774
C24	C	1.116110	0.499872	0.596774
N25	N	0.820204	0.237277	0.092414
N26	N	1.320204	0.737277	0.592414
C27	C	0.579916	-0.091078	0.096236
C28	C	1.079916	0.408922	0.596236
C29	C	0.507469	-0.091091	0.095174
C30	C	1.007469	0.408909	0.595174
C31	C	0.471221	-0.000147	0.094636
C32	C	0.971221	0.499853	0.594636
C33	C	0.507424	0.090816	0.095178
C34	C	1.007424	0.590816	0.595178
C35	C	0.579868	0.090826	0.096247
C36	C	1.079868	0.590826	0.596247
C37	C	0.361887	0.069523	0.052258
C38	C	0.861887	0.569523	0.552258
C39	C	0.289444	0.069510	0.051184
C40	C	0.789444	0.569510	0.551184
C41	C	0.247778	-0.000172	0.091342
C42	C	0.747778	0.499828	0.591342
C43	C	0.278564	-0.069858	0.132564
C44	C	0.778564	0.430142	0.632564
C45	C	0.351009	-0.069848	0.133633
C46	C	0.851009	0.430152	0.633633
C47	C	0.392667	-0.000147	0.093477
C48	C	0.892667	0.499853	0.593477
C49	C	0.133028	-0.091142	0.089653
C50	C	0.633028	0.408858	0.589653
C51	C	0.060579	-0.091151	0.088596
C52	C	0.560579	0.408849	0.588596
C53	C	0.060536	0.090759	0.088593
C54	C	0.560536	0.590759	0.588593
C55	C	0.132983	0.090764	0.089658
C56	C	0.632983	0.590764	0.589658
C57	C	0.169225	-0.000189	0.090185
C58	C	0.669225	0.499811	0.590185
C59	C	0.772856	0.709899	0.139775
C60	C	1.272856	1.209899	0.639775
C61	C	0.867616	0.709869	0.045061
C62	C	1.367616	1.209869	0.545061
C63	C	0.867609	0.604851	0.045058
C64	C	1.367609	1.104851	0.545058
C65	C	0.820225	0.552352	0.092415
C66	C	1.320225	1.052352	0.592415
C67	C	0.772849	0.604871	0.139775
C68	C	1.272849	1.104871	0.639775
C69	C	0.914990	0.552324	-0.002296
C70	C	1.414990	1.052324	0.497704
C71	C	0.914985	0.447299	-0.002299
C72	C	1.414985	0.947299	0.497701
C73	C	0.867598	0.394798	0.045055
C74	C	1.367598	0.894798	0.545055
C75	C	0.820218	0.447324	0.092416
C76	C	1.320218	0.947324	0.592416
C77	C	0.772835	0.394825	0.139773
C78	C	1.272835	0.894825	0.639773
C79	C	0.725451	0.447348	0.187131
C80	C	1.225451	0.947348	0.687131
C81	C	0.725461	0.552370	0.187129
C82	C	1.225461	1.052370	0.687129
C83	C	0.867588	0.289776	0.045057
C84	C	1.367588	0.789776	0.545057
C85	C	0.772828	0.289797	0.139773
C86	C	1.272828	0.789797	0.639773
C87	C	0.947232	-0.000186	0.086937
C88	C	1.447232	0.499814	0.586937
C89	C	1.024336	-0.000206	0.088059
C90	C	1.524336	0.499794	0.588059
N91	N	0.820239	0.762398	0.092418
N92	N	1.320239	1.262398	0.592418
C93	C	0.825692	-0.000140	-0.034591
C94	C	1.325692	0.499860	0.465409
C95	C	0.824563	-0.000131	-0.111694
C96	C	1.324563	0.499869	0.388306
C97	C	0.887331	-0.000137	-0.156396
C98	C	1.387331	0.499863	0.343604
C99	C	0.886270	-0.000152	-0.228843
C100	C	1.386270	0.499848	0.271157
C101	C	0.822438	-0.000143	-0.256585
C102	C	1.322438	0.499857	0.243415
C103	C	0.759661	-0.000143	-0.211873
C104	C	1.259661	0.499857	0.288127
C105	C	0.760723	-0.000137	-0.139428
C106	C	1.260723	0.499863	0.360572
C107	C	0.772252	0.058309	-0.364868
C108	C	1.272252	0.558309	0.135132
C109	C	0.771192	0.058309	-0.437313
C110	C	1.271192	0.558309	0.062687
C111	C	0.819158	-0.000164	-0.480030
C112	C	1.319158	0.499836	0.019970
C113	C	0.868196	-0.058626	-0.450296
C114	C	1.368196	0.441374	0.049704
C115	C	0.869258	-0.058620	-0.377850
C116	C	1.369258	0.441380	0.122150
C117	C	0.821278	-0.000149	-0.335139
C118	C	1.321278	0.499851	0.164861
C119	C	0.880781	-0.000188	-0.603288
C120	C	1.380781	0.499812	-0.103288
C121	C	0.879717	-0.000210	-0.675736
C122	C	1.379717	0.499790	-0.175736
C123	C	0.753106	-0.000191	-0.658764
C124	C	1.253106	0.499809	-0.158764
C125	C	0.754171	-0.000179	-0.586318
C126	C	1.254171	0.499821	-0.086318
C127	C	0.818010	-0.000173	-0.558584
C128	C	1.318010	0.499827	-0.058584
C129	C	0.814755	-0.000186	0.219424
C130	C	1.314755	0.499814	0.719424
C131	C	0.815884	-0.000202	0.296527
C132	C	1.315884	0.499798	0.796527
H133	H	0.477994	-0.165156	0.094737
H134	H	0.977994	0.334844	0.594737
H135	H	0.686874	0.404592	0.225693
H136	H	1.186874	0.904592	0.725693
O137	O	0.918723	0.766493	-0.006010
O138	O	1.418723	1.266493	0.493990
H139	H	0.951669	0.712327	-0.038937
H140	H	1.451669	1.212327	0.461063
O141	O	0.384217	-0.144990	0.178099
O142	O	0.884217	0.355010	0.678099
H143	H	0.343078	-0.193444	0.205851
H144	H	0.843078	0.306556	0.705851
H145	H	0.906170	0.247016	0.006501
H146	H	1.406170	0.747016	0.506501
H147	H	0.953572	0.595072	-0.040849
H148	H	1.453572	1.095072	0.459151
H149	H	0.939314	-0.000135	-0.133820
H150	H	1.439314	0.499865	0.366180
H151	H	0.734275	0.752667	0.178331
H152	H	1.234275	1.252667	0.678331
O153	O	0.674365	0.609017	0.238213
O154	O	1.174365	1.109017	0.738213
H155	H	0.682339	0.690864	0.230263
H156	H	1.182339	1.190864	0.730263
H157	H	0.703058	-0.000169	-0.549920
H158	H	1.203058	0.499831	-0.049920
H159	H	0.932763	-0.000188	-0.580706
H160	H	1.432763	0.499812	-0.080706
H161	H	0.937386	-0.000161	-0.265246
H162	H	1.437386	0.499839	0.234754
O163	O	0.619001	-0.189178	0.096810
O164	O	1.119001	0.310822	0.596810
H165	H	0.675459	-0.173895	0.097638
H166	H	1.175459	0.326105	0.597638
O167	O	0.966080	0.390649	-0.053382
O168	O	1.466080	0.890649	0.446618
H169	H	0.999025	0.444800	-0.086316
H170	H	1.499025	0.944800	0.413684
H171	H	0.731259	0.105906	-0.461516
H172	H	1.231259	0.605906	0.038484
H173	H	0.909185	-0.106223	-0.353644
H174	H	1.409185	0.393777	0.146356
O175	O	0.919933	-0.121708	-0.496356
O176	O	1.419933	0.378292	0.003644
H177	H	0.910952	-0.111905	-0.551727
H178	H	1.410952	0.388095	-0.051727
H179	H	0.930833	-0.000220	-0.712132
H180	H	1.430833	0.499780	-0.212132
H181	H	0.733190	0.105930	-0.330093
H182	H	1.233190	0.605930	0.169907
H183	H	0.701132	-0.000188	-0.681351
H184	H	1.201132	0.499812	-0.181351
O185	O	0.690810	-0.000121	-0.241788
O186	O	1.190810	0.499879	0.258212
H187	H	0.700616	-0.000112	-0.299674
H188	H	1.200616	0.499888	0.200326
O189	O	0.693018	-0.000112	-0.091210
O190	O	1.193018	0.499888	0.408790
H191	H	0.662460	-0.068108	-0.101035
H192	H	1.162460	0.431892	0.398965
O193	O	0.233636	-0.145018	0.175887
O194	O	0.733636	0.354982	0.675887
H195	H	0.178088	-0.133312	0.168229
H196	H	0.678088	0.366688	0.668229
H197	H	0.031110	-0.165217	0.088162
H198	H	0.531110	0.334783	0.588162
O199	O	0.172124	-0.189235	0.090234
O200	O	0.672124	0.310765	0.590234
H201	H	0.134780	-0.252483	0.089694
H202	H	0.634780	0.247517	0.589694
H203	H	0.609337	0.164891	0.096686
H204	H	1.109337	0.664891	0.596686
O205	O	0.021435	0.188853	0.088144
O206	O	0.521435	0.688853	0.588144
H207	H	-0.035028	0.173569	0.087354
H208	H	0.464972	0.673569	0.587354
O209	O	0.172027	0.188862	0.090248
O210	O	0.672027	0.688862	0.590248
H211	H	0.134653	0.252101	0.089698
H212	H	0.634653	0.752101	0.589698
H213	H	0.395806	0.126271	0.019555
H214	H	0.895806	0.626271	0.519555
O215	O	0.256238	0.144670	0.006730
O216	O	0.756238	0.644670	0.506730
H217	H	0.297379	0.193141	-0.021002
H218	H	0.797379	0.693141	0.478998
O219	O	0.721712	0.233169	0.190842
O220	O	1.221712	0.733169	0.690842
H221	H	0.750833	0.185287	0.224524
H222	H	1.250833	0.685287	0.724524
H223	H	0.477906	0.164863	0.094742
H224	H	0.977906	0.664863	0.594742
