data_functionalizedCrystal
_audit_creation_method	'MofGen! by Chris Wilmer'
_symmetry_space_group_name_H-M	'P1'
_symmetry_Int_Tables_number	1
_symmetry_cell_setting	triclinic
loop_
_symmetry_equiv_pos_as_xyz
  x,y,z
_cell_length_a	26.210047
_cell_length_b	10.489741
_cell_length_c	27.731994
_cell_angle_alpha	96.420007
_cell_angle_beta	89.997114
_cell_angle_gamma	89.989483
loop_
_atom_site_label
_atom_site_type_symbol
_atom_site_fract_x
_atom_site_fract_y
_atom_site_fract_z
O1	O	-0.042387	-1.690998	0.068198
O2	O	-0.042394	-1.319517	0.074599
O3	O	-0.042398	-1.516830	0.001073
O4	O	-0.042383	-1.493685	0.141724
O5	O	0.042460	-1.516862	0.001059
O6	O	0.042464	-1.319549	0.074585
O7	O	0.042471	-1.691030	0.068184
Cu8	Cu	0.050216	-1.505292	0.071383
Cu9	Cu	-0.050138	-1.505255	0.071400
O10	O	0.042475	-1.493717	0.141710
C11	C	0.000034	-1.272023	0.074109
C12	C	0.000031	-1.130458	0.072662
N13	N	-0.120722	-1.505229	0.071408
C14	C	0.000028	-1.516371	-0.016944
C15	C	0.000019	-1.514940	-0.070610
C16	C	-0.473238	-1.592836	0.038904
C17	C	-0.686897	-1.592854	0.038894
O18	O	-0.714520	-1.667334	0.011276
N19	N	-0.713616	-1.505321	0.071381
C20	C	-0.686918	-1.417782	0.103876
O21	O	-0.714547	-1.343338	0.131511
C22	C	-0.473260	-1.417770	0.103888
C23	C	-0.446544	-1.505301	0.071395
C24	C	-0.446521	-1.680360	0.006414
C25	C	-0.393110	-1.680350	0.006415
C26	C	-0.366415	-1.592815	0.038906
C27	C	-0.393132	-1.505290	0.071396
C28	C	-0.446563	-1.330238	0.136384
C29	C	-0.393145	-1.330245	0.136385
C30	C	-0.366428	-1.417775	0.103892
C31	C	-0.313026	-1.417745	0.103888
N32	N	-0.286306	-1.505279	0.071401
C33	C	-0.313001	-1.592814	0.038910
C34	C	-0.799091	-1.417792	0.103866
C35	C	-0.852505	-1.417794	0.103863
C36	C	-0.852481	-1.592868	0.038881
C37	C	-0.799065	-1.592860	0.038883
C38	C	-0.772372	-1.505326	0.071379
C39	C	-0.200833	-1.592785	0.038914
C40	C	-0.147417	-1.592764	0.038917
C41	C	-0.147446	-1.417694	0.103900
C42	C	-0.200858	-1.417710	0.103895
C43	C	-0.227550	-1.505267	0.071401
O44	O	-0.285370	-1.343314	0.131495
O45	O	-0.285363	-1.667265	0.011285
C46	C	-0.526650	-1.592846	0.038903
C47	C	-0.553366	-1.505321	0.071393
C48	C	-0.526672	-1.417786	0.103884
C49	C	-0.606781	-1.505322	0.071389
C50	C	-0.633475	-1.592857	0.038898
C51	C	-0.606756	-1.680391	0.006411
C52	C	-0.553344	-1.680381	0.006412
C53	C	-0.553391	-1.330252	0.136371
C54	C	-0.606803	-1.330269	0.136367
C55	C	-0.633497	-1.417804	0.103876
N56	N	0.120800	-1.505328	0.071372
C57	C	0.000042	-1.738524	0.068675
C58	C	0.000042	-1.880089	0.070121
C59	C	0.000031	-1.064398	0.025880
C60	C	-0.041805	-0.971273	0.047986
C61	C	0.041858	-0.971338	0.047984
C62	C	-0.041840	-1.039197	0.094788
C63	C	0.041861	-1.039272	0.094779
C64	C	0.000015	-0.946173	0.116919
C65	C	0.000048	-1.494176	0.159728
C66	C	0.000054	-1.495607	0.213393
C67	C	-0.046224	-1.504601	0.546176
C68	C	-0.046232	-1.510040	0.747868
O69	O	-0.085571	-1.510783	0.773952
N70	N	0.000024	-1.510733	0.773080
C71	C	0.046285	-1.510074	0.747865
O72	O	0.085628	-1.510802	0.773936
C73	C	0.046292	-1.504645	0.546173
C74	C	0.000033	-1.503939	0.520964
C75	C	-0.092480	-1.503897	0.520967
C76	C	-0.092477	-1.502530	0.470547
C77	C	-0.046220	-1.501868	0.445336
C78	C	0.000035	-1.502572	0.470545
C79	C	0.092552	-1.503995	0.520958
C80	C	0.092550	-1.502641	0.470532
C81	C	0.046291	-1.501935	0.445324
C82	C	0.046295	-1.500543	0.394914
N83	N	0.000039	-1.499850	0.369702
C84	C	-0.046218	-1.500513	0.394913
C85	C	0.046278	-1.512923	0.853756
C86	C	0.046277	-1.514278	0.904179
C87	C	-0.046241	-1.514246	0.904179
C88	C	-0.046238	-1.512881	0.853755
C89	C	0.000022	-1.512230	0.828545
C90	C	-0.046210	-1.497641	0.289028
C91	C	-0.046203	-1.496269	0.238604
C92	C	0.046313	-1.496308	0.238608
C93	C	0.046307	-1.497674	0.289028
C94	C	0.000041	-1.498344	0.314237
O95	O	0.085614	-1.499814	0.368798
O96	O	-0.085556	-1.499813	0.368832
C97	C	-0.046227	-1.505968	0.596595
C98	C	0.000028	-1.506672	0.621804
C99	C	0.046286	-1.506010	0.596593
C100	C	0.000027	-1.508027	0.672227
C101	C	-0.046231	-1.508689	0.697438
C102	C	-0.092487	-1.507996	0.672226
C103	C	-0.092484	-1.506630	0.621807
C104	C	0.092542	-1.506703	0.621804
C105	C	0.092536	-1.508068	0.672224
C106	C	0.046278	-1.508730	0.697436
H107	H	-0.125666	-1.664042	0.012455
F108	F	-0.880900	-1.685836	0.004227
H109	H	-0.130146	-1.501964	0.450027
H110	H	0.077227	-0.941254	0.028175
F111	F	-0.635232	-1.237094	0.170950
H112	H	-0.130150	-1.504440	0.541489
H113	H	-0.371360	-1.751629	-0.020042
H114	H	0.083975	-1.495764	0.218073
H115	H	-0.077248	-1.069133	0.114573
H116	H	-0.777316	-1.664136	0.012425
H117	H	0.083975	-1.498198	0.309556
F118	F	-0.095441	-1.495515	0.211778
H119	H	0.077237	-1.069452	0.114552
H120	H	0.083945	-1.514828	0.924701
H121	H	-0.000026	-1.115797	-0.012578
H122	H	-0.000003	-0.895038	0.155418
H123	H	-0.083907	-1.512304	0.833234
H124	H	-0.077179	-0.941125	0.028197
F125	F	-0.524987	-1.237082	0.170954
H126	H	-0.083905	-1.514776	0.924715
F127	F	-0.095451	-1.498355	0.315850
F128	F	-0.770687	-1.324619	0.138454
F129	F	0.095518	-1.512224	0.826931
H130	H	-0.371414	-1.258965	0.162849
F131	F	0.141788	-1.504734	0.547777
F132	F	0.141788	-1.501953	0.443704
F133	F	-0.141720	-1.505881	0.594984
F134	F	0.141778	-1.505997	0.594979
F135	F	-0.141717	-1.508700	0.699067
F136	F	0.141774	-1.508805	0.699048
H137	H	-0.222560	-1.664083	0.012454
F138	F	-0.474987	-1.237077	0.170968
F139	F	-0.474925	-1.773536	-0.028170
F140	F	-0.880934	-1.324616	0.138440
H141	H	-0.125703	-1.346420	0.130352
F142	F	-0.229291	-1.324536	0.138473
H143	H	-0.628499	-1.751661	-0.020047
F144	F	-0.524916	-1.773544	-0.028171
