data_functionalizedCrystal
_audit_creation_method	'MofGen! by Chris Wilmer'
_symmetry_space_group_name_H-M	'P1'
_symmetry_Int_Tables_number	1
_symmetry_cell_setting	triclinic
loop_
_symmetry_equiv_pos_as_xyz
  x,y,z
_cell_length_a	13.897449
_cell_length_b	13.897448
_cell_length_c	12.827885
_cell_angle_alpha	89.967724
_cell_angle_beta	89.977049
_cell_angle_gamma	90.018519
loop_
_atom_site_label
_atom_site_type_symbol
_atom_site_fract_x
_atom_site_fract_y
_atom_site_fract_z
Zn1	Zn	1.474698	-0.383947	-0.590928
Zn2	Zn	1.724698	-0.133947	-0.340928
Zn3	Zn	1.974698	0.116053	-0.090928
Zn4	Zn	2.224698	0.366053	0.159072
Zn5	Zn	1.474594	-0.545273	-0.416181
Zn6	Zn	1.724594	-0.295273	-0.166181
Zn7	Zn	1.974594	-0.045273	0.083819
Zn8	Zn	2.224594	0.204727	0.333819
Zn9	Zn	1.313389	-0.383996	-0.416191
Zn10	Zn	1.563389	-0.133996	-0.166191
Zn11	Zn	1.813389	0.116004	0.083809
Zn12	Zn	2.063389	0.366004	0.333809
Zn13	Zn	1.313369	-0.545204	-0.590870
Zn14	Zn	1.563369	-0.295204	-0.340870
Zn15	Zn	1.813369	-0.045204	-0.090870
Zn16	Zn	2.063369	0.204796	0.159130
O17	O	1.394013	-0.464605	-0.503542
O18	O	1.644013	-0.214605	-0.253542
O19	O	1.894013	0.035395	-0.003542
O20	O	2.144013	0.285395	0.246458
O21	O	1.609666	-0.405356	-0.567767
O22	O	1.859666	-0.155356	-0.317767
O23	O	2.109666	0.094644	-0.067767
O24	O	2.359666	0.344644	0.182233
O25	O	1.453174	-0.523929	-0.269946
O26	O	1.703174	-0.273929	-0.019946
O27	O	1.953174	-0.023929	0.230054
O28	O	2.203174	0.226071	0.480054
O29	O	1.334839	-0.249008	-0.439399
O30	O	1.584839	0.000992	-0.189399
O31	O	1.834839	0.250992	0.060601
O32	O	2.084839	0.500992	0.310601
O33	O	1.609589	-0.523881	-0.439381
O34	O	1.859589	-0.273881	-0.189381
O35	O	2.109589	-0.023881	0.060619
O36	O	2.359589	0.226119	0.310619
O37	O	1.453352	-0.248972	-0.567777
O38	O	1.703352	0.001028	-0.317777
O39	O	1.953352	0.251028	-0.067777
O40	O	2.203352	0.501028	0.182223
O41	O	1.334737	-0.405440	-0.269953
O42	O	1.584737	-0.155440	-0.019953
O43	O	1.834737	0.094560	0.230047
O44	O	2.084737	0.344560	0.480047
O45	O	1.178405	-0.405372	-0.439342
O46	O	1.428405	-0.155372	-0.189342
O47	O	1.678405	0.094628	0.060658
O48	O	1.928405	0.344628	0.310658
O49	O	1.334806	-0.523763	-0.737114
O50	O	1.584806	-0.273763	-0.487114
O51	O	1.834806	-0.023763	-0.237114
O52	O	2.084806	0.226237	0.012886
O53	O	1.178390	-0.523811	-0.567678
O54	O	1.428390	-0.273811	-0.317678
O55	O	1.678390	-0.023811	-0.067678
O56	O	1.928390	0.226189	0.182322
O57	O	1.453333	-0.405288	-0.737156
O58	O	1.703333	-0.155288	-0.487156
O59	O	1.953333	0.094712	-0.237156
O60	O	2.203333	0.344712	0.012844
O61	O	1.453155	-0.680246	-0.439325
O62	O	1.703155	-0.430246	-0.189325
O63	O	1.953155	-0.180246	0.060675
O64	O	2.203155	0.069754	0.310675
O65	O	1.334704	-0.680195	-0.567668
O66	O	1.584704	-0.430195	-0.317668
O67	O	1.834704	-0.180195	-0.067668
O68	O	2.084704	0.069805	0.182332
C69	C	1.143398	-0.464590	-0.503506
C70	C	1.393398	-0.214590	-0.253506
C71	C	1.643398	0.035410	-0.003506
C72	C	1.893398	0.285410	0.246494
C73	C	1.036184	-0.464607	-0.503515
C74	C	1.286184	-0.214607	-0.253515
C75	C	1.536184	0.035393	-0.003515
C76	C	1.786184	0.285393	0.246485
C77	C	0.949115	-0.464610	-0.503532
C78	C	1.199115	-0.214610	-0.253532
C79	C	1.449115	0.035390	-0.003532
C80	C	1.699115	0.285390	0.246468
C81	C	0.839882	-0.464617	-0.503564
C82	C	1.089882	-0.214617	-0.253564
C83	C	1.339882	0.035383	-0.003564
C84	C	1.589882	0.285383	0.246436
C85	C	1.393942	-0.715219	-0.503512
C86	C	1.643942	-0.465219	-0.253512
C87	C	1.893942	-0.215219	-0.003512
C88	C	2.143942	0.034781	0.246488
C89	C	1.394000	-0.822433	-0.503534
C90	C	1.644000	-0.572433	-0.253534
C91	C	1.894000	-0.322433	-0.003534
C92	C	2.144000	-0.072433	0.246466
C93	C	1.394102	-1.018728	-0.503600
C94	C	1.644102	-0.768728	-0.253600
C95	C	1.894102	-0.518728	-0.003600
C96	C	2.144102	-0.268728	0.246400
C97	C	1.394043	-0.909496	-0.503566
C98	C	1.644043	-0.659496	-0.253566
C99	C	1.894043	-0.409496	-0.003566
C100	C	2.144043	-0.159496	0.246434
C101	C	1.645605	-0.464621	-0.503579
C102	C	1.895605	-0.214621	-0.253579
C103	C	2.145605	0.035379	-0.003579
C104	C	2.395605	0.285379	0.246421
C105	C	1.752819	-0.464627	-0.503595
C106	C	2.002819	-0.214627	-0.253595
C107	C	2.252819	0.035373	-0.003595
C108	C	2.502819	0.285373	0.246405
C109	C	1.394079	-0.464512	-0.776113
C110	C	1.644079	-0.214512	-0.526113
C111	C	1.894079	0.035488	-0.276113
C112	C	2.144079	0.285488	-0.026113
C113	C	1.394107	-0.464473	-0.892266
C114	C	1.644107	-0.214473	-0.642266
C115	C	1.894107	0.035527	-0.392266
C116	C	2.144107	0.285527	-0.142266
C117	C	1.394109	-0.213012	-0.503596
C118	C	1.644109	0.036988	-0.253596
C119	C	1.894109	0.286988	-0.003596
C120	C	2.144109	0.536988	0.246404
C121	C	1.394151	-0.105798	-0.503618
C122	C	1.644151	0.144202	-0.253618
C123	C	1.894151	0.394202	-0.003618
C124	C	2.144151	0.644202	0.246382
C125	C	1.335520	-0.405829	-0.944054
C126	C	1.585520	-0.155829	-0.694054
C127	C	1.835520	0.094171	-0.444054
C128	C	2.085520	0.344171	-0.194054
C129	C	1.335548	-0.405787	-1.064105
C130	C	1.585548	-0.155787	-0.814105
C131	C	1.835548	0.094213	-0.564105
C132	C	2.085548	0.344213	-0.314105
C133	C	1.394002	-0.464628	-0.232032
C134	C	1.644002	-0.214628	0.017968
C135	C	1.894002	0.035372	0.267968
C136	C	2.144002	0.285372	0.517968
C137	C	1.394160	-0.464395	-0.115880
C138	C	1.644160	-0.214395	0.134120
C139	C	1.894160	0.035605	0.384120
C140	C	2.144160	0.285605	0.634120
H141	H	1.285337	-0.355657	-0.899516
H142	H	1.535337	-0.105657	-0.649516
H143	H	1.785337	0.144343	-0.399516
H144	H	2.035337	0.394343	-0.149516
H145	H	1.444326	-0.514602	-1.071350
H146	H	1.694326	-0.264602	-0.821350
H147	H	1.944326	-0.014602	-0.571350
H148	H	2.194326	0.235398	-0.321350
H149	H	1.285393	-0.355576	-1.108642
H150	H	1.535393	-0.105576	-0.858642
H151	H	1.785393	0.144424	-0.608642
H152	H	2.035393	0.394424	-0.358642
C153	C	1.461817	-0.532345	-0.952431
C154	C	1.711817	-0.282345	-0.702431
C155	C	1.961817	-0.032345	-0.452431
C156	C	2.211817	0.217655	-0.202431
N157	N	1.512788	-0.583497	-0.997745
N158	N	1.762788	-0.333497	-0.747745
N159	N	2.012788	-0.083497	-0.497745
N160	N	2.262788	0.166503	-0.247745
