data_functionalizedCrystal
_audit_creation_method	'MofGen! by Chris Wilmer'
_symmetry_space_group_name_H-M	'P1'
_symmetry_Int_Tables_number	1
_symmetry_cell_setting	triclinic
loop_
_symmetry_equiv_pos_as_xyz
  x,y,z
_cell_length_a	19.805407
_cell_length_b	15.297510
_cell_length_c	19.805399
_cell_angle_alpha	99.651501
_cell_angle_beta	90.020409
_cell_angle_gamma	80.289054
loop_
_atom_site_label
_atom_site_type_symbol
_atom_site_fract_x
_atom_site_fract_y
_atom_site_fract_z
Zn1	Zn	0.988094	0.359145	0.429355
Zn2	Zn	0.968416	0.510015	0.335752
Zn3	Zn	0.874905	0.359175	0.316182
Zn4	Zn	0.855285	0.509972	0.448891
O5	O	0.921675	0.434576	0.382545
O6	O	1.080200	0.379163	0.416953
O7	O	0.955987	0.490036	0.238443
O8	O	0.906367	0.232922	0.314829
O9	O	1.065742	0.490007	0.348182
O10	O	0.989526	0.232900	0.397977
O11	O	0.887285	0.379214	0.224065
O12	O	0.777587	0.379173	0.333772
O13	O	0.872927	0.489934	0.541012
O14	O	0.763172	0.489963	0.431273
O15	O	0.970501	0.379122	0.526659
O16	O	0.936963	0.636258	0.367125
O17	O	0.853846	0.636226	0.450248
C18	C	0.745820	0.434567	0.382519
C19	C	0.670586	0.434585	0.382527
C20	C	0.891158	0.668977	0.412945
C21	C	0.878165	0.769254	0.425973
C22	C	0.216314	0.376968	0.418460
C23	C	0.287002	0.376970	0.418456
C24	C	0.314824	0.434590	0.382569
C25	C	0.271952	0.492219	0.346690
C26	C	0.201265	0.492221	0.346699
C27	C	0.557026	0.492212	0.346653
C28	C	0.627720	0.492204	0.346645
C29	C	0.642764	0.376961	0.418410
C30	C	0.572076	0.376963	0.418419
C31	C	0.529210	0.434595	0.382543
C32	C	0.452562	0.434593	0.382550
C33	C	0.391471	0.434588	0.382558
C34	C	1.014786	1.051860	0.289702
C35	C	1.026994	0.957645	0.277459
C36	C	0.989788	0.910542	0.314586
C37	C	0.940372	0.957665	0.363960
C38	C	0.928159	1.051890	0.376201
C39	C	0.903161	0.910572	0.401085
C40	C	0.853744	0.957695	0.450458
C41	C	0.841534	1.051911	0.462697
C42	C	0.878740	1.099013	0.425570
C43	C	0.915373	0.816347	0.388843
C44	C	0.828746	0.816377	0.475342
C45	C	0.816538	0.910593	0.487586
C46	C	1.098217	0.434586	0.382571
C47	C	1.173448	0.434591	0.382582
C48	C	0.921721	0.434520	0.559080
C49	C	0.921740	0.434495	0.634309
C50	C	0.952324	1.199261	0.352048
C51	C	0.965368	1.098983	0.339071
C52	C	0.921677	0.434568	0.206688
C53	C	0.921822	0.434338	0.131427
C54	C	0.972548	0.376793	0.662181
C55	C	0.972559	0.376767	0.732866
C56	C	0.921763	0.434448	0.775679
C57	C	0.870949	0.492154	0.747803
C58	C	0.870937	0.492175	0.677118
C59	C	0.870998	0.492069	1.032865
C60	C	0.871016	0.492046	1.103555
C61	C	0.972620	0.376661	1.088613
C62	C	0.972608	0.376682	1.017928
C63	C	0.921793	0.434384	0.990058
C64	C	0.921781	0.434410	0.913413
C65	C	0.921776	0.434427	0.852323
H66	H	0.321900	0.330051	0.447673
H67	H	0.999730	0.833828	0.304614
H68	H	0.868805	1.175731	0.435538
C69	C	1.025464	0.223921	0.976379
C70	C	1.028442	0.313268	0.970872
H71	H	1.059931	0.184768	0.947326
H72	H	1.032743	0.215662	1.022461
H73	H	0.981701	0.210735	0.963072
H74	H	1.072204	0.326456	0.984184
H75	H	1.021169	0.321531	0.924779
C76	C	1.111399	0.967086	0.193198
C77	C	1.081316	0.905850	0.223197
H78	H	1.144941	0.935108	0.159702
H79	H	1.077156	1.003886	0.172059
H80	H	1.132511	1.003785	0.227489
H81	H	1.060199	0.869155	0.188907
H82	H	1.115565	0.869035	0.244336
C83	C	0.845720	0.613544	0.613345
C84	C	0.815093	0.555604	0.646473
H85	H	0.811242	0.652697	0.594422
H86	H	0.870710	0.648047	0.645400
H87	H	0.875971	0.579178	0.577738
H88	H	0.784845	0.589969	0.682084
H89	H	0.790091	0.521097	0.614415
H90	H	0.955608	0.777988	0.348643
H91	H	0.677673	0.330036	0.447624
H92	H	1.045070	1.090219	0.259474
H93	H	0.650369	0.539129	0.317421
H94	H	0.193668	0.330041	0.447679
H95	H	0.829630	0.539067	1.010184
H96	H	0.801288	1.090276	0.502893
H97	H	0.829588	0.539116	0.782667
H98	H	0.294610	0.539138	0.317473
H99	H	0.549428	0.330039	0.447639
H100	H	0.166363	0.539145	0.317485
C101	C	0.515384	0.644923	0.333297
C102	C	0.509920	0.555555	0.307211
H103	H	0.486304	0.684028	0.308940
H104	H	0.502084	0.658205	0.380474
H105	H	0.561470	0.653147	0.328156
H106	H	0.463835	0.547329	0.312356
H107	H	0.523216	0.542269	0.260022
C108	C	0.759357	1.055041	0.544750
C109	C	0.762216	0.962397	0.541851
H110	H	0.725817	1.087021	0.578249
H111	H	0.802831	1.070414	0.556697
H112	H	0.747471	1.070519	0.501272
H113	H	0.774106	0.946918	0.585328
H114	H	0.718732	0.947018	0.529908
H115	H	0.798448	0.778027	0.505573
C116	C	1.072980	0.262727	0.654517
C117	C	1.028384	0.313384	0.615123
H118	H	1.107447	0.223576	0.625465
H119	H	1.093754	0.302028	0.687185
H120	H	1.047981	0.228213	0.677610
H121	H	1.053382	0.347904	0.592035
H122	H	1.007609	0.274079	0.582443
H123	H	1.013933	0.329781	0.755555
C124	C	0.845813	0.613385	1.198769
C125	C	0.815175	0.555455	1.150615
H126	H	0.811340	0.652533	1.227818
H127	H	0.876070	0.579018	1.225482
H128	H	0.870796	0.647902	1.175663
H129	H	0.790196	0.520933	1.173721
H130	H	0.784906	0.589826	1.123899
H131	H	1.013995	0.329675	1.111313
