data_functionalizedCrystal
_audit_creation_method	'MofGen! by Chris Wilmer'
_symmetry_space_group_name_H-M	'P1'
_symmetry_Int_Tables_number	1
_symmetry_cell_setting	triclinic
loop_
_symmetry_equiv_pos_as_xyz
  x,y,z
_cell_length_a	14.044220
_cell_length_b	23.532407
_cell_length_c	13.101039
_cell_angle_alpha	93.336507
_cell_angle_beta	86.340132
_cell_angle_gamma	88.018778
loop_
_atom_site_label
_atom_site_type_symbol
_atom_site_fract_x
_atom_site_fract_y
_atom_site_fract_z
O1	O	1.261651	0.134360	-0.085125
O2	O	0.985730	0.129407	-0.085150
O3	O	1.132009	0.049404	-0.085118
O4	O	1.115371	0.214364	-0.085157
O5	O	1.121514	0.055154	0.085309
O6	O	0.975234	0.135158	0.085277
O7	O	1.251155	0.140111	0.085302
Zn8	Zn	1.111528	0.138547	0.112349
Zn9	Zn	1.125356	0.130971	-0.112197
O10	O	1.104875	0.220114	0.085270
C11	C	0.945188	0.130115	0.000061
C12	C	0.840024	0.123648	0.000052
C13	C	0.647472	0.111828	0.000075
C14	C	0.589407	0.157687	0.000068
C15	C	0.482265	0.151110	0.000081
C16	C	0.754624	0.118404	0.000062
C17	C	1.126338	0.031040	0.000098
C18	C	1.125063	-0.032246	0.000106
C19	C	1.203641	-0.427092	0.000057
C20	C	1.202458	-0.486556	0.000049
O21	O	1.275300	-0.519354	0.000018
N22	N	1.115494	-0.513896	0.000042
C23	C	1.029708	-0.481769	0.000032
O24	O	0.955630	-0.510484	0.000024
C25	C	1.030893	-0.422306	0.000033
C26	C	1.117862	-0.394968	0.000050
C27	C	1.290603	-0.399754	0.000073
C28	C	1.291786	-0.340294	0.000083
C29	C	1.206007	-0.308170	0.000077
C30	C	1.119045	-0.335508	0.000060
C31	C	0.945109	-0.390179	0.000016
C32	C	0.946301	-0.330712	0.000015
C33	C	1.033270	-0.303375	0.000033
C34	C	1.034448	-0.243924	0.000063
N35	N	1.121412	-0.216584	0.000070
C36	C	1.207191	-0.248707	0.000077
C37	C	1.027228	-0.606646	0.000029
C38	C	1.026042	-0.666108	0.000036
C39	C	1.198792	-0.670891	0.000051
C40	C	1.199977	-0.611428	0.000052
C41	C	1.114192	-0.579306	0.000036
C42	C	1.209668	-0.123835	0.000099
C43	C	1.210843	-0.064369	0.000113
C44	C	1.038093	-0.059591	0.000092
C45	C	1.036917	-0.119052	0.000084
C46	C	1.122713	-0.151173	0.000083
O47	O	0.961644	-0.211090	0.000090
O48	O	1.281258	-0.219985	0.000071
C49	C	1.291697	0.139403	0.000089
C50	C	1.396862	0.145869	0.000091
C51	C	1.110547	0.238478	0.000052
C52	C	1.111822	0.301763	0.000037
N53	N	1.102098	0.143718	0.265595
N54	N	1.134794	0.125796	-0.265443
C55	C	1.089267	0.150758	0.474635
C56	C	1.147622	0.118757	0.525524
C57	C	1.140483	0.122674	0.641841
C58	C	1.096405	0.146842	0.358308
H59	H	0.620163	0.201887	0.000053
C60	C	0.930376	-0.696172	0.000025
H61	H	0.879463	-0.668519	0.000015
H62	H	0.922656	-0.717272	0.059451
H63	H	0.929982	-0.721266	-0.059420
C64	C	1.222385	0.077790	0.466375
H65	H	1.217455	0.080508	0.394823
H66	H	1.211321	0.039860	0.483888
H67	H	1.284516	0.087744	0.483909
H68	H	0.966099	-0.141310	0.000098
H69	H	1.033950	0.181096	0.518420
H70	H	0.616718	0.067631	0.000091
H71	H	1.279531	-0.149982	0.000094
C72	C	0.849445	-0.420240	-0.000016
H73	H	0.861009	-0.460257	-0.000013
H74	H	0.817823	-0.411505	-0.059456
H75	H	0.810484	-0.407510	0.059415
C76	C	1.293150	-0.706235	0.000039
H77	H	1.279983	-0.745564	0.000022
H78	H	1.325187	-0.695480	0.059469
H79	H	1.332485	-0.699473	-0.059402
H80	H	1.362605	-0.318042	0.000093
H81	H	1.270794	-0.589174	0.000065
C82	C	1.306512	-0.034302	0.000126
H83	H	1.357428	-0.061954	0.000117
H84	H	1.306910	-0.009205	0.059560
H85	H	1.314225	-0.013205	-0.059311
C86	C	1.384967	-0.435084	0.000078
H87	H	1.371824	-0.474416	0.000068
H88	H	1.416988	-0.424316	0.059513
H89	H	1.424306	-0.428319	-0.059358
C90	C	0.851934	-0.295381	0.000003
H91	H	0.799975	-0.320182	-0.000001
H92	H	0.852464	-0.274083	-0.059425
H93	H	0.845140	-0.270087	0.059446
C94	C	0.932857	-0.571316	0.000032
H95	H	0.880900	-0.596119	0.000037
H96	H	0.933376	-0.550018	-0.059397
H97	H	0.926067	-0.546021	0.059474
H98	H	0.968254	-0.033425	0.000090
