data_functionalizedCrystal
_audit_creation_method	'MofGen! by Chris Wilmer'
_symmetry_space_group_name_H-M	'P1'
_symmetry_Int_Tables_number	1
_symmetry_cell_setting	triclinic
loop_
_symmetry_equiv_pos_as_xyz
  x,y,z
_cell_length_a	6.817900
_cell_length_b	7.076028
_cell_length_c	12.200722
_cell_angle_alpha	89.272093
_cell_angle_beta	107.140920
_cell_angle_gamma	117.700652
loop_
_atom_site_label
_atom_site_type_symbol
_atom_site_fract_x
_atom_site_fract_y
_atom_site_fract_z
V1	V	-4.217980	-0.665226	-0.156885
V2	V	-3.884647	-0.331893	0.176448
V3	V	-3.551313	0.001440	0.509782
O4	O	-4.182746	-0.652330	0.009419
O5	O	-3.849413	-0.318997	0.342753
O6	O	-3.516079	0.014337	0.676086
O7	O	-4.186566	-0.660901	-0.312885
O8	O	-3.853233	-0.327568	0.020448
O9	O	-3.519899	0.005766	0.353782
O10	O	-4.244592	-0.955252	-0.153647
O11	O	-3.911259	-0.621919	0.179687
O12	O	-3.577926	-0.288586	0.513020
O13	O	-4.124318	-0.355941	-0.150921
O14	O	-3.790985	-0.022608	0.182412
O15	O	-3.457651	0.310726	0.515745
V16	V	-4.689687	-0.628206	-0.137090
V17	V	-4.356354	-0.294873	0.196243
V18	V	-4.023020	0.038461	0.529576
O19	O	-4.505158	-0.746433	-0.200306
O20	O	-4.171824	-0.413100	0.133028
O21	O	-3.838491	-0.079767	0.466361
O22	O	-4.852707	-0.546999	-0.093670
O23	O	-4.519373	-0.213666	0.239664
O24	O	-4.186040	0.119667	0.572997
O25	O	-4.497895	-0.632532	0.018910
O26	O	-4.164561	-0.299198	0.352243
O27	O	-3.831228	0.034135	0.685576
O28	O	-4.842318	-0.641102	-0.303395
O29	O	-4.508985	-0.307769	0.029939
O30	O	-4.175651	0.025564	0.363272
O31	O	-4.900746	-0.937492	-0.143054
O32	O	-4.567413	-0.604158	0.190279
O33	O	-4.234079	-0.270825	0.523613
O34	O	-4.439868	-0.338180	-0.140329
O35	O	-4.106535	-0.004847	0.193005
O36	O	-3.773202	0.328486	0.526338
C37	C	-4.033272	-0.650465	-0.350940
C38	C	-3.699938	-0.317131	-0.017607
C39	C	-3.366605	0.016202	0.315727
C40	C	-4.089374	-0.648861	-0.478467
C41	C	-3.756041	-0.315528	-0.145134
C42	C	-3.422707	0.017805	0.188200
C43	C	-4.134923	-0.647539	-0.582031
C44	C	-3.801590	-0.314206	-0.248698
C45	C	-3.468257	0.019128	0.084635
C46	C	-4.192090	-0.645891	-0.711958
C47	C	-3.858757	-0.312558	-0.378625
C48	C	-3.525423	0.020776	-0.045292
C49	C	-4.240497	-0.267485	-0.146163
C50	C	-3.907163	0.065848	0.187171
C51	C	-3.573830	0.399182	0.520504
C52	C	-4.114254	-0.025929	-0.147807
C53	C	-3.780921	0.307405	0.185526
C54	C	-3.447588	0.640738	0.518860
C55	C	-4.314530	-0.642962	0.056959
C56	C	-3.981196	-0.309629	0.390292
C57	C	-3.647863	0.023705	0.723625
C58	C	-4.237670	-0.644579	0.184484
C59	C	-3.904336	-0.311246	0.517818
C60	C	-3.571003	0.022087	0.851151
