data_functionalizedCrystal
_audit_creation_method	'MofGen! by Chris Wilmer'
_symmetry_space_group_name_H-M	'P1'
_symmetry_Int_Tables_number	1
_symmetry_cell_setting	triclinic
loop_
_symmetry_equiv_pos_as_xyz
  x,y,z
_cell_length_a	12.759401
_cell_length_b	13.897447
_cell_length_c	12.759393
_cell_angle_alpha	89.969000
_cell_angle_beta	89.980324
_cell_angle_gamma	90.019956
loop_
_atom_site_label
_atom_site_type_symbol
_atom_site_fract_x
_atom_site_fract_y
_atom_site_fract_z
Zn1	Zn	1.606231	-0.383957	-0.593981
Zn2	Zn	1.606107	-0.545284	-0.418300
Zn3	Zn	1.430530	-0.384005	-0.418320
Zn4	Zn	1.430507	-0.545213	-0.593941
O5	O	1.518344	-0.464615	-0.506135
O6	O	1.753236	-0.405367	-0.570685
O7	O	1.582774	-0.523939	-0.271281
O8	O	1.453898	-0.249017	-0.441647
O9	O	1.753145	-0.523893	-0.441612
O10	O	1.582985	-0.248982	-0.570705
O11	O	1.453778	-0.405449	-0.271296
O12	O	1.283506	-0.405381	-0.441608
O13	O	1.453859	-0.523773	-0.740967
O14	O	1.283489	-0.523819	-0.570636
O15	O	1.582963	-0.405299	-0.740997
O16	O	1.582752	-0.680256	-0.441573
O17	O	1.453739	-0.680204	-0.570616
C18	C	1.245376	-0.464598	-0.506121
C19	C	1.128600	-0.464614	-0.506139
C20	C	1.073786	-0.403010	-0.573451
C21	C	0.964062	-0.403019	-0.573458
C22	C	0.963975	-0.526247	-0.438838
C23	C	1.073697	-0.526232	-0.438827
C24	C	1.518258	-0.715229	-0.506111
C25	C	1.518318	-0.822443	-0.506136
C26	C	1.518369	-0.909513	-0.506160
C27	C	1.518442	-1.018745	-0.506187
C28	C	1.792377	-0.464632	-0.506151
C29	C	1.909154	-0.464640	-0.506157
C30	C	1.518422	-0.464522	-0.780169
C31	C	1.518456	-0.464483	-0.896946
C32	C	1.518458	-0.213022	-0.506183
C33	C	1.518507	-0.105808	-0.506203
C34	C	1.585685	-0.402784	-0.951825
C35	C	1.585703	-0.402742	-1.061549
C36	C	1.451259	-0.526107	-1.061505
C37	C	1.451237	-0.526143	-0.951783
C38	C	1.518326	-0.464638	-0.233168
C39	C	1.518496	-0.464405	-0.116392
H40	H	0.919260	-0.576415	-0.384036
H41	H	1.396534	-0.576311	-1.106167
H42	H	1.640446	-0.352499	-1.106226
H43	H	1.118484	-0.352834	-0.628257
C44	C	1.318352	-0.648096	-0.962752
C45	C	1.377337	-0.593973	-0.891451
H46	H	1.272735	-0.689971	-0.925503
H47	H	1.278192	-0.606055	-1.005548
H48	H	1.364128	-0.684981	-1.005549
H49	H	1.331561	-0.557082	-0.848659
H50	H	1.417500	-0.636019	-0.848638
C51	C	0.840715	-0.273299	-0.588322
C52	C	0.903810	-0.335304	-0.647452
H53	H	0.803525	-0.231489	-0.634007
H54	H	0.792316	-0.309996	-0.548250
H55	H	0.883520	-0.236347	-0.542620
H56	H	0.861005	-0.372261	-0.693150
H57	H	0.952215	-0.298603	-0.687542
H58	H	1.118328	-0.576399	-0.384008
C59	C	1.718568	-0.280830	-0.962893
C60	C	1.659560	-0.334998	-0.891546
H61	H	1.764169	-0.238976	-0.925679
H62	H	1.758745	-0.322844	-1.005682
H63	H	1.672805	-0.243921	-1.005692
H64	H	1.705323	-0.371912	-0.848752
H65	H	1.619381	-0.292978	-0.848739
