data_functionalizedCrystal
_audit_creation_method	'MofGen! by Chris Wilmer'
_symmetry_space_group_name_H-M	'P1'
_symmetry_Int_Tables_number	1
_symmetry_cell_setting	triclinic
loop_
_symmetry_equiv_pos_as_xyz
  x,y,z
_cell_length_a	17.077404
_cell_length_b	19.805405
_cell_length_c	17.077396
_cell_angle_alpha	90.028963
_cell_angle_beta	90.019501
_cell_angle_gamma	90.026951
loop_
_atom_site_label
_atom_site_type_symbol
_atom_site_fract_x
_atom_site_fract_y
_atom_site_fract_z
Zn1	Zn	1.200034	-0.269459	0.443840
Zn2	Zn	1.199932	-0.382652	0.312573
Zn3	Zn	1.068765	-0.269483	0.312588
Zn4	Zn	1.068725	-0.382612	0.443797
O5	O	1.134364	-0.326052	0.378199
O6	O	1.309867	-0.284481	0.426439
O7	O	1.182507	-0.367667	0.202728
O8	O	1.086238	-0.174763	0.330023
O9	O	1.309792	-0.367644	0.329998
O10	O	1.182680	-0.174746	0.426454
O11	O	1.086140	-0.284522	0.202739
O12	O	0.958913	-0.284483	0.329981
O13	O	1.086169	-0.367575	0.553649
O14	O	0.958883	-0.367598	0.426380
O15	O	1.182641	-0.284442	0.553681
O16	O	1.182467	-0.477363	0.329956
O17	O	1.086070	-0.477334	0.426365
C18	C	0.930416	-0.326039	0.378178
C19	C	0.843166	-0.326050	0.378187
C20	C	0.802181	-0.369394	0.428301
C21	C	0.720201	-0.369395	0.428314
C22	C	0.679207	-0.326056	0.378208
C23	C	0.720198	-0.282708	0.328091
C24	C	0.802177	-0.282703	0.328083
C25	C	0.549328	-0.282721	0.328110
C26	C	0.467343	-0.282726	0.328117
C27	C	0.467352	-0.369413	0.428341
C28	C	0.549331	-0.369409	0.428333
C29	C	0.590316	-0.326061	0.378215
C30	C	1.134275	-0.501908	0.378171
C31	C	1.134308	-0.577140	0.378185
C32	C	1.184496	-0.612416	0.428436
C33	C	1.184524	-0.683105	0.428450
C34	C	1.134368	-0.718515	0.378210
C35	C	1.084175	-0.683233	0.327957
C36	C	1.084143	-0.612546	0.327947
C37	C	1.084301	-0.968307	0.327997
C38	C	1.084338	-1.038999	0.328009
C39	C	1.184682	-1.038865	0.428501
C40	C	1.184650	-0.968178	0.428491
C41	C	1.134454	-0.932902	0.378241
C42	C	1.134423	-0.856254	0.378227
C43	C	1.134403	-0.795162	0.378219
C44	C	1.339108	-0.326064	0.378222
C45	C	1.426358	-0.326070	0.378231
C46	C	1.134411	-0.326002	0.582944
C47	C	1.134432	-0.325980	0.670194
C48	C	1.134475	-0.149509	0.378245
C49	C	1.134523	-0.074277	0.378265
C50	C	1.134362	-0.326052	0.174252
C51	C	1.134494	-0.325883	0.087002
C52	C	1.184667	-0.282689	0.711202
C53	C	1.184676	-0.282667	0.793182
C54	C	1.134454	-0.325939	0.834153
C55	C	1.084214	-0.369232	0.793139
C56	C	1.084201	-0.369251	0.711160
C57	C	1.084245	-0.369191	0.964009
C58	C	1.084259	-0.369174	1.045994
C59	C	1.184720	-0.282608	1.046031
C60	C	1.184708	-0.282626	0.964052
C61	C	1.134468	-0.325920	0.923044
H62	H	0.582696	-0.247417	0.287306
H63	H	0.686834	-0.404691	0.469121
C64	C	0.951285	-0.705124	0.289606
C65	C	1.029041	-0.722156	0.272733
H66	H	0.917249	-0.729156	0.255513
H67	H	0.944086	-0.657982	0.282405
H68	H	0.939783	-0.716692	0.342340
H69	H	1.040545	-0.710583	0.220000
H70	H	1.036243	-0.769308	0.279927
H71	H	0.835552	-0.404688	0.469101
H72	H	1.043362	-0.404408	1.079350
C73	C	1.290051	-0.532844	0.439433
C74	C	1.239631	-0.573499	0.483664
H75	H	1.324091	-0.508823	0.473532
H76	H	1.260159	-0.501717	0.409512
H77	H	1.320106	-0.560423	0.405266
H78	H	1.209571	-0.545919	0.517827
H79	H	1.269526	-0.604629	0.513597
C80	C	0.978524	-0.533140	0.316939
C81	C	1.028975	-0.573766	0.272711
H82	H	0.944460	-0.509203	0.282838
H83	H	1.008392	-0.501940	0.346851
H84	H	0.948496	-0.560729	0.351113
H85	H	1.059008	-0.546177	0.238540
H86	H	0.999104	-0.604970	0.242785
H87	H	1.043286	-0.404496	0.677773
H88	H	1.043491	-1.067828	0.287096
C89	C	1.229157	-0.859761	0.473094
C90	C	1.239782	-0.929255	0.483717
H91	H	1.263196	-0.835733	0.507188
H92	H	1.176408	-0.848215	0.484532
H93	H	1.240673	-0.848203	0.420359
H94	H	1.228260	-0.940813	0.536450
H95	H	1.292542	-0.940806	0.472285
C96	C	0.984971	-0.454784	0.972203
C97	C	1.029039	-0.416796	0.918932
H98	H	0.950901	-0.484180	0.944372
H99	H	0.954953	-0.425291	1.004169
H100	H	1.019175	-0.480653	1.004188
H101	H	0.994835	-0.390923	0.886951
H102	H	1.059060	-0.446293	0.886952
C103	C	1.229287	-1.147165	0.473154
C104	C	1.239852	-1.077642	0.483746
H105	H	1.263344	-1.171101	0.507262
H106	H	1.240812	-1.158769	0.420432
H107	H	1.176542	-1.158774	0.484599
H108	H	1.292596	-1.066032	0.472295
H109	H	1.228333	-1.066034	0.536481
C110	C	0.985134	-0.975549	0.228649
C111	C	1.029140	-0.929538	0.272750
H112	H	0.951084	-0.951611	0.194535
H113	H	0.955096	-1.003119	0.262824
H114	H	1.019378	-1.003114	0.198669
H115	H	0.994895	-0.901976	0.302735
H116	H	1.059180	-0.901956	0.238571
H117	H	1.225566	-0.247454	0.677849
H118	H	0.582705	-0.404703	0.469129
C119	C	1.283986	-0.197114	0.784985
C120	C	1.239901	-0.235085	0.838258
H121	H	1.318085	-0.167741	0.812814
H122	H	1.249800	-0.171227	0.753012
H123	H	1.313983	-0.226624	0.753006
H124	H	1.209900	-0.205574	0.870233
H125	H	1.274092	-0.260973	0.870244
H126	H	0.433977	-0.404706	0.469150
H127	H	0.433968	-0.247428	0.287326
C128	C	1.195426	-0.762520	0.534072
C129	C	1.239700	-0.721874	0.483686
H130	H	1.229493	-0.786449	0.568177
H131	H	1.165568	-0.793728	0.504159
H132	H	1.161198	-0.734946	0.564060
H133	H	1.273924	-0.749449	0.453694
H134	H	1.269571	-0.690663	0.513602
C135	C	1.229331	-0.244117	1.171712
C136	C	1.239932	-0.235006	1.091104
H137	H	1.263411	-0.214727	1.199539
H138	H	1.240800	-0.289583	1.185140
H139	H	1.176592	-0.234208	1.185125
H140	H	1.292670	-0.244919	1.077690
H141	H	1.228468	-0.189529	1.077671
H142	H	0.686814	-0.247417	0.287297
H143	H	0.835546	-0.247405	0.287279
H144	H	1.225607	-0.247394	0.930696
H145	H	1.043319	-0.404463	0.826504
