data_functionalizedCrystal
_audit_creation_method	'MofGen! by Chris Wilmer'
_symmetry_space_group_name_H-M	'P1'
_symmetry_Int_Tables_number	1
_symmetry_cell_setting	triclinic
loop_
_symmetry_equiv_pos_as_xyz
  x,y,z
_cell_length_a	19.377372
_cell_length_b	19.377372
_cell_length_c	19.377574
_cell_angle_alpha	104.019690
_cell_angle_beta	55.725413
_cell_angle_gamma	82.759435
loop_
_atom_site_label
_atom_site_type_symbol
_atom_site_fract_x
_atom_site_fract_y
_atom_site_fract_z
Zr1	Zr	1.018092	0.650811	-0.398544
O2	O	1.128685	0.546553	-0.513512
O3	O	0.876743	0.670931	-0.341500
O4	O	1.019788	0.655449	-0.513514
O5	O	0.995027	0.587716	-0.230608
O6	O	1.056110	0.754818	-0.538314
O7	O	0.985641	0.562034	-0.341498
O8	O	0.800230	0.782512	-0.230612
O9	O	1.250907	0.560023	-0.538310
O10	O	0.973380	0.767975	-0.362018
O11	O	0.953278	0.712983	-0.260754
O12	O	1.121694	0.694756	-0.463278
O13	O	1.101592	0.639764	-0.362015
Zr14	Zr	1.090992	0.850252	-0.261240
Zr15	Zr	1.076022	0.809293	-0.438097
Zr16	Zr	1.033062	0.691770	-0.221687
Zr17	Zr	1.213022	0.672294	-0.438094
Zr18	Zr	0.896062	0.828770	-0.221691
O19	O	1.232341	0.830133	-0.318284
O20	O	1.211054	0.771894	-0.569751
O21	O	1.149971	0.604792	-0.262045
O22	O	0.980399	0.954510	-0.146272
O23	O	0.959113	0.896272	-0.397739
O24	O	0.898030	0.729169	-0.090033
O25	O	1.114057	0.913348	-0.429176
O26	O	1.089296	0.845614	-0.146270
O27	O	1.052974	0.746245	-0.121470
O28	O	1.123443	0.939029	-0.318286
O29	O	1.296954	0.685995	-0.569749
O30	O	0.812130	0.815069	-0.090035
O31	O	0.858177	0.941041	-0.121474
O32	O	0.846277	0.908484	-0.262052
O33	O	1.262807	0.592580	-0.397733
O34	O	1.308854	0.718552	-0.429172
O35	O	0.987390	0.806307	-0.196506
O36	O	1.007492	0.861299	-0.297769
O37	O	1.155806	0.788080	-0.399030
O38	O	1.135704	0.733088	-0.297767
C39	C	0.810713	0.723660	-0.280421
C40	C	0.727960	0.714540	-0.263632
C41	C	0.508250	0.828082	-0.472686
C42	C	0.430488	0.819506	-0.456894
C43	C	0.409512	0.762099	-0.351182
C44	C	0.487277	0.770666	-0.366969
C45	C	0.536640	0.803659	-0.427721
C46	C	0.515666	0.746244	-0.322003
C47	C	0.593422	0.754815	-0.337785
C48	C	0.642788	0.787808	-0.398532
C49	C	0.614396	0.812230	-0.443502
C50	C	0.466299	0.713256	-0.261247
C51	C	0.494688	0.688833	-0.216282
C52	C	0.572449	0.697399	-0.232068
C53	C	0.621815	0.730392	-0.292815
C54	C	0.600841	0.672977	-0.187098
C55	C	0.678597	0.681547	-0.202880
C56	C	0.699571	0.738963	-0.308597
C57	C	0.982080	0.552295	-0.280418
C58	C	0.957487	0.485015	-0.263626
C59	C	1.263687	0.072645	-0.472687
C60	C	1.240558	0.009436	-0.456894
C61	C	1.085729	0.085880	-0.351186
C62	C	1.108846	0.149098	-0.366966
C63	C	1.197826	0.142474	-0.427719
C64	C	1.042985	0.218927	-0.321998
C65	C	1.066099	0.282139	-0.337781
C66	C	1.155075	0.275521	-0.398532
C67	C	1.220941	0.205685	-0.443502
C68	C	0.954004	0.225549	-0.261251
C69	C	0.888143	0.295378	-0.216283
C70	C	0.911258	0.358592	-0.232060
C71	C	1.000234	0.351975	-0.292812
C72	C	0.845392	0.428428	-0.187091
C73	C	0.868507	0.491640	-0.202874
C74	C	1.023348	0.415186	-0.308595
C75	C	1.298371	0.777403	-0.379363
C76	C	1.381124	0.786523	-0.396153
C77	C	1.035816	0.699298	-0.551113
C78	C	1.029461	0.681910	-0.626193
C79	C	1.127004	0.948769	-0.379367
C80	C	1.151597	1.016048	-0.396158
C81	C	1.108596	0.898417	-0.941446
C82	C	1.102619	0.882059	-1.011992
C83	C	1.062600	0.772579	-0.984651
C84	C	1.068579	0.788926	-0.914104
C85	C	1.091576	0.851847	-0.892507
C86	C	1.051558	0.742356	-0.865165
C87	C	1.057532	0.758704	-0.794622
C88	C	1.080525	0.821623	-0.773017
C89	C	1.097549	0.868195	-0.821964
C90	C	1.028555	0.679439	-0.886759
C91	C	1.011535	0.632868	-0.837820
C92	C	1.017514	0.649213	-0.767279
C93	C	1.040508	0.712132	-0.745675
C94	C	1.000490	0.602641	-0.718333
C95	C	1.006463	0.618989	-0.647789
C96	C	1.046481	0.728480	-0.675132
C97	C	1.073268	0.801765	-0.108672
C98	C	1.079623	0.819154	-0.033591
C99	C	0.883175	0.921897	-0.329896
C100	C	0.825015	0.980057	-0.329897
C101	C	0.829439	0.774894	-0.059201
C102	C	0.753041	0.783162	0.032669
C103	C	0.901901	0.973131	-0.108675
C104	C	0.850096	1.048679	-0.033596
C105	C	1.207183	0.527933	-0.551109
C106	C	1.258988	0.452384	-0.626188
C107	C	1.225909	0.579166	-0.329888
C108	C	1.284069	0.521006	-0.329887
C109	C	1.279645	0.726169	-0.600583
C110	C	1.356043	0.717901	-0.692453
C111	C	0.779895	0.958654	-0.363442
C112	C	0.725255	1.013293	-0.363460
C113	C	0.715730	1.089335	-0.329928
C114	C	0.760857	1.110738	-0.296383
C115	C	0.815501	1.056099	-0.296371
C116	C	0.734971	0.835761	0.109357
C117	C	0.663198	0.843530	0.195684
C118	C	0.609492	0.798703	0.205321
C119	C	0.627568	0.746099	0.128625
C120	C	0.699344	0.738327	0.042300
C121	C	0.836264	1.112869	-0.051199
C122	C	0.787600	1.183860	0.019335
C123	C	0.752764	1.190659	0.107472
C124	C	0.766602	1.126462	0.125073
C125	C	0.815270	1.055473	0.054539
C126	C	1.272830	0.388195	-0.608587
C127	C	1.321518	0.317207	-0.679126
C128	C	1.356357	0.310408	-0.767264
C129	C	1.342515	0.374605	-0.784864
C130	C	1.293833	0.445592	-0.714327
C131	C	1.329196	0.542409	-0.296351
C132	C	1.383857	0.487768	-0.296357
C133	C	1.393384	0.411726	-0.329892
C134	C	1.348254	0.390323	-0.363433
C135	C	1.293599	0.444963	-0.363433
C136	C	1.409729	0.762739	-0.702061
C137	C	1.481508	0.754985	-0.788378
C138	C	1.499604	0.702389	-0.865085
C139	C	1.445910	0.657549	-0.855474
C140	C	1.374128	0.665308	-0.769158
H141	H	0.369309	0.735239	-0.301716
C142	C	0.440383	0.652540	-0.149459
N143	N	0.399482	0.625199	-0.099131
H144	H	1.356020	0.328402	-0.390737
C145	C	1.278601	0.516196	-0.733700
N146	N	1.267130	0.569372	-0.748299
C147	C	0.728322	0.797236	-0.415892
N148	N	0.792747	0.804336	-0.428968
H149	H	1.321445	0.604323	-0.269036
C150	C	1.433484	0.511328	-0.259448
N151	N	1.470860	0.529075	-0.231647
H152	H	0.852232	1.073537	-0.269049
C153	C	0.675615	0.989734	-0.400353
N154	N	0.638225	0.971988	-0.428138
C155	C	0.655610	1.149431	-0.329940
N156	N	0.610322	1.194693	-0.329947
H157	H	0.551050	0.805039	0.275618
H158	H	0.778693	0.872266	0.101526
H159	H	1.116285	0.919427	-0.804387
C160	C	1.087098	0.839605	-0.695419
N161	N	1.092051	0.853148	-0.636972
H162	H	0.648492	0.886368	0.258122
C163	C	0.772379	1.254466	-0.000044
N164	N	0.760914	1.307644	-0.014642
C165	C	0.668703	0.848520	-0.510337
N166	N	0.709605	0.875854	-0.560672
C167	C	0.568478	0.696797	0.139242
N168	N	0.523965	0.659668	0.147242
H169	H	1.116479	0.919988	-1.051836
C170	C	1.313019	-0.067379	-0.506363
N171	N	1.367595	-0.125235	-0.543622
H172	H	1.043873	0.721351	-1.002241
C173	C	1.380835	0.367113	-0.881821
N174	N	1.409693	0.361466	-0.954850
C175	C	0.750363	1.194390	-0.259491
N176	N	0.742452	1.257399	-0.231698
H177	H	1.023689	0.666133	-0.944198
C178	C	0.830477	0.984867	0.073917
N179	N	0.841929	0.931689	0.088520
H180	H	0.714045	0.695497	-0.020137
H181	H	1.013282	0.091263	-0.301724
H182	H	1.437890	0.367242	-0.329887
H183	H	1.395009	0.805568	-0.639612
C184	C	1.243952	0.421408	-0.400314
N185	N	1.206557	0.403661	-0.428093
C186	C	1.133900	0.967630	-0.917691
N187	N	1.152956	1.019760	-0.899796
C188	C	1.336732	0.246600	-0.659746
N189	N	1.348191	0.193422	-0.645147
H190	H	0.864621	1.107347	-0.122959
C191	C	1.409899	0.232313	-0.844846
N192	N	1.450221	0.173489	-0.903277
C193	C	1.540564	0.804312	-0.798930
N194	N	1.585043	0.841465	-0.806875
H195	H	1.558056	0.696079	-0.935363
H196	H	1.460655	0.614726	-0.917941
H197	H	0.713137	1.248467	0.164898
H198	H	0.935187	0.174075	-0.248408
H199	H	1.330422	0.628791	-0.761347
C200	C	0.728268	1.133953	0.222033
N201	N	0.699387	1.139596	0.295066
H202	H	1.244462	0.393716	-0.536825
H203	H	0.992807	0.581640	-0.855410
H204	H	0.739770	0.765822	-0.358074
H205	H	0.548449	0.854941	-0.522163
H206	H	0.402986	0.706279	-0.248400
C207	C	0.546530	0.636690	-0.120269
N208	N	0.505622	0.609358	-0.069933
H209	H	0.407378	0.839398	-0.493514
H210	H	1.095807	0.409796	-0.358041
C211	C	0.709835	0.654671	-0.153426
N212	N	0.733364	0.634425	-0.116178
H213	H	1.336146	0.067255	-0.522134
C214	C	0.975178	0.533439	-0.742088
N215	N	0.956109	0.481317	-0.759979
H216	H	1.293400	0.200295	-0.492948
C217	C	0.747517	0.435702	-0.120271
N218	N	0.673796	0.441182	-0.069941
C219	C	0.790268	0.302656	-0.149456
N220	N	0.716547	0.308139	-0.099118
H221	H	0.814877	0.548502	-0.166243
C222	C	0.987713	0.567773	-0.593935
N223	N	0.973577	0.529202	-0.553362
H224	H	1.065217	0.779712	-0.657554
H225	H	1.173893	0.326993	-0.411383
H226	H	0.787649	0.896739	-0.390760
