data_functionalizedCrystal
_audit_creation_method	'MofGen! by Chris Wilmer'
_symmetry_space_group_name_H-M	'P1'
_symmetry_Int_Tables_number	1
_symmetry_cell_setting	triclinic
loop_
_symmetry_equiv_pos_as_xyz
  x,y,z
_cell_length_a	14.971486
_cell_length_b	10.540539
_cell_length_c	14.048226
_cell_angle_alpha	89.995726
_cell_angle_beta	89.998499
_cell_angle_gamma	84.069810
loop_
_atom_site_label
_atom_site_type_symbol
_atom_site_fract_x
_atom_site_fract_y
_atom_site_fract_z
O1	O	1.187879	0.165423	-0.079046
O2	O	1.687879	0.665423	0.420954
O3	O	0.927591	0.185233	-0.079072
O4	O	1.427591	0.685233	0.420928
O5	O	1.063673	-0.009446	-0.079057
O6	O	1.563673	0.490554	0.420943
O7	O	1.051796	0.360102	-0.079061
O8	O	1.551796	0.860102	0.420939
O9	O	1.063657	-0.009457	0.079264
O10	O	1.563657	0.490543	0.579264
O11	O	0.927574	0.185221	0.079249
O12	O	1.427574	0.685221	0.579249
O13	O	1.187862	0.165412	0.079275
O14	O	1.687862	0.665412	0.579275
Zn15	Zn	1.057716	0.175315	0.104399
Zn16	Zn	1.557716	0.675315	0.604399
Zn17	Zn	1.057737	0.175330	-0.104196
Zn18	Zn	1.557737	0.675330	0.395804
O19	O	1.051780	0.360090	0.079260
O20	O	1.551780	0.860090	0.579260
C21	C	0.894253	0.184341	0.000085
C22	C	1.394253	0.684341	0.500085
C23	C	0.794940	0.181686	0.000076
C24	C	1.294940	0.681686	0.500076
C25	C	0.738360	0.296055	0.000076
C26	C	1.238360	0.796055	0.500076
C27	C	0.645046	0.293553	0.000090
C28	C	1.145046	0.793553	0.500090
C29	C	0.608315	0.176681	0.000097
C30	C	1.108315	0.676681	0.500097
C31	C	0.664903	0.062303	0.000100
C32	C	1.164903	0.562303	0.500100
C33	C	0.758215	0.064807	0.000092
C34	C	1.258215	0.564807	0.500092
C35	C	0.470412	0.057094	0.000113
C36	C	0.970412	0.557094	0.500113
C37	C	0.377093	0.054590	0.000119
C38	C	0.877093	0.554590	0.500119
C39	C	0.357242	0.285839	0.000111
C40	C	0.857242	0.785839	0.500111
C41	C	0.450554	0.288343	0.000103
C42	C	0.950554	0.788343	0.500103
C43	C	0.507136	0.173965	0.000104
C44	C	1.007136	0.673965	0.500104
C45	C	1.062774	-0.056745	0.000101
C46	C	1.562774	0.443255	0.500101
C47	C	1.060109	-0.197662	0.000096
C48	C	1.560109	0.302338	0.500096
C49	C	0.958001	-0.379931	-0.000269
C50	C	1.458001	0.120069	0.499731
C51	C	0.960702	-0.233343	0.000087
C52	C	1.460702	0.266657	0.500087
C53	C	1.107939	-0.259870	0.090510
C54	C	1.607939	0.240130	0.590510
C55	C	1.104547	-0.406376	0.090586
C56	C	1.604547	0.093624	0.590586
C57	C	1.106587	-0.406904	-0.089455
C58	C	1.606587	0.093096	0.410545
C59	C	1.107503	-0.259932	-0.090650
C60	C	1.607503	0.240068	0.409350
C61	C	1.221200	0.166303	0.000115
C62	C	1.721200	0.666303	0.500115
C63	C	1.320512	0.168958	0.000119
C64	C	1.820512	0.668958	0.500119
C65	C	1.052679	0.407389	0.000099
C66	C	1.552679	0.907389	0.500099
C67	C	1.055344	0.548307	0.000099
C68	C	1.555344	1.048307	0.500099
N69	N	1.057707	0.175303	0.246760
N70	N	1.557707	0.675303	0.746760
N71	N	1.057753	0.175331	-0.246557
N72	N	1.557753	0.675331	0.253443
C73	C	1.117984	0.089135	0.296584
C74	C	1.617984	0.589135	0.796584
C75	C	1.117990	0.089135	0.396242
C76	C	1.617990	0.589135	0.896242
C77	C	1.057723	0.175309	0.446073
C78	C	1.557723	0.675309	0.946073
C79	C	0.997440	0.261481	0.396242
C80	C	1.497440	0.761481	0.896242
C81	C	0.997430	0.261475	0.296586
C82	C	1.497430	0.761475	0.796586
C83	C	0.997466	0.261491	0.603956
C84	C	1.497466	0.761491	1.103956
C85	C	0.997476	0.261499	0.703619
C86	C	1.497476	0.761499	1.203619
C87	C	1.118025	0.089150	0.703612
C88	C	1.618025	0.589150	1.203612
C89	C	1.118016	0.089144	0.603956
C90	C	1.618016	0.589144	1.103956
C91	C	1.057733	0.175318	0.554132
C92	C	1.557733	0.675318	1.054132
H93	H	0.311169	0.378970	0.000114
H94	H	0.811169	0.878970	0.500114
H95	H	1.167071	0.018969	0.436808
H96	H	1.667071	0.518969	0.936808
F97	F	0.530628	-0.064641	0.000117
F98	F	1.030628	0.435359	0.500117
H99	H	0.948374	0.331659	0.563392
H100	H	1.448374	0.831659	1.063392
H101	H	1.179979	-0.236533	-0.096103
H102	H	1.679979	0.263467	0.403897
H103	H	0.347191	-0.040578	0.000126
H104	H	0.847191	0.459422	0.500126
H105	H	1.074700	-0.216898	0.157786
H106	H	1.574700	0.283102	0.657786
F107	F	0.818433	-0.056920	0.000096
F108	F	1.318433	0.443080	0.500096
F109	F	0.933330	0.353216	0.756646
F110	F	1.433330	0.853216	1.256646
F111	F	1.203358	-0.231737	0.094917
F112	F	1.703358	0.268263	0.594917
H113	H	1.167094	0.018981	0.563384
H114	H	1.667094	0.518981	1.063384
F115	F	1.200436	-0.469697	-0.090243
F116	F	1.700436	0.030303	0.409757
F117	F	1.182182	-0.002560	0.756643
F118	F	1.682182	0.497440	1.256643
H119	H	1.176039	-0.455156	0.094694
H120	H	1.676039	0.044844	0.594694
F121	F	0.906680	-0.416720	-0.085018
F122	F	1.406680	0.083280	0.414982
F123	F	0.777442	0.420448	0.000062
F124	F	1.277442	0.920448	0.500062
F125	F	1.064538	-0.447648	-0.179026
F126	F	1.564538	0.052352	0.320974
F127	F	1.062119	-0.205411	-0.178088
F128	F	1.562119	0.294589	0.321912
H129	H	0.634990	-0.032856	0.000119
H130	H	1.134990	0.467144	0.500119
H131	H	1.069184	-0.434179	0.158165
H132	H	1.569184	0.065821	0.658165
F133	F	1.182134	-0.002579	0.243559
F134	F	1.682134	0.497421	0.743559
H135	H	0.948365	0.331642	0.436820
H136	H	1.448365	0.831642	0.936820
H137	H	0.948346	0.331640	0.256020
H138	H	1.448346	0.831640	0.756020
H139	H	0.923066	-0.190308	-0.064725
H140	H	1.423066	0.309692	0.435275
H141	H	0.598981	0.386683	0.000089
H142	H	1.098981	0.886683	0.500089
H143	H	0.480457	0.383510	0.000088
H144	H	0.980457	0.883510	0.500088
H145	H	0.918886	-0.409699	0.064198
H146	H	1.418886	0.090301	0.564198
F147	F	0.911144	-0.178202	0.084932
F148	F	1.411144	0.321798	0.584932
