data_functionalizedCrystal
_audit_creation_method	'MofGen! by Chris Wilmer'
_symmetry_space_group_name_H-M	'P1'
_symmetry_Int_Tables_number	1
_symmetry_cell_setting	triclinic
loop_
_symmetry_equiv_pos_as_xyz
  x,y,z
_cell_length_a	15.455322
_cell_length_b	16.992694
_cell_length_c	16.992698
_cell_angle_alpha	89.332416
_cell_angle_beta	87.161534
_cell_angle_gamma	87.141817
loop_
_atom_site_label
_atom_site_type_symbol
_atom_site_fract_x
_atom_site_fract_y
_atom_site_fract_z
O1	O	-0.072052	1.054080	-0.163693
O2	O	0.427948	1.554080	0.336307
O3	O	-0.072077	0.825681	-0.161860
O4	O	0.427923	1.325681	0.338140
O5	O	-0.072037	0.938965	-0.048578
O6	O	0.427963	1.438965	0.451422
O7	O	-0.072091	0.940796	-0.276975
O8	O	0.427909	1.440796	0.223025
O9	O	0.072223	0.932484	-0.055028
O10	O	0.572223	1.432484	0.444972
O11	O	0.072183	0.819201	-0.168311
O12	O	0.572183	1.319201	0.331689
O13	O	0.072208	1.047600	-0.170143
O14	O	0.572208	1.547600	0.329857
Cu15	Cu	0.085368	0.932808	-0.169816
Cu16	Cu	0.585368	1.432808	0.330184
Cu17	Cu	-0.085236	0.940473	-0.162188
Cu18	Cu	0.414764	1.440473	0.337812
O19	O	0.072169	0.934316	-0.283426
O20	O	0.572169	1.434316	0.216574
C21	C	0.000050	0.793081	-0.162730
C22	C	0.500050	1.293081	0.337270
C23	C	0.000042	0.705597	-0.155701
C24	C	0.500042	1.205597	0.344299
N25	N	0.205361	0.927423	-0.175181
N26	N	0.705361	1.427423	0.324819
C27	C	0.000027	0.659606	-0.223518
C28	C	0.500027	1.159606	0.276482
C29	C	0.000040	0.577405	-0.216909
C30	C	0.500040	1.077405	0.283091
C31	C	0.000063	0.541196	-0.142483
C32	C	0.500063	1.041196	0.357517
C33	C	0.000081	0.587193	-0.074661
C34	C	0.500081	1.087193	0.425339
C35	C	0.000074	0.669393	-0.081270
C36	C	0.500074	1.169393	0.418730
C37	C	0.000093	0.295881	-0.115090
C38	C	0.500093	0.795881	0.384910
C39	C	0.000097	0.213675	-0.108485
C40	C	0.500097	0.713675	0.391515
C41	C	0.000058	0.203892	-0.250735
C42	C	0.500058	0.703892	0.249265
C43	C	0.000046	0.286094	-0.257337
C44	C	0.500046	0.786094	0.242663
C45	C	0.000068	0.332084	-0.189515
C46	C	0.500068	0.832084	0.310485
N47	N	0.000074	0.457173	-0.135726
N48	N	0.500074	0.957173	0.364274
N49	N	0.000063	0.416105	-0.196273
N50	N	0.500063	0.916105	0.303727
C51	C	0.250772	0.975569	-0.127074
C52	C	0.750772	1.475569	0.372926
C53	C	0.341579	0.971504	-0.131140
C54	C	0.841579	1.471504	0.368860
C55	C	0.386973	0.919298	-0.183315
C56	C	0.886973	1.419298	0.316685
C57	C	0.341555	0.871147	-0.231424
C58	C	0.841555	1.371147	0.268576
C59	C	0.250751	0.875208	-0.227354
C60	C	0.750751	1.375208	0.272646
C61	C	0.658548	0.901767	-0.200859
C62	C	1.158548	1.401767	0.299141
C63	C	0.749359	0.897711	-0.204927
C64	C	1.249359	1.397711	0.295073
C65	C	0.749376	0.998069	-0.104642
C66	C	1.249376	1.498069	0.395358
C67	C	0.658570	1.002129	-0.100580
C68	C	1.158570	1.502129	0.399420
C69	C	0.613160	0.953975	-0.148685
C70	C	1.113160	1.453975	0.351315
N71	N	0.479792	0.915143	-0.187473
N72	N	0.979792	1.415143	0.312527
N73	N	0.520343	0.958126	-0.144523
N74	N	1.020343	1.458126	0.355477
N75	N	0.794770	0.945857	-0.156821
N76	N	1.294770	1.445857	0.343179
C77	C	0.000098	0.933369	-0.022443
C78	C	0.500098	1.433369	0.477557
C79	C	0.000112	0.926341	0.065041
C80	C	0.500112	1.426341	0.565041
C81	C	0.000079	1.080200	-0.169274
C82	C	0.500079	1.580200	0.330726
C83	C	0.000082	1.167684	-0.176303
C84	C	0.500082	1.667684	0.323697
C85	C	0.000050	0.879123	0.556962
C86	C	0.500050	1.379123	1.056962
C87	C	0.000055	0.885732	0.474762
C88	C	0.500055	1.385732	0.974762
C89	C	0.000074	0.960159	0.438554
C90	C	0.500074	1.460159	0.938554
C91	C	0.000078	1.027982	0.484552
C92	C	0.500078	1.527982	0.984552
C93	C	0.000066	1.021372	0.566751
C94	C	0.500066	1.521372	1.066751
C95	C	0.000104	0.987554	0.193239
C96	C	0.500104	1.487554	0.693239
C97	C	0.000119	0.994158	0.111033
C98	C	0.500119	1.494158	0.611033
C99	C	0.000095	0.851908	0.101248
C100	C	0.500095	1.351908	0.601248
C101	C	0.000088	0.845305	0.183450
C102	C	0.500088	1.345305	0.683450
C103	C	0.000088	0.913127	0.229441
C104	C	0.500088	1.413127	0.729441
N105	N	0.000082	0.966916	0.354531
N106	N	0.500082	1.466916	0.854531
N107	N	0.000073	0.906370	0.313462
N108	N	0.500073	1.406370	0.813462
C109	C	0.000043	0.939912	0.690439
C110	C	0.500043	1.439912	1.190439
C111	C	0.000056	0.946940	0.602954
C112	C	0.500056	1.446940	1.102954
H113	H	0.000008	0.689080	-0.284124
H114	H	0.500008	1.189080	0.215876
H115	H	0.000115	0.184197	-0.047875
H116	H	0.500115	0.684197	0.452125
H117	H	0.000086	0.706838	-0.026046
H118	H	0.500086	1.206838	0.473954
N119	N	0.798332	0.841406	-0.261205
N120	N	1.298332	1.341406	0.238795
H121	H	0.782507	0.854674	-0.316940
H122	H	1.282507	1.354674	0.183060
H123	H	0.782536	0.785694	-0.247832
H124	H	1.282536	1.285694	0.252168
N125	N	0.000031	0.325155	-0.337608
N126	N	0.500031	0.825155	0.162392
H127	H	-0.053451	0.361436	-0.341124
H128	H	0.446549	0.861436	0.158876
H129	H	0.000057	0.283505	-0.379528
H130	H	0.500057	0.783505	0.120472
H131	H	0.000112	0.333316	-0.059864
H132	H	0.500112	0.833316	0.440136
H133	H	0.000045	0.818516	0.586436
H134	H	0.500045	1.318516	1.086436
N135	N	0.000151	1.074435	0.071975
N136	N	0.500151	1.574435	0.571975
H137	H	-0.053311	1.082755	0.040452
H138	H	0.446689	1.582755	0.540452
H139	H	0.053678	1.077874	0.035762
H140	H	0.553678	1.577874	0.535762
N141	N	0.201767	0.823275	-0.279235
N142	N	0.701767	1.323275	0.220765
H143	H	0.244301	0.789586	-0.312906
H144	H	0.744301	1.289586	0.187094
H145	H	0.164071	0.857272	-0.314254
H146	H	0.664071	1.357272	0.185746
H147	H	0.000042	0.166439	-0.305952
H148	H	0.500042	0.666439	0.194048
N149	N	0.201815	1.031883	-0.070804
N150	N	0.701815	1.531883	0.429196
H151	H	0.244365	1.061765	-0.040945
H152	H	0.744365	1.561765	0.459055
H153	H	0.164156	1.001254	-0.032408
H154	H	0.664156	1.501254	0.467592
N155	N	0.000101	0.548150	0.005618
N156	N	0.500101	1.048150	0.505618
H157	H	0.053586	0.562200	0.033169
H158	H	0.553586	1.062200	0.533169
H159	H	0.000067	0.489109	-0.000543
H160	H	0.500067	0.989109	0.499457
N161	N	0.000119	1.060702	0.242836
N162	N	0.500119	1.560702	0.742836
H163	H	-0.053363	1.063545	0.279532
H164	H	0.446637	1.563545	0.779532
H165	H	0.000171	1.108808	0.207367
H166	H	0.500171	1.608808	0.707367
H167	H	0.621583	0.862560	-0.240030
H168	H	1.121583	1.362560	0.259970
H169	H	0.000094	1.088582	0.455065
H170	H	0.500094	1.588582	0.955065
H171	H	0.621612	1.044640	-0.058094
H172	H	1.121612	1.544640	0.441906
H173	H	0.378552	1.010708	-0.091967
H174	H	0.878552	1.510708	0.408033
H175	H	0.000047	0.830508	0.437318
H176	H	0.500047	1.330508	0.937318
H177	H	0.000063	0.784699	0.212924
H178	H	0.500063	1.284699	0.712924
N179	N	0.798357	1.050001	-0.052760
N180	N	1.298357	1.550001	0.447240
H181	H	0.836049	1.016054	-0.017690
H182	H	1.336049	1.516054	0.482310
H183	H	0.755767	1.083681	-0.019140
H184	H	1.255767	1.583681	0.480860
N185	N	0.000122	0.527795	-0.290059
N186	N	0.500122	1.027795	0.209941
H187	H	0.000133	0.563205	-0.338212
H188	H	0.500133	1.063205	0.161788
H189	H	-0.053322	0.495828	-0.288081
H190	H	0.446678	0.995828	0.211919
N191	N	0.390511	0.814831	-0.287694
N192	N	0.890511	1.314831	0.212306
H193	H	0.454927	0.819564	-0.282975
H194	H	0.954927	1.319564	0.217025
H195	H	0.374616	0.828128	-0.343402
H196	H	0.874616	1.328128	0.156598
H197	H	0.000094	0.796691	0.063794
H198	H	0.500094	1.296691	0.563794
H199	H	0.000068	1.076597	0.604197
H200	H	0.500068	1.576597	1.104197
