data_functionalizedCrystal
_audit_creation_method	'MofGen! by Chris Wilmer'
_symmetry_space_group_name_H-M	'P1'
_symmetry_Int_Tables_number	1
_symmetry_cell_setting	triclinic
loop_
_symmetry_equiv_pos_as_xyz
  x,y,z
_cell_length_a	13.339070
_cell_length_b	17.699083
_cell_length_c	16.776229
_cell_angle_alpha	90.007545
_cell_angle_beta	90.006797
_cell_angle_gamma	99.456154
loop_
_atom_site_label
_atom_site_type_symbol
_atom_site_fract_x
_atom_site_fract_y
_atom_site_fract_z
O1	O	-1.341354	-0.379243	-0.066323
O2	O	-1.046949	-0.329465	-0.066318
O3	O	-1.202469	-0.245923	-0.066314
O4	O	-1.185834	-0.462785	-0.066327
O5	O	-1.202449	-0.245911	0.066263
O6	O	-1.046929	-0.329454	0.066259
O7	O	-1.341334	-0.379231	0.066253
Zn8	Zn	-1.194128	-0.354341	0.087305
Zn9	Zn	-1.194155	-0.354356	-0.087370
O10	O	-1.185814	-0.462773	0.066249
C11	C	-1.201863	-0.217594	-0.000025
C12	C	-1.200075	-0.133198	-0.000025
C13	C	-1.009271	-0.321051	-0.000029
C14	C	-0.897030	-0.295987	-0.000026
C15	C	-1.379012	-0.387645	-0.000038
C16	C	-1.491253	-0.412709	-0.000045
C17	C	-0.531758	-0.490868	-0.000051
C18	C	-0.637213	-0.514418	-0.000056
C19	C	-0.702173	-0.459813	-0.000048
C20	C	-0.661667	-0.381652	-0.000037
C21	C	-0.556202	-0.358099	-0.000038
C22	C	-0.726616	-0.327044	-0.000035
C23	C	-0.686110	-0.248884	-0.000023
C24	C	-0.580655	-0.225335	-0.000024
C25	C	-0.515696	-0.279940	-0.000032
C26	C	-0.832081	-0.350597	-0.000034
C27	C	-0.856524	-0.217829	-0.000020
C28	C	-0.751070	-0.194278	-0.000016
C29	C	-1.186420	-0.491102	-0.000041
C30	C	-1.188208	-0.575498	-0.000047
N31	N	-1.194117	-0.354331	0.206517
C32	C	-1.291362	-0.103873	-0.000026
C33	C	-1.289675	-0.024573	-0.000033
C34	C	-1.196701	0.025400	-0.000033
C35	C	-1.105407	-0.003930	-0.000035
C36	C	-1.107095	-0.083228	-0.000034
C37	C	-1.098600	0.315872	-0.000041
C38	C	-1.096920	0.395175	-0.000040
C39	C	-1.281181	0.374527	-0.000040
C40	C	-1.282869	0.295229	-0.000039
C41	C	-1.191575	0.265906	-0.000045
C42	C	-1.193405	0.179920	-0.000039
C43	C	-1.194871	0.111385	-0.000034
N44	N	-1.194174	-0.354361	-0.206581
C45	C	-1.263002	-0.317364	0.248235
C46	C	-1.263008	-0.317365	0.331688
C47	C	-1.194132	-0.354337	0.373419
C48	C	-1.125240	-0.391305	0.331695
C49	C	-1.125230	-0.391300	0.248244
C50	C	-1.125276	-0.391328	0.668242
C51	C	-1.125293	-0.391333	0.751698
C52	C	-1.263054	-0.317393	0.751686
C53	C	-1.263044	-0.317387	0.668235
C54	C	-1.194149	-0.354352	0.626517
C55	C	-1.194142	-0.354349	0.536029
C56	C	-1.194143	-0.354345	0.463906
H57	H	-0.865050	-0.414236	-0.000040
N58	N	-1.337329	-0.277506	0.376672
H59	H	-1.298808	-0.235874	0.411312
H60	H	-1.380940	-0.254145	0.337510
H61	H	-0.788038	-0.478992	-0.000054
H62	H	-1.029706	0.036765	-0.000041
N63	N	-1.000139	0.284250	-0.000045
H64	H	-0.940987	0.327943	-0.000041
H65	H	-0.996816	0.251806	0.049103
N66	N	-0.707365	-0.109981	-0.000010
H67	H	-0.731067	-0.085058	-0.049152
H68	H	-0.731058	-0.085115	0.049172
N69	N	-1.379646	0.406162	-0.000044
H70	H	-1.420231	0.387838	-0.049187
H71	H	-1.420127	0.387851	0.049137
N72	N	-1.050937	-0.431178	0.203246
H73	H	-1.061379	-0.425562	0.144048
H74	H	-0.979238	-0.407345	0.217850
H75	H	-0.478860	-0.535319	-0.000064
H76	H	-0.429825	-0.260769	-0.000028
N77	N	-1.337335	-0.277514	0.623224
H78	H	-1.380974	-0.254094	0.662316
H79	H	-1.298707	-0.235925	0.588614
H80	H	-0.547679	-0.161691	-0.000023
N81	N	-0.680901	-0.598713	-0.000081
H82	H	-0.623750	-0.629732	-0.000087
H83	H	-0.724119	-0.611381	0.049063
H84	H	-0.909415	-0.173364	-0.000017
N85	N	-1.391644	-0.157768	-0.000023
H86	H	-1.378865	-0.212454	-0.000017
H87	H	-1.431568	-0.148401	0.049126
N88	N	-1.388134	0.007057	-0.000029
H89	H	-1.447289	-0.036633	-0.000021
H90	H	-1.391431	0.039517	0.049119
H91	H	-1.358578	0.254543	-0.000034
N92	N	-1.337364	-0.277521	0.796680
H93	H	-1.326921	-0.283131	0.855879
H94	H	-1.325825	-0.221398	0.782104
N95	N	-0.996636	0.449079	-0.000037
H96	H	-0.939057	0.418471	-0.000041
H97	H	-0.991936	0.482426	-0.049182
H98	H	-1.032759	-0.107103	-0.000033
N99	N	-1.050997	-0.431206	0.796712
H100	H	-1.007346	-0.454619	0.757622
H101	H	-1.006389	-0.392834	0.831351
N102	N	-1.337296	-0.277492	0.203227
H103	H	-1.380933	-0.254073	0.242323
H104	H	-1.298671	-0.235901	0.168617
H105	H	-1.069181	-0.421427	0.634282
H106	H	-1.069155	-0.421406	0.365678
