data_functionalizedCrystal
_audit_creation_method	'MofGen! by Chris Wilmer'
_symmetry_space_group_name_H-M	'P1'
_symmetry_Int_Tables_number	1
_symmetry_cell_setting	triclinic
loop_
_symmetry_equiv_pos_as_xyz
  x,y,z
_cell_length_a	11.792241
_cell_length_b	12.837942
_cell_length_c	11.892113
_cell_angle_alpha	86.039625
_cell_angle_beta	94.339465
_cell_angle_gamma	90.488822
loop_
_atom_site_label
_atom_site_type_symbol
_atom_site_fract_x
_atom_site_fract_y
_atom_site_fract_z
O1	O	1.528436	-0.148113	0.093892
O2	O	2.028436	0.351887	0.593892
O3	O	1.199583	-0.162767	0.093918
O4	O	1.699583	0.337233	0.593918
O5	O	1.356717	-0.004496	0.093899
O6	O	1.856717	0.495504	0.593899
O7	O	1.371302	-0.306384	0.093911
O8	O	1.871302	0.193616	0.593911
O9	O	1.342467	0.007413	-0.094108
O10	O	1.842467	0.507413	0.405892
O11	O	1.185333	-0.150858	-0.094089
O12	O	1.685333	0.349142	0.405911
O13	O	1.514186	-0.136204	-0.094115
O14	O	2.014186	0.363796	0.405885
Zn15	Zn	1.347497	-0.141640	-0.123952
Zn16	Zn	1.847497	0.358360	0.376048
Zn17	Zn	1.366272	-0.157331	0.123755
Zn18	Zn	1.866272	0.342669	0.623755
O19	O	1.357052	-0.294475	-0.094095
O20	O	1.857052	0.205525	0.405905
C21	C	1.150074	-0.155892	-0.000082
C22	C	1.650074	0.344108	0.499918
C23	C	1.023781	-0.153138	-0.000072
C24	C	1.523781	0.346862	0.499928
N25	N	1.334691	-0.130931	-0.293005
N26	N	1.834691	0.369069	0.206995
C27	C	1.344665	0.040107	-0.000104
C28	C	1.844665	0.540107	0.499896
C29	C	1.329972	0.155266	-0.000101
C30	C	1.829972	0.655266	0.499899
C31	C	0.792553	-0.148070	-0.000105
C32	C	1.292553	0.351930	0.499895
C33	C	0.921225	-0.150886	-0.000087
C34	C	1.421225	0.349114	0.499913
C35	C	1.563695	-0.143079	-0.000112
C36	C	2.063695	0.356921	0.499888
C37	C	1.689988	-0.145834	-0.000115
C38	C	2.189988	0.354166	0.499885
C39	C	1.369104	-0.339078	-0.000091
C40	C	1.869104	0.160922	0.499909
C41	C	1.383798	-0.454238	-0.000086
C42	C	1.883798	0.045762	0.499914
C43	C	1.506618	0.395231	-0.000091
C44	C	2.006618	0.895231	0.499909
C45	C	1.492818	0.503435	-0.000088
C46	C	1.992818	1.003435	0.499912
C47	C	1.288572	0.479878	-0.000084
C48	C	1.788572	0.979878	0.499916
C49	C	1.302372	0.371674	-0.000087
C50	C	1.802372	0.871674	0.499913
C51	C	1.411399	0.329356	-0.000092
C52	C	1.911399	0.829356	0.499908
C53	C	1.425198	0.221151	-0.000103
C54	C	1.925198	0.721151	0.499897
C55	C	1.220953	0.197596	-0.000091
C56	C	1.720953	0.697596	0.499909
C57	C	1.207153	0.305799	-0.000088
C58	C	1.707153	0.805799	0.499912
C59	C	1.468184	-0.242604	-0.529660
C60	C	1.968184	0.257396	-0.029660
C61	C	1.459242	-0.235110	-0.648001
C62	C	1.959242	0.264890	-0.148001
C63	C	1.307869	-0.108442	-0.648032
C64	C	1.807869	0.391558	-0.148032
C65	C	1.316812	-0.115937	-0.529690
C66	C	1.816812	0.384063	-0.029690
C67	C	1.396971	-0.183021	-0.470508
C68	C	1.896971	0.316979	0.029492
C69	C	1.405908	-0.190520	-0.352165
C70	C	1.905908	0.309480	0.147835
C71	C	1.254541	-0.063848	-0.352198
C72	C	1.754541	0.436152	0.147802
C73	C	1.245599	-0.056354	-0.470539
C74	C	1.745599	0.443646	0.029461
N75	N	1.379085	-0.168032	0.292809
N76	N	1.879085	0.331968	0.792809
H77	H	1.513972	0.186697	-0.000112
H78	H	2.013972	0.686697	0.499888
H79	H	1.242618	-0.053814	-0.696238
H80	H	1.742618	0.446186	-0.196238
H81	H	1.118386	0.340270	-0.000079
H82	H	1.618386	0.840270	0.499921
H83	H	1.143418	0.143948	-0.000100
H84	H	1.643418	0.643948	0.499900
H85	H	1.533443	-0.297237	-0.481473
H86	H	2.033443	0.202763	0.018527
H87	H	1.180339	-0.001732	-0.518742
H88	H	1.680339	0.498268	-0.018742
H89	H	1.196549	-0.015336	-0.304025
H90	H	1.696549	0.484664	0.195975
H91	H	1.471173	-0.245148	-0.303980
H92	H	1.971173	0.254852	0.196020
H93	H	1.595391	0.360776	-0.000107
H94	H	2.095391	0.860776	0.499893
H95	H	1.570356	0.557067	-0.000084
H96	H	2.070356	1.057067	0.499916
H97	H	1.517232	-0.283628	-0.696157
H98	H	2.017232	0.216372	-0.196157
H99	H	1.199808	0.514352	-0.000067
H100	H	1.699808	1.014352	0.499933
