data_functionalizedCrystal
_audit_creation_method	'MofGen! by Chris Wilmer'
_symmetry_space_group_name_H-M	'P1'
_symmetry_Int_Tables_number	1
_symmetry_cell_setting	triclinic
loop_
_symmetry_equiv_pos_as_xyz
  x,y,z
_cell_length_a	14.853558
_cell_length_b	19.288865
_cell_length_c	18.366186
_cell_angle_alpha	89.990289
_cell_angle_beta	90.005001
_cell_angle_gamma	96.616309
loop_
_atom_site_label
_atom_site_type_symbol
_atom_site_fract_x
_atom_site_fract_y
_atom_site_fract_z
O1	O	1.195856	-0.090653	0.060549
O2	O	0.933334	-0.101462	0.060554
O3	O	1.072180	0.005047	0.060537
O4	O	1.057009	-0.197163	0.060566
O5	O	1.072166	0.005050	-0.060562
O6	O	0.933319	-0.101460	-0.060546
O7	O	1.195841	-0.090650	-0.060550
Zn8	Zn	1.064578	-0.096055	-0.079775
Zn9	Zn	1.064597	-0.096058	0.079779
O10	O	1.056994	-0.197160	-0.060533
C11	C	0.899740	-0.100972	0.000005
C12	C	0.799664	-0.099508	0.000006
C13	C	0.752656	-0.098823	0.066020
C14	C	0.752639	-0.098812	-0.066008
C15	C	0.658613	-0.097433	-0.066009
C16	C	0.611605	-0.096747	0.000005
C17	C	0.658622	-0.097441	0.066020
C18	C	0.611589	-0.096731	-0.132023
C19	C	0.517558	-0.095351	-0.132027
C20	C	0.470547	-0.094671	-0.066013
C21	C	0.517570	-0.095366	0.000005
C22	C	0.470562	-0.094680	0.066019
C23	C	0.517583	-0.095380	0.132038
C24	C	0.611611	-0.096761	0.132035
C25	C	0.376519	-0.093290	-0.066009
C26	C	0.376528	-0.093299	0.066020
C27	C	1.071685	0.030927	-0.000015
C28	C	1.070220	0.108035	-0.000021
C29	C	1.229435	-0.091140	0.000001
C30	C	1.329510	-0.092605	0.000005
C31	C	1.057490	-0.223039	0.000020
C32	C	1.058955	-0.300148	0.000031
N33	N	1.064571	-0.096052	-0.188666
C34	C	1.151688	0.152458	-0.000026
C35	C	1.150312	0.224910	-0.000015
C36	C	1.067461	0.252935	-0.000013
C37	C	0.985982	0.208502	-0.000004
C38	C	0.987361	0.136052	-0.000008
C39	C	1.002326	0.361442	-0.042430
C40	C	1.000951	0.433891	-0.042430
C41	C	1.063205	0.476395	0.000004
C42	C	1.126850	0.446443	0.042429
C43	C	1.128229	0.373993	0.042424
C44	C	1.065957	0.331494	-0.000008
C45	C	1.143186	0.599379	0.000012
C46	C	1.141806	0.671832	0.000028
C47	C	0.977474	0.655422	0.000032
C48	C	0.978857	0.582971	0.000023
C49	C	1.061715	0.554954	0.000010
C50	C	1.126094	-0.048906	-0.773224
C51	C	1.126095	-0.048907	-0.696996
C52	C	1.064597	-0.096052	-0.658877
C53	C	1.003110	-0.143210	-0.696993
C54	C	1.003117	-0.143212	-0.773219
C55	C	0.982447	-0.105046	-0.538121
C56	C	0.982440	-0.105040	-0.461896
C57	C	1.064577	-0.096050	-0.423770
C58	C	1.146726	-0.087053	-0.461878
C59	C	1.146732	-0.087055	-0.538104
C60	C	1.064584	-0.096055	-0.576223
C61	C	1.126066	-0.048900	-0.303009
C62	C	1.126068	-0.048906	-0.226779
C63	C	1.003076	-0.143206	-0.226778
C64	C	1.003081	-0.143203	-0.303005
C65	C	1.064575	-0.096046	-0.341116
N66	N	1.064611	-0.096055	0.188670
H67	H	0.649904	-0.097330	0.185784
H68	H	0.910016	0.678239	0.000037
H69	H	1.176141	-0.010504	-0.334040
H70	H	0.479282	-0.094780	-0.185784
Br71	Br	0.870965	-0.117253	-0.589856
Br72	Br	0.675389	-0.097662	-0.221608
H73	H	0.953013	-0.181594	-0.334034
Br74	Br	0.868285	0.522678	0.000029
Br75	Br	0.816436	-0.099738	-0.155594
Br76	Br	0.914583	0.474534	-0.100011
H77	H	0.918524	0.231325	-0.000000
Br78	Br	0.312737	-0.092377	0.155615
Br79	Br	1.255634	0.561352	-0.000013
Br80	Br	1.258213	-0.074850	-0.589821
Br81	Br	1.264139	0.114439	-0.000024
Br82	Br	0.816465	-0.099776	0.155612
Br83	Br	0.312711	-0.092325	-0.155598
H84	H	1.216656	0.261087	-0.000016
H85	H	1.180049	0.349609	0.076969
H86	H	1.177543	0.481049	0.076983
H87	H	0.915549	-0.112358	-0.430874
H88	H	0.479297	-0.094818	0.185787
Br89	Br	0.917831	0.303764	-0.100025
H90	H	1.176163	-0.010511	-0.665964
Br91	Br	1.252382	0.732124	0.000029
H92	H	0.921017	0.099882	-0.000004
Br93	Br	1.258206	-0.074844	-0.410146
H94	H	1.176168	-0.010510	-0.804252
Br95	Br	1.209523	0.015081	-0.175059
Br96	Br	0.919655	-0.207198	-0.645263
Br97	Br	0.919624	-0.207196	-0.175052
Br98	Br	0.919671	-0.207206	-0.824939
