data_functionalizedCrystal
_audit_creation_method	'MofGen! by Chris Wilmer'
_symmetry_space_group_name_H-M	'P1'
_symmetry_Int_Tables_number	1
_symmetry_cell_setting	triclinic
loop_
_symmetry_equiv_pos_as_xyz
  x,y,z
_cell_length_a	18.050590
_cell_length_b	19.120786
_cell_length_c	18.050582
_cell_angle_alpha	87.534997
_cell_angle_beta	90.000767
_cell_angle_gamma	92.454965
loop_
_atom_site_label
_atom_site_type_symbol
_atom_site_fract_x
_atom_site_fract_y
_atom_site_fract_z
Zn1	Zn	1.122683	-0.279875	-0.406968
Zn2	Zn	1.372683	-0.029875	-0.156968
Zn3	Zn	1.622683	0.220125	0.093032
Zn4	Zn	1.872683	0.470125	0.343032
Zn5	Zn	1.117303	-0.397324	-0.277476
Zn6	Zn	1.367303	-0.147324	-0.027476
Zn7	Zn	1.617303	0.102676	0.222524
Zn8	Zn	1.867303	0.352676	0.472524
Zn9	Zn	0.998503	-0.279863	-0.282826
Zn10	Zn	1.248503	-0.029863	-0.032826
Zn11	Zn	1.498503	0.220137	0.217174
Zn12	Zn	1.748503	0.470137	0.467174
Zn13	Zn	0.993162	-0.397273	-0.401660
Zn14	Zn	1.243162	-0.147273	-0.151660
Zn15	Zn	1.493162	0.102727	0.098340
Zn16	Zn	1.743162	0.352727	0.348340
O17	O	1.057913	-0.338584	-0.342232
O18	O	1.307913	-0.088584	-0.092232
O19	O	1.557913	0.161416	0.157768
O20	O	1.807913	0.411416	0.407768
O21	O	1.225893	-0.295481	-0.389772
O22	O	1.475893	-0.045481	-0.139772
O23	O	1.725893	0.204519	0.110228
O24	O	1.975893	0.454519	0.360228
O25	O	1.101527	-0.381759	-0.174260
O26	O	1.351527	-0.131759	0.075740
O27	O	1.601527	0.118241	0.325740
O28	O	1.851527	0.368241	0.575740
O29	O	1.019463	-0.181576	-0.303754
O30	O	1.269463	0.068424	-0.053754
O31	O	1.519463	0.318424	0.196246
O32	O	1.769463	0.568424	0.446246
O33	O	1.221940	-0.381770	-0.294635
O34	O	1.471940	-0.131770	-0.044635
O35	O	1.721940	0.118230	0.205365
O36	O	1.971940	0.368230	0.455365
O37	O	1.110698	-0.181584	-0.394960
O38	O	1.360698	0.068416	-0.144960
O39	O	1.610698	0.318416	0.105040
O40	O	1.860698	0.568416	0.355040
O41	O	1.014246	-0.295462	-0.178191
O42	O	1.264246	-0.045462	0.071809
O43	O	1.514246	0.204538	0.321809
O44	O	1.764246	0.454538	0.571809
O45	O	0.893871	-0.295412	-0.298608
O46	O	1.143871	-0.045412	-0.048608
O47	O	1.393871	0.204588	0.201392
O48	O	1.643871	0.454588	0.451392
O49	O	1.010359	-0.381683	-0.506290
O50	O	1.260359	-0.131683	-0.256290
O51	O	1.510359	0.118317	-0.006290
O52	O	1.760359	0.368317	0.243710
O53	O	0.889947	-0.381672	-0.385915
O54	O	1.139947	-0.131672	-0.135915
O55	O	1.389947	0.118328	0.114085
O56	O	1.639947	0.368328	0.364085
O57	O	1.105518	-0.295431	-0.510189
O58	O	1.355518	-0.045431	-0.260189
O59	O	1.605518	0.204569	-0.010189
O60	O	1.855518	0.454569	0.239811
O61	O	1.096348	-0.495606	-0.289489
O62	O	1.346348	-0.245606	-0.039489
O63	O	1.596348	0.004394	0.210511
O64	O	1.846348	0.254394	0.460511
O65	O	1.005142	-0.495569	-0.380727
O66	O	1.255142	-0.245569	-0.130727
O67	O	1.505142	0.004431	0.119273
O68	O	1.755142	0.254431	0.369273
C69	C	0.864963	-0.338536	-0.342267
C70	C	1.114963	-0.088536	-0.092267
C71	C	1.364963	0.161464	0.157733
C72	C	1.614963	0.411464	0.407733
C73	C	0.782417	-0.338532	-0.342298
C74	C	1.032417	-0.088532	-0.092298
C75	C	1.282417	0.161468	0.157702
C76	C	1.532417	0.411468	0.407702
C77	C	0.580848	-0.385575	-0.389652
C78	C	0.830848	-0.135575	-0.139652
C79	C	1.080848	0.114425	0.110348
C80	C	1.330848	0.364425	0.360348
C81	C	0.534340	-0.321532	-0.410818
C82	C	0.784340	-0.071532	-0.160818
C83	C	1.034340	0.178468	0.089182
C84	C	1.284340	0.428468	0.339182
C85	C	0.631285	-0.338571	-0.342260
C86	C	0.881285	-0.088571	-0.092260
C87	C	1.131285	0.161429	0.157740
C88	C	1.381285	0.411429	0.407740
C89	C	0.530710	-0.402651	-0.321091
C90	C	0.780710	-0.152651	-0.071091
C91	C	1.030710	0.097349	0.178909
C92	C	1.280710	0.347349	0.428909
C93	C	0.485298	-0.338615	-0.342224
C94	C	0.735298	-0.088615	-0.092224
C95	C	0.985298	0.161385	0.157776
C96	C	1.235298	0.411385	0.407776
C97	C	0.585866	-0.274494	-0.363463
C98	C	0.835866	-0.024494	-0.113463
C99	C	1.085866	0.225506	0.136537
C100	C	1.335866	0.475506	0.386537
C101	C	0.582238	-0.355657	-0.273703
C102	C	0.832238	-0.105657	-0.023703
C103	C	1.082238	0.144343	0.226297
C104	C	1.332238	0.394343	0.476297
C105	C	0.535754	-0.291570	-0.294846
C106	C	0.785754	-0.041570	-0.044846
C107	C	1.035754	0.208430	0.205154
C108	C	1.285754	0.458430	0.455154
C109	C	0.715384	-0.338547	-0.342282
C110	C	0.965384	-0.088547	-0.092282
C111	C	1.215384	0.161453	0.157718
C112	C	1.465384	0.411453	0.407718
C113	C	0.401201	-0.338632	-0.342202
C114	C	0.651201	-0.088632	-0.092202
C115	C	0.901201	0.161368	0.157798
C116	C	1.151201	0.411368	0.407798
C117	C	1.049602	-0.521073	-0.333967
C118	C	1.299602	-0.271073	-0.083967
C119	C	1.549602	-0.021073	0.166033
C120	C	1.799602	0.228927	0.416033
C121	C	1.046114	-0.599142	-0.330457
C122	C	1.296114	-0.349142	-0.080457
C123	C	1.546114	-0.099142	0.169543
C124	C	1.796114	0.150858	0.419543
C125	C	1.091941	-0.635763	-0.376332
C126	C	1.341941	-0.385763	-0.126332
C127	C	1.591941	-0.135763	0.123668
C128	C	1.841941	0.114237	0.373668
C129	C	1.088661	-0.709118	-0.373034
C130	C	1.338661	-0.459118	-0.123034
C131	C	1.588661	-0.209118	0.126966
C132	C	1.838661	0.040882	0.376966
C133	C	1.039557	-0.745850	-0.323857
C134	C	1.289557	-0.495850	-0.073857
C135	C	1.539557	-0.245850	0.176143
C136	C	1.789557	0.004150	0.426143
C137	C	0.993725	-0.709224	-0.277980
C138	C	1.243725	-0.459224	-0.027980
C139	C	1.493725	-0.209224	0.222020
C140	C	1.743725	0.040776	0.472020
C141	C	0.997002	-0.635871	-0.281282
C142	C	1.247002	-0.385871	-0.031282
C143	C	1.497002	-0.135871	0.218718
C144	C	1.747002	0.114129	0.468718
C145	C	1.027285	-0.967333	-0.311513
C146	C	1.277285	-0.717333	-0.061513
C147	C	1.527285	-0.467333	0.188487
C148	C	1.777285	-0.217333	0.438487
C149	C	1.024014	-1.040691	-0.308213
C150	C	1.274014	-0.790691	-0.058213
C151	C	1.524014	-0.540691	0.191787
C152	C	1.774014	-0.290691	0.441787
C153	C	1.118949	-1.040580	-0.403269
C154	C	1.368949	-0.790580	-0.153269
C155	C	1.618949	-0.540580	0.096731
C156	C	1.868949	-0.290580	0.346731
C157	C	1.122225	-0.967226	-0.406563
C158	C	1.372225	-0.717226	-0.156563
C159	C	1.622225	-0.467226	0.093437
C160	C	1.872225	-0.217226	0.343437
C161	C	1.076390	-0.930606	-0.360689
C162	C	1.326390	-0.680606	-0.110689
C163	C	1.576390	-0.430606	0.139311
C164	C	1.826390	-0.180606	0.389311
C165	C	1.036205	-0.820831	-0.320483
C166	C	1.286205	-0.570831	-0.070483
C167	C	1.536205	-0.320831	0.179517
C168	C	1.786205	-0.070831	0.429517
C169	C	1.079739	-0.855627	-0.364067
C170	C	1.329739	-0.605627	-0.114067
C171	C	1.579739	-0.355627	0.135933
C172	C	1.829739	-0.105627	0.385933
C173	C	1.251616	-0.338632	-0.342199
C174	C	1.501616	-0.088632	-0.092199
C175	C	1.751616	0.161368	0.157801
C176	C	2.001616	0.411368	0.407801
C177	C	1.334161	-0.338653	-0.342184
C178	C	1.584161	-0.088653	-0.092184
C179	C	1.834161	0.161347	0.157816
C180	C	2.084161	0.411347	0.407816
C181	C	1.057943	-0.338553	-0.535939
C182	C	1.307943	-0.088553	-0.285939
C183	C	1.557943	0.161447	-0.035939
C184	C	1.807943	0.411447	0.214061
C185	C	1.057956	-0.338539	-0.618486
C186	C	1.307956	-0.088539	-0.368486
C187	C	1.557956	0.161461	-0.118486
C188	C	1.807956	0.411461	0.131514
C189	C	1.066277	-0.155382	-0.350546
C190	C	1.316277	0.094618	-0.100546
C191	C	1.566277	0.344618	0.149454
C192	C	1.816277	0.594618	0.399454
C193	C	1.069841	-0.077312	-0.354089
C194	C	1.319841	0.172688	-0.104089
C195	C	1.569841	0.422688	0.145911
C196	C	1.819841	0.672688	0.395911
C197	C	1.006250	-0.385379	-0.815819
C198	C	1.256250	-0.135379	-0.565819
C199	C	1.506250	0.114621	-0.315819
C200	C	1.756250	0.364621	-0.065819
C201	C	1.073231	-0.402560	-0.864416
C202	C	1.323231	-0.152560	-0.614416
C203	C	1.573231	0.097440	-0.364416
C204	C	1.823231	0.347440	-0.114416
C205	C	1.057995	-0.338486	-0.769619
C206	C	1.307995	-0.088486	-0.519619
C207	C	1.557995	0.161514	-0.269619
C208	C	1.807995	0.411514	-0.019619
C209	C	0.991052	-0.321285	-0.868104
C210	C	1.241052	-0.071285	-0.618104
C211	C	1.491052	0.178715	-0.368104
C212	C	1.741052	0.428715	-0.118104
C213	C	1.058027	-0.338435	-0.915606
C214	C	1.308027	-0.088435	-0.665606
C215	C	1.558027	0.161565	-0.415606
C216	C	1.808027	0.411565	-0.165606
C217	C	1.125011	-0.355700	-0.817127
C218	C	1.375011	-0.105700	-0.567127
C219	C	1.625011	0.144300	-0.317127
C220	C	1.875011	0.394300	-0.067127
C221	C	1.042788	-0.274395	-0.820812
C222	C	1.292788	-0.024395	-0.570812
C223	C	1.542788	0.225605	-0.320812
C224	C	1.792788	0.475605	-0.070812
C225	C	1.109817	-0.291552	-0.869388
C226	C	1.359817	-0.041552	-0.619388
C227	C	1.609817	0.208448	-0.369388
C228	C	1.859817	0.458448	-0.119388
C229	C	1.057976	-0.338517	-0.685519
C230	C	1.307976	-0.088517	-0.435519
C231	C	1.557976	0.161483	-0.185519
C232	C	1.807976	0.411483	0.064481
C233	C	1.058054	-0.338404	-0.999704
C234	C	1.308054	-0.088404	-0.749704
C235	C	1.558054	0.161596	-0.499704
C236	C	1.808054	0.411596	-0.249704
C237	C	1.057927	-0.338564	-0.149281
C238	C	1.307927	-0.088564	0.100719
C239	C	1.557927	0.161436	0.350719
C240	C	1.807927	0.411436	0.600719
C241	C	1.058067	-0.338379	-0.066744
C242	C	1.308067	-0.088379	0.183256
C243	C	1.558067	0.161621	0.433256
C244	C	1.808067	0.411621	0.683256
H245	H	0.603317	-0.370113	-0.215757
H246	H	0.853317	-0.120113	0.034243
H247	H	1.103317	0.129887	0.284243
H248	H	1.353317	0.379887	0.534243
F249	F	0.978498	-0.928369	-0.262695
F250	F	1.228498	-0.678369	-0.012695
F251	F	1.478498	-0.428369	0.237305
F252	F	1.728498	-0.178369	0.487305
H253	H	0.513276	-0.307095	-0.468780
H254	H	0.763276	-0.057095	-0.218780
H255	H	1.013276	0.192905	0.031220
H256	H	1.263276	0.442905	0.281220
H257	H	1.162209	-0.937320	-0.446607
H258	H	1.412209	-0.687320	-0.196607
H259	H	1.662209	-0.437320	0.053393
H260	H	1.912209	-0.187320	0.303393
H261	H	1.153638	-0.251875	-0.892704
H262	H	1.403638	-0.001875	-0.642704
H263	H	1.653638	0.248125	-0.392704
H264	H	1.903638	0.498125	-0.142704
H265	H	0.609908	-0.220305	-0.381418
H266	H	0.859908	0.029695	-0.131418
H267	H	1.109908	0.279695	0.118582
H268	H	1.359908	0.529695	0.368582
H269	H	0.962527	-0.425087	-0.792366
H270	H	1.212527	-0.175087	-0.542366
H271	H	1.462527	0.074913	-0.292366
H272	H	1.712527	0.324913	-0.042366
F273	F	1.090069	-0.473374	-0.889578
F274	F	1.340069	-0.223374	-0.639578
F275	F	1.590069	0.026626	-0.389578
F276	F	1.840069	0.276626	-0.139578
H277	H	0.953741	-0.739137	-0.237942
H278	H	1.203741	-0.489137	0.012058
H279	H	1.453741	-0.239137	0.262058
H280	H	1.703741	0.010863	0.512058
H281	H	1.125984	-0.738932	-0.410385
H282	H	1.375984	-0.488932	-0.160385
H283	H	1.625984	-0.238932	0.089615
H284	H	1.875984	0.011068	0.339615
H285	H	1.029885	-0.220233	-0.801546
H286	H	1.279885	0.029767	-0.551546
H287	H	1.529885	0.279767	-0.301546
H288	H	1.779885	0.529767	-0.051546
F289	F	1.199042	-0.374775	-0.788013
F290	F	1.449042	-0.124775	-0.538013
F291	F	1.699042	0.125225	-0.288013
F292	F	1.949042	0.375225	-0.038013
F293	F	1.167724	-1.079559	-0.452090
F294	F	1.417724	-0.829559	-0.202090
F295	F	1.667724	-0.579559	0.047910
F296	F	1.917724	-0.329559	0.297910
F297	F	0.917039	-0.302296	-0.897338
F298	F	1.167039	-0.052296	-0.647338
F299	F	1.417039	0.197704	-0.397338
F300	F	1.667039	0.447704	-0.147338
H301	H	0.600722	-0.425254	-0.429779
H302	H	0.850722	-0.175254	-0.179779
H303	H	1.100722	0.074746	0.070221
H304	H	1.350722	0.324746	0.320221
H305	H	0.506573	-0.456824	-0.303204
H306	H	0.756573	-0.206824	-0.053204
H307	H	1.006573	0.043176	0.196796
H308	H	1.256573	0.293176	0.446796
F309	F	1.144209	-0.596677	-0.428670
F310	F	1.394209	-0.346677	-0.178670
F311	F	1.644209	-0.096677	0.071330
F312	F	1.894209	0.153323	0.321330
F313	F	0.509962	-0.239581	-0.242443
F314	F	0.759962	0.010419	0.007557
F315	F	1.009962	0.260419	0.257557
F316	F	1.259962	0.510419	0.507557
F317	F	0.971750	-1.079783	-0.255868
F318	F	1.221750	-0.829783	-0.005868
F319	F	1.471750	-0.579783	0.244132
F320	F	1.721750	-0.329783	0.494132
H321	H	0.959684	-0.606054	-0.243926
H322	H	1.209684	-0.356054	0.006074
H323	H	1.459684	-0.106054	0.256074
H324	H	1.709684	0.143946	0.506074
F325	F	1.131993	-0.816532	-0.416407
F326	F	1.381993	-0.566532	-0.166407
F327	F	1.631993	-0.316532	0.083593
F328	F	1.881993	-0.066532	0.333593
F329	F	0.983943	-0.859930	-0.268150
F330	F	1.233943	-0.609930	-0.018150
F331	F	1.483943	-0.359930	0.231850
F332	F	1.733943	-0.109930	0.481850
