data_functionalizedCrystal
_audit_creation_method	'MofGen! by Chris Wilmer'
_symmetry_space_group_name_H-M	'P1'
_symmetry_Int_Tables_number	1
_symmetry_cell_setting	triclinic
loop_
_symmetry_equiv_pos_as_xyz
  x,y,z
_cell_length_a	10.540539
_cell_length_b	17.038272
_cell_length_c	9.616153
_cell_angle_alpha	89.997688
_cell_angle_beta	89.995174
_cell_angle_gamma	87.818524
loop_
_atom_site_label
_atom_site_type_symbol
_atom_site_fract_x
_atom_site_fract_y
_atom_site_fract_z
O1	O	1.696176	0.110247	-0.115581
O2	O	1.327732	0.120634	-0.115599
O3	O	1.509764	0.001613	-0.115579
O4	O	1.514144	0.229269	-0.115601
O5	O	1.509738	0.001615	0.115712
O6	O	1.327705	0.120637	0.115693
O7	O	1.696149	0.110249	0.115710
Zn8	Zn	1.511923	0.115443	0.152424
Zn9	Zn	1.511958	0.115440	-0.152313
O10	O	1.514117	0.229271	0.115690
C11	C	1.280343	0.119857	0.000045
C12	C	1.139177	0.117526	0.000039
C13	C	0.947420	0.028219	0.000587
C14	C	1.094259	0.030581	0.000051
C15	C	1.081423	0.159366	-0.132039
C16	C	0.934602	0.156399	-0.132135
C17	C	0.934248	0.158170	0.130886
C18	C	1.081305	0.158971	0.132618
C19	C	1.505768	-0.027537	0.000066
C20	C	1.493883	-0.114398	0.000065
C21	C	1.602994	-0.163886	0.000072
C22	C	1.591820	-0.245501	0.000058
C23	C	1.471534	-0.277626	0.000048
C24	C	1.362416	-0.228133	0.000037
C25	C	1.373591	-0.146519	0.000041
C26	C	1.432055	-0.523611	0.000027
C27	C	1.420888	-0.605231	0.000027
C28	C	1.650293	-0.622593	0.000046
C29	C	1.661457	-0.540977	0.000058
C30	C	1.552339	-0.491491	0.000040
C31	C	1.460110	-0.361050	0.000038
C32	C	1.563764	-0.408069	0.000040
C33	C	1.743538	0.111027	0.000063
C34	C	1.884704	0.113358	0.000061
C35	C	1.518114	0.258421	0.000042
C36	C	1.529998	0.345282	0.000034
N37	N	1.511909	0.115445	0.360398
N38	N	1.511982	0.115432	-0.360287
C39	C	1.414198	0.178900	0.580758
C40	C	1.414448	0.179138	0.419590
C41	C	1.646364	0.134015	0.418852
C42	C	1.645842	0.134465	0.580070
C43	C	1.476466	0.033212	0.580316
C44	C	1.473469	0.033745	0.419089
H45	H	0.903518	0.125473	-0.230858
H46	H	0.892879	0.220970	0.131773
H47	H	1.380080	0.015538	0.621051
N48	N	1.709506	-0.298873	0.000077
H49	H	1.709963	-0.333126	0.085814
H50	H	1.709934	-0.333067	-0.085723
H51	H	1.362173	-0.387215	0.000033
N52	N	1.732734	-0.129243	0.000092
H53	H	1.742499	-0.095763	-0.085641
H54	H	1.742388	-0.095814	0.085895
N55	N	0.878774	0.239222	-0.140029
H56	H	0.949562	0.277496	-0.143444
H57	H	0.825000	0.245201	-0.226579
H58	H	1.721346	0.090100	0.619066
N59	N	1.570778	-0.029367	0.630808
H60	H	1.636197	-0.004623	0.691858
H61	H	1.524847	-0.069994	0.685935
H62	H	1.132922	-0.002574	-0.094786
H63	H	1.109732	0.223216	-0.136959
H64	H	1.374518	0.019669	0.380886
H65	H	1.437523	0.239555	0.621252
N66	N	1.291143	-0.639880	0.000002
H67	H	1.300627	-0.699091	0.000010
H68	H	1.242992	-0.621824	0.085737
N69	N	1.121215	0.242938	0.143175
H70	H	1.043447	0.279442	0.142005
H71	H	1.169337	0.250202	0.232786
H72	H	1.438038	0.240138	0.381006
N73	N	1.791193	-0.506329	0.000077
H74	H	1.858621	-0.550064	0.000080
H75	H	1.800840	-0.472841	-0.085661
N76	N	1.693495	-0.373420	0.000062
H77	H	1.741676	-0.391421	0.085810
H78	H	1.741616	-0.391423	-0.085726
H79	H	1.314789	0.167964	0.380072
N80	N	1.232674	-0.262774	0.000025
H81	H	1.222933	-0.296248	-0.085713
H82	H	1.222993	-0.296208	0.085823
N83	N	1.255897	-0.093151	0.000057
H84	H	1.255412	-0.058908	0.085802
H85	H	1.255482	-0.058947	-0.085735
H86	H	1.721225	0.089051	0.380507
H87	H	1.121311	0.130299	-0.230328
H88	H	1.343202	-0.483328	0.000013
N89	N	1.686687	0.212572	0.365349
H90	H	1.618065	0.236239	0.303262
H91	H	1.700999	0.248835	0.446461
H92	H	0.900066	0.130034	0.231000
H93	H	1.539379	-0.015754	0.378802
N94	N	1.131763	0.118489	0.262055
H95	H	1.191860	0.073490	0.234943
H96	H	1.178394	0.157261	0.320628
N97	N	1.281796	0.164337	0.632160
H98	H	1.283909	0.116458	0.694167
H99	H	1.248613	0.211512	0.686497
N100	N	0.905308	-0.017280	0.126060
H101	H	0.845162	0.016852	0.183780
H102	H	0.860770	-0.065598	0.094450
N103	N	1.767979	-0.675966	0.000067
H104	H	1.742653	-0.732543	0.000064
H105	H	1.820031	-0.665490	-0.085671
N106	N	1.685483	0.213926	0.629862
H107	H	1.685534	0.215015	0.734876
H108	H	1.773556	0.224010	0.594352
N109	N	0.903164	-0.017091	-0.124154
H110	H	0.928165	0.010776	-0.212134
H111	H	0.943895	-0.071707	-0.122909
H112	H	1.133791	-0.002340	0.094731
