data_functionalizedCrystal
_audit_creation_method	'MofGen! by Chris Wilmer'
_symmetry_space_group_name_H-M	'P1'
_symmetry_Int_Tables_number	1
_symmetry_cell_setting	triclinic
loop_
_symmetry_equiv_pos_as_xyz
  x,y,z
_cell_length_a	12.827893
_cell_length_b	16.959454
_cell_length_c	12.827885
_cell_angle_alpha	89.970356
_cell_angle_beta	89.980728
_cell_angle_gamma	90.020236
loop_
_atom_site_label
_atom_site_type_symbol
_atom_site_fract_x
_atom_site_fract_y
_atom_site_fract_z
Zn1	Zn	1.597636	-0.314640	-0.590850
Zn2	Zn	1.597515	-0.446839	-0.416110
Zn3	Zn	1.422877	-0.314679	-0.416123
Zn4	Zn	1.422848	-0.446781	-0.590810
O5	O	1.510219	-0.380735	-0.503473
O6	O	1.743856	-0.332185	-0.567681
O7	O	1.574311	-0.429348	-0.269876
O8	O	1.446122	-0.204063	-0.439323
O9	O	1.743767	-0.429311	-0.439301
O10	O	1.574516	-0.204034	-0.567694
O11	O	1.446005	-0.332251	-0.269885
O12	O	1.276637	-0.332194	-0.439285
O13	O	1.446072	-0.429211	-0.737052
O14	O	1.276616	-0.429249	-0.567627
O15	O	1.574488	-0.332128	-0.737081
O16	O	1.574283	-0.557442	-0.439263
O17	O	1.445956	-0.557399	-0.567614
C18	C	1.238709	-0.380720	-0.503454
C19	C	1.122556	-0.380733	-0.503470
C20	C	1.070815	-0.332757	-0.567095
C21	C	0.950764	-0.332769	-0.567114
C22	C	1.510131	-0.586101	-0.503456
C23	C	1.510190	-0.673957	-0.503483
C24	C	1.443496	-1.045441	-0.570299
C25	C	1.577233	-1.045425	-0.436755
C26	C	1.577197	-0.962879	-0.436745
C27	C	1.510308	-0.921610	-0.503512
C28	C	1.443455	-0.962887	-0.570289
C29	C	1.644041	-0.921597	-0.369962
C30	C	1.644006	-0.839046	-0.369949
C31	C	1.577121	-0.797775	-0.436722
C32	C	1.510267	-0.839057	-0.503502
C33	C	1.443378	-0.797788	-0.570270
C34	C	1.376528	-0.839068	-0.637056
C35	C	1.376571	-0.921616	-0.637062
C36	C	1.577079	-0.715227	-0.436716
C37	C	1.443337	-0.715234	-0.570260
C38	C	1.782789	-0.380750	-0.503494
C39	C	1.898942	-0.380756	-0.503503
C40	C	1.510290	-0.380659	-0.776044
C41	C	1.510320	-0.380626	-0.892197
C42	C	1.510335	-0.174566	-0.503514
C43	C	1.510385	-0.086710	-0.503532
C44	C	1.573871	-0.332577	-0.943996
C45	C	1.573904	-0.332543	-1.064046
C46	C	1.510208	-0.380753	-0.231964
C47	C	1.510380	-0.380563	-0.115811
H48	H	1.077977	-0.421814	-0.449009
N49	N	1.304460	-0.966137	-0.709079
H50	H	1.320638	-0.951735	-0.783760
H51	H	1.314665	-1.024679	-0.698858
N52	N	1.371196	-0.670724	-0.642279
H53	H	1.328857	-0.709403	-0.684585
H54	H	1.322838	-0.636523	-0.599694
H55	H	1.628252	-0.291463	-0.899466
H56	H	1.455973	-0.421705	-1.071272
H57	H	1.322061	-0.805457	-0.691414
N58	N	1.716186	-0.966108	-0.297961
H59	H	1.758527	-0.927433	-0.255651
H60	H	1.673693	-1.000408	-0.249571
N61	N	1.649180	-0.670705	-0.364698
H62	H	1.639008	-0.612148	-0.374825
H63	H	1.632960	-0.685174	-0.290051
H64	H	1.698439	-0.805440	-0.315569
H65	H	1.628316	-0.291408	-1.108592
N66	N	0.957858	-0.435171	-0.431338
H67	H	1.003155	-0.471804	-0.473756
H68	H	1.003070	-0.402914	-0.383030
N69	N	1.371398	-1.089957	-0.642333
H70	H	1.381571	-1.148514	-0.632214
H71	H	1.296767	-1.075576	-0.625998
N72	N	1.129855	-0.278340	-0.639242
H73	H	1.078832	-0.246326	-0.681707
H74	H	1.175131	-0.241748	-0.596741
H75	H	0.906268	-0.291698	-0.621589
H76	H	1.455930	-0.421732	-0.936727
N77	N	1.649357	-1.089932	-0.364727
H78	H	1.639233	-1.148490	-0.374861
H79	H	1.723980	-1.075463	-0.381048
