data_functionalizedCrystal
_audit_creation_method	'MofGen! by Chris Wilmer'
_symmetry_space_group_name_H-M	'P1'
_symmetry_Int_Tables_number	1
_symmetry_cell_setting	triclinic
loop_
_symmetry_equiv_pos_as_xyz
  x,y,z
_cell_length_a	16.109302
_cell_length_b	16.974813
_cell_length_c	15.186229
_cell_angle_alpha	86.341696
_cell_angle_beta	89.994701
_cell_angle_gamma	83.428323
loop_
_atom_site_label
_atom_site_type_symbol
_atom_site_fract_x
_atom_site_fract_y
_atom_site_fract_z
O1	O	1.103043	0.101636	-0.080509
O2	O	0.860970	0.114284	-0.081404
O3	O	0.988755	-0.007145	-0.072750
O4	O	0.975258	0.223065	-0.089163
O5	O	0.988747	-0.007147	0.073707
O6	O	0.860962	0.114282	0.065054
O7	O	1.103035	0.101635	0.065948
Zn8	Zn	0.981997	0.107958	0.088754
Zn9	Zn	0.982008	0.107961	-0.104210
O10	O	0.975250	0.223064	0.057294
C11	C	0.829992	0.113771	-0.008138
C12	C	0.737698	0.112235	-0.008025
C13	C	0.525355	0.108681	0.072053
C14	C	0.438636	0.107229	0.072154
C15	C	0.438656	0.107235	-0.087523
C16	C	0.525374	0.108682	-0.087622
C17	C	0.568721	0.109409	-0.007832
C18	C	0.395284	0.106510	-0.007632
C19	C	0.301260	0.104936	-0.007524
C20	C	0.662751	0.110981	-0.007939
C21	C	0.988237	-0.036604	0.002577
C22	C	0.986698	-0.124380	0.008830
C23	C	0.985981	-0.165612	-0.068066
C24	C	0.984529	-0.248087	-0.062188
C25	C	0.983799	-0.289329	0.020587
C26	C	0.984514	-0.248091	0.097488
C27	C	0.985960	-0.165617	0.091609
C28	C	0.979468	-0.535989	0.046729
C29	C	0.978024	-0.618469	0.052602
C30	C	0.978038	-0.618459	-0.107075
C31	C	0.979489	-0.535985	-0.112946
C32	C	0.980199	-0.494753	-0.036044
N33	N	0.982317	-0.373631	0.026597
N34	N	0.981674	-0.410451	-0.042055
C35	C	1.134013	0.102148	-0.007320
C36	C	1.226307	0.103684	-0.007438
C37	C	0.975767	0.252523	-0.018035
C38	C	0.977307	0.340299	-0.024293
N39	N	0.981995	0.107956	0.220447
N40	N	0.982016	0.107956	-0.235902
C41	C	1.038598	0.054206	0.450000
C42	C	1.038600	0.054204	0.542190
C43	C	0.925408	0.161709	0.534538
C44	C	0.925402	0.161707	0.442350
C45	C	0.982001	0.107956	0.400084
C46	C	0.982010	0.107957	0.584461
C47	C	0.982012	0.107955	0.684417
C48	C	0.981998	0.107956	0.300121
H49	H	0.403332	0.106637	0.137204
H50	H	0.403352	0.106644	-0.152485
N51	N	0.572104	0.109463	0.158111
H52	H	0.563806	0.060223	0.196521
H53	H	0.633602	0.110523	0.145857
H54	H	1.084685	0.010435	0.582830
H55	H	0.560684	0.109272	-0.152677
N56	N	0.977251	-0.662953	0.141886
H57	H	0.976240	-0.721457	0.133938
H58	H	1.029022	-0.654951	0.176166
N59	N	0.986716	-0.121157	-0.157363
H60	H	0.935787	-0.080534	-0.163797
H61	H	1.038848	-0.093392	-0.162908
H62	H	1.084683	0.010437	0.415589
N63	N	0.983875	-0.292575	-0.145124
H64	H	0.984602	-0.253939	-0.198452
H65	H	1.034830	-0.333176	-0.145616
N66	N	0.864369	0.219680	0.580133
H67	H	0.896101	0.254700	0.615875
H68	H	0.828525	0.253677	0.534470
N69	N	0.980278	-0.491504	-0.202224
H70	H	0.979603	-0.530140	-0.250047
H71	H	0.929364	-0.450862	-0.208598
N72	N	0.977271	-0.662929	-0.190014
H73	H	0.976244	-0.721434	-0.173734
H74	H	0.926010	-0.642089	-0.226361
N75	N	0.980244	-0.491525	0.129669
H76	H	0.979569	-0.530169	0.182996
H77	H	1.032360	-0.463730	0.131161
H78	H	0.983915	-0.281676	0.164885
H79	H	0.986532	-0.132045	0.154226
H80	H	0.879311	0.205477	0.401705
