data_functionalizedCrystal
_audit_creation_method	'MofGen! by Chris Wilmer'
_symmetry_space_group_name_H-M	'P1'
_symmetry_Int_Tables_number	1
_symmetry_cell_setting	triclinic
loop_
_symmetry_equiv_pos_as_xyz
  x,y,z
_cell_length_a	25.639242
_cell_length_b	13.897448
_cell_length_c	13.897441
_cell_angle_alpha	90.029627
_cell_angle_beta	89.971480
_cell_angle_gamma	89.986780
loop_
_atom_site_label
_atom_site_type_symbol
_atom_site_fract_x
_atom_site_fract_y
_atom_site_fract_z
Zn1	Zn	0.799334	0.384108	-0.545637
Zn2	Zn	1.132668	0.717442	-0.212303
Zn3	Zn	1.466001	1.050775	0.121030
Zn4	Zn	0.799280	0.545427	-0.384338
Zn5	Zn	1.132613	0.878761	-0.051005
Zn6	Zn	1.465947	1.212094	0.282329
Zn7	Zn	0.711901	0.384135	-0.384327
Zn8	Zn	1.045234	0.717469	-0.050994
Zn9	Zn	1.378567	1.050802	0.282340
Zn10	Zn	0.711888	0.545351	-0.545563
Zn11	Zn	1.045221	0.878684	-0.212229
Zn12	Zn	1.378554	1.212017	0.121104
O13	O	0.755601	0.464755	-0.464966
O14	O	1.088934	0.798089	-0.131633
O15	O	1.422267	1.131422	0.201701
O16	O	0.872492	0.405529	-0.524275
O17	O	1.205826	0.738862	-0.190942
O18	O	1.539159	1.072195	0.142391
O19	O	0.787672	0.524075	-0.249355
O20	O	1.121005	0.857408	0.083979
O21	O	1.454338	1.190742	0.417312
O22	O	0.723527	0.249150	-0.405751
O23	O	1.056861	0.582484	-0.072418
O24	O	1.390194	0.915817	0.260915
O25	O	0.872452	0.524049	-0.405770
O26	O	1.205786	0.857382	-0.072437
O27	O	1.539119	1.190716	0.260897
O28	O	0.787764	0.249130	-0.524265
O29	O	1.121097	0.582464	-0.190932
O30	O	1.454431	0.915797	0.142402
O31	O	0.723475	0.405575	-0.249347
O32	O	1.056808	0.738908	0.083987
O33	O	1.390141	1.072241	0.417320
O34	O	0.638734	0.405500	-0.405680
O35	O	0.972067	0.738833	-0.072346
O36	O	1.305401	1.072167	0.260987
O37	O	0.723505	0.523918	-0.680554
O38	O	1.056838	0.857251	-0.347221
O39	O	1.390171	1.190585	-0.013887
O40	O	0.638724	0.523944	-0.524139
O41	O	0.972058	0.857277	-0.190805
O42	O	1.305391	1.190611	0.142528
O43	O	0.787751	0.405454	-0.680608
O44	O	1.121085	0.738787	-0.347275
O45	O	1.454418	1.072121	-0.013942
O46	O	0.787659	0.680399	-0.405698
O47	O	1.120992	1.013732	-0.072365
O48	O	1.454326	1.347065	0.260968
O49	O	0.723452	0.680342	-0.524149
O50	O	1.056786	1.013676	-0.190816
O51	O	1.390119	1.347009	0.142517
C52	C	0.755562	0.715370	-0.464938
C53	C	1.088896	1.048703	-0.131605
C54	C	1.422229	1.382036	0.201729
C55	C	0.755594	0.822584	-0.464958
C56	C	1.088927	1.155917	-0.131625
C57	C	1.422261	1.489250	0.201708
C58	C	0.619758	0.464717	-0.464901
C59	C	0.953091	0.798051	-0.131567
C60	C	1.286425	1.131384	0.201766
C61	C	0.561644	0.464724	-0.464896
C62	C	0.894977	0.798058	-0.131562
C63	C	1.228311	1.131391	0.201771
C64	C	0.755633	0.464674	-0.716559
C65	C	1.088966	0.798008	-0.383226
C66	C	1.422299	1.131341	-0.049892
C67	C	0.755646	0.464640	-0.823773
C68	C	1.088980	0.797973	-0.490440
C69	C	1.422313	1.131307	-0.157106
C70	C	0.201285	0.526532	-0.526589
C71	C	0.534618	0.859866	-0.193256
C72	C	0.867952	1.193199	0.140077
C73	C	0.146681	0.526538	-0.526604
C74	C	0.480014	0.859872	-0.193271
C75	C	0.813347	1.193205	0.140062
O76	O	0.118447	0.579042	-0.579003
O77	O	0.451780	0.912376	-0.245670
O78	O	0.785114	1.245709	0.087663
N79	N	0.119362	0.464782	-0.465029
N80	N	0.452695	0.798115	-0.131696
N81	N	0.786028	1.131449	0.201638
C82	C	0.146650	0.403009	-0.403441
C83	C	0.479983	0.736342	-0.070108
C84	C	0.813316	1.069676	0.263226
O85	O	0.118399	0.350480	-0.351068
O86	O	0.451732	0.683814	-0.017735
O87	O	0.785066	1.017147	0.315598
C88	C	0.201253	0.402999	-0.403431
C89	C	0.534586	0.736332	-0.070098
C90	C	0.867920	1.069665	0.263235
C91	C	0.228569	0.464766	-0.465004
C92	C	0.561903	0.798099	-0.131671
C93	C	0.895236	1.131433	0.201663
C94	C	0.228601	0.588294	-0.588158
C95	C	0.561934	0.921627	-0.254824
C96	C	0.895268	1.254960	0.078509
C97	C	0.283202	0.588289	-0.588141
C98	C	0.616535	0.921622	-0.254807
C99	C	0.949868	1.254956	0.078526
C100	C	0.310486	0.526523	-0.526556
C101	C	0.643819	0.859856	-0.193222
C102	C	0.977153	1.193189	0.140111
C103	C	0.283170	0.464761	-0.464987
C104	C	0.616503	0.798094	-0.131654
C105	C	0.949836	1.131428	0.201679
C106	C	0.228540	0.341222	-0.341849
C107	C	0.561874	0.674555	-0.008516
C108	C	0.895207	1.007888	0.324817
C109	C	0.283147	0.341216	-0.341845
C110	C	0.616481	0.674550	-0.008512
C111	C	0.949814	1.007883	0.324821
C112	C	0.310463	0.402984	-0.403418
C113	C	0.643797	0.736317	-0.070085
C114	C	0.977130	1.069650	0.263249
C115	C	0.365055	0.402990	-0.403385
C116	C	0.698388	0.736323	-0.070052
C117	C	1.031721	1.069657	0.263281
N118	N	0.392374	0.464746	-0.464961
N119	N	0.725707	0.798080	-0.131628
N120	N	1.059040	1.131413	0.201706
C121	C	0.365089	0.526513	-0.526546
C122	C	0.698423	0.859846	-0.193213
C123	C	1.031756	1.193179	0.140121
C124	C	0.031979	0.403033	-0.403467
C125	C	0.365312	0.736367	-0.070134
C126	C	0.698646	1.069700	0.263199
C127	C	-0.022623	0.403048	-0.403471
C128	C	0.310710	0.736381	-0.070138
C129	C	0.644043	1.069714	0.263195
C130	C	-0.022589	0.526576	-0.526636
C131	C	0.310745	0.859909	-0.193303
C132	C	0.644078	1.193243	0.140031
C133	C	0.032015	0.526566	-0.526626
C134	C	0.365348	0.859899	-0.193293
C135	C	0.698681	1.193233	0.140040
C136	C	0.059298	0.464790	-0.465043
C137	C	0.392631	0.798123	-0.131709
C138	C	0.725965	1.131456	0.201624
C139	C	0.479754	0.526498	-0.526506
C140	C	0.813088	0.859832	-0.193172
C141	C	1.146421	1.193165	0.140161
C142	C	0.534360	0.526491	-0.526481
C143	C	0.867693	0.859824	-0.193147
C144	C	1.201026	1.193157	0.140186
C145	C	0.534320	0.402959	-0.403320
C146	C	0.867654	0.736293	-0.069986
C147	C	1.200987	1.069626	0.263347
C148	C	0.479720	0.402970	-0.403341
C149	C	0.813053	0.736303	-0.070007
C150	C	1.146386	1.069637	0.263326
C151	C	0.452438	0.464743	-0.464942
C152	C	0.785771	0.798076	-0.131608
C153	C	1.119105	1.131409	0.201725
O154	O	0.393323	0.350510	-0.351016
O155	O	0.726656	0.683843	-0.017683
O156	O	1.059989	1.017177	0.315650
O157	O	0.393347	0.579023	-0.578919
O158	O	0.726680	0.912357	-0.245586
O159	O	1.060013	1.245690	0.087748
C160	C	0.891974	0.464794	-0.465032
C161	C	1.225307	0.798128	-0.131699
C162	C	1.558640	1.131461	0.201634
C163	C	0.950088	0.464811	-0.465060
C164	C	1.283421	0.798144	-0.131727
C165	C	1.616754	1.131477	0.201606
C166	C	0.755653	0.213162	-0.465015
C167	C	1.088987	0.546496	-0.131682
C168	C	1.422320	0.879829	0.201652
C169	C	0.755676	0.105948	-0.465036
C170	C	1.089009	0.439282	-0.131703
C171	C	1.422342	0.772615	0.201631
C172	C	0.755649	1.018879	-0.465019
C173	C	1.088982	1.352212	-0.131686
C174	C	1.422316	1.685545	0.201648
C175	C	0.755617	0.909646	-0.464988
C176	C	1.088950	1.242980	-0.131655
C177	C	1.422284	1.576313	0.201678
C178	C	0.755657	0.464613	-0.910843
C179	C	1.088990	0.797946	-0.577510
C180	C	1.422324	1.131279	-0.244176
C181	C	0.755672	0.464569	-1.020076
C182	C	1.089005	0.797903	-0.686742
C183	C	1.422339	1.131236	-0.353409
C184	C	0.755599	0.464766	-0.214352
C185	C	1.088932	0.798100	0.118982
C186	C	1.422266	1.131433	0.452315
C187	C	0.755687	0.464529	-0.107138
C188	C	1.089020	0.797863	0.226195
C189	C	1.422353	1.131196	0.559528
H190	H	0.556598	0.576793	-0.576621
H191	H	0.889931	0.910126	-0.243288
H192	H	1.223265	1.243459	0.090045
C193	C	-0.052665	0.335105	-0.335731
C194	C	0.280669	0.668438	-0.002397
C195	C	0.614002	1.001771	0.330936
N196	N	-0.075290	0.283922	-0.284711
N197	N	0.258043	0.617255	0.048622
N198	N	0.591376	0.950589	0.381955
H199	H	0.457478	0.352676	-0.353201
H200	H	0.790811	0.686009	-0.019868
H201	H	1.124145	1.019343	0.313465
H202	H	0.457548	0.576797	-0.576669
H203	H	0.790881	0.910131	-0.243336
H204	H	1.124215	1.243464	0.089998
C205	C	0.313242	0.656234	-0.655881
C206	C	0.646576	0.989567	-0.322548
C207	C	0.979909	1.322900	0.010786
N208	N	0.335865	0.707411	-0.706909
N209	N	0.669199	1.040745	-0.373575
N210	N	1.002532	1.374078	-0.040242
C211	C	0.198597	0.656258	-0.655902
C212	C	0.531930	0.989592	-0.322568
C213	C	0.865263	1.322925	0.010765
N214	N	0.176001	0.707462	-0.706922
N215	N	0.509335	1.040795	-0.373589
N216	N	0.842668	1.374129	-0.040256
C217	C	0.062057	0.594508	-0.594366
C218	C	0.395391	0.927842	-0.261033
C219	C	0.728724	1.261175	0.072301
N220	N	0.084683	0.645684	-0.645393
N221	N	0.418016	0.979017	-0.312059
N222	N	0.751349	1.312350	0.021274
H223	H	0.206309	0.290927	-0.291708
H224	H	0.539642	0.624260	0.041626
H225	H	0.872975	0.957593	0.374959
C226	C	0.313156	0.273259	-0.274094
C227	C	0.646489	0.606592	0.059240
C228	C	0.979822	0.939925	0.392573
N229	N	0.335757	0.222076	-0.223060
N230	N	0.669090	0.555409	0.110273
N231	N	1.002424	0.888742	0.443607
C232	C	-0.052612	0.594514	-0.594389
C233	C	0.280721	0.927847	-0.261055
C234	C	0.614055	1.261180	0.072278
N235	N	-0.075227	0.645680	-0.645417
N236	N	0.258106	0.979013	-0.312084
N237	N	0.591440	1.312347	0.021249
H238	H	0.556545	0.352674	-0.353176
H239	H	0.889878	0.686007	-0.019842
H240	H	1.223212	1.019340	0.313491
H241	H	0.054190	0.352729	-0.353311
H242	H	0.387523	0.686062	-0.019978
H243	H	0.720857	1.019395	0.313355
