data_functionalizedCrystal
_audit_creation_method	'MofGen! by Chris Wilmer'
_symmetry_space_group_name_H-M	'P1'
_symmetry_Int_Tables_number	1
_symmetry_cell_setting	triclinic
loop_
_symmetry_equiv_pos_as_xyz
  x,y,z
_cell_length_a	6.817900
_cell_length_b	15.301126
_cell_length_c	16.255661
_cell_angle_alpha	95.151573
_cell_angle_beta	103.488922
_cell_angle_gamma	104.177575
loop_
_atom_site_label
_atom_site_type_symbol
_atom_site_fract_x
_atom_site_fract_y
_atom_site_fract_z
V1	V	-4.030171	-0.125488	-0.264130
O2	O	-4.014045	0.005281	-0.258837
O3	O	-3.985102	-0.248101	-0.262578
O4	O	-3.981689	-0.123887	-0.379210
O5	O	-4.017482	-0.119793	-0.141398
V6	V	-4.513378	-0.109808	-0.249419
O7	O	-4.292123	-0.159884	-0.296399
O8	O	-4.701623	-0.075412	-0.217150
O9	O	-4.335240	0.012805	-0.250971
O10	O	-4.646901	-0.240576	-0.254712
O11	O	-4.643463	-0.115502	-0.372151
O12	O	-4.338653	-0.111409	-0.134339
C13	C	-3.830916	-0.277981	-0.258477
C14	C	-3.875354	-0.378220	-0.257975
C15	C	-4.078465	-0.429917	-0.261970
C16	C	-4.120209	-0.524103	-0.261504
C17	C	-3.958837	-0.566590	-0.257036
C18	C	-3.755710	-0.514886	-0.253043
C19	C	-3.713972	-0.420703	-0.253516
C20	C	-3.842718	-0.711194	-0.252056
C21	C	-3.884458	-0.805384	-0.251582
C22	C	-4.248956	-0.814595	-0.260044
C23	C	-4.207217	-0.720412	-0.260517
C24	C	-4.004092	-0.668714	-0.256522
C25	C	-3.826561	-0.119532	-0.407251
C26	C	-3.868227	-0.119034	-0.501331
C27	C	-3.778619	-0.113085	-0.724138
C28	C	-3.937152	-0.189861	-0.793772
C29	C	-3.944586	-0.118100	-0.673578
C30	C	-3.860320	-0.040446	-0.771579
C31	C	-4.018329	-0.117194	-0.839960
C32	C	-4.102602	-0.194945	-0.741983
C33	C	-4.025706	-0.045461	-0.719774
C34	C	-4.184375	-0.122259	-0.789389
C35	C	-3.902099	-0.118623	-0.577730
C36	C	-4.060833	-0.116679	-0.935807
C37	C	-4.152768	0.042680	-0.255070
C38	C	-4.087569	0.142919	-0.255577
C39	C	-4.157124	-0.115766	-0.106293
C40	C	-4.094696	-0.116260	-0.012212
H41	H	-4.338622	-0.685821	-0.264150
N42	N	-3.494898	-0.364946	-0.249211
H43	H	-3.394877	-0.370416	-0.194555
H44	H	-3.493128	-0.298861	-0.250228
H45	H	-3.606761	-0.109307	-0.695650
N46	N	-3.888177	-0.270732	-0.836443
H47	H	-3.735294	-0.267229	-0.812583
H48	H	-3.918333	-0.270076	-0.900201
H49	H	-4.204620	-0.260310	-0.728651
N50	N	-4.468069	-0.870356	-0.264403
H51	H	-4.470042	-0.936471	-0.263447
H52	H	-4.567878	-0.864784	-0.319073
N53	N	-4.412172	-0.127413	-0.826949
H54	H	-4.503729	-0.185761	-0.816437
H55	H	-4.438821	-0.126466	-0.890598
H56	H	-4.062617	0.015591	-0.687540
N57	N	-3.725177	0.046050	-0.789382
H58	H	-3.817627	0.081303	-0.821183
H59	H	-3.632898	0.030031	-0.825386
N60	N	-4.252522	-0.384096	-0.266797
H61	H	-4.215740	-0.336321	-0.214458
H62	H	-4.387456	-0.431200	-0.269290
N63	N	-4.339280	-0.579864	-0.265816
H64	H	-4.435172	-0.538657	-0.268713
H65	H	-4.336933	-0.610242	-0.213079
N66	N	-3.710416	-0.851216	-0.246745
H67	H	-3.747211	-0.899004	-0.299075
H68	H	-3.692128	-0.881117	-0.193595
N69	N	-3.623639	-0.655433	-0.247754
H70	H	-3.527739	-0.696637	-0.244849
H71	H	-3.570783	-0.607251	-0.195039
H72	H	-3.624323	-0.549487	-0.249411
