data_functionalizedCrystal
_audit_creation_method	'MofGen! by Chris Wilmer'
_symmetry_space_group_name_H-M	'P1'
_symmetry_Int_Tables_number	1
_symmetry_cell_setting	triclinic
loop_
_symmetry_equiv_pos_as_xyz
  x,y,z
_cell_length_a	14.853567
_cell_length_b	14.853567
_cell_length_c	7.540329
_cell_angle_alpha	89.999797
_cell_angle_beta	90.000012
_cell_angle_gamma	96.365070
loop_
_atom_site_label
_atom_site_type_symbol
_atom_site_fract_x
_atom_site_fract_y
_atom_site_fract_z
O1	O	1.196363	-0.117703	-0.147345
O2	O	1.529696	0.215630	0.185989
O3	O	1.863030	0.548964	0.519322
O4	O	0.933903	-0.131724	-0.147373
O5	O	1.267237	0.201609	0.185960
O6	O	1.600570	0.534942	0.519293
O7	O	1.072144	0.006516	-0.147364
O8	O	1.405477	0.339850	0.185970
O9	O	1.738810	0.673183	0.519303
O10	O	1.058122	-0.255943	-0.147354
O11	O	1.391456	0.077390	0.185979
O12	O	1.724789	0.410723	0.519312
O13	O	1.072136	0.006518	0.147601
O14	O	1.405469	0.339851	0.480935
O15	O	1.738802	0.673185	0.814268
O16	O	0.933895	-0.131723	0.147592
O17	O	1.267228	0.201611	0.480925
O18	O	1.600562	0.534944	0.814258
O19	O	1.196355	-0.117701	0.147620
O20	O	1.529688	0.215632	0.480954
O21	O	1.863021	0.548965	0.814287
Cu22	Cu	1.065124	-0.124712	0.174539
Cu23	Cu	1.398457	0.208622	0.507872
Cu24	Cu	1.731791	0.541955	0.841205
Cu25	Cu	1.065134	-0.124714	-0.174292
Cu26	Cu	1.398467	0.208620	0.159042
Cu27	Cu	1.731801	0.541953	0.492375
O28	O	1.058114	-0.255942	0.147611
O29	O	1.391448	0.077392	0.480944
O30	O	1.724781	0.410725	0.814277
C31	C	0.900311	-0.131088	0.000105
C32	C	1.233644	0.202245	0.333439
C33	C	1.566977	0.535579	0.666772
C34	C	0.800227	-0.129184	0.000094
C35	C	1.133560	0.204149	0.333427
C36	C	1.466894	0.537482	0.666760
C37	C	0.387693	-0.039019	0.000130
C38	C	0.721026	0.294315	0.333463
C39	C	1.054360	0.627648	0.666797
C40	C	0.366412	-0.203251	0.000134
C41	C	0.699745	0.130082	0.333468
C42	C	1.033079	0.463415	0.666801
C43	C	0.460446	-0.205042	0.000129
C44	C	0.793779	0.128292	0.333462
C45	C	1.127112	0.461625	0.666795
C46	C	0.518108	-0.123819	0.000121
C47	C	0.851441	0.209514	0.333454
C48	C	1.184774	0.542848	0.666788
C49	C	0.481736	-0.040806	0.000119
C50	C	0.815069	0.292527	0.333453
C51	C	1.148402	0.625860	0.666786
C52	C	0.496825	-0.288053	0.000112
C53	C	0.830158	0.045281	0.333446
C54	C	1.163492	0.378614	0.666779
C55	C	0.590864	-0.289846	0.000105
C56	C	0.924197	0.043487	0.333438
C57	C	1.257531	0.376820	0.666772
C58	C	0.648528	-0.208623	0.000110
C59	C	0.981861	0.124711	0.333443
C60	C	1.315194	0.458044	0.666777
C61	C	0.612150	-0.125607	0.000110
C62	C	0.945484	0.207727	0.333444
C63	C	1.278817	0.541060	0.666777
C64	C	0.669812	-0.044384	0.000103
C65	C	1.003146	0.288949	0.333436
C66	C	1.336479	0.622283	0.666769
C67	C	0.633437	0.038633	0.000116
C68	C	0.966770	0.371966	0.333449
C69	C	1.300104	0.705300	0.666782
C70	C	0.539399	0.040417	0.000124
C71	C	0.872733	0.373751	0.333458
C72	C	1.206066	0.707084	0.666791
C73	C	0.742565	-0.210407	0.000101
C74	C	1.075898	0.122926	0.333434
C75	C	1.409232	0.456260	0.666768
C76	C	0.763855	-0.046172	0.000092
C77	C	1.097188	0.287162	0.333425
C78	C	1.430522	0.620495	0.666758
C79	C	1.071504	0.040106	0.000114
C80	C	1.404838	0.373439	0.333447
C81	C	1.738171	0.706772	0.666780
C82	C	1.069601	0.140189	0.000098
C83	C	1.402934	0.473523	0.333431
C84	C	1.736267	0.806856	0.666765
C85	C	1.229947	-0.118337	0.000138
C86	C	1.563281	0.214996	0.333471
C87	C	1.896614	0.548329	0.666804
C88	C	1.330031	-0.120241	0.000138
C89	C	1.663365	0.213092	0.333471
C90	C	1.996698	0.546425	0.666804
C91	C	1.058754	-0.289531	0.000129
C92	C	1.392087	0.043802	0.333463
C93	C	1.725420	0.377135	0.666796
C94	C	1.060657	-0.389615	0.000133
C95	C	1.393991	-0.056282	0.333467
C96	C	1.727324	0.277052	0.666800
N97	N	1.065124	-0.124710	0.419887
N98	N	1.398457	0.208624	0.753220
N99	N	1.731791	0.541957	1.086554
C100	C	0.979435	0.552723	0.000122
C101	C	1.312768	0.886057	0.333455
C102	C	1.646102	1.219390	0.666789
C103	C	1.143668	0.574004	0.000140
C104	C	1.477001	0.907338	0.333473
C105	C	1.810334	1.240671	0.666806
C106	C	1.145458	0.479971	0.000129
C107	C	1.478791	0.813304	0.333463
C108	C	1.812124	1.146637	0.666796
C109	C	1.064235	0.422309	0.000118
C110	C	1.397569	0.755642	0.333451
C111	C	1.730902	1.088975	0.666785
C112	C	0.981223	0.458680	0.000117
C113	C	1.314556	0.792014	0.333450
C114	C	1.647889	1.125347	0.666784
C115	C	1.228469	0.443591	0.000149
C116	C	1.561802	0.776925	0.333482
C117	C	1.895136	1.110258	0.666815
C118	C	1.230262	0.349552	0.000140
C119	C	1.563596	0.682886	0.333474
C120	C	1.896929	1.016219	0.666807
C121	C	1.149039	0.291889	0.000116
C122	C	1.482372	0.625222	0.333450
C123	C	1.815706	0.958555	0.666783
C124	C	1.066023	0.328266	0.000113
C125	C	1.399356	0.661599	0.333447
C126	C	1.732690	0.994933	0.666780
C127	C	0.984800	0.270604	0.000102
C128	C	1.318134	0.603937	0.333435
C129	C	1.651467	0.937271	0.666769
C130	C	0.901783	0.306979	0.000086
C131	C	1.235117	0.640313	0.333419
C132	C	1.568450	0.973646	0.666753
C133	C	0.899999	0.401017	0.000093
C134	C	1.233332	0.734350	0.333426
C135	C	1.566666	1.067683	0.666760
C136	C	1.150823	0.197851	0.000109
C137	C	1.484157	0.531185	0.333443
C138	C	1.817490	0.864518	0.666776
C139	C	0.986588	0.176561	0.000097
C140	C	1.319921	0.509895	0.333430
C141	C	1.653255	0.843228	0.666764
N142	N	1.065141	-0.124709	-0.419640
N143	N	1.398475	0.208625	-0.086307
N144	N	1.731808	0.541958	0.247026
H145	H	0.449870	-0.354180	0.000100
H146	H	0.783204	-0.020846	0.333434
H147	H	1.116537	0.312487	0.666767
Cl148	Cl	0.636585	-0.394208	0.000095
Cl149	Cl	0.969918	-0.060875	0.333428
Cl150	Cl	1.303251	0.272459	0.666761
Cl151	Cl	0.788291	-0.314762	0.000072
Cl152	Cl	1.121624	0.018571	0.333405
Cl153	Cl	1.454958	0.351905	0.666738
H154	H	1.297860	0.319944	0.000151
H155	H	1.631193	0.653277	0.333484
H156	H	1.964526	0.986611	0.666817
Cl157	Cl	0.799679	0.234480	0.000087
Cl158	Cl	1.133013	0.567813	0.333420
Cl159	Cl	1.466346	0.901146	0.666754
Cl160	Cl	0.795645	0.446752	0.000068
Cl161	Cl	1.128978	0.780085	0.333402
Cl162	Cl	1.462312	1.113419	0.666735
H163	H	0.911844	0.582344	0.000102
H164	H	1.245178	0.915678	0.333435
H165	H	1.578511	1.249011	0.666769
H166	H	1.209795	0.620958	0.000163
H167	H	1.543129	0.954291	0.333496
H168	H	1.876462	1.287624	0.666830
Cl169	Cl	1.330570	0.516083	0.000201
Cl170	Cl	1.663903	0.849416	0.333534
Cl171	Cl	1.997237	1.182750	0.666868
H172	H	0.810798	0.019971	0.000093
H173	H	1.144131	0.353304	0.333426
H174	H	1.477465	0.686638	0.666759
Cl175	Cl	1.255178	0.152125	0.000162
Cl176	Cl	1.588512	0.485459	0.333495
Cl177	Cl	1.921845	0.818792	0.666829
H178	H	0.920445	0.129618	0.000080
H179	H	1.253779	0.462951	0.333413
H180	H	1.587112	0.796285	0.666747
H181	H	0.680397	0.104764	0.000097
H182	H	1.013731	0.438098	0.333431
H183	H	1.347064	0.771431	0.666764
H184	H	0.509774	0.108005	0.000177
H185	H	0.843107	0.441339	0.333510
H186	H	1.176440	0.774672	0.666844
Cl187	Cl	0.293923	-0.305354	0.000119
Cl188	Cl	0.627256	0.027979	0.333453
Cl189	Cl	0.960590	0.361313	0.666786
Cl190	Cl	0.341967	0.065340	0.000155
Cl191	Cl	0.675300	0.398674	0.333488
Cl192	Cl	1.008633	0.732007	0.666821
