data_functionalizedCrystal
_audit_creation_method	'MofGen! by Chris Wilmer'
_symmetry_space_group_name_H-M	'P1'
_symmetry_Int_Tables_number	1
_symmetry_cell_setting	triclinic
loop_
_symmetry_equiv_pos_as_xyz
  x,y,z
_cell_length_a	13.032831
_cell_length_b	14.908178
_cell_length_c	13.032268
_cell_angle_alpha	86.549870
_cell_angle_beta	89.113023
_cell_angle_gamma	85.691885
loop_
_atom_site_label
_atom_site_type_symbol
_atom_site_fract_x
_atom_site_fract_y
_atom_site_fract_z
Zn1	Zn	1.463993	-0.600635	0.736261
Zn2	Zn	1.478127	-0.733146	0.554448
Zn3	Zn	1.315984	-0.563482	0.545260
Zn4	Zn	1.284651	-0.728337	0.704930
O5	O	1.385689	-0.656400	0.635225
O6	O	1.608780	-0.635774	0.729101
O7	O	1.475646	-0.697103	0.410317
O8	O	1.342816	-0.443962	0.579863
O9	O	1.619164	-0.733129	0.595523
O10	O	1.451557	-0.471258	0.720192
O11	O	1.356521	-0.572452	0.403566
O12	O	1.168916	-0.567789	0.549482
O13	O	1.289413	-0.724934	0.851998
O14	O	1.145895	-0.688907	0.666791
O15	O	1.421174	-0.631112	0.875017
O16	O	1.445264	-0.856957	0.565142
O17	O	1.303118	-0.853424	0.675701
C18	C	1.120350	-0.623795	0.603741
C19	C	1.006832	-0.609871	0.590294
C20	C	0.944867	-0.663668	0.642242
C21	C	0.827540	-0.649277	0.628346
C22	C	1.372349	-0.887464	0.618044
C23	C	1.366731	-0.986328	0.610740
C24	C	1.469289	-1.200381	0.743266
C25	C	1.464014	-1.293274	0.736406
C26	C	1.350900	-1.265009	0.590167
C27	C	1.356175	-1.172116	0.597026
C28	C	1.415373	-1.139806	0.673577
C29	C	1.420654	-1.046911	0.680431
C30	C	1.307535	-1.018648	0.534197
C31	C	1.302259	-1.111541	0.527338
C32	C	1.652064	-0.689133	0.666832
C33	C	1.765577	-0.703081	0.680301
C34	C	1.350222	-0.681631	0.901599
C35	C	1.335108	-0.692382	1.015112
C36	C	1.399105	-0.424440	0.652498
C37	C	1.404822	-0.325592	0.659858
C38	C	1.421080	-0.631211	0.369898
C39	C	1.436406	-0.620233	0.256427
C40	C	1.393563	-0.650755	1.077110
C41	C	1.377943	-0.661866	1.194432
H42	H	0.799380	-0.759792	0.735074
C43	C	0.961568	-0.534337	0.517268
C44	C	0.854199	-0.535106	0.517968
C45	C	0.812472	-0.465549	0.450692
H46	H	0.980324	-0.478088	0.538726
H47	H	0.987330	-0.542892	0.449687
H48	H	0.828446	-0.526544	0.585535
H49	H	0.835414	-0.591339	0.496501
H50	H	0.838234	-0.474104	0.383111
H51	H	0.831235	-0.409305	0.472156
H52	H	0.739619	-0.466066	0.451151
C53	C	1.484931	-1.012003	0.763650
C54	C	1.530993	-1.084939	0.823232
C55	C	1.590198	-1.052820	0.899916
H56	H	1.536797	-0.977536	0.732717
H57	H	1.441971	-0.975217	0.806201
H58	H	1.573950	-1.121711	0.780688
H59	H	1.479150	-1.119414	0.854189
H60	H	1.547237	-1.016033	0.942466
H61	H	1.642058	-1.018353	0.868974
H62	H	1.621450	-1.102301	0.940357
C63	C	1.295632	-0.720226	1.239392
C64	C	1.199122	-0.686002	1.202990
C65	C	1.123274	-0.739731	1.244398
H66	H	1.309284	-0.780196	1.219310
H67	H	1.295984	-0.719904	1.312263
H68	H	1.198772	-0.686334	1.130135
H69	H	1.185437	-0.626039	1.223070
H70	H	1.123627	-0.739409	1.317269
H71	H	1.136937	-0.799699	1.224314
H72	H	1.057783	-0.716514	1.219714
C73	C	1.248844	-0.952834	0.458686
C74	C	1.178652	-0.896970	0.512608
C75	C	1.124565	-0.836341	0.443080
H76	H	1.295818	-0.917088	0.421509
H77	H	1.212775	-0.985353	0.412129
H78	H	1.214719	-0.864454	0.559146
H79	H	1.131657	-0.932692	0.549781
H80	H	1.088496	-0.868860	0.396523
H81	H	1.171546	-0.800601	0.405906
H82	H	1.076927	-0.798436	0.479654
H83	H	1.517499	-1.174074	0.805590
H84	H	1.302699	-1.291333	0.527847
C85	C	1.522664	-1.358899	0.812135
C86	C	1.575650	-1.310716	0.880626
C87	C	1.629698	-1.371140	0.950399
H88	H	1.475677	-1.394583	0.849383
H89	H	1.570391	-1.396881	0.775753
H90	H	1.527928	-1.272749	0.917005
H91	H	1.622654	-1.275035	0.843408
H92	H	1.677425	-1.409122	0.914017
H93	H	1.582704	-1.406820	0.987639
H94	H	1.665662	-1.338457	0.996872
H95	H	1.254059	-1.137861	0.465014
H96	H	1.455168	-0.606886	1.043331
H97	H	1.273493	-0.736241	1.048891
C98	C	0.990070	-0.739166	0.715350
C99	C	1.045522	-0.702568	0.791827
C100	C	1.087186	-0.772091	0.859184
H101	H	0.936084	-0.771097	0.746250
H102	H	1.034721	-0.779217	0.678261
H103	H	1.000874	-0.662532	0.828911
H104	H	1.099523	-0.670643	0.760957
H105	H	1.131837	-0.812142	0.822096
H106	H	1.033194	-0.804018	0.890076
H107	H	1.124823	-0.747270	0.911076
C108	C	1.518407	-0.561635	1.211271
C109	C	1.471961	-0.491782	1.147399
C110	C	1.547461	-0.437785	1.105778
H111	H	1.553087	-0.536868	1.265282
H112	H	1.566442	-0.597161	1.172334
H113	H	1.423943	-0.456262	1.186334
H114	H	1.437286	-0.516524	1.093371
H115	H	1.595497	-0.473311	1.066841
H116	H	1.582137	-0.413024	1.159795
H117	H	1.515959	-0.390389	1.062428
H118	H	0.793735	-0.592559	0.573584
