data_functionalizedCrystal
_audit_creation_method	'MofGen! by Chris Wilmer'
_symmetry_space_group_name_H-M	'P1'
_symmetry_Int_Tables_number	1
_symmetry_cell_setting	triclinic
loop_
_symmetry_equiv_pos_as_xyz
  x,y,z
_cell_length_a	10.654553
_cell_length_b	9.130313
_cell_length_c	10.654550
_cell_angle_alpha	89.999890
_cell_angle_beta	95.514460
_cell_angle_gamma	90.000718
loop_
_atom_site_label
_atom_site_type_symbol
_atom_site_fract_x
_atom_site_fract_y
_atom_site_fract_z
O1	O	1.667832	0.121812	-0.176412
O2	O	1.302354	0.121811	-0.193214
O3	O	1.493496	0.121806	-0.002074
O4	O	1.476690	0.121817	-0.367552
O5	O	1.493493	-0.121793	-0.002079
O6	O	1.302351	-0.121788	-0.193219
O7	O	1.667829	-0.121787	-0.176417
Cu8	Cu	1.485090	-0.144030	-0.184818
Cu9	Cu	1.485093	0.144054	-0.184812
O10	O	1.476687	-0.121782	-0.367557
C11	C	1.255555	0.000011	-0.191982
C12	C	1.116112	0.000011	-0.188288
C13	C	0.919570	-0.132765	-0.183077
C14	C	1.050591	-0.132773	-0.186555
C15	C	1.050603	0.132812	-0.186557
C16	C	0.919584	0.132818	-0.183088
C17	C	0.919565	-0.286098	-0.183071
C18	C	1.050585	-0.286107	-0.186549
N19	N	1.485097	-0.346653	-0.184822
C20	C	1.569757	-0.423307	-0.100214
C21	C	1.569754	-0.576644	-0.100199
C22	C	1.400427	-0.576659	-0.269411
C23	C	1.400425	-0.423325	-0.269419
C24	C	1.667520	-0.423299	-0.002525
C25	C	1.667517	-0.576636	-0.002509
C26	C	1.714628	0.000016	-0.177649
C27	C	1.854072	0.000026	-0.181342
C28	C	1.492261	0.000008	0.044722
C29	C	1.488569	0.000013	0.184165
N30	N	1.485096	0.346676	-0.184799
C31	C	1.477922	0.000019	-0.414352
C32	C	1.481614	0.000023	-0.553796
C33	C	1.601110	0.000009	0.263650
C34	C	1.597634	0.000019	0.394670
C35	C	1.369064	0.000032	0.366710
C36	C	1.372542	0.000032	0.235691
C37	C	1.733073	-0.000004	0.279794
C38	C	1.729596	0.000006	0.410815
H39	H	1.103959	0.240927	-0.187980
H40	H	1.779317	-0.101938	0.452572
Br41	Br	0.870248	-0.365635	-0.030503
H42	H	1.331478	-0.360914	-0.338302
H43	H	1.080150	-0.333684	-0.278151
H44	H	0.866258	0.240949	-0.181691
Br45	Br	1.285517	-0.680721	-0.384212
H46	H	1.096869	-0.344975	-0.099753
Br47	Br	1.796062	0.175306	0.486906
H48	H	1.646077	-0.381682	0.094008
Br49	Br	1.803081	-0.175323	0.220392
H50	H	1.784689	0.101935	0.250437
H51	H	0.873280	-0.344971	-0.269862
H52	H	1.758704	-0.375740	-0.033114
Br53	Br	1.828373	-0.646013	-0.038360
Br54	Br	1.616645	-0.655905	0.149521
H55	H	1.274599	0.000048	0.408679
Br56	Br	1.219802	0.000083	0.127821
