data_functionalizedCrystal
_audit_creation_method	'MofGen! by Chris Wilmer'
_symmetry_space_group_name_H-M	'P1'
_symmetry_Int_Tables_number	1
_symmetry_cell_setting	triclinic
loop_
_symmetry_equiv_pos_as_xyz
  x,y,z
_cell_length_a	27.440280
_cell_length_b	19.851628
_cell_length_c	19.851628
_cell_angle_alpha	90.005228
_cell_angle_beta	60.003277
_cell_angle_gamma	60.004397
loop_
_atom_site_label
_atom_site_type_symbol
_atom_site_fract_x
_atom_site_fract_y
_atom_site_fract_z
Zr1	Zr	0.533327	0.649075	-0.088308
O2	O	0.634989	0.541529	-0.195873
O3	O	0.431665	0.682031	-0.055334
O4	O	0.533315	0.682053	-0.195858
O5	O	0.533348	0.541504	0.055499
O6	O	0.533306	0.792915	-0.195845
O7	O	0.533339	0.541507	-0.055350
O8	O	0.351473	0.792875	0.055526
O9	O	0.715181	0.541544	-0.195872
O10	O	0.473473	0.778836	-0.041260
O11	O	0.473487	0.696099	0.041455
O12	O	0.593167	0.696125	-0.123994
O13	O	0.593181	0.613388	-0.041278
Zr14	Zr	0.533327	0.825881	0.088505
Zr15	Zr	0.533312	0.825887	-0.088286
Zr16	Zr	0.533342	0.649069	0.088483
Zr17	Zr	0.661225	0.649098	-0.088306
Zr18	Zr	0.405429	0.825858	0.088502
O19	O	0.634989	0.792925	0.055531
O20	O	0.634967	0.792933	-0.195843
O21	O	0.635010	0.541522	0.055501
O22	O	0.431665	0.933427	0.196070
O23	O	0.431644	0.933434	-0.055304
O24	O	0.431687	0.682023	0.196040
O25	O	0.533306	0.933452	-0.055302
O26	O	0.533339	0.792903	0.196055
O27	O	0.533348	0.682041	0.196041
O28	O	0.533315	0.933449	0.055547
O29	O	0.715169	0.682086	-0.195855
O30	O	0.351485	0.792871	0.196052
O31	O	0.351473	0.933412	0.196069
O32	O	0.351461	0.933417	0.055544
O33	O	0.715193	0.541539	-0.055347
O34	O	0.715181	0.682081	-0.055330
O35	O	0.473487	0.778831	0.124190
O36	O	0.473473	0.861568	0.041475
O37	O	0.593167	0.778857	-0.041258
O38	O	0.593181	0.696120	0.041457
C39	C	0.373347	0.737450	0.000096
C40	C	0.319051	0.737440	0.000095
C41	C	0.533346	0.516314	0.000071
C42	C	0.533352	0.441252	0.000062
C43	C	0.533308	0.737485	-0.221040
C44	C	0.533302	0.737487	-0.296093
C45	C	-0.017699	0.780689	-0.043071
C46	C	-0.068723	0.780697	-0.043069
O47	O	-0.095135	0.817452	-0.079763
N48	N	-0.094231	0.737508	0.000106
C49	C	-0.068719	0.694315	0.043288
O50	O	-0.095102	0.657581	0.080013
C51	C	-0.017699	0.694313	0.043290
C52	C	0.007812	0.737498	0.000106
C53	C	0.007812	0.823871	-0.086251
C54	C	0.058833	0.823862	-0.086254
C55	C	0.084344	0.780671	-0.043078
C56	C	0.058833	0.737489	0.000103
C57	C	0.007809	0.651126	0.086477
C58	C	0.058832	0.651128	0.086476
C59	C	0.084343	0.694313	0.043291
C60	C	0.135365	0.694289	0.043276
N61	N	0.160874	0.737478	0.000101
C62	C	0.135363	0.780669	-0.043075
C63	C	-0.175864	0.694325	0.043282
C64	C	-0.226879	0.694321	0.043275
C65	C	-0.226880	0.780704	-0.043080
C66	C	-0.175861	0.780702	-0.043078
C67	C	-0.150355	0.737513	0.000107
C68	C	0.242512	0.780646	-0.043080
C69	C	0.293540	0.780631	-0.043082
C70	C	0.293534	0.694252	0.043277
C71	C	0.242514	0.694264	0.043276
C72	C	0.217002	0.737467	0.000096
O73	O	0.161808	0.657556	0.079955
O74	O	0.161746	0.817406	-0.079785
C75	C	0.693308	0.737507	0.000101
C76	C	0.747603	0.737516	0.000102
C77	C	0.598599	0.214810	-0.045020
C78	C	0.565972	0.192444	-0.077707
C79	C	0.533334	0.303846	0.000086
C80	C	0.565966	0.192471	0.032758
C81	C	0.533322	0.171114	0.000108
C82	C	0.500707	0.282468	-0.032647
C83	C	0.500710	0.282493	0.077861
C84	C	0.468036	0.260180	0.045194
C85	C	0.533343	0.380308	0.000071
C86	C	0.533308	0.094656	0.000122
C87	C	0.533308	0.958643	0.000125
C88	C	0.533302	1.033704	0.000134
C89	C	0.468055	0.782582	-0.432349
C90	C	0.500682	0.704794	-0.499811
C91	C	0.533320	0.737479	-0.433524
C92	C	0.500688	0.815251	-0.499797
C93	C	0.533332	0.737478	-0.566273
C94	C	0.565947	0.659646	-0.499998
C95	C	0.565944	0.770158	-0.499973
C96	C	0.598619	0.692324	-0.567448
C97	C	0.533311	0.737481	-0.357049
C98	C	0.533346	0.737468	-0.642750
C99	C	0.533346	0.737471	0.221237
C100	C	0.533352	0.737469	0.296289
C101	C	0.373328	0.958614	0.000123
C102	C	0.319025	1.033666	0.000131
C103	C	0.373365	0.737443	0.221234
C104	C	0.319076	0.737431	0.296286
C105	C	0.373347	0.958607	0.221261
C106	C	0.319051	1.033657	0.296322
C107	C	0.693308	0.516349	-0.221065
C108	C	0.747603	0.441299	-0.296125
C109	C	0.693326	0.516342	0.000074
C110	C	0.747629	0.441290	0.000066
C111	C	0.693289	0.737513	-0.221038
C112	C	0.747578	0.737525	-0.296089
C113	C	0.293525	1.025725	-0.043060
C114	C	0.242509	1.096237	-0.043068
C115	C	0.216992	1.174689	0.000119
C116	C	0.242497	1.182628	0.043310
C117	C	0.293516	1.112117	0.043314
C118	C	0.293581	0.780611	0.374725
C119	C	0.242577	0.780596	0.445251
C120	C	0.217066	0.737406	0.437335
C121	C	0.242566	0.694221	0.358888
C122	C	0.293572	0.694231	0.288364
C123	C	0.293545	1.112096	0.288395
C124	C	0.242536	1.182620	0.358915
C125	C	0.217029	1.174702	0.437362
C126	C	0.242539	1.096254	0.445288
C127	C	0.293551	1.025732	0.374768
C128	C	0.773115	0.362860	-0.288198
C129	C	0.824140	0.292337	-0.358719
C130	C	0.849650	0.300254	-0.437166
C131	C	0.824137	0.378702	-0.445091
C132	C	0.773115	0.449224	-0.374571
C133	C	0.773135	0.449231	0.043249
C134	C	0.824165	0.378719	0.043238
C135	C	0.849684	0.300267	0.000049
C136	C	0.824175	0.292328	-0.043140
C137	C	0.773150	0.362839	-0.043133
C138	C	0.773073	0.780724	-0.288147
C139	C	0.824077	0.780751	-0.358659
C140	C	0.849589	0.737575	-0.437113
C141	C	0.824089	0.694375	-0.445053
C142	C	0.773082	0.694353	-0.374542
H143	H	0.314311	0.815796	-0.078251
H144	H	0.314300	0.961852	-0.078238
H145	H	0.891232	0.242859	0.000050
H146	H	0.593515	0.593844	-0.499409
N147	N	0.321043	0.941132	0.383328
H148	H	0.357228	0.897651	0.326755
H149	H	0.342172	0.934600	0.414514
N150	N	0.161998	1.250764	0.513424
H151	H	0.179746	1.250811	0.547374
H152	H	0.149729	1.301616	0.496430
H153	H	0.844913	0.385139	-0.508971
N154	N	0.086344	0.870442	-0.132830
H155	H	0.062433	0.897802	-0.160177
H156	H	0.077469	0.913854	-0.093177
N157	N	0.464193	0.333703	-0.069343
H158	H	0.423429	0.390241	-0.027161
H159	H	0.497098	0.339248	-0.119536
N160	N	0.671658	0.641633	-0.644166
H161	H	0.696181	0.582883	-0.644793
H162	H	0.670877	0.642534	-0.694494
N163	N	0.851638	0.207737	-0.350149
H164	H	0.842764	0.176546	-0.377489
H165	H	0.902839	0.176618	-0.377456
H166	H	0.844834	0.815928	-0.352178
N167	N	0.904609	0.737589	-0.513166
H168	H	0.886852	0.762167	-0.547107
H169	H	0.916870	0.771493	-0.496163
H170	H	0.752330	0.659172	-0.381020
H171	H	0.473091	0.881025	-0.500441
N172	N	0.215006	1.087664	-0.089657
H173	H	0.238911	1.027265	-0.117005
H174	H	0.163794	1.115036	-0.050010
N175	N	0.215024	1.087721	0.529901
H176	H	0.178836	1.144303	0.573365
H177	H	0.193891	1.056538	0.536434
H178	H	0.175449	1.232097	0.000110
H179	H	0.314272	1.118593	0.078489
N180	N	0.215013	0.827236	-0.089663
H181	H	0.223887	0.787635	-0.133124
H182	H	0.163811	0.870700	-0.050008
H183	H	0.891195	0.242824	-0.494581
H184	H	0.473155	0.321294	0.143612
N185	N	0.214973	1.267246	0.089888
H186	H	0.178782	1.310703	0.083329
H187	H	0.193841	1.273780	0.150279
H188	H	0.314306	1.118559	0.224525
H189	H	0.175534	0.737405	0.494767
N190	N	0.851608	0.647808	-0.529672
H191	H	0.887791	0.654379	-0.573129
H192	H	0.872749	0.587414	-0.536217
H193	H	-0.012956	0.859046	-0.121410
N194	N	0.671692	0.190396	-0.095619
H195	H	0.671179	0.241623	-0.094841
H196	H	0.696571	0.156122	-0.071522
N197	N	0.851691	0.207710	-0.089705
H198	H	0.887879	0.164253	-0.083142
H199	H	0.812726	0.201178	-0.067015
N200	N	0.602449	0.806794	-0.499032
H201	H	0.577743	0.865574	-0.498261
H202	H	0.602558	0.805960	-0.448238
H203	H	-0.012954	0.615962	0.121643
H204	H	0.221770	1.246489	0.352447
N205	N	0.745605	0.354308	-0.203593
H206	H	0.769516	0.293911	-0.209284
H207	H	0.754478	0.381695	-0.172446
H208	H	0.314347	0.815781	0.381186
H209	H	0.752344	0.513091	-0.381036
H210	H	0.593551	0.153640	-0.143472
H211	H	0.752361	0.513104	0.078424
N212	N	0.851670	0.387292	0.089823
H213	H	0.827753	0.447691	0.117189
H214	H	0.842802	0.359906	0.133231
H215	H	0.221787	0.659057	0.352455
N216	N	-0.148347	0.827278	-0.089656
H217	H	-0.172252	0.854635	-0.117008
H218	H	-0.157223	0.870692	-0.050003
H219	H	0.221821	0.815766	0.509119
N220	N	0.745565	0.827294	-0.203535
H221	H	0.769459	0.854664	-0.209216
H222	H	0.694351	0.870699	-0.172392
N223	N	0.745642	0.354269	-0.089712
H224	H	0.769554	0.293869	-0.117069
H225	H	0.694432	0.381630	-0.050060
H226	H	0.314323	0.659072	0.224498
H227	H	-0.247638	0.659145	0.078430
N228	N	-0.254400	0.827290	-0.089652
H229	H	-0.290592	0.820737	-0.083095
H230	H	-0.275527	0.887680	-0.066971
H231	H	0.079597	0.615957	0.121642
N232	N	-0.148352	0.647725	0.089854
H233	H	-0.097142	0.604268	0.050246
H234	H	-0.157273	0.687376	0.133319
N235	N	0.215006	0.647672	0.089836
H236	H	0.238914	0.620306	0.117183
H237	H	0.163795	0.687322	0.133258
H238	H	0.314316	0.659084	0.078428
H239	H	0.593566	0.153674	0.060380
N240	N	0.394880	0.284808	0.095723
H241	H	0.387047	0.261561	0.059801
H242	H	0.386813	0.262409	0.143051
N243	N	0.394960	0.833029	-0.355736
H244	H	0.370395	0.808236	-0.355109
H245	H	0.395526	0.833092	-0.305257
N246	N	0.464157	0.668171	-0.500720
H247	H	0.414856	0.702279	-0.450333
H248	H	0.464877	0.667948	-0.552087
