data_functionalizedCrystal
_audit_creation_method	'MofGen! by Chris Wilmer'
_symmetry_space_group_name_H-M	'P1'
_symmetry_Int_Tables_number	1
_symmetry_cell_setting	triclinic
loop_
_symmetry_equiv_pos_as_xyz
  x,y,z
_cell_length_a	22.610064
_cell_length_b	12.837943
_cell_length_c	12.837942
_cell_angle_alpha	85.171060
_cell_angle_beta	90.005124
_cell_angle_gamma	90.007937
loop_
_atom_site_label
_atom_site_type_symbol
_atom_site_fract_x
_atom_site_fract_y
_atom_site_fract_z
O1	O	-0.049173	-1.402342	0.272127
O2	O	-0.049177	-1.099208	0.258684
O3	O	-0.049172	-1.244053	0.113838
O4	O	-0.049179	-1.257497	0.416972
O5	O	0.049198	-1.244027	0.113859
O6	O	0.049192	-1.099182	0.258704
O7	O	0.049196	-1.402316	0.272148
Zn8	Zn	0.064812	-1.250745	0.265429
Zn9	Zn	-0.064793	-1.250779	0.265402
O10	O	0.049190	-1.257470	0.416993
C11	C	0.000007	-1.060126	0.254153
C12	C	0.000006	-0.943711	0.240608
N13	N	0.153265	-1.250729	0.265448
N14	N	-0.153246	-1.250802	0.265376
C15	C	0.561908	-1.314921	0.201276
C16	C	0.623828	-1.314925	0.201269
O17	O	0.655849	-1.369461	0.146718
N18	N	0.654802	-1.250776	0.265380
C19	C	0.623852	-1.186610	0.329495
O20	O	0.655883	-1.132046	0.384025
C21	C	0.561933	-1.186601	0.329496
C22	C	0.530963	-1.250762	0.265388
C23	C	0.530938	-1.379076	0.137172
C24	C	0.469022	-1.379073	0.137181
C25	C	0.438077	-1.314914	0.201293
C26	C	0.469047	-1.250759	0.265397
C27	C	0.530985	-1.122430	0.393604
C28	C	0.469062	-1.122426	0.393599
C29	C	0.438092	-1.186587	0.329491
C30	C	0.376187	-1.186597	0.329518
N31	N	0.345213	-1.250746	0.265406
C32	C	0.376158	-1.314905	0.201294
C33	C	0.753886	-1.186633	0.329487
C34	C	0.815803	-1.186647	0.329493
C35	C	0.815775	-1.314961	0.201265
C36	C	0.753857	-1.314952	0.201265
C37	C	0.722912	-1.250783	0.265376
C38	C	0.246131	-1.314893	0.201318
C39	C	0.184210	-1.314887	0.201336
C40	C	0.184243	-1.186570	0.329559
C41	C	0.246159	-1.186579	0.329546
C42	C	0.277101	-1.250744	0.265417
O43	O	0.344126	-1.132086	0.384037
O44	O	0.344120	-1.369450	0.146763
C45	C	0.000013	-1.239499	0.074780
C46	C	0.000011	-1.225954	-0.041635
C47	C	0.000010	-1.441398	0.276679
C48	C	0.000008	-1.557813	0.290223
C49	C	0.000011	-0.718837	0.403437
C50	C	0.000010	-0.609454	0.390716
C51	C	0.000008	-0.615562	0.202445
C52	C	0.000009	-0.724944	0.215166
C53	C	0.000009	-0.776578	0.315666
C54	C	0.000006	-0.885962	0.328386
C55	C	0.000008	-0.892067	0.140116
C56	C	0.000007	-0.782685	0.127395
C57	C	0.000001	-1.388784	-0.266510
C58	C	-0.000000	-1.376062	-0.375892
C59	C	0.000004	-1.187791	-0.369785
C60	C	0.000005	-1.200513	-0.260402
C61	C	0.000004	-1.301012	-0.208769
C62	C	0.000010	-1.313732	-0.099384
C63	C	0.000010	-1.125462	-0.093279
C64	C	0.000008	-1.112741	-0.202661
C65	C	0.000005	-1.262025	0.456052
C66	C	0.000002	-1.275569	0.572467
H67	H	0.158996	-1.367139	0.149132
H68	H	0.840982	-1.367201	0.149059
H69	H	0.000003	-0.939092	0.068646
H70	H	0.000007	-0.928000	0.410218
H71	H	0.000012	-1.395564	-0.057346
H72	H	0.556192	-1.070184	0.445806
H73	H	0.000013	-0.562446	0.462189
H74	H	0.443870	-1.070168	0.445804
H75	H	0.000056	-0.573502	0.120623
H76	H	0.556128	-1.431321	0.084960
H77	H	0.000010	-0.760878	0.485268
H78	H	-0.000005	-1.447536	-0.422901
H79	H	0.000014	-0.740630	0.045571
H80	H	0.271317	-1.367141	0.149097
H81	H	0.000006	-1.470614	-0.224469
H82	H	-0.000002	-1.105969	-0.411844
H83	H	0.000007	-1.030917	-0.244717
H84	H	0.271376	-1.134345	0.381759
H85	H	0.443810	-1.431315	0.084976
H86	H	0.728644	-1.367197	0.149063
H87	H	0.841015	-1.134413	0.381707
H88	H	0.728694	-1.134382	0.381702
H89	H	0.159038	-1.134336	0.381762
H90	H	0.000017	-1.053992	-0.046254
