data_functionalizedCrystal
_audit_creation_method	'MofGen! by Chris Wilmer'
_symmetry_space_group_name_H-M	'P1'
_symmetry_Int_Tables_number	1
_symmetry_cell_setting	triclinic
loop_
_symmetry_equiv_pos_as_xyz
  x,y,z
_cell_length_a	12.759401
_cell_length_b	12.759400
_cell_length_c	18.215399
_cell_angle_alpha	90.024546
_cell_angle_beta	90.016569
_cell_angle_gamma	90.013728
loop_
_atom_site_label
_atom_site_type_symbol
_atom_site_fract_x
_atom_site_fract_y
_atom_site_fract_z
Zn1	Zn	1.606235	-0.418304	0.416069
Zn2	Zn	1.606135	-0.594001	0.293010
Zn3	Zn	1.430543	-0.418334	0.293024
Zn4	Zn	1.430525	-0.593938	0.416042
O5	O	1.518360	-0.506144	0.354536
O6	O	1.753243	-0.441624	0.399751
O7	O	1.582808	-0.570737	0.190028
O8	O	1.453898	-0.271309	0.309363
O9	O	1.753169	-0.570708	0.309340
O10	O	1.582978	-0.271287	0.399764
O11	O	1.453801	-0.441675	0.190037
O12	O	1.283520	-0.441615	0.309337
O13	O	1.453868	-0.570601	0.519030
O14	O	1.283507	-0.570630	0.399718
O15	O	1.582961	-0.441563	0.519050
O16	O	1.582791	-0.741014	0.309314
O17	O	1.453772	-0.740968	0.399705
C18	C	1.245392	-0.506120	0.354526
C19	C	1.128616	-0.506134	0.354539
C20	C	1.073785	-0.439047	0.401689
C21	C	0.964061	-0.439067	0.401694
C22	C	0.964008	-0.573271	0.307396
C23	C	1.073730	-0.573245	0.307389
C24	C	1.128670	-0.371937	0.448840
C25	C	1.073839	-0.304845	0.495994
C26	C	0.964115	-0.304865	0.495998
C27	C	0.909222	-0.371977	0.448849
C28	C	1.518297	-0.779112	0.354521
C29	C	1.518367	-0.895888	0.354539
C30	C	1.585622	-0.950740	0.307524
C31	C	1.585686	-1.060464	0.307547
C32	C	1.451232	-1.060476	0.401601
C33	C	1.451173	-0.950754	0.401581
C34	C	1.652815	-0.895874	0.260482
C35	C	1.720075	-0.950726	0.213463
C36	C	1.720140	-1.060450	0.213486
C37	C	1.652944	-1.115322	0.260527
C38	C	1.792393	-0.506170	0.354547
C39	C	1.909169	-0.506181	0.354552
C40	C	1.518424	-0.506072	0.546489
C41	C	1.518451	-0.506041	0.628288
C42	C	1.518451	-0.232111	0.354568
C43	C	1.518490	-0.115334	0.354581
C44	C	1.518356	-0.506141	0.163330
C45	C	1.518533	-0.505876	0.081532
C46	C	1.585694	-0.438788	0.816494
C47	C	1.585706	-0.438758	0.893353
C48	C	1.451282	-0.573132	0.893321
C49	C	1.451265	-0.573156	0.816463
C50	C	1.518477	-0.505986	0.778052
C51	C	1.518506	-0.505931	0.931768
C52	C	1.518520	-0.505898	1.015102
C53	C	1.518463	-0.506017	0.694713
H54	H	1.218013	-0.371913	0.448841
F55	F	1.657255	-0.367243	0.934262
H56	H	0.919475	-0.250228	0.534388
H57	H	1.396522	-0.627876	0.785163
H58	H	1.652767	-0.806532	0.260456
H59	H	1.653011	-1.204667	0.260548
F60	F	1.657223	-0.367297	0.775616
F61	F	1.791593	-0.892325	0.163407
F62	F	1.791731	-1.118823	0.163451
F63	F	1.379594	-0.892374	0.451621
F64	F	1.379759	-0.644618	0.934207
F65	F	1.132261	-0.233416	0.546165
H66	H	0.819877	-0.371966	0.448841
H67	H	0.919305	-0.627912	0.269011
H68	H	1.118375	-0.627873	0.268995
H69	H	1.396524	-1.105162	0.439899
