data_functionalizedCrystal
_audit_creation_method	'MofGen! by Chris Wilmer'
_symmetry_space_group_name_H-M	'P1'
_symmetry_Int_Tables_number	1
_symmetry_cell_setting	triclinic
loop_
_symmetry_equiv_pos_as_xyz
  x,y,z
_cell_length_a	10.654550
_cell_length_b	15.944551
_cell_length_c	9.130313
_cell_angle_alpha	89.997799
_cell_angle_beta	89.996220
_cell_angle_gamma	83.991820
loop_
_atom_site_label
_atom_site_type_symbol
_atom_site_fract_x
_atom_site_fract_y
_atom_site_fract_z
O1	O	1.666308	0.117973	-0.121923
O2	O	1.300684	0.129213	-0.121900
O3	O	1.493480	0.001376	-0.121899
O4	O	1.473511	0.245810	-0.121924
O5	O	1.493478	0.001379	0.121700
O6	O	1.300681	0.129216	0.121699
O7	O	1.666305	0.117976	0.121676
Cu8	Cu	1.483493	0.123596	0.143930
Cu9	Cu	1.483496	0.123592	-0.144154
O10	O	1.473509	0.245813	0.121675
C11	C	1.253895	0.128389	-0.000098
C12	C	1.114484	0.125920	-0.000088
C13	C	1.034024	0.201188	-0.000117
C14	C	0.903034	0.198863	-0.000142
C15	C	0.932975	0.045995	-0.000116
C16	C	1.063963	0.048321	-0.000080
C17	C	1.016737	0.289446	-0.000139
C18	C	0.885746	0.287121	-0.000164
C19	C	1.492650	-0.029921	-0.000099
C20	C	1.490165	-0.123182	-0.000098
C21	C	1.364720	-0.338765	-0.000111
C22	C	1.422971	-0.399443	0.119995
C23	C	1.485668	-0.293934	-0.000109
C24	C	1.423002	-0.399430	-0.120175
C25	C	1.481317	-0.458872	-0.000126
C26	C	1.543953	-0.353384	0.120095
C27	C	1.543967	-0.353364	-0.120182
C28	C	1.602306	-0.414024	-0.000048
C29	C	1.488172	-0.198917	-0.000098
C30	C	1.478822	-0.553887	-0.000127
C31	C	1.713094	0.118800	-0.000130
C32	C	1.852505	0.121269	-0.000149
C33	C	1.474339	0.277110	-0.000128
C34	C	1.476824	0.370371	-0.000139
N35	N	1.483500	0.123599	0.346552
N36	N	1.483499	0.123583	-0.346777
C37	C	1.568892	0.067012	0.423205
C38	C	1.568889	0.067002	0.576542
C39	C	1.398098	0.180173	0.576560
C40	C	1.398096	0.180178	0.423226
C41	C	1.667501	0.001676	0.423195
C42	C	1.667498	0.001666	0.576532
H43	H	1.052030	0.317547	-0.105314
C44	C	1.639626	-0.085527	0.366962
H45	H	1.639630	-0.085519	0.262909
H46	H	1.559361	-0.097517	0.401648
H47	H	1.702703	-0.127341	0.401621
H48	H	0.891824	-0.017184	-0.000131
H49	H	0.843584	0.320373	-0.102121
C50	C	1.797612	0.021111	0.632761
H51	H	1.797607	0.021096	0.736813
H52	H	1.814799	0.074909	0.598095
H53	H	1.860701	-0.020689	0.598079
H54	H	1.595080	-0.332939	-0.221733
H55	H	1.702787	-0.446602	0.000014
C56	C	1.055765	0.336085	0.137566
H57	H	0.982928	0.353679	0.194186
H58	H	1.095929	0.384011	0.109242
H59	H	1.112503	0.299329	0.194239
H60	H	1.264327	-0.306038	0.000016
C61	C	0.823570	0.323154	0.141895
H62	H	0.886523	0.340815	0.205173
H63	H	0.781635	0.280896	0.189102
H64	H	0.764204	0.369995	0.119046
H65	H	1.328563	0.226238	0.639004
C66	C	1.612991	-0.325983	0.257424
H67	H	1.614102	-0.266483	0.256619
H68	H	1.697134	-0.352425	0.257773
H69	H	1.570300	-0.342123	0.342611
H70	H	1.758420	0.022134	0.375629
C71	C	1.353867	-0.427012	0.257169
H72	H	1.269468	-0.401000	0.257031
H73	H	1.396019	-0.410484	0.342457
H74	H	1.353458	-0.486563	0.256626
H75	H	1.371831	-0.419804	-0.221721
C76	C	1.304158	0.242418	0.338913
H77	H	1.253306	0.276117	0.406541
H78	H	1.251890	0.211876	0.279099
H79	H	1.349331	0.277675	0.279098
H80	H	1.637774	-0.059344	0.624087
H81	H	1.129470	-0.012970	-0.000035
