data_functionalizedCrystal
_audit_creation_method	'MofGen! by Chris Wilmer'
_symmetry_space_group_name_H-M	'P1'
_symmetry_Int_Tables_number	1
_symmetry_cell_setting	triclinic
loop_
_symmetry_equiv_pos_as_xyz
  x,y,z
_cell_length_a	16.625547
_cell_length_b	16.625545
_cell_length_c	13.032268
_cell_angle_alpha	82.853505
_cell_angle_beta	82.841885
_cell_angle_gamma	90.025495
loop_
_atom_site_label
_atom_site_type_symbol
_atom_site_fract_x
_atom_site_fract_y
_atom_site_fract_z
Zn1	Zn	1.174716	-0.378881	0.590969
Zn2	Zn	1.191746	-0.496610	0.416229
Zn3	Zn	1.057012	-0.361796	0.416233
Zn4	Zn	1.039848	-0.513669	0.590901
O5	O	1.115830	-0.437739	0.503583
O6	O	1.289805	-0.394510	0.567816
O7	O	1.188183	-0.464437	0.270001
O8	O	1.072681	-0.251233	0.439442
O9	O	1.302317	-0.481005	0.439435
O10	O	1.159158	-0.263786	0.567820
O11	O	1.089195	-0.365390	0.270004
O12	O	0.941905	-0.381931	0.439376
O13	O	1.043428	-0.510079	0.737138
O14	O	0.929295	-0.493511	0.567704
O15	O	1.142515	-0.411051	0.737188
O16	O	1.171540	-0.611703	0.439370
O17	O	1.059941	-0.624236	0.567700
C18	C	0.906344	-0.437719	0.503533
C19	C	0.816723	-0.437732	0.503537
C20	C	0.743939	-0.437735	0.503550
C21	C	0.652628	-0.437741	0.503576
C22	C	0.579849	-0.437751	0.503603
C23	C	0.488532	-0.437759	0.503628
C24	C	1.115746	-0.647227	0.503550
C25	C	1.115780	-0.736850	0.503571
C26	C	1.115810	-0.809634	0.503592
C27	C	1.115854	-0.900945	0.503615
C28	C	1.115895	-0.973723	0.503628
C29	C	1.115939	-1.065039	0.503649
C30	C	1.326134	-0.437760	0.503633
C31	C	1.415753	-0.437769	0.503654
C32	C	1.089158	-0.464373	0.776139
C33	C	1.077791	-0.475723	0.892286
C34	C	1.115935	-0.227436	0.503639
C35	C	1.115979	-0.137817	0.503663
C36	C	1.142446	-0.411150	0.232087
C37	C	1.153968	-0.399573	0.115941
C38	C	1.121750	-0.431787	0.944093
C39	C	1.110003	-0.443516	1.064137
H40	H	1.168078	-0.385484	0.899574
H41	H	1.063664	-0.489814	1.108651
Cl42	Cl	1.225518	-0.328095	1.047223
Cl43	Cl	1.006252	-0.547205	0.961010
