data_functionalizedCrystal
_audit_creation_method	'MofGen! by Chris Wilmer'
_symmetry_space_group_name_H-M	'P1'
_symmetry_Int_Tables_number	1
_symmetry_cell_setting	triclinic
loop_
_symmetry_equiv_pos_as_xyz
  x,y,z
_cell_length_a	10.686220
_cell_length_b	16.959454
_cell_length_c	10.686551
_cell_angle_alpha	94.404578
_cell_angle_beta	89.691918
_cell_angle_gamma	94.401635
loop_
_atom_site_label
_atom_site_type_symbol
_atom_site_fract_x
_atom_site_fract_y
_atom_site_fract_z
Zn1	Zn	1.972261	-0.192706	0.562392
Zn2	Zn	1.956011	-0.335773	0.352638
Zn3	Zn	1.746376	-0.212926	0.368710
Zn4	Zn	1.762442	-0.334171	0.578415
O5	O	1.859272	-0.268894	0.465539
O6	O	2.145648	-0.203892	0.521135
O7	O	1.914679	-0.328610	0.179225
O8	O	1.776417	-0.099628	0.394423
O9	O	2.133710	-0.309003	0.367030
O10	O	1.942373	-0.084773	0.536720
O11	O	1.760661	-0.238355	0.191033
O12	O	1.572964	-0.236801	0.409960
O13	O	1.803798	-0.306273	0.751835
O14	O	1.584768	-0.325880	0.564030
O15	O	1.957951	-0.202339	0.740063
O16	O	1.930257	-0.446176	0.382567
O17	O	1.788042	-0.444999	0.548445
C18	C	1.533350	-0.283361	0.490478
C19	C	1.393921	-0.289568	0.501177
C20	C	1.859166	-0.474266	0.465525
C21	C	1.859238	-0.562118	0.465553
C22	C	1.785337	-0.933005	0.551894
C23	C	1.933567	-0.934158	0.379285
C24	C	1.933522	-0.851615	0.379276
C25	C	1.859382	-0.809763	0.465577
C26	C	1.785287	-0.850454	0.551886
C27	C	2.007607	-0.810918	0.292961
C28	C	2.007564	-0.728369	0.292948
C29	C	1.933430	-0.686515	0.379256
C30	C	1.859333	-0.727212	0.465569
C31	C	1.785193	-0.685360	0.551870
C32	C	1.711101	-0.726054	0.638190
C33	C	1.711153	-0.808600	0.638193
C34	C	1.933378	-0.603970	0.379252
C35	C	1.785143	-0.602809	0.551862
C36	C	2.186468	-0.254371	0.440502
C37	C	2.325899	-0.248182	0.429834
C38	C	1.884480	-0.251872	0.792738
C39	C	1.895221	-0.244618	0.932171
C40	C	1.859416	-0.062717	0.465577
C41	C	1.859477	0.025143	0.465593
C42	C	1.834236	-0.285790	0.139606
C43	C	1.823737	-0.292810	0.000156
H44	H	1.345483	-0.329756	0.570441
H45	H	1.964650	-0.197809	0.980643
O46	O	1.741061	-0.348761	0.942387
C47	C	1.676976	-0.487997	0.906742
C48	C	1.770704	-0.424714	0.972226
H49	H	1.700892	-0.549418	0.930864
H50	H	1.682787	-0.484163	0.800804
H51	H	1.577793	-0.477250	0.940151
H52	H	1.869928	-0.435420	0.938919
H53	H	1.764783	-0.428564	1.078154
O54	O	1.638896	-0.685448	0.721904
C55	C	1.430143	-0.666629	0.799020
C56	C	1.511758	-0.712664	0.704129
H57	H	1.327338	-0.688627	0.784699
H58	H	1.442724	-0.600638	0.784184
H59	H	1.459966	-0.676577	0.898500
H60	H	1.481986	-0.702781	0.604612
H61	H	1.499168	-0.778640	0.719075
O62	O	1.383870	-0.200253	0.347303
C63	C	1.580359	-0.150219	0.260944
C64	C	1.514860	-0.204514	0.354483
H65	H	1.686273	-0.153659	0.266699
H66	H	1.556498	-0.086457	0.285086
H67	H	1.546775	-0.170391	0.161724
H68	H	1.548407	-0.184414	0.453736
H69	H	1.538718	-0.268265	0.330233
O70	O	1.639208	-0.848258	0.721908
C71	C	1.573637	-0.974912	0.798446
C72	C	1.655154	-0.930097	0.703559
H73	H	1.586521	-1.041085	0.783661
H74	H	1.470765	-0.964434	0.784067
H75	H	1.603347	-0.952379	0.897927
H76	H	1.625555	-0.952603	0.604040
H77	H	1.758008	-0.940575	0.718048
O78	O	1.713047	-0.562083	0.635529
C79	C	1.544843	-0.475662	0.665227
C80	C	1.626420	-0.521729	0.570339
H81	H	1.474769	-0.443037	0.612559
H82	H	1.607346	-0.430956	0.726443
H83	H	1.491965	-0.518940	0.726941
H84	H	1.679311	-0.478512	0.508542
H85	H	1.563852	-0.566445	0.509211
O86	O	1.713398	-0.972656	0.635619
C87	C	1.647838	-1.099301	0.712197
C88	C	1.729346	-1.054497	0.617292
H89	H	1.660724	-1.165475	0.697431
H90	H	1.544964	-1.088827	0.697822
H91	H	1.677555	-1.076756	0.811672
H92	H	1.699740	-1.077014	0.517779
H93	H	1.832202	-1.064971	0.631778
H94	H	2.067958	-0.845000	0.222691
O95	O	2.005500	-0.974932	0.295534
C96	C	2.071088	-1.102629	0.218897
C97	C	1.989615	-1.056542	0.313862
H98	H	2.058253	-1.168621	0.233664
H99	H	2.173961	-1.080792	0.233206
H100	H	2.041294	-1.092591	0.119444
H101	H	2.019297	-1.066559	0.413353
H102	H	1.886759	-1.078388	0.299443
O103	O	2.079467	-0.688942	0.208939
C104	C	2.124048	-0.672039	-0.009068
C105	C	2.042544	-0.716764	0.085931
H106	H	2.094209	-0.694504	-0.108541
H107	H	2.226904	-0.682601	0.005207
H108	H	2.111313	-0.605851	0.005813
H109	H	2.055171	-0.782965	0.071108
H110	H	1.939719	-0.706136	0.071632
O111	O	2.005449	-0.564559	0.295358
C112	C	2.152398	-0.574426	0.124081
C113	C	2.070855	-0.619153	0.219048
H114	H	2.205279	-0.618548	0.062341
H115	H	2.222449	-0.529851	0.176631
H116	H	2.089752	-0.541764	0.062904
H117	H	2.133401	-0.651862	0.280249
H118	H	2.000794	-0.663683	0.166419
