data_functionalizedCrystal
_audit_creation_method	'MofGen! by Chris Wilmer'
_symmetry_space_group_name_H-M	'P1'
_symmetry_Int_Tables_number	1
_symmetry_cell_setting	triclinic
loop_
_symmetry_equiv_pos_as_xyz
  x,y,z
_cell_length_a	21.295417
_cell_length_b	16.120530
_cell_length_c	16.120297
_cell_angle_alpha	90.128140
_cell_angle_beta	87.132998
_cell_angle_gamma	92.874222
loop_
_atom_site_label
_atom_site_type_symbol
_atom_site_fract_x
_atom_site_fract_y
_atom_site_fract_z
Zn1	Zn	-0.318915	-1.247391	0.534523
Zn2	Zn	0.014418	-0.914057	0.867857
Zn3	Zn	0.347751	-0.580724	1.201190
Zn4	Zn	-0.419125	-1.254326	0.395453
Zn5	Zn	-0.085792	-0.920993	0.728786
Zn6	Zn	0.247542	-0.587659	1.062120
Zn7	Zn	-0.308278	-1.115383	0.388443
Zn8	Zn	0.025055	-0.782049	0.721776
Zn9	Zn	0.358389	-0.448716	1.055109
Zn10	Zn	-0.418545	-1.108282	0.527422
Zn11	Zn	-0.085212	-0.774949	0.860756
Zn12	Zn	0.248121	-0.441616	1.194089
O13	O	-0.366216	-1.181345	0.461460
O14	O	-0.032883	-0.848012	0.794794
O15	O	0.300451	-0.514679	1.128127
O16	O	-0.336903	-1.364676	0.521981
O17	O	-0.003569	-1.031343	0.855314
O18	O	0.329764	-0.698010	1.188648
O19	O	-0.400212	-1.241769	0.278158
O20	O	-0.066878	-0.908435	0.611491
O21	O	0.266455	-0.575102	0.944825
O22	O	-0.221604	-1.132963	0.407859
O23	O	0.111729	-0.799630	0.741192
O24	O	0.445063	-0.466296	1.074526
O25	O	-0.410526	-1.369771	0.419806
O26	O	-0.077193	-1.036438	0.753140
O27	O	0.256140	-0.703105	1.086473
O28	O	-0.229419	-1.229949	0.515184
O29	O	0.103914	-0.896615	0.848517
O30	O	0.437248	-0.563282	1.181850
O31	O	-0.318773	-1.139688	0.273008
O32	O	0.014560	-0.806354	0.606341
O33	O	0.347894	-0.473021	0.939674
O34	O	-0.318211	-0.998075	0.400973
O35	O	0.015122	-0.664742	0.734306
O36	O	0.348456	-0.331409	1.067640
O37	O	-0.409538	-1.120862	0.644729
O38	O	-0.076205	-0.787528	0.978062
O39	O	0.257128	-0.454195	1.311396
O40	O	-0.399224	-0.992859	0.503081
O41	O	-0.065890	-0.659525	0.836414
O42	O	0.267443	-0.326192	1.169747
O43	O	-0.336340	-1.223064	0.649946
O44	O	-0.003007	-0.889730	0.983280
O45	O	0.330326	-0.556397	1.316613
O46	O	-0.507133	-1.234884	0.412921
O47	O	-0.173800	-0.901550	0.746254
O48	O	0.159533	-0.568217	1.079587
O49	O	-0.506707	-1.127586	0.509878
O50	O	-0.173374	-0.794253	0.843211
O51	O	0.159959	-0.460920	1.176545
C52	C	-0.357501	-0.965295	0.450496
C53	C	-0.024167	-0.631961	0.783829
C54	C	0.309166	-0.298628	1.117163
C55	C	-0.353788	-0.872866	0.445825
C56	C	-0.020455	-0.539533	0.779159
C57	C	0.312879	-0.206200	1.112492
C58	C	-0.529761	-1.181239	0.461409
C59	C	-0.196428	-0.847905	0.794742
C60	C	0.136905	-0.514572	1.128075
C61	C	-0.599731	-1.181268	0.461418
C62	C	-0.266398	-0.847934	0.794752
C63	C	0.066936	-0.514601	1.128085
C64	C	-0.374061	-1.170397	0.678353
C65	C	-0.040728	-0.837064	1.011687
C66	C	0.292605	-0.503730	1.345020
C67	C	-0.377404	-1.165731	0.770780
C68	C	-0.044071	-0.832398	1.104114
C69	C	0.289262	-0.499065	1.437447
C70	C	-0.632802	-1.237182	0.410990
C71	C	-0.299469	-0.903849	0.744323
C72	C	0.033864	-0.570515	1.077656
C73	C	-0.698547	-1.237220	0.411010
C74	C	-0.365214	-0.903887	0.744344
C75	C	-0.031881	-0.570553	1.077677
C76	C	-0.731217	-1.181329	0.461450
C77	C	-0.397884	-0.847996	0.794784
C78	C	-0.064550	-0.514663	1.128117
C79	C	-0.698138	-1.125411	0.511889
C80	C	-0.364805	-0.792078	0.845222
C81	C	-0.031471	-0.458744	1.178556
C82	C	-0.632395	-1.125380	0.511873
C83	C	-0.299062	-0.792047	0.845207
C84	C	0.034272	-0.458713	1.178540
N85	N	-0.831783	-1.108264	0.464098
N86	N	-0.498450	-0.774931	0.797431
N87	N	-0.165116	-0.441598	1.130764
N88	N	-0.894236	-1.108296	0.464108
N89	N	-0.560903	-0.774963	0.797442
N90	N	-0.227569	-0.441629	1.130775
C91	C	-0.929297	-1.181420	0.461503
C92	C	-0.595964	-0.848087	0.794836
C93	C	-0.262631	-0.514754	1.128169
N94	N	-0.899546	-1.254514	0.458870
N95	N	-0.566212	-0.921180	0.792203
N96	N	-0.232879	-0.587847	1.125537
N97	N	-0.837087	-1.254481	0.458855
N98	N	-0.503753	-0.921148	0.792189
N99	N	-0.170420	-0.587814	1.125522
C100	C	-0.802504	-1.181357	0.461473
C101	C	-0.469171	-0.848024	0.794807
C102	C	-0.135838	-0.514690	1.128140
C103	C	-1.033657	-1.237380	0.411094
C104	C	-0.700323	-0.904047	0.744427
C105	C	-0.366990	-0.570714	1.077760
C106	C	-1.099403	-1.237419	0.411120
C107	C	-0.766070	-0.904086	0.744454
C108	C	-0.432736	-0.570753	1.077787
C109	C	-1.098992	-1.125603	0.511994
C110	C	-0.765659	-0.792270	0.845328
C111	C	-0.432325	-0.458936	1.178661
C112	C	-1.033248	-1.125571	0.511973
C113	C	-0.699914	-0.792238	0.845306
C114	C	-0.366581	-0.458904	1.178639
C115	C	-1.000584	-1.181459	0.461518
C116	C	-0.667250	-0.848126	0.794851
C117	C	-0.333917	-0.514792	1.128184
C118	C	-0.202033	-1.181474	0.461531
C119	C	0.131300	-0.848141	0.794865
C120	C	0.464633	-0.514808	1.128198
C121	C	-0.132068	-1.181529	0.461562
C122	C	0.201265	-0.848196	0.794895
C123	C	0.534598	-0.514863	1.128228
C124	C	-0.374966	-1.398240	0.472468
C125	C	-0.041632	-1.064906	0.805801
C126	C	0.291701	-0.731573	1.139134
C127	C	-0.378694	-1.490667	0.477159
C128	C	-0.045361	-1.157334	0.810492
C129	C	0.287972	-0.824001	1.143825
C130	C	-0.346996	-0.703638	0.437305
C131	C	-0.013662	-0.370304	0.770638
C132	C	0.319671	-0.036971	1.103971
C133	C	-0.385485	-0.659891	0.485677
C134	C	-0.052151	-0.326557	0.819010
C135	C	0.281182	0.006776	1.152343
C136	C	-0.381705	-0.565726	0.480936
C137	C	-0.048372	-0.232393	0.814269
C138	C	0.284961	0.100941	1.147602
C139	C	-0.350774	-0.797811	0.442045
C140	C	-0.017441	-0.464478	0.775378
C141	C	0.315893	-0.131144	1.108711
C142	C	-0.358358	-1.192299	0.245413
C143	C	-0.025024	-0.858966	0.578747
C144	C	0.308309	-0.525632	0.912080
C145	C	-0.354844	-1.197126	0.152995
C146	C	-0.021510	-0.863792	0.486328
C147	C	0.311823	-0.530459	0.819662
C148	C	-0.383493	-1.157183	0.940004
C149	C	-0.050160	-0.823850	1.273338
C150	C	0.283174	-0.490516	1.606671
C151	C	-0.348757	-1.205672	0.983777
C152	C	-0.015423	-0.872339	1.317110
C153	C	0.317910	-0.539005	1.650443
C154	C	-0.352144	-1.200915	1.077938
C155	C	-0.018811	-0.867582	1.411272
C156	C	0.314522	-0.534249	1.744605
C157	C	-0.380106	-1.161938	0.845834
C158	C	-0.046773	-0.828605	1.179167
C159	C	0.286561	-0.495272	1.512500
H160	H	-0.725479	-1.282755	0.369945
H161	H	-0.392146	-0.949422	0.703279
H162	H	-0.058813	-0.616089	1.036612
H163	H	-0.415774	-1.112102	0.973246
H164	H	-0.082441	-0.778769	1.306579
H165	H	0.250893	-0.445435	1.639912
C166	C	-0.273716	-1.310459	0.997644
C167	C	0.059618	-0.977126	1.330977
C168	C	0.392951	-0.643792	1.664310
C169	C	-0.305178	-1.266542	0.938907
C170	C	0.028155	-0.933209	1.272241
C171	C	0.361489	-0.599875	1.605574
H172	H	-0.246812	-1.348033	0.969939
H173	H	0.086521	-1.014700	1.303272
H174	H	0.419855	-0.681366	1.636605
H175	H	-0.303621	-1.340561	1.033134
H176	H	0.029713	-1.007228	1.366467
H177	H	0.363046	-0.673894	1.699800
H178	H	-0.249368	-1.272564	1.029684
H179	H	0.083965	-0.939231	1.363017
H180	H	0.417299	-0.605897	1.696350
H181	H	-0.329529	-1.304437	0.906871
H182	H	0.003804	-0.971103	1.240204
H183	H	0.337137	-0.637770	1.573538
H184	H	-0.275269	-1.236438	0.903403
H185	H	0.058065	-0.903105	1.236736
H186	H	0.391398	-0.569771	1.570070
C187	C	-0.639818	-1.347715	0.311288
C188	C	-0.306484	-1.014382	0.644621
C189	C	0.026849	-0.681048	0.977955
C190	C	-0.596900	-1.298625	0.355543
C191	C	-0.263567	-0.965291	0.688876
C192	C	0.069767	-0.631958	1.022209
H193	H	-0.617651	-1.385651	0.277064
H194	H	-0.284318	-1.052318	0.610397
H195	H	0.049016	-0.718985	0.943731
H196	H	-0.662881	-1.313129	0.277617
H197	H	-0.329547	-0.979796	0.610951
H198	H	0.003786	-0.646463	0.944284
H199	H	-0.668022	-1.377668	0.349173
H200	H	-0.334688	-1.044334	0.682506
H201	H	-0.001355	-0.711001	1.015839
H202	H	-0.568699	-1.268667	0.317658
H203	H	-0.235366	-0.935334	0.650991
H204	H	0.097968	-0.602000	0.984324
H205	H	-0.573827	-1.333215	0.389216
H206	H	-0.240493	-0.999881	0.722549
H207	H	0.092840	-0.666548	1.055883
H208	H	-0.724742	-1.079906	0.552959
H209	H	-0.391409	-0.746572	0.886293
H210	H	-0.058076	-0.413239	1.219626
C211	C	-0.638594	-1.014859	0.611584
C212	C	-0.305261	-0.681526	0.944918
C213	C	0.028073	-0.348193	1.278251
C214	C	-0.596039	-1.063910	0.567303
C215	C	-0.262705	-0.730576	0.900637
C216	C	0.070628	-0.397243	1.233970
H217	H	-0.616146	-0.976907	0.645799
H218	H	-0.282813	-0.643573	0.979133
H219	H	0.050520	-0.310240	1.312466
H220	H	-0.666807	-1.049470	0.645266
H221	H	-0.333473	-0.716136	0.978599
H222	H	-0.000140	-0.382803	1.311932
H223	H	-0.661682	-0.984926	0.573715
H224	H	-0.328349	-0.651592	0.907049
H225	H	0.004984	-0.318259	1.240382
H226	H	-0.572953	-1.093848	0.605173
H227	H	-0.239620	-0.760515	0.938506
H228	H	0.093713	-0.427182	1.271839
H229	H	-0.567815	-1.029295	0.533619
H230	H	-0.234481	-0.695962	0.866953
H231	H	0.098852	-0.362628	1.200286
H232	H	-1.007061	-1.282890	0.370013
H233	H	-0.673728	-0.949557	0.703346
H234	H	-0.340394	-0.616224	1.036679
H235	H	-1.125592	-1.080099	0.553068
H236	H	-0.792258	-0.746766	0.886401
H237	H	-0.458925	-0.413433	1.219734
C238	C	-1.093200	-1.347926	0.311394
C239	C	-0.759867	-1.014592	0.644727
C240	C	-0.426534	-0.681259	0.978061
C241	C	-1.135758	-1.298885	0.355683
C242	C	-0.802424	-0.965551	0.689016
C243	C	-0.469091	-0.632218	1.022350
H244	H	-1.115646	-1.385868	0.277166
H245	H	-0.782312	-1.052534	0.610499
H246	H	-0.448979	-0.719201	0.943832
H247	H	-1.070115	-1.377864	0.349252
H248	H	-0.736782	-1.044531	0.682585
H249	H	-0.403449	-0.711197	1.015918
H250	H	-1.064984	-1.313302	0.277717
H251	H	-0.731650	-0.979969	0.611051
H252	H	-0.398317	-0.646635	0.944384
H253	H	-1.163972	-1.333508	0.389365
H254	H	-0.830638	-1.000175	0.722698
H255	H	-0.497305	-0.666842	1.056031
H256	H	-1.158853	-1.268944	0.317821
H257	H	-0.825520	-0.935611	0.651154
H258	H	-0.492187	-0.602278	0.984487
H259	H	-1.006319	-1.080037	0.553033
H260	H	-0.672985	-0.746704	0.886366
H261	H	-0.339652	-0.413370	1.219699
H262	H	-0.421274	-0.693157	0.530651
H263	H	-0.087941	-0.359824	0.863984
H264	H	0.245393	-0.026491	1.197317
H265	H	-0.311209	-0.670373	0.392335
H266	H	0.022125	-0.337040	0.725668
H267	H	0.355458	-0.003706	1.059002
