data_functionalizedCrystal
_audit_creation_method	'MofGen! by Chris Wilmer'
_symmetry_space_group_name_H-M	'P1'
_symmetry_Int_Tables_number	1
_symmetry_cell_setting	triclinic
loop_
_symmetry_equiv_pos_as_xyz
  x,y,z
_cell_length_a	16.109301
_cell_length_b	15.944551
_cell_length_c	14.586319
_cell_angle_alpha	89.995256
_cell_angle_beta	89.999213
_cell_angle_gamma	83.480109
loop_
_atom_site_label
_atom_site_type_symbol
_atom_site_fract_x
_atom_site_fract_y
_atom_site_fract_z
O1	O	1.103166	0.107966	-0.076184
O2	O	0.861108	0.121403	-0.076199
O3	O	0.988747	-0.007593	-0.076183
O4	O	0.975527	0.236961	-0.076200
O5	O	0.988738	-0.007595	0.076298
O6	O	0.861099	0.121401	0.076282
O7	O	1.103157	0.107964	0.076296
Cu8	Cu	0.982127	0.114682	0.090212
Cu9	Cu	0.982138	0.114685	-0.090114
O10	O	0.975518	0.236960	0.076280
C11	C	0.830129	0.120857	0.000039
C12	C	0.737833	0.119226	0.000034
C13	C	0.988194	-0.038887	0.000057
C14	C	0.986548	-0.132133	0.000058
C15	C	0.515584	0.191975	0.000040
C16	C	0.428863	0.190435	0.000046
C17	C	0.448688	0.037387	0.000053
C18	C	0.535407	0.038927	0.000053
C19	C	0.568853	0.116224	0.000042
C20	C	0.395412	0.113143	0.000047
C21	C	0.301386	0.111473	0.000054
C22	C	0.662885	0.117894	0.000037
C23	C	0.903499	-0.346962	0.000040
C24	C	0.942060	-0.407993	0.075225
C25	C	0.983572	-0.302858	0.000051
C26	C	0.942088	-0.407975	-0.075109
C27	C	0.980691	-0.467769	0.000040
C28	C	1.022155	-0.362660	0.075297
C29	C	1.022171	-0.362636	-0.075104
C30	C	1.060790	-0.423649	0.000099
C31	C	0.985229	-0.207856	0.000058
C32	C	0.979039	-0.562770	0.000039
C33	C	1.134136	0.108510	0.000056
C34	C	1.226432	0.110141	0.000055
C35	C	0.976071	0.268254	0.000038
C36	C	0.977717	0.361500	0.000031
N37	N	0.982126	0.114680	0.217044
N38	N	0.982146	0.114680	-0.216946
C39	C	1.038663	0.057580	0.452057
C40	C	1.038666	0.057578	0.548038
C41	C	0.925602	0.171783	0.548034
C42	C	0.925597	0.171780	0.452054
C43	C	0.982132	0.114680	0.404068
C44	C	0.982140	0.114680	0.596029
C45	C	0.982142	0.114679	0.700096
C46	C	0.982129	0.114680	0.299995
H47	H	0.385495	0.252119	0.000045
O48	O	0.592868	-0.042781	0.000064
H49	H	0.632861	-0.045737	-0.062077
O50	O	0.864621	0.233364	0.400279
H51	H	0.875217	0.298852	0.418675
H52	H	0.908213	-0.428039	-0.138677
O53	O	0.412609	-0.045978	0.000056
H54	H	0.433999	-0.082375	0.062211
H55	H	1.127313	-0.456830	0.000145
H56	H	1.056013	-0.342516	-0.138666
H57	H	0.837035	-0.313632	0.000111
O58	O	0.864642	0.233380	0.599792
H59	H	0.799828	0.222662	0.581389
O60	O	0.551662	0.275340	0.000046
H61	H	0.500048	0.327755	0.000058
O62	O	0.897202	-0.434613	0.159421
H63	H	0.842619	-0.466674	0.138247
O64	O	1.066970	-0.336209	0.159593
H65	H	1.067806	-0.266699	0.158954
H66	H	1.084696	0.011085	0.412989
H67	H	1.084697	0.011082	0.587108
