data_functionalizedCrystal
_audit_creation_method	'MofGen! by Chris Wilmer'
_symmetry_space_group_name_H-M	'P1'
_symmetry_Int_Tables_number	1
_symmetry_cell_setting	triclinic
loop_
_symmetry_equiv_pos_as_xyz
  x,y,z
_cell_length_a	19.288864
_cell_length_b	13.339070
_cell_length_c	18.366186
_cell_angle_alpha	89.997828
_cell_angle_beta	89.977106
_cell_angle_gamma	99.382770
loop_
_atom_site_label
_atom_site_type_symbol
_atom_site_fract_x
_atom_site_fract_y
_atom_site_fract_z
O1	O	0.945923	0.126087	-0.060787
O2	O	1.445923	0.626087	0.439213
O3	O	0.746977	0.143095	-0.060738
O4	O	1.246977	0.643095	0.439262
O5	O	0.823618	-0.012569	-0.060755
O6	O	1.323618	0.487431	0.439245
O7	O	0.869283	0.281750	-0.060770
O8	O	1.369283	0.781750	0.439230
O9	O	0.823598	-0.012576	0.060345
O10	O	1.323598	0.487424	0.560345
O11	O	0.746958	0.143088	0.060362
O12	O	1.246958	0.643088	0.560362
O13	O	0.945904	0.126079	0.060312
O14	O	1.445904	0.626079	0.560312
Zn15	Zn	0.846427	0.134582	0.079564
Zn16	Zn	1.346427	0.634582	0.579564
Zn17	Zn	0.846453	0.134592	-0.079989
Zn18	Zn	1.346453	0.634592	0.420011
O19	O	0.869263	0.281743	0.060329
O20	O	1.369263	0.781743	0.560329
C21	C	0.720984	0.142544	-0.000182
C22	C	1.220984	0.642544	0.499818
C23	C	0.643560	0.140901	-0.000162
C24	C	1.143560	0.640901	0.499838
C25	C	0.815894	-0.050226	-0.000204
C26	C	1.315894	0.449774	0.499796
C27	C	0.792901	-0.162423	-0.000201
C28	C	1.292901	0.337577	0.499799
C29	C	0.616663	0.232238	-0.000179
C30	C	1.116663	0.732238	0.499821
C31	C	0.543915	0.230694	-0.000187
C32	C	1.043915	0.730694	0.499813
C33	C	0.498067	0.137809	-0.000193
C34	C	0.998067	0.637809	0.499807
C35	C	0.524972	0.046461	-0.000173
C36	C	1.024972	0.546461	0.499827
C37	C	0.597719	0.048007	-0.000157
C38	C	1.097719	0.548007	0.499843
C39	C	0.375583	0.064794	-0.042640
C40	C	0.875583	0.564794	0.457360
C41	C	0.302838	0.063252	-0.042660
C42	C	0.802838	0.563252	0.457340
C43	C	0.273691	0.133037	-0.000237
C44	C	0.773691	0.633037	0.499763
C45	C	0.317301	0.204382	0.042197
C46	C	0.817301	0.704382	0.542197
C47	C	0.390048	0.205928	0.042212
C48	C	0.890048	0.705928	0.542212
C49	C	0.419184	0.136123	-0.000209
C50	C	0.919184	0.636123	0.499791
C51	C	0.167913	0.222706	-0.000261
C52	C	0.667913	0.722706	0.499739
C53	C	0.095163	0.221159	-0.000264
C54	C	0.595163	0.721159	0.499736
C55	C	0.076222	0.036923	-0.000257
C56	C	0.576222	0.536923	0.499743
C57	C	0.148970	0.038473	-0.000247
C58	C	0.648970	0.538473	0.499753
C59	C	0.194812	0.131367	-0.000252
C60	C	0.694812	0.631367	0.499748
C61	C	0.971681	-0.528031	-0.000245
C62	C	1.471681	-0.028031	0.499755
C63	C	0.993286	-0.422617	-0.000244
C64	C	1.493286	0.077383	0.499756
C65	C	0.943192	-0.357563	-0.000233
C66	C	1.443192	0.142437	0.499767
C67	C	0.871489	-0.397934	-0.000224
C68	C	1.371489	0.102066	0.499776
C69	C	0.849881	-0.503359	-0.000220
C70	C	1.349881	-0.003359	0.499780
C71	C	0.821392	-0.332891	-0.000208
C72	C	1.321392	0.167109	0.499792
C73	C	0.749689	-0.373262	-0.000198
C74	C	1.249689	0.126738	0.499802
C75	C	0.728085	-0.478677	-0.000195
C76	C	1.228085	0.021323	0.499805
C77	C	0.778180	-0.543730	-0.000205
C78	C	1.278180	-0.043730	0.499795
C79	C	0.842999	-0.227467	-0.000212
C80	C	1.342999	0.272533	0.499788
C81	C	0.721199	-0.202795	-0.000187
C82	C	1.221199	0.297205	0.499813
C83	C	0.699594	-0.308209	-0.000188
C84	C	1.199594	0.191791	0.499812
C85	C	0.971897	0.126630	-0.000245
C86	C	1.471897	0.626630	0.499755
C87	C	1.049320	0.128273	-0.000269
C88	C	1.549320	0.628273	0.499731
C89	C	0.876987	0.319401	-0.000223
C90	C	1.376987	0.819401	0.499777
C91	C	0.899980	0.431598	-0.000231
C92	C	1.399980	0.931598	0.499769
N93	N	0.846415	0.134575	0.188455
N94	N	1.346415	0.634575	0.688455
N95	N	0.846470	0.134592	-0.188881
N96	N	1.346470	0.634592	0.311119
C97	C	0.880373	0.065680	0.226548
C98	C	1.380373	0.565680	0.726548
C99	C	0.880377	0.065676	0.302776
C100	C	1.380377	0.565676	0.802776
C101	C	0.846432	0.134583	0.340908
C102	C	1.346432	0.634583	0.840908
C103	C	0.812466	0.203482	0.302806
C104	C	1.312466	0.703482	0.802806
C105	C	0.812457	0.203478	0.226580
C106	C	1.312457	0.703478	0.726580
C107	C	0.855080	0.226676	0.461665
C108	C	1.355080	0.726676	0.961665
C109	C	0.855093	0.226682	0.537890
C110	C	1.355093	0.726682	1.037890
C111	C	0.846454	0.134596	0.576016
C112	C	1.346454	0.634596	1.076016
C113	C	0.837815	0.042500	0.537907
C114	C	1.337815	0.542500	1.037907
C115	C	0.837806	0.042496	0.461681
C116	C	1.337806	0.542496	0.961681
C117	C	0.846437	0.134595	0.423563
C118	C	1.346437	0.634595	0.923563
C119	C	0.880418	0.065691	0.696763
C120	C	1.380418	0.565691	1.196763
C121	C	0.880416	0.065685	0.772993
C122	C	1.380416	0.565685	1.272993
C123	C	0.812510	0.203500	0.773021
C124	C	1.312510	0.703500	1.273021
C125	C	0.812507	0.203497	0.696793
C126	C	1.312507	0.703497	1.196793
C127	C	0.846464	0.134594	0.658669
C128	C	1.346464	0.634594	1.158669
H129	H	0.653984	0.307880	-0.000184
H130	H	1.153984	0.807880	0.499816
H131	H	0.487638	-0.029167	-0.000188
H132	H	0.987638	0.470833	0.499812
O133	O	0.913424	-0.001113	0.339867
O134	O	1.413424	0.498887	0.839867
C135	C	0.966687	0.052869	0.383913
C136	C	1.466687	0.552869	0.883913
H137	H	0.954280	0.132061	0.395336
H138	H	1.454280	0.632061	0.895336
H139	H	0.969548	0.010645	0.437516
H140	H	1.469548	0.510645	0.937516
H141	H	1.019302	0.059552	0.354506
H142	H	1.519302	0.559552	0.854506
H143	H	0.784868	0.259602	0.804067
H144	H	1.284868	0.759602	1.304067
H145	H	0.960787	-0.271731	-0.000232
H146	H	1.460787	0.228269	0.499768
H147	H	0.293572	0.261207	0.076742
H148	H	0.793572	0.761207	0.576742
H149	H	0.830770	-0.032491	0.430656
H150	H	1.330770	0.467509	0.930656
H151	H	0.830780	-0.032485	0.568947
H152	H	1.330780	0.467515	1.068947
O153	O	0.212350	0.313027	-0.000226
O154	O	0.712350	0.813027	0.499774
C155	C	0.173006	0.393316	-0.000253
C156	C	0.673006	0.893316	0.499747
H157	H	0.118361	0.365207	0.022667
H158	H	0.618361	0.865207	0.522667
H159	H	0.200631	0.458184	0.034907
H160	H	0.700631	0.958184	0.534907
H161	H	0.168212	0.421481	-0.058352
H162	H	0.668212	0.921481	0.441648
O163	O	1.062913	-0.383286	-0.000354
O164	O	1.562913	0.116714	0.499646
C165	C	1.079073	-0.323059	-0.063084
C166	C	1.579073	0.176941	0.436916
H167	H	1.029441	-0.296548	-0.083983
H168	H	1.529441	0.203452	0.416017
H169	H	1.120040	-0.254155	-0.048987
H170	H	1.620040	0.245845	0.451013
H171	H	1.100805	-0.369772	-0.107008
H172	H	1.600805	0.130228	0.392992
O173	O	0.913403	-0.001344	0.659837
O174	O	1.413403	0.498656	1.159837
C175	C	0.943386	-0.062146	0.709809
C176	C	1.443386	0.437854	1.209809
H177	H	0.914714	-0.063181	0.764160
H178	H	1.414714	0.436819	1.264160
H179	H	0.938418	-0.142904	0.687789
H180	H	1.438418	0.357096	1.187789
H181	H	1.001269	-0.029520	0.717887
H182	H	1.501269	0.470480	1.217887
H183	H	0.908066	0.009578	0.804009
H184	H	1.408066	0.509578	1.304009
O185	O	0.863600	0.316114	0.574941
O186	O	1.363600	0.816114	1.074941
C187	C	0.924081	0.324056	0.619016
C188	C	1.424081	0.824056	1.119016
H189	H	0.961100	0.273509	0.596026
H190	H	1.461100	0.773509	1.096026
H191	H	0.951840	0.406324	0.619868
H192	H	1.451840	0.906324	1.119868
H193	H	0.908209	0.298760	0.676795
H194	H	1.408209	0.798760	1.176795
H195	H	1.012460	-0.581006	-0.000247
H196	H	1.512460	-0.081006	0.499753
H197	H	0.073266	0.295539	-0.000273
H198	H	0.573266	0.795539	0.499727
H199	H	0.784858	0.259602	0.665776
H200	H	1.284858	0.759602	1.165776
O201	O	0.757280	-0.646150	-0.000303
O202	O	1.257280	-0.146150	0.499697
C203	C	0.783465	-0.688119	-0.063039
C204	C	1.283465	-0.188119	0.436961
H205	H	0.831476	-0.634563	-0.083959
H206	H	1.331476	-0.134563	0.416041
H207	H	0.798951	-0.764711	-0.048942
H208	H	1.298951	-0.264711	0.451058
H209	H	0.741143	-0.699020	-0.106947
H210	H	1.241143	-0.199020	0.393053
H211	H	0.669700	-0.511543	-0.000182
H212	H	1.169700	-0.011543	0.499818
O213	O	0.779379	0.270273	0.189539
O214	O	1.279379	0.770273	0.689539
C215	C	0.726141	0.216303	0.145457
C216	C	1.226141	0.716303	0.645457
H217	H	0.709608	0.136597	0.168439
H218	H	1.209608	0.636597	0.668439
H219	H	0.678922	0.257748	0.144611
H220	H	1.178922	0.757748	0.644611
H221	H	0.746841	0.210923	0.087678
H222	H	1.246841	0.710923	0.587678
O223	O	0.629964	-0.347552	-0.000272
O224	O	1.129964	0.152448	0.499728
C225	C	0.613836	-0.407764	-0.062997
C226	C	1.113836	0.092236	0.437003
H227	H	0.663480	-0.434258	-0.083918
H228	H	1.163480	0.065742	0.416082
H229	H	0.572870	-0.476680	-0.048884
H230	H	1.072870	0.023320	0.451116
H231	H	0.592115	-0.361045	-0.106909
H232	H	1.092115	0.138955	0.393091
O233	O	0.863562	0.316072	0.424550
O234	O	1.363562	0.816072	0.924550
C235	C	0.924053	0.324006	0.380440
C236	C	1.424053	0.824006	0.880440
H237	H	0.936539	0.244855	0.369022
H238	H	1.436539	0.744855	0.869022
H239	H	0.914219	0.362427	0.326838
H240	H	1.414219	0.862427	0.826838
H241	H	0.970314	0.371150	0.409788
H242	H	1.470314	0.871150	0.909788
H243	H	0.170869	-0.035904	-0.000237
H244	H	0.670869	0.464096	0.499763
H245	H	0.522011	0.305074	-0.000198
H246	H	1.022011	0.805074	0.499802
H247	H	0.267337	0.005163	-0.077215
H248	H	0.767337	0.505163	0.422785
H249	H	0.399307	0.007964	-0.077190
H250	H	0.899307	0.507964	0.422810
O251	O	0.779437	0.270281	0.339925
O252	O	1.279437	0.770281	0.839925
C253	C	0.726185	0.216309	0.384037
C254	C	1.226185	0.716309	0.884037
H255	H	0.738592	0.137117	0.395452
H256	H	1.238592	0.637117	0.895452
H257	H	0.723342	0.258541	0.437639
H258	H	1.223342	0.758541	0.937639
H259	H	0.673562	0.209628	0.354690
H260	H	1.173562	0.709628	0.854690
O261	O	0.672624	-0.139469	-0.000212
O262	O	1.172624	0.360531	0.499788
C263	C	0.707069	-0.037768	-0.000203
C264	C	1.207069	0.462232	0.499797
H265	H	0.762362	-0.033974	-0.023141
H266	H	1.262362	0.466026	0.476859
H267	H	0.676396	0.010181	-0.035355
H268	H	1.176396	0.510181	0.464645
H269	H	0.710303	-0.007271	0.057894
H270	H	1.210303	0.492729	0.557894
H271	H	0.908021	0.009573	0.195510
H272	H	1.408021	0.509573	0.695510
H273	H	0.038893	-0.038706	-0.000308
H274	H	0.538893	0.461294	0.499692
H275	H	0.619617	-0.026373	-0.000144
H276	H	1.119617	0.473627	0.499856
H277	H	0.425551	0.264016	0.076765
H278	H	0.925551	0.764016	0.576765
O279	O	0.912626	-0.188136	-0.000324
O280	O	1.412626	0.311864	0.499676
C281	C	0.928785	-0.127912	-0.063055
C282	C	1.428785	0.372088	0.436945
H283	H	0.879153	-0.101401	-0.083954
H284	H	1.379153	0.398599	0.416046
H285	H	0.969752	-0.059007	-0.048960
H286	H	1.469752	0.440993	0.451040
H287	H	0.950517	-0.174627	-0.106978
H288	H	1.450517	0.325373	0.393022
