data_functionalizedCrystal
_audit_creation_method	'MofGen! by Chris Wilmer'
_symmetry_space_group_name_H-M	'P1'
_symmetry_Int_Tables_number	1
_symmetry_cell_setting	triclinic
loop_
_symmetry_equiv_pos_as_xyz
  x,y,z
_cell_length_a	27.440280
_cell_length_b	19.377372
_cell_length_c	19.377372
_cell_angle_alpha	86.406704
_cell_angle_beta	72.119206
_cell_angle_gamma	72.111215
loop_
_atom_site_label
_atom_site_type_symbol
_atom_site_fract_x
_atom_site_fract_y
_atom_site_fract_z
Zr1	Zr	0.641960	-0.172938	0.607395
O2	O	0.701967	-0.256287	0.524060
O3	O	0.553065	-0.147387	0.632930
O4	O	0.627517	-0.276190	0.652850
O5	O	0.648982	-0.025882	0.488439
O6	O	0.648984	-0.291891	0.754455
O7	O	0.627515	-0.127484	0.504140
O8	O	0.515803	-0.061485	0.718821
O9	O	0.782163	-0.256287	0.524073
O10	O	0.616348	-0.148208	0.719661
O11	O	0.616348	-0.060666	0.632117
O12	O	0.704005	-0.212315	0.655571
O13	O	0.704005	-0.124774	0.568027
Zr14	Zr	0.710434	-0.035937	0.744402
Zr15	Zr	0.676198	-0.197979	0.769443
Zr16	Zr	0.676196	-0.010896	0.582354
Zr17	Zr	0.769862	-0.172940	0.607415
Zr18	Zr	0.582532	-0.035936	0.744382
O19	O	0.799329	-0.061488	0.718867
O20	O	0.750649	-0.291892	0.754472
O21	O	0.750647	-0.025883	0.488455
O22	O	0.650426	0.047412	0.827737
O23	O	0.601746	-0.182992	0.863342
O24	O	0.601744	0.083017	0.597325
O25	O	0.703412	-0.182993	0.863358
O26	O	0.724877	0.067315	0.698947
O27	O	0.703410	0.083016	0.597342
O28	O	0.724878	-0.081392	0.847657
O29	O	0.809377	-0.276192	0.652879
O30	O	0.543016	0.067317	0.698917
O31	O	0.570231	0.047412	0.827724
O32	O	0.543017	-0.081390	0.847628
O33	O	0.809376	-0.127485	0.504169
O34	O	0.836591	-0.147390	0.632976
O35	O	0.648389	0.003440	0.696226
O36	O	0.648389	-0.084101	0.783770
O37	O	0.736046	-0.148209	0.719680
O38	O	0.736046	-0.060668	0.632136
C39	C	0.516210	-0.104436	0.675873
C40	C	0.461912	-0.104435	0.675864
C41	C	0.633371	-0.073115	0.473201
C42	C	0.618836	-0.062485	0.404407
C43	C	0.719022	0.098253	0.644577
C44	C	0.733556	0.167044	0.633946
C45	C	0.125185	-0.150130	0.721615
C46	C	0.074163	-0.150129	0.721622
O47	O	0.047767	-0.188972	0.760505
N48	N	0.048646	-0.104435	0.675925
C49	C	0.074151	-0.058733	0.630223
O50	O	0.047762	-0.019866	0.591355
C51	C	0.125171	-0.058731	0.630221
C52	C	0.150687	-0.104433	0.675916
C53	C	0.150701	-0.195828	0.767307
C54	C	0.201720	-0.195830	0.767300
C55	C	0.227222	-0.150133	0.721600
C56	C	0.201706	-0.104435	0.675908
C57	C	0.150673	-0.013026	0.584523
C58	C	0.201696	-0.013028	0.584525
C59	C	0.227213	-0.058730	0.630220
C60	C	0.278228	-0.058741	0.630201
N61	N	0.303744	-0.104435	0.675898
C62	C	0.278242	-0.150131	0.721598
C63	C	-0.032994	-0.058740	0.630232
C64	C	-0.084010	-0.058746	0.630230
C65	C	-0.083996	-0.150141	0.721630
C66	C	-0.032976	-0.150138	0.721628
C67	C	-0.007477	-0.104435	0.675930
C68	C	0.385386	-0.150132	0.721578
C69	C	0.436410	-0.150132	0.721564
C70	C	0.436390	-0.058734	0.630167
C71	C	0.385371	-0.058737	0.630177
C72	C	0.359869	-0.104438	0.675889
O73	O	0.304655	-0.019915	0.591340
O74	O	0.304635	-0.188985	0.760466
C75	C	0.836183	-0.104439	0.675924
C76	C	0.890481	-0.104440	0.675933
C77	C	0.633372	-0.307128	0.707220
C78	C	0.618838	-0.375919	0.717851
C79	C	0.552589	0.560599	0.766281
C80	C	0.566259	0.625229	0.756290
C81	C	0.657766	0.558296	0.689385
C82	C	0.644103	0.493659	0.699368
C83	C	0.591513	0.494817	0.737817
C84	C	0.683028	0.427878	0.670903
C85	C	0.669366	0.363246	0.680889
C86	C	0.616779	0.364397	0.719339
C87	C	0.577851	0.430186	0.747803
C88	C	0.735618	0.426721	0.632458
C89	C	0.774542	0.360939	0.603994
C90	C	0.760880	0.296307	0.613975
C91	C	0.708293	0.297457	0.652425
C92	C	0.799807	0.230517	0.585511
C93	C	0.786145	0.165886	0.595496
C94	C	0.694631	0.232826	0.662410
C95	C	0.799806	-0.194841	0.010886
C96	C	0.786136	-0.184842	-0.053748
C97	C	0.694629	-0.117919	0.013167
C98	C	0.708292	-0.127909	0.077807
C99	C	0.760881	-0.166371	0.076660
C100	C	0.669367	-0.099439	0.143582
C101	C	0.683028	-0.109432	0.208216
C102	C	0.735614	-0.147894	0.207077
C103	C	0.774542	-0.176364	0.141295
C104	C	0.616777	-0.060981	0.144728
C105	C	0.577852	-0.032511	0.210502
C106	C	0.591514	-0.042499	0.275138
C107	C	0.644100	-0.080962	0.273998
C108	C	0.552585	-0.014029	0.340919
C109	C	0.566247	-0.024022	0.405554
C110	C	0.657761	-0.090954	0.338633
C111	C	0.719023	-0.135760	0.878596
C112	C	0.733558	-0.146391	0.947390
C113	C	0.559037	-0.135758	0.878570
C114	C	0.519274	-0.146388	0.947355
C115	C	0.559035	0.098254	0.644551
C116	C	0.519271	0.167046	0.633912
C117	C	0.601861	0.066932	0.847248
C118	C	0.576633	0.125093	0.905403
C119	C	0.750532	-0.275807	0.504549
C120	C	0.775761	-0.333968	0.446394
C121	C	0.793357	-0.073117	0.473227
C122	C	0.833120	-0.062487	0.404442
C123	C	0.793359	-0.307129	0.707246
C124	C	0.833122	-0.375921	0.717885
C125	C	0.483874	-0.184850	0.946194
C126	C	0.446515	-0.194852	1.010821
C127	C	0.444554	-0.166388	1.076608
C128	C	0.479958	-0.127925	1.077767
C129	C	0.517319	-0.117927	1.013142
C130	C	0.517324	0.232821	0.662379
C131	C	0.479970	0.297465	0.652378
C132	C	0.444561	0.296332	0.613915
C133	C	0.446510	0.230550	0.585444
C134	C	0.483866	0.165908	0.595440
C135	C	0.564787	0.106710	0.978417
C136	C	0.541089	0.161351	1.033066
C137	C	0.529234	0.234376	1.014701
C138	C	0.541083	0.252759	0.941679
C139	C	0.564784	0.198118	0.887031
C140	C	0.787613	-0.315585	0.373380
C141	C	0.811327	-0.370226	0.318731
C142	C	0.823185	-0.443251	0.337096
C143	C	0.811333	-0.461634	0.410118
C144	C	0.787623	-0.406993	0.464766
C145	C	0.868524	-0.024032	0.405604
C146	C	0.905893	-0.014047	0.340980
C147	C	0.907856	-0.042514	0.275193
C148	C	0.872449	-0.080974	0.274033
C149	C	0.835083	-0.090962	0.338657
C150	C	0.868522	-0.374765	0.756353
C151	C	0.905882	-0.439398	0.766363
C152	C	0.907844	-0.505186	0.737901
C153	C	0.872439	-0.506341	0.699432
C154	C	0.835077	-0.441709	0.689427
H155	H	0.457185	-0.187351	0.758774
H156	H	0.842634	-0.226139	0.009947
Cl157	Cl	0.752793	0.507973	0.619906
Cl158	Cl	0.397581	-0.178960	1.157846
Cl159	Cl	0.865919	0.229071	0.537185
H160	H	0.938269	-0.557809	0.746053
Cl161	Cl	0.402010	-0.243203	1.009346
Cl162	Cl	0.477484	-0.092141	1.160477
Cl163	Cl	0.517324	0.707926	0.792100
H164	H	0.806256	-0.122273	0.337701
H165	H	0.546139	-0.086604	1.014097
Cl166	Cl	0.118652	-0.253288	0.824762
H167	H	0.414145	0.348972	0.605781
H168	H	0.746735	-0.156031	0.259708
Cl169	Cl	0.526195	0.138225	1.124857
H170	H	0.651806	0.233771	0.693712
H171	H	-0.012204	-0.187353	0.758837
H172	H	0.546153	0.233758	0.693698
Cl173	Cl	0.852991	-0.511935	0.268387
Cl174	Cl	0.840653	0.359492	0.555661
H175	H	0.478390	0.351020	0.675567
Cl176	Cl	0.118607	0.044435	0.527077
Cl177	Cl	0.866070	0.011758	0.488299
Cl178	Cl	0.401990	0.229137	0.537094
Cl179	Cl	-0.116067	-0.207586	0.779084
H180	H	0.531427	0.312222	0.926736
Cl181	Cl	0.579669	0.221242	0.795243
Cl182	Cl	0.772711	-0.223787	0.350273
H183	H	0.874042	-0.559915	0.676261
H184	H	0.866934	-0.321203	0.779531
H185	H	0.222456	0.024190	0.547310
H186	H	0.485444	0.112353	0.572260
H187	H	0.485468	-0.208040	0.892635
H188	H	-0.104778	-0.021538	0.593012
Cl189	Cl	0.950396	0.034307	0.342454
H190	H	0.364598	-0.021531	0.592960
H191	H	-0.012233	-0.021526	0.593011
H192	H	0.574435	0.047253	0.993384
H193	H	0.509763	0.561545	0.797583
Cl194	Cl	0.499436	0.303060	1.083410
H195	H	0.605655	-0.052852	0.092097
Cl196	Cl	0.353334	-0.207585	0.779045
Cl197	Cl	0.826220	-0.347100	0.226940
Cl198	Cl	0.628520	-0.069569	0.014600
Cl199	Cl	0.826240	-0.553440	0.433194
Cl200	Cl	0.790581	-0.443175	0.641056
H201	H	0.874053	-0.104149	0.220461
Cl202	Cl	0.950388	-0.437928	0.814720
H203	H	0.457164	-0.021532	0.592957
Cl204	Cl	0.772721	-0.430117	0.556554
H205	H	0.222492	-0.233042	0.804511
H206	H	0.535026	0.431132	0.779105
Cl207	Cl	0.723877	0.556849	0.641051
Cl208	Cl	0.599604	0.283145	0.731898
Cl209	Cl	0.835081	0.083184	0.559717
H210	H	0.700589	-0.122252	0.337694
H211	H	0.535034	-0.001197	0.211426
Cl212	Cl	0.840657	-0.224708	0.139856
Cl213	Cl	0.835076	-0.220645	-0.136437
H214	H	0.938284	-0.034376	0.222578
H215	H	0.534553	-0.000826	0.459109
Cl216	Cl	0.486475	0.034313	0.342352
