data_functionalizedCrystal
_audit_creation_method	'MofGen! by Chris Wilmer'
_symmetry_space_group_name_H-M	'P1'
_symmetry_Int_Tables_number	1
_symmetry_cell_setting	triclinic
loop_
_symmetry_equiv_pos_as_xyz
  x,y,z
_cell_length_a	12.837939
_cell_length_b	14.044220
_cell_length_c	11.295692
_cell_angle_alpha	85.771259
_cell_angle_beta	94.157927
_cell_angle_gamma	85.991242
loop_
_atom_site_label
_atom_site_type_symbol
_atom_site_fract_x
_atom_site_fract_y
_atom_site_fract_z
O1	O	-1.391626	0.242172	0.099017
O2	O	-1.088685	0.229898	0.099022
O3	O	-1.235609	0.097640	0.099008
O4	O	-1.244702	0.374430	0.099031
O5	O	-1.249206	0.110266	-0.099035
O6	O	-1.102282	0.242523	-0.099021
O7	O	-1.405223	0.254797	-0.099026
Cu8	Cu	-1.254994	0.249813	-0.117107
Cu9	Cu	-1.238914	0.234882	0.117102
O10	O	-1.258299	0.387055	-0.099012
C11	C	-1.056480	0.232064	0.000001
C12	C	-0.940259	0.219696	0.000002
C13	C	-1.238427	0.068279	-0.000014
C14	C	-1.226553	-0.038019	-0.000016
C15	C	-0.713049	0.368376	-0.000004
C16	C	-0.603849	0.356761	-0.000004
C17	C	-0.612658	0.184851	-0.000006
C18	C	-0.721858	0.196467	-0.000006
C19	C	-0.772049	0.288232	-0.000003
C20	C	-0.881251	0.299846	0.000005
C21	C	-0.890058	0.127938	-0.000006
C22	C	-0.780858	0.116322	-0.000005
C23	C	-1.204843	-0.232642	0.000002
C24	C	-1.289060	-0.282669	0.000004
C25	C	-1.276980	-0.390964	0.000014
C26	C	-1.216921	-0.124337	-0.000008
C27	C	-0.437429	0.252632	-0.000004
C28	C	-0.553649	0.265001	-0.000003
C29	C	-1.255481	0.416416	0.000013
C30	C	-1.267355	0.522714	0.000022
N31	N	-1.266312	0.260314	-0.281836
C32	C	-1.347946	0.335963	-0.468809
C33	C	-1.339360	0.328020	-0.344150
C34	C	-1.201842	0.200550	-0.344190
C35	C	-1.210428	0.208493	-0.468848
C36	C	-1.283483	0.276201	-0.531154
C37	C	-1.292074	0.284139	-0.655815
C38	C	-1.154552	0.156674	-0.655852
C39	C	-1.145966	0.148731	-0.531193
N40	N	-1.227604	0.224374	0.281832
H41	H	-0.922115	0.374567	0.000005
H42	H	-1.370227	-0.244172	0.000083
H43	H	-1.123677	-0.271143	0.000006
F44	F	-1.369827	0.356196	-0.722123
F45	F	-1.425706	0.408012	-0.535122
F46	F	-0.766468	0.466038	0.000013
F47	F	-1.407967	0.391630	-0.277803
F48	F	-1.124088	0.128505	-0.277860
F49	F	-0.541060	0.442062	-0.000008
F50	F	-0.559223	0.087196	-0.000022
F51	F	-1.068216	0.076678	-0.464870
F52	F	-0.727429	0.018664	-0.000012
F53	F	-1.085951	0.093058	-0.722212
H54	H	-0.938107	0.062678	0.000003
