data_functionalizedCrystal
_audit_creation_method	'MofGen! by Chris Wilmer'
_symmetry_space_group_name_H-M	'P1'
_symmetry_Int_Tables_number	1
_symmetry_cell_setting	triclinic
loop_
_symmetry_equiv_pos_as_xyz
  x,y,z
_cell_length_a	11.169417
_cell_length_b	12.827892
_cell_length_c	11.169409
_cell_angle_alpha	90.033086
_cell_angle_beta	90.019513
_cell_angle_gamma	90.016641
loop_
_atom_site_label
_atom_site_type_symbol
_atom_site_fract_x
_atom_site_fract_y
_atom_site_fract_z
Zn1	Zn	1.834920	-0.415914	0.678527
Zn2	Zn	2.084920	-0.165914	0.928527
Zn3	Zn	2.334920	0.084086	1.178527
Zn4	Zn	2.584920	0.334086	1.428527
Zn5	Zn	1.834792	-0.590701	0.477841
Zn6	Zn	2.084792	-0.340701	0.727841
Zn7	Zn	2.334792	-0.090701	0.977841
Zn8	Zn	2.584792	0.159299	1.227841
Zn9	Zn	1.634206	-0.415978	0.477862
Zn10	Zn	1.884206	-0.165978	0.727862
Zn11	Zn	2.134206	0.084022	0.977862
Zn12	Zn	2.384206	0.334022	1.227862
Zn13	Zn	1.634196	-0.590617	0.678487
Zn14	Zn	1.884196	-0.340617	0.928487
Zn15	Zn	2.134196	-0.090617	1.178487
Zn16	Zn	2.384196	0.159383	1.428487
O17	O	1.734528	-0.503303	0.578179
O18	O	1.984528	-0.253303	0.828179
O19	O	2.234528	-0.003303	1.078179
O20	O	2.484528	0.246697	1.328179
O21	O	2.002853	-0.439108	0.651913
O22	O	2.252853	-0.189108	0.901913
O23	O	2.502853	0.060892	1.151913
O24	O	2.752853	0.310892	1.401913
O25	O	1.808134	-0.567586	0.309894
O26	O	2.058134	-0.317586	0.559894
O27	O	2.308134	-0.067586	0.809894
O28	O	2.558134	0.182414	1.059894
O29	O	1.660889	-0.269734	0.504506
O30	O	1.910889	-0.019734	0.754506
O31	O	2.160889	0.230266	1.004506
O32	O	2.410889	0.480266	1.254506
O33	O	2.002759	-0.567523	0.504470
O34	O	2.252759	-0.317523	0.754470
O35	O	2.502759	-0.067523	1.004470
O36	O	2.752759	0.182477	1.254470
O37	O	1.808353	-0.269686	0.651933
O38	O	2.058353	-0.019686	0.901933
O39	O	2.308353	0.230314	1.151933
O40	O	2.558353	0.480314	1.401933
O41	O	1.660765	-0.439218	0.309909
O42	O	1.910765	-0.189218	0.559909
O43	O	2.160765	0.060782	0.809909
O44	O	2.410765	0.310782	1.059909
O45	O	1.466255	-0.439137	0.504468
O46	O	1.716255	-0.189137	0.754468
O47	O	1.966255	0.060863	1.004468
O48	O	2.216255	0.310863	1.254468
O49	O	1.660872	-0.567380	0.846442
O50	O	1.910872	-0.317380	1.096442
O51	O	2.160872	-0.067380	1.346442
O52	O	2.410872	0.182620	1.596442
O53	O	1.466248	-0.567443	0.651866
O54	O	1.716248	-0.317443	0.901866
O55	O	1.966248	-0.067443	1.151866
O56	O	2.216248	0.182557	1.401866
O57	O	1.808343	-0.439026	0.846471
O58	O	2.058343	-0.189026	1.096471
O59	O	2.308343	0.060974	1.346471
O60	O	2.558343	0.310974	1.596471
O61	O	1.808124	-0.736926	0.504431
O62	O	2.058124	-0.486926	0.754431
O63	O	2.308124	-0.236926	1.004431
O64	O	2.558124	0.013074	1.254431
O65	O	1.660747	-0.736864	0.651845
O66	O	1.910747	-0.486864	0.901845
O67	O	2.160747	-0.236864	1.151845
O68	O	2.410747	0.013136	1.401845
C69	C	1.422704	-0.503288	0.578165
C70	C	1.672704	-0.253288	0.828165
C71	C	1.922704	-0.003288	1.078165
C72	C	2.172704	0.246712	1.328165
C73	C	1.289304	-0.503308	0.578188
C74	C	1.539304	-0.253308	0.828188
C75	C	1.789304	-0.003308	1.078188
C76	C	2.039304	0.246692	1.328188
C77	C	1.734453	-0.774812	0.578158
C78	C	1.984453	-0.524812	0.828158
C79	C	2.234453	-0.274812	1.078158
C80	C	2.484453	-0.024812	1.328158
C81	C	1.734531	-0.890966	0.578189
C82	C	1.984531	-0.640966	0.828189
C83	C	2.234531	-0.390966	1.078189
C84	C	2.484531	-0.140966	1.328189
C85	C	1.807544	-0.942746	0.505325
C86	C	2.057544	-0.692746	0.755325
C87	C	2.307544	-0.442746	1.005325
C88	C	2.557544	-0.192746	1.255325
C89	C	1.807626	-1.062796	0.505355
C90	C	2.057626	-0.812796	0.755355
C91	C	2.307626	-0.562796	1.005355
C92	C	2.557626	-0.312796	1.255355
C93	C	2.047571	-0.503317	0.578194
C94	C	2.297571	-0.253317	0.828194
C95	C	2.547571	-0.003317	1.078194
C96	C	2.797571	0.246683	1.328194
C97	C	2.180971	-0.503324	0.578200
C98	C	2.430971	-0.253324	0.828200
C99	C	2.680971	-0.003324	1.078200
C100	C	2.930971	0.246676	1.328200
C101	C	1.734621	-0.503186	0.891222
C102	C	1.984621	-0.253186	1.141222
C103	C	2.234621	-0.003186	1.391222
C104	C	2.484621	0.246814	1.641222
C105	C	1.734660	-0.503137	1.024622
C106	C	1.984660	-0.253137	1.274622
C107	C	2.234660	-0.003137	1.524622
C108	C	2.484660	0.246863	1.774622
C109	C	1.734637	-0.230732	0.578227
C110	C	1.984637	0.019268	0.828227
C111	C	2.234637	0.269268	1.078227
C112	C	2.484637	0.519268	1.328227
C113	C	1.734683	-0.114579	0.578247
C114	C	1.984683	0.135421	0.828247
C115	C	2.234683	0.385421	1.078247
C116	C	2.484683	0.635421	1.328247
C117	C	1.734506	-0.503343	0.266354
C118	C	1.984506	-0.253343	0.516354
C119	C	2.234506	-0.003343	0.766354
C120	C	2.484506	0.246657	1.016354
C121	C	1.734699	-0.503098	0.132955
C122	C	1.984699	-0.253098	0.382955
C123	C	2.234699	-0.003098	0.632955
C124	C	2.484699	0.246902	0.882955
H125	H	1.870133	-1.107327	0.442971
H126	H	2.120133	-0.857327	0.692971
H127	H	2.370133	-0.607327	0.942971
H128	H	2.620133	-0.357327	1.192971
H129	H	1.672165	-1.070057	0.640627
H130	H	1.922165	-0.820057	0.890627
H131	H	2.172165	-0.570057	1.140627
H132	H	2.422165	-0.320057	1.390627
N133	N	1.651802	-0.949951	0.660859
N134	N	1.901802	-0.699951	0.910859
N135	N	2.151802	-0.449951	1.160859
N136	N	2.401802	-0.199951	1.410859
H137	H	1.700623	-0.995161	0.716486
H138	H	1.950623	-0.745161	0.966486
H139	H	2.200623	-0.495161	1.216486
H140	H	2.450623	-0.245161	1.466486
H141	H	1.596302	-0.995253	0.611918
H142	H	1.846302	-0.745253	0.861918
H143	H	2.096302	-0.495253	1.111918
H144	H	2.346302	-0.245253	1.361918
H145	H	1.869999	-0.898203	0.442924
H146	H	2.119999	-0.648203	0.692924
H147	H	2.369999	-0.398203	0.942924
H148	H	2.619999	-0.148203	1.192924
