data_functionalizedCrystal
_audit_creation_method	'MofGen! by Chris Wilmer'
_symmetry_space_group_name_H-M	'P1'
_symmetry_Int_Tables_number	1
_symmetry_cell_setting	triclinic
loop_
_symmetry_equiv_pos_as_xyz
  x,y,z
_cell_length_a	12.827893
_cell_length_b	12.827892
_cell_length_c	12.827885
_cell_angle_alpha	90.026888
_cell_angle_beta	90.020999
_cell_angle_gamma	90.015540
loop_
_atom_site_label
_atom_site_type_symbol
_atom_site_fract_x
_atom_site_fract_y
_atom_site_fract_z
Zn1	Zn	-1.597656	0.416032	-0.590918
Zn2	Zn	-1.097656	0.916032	-0.090918
Zn3	Zn	-1.597544	0.590810	-0.416187
Zn4	Zn	-1.097544	1.090810	0.083813
Zn5	Zn	-1.422897	0.416078	-0.416186
Zn6	Zn	-0.922897	0.916078	0.083814
Zn7	Zn	-1.422876	0.590727	-0.590882
Zn8	Zn	-0.922876	1.090727	-0.090882
O9	O	-1.510243	0.503412	-0.503543
O10	O	-1.010243	1.003412	-0.003543
O11	O	-1.743877	0.439233	-0.567755
O12	O	-1.243877	0.939233	-0.067755
O13	O	-1.574338	0.567685	-0.269951
O14	O	-1.074338	1.067685	0.230049
O15	O	-1.446134	0.269836	-0.439380
O16	O	-0.946134	0.769836	0.060620
O17	O	-1.743795	0.567641	-0.439381
O18	O	-1.243795	1.067641	0.060619
O19	O	-1.574529	0.269802	-0.567754
O20	O	-1.074529	0.769802	-0.067754
O21	O	-1.446026	0.439310	-0.269950
O22	O	-0.946026	0.939310	0.230050
O23	O	-1.276658	0.439230	-0.439344
O24	O	-0.776658	0.939230	0.060656
O25	O	-1.446099	0.567499	-0.737123
O26	O	-0.946099	1.067499	-0.237123
O27	O	-1.276643	0.567543	-0.567693
O28	O	-0.776643	1.067543	-0.067693
O29	O	-1.574509	0.439152	-0.737149
O30	O	-1.074509	0.939152	-0.237149
O31	O	-1.574318	0.737035	-0.439346
O32	O	-1.074318	1.237035	0.060654
O33	O	-1.445991	0.736974	-0.567693
O34	O	-0.945991	1.236974	-0.067693
C35	C	-1.238733	0.503383	-0.503515
C36	C	-0.738733	1.003383	-0.003515
C37	C	-1.122580	0.503396	-0.503528
C38	C	-0.622580	1.003396	-0.003528
C39	C	-1.510169	0.774922	-0.503538
C40	C	-1.010169	1.274922	-0.003538
C41	C	-1.510232	0.891075	-0.503571
C42	C	-1.010232	1.391075	-0.003571
C43	C	-1.070775	0.439816	-0.440128
C44	C	-0.570775	0.939816	0.059872
C45	C	-0.950725	0.439828	-0.440140
C46	C	-0.450725	0.939828	0.059860
C47	C	-0.782813	0.503432	-0.503564
C48	C	-0.282813	1.003432	-0.003564
C49	C	-0.898966	0.503419	-0.503551
C50	C	-0.398966	1.003419	-0.003551
C51	C	-1.573806	0.942855	-0.440134
C52	C	-1.073806	1.442855	0.059866
C53	C	-1.573874	1.062905	-0.440167
C54	C	-1.073874	1.562905	0.059833
C55	C	-1.510314	0.503311	-0.776113
C56	C	-1.010314	1.003311	-0.276113
C57	C	-1.510345	0.503269	-0.892267
C58	C	-1.010345	1.003269	-0.392267
C59	C	-1.510338	1.230841	-0.503583
C60	C	-1.010338	1.730841	-0.003583
C61	C	-1.510357	1.114688	-0.503633
C62	C	-1.010357	1.614688	-0.003633
C63	C	-1.573893	0.439746	-0.944065
C64	C	-1.073893	0.939746	-0.444065
C65	C	-1.573925	0.439700	-1.064115
C66	C	-1.073925	0.939700	-0.564115
C67	C	-1.510232	0.503436	-0.232033
C68	C	-1.010232	1.003436	0.267967
C69	C	-1.510405	0.503185	-0.115881
C70	C	-1.010405	1.003185	0.384119
H71	H	-0.906174	0.385391	-0.385865
H72	H	-0.406174	0.885391	0.114135
H73	H	-1.455858	0.935620	-0.557911
H74	H	-0.955858	1.435620	-0.057911
N75	N	-0.957956	0.575533	-0.575458
N76	N	-0.457956	1.075533	-0.075458
H77	H	-1.003272	0.533079	-0.623912
H78	H	-0.503272	1.033079	-0.123912
H79	H	-1.003152	0.623851	-0.532789
H80	H	-0.503152	1.123851	-0.032789
H81	H	-1.078055	0.557841	-0.557812
H82	H	-0.578055	1.057841	-0.057812
N83	N	-1.645991	0.367645	-1.123101
N84	N	-1.145991	0.867645	-0.623101
H85	H	-1.720664	0.383869	-1.104166
H86	H	-1.220664	0.883869	-0.604166
H87	H	-1.635712	0.377851	-1.200480
H88	H	-1.135712	0.877851	-0.700480
N89	N	-1.438324	0.575234	-1.056906
N90	N	-0.938324	1.075234	-0.556906
H91	H	-1.480798	0.623647	-1.011619
H92	H	-0.980798	1.123647	-0.511619
H93	H	-1.389952	0.532665	-1.011681
H94	H	-0.889952	1.032665	-0.511681
N95	N	-1.129740	0.367703	-0.368207
N96	N	-0.629740	0.867703	0.131793
H97	H	-1.207142	0.377917	-0.378392
H98	H	-0.707142	0.877917	0.121608
H99	H	-1.110738	0.293072	-0.384581
H100	H	-0.610738	0.793072	0.115419
N101	N	-1.645850	0.883863	-0.368164
N102	N	-1.145850	1.383863	0.131836
H103	H	-1.635592	0.806465	-0.378345
H104	H	-1.135592	1.306465	0.121655
H105	H	-1.629657	0.902952	-0.293502
H106	H	-1.129657	1.402952	0.206498
N107	N	-1.645937	0.367756	-0.885088
N108	N	-1.145937	0.867756	-0.385088
H109	H	-1.688352	0.325359	-0.936149
H110	H	-1.188352	0.825359	-0.436149
H111	H	-1.603366	0.319447	-0.839802
H112	H	-1.103366	0.819447	-0.339802
H113	H	-1.455956	0.557612	-0.936797
H114	H	-0.955956	1.057612	-0.436797
N115	N	-1.645965	1.121878	-0.368210
N116	N	-1.145965	1.621878	0.131790
H117	H	-1.635791	1.199278	-0.378429
H118	H	-1.135791	1.699278	0.121571
H119	H	-1.720598	1.102785	-0.384517
H120	H	-1.220598	1.602785	0.115483
H121	H	-1.455921	1.070166	-0.557943
H122	H	-0.955921	1.570166	-0.057943
