data_functionalizedCrystal
_audit_creation_method	'MofGen! by Chris Wilmer'
_symmetry_space_group_name_H-M	'P1'
_symmetry_Int_Tables_number	1
_symmetry_cell_setting	triclinic
loop_
_symmetry_equiv_pos_as_xyz
  x,y,z
_cell_length_a	18.050591
_cell_length_b	18.050590
_cell_length_c	11.169409
_cell_angle_alpha	90.037983
_cell_angle_beta	90.028021
_cell_angle_gamma	90.015000
loop_
_atom_site_label
_atom_site_type_symbol
_atom_site_fract_x
_atom_site_fract_y
_atom_site_fract_z
Zn1	Zn	1.135403	-0.295670	0.678758
Zn2	Zn	1.468736	0.037664	1.012091
Zn3	Zn	1.802070	0.370997	1.345425
Zn4	Zn	1.135317	-0.419885	0.478055
Zn5	Zn	1.468650	-0.086551	0.811388
Zn6	Zn	1.801983	0.246782	1.144722
Zn7	Zn	1.011204	-0.295705	0.478064
Zn8	Zn	1.344538	0.037628	0.811397
Zn9	Zn	1.677871	0.370961	1.144730
Zn10	Zn	1.011191	-0.419815	0.678671
Zn11	Zn	1.344524	-0.086481	1.012005
Zn12	Zn	1.677858	0.246852	1.345338
O13	O	1.073279	-0.357769	0.578387
O14	O	1.406612	-0.024435	0.911720
O15	O	1.739945	0.308898	1.245054
O16	O	1.239316	-0.312161	0.652167
O17	O	1.572649	0.021172	0.985500
O18	O	1.905983	0.354505	1.318834
O19	O	1.118822	-0.403456	0.310106
O20	O	1.452156	-0.070123	0.643440
O21	O	1.785489	0.263210	0.976773
O22	O	1.027721	-0.191776	0.504726
O23	O	1.361054	0.141557	0.838059
O24	O	1.694388	0.474891	1.171393
O25	O	1.239253	-0.403422	0.504712
O26	O	1.572586	-0.070088	0.838045
O27	O	1.905919	0.263245	1.171378
O28	O	1.118969	-0.191750	0.652175
O29	O	1.452303	0.141584	0.985509
O30	O	1.785636	0.474917	1.318842
O31	O	1.027637	-0.312222	0.310113
O32	O	1.360971	0.021111	0.643446
O33	O	1.694304	0.354444	0.976779
O34	O	0.907278	-0.312154	0.504642
O35	O	1.240611	0.021179	0.837975
O36	O	1.573945	0.354512	1.171309
O37	O	1.027699	-0.403302	0.846633
O38	O	1.361032	-0.069969	1.179966
O39	O	1.694365	0.263364	1.513299
O40	O	0.907268	-0.403337	0.652028
O41	O	1.240602	-0.070004	0.985361
O42	O	1.573935	0.263330	1.318694
O43	O	1.118957	-0.312093	0.846696
O44	O	1.452290	0.021240	1.180030
O45	O	1.785623	0.354573	1.513363
O46	O	1.118810	-0.523800	0.504627
O47	O	1.452143	-0.190467	0.837961
O48	O	1.785476	0.142867	1.171294
O49	O	1.027615	-0.523748	0.652019
O50	O	1.360948	-0.190415	0.985353
O51	O	1.694282	0.142918	1.318686
C52	C	0.880327	-0.357742	0.578327
C53	C	1.213660	-0.024409	0.911660
C54	C	1.546993	0.308924	1.244994
C55	C	0.797781	-0.357749	0.578330
C56	C	1.131114	-0.024416	0.911663
C57	C	1.464448	0.308918	1.244996
C58	C	1.073222	-0.550721	0.578339
C59	C	1.406555	-0.217387	0.911673
C60	C	1.739888	0.115946	1.245006
C61	C	1.073265	-0.633266	0.578359
C62	C	1.406599	-0.299933	0.911692
C63	C	1.739932	0.033400	1.245026
C64	C	0.548939	-0.308113	0.498371
C65	C	0.882272	0.025221	0.831704
C66	C	1.215606	0.358554	1.165038
C67	C	0.598378	-0.290014	0.607903
C68	C	0.931711	0.043319	0.941236
C69	C	1.265044	0.376652	1.274569
C70	C	0.500661	-0.357787	0.578428
C71	C	0.833994	-0.024454	0.911761
C72	C	1.167327	0.308880	1.245095
C73	C	0.598303	-0.375832	0.468854
C74	C	0.931637	-0.042498	0.802188
C75	C	1.264970	0.290835	1.135521
C76	C	0.646646	-0.357767	0.578374
C77	C	0.979979	-0.024433	0.911707
C78	C	1.313312	0.308900	1.245041
C79	C	0.549012	-0.339654	0.688018
C80	C	0.882345	-0.006320	1.021351
C81	C	1.215679	0.327013	1.354685
C82	C	0.548933	-0.425503	0.548896
C83	C	0.882267	-0.092169	0.882229
C84	C	1.215600	0.241164	1.215562
C85	C	0.598350	-0.407430	0.658503
C86	C	0.931683	-0.074097	0.991836
C87	C	1.265016	0.259237	1.325169
C88	C	0.416562	-0.357797	0.578458
C89	C	0.749896	-0.024464	0.911791
C90	C	1.083229	0.308870	1.245124
C91	C	0.730742	-0.357757	0.578357
C92	C	1.064075	-0.024423	0.911690
C93	C	1.397409	0.308910	1.245023
C94	C	1.122960	-0.832718	0.498319
C95	C	1.456293	-0.499385	0.831652
C96	C	1.789627	-0.166051	1.164986
C97	C	1.141105	-0.882040	0.607859
C98	C	1.474439	-0.548707	0.941193
C99	C	1.807772	-0.215374	1.274526
C100	C	1.073307	-0.784397	0.578407
C101	C	1.406641	-0.451063	0.911740
C102	C	1.739974	-0.117730	1.245073
C103	C	1.055238	-0.882156	0.468916
C104	C	1.388571	-0.548823	0.802249
C105	C	1.721904	-0.215489	1.135583
C106	C	1.073350	-0.930382	0.578443
C107	C	1.406683	-0.597049	0.911777
C108	C	1.740016	-0.263715	1.245110
C109	C	1.091487	-0.832632	0.688005
C110	C	1.424821	-0.499299	1.021338
C111	C	1.758154	-0.165965	1.354671
C112	C	1.005588	-0.832743	0.548987
C113	C	1.338922	-0.499410	0.882321
C114	C	1.672255	-0.166076	1.215654
C115	C	1.023708	-0.882043	0.658603
C116	C	1.357041	-0.548710	0.991936
C117	C	1.690375	-0.215377	1.325270
C118	C	1.073285	-0.700298	0.578384
C119	C	1.406618	-0.366965	0.911717
C120	C	1.739952	-0.033632	1.245051
C121	C	1.073372	-1.014478	0.578478
C122	C	1.406705	-0.681145	0.911812
C123	C	1.740038	-0.347812	1.245145
C124	C	1.266984	-0.357795	0.578448
C125	C	1.600318	-0.024462	0.911781
C126	C	1.933651	0.308871	1.245115
C127	C	1.349530	-0.357807	0.578474
C128	C	1.682863	-0.024473	0.911807
C129	C	2.016197	0.308860	1.245141
C130	C	1.073336	-0.357686	0.891430
C131	C	1.406669	-0.024353	1.224763
C132	C	1.740002	0.308981	1.558096
C133	C	1.073360	-0.357651	1.024830
C134	C	1.406693	-0.024318	1.358163
C135	C	1.740027	0.309016	1.691496
C136	C	1.073356	-0.164063	0.578461
C137	C	1.406690	0.169270	0.911795
C138	C	1.740023	0.502604	1.245128
C139	C	1.073389	-0.081517	0.578493
C140	C	1.406723	0.251816	0.911826
C141	C	1.740056	0.585150	1.245160
C142	C	1.073265	-0.357797	0.266562
C143	C	1.406598	-0.024464	0.599896
C144	C	1.739931	0.308870	0.933229
C145	C	1.073384	-0.357623	0.133163
C146	C	1.406718	-0.024290	0.466496
C147	C	1.740051	0.309044	0.799830
H148	H	0.527246	-0.266082	0.430776
H149	H	0.860579	0.067252	0.764109
H150	H	1.193913	0.400585	1.097443
H151	H	1.198392	-0.903697	0.632766
H152	H	1.531725	-0.570363	0.966099
H153	H	1.865059	-0.237030	1.299433
H154	H	1.106731	-0.810971	0.780694
H155	H	1.440065	-0.477638	1.114028
H156	H	1.773398	-0.144305	1.447361
H157	H	1.039937	-0.903909	0.376306
H158	H	1.373270	-0.570575	0.709639
H159	H	1.706604	-0.237242	1.042972
H160	H	0.620083	-0.232737	0.632881
H161	H	0.953416	0.100596	0.966214
H162	H	1.286749	0.433929	1.299547
Cl163	Cl	1.187807	-0.799275	0.393860
Cl164	Cl	1.521140	-0.465942	0.727193
Cl165	Cl	1.854473	-0.132608	1.060526
Cl166	Cl	0.515726	-0.315971	0.831093
Cl167	Cl	0.849059	0.017362	1.164426
Cl168	Cl	1.182393	0.350695	1.497759
Cl169	Cl	0.631635	-0.472276	0.763108
Cl170	Cl	0.964968	-0.138942	1.096441
Cl171	Cl	1.298302	0.194391	1.429774
Cl172	Cl	0.958907	-0.915276	0.763309
Cl173	Cl	1.292240	-0.581943	1.096642
Cl174	Cl	1.625574	-0.248609	1.429976
Cl175	Cl	0.631736	-0.399410	0.325824
Cl176	Cl	0.965070	-0.066076	0.659157
Cl177	Cl	1.298403	0.267257	0.992491
Cl178	Cl	0.515371	-0.513904	0.510302
Cl179	Cl	0.848705	-0.180571	0.843635
Cl180	Cl	1.182038	0.152763	1.176969
Cl181	Cl	0.917164	-0.799285	0.510487
Cl182	Cl	1.250497	-0.465952	0.843821
Cl183	Cl	1.583831	-0.132619	1.177154
