data_functionalizedCrystal
_audit_creation_method	'MofGen! by Chris Wilmer'
_symmetry_space_group_name_H-M	'P1'
_symmetry_Int_Tables_number	1
_symmetry_cell_setting	triclinic
loop_
_symmetry_equiv_pos_as_xyz
  x,y,z
_cell_length_a	19.077105
_cell_length_b	29.839131
_cell_length_c	19.076919
_cell_angle_alpha	87.732541
_cell_angle_beta	89.923776
_cell_angle_gamma	87.737628
loop_
_atom_site_label
_atom_site_type_symbol
_atom_site_fract_x
_atom_site_fract_y
_atom_site_fract_z
Zn1	Zn	1.058171	-0.217337	0.440392
Zn2	Zn	1.391504	0.115996	0.773725
Zn3	Zn	1.724837	0.449330	1.107059
Zn4	Zn	1.062777	-0.289569	0.322877
Zn5	Zn	1.396111	0.043764	0.656210
Zn6	Zn	1.729444	0.377097	0.989543
Zn7	Zn	0.945391	-0.211319	0.318186
Zn8	Zn	1.278724	0.122015	0.651520
Zn9	Zn	1.612058	0.455348	0.984853
Zn10	Zn	0.940599	-0.289298	0.435629
Zn11	Zn	1.273932	0.044035	0.768963
Zn12	Zn	1.607266	0.377368	1.102296
O13	O	1.001735	-0.251881	0.379271
O14	O	1.335068	0.081452	0.712604
O15	O	1.668401	0.414786	1.045938
O16	O	1.157112	-0.229551	0.428760
O17	O	1.490446	0.103783	0.762093
O18	O	1.823779	0.437116	1.095426
O19	O	1.051139	-0.276784	0.223924
O20	O	1.384472	0.056549	0.557257
O21	O	1.717806	0.389883	0.890590
O22	O	0.960429	-0.149253	0.334427
O23	O	1.293762	0.184081	0.667761
O24	O	1.627096	0.517414	1.001094
O25	O	1.160497	-0.282620	0.342422
O26	O	1.493830	0.050714	0.675755
O27	O	1.827163	0.384047	1.009088
O28	O	1.043288	-0.153674	0.424211
O29	O	1.376621	0.179659	0.757545
O30	O	1.709954	0.512992	1.090878
O31	O	0.964896	-0.219294	0.220477
O32	O	1.298229	0.114040	0.553811
O33	O	1.631563	0.447373	0.887144
O34	O	0.846425	-0.219031	0.329809
O35	O	1.179758	0.114302	0.663142
O36	O	1.513092	0.447636	0.996476
O37	O	0.952262	-0.282158	0.534592
O38	O	1.285595	0.051175	0.867926
O39	O	1.618928	0.384509	1.201259
O40	O	0.842904	-0.276322	0.416094
O41	O	1.176238	0.057011	0.749427
O42	O	1.509571	0.390344	1.082761
O43	O	1.038641	-0.229288	0.538091
O44	O	1.371974	0.104045	0.871425
O45	O	1.705308	0.437379	1.204758
O46	O	1.046493	-0.352398	0.337803
O47	O	1.379826	-0.019065	0.671137
O48	O	1.713159	0.314269	1.004470
O49	O	0.956729	-0.352199	0.420642
O50	O	1.290062	-0.018865	0.753976
O51	O	1.623395	0.314468	1.087309
C52	C	0.819169	-0.246995	0.371926
C53	C	1.152502	0.086339	0.705260
C54	C	1.485835	0.419672	1.038593
C55	C	0.741065	-0.244915	0.368801
C56	C	1.074399	0.088418	0.702134
C57	C	1.407732	0.421751	1.035467
C58	C	1.001609	-0.368599	0.379231
C59	C	1.334942	-0.035266	0.712565
C60	C	1.668276	0.298067	1.045898
C61	C	1.001619	-0.418534	0.379240
C62	C	1.334952	-0.085201	0.712574
C63	C	1.668285	0.248133	1.045907
C64	C	0.702560	-0.273809	0.412186
C65	C	1.035894	0.059525	0.745519
C66	C	1.369227	0.392858	1.078852
C67	C	0.629174	-0.271849	0.409252
C68	C	0.962507	0.061484	0.742586
C69	C	1.295841	0.394817	1.075919
C70	C	0.594294	-0.240998	0.362930
C71	C	0.927627	0.092335	0.696263
C72	C	1.260961	0.425668	1.029596
C73	C	0.632804	-0.212102	0.319543
C74	C	0.966137	0.121231	0.652876
C75	C	1.299471	0.454565	0.986210
C76	C	0.706189	-0.214059	0.322481
C77	C	1.039522	0.119274	0.655814
C78	C	1.372856	0.452607	0.989147
C79	C	0.375011	-0.231938	0.349338
C80	C	0.708344	0.101395	0.682672
C81	C	1.041678	0.434728	1.016005
C82	C	0.301621	-0.229984	0.346403
C83	C	0.634954	0.103349	0.679736
C84	C	0.968287	0.436683	1.013069
C85	C	0.297996	-0.289731	0.436113
C86	C	0.631329	0.043602	0.769446
C87	C	0.964662	0.376936	1.102780
C88	C	0.371382	-0.291688	0.439043
C89	C	0.704716	0.041646	0.772377
C90	C	1.038049	0.374979	1.105710
C91	C	0.409886	-0.262790	0.395659
C92	C	0.743219	0.070544	0.728993
C93	C	1.076553	0.403877	1.062326
N94	N	0.519281	-0.238996	0.359929
N95	N	0.852615	0.094338	0.693262
N96	N	1.185948	0.427671	1.026595
N97	N	0.484897	-0.264790	0.398664
N98	N	0.818230	0.068543	0.731998
N99	N	1.151564	0.401876	1.065331
C100	C	1.048554	-0.728276	0.336206
C101	C	1.381887	-0.394943	0.669539
C102	C	1.715220	-0.061609	1.002873
C103	C	1.048639	-0.915952	0.336237
C104	C	1.381973	-0.582619	0.669570
C105	C	1.715306	-0.249285	1.002903
O106	O	1.088445	-0.940297	0.299616
O107	O	1.421779	-0.606964	0.632950
O108	O	1.755112	-0.273631	0.966283
N109	N	1.001878	-0.939328	0.379330
N110	N	1.335211	-0.605995	0.712663
N111	N	1.668545	-0.272661	1.045997
C112	C	0.955095	-0.915782	0.422422
C113	C	1.288429	-0.582449	0.755755
C114	C	1.621762	-0.249116	1.089089
O115	O	0.915329	-0.939972	0.459082
O116	O	1.248662	-0.606638	0.792415
O117	O	1.581996	-0.273305	1.125748
C118	C	0.955014	-0.728107	0.422395
C119	C	1.288347	-0.394774	0.755728
C120	C	1.621680	-0.061441	1.089061
C121	C	1.001773	-0.704734	0.379293
C122	C	1.335106	-0.371400	0.712626
C123	C	1.668440	-0.038067	1.045960
C124	C	1.095310	-0.704902	0.293109
C125	C	1.428643	-0.371569	0.626442
C126	C	1.761976	-0.038236	0.959775
C127	C	1.095285	-0.657986	0.293099
C128	C	1.428619	-0.324653	0.626432
C129	C	1.761952	0.008681	0.959765
C130	C	1.048505	-0.634443	0.336186
C131	C	1.381838	-0.301110	0.669519
C132	C	1.715171	0.032223	1.002852
C133	C	1.001749	-0.657817	0.379283
C134	C	1.335082	-0.324484	0.712616
C135	C	1.668415	0.008849	1.045950
C136	C	0.908235	-0.704563	0.465490
C137	C	1.241568	-0.371229	0.798823
C138	C	1.574902	-0.037896	1.132157
C139	C	0.908220	-0.657641	0.465480
C140	C	1.241553	-0.324308	0.798814
C141	C	1.574886	0.009026	1.132147
C142	C	0.954979	-0.634267	0.422379
C143	C	1.288312	-0.300934	0.755712
C144	C	1.621646	0.032399	1.089046
C145	C	0.954944	-0.587358	0.422360
C146	C	1.288277	-0.254025	0.755694
C147	C	1.621610	0.079308	1.089027
N148	N	1.001705	-0.563982	0.379267
N149	N	1.335038	-0.230649	0.712600
N150	N	1.668371	0.102684	1.045934
C151	C	1.048485	-0.587525	0.336180
C152	C	1.381819	-0.254192	0.669513
C153	C	1.715152	0.079142	1.002846
C154	C	0.955141	-1.014314	0.422432
C155	C	1.288474	-0.680981	0.755766
C156	C	1.621807	-0.347648	1.089099
C157	C	0.955160	-1.061233	0.422439
C158	C	1.288493	-0.727900	0.755772
C159	C	1.621827	-0.394566	1.089105
C160	C	1.048705	-1.061399	0.336254
C161	C	1.382038	-0.728066	0.669587
C162	C	1.715372	-0.394733	1.002921
C163	C	1.048682	-1.014480	0.336245
C164	C	1.382015	-0.681147	0.669578
C165	C	1.715348	-0.347813	1.002911
C166	C	1.001902	-0.990938	0.379339
C167	C	1.335235	-0.657605	0.712672
C168	C	1.668568	-0.324272	1.046006
C169	C	1.048430	-0.488997	0.336161
C170	C	1.381763	-0.155664	0.669495
C171	C	1.715097	0.177669	1.002828
C172	C	1.048399	-0.442077	0.336153
C173	C	1.381733	-0.108743	0.669486
C174	C	1.715066	0.224590	1.002820
C175	C	0.954857	-0.441914	0.422340
C176	C	1.288190	-0.108581	0.755673
C177	C	1.621524	0.224752	1.089007
C178	C	0.954885	-0.488831	0.422346
C179	C	1.288218	-0.155497	0.755679
C180	C	1.621552	0.177836	1.089013
C181	C	1.001677	-0.512371	0.379255
C182	C	1.335010	-0.179038	0.712588
C183	C	1.668344	0.154296	1.045921
O184	O	0.915164	-0.562985	0.458967
O185	O	1.248497	-0.229651	0.792300
O186	O	1.581830	0.103682	1.125634
O187	O	1.088256	-0.563328	0.299537
O188	O	1.421589	-0.229995	0.632870
O189	O	1.754923	0.103339	0.966204
C190	C	1.048578	-0.775192	0.336216
C191	C	1.381911	-0.441859	0.669549
C192	C	1.715245	-0.108526	1.002883
C193	C	1.001822	-0.798566	0.379313
C194	C	1.335155	-0.465233	0.712647
C195	C	1.668489	-0.131900	1.045980
C196	C	0.955041	-0.775024	0.422401
C197	C	1.288375	-0.441690	0.755734
C198	C	1.621708	-0.108357	1.089067
C199	C	1.001841	-0.845485	0.379319
C200	C	1.335175	-0.512151	0.712653
C201	C	1.668508	-0.178818	1.045986
C202	C	1.048622	-0.869027	0.336232
C203	C	1.381955	-0.535694	0.669565
C204	C	1.715289	-0.202361	1.002899
C205	C	1.095383	-0.845651	0.293139
C206	C	1.428716	-0.512318	0.626472
C207	C	1.762050	-0.178985	0.959805
C208	C	1.095359	-0.798735	0.293129
C209	C	1.428692	-0.465402	0.626462
C210	C	1.762025	-0.132068	0.959795
C211	C	0.908280	-0.798400	0.465494
C212	C	1.241614	-0.465066	0.798827
C213	C	1.574947	-0.131733	1.132161
C214	C	0.908308	-0.845316	0.465500
C215	C	1.241641	-0.511983	0.798833
C216	C	1.574975	-0.178650	1.132166
C217	C	0.955089	-0.868859	0.422413
C218	C	1.288422	-0.535525	0.755746
C219	C	1.621755	-0.202192	1.089079
C220	C	1.185013	-0.256787	0.386645
C221	C	1.518347	0.076547	0.719979
C222	C	1.851680	0.409880	1.053312
C223	C	1.263116	-0.258877	0.389788
C224	C	1.596449	0.074456	0.723121
C225	C	1.929783	0.407789	1.056454
C226	C	0.994403	-0.256364	0.562551
C227	C	1.327736	0.076969	0.895884
C228	C	1.661070	0.410303	1.229217
C229	C	0.991279	-0.258274	0.640654
C230	C	1.324612	0.075059	0.973987
C231	C	1.657945	0.408392	1.307320
C232	C	1.001879	-0.134708	0.379327
C233	C	1.335212	0.198626	0.712661
C234	C	1.668546	0.531959	1.045994
C235	C	1.001941	-0.084775	0.379351
C236	C	1.335274	0.248558	0.712685
C237	C	1.668607	0.581891	1.046018
C238	C	1.009078	-0.247384	0.196706
C239	C	1.342411	0.085949	0.530039
C240	C	1.675745	0.419283	0.863373
C241	C	1.012338	-0.245351	0.118609
C242	C	1.345672	0.087983	0.451943
C243	C	1.679005	0.421316	0.785276
C244	C	1.034782	-0.231647	0.679169
C245	C	1.368115	0.101687	1.012503
C246	C	1.701448	0.435020	1.345836
C247	C	1.031838	-0.233440	0.752555
C248	C	1.365171	0.099894	1.085888
C249	C	1.698504	0.433227	1.419222
C250	C	0.985394	-0.261863	0.787424
C251	C	1.318727	0.071470	1.120757
C252	C	1.652060	0.404803	1.454090
C253	C	0.941886	-0.288492	0.748903
C254	C	1.275219	0.044841	1.082236
C255	C	1.608553	0.378175	1.415569
C256	C	0.944827	-0.286696	0.675518
C257	C	1.278160	0.046637	1.008852
C258	C	1.611494	0.379970	1.342185
C259	C	0.971772	-0.270184	1.006704
C260	C	1.305105	0.063150	1.340037
C261	C	1.638438	0.396483	1.673370
C262	C	0.968835	-0.271978	1.080093
C263	C	1.302169	0.061355	1.413427
C264	C	1.635502	0.394688	1.746760
C265	C	1.058787	-0.216925	1.083741
C266	C	1.392120	0.116408	1.417074
C267	C	1.725453	0.449742	1.750407
C268	C	1.061727	-0.215134	1.010355
C269	C	1.395060	0.118199	1.343688
C270	C	1.728393	0.451533	1.677022
C271	C	1.018216	-0.241761	0.971840
C272	C	1.351550	0.091572	1.305174
C273	C	1.684883	0.424906	1.638507
N274	N	0.982385	-0.263698	0.862436
N275	N	1.315718	0.069635	1.195769
N276	N	1.649051	0.402969	1.529102
N277	N	1.021222	-0.239924	0.896830
N278	N	1.354555	0.093410	1.230163
N279	N	1.687889	0.426743	1.563496
H280	H	0.730954	-0.298932	0.449904
H281	H	1.064288	0.034401	0.783237
H282	H	1.397621	0.367734	1.116571
H283	H	0.916812	-0.507863	0.457445
H284	H	1.250145	-0.174529	0.790778
H285	H	1.583478	0.158804	1.124112
F286	F	0.595680	-0.179265	0.270247
F287	F	0.929013	0.154068	0.603581
F288	F	1.262347	0.487402	0.936914
F289	F	0.858472	-0.729429	0.511371
F290	F	1.191805	-0.396096	0.844705
F291	F	1.525139	-0.062763	1.178038
F292	F	1.145106	-0.729951	0.247246
F293	F	1.478439	-0.396618	0.580580
F294	F	1.811772	-0.063284	0.913913
H295	H	1.094209	-0.195246	1.115107
H296	H	1.427543	0.138087	1.448441
H297	H	1.760876	0.471420	1.781774
H298	H	1.086757	-0.995452	0.301148
H299	H	1.420091	-0.662118	0.634482
H300	H	1.753424	-0.328785	0.967815
F301	F	0.905385	-1.086104	0.468305
F302	F	1.238718	-0.752770	0.801638
F303	F	1.572051	-0.419437	1.134971
H304	H	0.904068	-0.311633	0.777298
H305	H	1.237401	0.021700	1.110632
H306	H	1.570734	0.355033	1.443965
F307	F	0.747168	-0.183306	0.276306
F308	F	1.080502	0.150027	0.609639
F309	F	1.413835	0.483360	0.942972
F310	F	0.898523	-0.315036	0.634527
F311	F	1.231857	0.018297	0.967860
F312	F	1.565190	0.351631	1.301194
F313	F	0.858535	-0.870187	0.511376
F314	F	1.191868	-0.536854	0.844709
F315	F	1.525201	-0.203521	1.178042
H316	H	0.870187	-0.779235	0.500582
H317	H	1.203520	-0.445902	0.833915
H318	H	1.536853	-0.112569	1.167248
H319	H	1.086796	-1.080576	0.301171
H320	H	1.420129	-0.747242	0.634504
H321	H	1.753462	-0.413909	0.967837
F322	F	1.084218	-0.201397	0.642066
F323	F	1.417551	0.131937	0.975400
F324	F	1.750885	0.465270	1.308733
H325	H	0.916767	-0.422739	0.457419
H326	H	1.250100	-0.089405	0.790752
H327	H	1.583433	0.243928	1.124086
F328	F	1.078164	-0.205115	0.793544
F329	F	1.411497	0.128219	1.126878
F330	F	1.744830	0.461552	1.460211
H331	H	0.870127	-0.638476	0.500576
H332	H	1.203460	-0.305143	0.833909
H333	H	1.536793	0.028191	1.167242
H334	H	1.099548	-0.191990	0.981970
H335	H	1.432881	0.141344	1.315303
H336	H	1.766215	0.474677	1.648637
H337	H	0.597826	-0.295378	0.444580
H338	H	0.931160	0.037956	0.777914
H339	H	1.264493	0.371289	1.111247
H340	H	0.931013	-0.295125	1.108481
H341	H	1.264346	0.038208	1.441814
H342	H	1.597680	0.371542	1.775148
F343	F	0.925464	-0.298523	0.965723
F344	F	1.258797	0.034811	1.299056
F345	F	1.592131	0.368144	1.632389
H346	H	0.399777	-0.316811	0.476762
H347	H	0.733110	0.016523	0.810096
H348	H	1.066443	0.349856	1.143429
F349	F	0.905347	-0.989265	0.468302
F350	F	1.238680	-0.655932	0.801635
F351	F	1.572014	-0.322599	1.134969
H352	H	0.406352	-0.208411	0.314006
H353	H	0.739685	0.124922	0.647340
H354	H	1.073019	0.458256	0.980673
H355	H	0.273224	-0.204856	0.308686
H356	H	0.606557	0.128477	0.642019
H357	H	0.939890	0.461810	0.975352
F358	F	0.257013	-0.320485	0.482281
F359	F	0.590346	0.012849	0.815614
F360	F	0.923679	0.346182	1.148948
H361	H	1.086476	-0.423047	0.301052
H362	H	1.419810	-0.089714	0.634385
H363	H	1.753143	0.243620	0.967719
H364	H	1.086534	-0.508158	0.301074
H365	H	1.419867	-0.174825	0.634407
H366	H	1.753201	0.158508	0.967740
F367	F	1.145129	-0.773865	0.247256
F368	F	1.478462	-0.440531	0.580589
F369	F	1.811795	-0.107198	0.913923
H370	H	1.133472	-0.864828	0.258053
H371	H	1.466805	-0.531494	0.591387
H372	H	1.800138	-0.198161	0.924720
F373	F	1.145061	-0.633116	0.247232
F374	F	1.478394	-0.299783	0.580565
F375	F	1.811728	0.033551	0.913899
