data_functionalizedCrystal
_audit_creation_method	'MofGen! by Chris Wilmer'
_symmetry_space_group_name_H-M	'P1'
_symmetry_Int_Tables_number	1
_symmetry_cell_setting	triclinic
loop_
_symmetry_equiv_pos_as_xyz
  x,y,z
_cell_length_a	21.295417
_cell_length_b	18.215407
_cell_length_c	18.215399
_cell_angle_alpha	90.014769
_cell_angle_beta	89.965438
_cell_angle_gamma	89.973873
loop_
_atom_site_label
_atom_site_type_symbol
_atom_site_fract_x
_atom_site_fract_y
_atom_site_fract_z
Zn1	Zn	-0.250674	-1.125021	-0.416054
Zn2	Zn	-0.355950	-1.124924	-0.292979
Zn3	Zn	-0.250690	-1.001960	-0.293006
Zn4	Zn	-0.355902	-1.001908	-0.416008
O5	O	-0.303304	-1.063453	-0.354512
O6	O	-0.264653	-1.227993	-0.399736
O7	O	-0.342014	-1.108594	-0.189998
O8	O	-0.162599	-1.018347	-0.309359
O9	O	-0.341998	-1.227921	-0.309313
O10	O	-0.162587	-1.108760	-0.399762
O11	O	-0.264680	-1.018253	-0.190018
O12	O	-0.264633	-0.898969	-0.309314
O13	O	-0.341916	-1.018258	-0.518998
O14	O	-0.341932	-0.898930	-0.399684
O15	O	-0.264606	-1.108709	-0.519032
O16	O	-0.444033	-1.108543	-0.309268
O17	O	-0.443997	-1.018163	-0.399657
C18	C	-0.303279	-0.872247	-0.354497
C19	C	-0.303284	-0.790448	-0.354509
C20	C	-0.263088	-0.602290	-0.401665
C21	C	-0.263091	-0.525432	-0.401667
C22	C	-0.343510	-0.525368	-0.307364
C23	C	-0.343503	-0.602226	-0.307359
C24	C	-0.303293	-0.640685	-0.354514
C25	C	-0.303303	-0.486969	-0.354521
C26	C	-0.303307	-0.403635	-0.354522
C27	C	-0.303288	-0.724024	-0.354511
C28	C	-0.466856	-1.063357	-0.354471
C29	C	-0.536824	-1.063383	-0.354478
C30	C	-0.569688	-1.110485	-0.307461
C31	C	-0.635430	-1.110520	-0.307477
C32	C	-0.668306	-1.063439	-0.354503
C33	C	-0.635434	-1.016333	-0.401530
C34	C	-0.569693	-1.016305	-0.401517
N35	N	-0.771568	-0.999060	-0.360109
N36	N	-0.834019	-0.999088	-0.360117
C37	C	-0.866381	-1.063521	-0.354546
N38	N	-0.833932	-1.127926	-0.348952
N39	N	-0.771475	-1.127896	-0.348940
C40	C	-0.739592	-1.063464	-0.354523
C41	C	-0.970531	-1.110665	-0.307544
C42	C	-1.036274	-1.110701	-0.307565
C43	C	-1.036277	-1.016507	-0.401614
C44	C	-0.970534	-1.016478	-0.401596
C45	C	-0.937665	-1.063556	-0.354557
C46	C	-0.139114	-1.063570	-0.354569
C47	C	-0.069146	-1.063620	-0.354593
C48	C	-0.303254	-1.063488	-0.546465
C49	C	-0.303232	-1.063503	-0.628264
C50	C	-0.303322	-0.255406	-0.354525
C51	C	-0.303313	-0.337205	-0.354525
C52	C	-0.262938	-1.016502	-0.816469
C53	C	-0.262925	-1.016515	-0.893328
C54	C	-0.343452	-1.110592	-0.893296
C55	C	-0.343467	-1.110575	-0.816439
C56	C	-0.303207	-1.063531	-0.778027
C57	C	-0.303179	-1.063561	-0.931743
C58	C	-0.303165	-1.063575	-1.015077
C59	C	-0.303221	-1.063516	-0.694688
C60	C	-0.303309	-1.063461	-0.163305
C61	C	-0.303153	-1.063589	-0.081507
H62	H	-0.376249	-0.494046	-0.268973
O63	O	-0.219727	-0.484024	-0.452526
H64	H	-0.187663	-0.449019	-0.419657
O65	O	-0.386869	-0.643639	-0.256496
H66	H	-0.380102	-0.703544	-0.264408
H67	H	-0.542928	-1.148821	-0.269160
O68	O	-0.670890	-1.161318	-0.256758
H69	H	-0.636989	-1.194045	-0.224043
O70	O	-0.670895	-0.965551	-0.452245
H71	H	-0.658239	-0.978134	-0.510015
H72	H	-0.542934	-0.977948	-0.439805
H73	H	-0.943768	-1.149001	-0.269244
O74	O	-0.219485	-0.965800	-0.934793
H75	H	-0.230269	-0.908029	-0.920031
O76	O	-0.386873	-1.161335	-0.934723
H77	H	-0.358696	-1.198810	-0.969746
H78	H	-1.063043	-0.978176	-0.439907
H79	H	-0.230155	-0.978196	-0.785196
O80	O	-1.071726	-1.161505	-0.256850
H81	H	-1.037823	-1.194229	-0.224136
O82	O	-0.386903	-1.161308	-0.774978
H83	H	-0.418938	-1.128341	-0.739952
H84	H	-0.230344	-0.633602	-0.440059
O85	O	-0.935081	-0.965656	-0.452289
H86	H	-0.968984	-0.932913	-0.484985
