data_functionalizedCrystal
_audit_creation_method	'MofGen! by Chris Wilmer'
_symmetry_space_group_name_H-M	'P1'
_symmetry_Int_Tables_number	1
_symmetry_cell_setting	triclinic
loop_
_symmetry_equiv_pos_as_xyz
  x,y,z
_cell_length_a	19.121063
_cell_length_b	19.121141
_cell_length_c	19.121277
_cell_angle_alpha	90.097536
_cell_angle_beta	85.243870
_cell_angle_gamma	89.873858
loop_
_atom_site_label
_atom_site_type_symbol
_atom_site_fract_x
_atom_site_fract_y
_atom_site_fract_z
Zn1	Zn	-0.343639	-1.039487	0.456076
Zn2	Zn	0.156361	-0.539487	0.956076
Zn3	Zn	-0.456253	-1.039423	0.343422
Zn4	Zn	0.043747	-0.539423	0.843422
Zn5	Zn	-0.333617	-0.927725	0.333449
Zn6	Zn	0.166383	-0.427725	0.833449
Zn7	Zn	-0.455808	-0.917234	0.455601
Zn8	Zn	0.044192	-0.417234	0.955601
O9	O	-0.397329	-0.980967	0.397137
O10	O	0.102671	-0.480967	0.897137
O11	O	-0.362957	-1.137389	0.445504
O12	O	0.137043	-0.637389	0.945504
O13	O	-0.435978	-1.028970	0.243832
O14	O	0.064022	-0.528970	0.743832
O15	O	-0.236680	-0.946968	0.345740
O16	O	0.263320	-0.446968	0.845740
O17	O	-0.445695	-1.137341	0.362738
O18	O	0.054305	-0.637341	0.862738
O19	O	-0.244043	-1.029079	0.435833
O20	O	0.255957	-0.529079	0.935833
O21	O	-0.345878	-0.946905	0.236505
O22	O	0.154122	-0.446905	0.736505
O23	O	-0.345446	-0.828423	0.345281
O24	O	0.154554	-0.328423	0.845281
O25	O	-0.444936	-0.929087	0.553931
O26	O	0.055064	-0.429087	1.053931
O27	O	-0.435218	-0.820716	0.435025
O28	O	0.064782	-0.320716	0.935025
O29	O	-0.362525	-1.018907	0.554280
O30	O	0.137475	-0.518907	1.054280
O31	O	-0.554460	-1.018797	0.362278
O32	O	-0.054460	-0.518797	0.862278
O33	O	-0.554133	-0.929025	0.444696
O34	O	-0.054133	-0.429025	0.944696
C35	C	-0.389197	-0.799182	0.389020
C36	C	0.110803	-0.299182	0.889020
C37	C	-0.385736	-0.721413	0.385564
C38	C	0.114264	-0.221413	0.885564
C39	C	-0.430914	-0.680882	0.430599
C40	C	0.069086	-0.180882	0.930599
C41	C	-0.427653	-0.607809	0.427355
C42	C	0.072347	-0.107809	0.927355
C43	C	-0.379216	-0.575268	0.379073
C44	C	0.120784	-0.075268	0.879073
C45	C	-0.334032	-0.615805	0.334037
C46	C	0.165968	-0.115805	0.834037
C47	C	-0.337291	-0.688876	0.337285
C48	C	0.162709	-0.188876	0.837285
C49	C	-0.367032	-0.354840	0.366937
C50	C	0.132968	0.145160	0.866937
C51	C	-0.363778	-0.281763	0.363691
C52	C	0.136222	0.218237	0.863691
C53	C	-0.457398	-0.273772	0.457011
C54	C	0.042602	0.226228	0.957011
C55	C	-0.460655	-0.346845	0.460251
C56	C	0.039345	0.153155	0.960251
C57	C	-0.415469	-0.387375	0.415217
C58	C	0.084531	0.112625	0.915217
C59	C	-0.375882	-0.500576	0.375755
C60	C	0.124118	-0.000576	0.875755
C61	C	-0.418800	-0.462066	0.418539
C62	C	0.081200	0.037934	0.918539
C63	C	-0.579778	-0.972784	0.404534
C64	C	-0.079778	-0.472784	0.904534
C65	C	-0.657834	-0.969346	0.407725
C66	C	-0.157834	-0.469346	0.907725
C67	C	-0.694655	-1.014503	0.366352
C68	C	-0.194655	-0.514503	0.866352
C69	C	-0.767997	-1.011274	0.369358
C70	C	-0.267997	-0.511274	0.869358
C71	C	-0.804517	-0.962883	0.413732
C72	C	-0.304517	-0.462883	0.913732
C73	C	-0.767691	-0.917724	0.455110
C74	C	-0.267691	-0.417724	0.955110
C75	C	-0.694350	-0.920957	0.452108
C76	C	-0.194350	-0.420957	0.952108
C77	C	-1.025951	-0.950784	0.424945
C78	C	-0.525951	-0.450784	0.924945
C79	C	-1.099297	-0.947552	0.427942
C80	C	-0.599297	-0.447552	0.927942
C81	C	-1.099598	-1.041104	0.342191
C82	C	-0.599598	-0.541104	0.842191
C83	C	-1.026256	-1.044330	0.339190
C84	C	-0.526256	-0.544330	0.839190
C85	C	-0.989436	-0.999173	0.380570
C86	C	-0.489436	-0.499173	0.880570
C87	C	-0.879484	-0.959579	0.416804
C88	C	-0.379484	-0.459579	0.916804
C89	C	-0.914471	-1.002481	0.377502
C90	C	-0.414471	-0.502481	0.877502
C91	C	-0.214170	-0.989201	0.389727
C92	C	0.285830	-0.489201	0.889727
C93	C	-0.136118	-0.992710	0.386570
C94	C	0.363882	-0.492710	0.886570
C95	C	-0.404799	-0.972834	0.580297
C96	C	0.095201	-0.472834	1.080297
C97	C	-0.407982	-0.969368	0.658349
C98	C	0.092018	-0.469368	1.158349
C99	C	-0.405490	-0.163462	0.405278
C100	C	0.094510	0.336538	0.905278
C101	C	-0.408957	-0.241232	0.408726
C102	C	0.091043	0.258768	0.908726
C103	C	-0.366573	-1.014502	0.695201
C104	C	0.133427	-0.514502	1.195201
C105	C	-0.369560	-1.011237	0.768539
C106	C	0.130440	-0.511237	1.268539
C107	C	-0.413961	-0.962841	0.805024
C108	C	0.086039	-0.462841	1.305024
C109	C	-0.455372	-0.917703	0.768167
C110	C	0.044628	-0.417703	1.268167
C111	C	-0.452380	-0.920965	0.694830
C112	C	0.047620	-0.420965	1.194830
C113	C	-0.425138	-0.950649	1.026444
C114	C	0.074862	-0.450649	1.526444
C115	C	-0.428129	-0.947392	1.099786
C116	C	0.071871	-0.447392	1.599786
C117	C	-0.342316	-1.040925	1.100152
C118	C	0.157684	-0.540925	1.600152
C119	C	-0.339331	-1.044186	1.026814
C120	C	0.160669	-0.544186	1.526814
C121	C	-0.380739	-0.999045	0.989964
C122	C	0.119261	-0.499045	1.489964
C123	C	-0.417018	-0.959504	0.879987
C124	C	0.082982	-0.459504	1.379987
C125	C	-0.377678	-1.002379	0.915002
C126	C	0.122322	-0.502379	1.415002
C127	C	-0.389904	-0.989062	1.214689
C128	C	0.110096	-0.489062	1.714689
C129	C	-0.386720	-0.992525	1.136637
C130	C	0.113280	-0.492525	1.636637
H131	H	-0.300498	-0.721876	0.300616
H132	H	0.199502	-0.221876	0.800616
Br133	Br	-0.484532	-0.506229	0.484064
Br134	Br	0.015468	-0.006229	0.984064
Br135	Br	-0.975991	-0.889499	0.481104
Br136	Br	-0.475991	-0.389499	0.981104
H137	H	-0.491522	-0.878296	0.797879
H138	H	0.008478	-0.378296	1.297879
H139	H	-0.294591	-0.589305	0.294728
H140	H	0.205409	-0.089305	0.794728
H141	H	-0.464287	-0.907980	1.129490
H142	H	0.035713	-0.407980	1.629490
H143	H	-0.464442	-0.574811	0.464026
H144	H	0.035558	-0.074811	0.964026
Br145	Br	-0.305704	-0.409836	0.305823
Br146	Br	0.194296	0.090164	0.805823
H147	H	-0.884734	-1.041883	0.341374
H148	H	-0.384734	-0.541883	0.841374
Br149	Br	-0.508576	-0.859706	0.644816
Br150	Br	-0.008576	-0.359706	1.144816
Br151	Br	-0.317411	-1.068048	0.865485
Br152	Br	0.182589	-0.568048	1.365485
H153	H	-1.129585	-1.077869	0.308503
H154	H	-0.629585	-0.577869	0.808503
H155	H	-0.336446	-0.474074	0.336443
H156	H	0.163554	0.025926	0.836443
H157	H	-0.453173	-0.920103	0.909702
H158	H	0.046827	-0.420103	1.409702
Br159	Br	-0.976699	-1.110014	0.278974
Br160	Br	-0.476699	-0.610014	0.778974
H161	H	-0.909227	-0.920178	0.452932
H162	H	-0.409227	-0.420178	0.952932
H163	H	-0.470359	-0.707370	0.469913
H164	H	0.029641	-0.207370	0.969913
Br165	Br	-1.148858	-0.881863	0.488157
Br166	Br	-0.648858	-0.381863	0.988157
H167	H	-0.324327	-0.255271	0.324378
H168	H	0.175673	0.244729	0.824378
Br169	Br	-0.526397	-0.391002	0.525775
Br170	Br	-0.026397	0.108998	1.025775
H171	H	-0.664925	-1.053905	0.330215
H172	H	-0.164925	-0.553905	0.830215
Br173	Br	-0.817967	-1.072566	0.313211
Br174	Br	-0.317967	-0.572566	0.813211
Br175	Br	-0.518721	-0.218764	0.518122
Br176	Br	-0.018721	0.281236	1.018122
Br177	Br	-0.817253	-0.852055	0.515340
Br178	Br	-0.317253	-0.352055	1.015340
Br179	Br	-0.644378	-0.859674	0.508263
Br180	Br	-0.144378	-0.359674	1.008263
H181	H	-0.330419	-1.053913	0.665500
H182	H	0.169581	-0.553913	1.165500
H183	H	-0.335842	-1.047991	0.798540
H184	H	0.164158	-0.547991	1.298540
H185	H	-0.303177	-1.083596	0.997113
H186	H	0.196823	-0.583596	1.497113
H187	H	-0.308603	-1.077675	1.130164
H188	H	0.191397	-0.577675	1.630164
H189	H	-0.458866	-0.913902	0.996450
H190	H	0.041134	-0.413902	1.496450
