data_functionalizedCrystal
_audit_creation_method	'MofGen! by Chris Wilmer'
_symmetry_space_group_name_H-M	'P1'
_symmetry_Int_Tables_number	1
_symmetry_cell_setting	triclinic
loop_
_symmetry_equiv_pos_as_xyz
  x,y,z
_cell_length_a	13.262522
_cell_length_b	14.519731
_cell_length_c	12.376457
_cell_angle_alpha	101.297478
_cell_angle_beta	63.170097
_cell_angle_gamma	84.074474
loop_
_atom_site_label
_atom_site_type_symbol
_atom_site_fract_x
_atom_site_fract_y
_atom_site_fract_z
O1	O	1.512407	0.019557	-0.558970
O2	O	1.185357	0.051890	-0.458427
O3	O	1.357538	-0.098991	-0.511349
O4	O	1.340225	0.170438	-0.506047
O5	O	1.314508	-0.061320	-0.310111
O6	O	1.142326	0.089561	-0.257189
O7	O	1.469377	0.057228	-0.357732
Zn8	Zn	1.299020	0.079376	-0.275509
Zn9	Zn	1.355714	0.029742	-0.540649
O10	O	1.297195	0.208109	-0.304809
C11	C	1.121985	0.072378	-0.344940
C12	C	0.997267	0.077290	-0.306598
C13	C	1.335212	-0.114470	-0.410480
C14	C	1.332780	-0.216715	-0.409732
C15	C	0.915224	0.100136	-0.178883
C16	C	0.798044	0.104744	-0.142850
C17	C	0.762894	0.086515	-0.234527
C18	C	0.844937	0.063676	-0.362244
C19	C	0.962129	0.059060	-0.398281
C20	C	0.809799	0.045440	-0.453925
C21	C	0.891842	0.022601	-0.581642
C22	C	1.009022	0.017986	-0.617673
C23	C	1.044172	0.036215	-0.525996
C24	C	0.692607	0.050056	-0.417888
C25	C	0.739512	0.008981	-0.637286
C26	C	0.856692	0.004372	-0.673319
C27	C	1.330805	-0.299751	-0.409128
C28	C	1.328338	-0.403924	-0.408378
C29	C	1.326381	-0.486956	-0.407783
C30	C	1.323914	-0.591137	-0.407031
C31	C	1.532749	0.036740	-0.471221
C32	C	1.657469	0.031826	-0.509571
C33	C	1.319523	0.223587	-0.405681
C34	C	1.321956	0.325831	-0.406437
N35	N	1.260336	0.113248	-0.094561
N36	N	1.394407	-0.004138	-0.721600
C37	C	1.484205	-0.082784	0.191615
C38	C	1.511274	-0.106492	0.064955
C39	C	1.448541	-0.051559	0.025069
C40	C	1.358736	0.027085	0.111857
C41	C	1.331670	0.050799	0.238527
C42	C	1.296007	0.082025	0.071982
C43	C	1.206201	0.160669	0.158769
C44	C	1.179140	0.184379	0.285427
C45	C	1.241872	0.129446	0.325312
C46	C	1.323072	0.058311	-0.054688
C47	C	1.170538	0.191895	-0.007776
C48	C	1.143469	0.215602	0.118884
H49	H	0.667479	0.090271	-0.205181
H50	H	1.139587	0.032467	-0.555328
N51	N	0.953143	0.119794	-0.080021
H52	H	0.913515	0.187192	-0.023034
H53	H	0.931487	0.071904	-0.028639
H54	H	0.731255	0.123327	-0.038864
H55	H	1.535279	-0.127499	0.224098
H56	H	1.119457	0.236628	-0.040249
N57	N	1.477719	-0.077124	-0.111536
H58	H	1.560592	-0.073503	-0.165542
H59	H	1.467702	-0.144604	-0.136859
N60	N	1.097517	-0.006669	-0.755423
H61	H	1.057473	-0.017518	-0.808033
H62	H	1.138180	0.048134	-0.772404
H63	H	0.923507	-0.014224	-0.777308
N64	N	0.701619	-0.010690	-0.736179
H65	H	0.614933	-0.004298	-0.693971
H66	H	0.723356	0.037150	-0.787629
H67	H	1.396192	-0.005721	-0.125340
N68	N	1.608128	-0.191306	-0.028647
H69	H	1.643761	-0.222510	0.015837
H70	H	1.576267	-0.239609	-0.067943
H71	H	1.219831	0.148745	0.428449
N72	N	1.082278	0.269198	0.379037
H73	H	1.046637	0.300396	0.334556
H74	H	1.021322	0.246375	0.446883
H75	H	1.070348	0.279636	0.189561
H76	H	0.625817	0.068660	-0.313899
