data_functionalizedCrystal
_audit_creation_method	'MofGen! by Chris Wilmer'
_symmetry_space_group_name_H-M	'P1'
_symmetry_Int_Tables_number	1
_symmetry_cell_setting	triclinic
loop_
_symmetry_equiv_pos_as_xyz
  x,y,z
_cell_length_a	19.288864
_cell_length_b	23.532357
_cell_length_c	22.010155
_cell_angle_alpha	90.016389
_cell_angle_beta	90.006397
_cell_angle_gamma	82.982267
loop_
_atom_site_label
_atom_site_type_symbol
_atom_site_fract_x
_atom_site_fract_y
_atom_site_fract_z
O1	O	0.921101	0.071052	0.050727
O2	O	1.254434	0.404386	0.384061
O3	O	1.587767	0.737719	0.717394
O4	O	0.718808	0.080637	0.050687
O5	O	1.052142	0.413970	0.384020
O6	O	1.385475	0.747303	0.717353
O7	O	0.826073	-0.007077	0.050696
O8	O	1.159406	0.326257	0.384029
O9	O	1.492739	0.659590	0.717362
O10	O	0.813836	0.158766	0.050718
O11	O	1.147170	0.492099	0.384052
O12	O	1.480503	0.825432	0.717385
O13	O	0.826089	-0.007092	-0.050355
O14	O	1.159423	0.326241	0.282979
O15	O	1.492756	0.659575	0.616312
O16	O	0.718825	0.080621	-0.050364
O17	O	1.052158	0.413955	0.282970
O18	O	1.385492	0.747288	0.616303
O19	O	0.921117	0.071037	-0.050323
O20	O	1.254451	0.404370	0.283010
O21	O	1.587784	0.737704	0.616344
Cu22	Cu	0.819973	0.075828	-0.059570
Cu23	Cu	1.153306	0.409161	0.273763
Cu24	Cu	1.486639	0.742494	0.607097
Cu25	Cu	0.819953	0.075846	0.059934
Cu26	Cu	1.153286	0.409179	0.393267
Cu27	Cu	1.486620	0.742513	0.726600
O28	O	0.813853	0.158750	-0.050332
O29	O	1.147186	0.492084	0.283001
O30	O	1.480520	0.825417	0.616335
C31	C	0.692941	0.080320	0.000156
C32	C	1.026275	0.413654	0.333489
C33	C	1.359608	0.746987	0.666823
C34	C	0.615841	0.079395	0.000140
C35	C	0.949174	0.412728	0.333473
C36	C	1.282507	0.746061	0.666807
C37	C	0.825775	-0.028301	0.000169
C38	C	1.159108	0.305032	0.333502
C39	C	1.492442	0.638365	0.666835
C40	C	0.824855	-0.091522	0.000163
C41	C	1.158188	0.241811	0.333496
C42	C	1.491521	0.575145	0.666829
C43	C	0.570975	0.130861	0.000157
C44	C	0.904308	0.464194	0.333490
C45	C	1.237641	0.797527	0.666823
C46	C	0.498530	0.129991	0.000163
C47	C	0.831864	0.463324	0.333497
C48	C	1.165197	0.796658	0.666830
C49	C	0.470956	0.077652	0.000165
C50	C	0.804289	0.410986	0.333499
C51	C	1.137622	0.744319	0.666832
C52	C	0.515832	0.026180	0.000145
C53	C	0.849165	0.359513	0.333479
C54	C	1.182498	0.692846	0.666812
C55	C	0.588274	0.027051	0.000133
C56	C	0.921608	0.360384	0.333466
C57	C	1.254941	0.693717	0.666799
C58	C	0.362824	0.036514	0.035583
C59	C	0.696157	0.369847	0.368916
C60	C	1.029490	0.703180	0.702249
C61	C	0.290382	0.035645	0.035599
C62	C	0.623715	0.368978	0.368932
C63	C	0.957049	0.702311	0.702266
C64	C	0.247519	0.074963	0.000202
C65	C	0.580852	0.408297	0.333535
C66	C	0.914186	0.741630	0.666869
C67	C	0.277105	0.115161	-0.035204
C68	C	0.610438	0.448494	0.298129
C69	C	0.943771	0.781827	0.631463
C70	C	0.349547	0.116032	-0.035217
C71	C	0.682881	0.449365	0.298117
C72	C	1.016214	0.782698	0.631450
C73	C	0.392405	0.076702	0.000179
C74	C	0.725738	0.410035	0.333512
C75	C	1.059071	0.743369	0.666846
C76	C	0.124100	0.125490	0.000225
C77	C	0.457433	0.458823	0.333558
C78	C	0.790766	0.792157	0.666891
C79	C	0.051655	0.124618	0.000228
C80	C	0.384988	0.457951	0.333561
C81	C	0.718321	0.791285	0.666894
C82	C	0.068958	0.020805	0.000216
C83	C	0.402291	0.354138	0.333549
C84	C	0.735624	0.687472	0.666883
C85	C	0.141401	0.021678	0.000207
C86	C	0.474735	0.355012	0.333540
C87	C	0.808068	0.688345	0.666874
C88	C	0.168968	0.074022	0.000214
C89	C	0.502301	0.407356	0.333548
C90	C	0.835634	0.740689	0.666881
C91	C	0.819069	-0.483537	0.055277
C92	C	1.152402	-0.150203	0.388610
C93	C	1.485735	0.183130	0.721944
C94	C	0.818194	-0.542938	0.055280
C95	C	1.151527	-0.209605	0.388613
C96	C	1.484861	0.123729	0.721947
O97	O	0.817710	-0.573648	0.102126
O98	O	1.151044	-0.240315	0.435459
O99	O	1.484377	0.093018	0.768792
N100	N	0.817769	-0.572659	0.000198
N101	N	1.151103	-0.239325	0.333532
N102	N	1.484436	0.094008	0.666865
C103	C	0.818212	-0.542974	-0.054891
C104	C	1.151546	-0.209641	0.278443
C105	C	1.484879	0.123693	0.611776
O106	O	0.817770	-0.573708	-0.101742
O107	O	1.151103	-0.240374	0.231592
O108	O	1.484437	0.092959	0.564925
C109	C	0.819082	-0.483573	-0.054893
C110	C	1.152415	-0.150240	0.278440
C111	C	1.485749	0.183094	0.611774
C112	C	0.819514	-0.453857	0.000192
C113	C	1.152847	-0.120523	0.333526
C114	C	1.486180	0.212810	0.666859
C115	C	0.819500	-0.453820	0.110358
C116	C	1.152833	-0.120487	0.443691
C117	C	1.486166	0.212847	0.777024
C118	C	0.820376	-0.394423	0.110354
C119	C	1.153709	-0.061090	0.443688
C120	C	1.487042	0.272244	0.777021
C121	C	0.820821	-0.364743	0.055270
C122	C	1.154154	-0.031409	0.388603
C123	C	1.487487	0.301924	0.721936
C124	C	0.820390	-0.394460	0.000189
C125	C	1.153723	-0.061126	0.333522
C126	C	1.487056	0.272207	0.666855
C127	C	0.819520	-0.453889	-0.109981
C128	C	1.152853	-0.120556	0.223352
C129	C	1.486187	0.212778	0.556685
C130	C	0.820389	-0.394484	-0.109979
C131	C	1.153723	-0.061151	0.223354
C132	C	1.487056	0.272182	0.556687
C133	C	0.820821	-0.364768	-0.054894
C134	C	1.154154	-0.031434	0.278440
C135	C	1.487488	0.301899	0.611773
C136	C	0.821711	-0.305382	-0.054899
C137	C	1.155044	0.027951	0.278434
C138	C	1.488378	0.361284	0.611767
N139	N	0.822136	-0.275662	0.000183
N140	N	1.155469	0.057672	0.333516
N141	N	1.488802	0.391005	0.666849
C142	C	0.821690	-0.305342	0.055267
C143	C	1.155024	0.027991	0.388600
C144	C	1.488357	0.361325	0.721934
C145	C	0.816385	-0.667719	-0.054881
C146	C	1.149718	-0.334386	0.278453
C147	C	1.483051	-0.001053	0.611786
C148	C	0.815520	-0.727119	-0.054879
C149	C	1.148853	-0.393786	0.278455
C150	C	1.482186	-0.060453	0.611788
C151	C	0.815500	-0.727079	0.055292
C152	C	1.148833	-0.393746	0.388625
C153	C	1.482167	-0.060413	0.721959
C154	C	0.816370	-0.667679	0.055290
C155	C	1.149703	-0.334345	0.388623
C156	C	1.483037	-0.001012	0.721956
C157	C	0.816809	-0.637999	0.000201
C158	C	1.150143	-0.304665	0.333534
C159	C	1.483476	0.028668	0.666868
C160	C	0.823531	-0.180604	0.055256
C161	C	1.156864	0.152729	0.388589
C162	C	1.490197	0.486063	0.721922
C163	C	0.824410	-0.121202	0.055247
C164	C	1.157743	0.212131	0.388580
C165	C	1.491076	0.545465	0.721914
C166	C	0.824426	-0.121247	-0.054923
C167	C	1.157759	0.212086	0.278410
C168	C	1.491092	0.545420	0.611743
C169	C	0.823550	-0.180644	-0.054915
C170	C	1.156884	0.152689	0.278418
C171	C	1.490217	0.486023	0.611751
C172	C	0.823101	-0.210321	0.000179
C173	C	1.156434	0.123012	0.333512
C174	C	1.489767	0.456346	0.666846
O175	O	0.822192	-0.274634	-0.101721
O176	O	1.155526	0.058699	0.231613
O177	O	1.488859	0.392033	0.564946
O178	O	0.822124	-0.274600	0.102110
O179	O	1.155457	0.058733	0.435444
O180	O	1.488790	0.392067	0.768777
C181	C	0.946984	0.071353	0.000209
C182	C	1.280318	0.404686	0.333542
C183	C	1.613651	0.738020	0.666875
C184	C	1.024085	0.072279	0.000229
C185	C	1.357418	0.405612	0.333562
C186	C	1.690752	0.738946	0.666895
C187	C	0.814151	0.179975	0.000196
C188	C	1.147484	0.513308	0.333530
C189	C	1.480817	0.846642	0.666863
C190	C	0.815071	0.243196	0.000206
C191	C	1.148404	0.576529	0.333540
C192	C	1.481738	0.909862	0.666873
N193	N	0.819992	0.075815	-0.143623
N194	N	1.153325	0.409148	0.189711
N195	N	1.486658	0.742481	0.523044
N196	N	0.819940	0.075855	0.143986
N197	N	1.153273	0.409188	0.477319
N198	N	1.486606	0.742521	0.810653
C199	C	0.867568	0.037073	0.563770
C200	C	1.200901	0.370406	0.897103
C201	C	1.534235	0.703740	1.230436
C202	C	0.867573	0.037070	0.627377
C203	C	1.200906	0.370404	0.960710
C204	C	1.534240	0.703737	1.294044
O205	O	0.908059	0.004119	0.660272
O206	O	1.241392	0.337453	0.993605
O207	O	1.574725	0.670786	1.326939
N208	N	0.819987	0.075828	0.659193
N209	N	1.153321	0.409161	0.992527
N210	N	1.486654	0.742495	1.325860
C211	C	0.772398	0.114595	0.627398
C212	C	1.105732	0.447928	0.960732
C213	C	1.439065	0.781261	1.294065
O214	O	0.731924	0.147561	0.660301
O215	O	1.065257	0.480895	0.993634
O216	O	1.398591	0.814228	1.326968
C217	C	0.772397	0.114599	0.563792
C218	C	1.105731	0.447933	0.897125
C219	C	1.439064	0.781266	1.230459
C220	C	0.819981	0.075835	0.531979
C221	C	1.153315	0.409169	0.865313
C222	C	1.486648	0.742502	1.198646
C223	C	0.915149	-0.001688	0.531957
C224	C	1.248482	0.331646	0.865290
C225	C	1.581815	0.664979	1.198623
C226	C	0.915143	-0.001686	0.468353
C227	C	1.248476	0.331648	0.801687
C228	C	1.581809	0.664981	1.135020
C229	C	0.867556	0.037077	0.436563
C230	C	1.200889	0.370410	0.769896
C231	C	1.534223	0.703744	1.103230
C232	C	0.819975	0.075837	0.468376
C233	C	1.153309	0.409171	0.801709
C234	C	1.486642	0.742504	1.135043
C235	C	0.724812	0.153368	0.531998
C236	C	1.058145	0.486702	0.865332
C237	C	1.391479	0.820035	1.198665
C238	C	0.724815	0.153370	0.468388
C239	C	1.058149	0.486703	0.801721
C240	C	1.391482	0.820037	1.135054
C241	C	0.772399	0.114606	0.436575
C242	C	1.105733	0.447939	0.769908
C243	C	1.439066	0.781273	1.103241
C244	C	0.772383	0.114602	0.372982
C245	C	1.105716	0.447935	0.706316
C246	C	1.439049	0.781268	1.039649
N247	N	0.819968	0.075844	0.341166
N248	N	1.153302	0.409177	0.674500
N249	N	1.486635	0.742511	1.007833
C250	C	0.867555	0.037082	0.372957
C251	C	1.200888	0.370415	0.706290
C252	C	1.534222	0.703748	1.039623
C253	C	0.772405	0.114582	0.760976
C254	C	1.105738	0.447916	1.094310
C255	C	1.439072	0.781249	1.427643
C256	C	0.772402	0.114575	0.824581
C257	C	1.105736	0.447909	1.157915
C258	C	1.439069	0.781242	1.491248
C259	C	0.867578	0.037052	0.824556
C260	C	1.200911	0.370385	1.157889
C261	C	1.534245	0.703718	1.491223
C262	C	0.867577	0.037056	0.760949
C263	C	1.200910	0.370390	1.094283
C264	C	1.534244	0.703723	1.427616
C265	C	0.819991	0.075825	0.729160
C266	C	1.153324	0.409158	1.062493
C267	C	1.486657	0.742491	1.395827
C268	C	0.867538	0.037088	0.239385
C269	C	1.200872	0.370422	0.572719
C270	C	1.534205	0.703755	0.906052
C271	C	0.867526	0.037092	0.175776
C272	C	1.200860	0.370425	0.509110
C273	C	1.534193	0.703759	0.842443
C274	C	0.772353	0.114617	0.175808
C275	C	1.105687	0.447951	0.509141
C276	C	1.439020	0.781284	0.842474
C277	C	0.772363	0.114612	0.239411
C278	C	1.105696	0.447945	0.572744
C279	C	1.439029	0.781279	0.906078
C280	C	0.819961	0.075845	0.271198
C281	C	1.153294	0.409179	0.604532
C282	C	1.486628	0.742512	0.937865
O283	O	0.731920	0.147538	0.340047
O284	O	1.065253	0.480871	0.673380
O285	O	1.398586	0.814204	1.006714
O286	O	0.908029	0.004126	0.340046
O287	O	1.241362	0.337459	0.673380
O288	O	1.574695	0.670792	1.006713
H289	H	0.593414	0.173483	0.000164
H290	H	0.926747	0.506817	0.333497
H291	H	1.260081	0.840150	0.666830
N292	N	0.450131	0.185505	0.000183
N293	N	0.783464	0.518838	0.333517
N294	N	1.116797	0.852171	0.666850
H295	H	0.458970	0.208349	0.037647
H296	H	0.792303	0.541682	0.370980
H297	H	1.125636	0.875016	0.704313
H298	H	0.400076	0.176962	0.000169
H299	H	0.733409	0.510296	0.333502
H300	H	1.066743	0.843629	0.666835
N301	N	0.918860	-0.004713	0.141466
N302	N	1.252193	0.328621	0.474799
N303	N	1.585527	0.661954	0.808132
H304	H	0.911256	-0.045141	0.152522
H305	H	1.244589	0.288192	0.485855
H306	H	1.577923	0.621525	0.819189
H307	H	0.968055	0.001880	0.152560
H308	H	1.301388	0.335213	0.485893
H309	H	1.634721	0.668547	0.819226
N310	N	0.409049	-0.005896	0.073767
N311	N	0.742383	0.327437	0.407100
N312	N	1.075716	0.660771	0.740433
H313	H	0.459430	0.000753	0.068385
H314	H	0.792764	0.334087	0.401718
H315	H	1.126097	0.667420	0.735052
H316	H	0.403056	-0.046102	0.060529
H317	H	0.736390	0.287231	0.393862
H318	H	1.069723	0.620564	0.727196
H319	H	0.815179	-0.751311	-0.099735
H320	H	1.148512	-0.417978	0.233598
H321	H	1.481846	-0.084644	0.566932
H322	H	0.733649	0.146151	0.735096
H323	H	1.066982	0.479484	1.068430
H324	H	1.400316	0.812817	1.401763
H325	H	0.953892	-0.033249	0.442455
H326	H	1.287225	0.300084	0.775789
H327	H	1.620558	0.633418	1.109122
H328	H	0.816720	-0.643487	0.100145
H329	H	1.150054	-0.310154	0.433478
H330	H	1.483387	0.023180	0.766812
N331	N	0.819030	-0.485826	0.169777
N332	N	1.152363	-0.152492	0.503110
N333	N	1.485697	0.180841	0.836443
H334	H	0.818416	-0.527967	0.161432
H335	H	1.151749	-0.194634	0.494765
H336	H	1.485083	0.138699	0.828098
H337	H	0.776116	-0.470703	0.193825
H338	H	1.109449	-0.137370	0.527158
H339	H	1.442783	0.195964	0.860492
N340	N	0.815020	-0.759097	0.114707
N341	N	1.148353	-0.425764	0.448041
N342	N	1.481686	-0.092431	0.781374
H343	H	0.814401	-0.801236	0.106346
H344	H	1.147734	-0.467902	0.439679
H345	H	1.481068	-0.134569	0.773012
H346	H	0.772102	-0.743978	0.138753
H347	H	1.105436	-0.410645	0.472086
H348	H	1.438769	-0.077311	0.805420
H349	H	0.686065	0.184934	0.557891
H350	H	1.019399	0.518267	0.891225
H351	H	1.352732	0.851600	1.224558
H352	H	0.906298	0.005522	0.265259
H353	H	1.239631	0.338855	0.598593
H354	H	1.572965	0.672188	0.931926
H355	H	0.733609	0.146172	0.265313
H356	H	1.066942	0.479505	0.598647
H357	H	1.400275	0.812838	0.931980
H358	H	0.824763	-0.097010	0.100106
H359	H	1.158096	0.236324	0.433440
H360	H	1.491429	0.569657	0.766773
H361	H	0.816744	-0.643558	-0.099743
H362	H	1.150078	-0.310224	0.233590
H363	H	1.483411	0.023109	0.566924
N364	N	0.966480	-0.043498	0.566239
N365	N	1.299813	0.289835	0.899572
N366	N	1.633147	0.623169	1.232905
H367	H	0.996617	-0.068047	0.536425
H368	H	1.329951	0.265286	0.869758
H369	H	1.663284	0.598619	1.203091
H370	H	0.940137	-0.068673	0.592615
H371	H	1.273470	0.264661	0.925949
H372	H	1.606803	0.597994	1.259282
H373	H	0.242207	0.147177	-0.064028
H374	H	0.575540	0.480511	0.269305
H375	H	0.908873	0.813844	0.602638
N376	N	0.824896	-0.089226	-0.114333
N377	N	1.158229	0.244107	0.219001
N378	N	1.491563	0.577441	0.552334
H379	H	0.824489	-0.117061	-0.149231
H380	H	1.157822	0.216272	0.184103
H381	H	1.491156	0.549605	0.517436
H382	H	0.868322	-0.069310	-0.116728
H383	H	1.201655	0.264024	0.216606
H384	H	1.534988	0.597357	0.549939
H385	H	0.906324	0.005492	0.735051
H386	H	1.239658	0.338825	1.068384
H387	H	1.572991	0.672158	1.401718
N388	N	0.258474	-0.007710	0.073782
N389	N	0.591807	0.325624	0.407115
N390	N	0.925140	0.658957	0.740448
H391	H	0.224944	0.012845	0.104068
H392	H	0.558278	0.346178	0.437402
H393	H	0.891611	0.679512	0.770735
H394	H	0.296660	-0.032479	0.096157
H395	H	0.629994	0.300854	0.429491
H396	H	0.963327	0.634188	0.762824
N397	N	0.381460	0.159381	-0.073403
N398	N	0.714794	0.492714	0.259930
N399	N	1.048127	0.826047	0.593263
H400	H	0.343319	0.184159	-0.095827
H401	H	0.676653	0.517492	0.237506
H402	H	1.009986	0.850825	0.570839
H403	H	0.414999	0.138777	-0.103648
H404	H	0.748332	0.472110	0.229685
H405	H	1.081666	0.805443	0.563018
N406	N	0.673489	0.195185	0.434101
N407	N	1.006823	0.528519	0.767434
N408	N	1.340156	0.861852	1.100767
H409	H	0.643348	0.219738	0.463910
H410	H	0.976682	0.553071	0.797243
H411	H	1.310015	0.886405	1.130576
H412	H	0.642993	0.173395	0.407702
H413	H	0.976326	0.506729	0.741036
H414	H	1.309660	0.840062	1.074369
N415	N	0.918905	-0.004759	0.858850
N416	N	1.252238	0.328574	1.192183
N417	N	1.585571	0.661908	1.525517
H418	H	0.911682	0.001124	0.903971
H419	H	1.245015	0.334457	1.237304
H420	H	1.578349	0.667791	1.570638
H421	H	0.968104	0.001795	0.847741
H422	H	1.301437	0.335129	1.181074
H423	H	1.634771	0.668462	1.514408
N424	N	0.636669	-0.028462	0.000124
N425	N	0.970002	0.304871	0.333458
N426	N	1.303336	0.638204	0.666791
H427	H	0.686744	-0.019968	0.000119
H428	H	1.020078	0.313365	0.333452
H429	H	1.353411	0.646699	0.666785
H430	H	0.627775	-0.051287	-0.037337
H431	H	0.961108	0.282046	0.295996
H432	H	1.294442	0.615380	0.629329
H433	H	0.733648	0.146135	0.850479
H434	H	1.066981	0.479468	1.183812
H435	H	1.400314	0.812801	1.517146
H436	H	0.819170	-0.478074	-0.154838
H437	H	1.152503	-0.144741	0.178495
H438	H	1.485836	0.188592	0.511829
N439	N	0.721036	0.156424	0.141507
N440	N	1.054370	0.489758	0.474840
N441	N	1.387703	0.823091	0.808174
H442	H	0.728655	0.196850	0.152589
H443	H	1.061988	0.530183	0.485922
H444	H	1.395322	0.863516	0.819256
H445	H	0.671834	0.149847	0.152577
H446	H	1.005167	0.483180	0.485911
H447	H	1.338500	0.816514	0.819244
H448	H	0.146545	0.168111	0.000222
H449	H	0.479879	0.501445	0.333555
H450	H	0.813212	0.834778	0.666888
N451	N	0.003280	0.180142	0.000209
N452	N	0.336614	0.513475	0.333542
N453	N	0.669947	0.846809	0.666876
H454	H	0.012110	0.203005	0.037662
H455	H	0.345443	0.536338	0.370995
H456	H	0.678776	0.869671	0.704328
H457	H	-0.046782	0.171621	0.000179
H458	H	0.286551	0.504954	0.333512
H459	H	0.619884	0.838287	0.666845
N460	N	0.039227	-0.035647	0.000211
N461	N	0.372561	0.297686	0.333545
N462	N	0.705894	0.631019	0.666878
H463	H	-0.013473	-0.028391	0.000220
H464	H	0.319860	0.304942	0.333553
H465	H	0.653193	0.638276	0.666887
H466	H	0.055678	-0.058157	0.037667
H467	H	0.389012	0.275176	0.371000
H468	H	0.722345	0.608510	0.704333
H469	H	0.823161	-0.204760	0.100119
H470	H	1.156494	0.128574	0.433452
H471	H	1.489828	0.461907	0.766785
H472	H	0.820725	-0.370233	0.155211
H473	H	1.154058	-0.036899	0.488544
H474	H	1.487391	0.296434	0.821877
N475	N	0.820866	-0.362469	-0.169395
N476	N	1.154199	-0.029136	0.163938
N477	N	1.487532	0.304197	0.497272
H478	H	0.777653	-0.368084	-0.193483
H479	H	1.110986	-0.034750	0.139850
H480	H	1.444319	0.298583	0.473183
H481	H	0.863809	-0.377563	-0.193421
H482	H	1.197142	-0.044229	0.139912
H483	H	1.530475	0.289104	0.473246
N484	N	0.189798	-0.033832	0.000189
N485	N	0.523132	0.299502	0.333522
N486	N	0.856465	0.632835	0.666856
H487	H	0.161340	-0.067121	0.000191
H488	H	0.494673	0.266212	0.333524
H489	H	0.828006	0.599546	0.666857
H490	H	0.220246	-0.035728	0.037643
H491	H	0.553580	0.297606	0.370976
H492	H	0.886913	0.630939	0.704310
H493	H	0.823205	-0.204841	-0.099770
H494	H	1.156539	0.128492	0.233563
H495	H	1.489872	0.461825	0.566896
H496	H	0.493376	-0.016435	0.000156
H497	H	0.826709	0.316898	0.333489
H498	H	1.160043	0.650232	0.666822
