data_functionalizedCrystal
_audit_creation_method	'MofGen! by Chris Wilmer'
_symmetry_space_group_name_H-M	'P1'
_symmetry_Int_Tables_number	1
_symmetry_cell_setting	triclinic
loop_
_symmetry_equiv_pos_as_xyz
  x,y,z
_cell_length_a	10.654554
_cell_length_b	15.944493
_cell_length_c	9.730223
_cell_angle_alpha	90.004543
_cell_angle_beta	89.999030
_cell_angle_gamma	83.980943
loop_
_atom_site_label
_atom_site_type_symbol
_atom_site_fract_x
_atom_site_fract_y
_atom_site_fract_z
O1	O	1.666267	0.117995	-0.114295
O2	O	2.166267	0.617995	0.385705
O3	O	1.300641	0.129231	-0.114290
O4	O	1.800641	0.629231	0.385710
O5	O	1.493476	0.001393	-0.114304
O6	O	1.993476	0.501393	0.385696
O7	O	1.473431	0.245833	-0.114281
O8	O	1.973431	0.745833	0.385719
O9	O	1.493474	0.001396	0.114276
O10	O	1.993474	0.501396	0.614276
O11	O	1.300638	0.129234	0.114290
O12	O	1.800638	0.629234	0.614290
O13	O	1.666265	0.117998	0.114285
O14	O	2.166265	0.617998	0.614285
Zn15	Zn	1.483451	0.123617	0.150580
Zn16	Zn	1.983451	0.623617	0.650580
Zn17	Zn	1.483454	0.123612	-0.150584
Zn18	Zn	1.983454	0.623612	0.349416
O19	O	1.473429	0.245836	0.114299
O20	O	1.973429	0.745836	0.614299
C21	C	1.253852	0.128407	0.000000
C22	C	1.753852	0.628407	0.500000
C23	C	1.114442	0.125936	0.000001
C24	C	1.614442	0.625936	0.500001
C25	C	0.932939	0.046021	-0.000025
C26	C	1.432939	0.546021	0.499975
C27	C	1.063930	0.048342	-0.000010
C28	C	1.563930	0.548342	0.499990
C29	C	1.033956	0.201214	0.000012
C30	C	1.533956	0.701214	0.500012
C31	C	0.902968	0.198892	0.000007
C32	C	1.402968	0.698892	0.500007
C33	C	0.950246	-0.042239	-0.000043
C34	C	1.450246	0.457761	0.499957
C35	C	1.081237	-0.039918	-0.000029
C36	C	1.581237	0.460082	0.499971
C37	C	1.492656	-0.029905	-0.000020
C38	C	1.992656	0.470095	0.499980
C39	C	1.490200	-0.123168	-0.000037
C40	C	1.990200	0.376832	0.499963
C41	C	1.603707	-0.358270	-0.000013
C42	C	2.103707	0.141730	0.499987
C43	C	1.542498	-0.409194	-0.112713
C44	C	2.042498	0.090806	0.387287
C45	C	1.485648	-0.293915	-0.000020
C46	C	1.985648	0.206085	0.499980
C47	C	1.542468	-0.409167	0.112649
C48	C	2.042468	0.090833	0.612649
C49	C	1.481261	-0.458851	0.000002
C50	C	1.981261	0.041149	0.500002
C51	C	1.424471	-0.343612	-0.112814
C52	C	1.924471	0.156388	0.387186
C53	C	1.424459	-0.343581	0.112649
C54	C	1.924459	0.156419	0.612649
C55	C	1.363163	-0.394473	-0.000078
C56	C	1.863163	0.105527	0.499922
C57	C	1.488179	-0.198901	-0.000034
C58	C	1.988179	0.301099	0.499966
C59	C	1.478721	-0.553862	0.000006
C60	C	1.978721	-0.053862	0.500006
C61	C	1.713053	0.118822	-0.000008
C62	C	2.213053	0.618822	0.499992
C63	C	1.852463	0.121293	-0.000018
C64	C	2.352463	0.621293	0.499982
C65	C	1.474250	0.277134	0.000012
C66	C	1.974250	0.777134	0.500012
C67	C	1.476706	0.370397	0.000020
C68	C	1.976706	0.870397	0.500020
N69	N	1.483458	0.123619	0.356116
N70	N	1.983458	0.623619	0.856116
N71	N	1.483457	0.123603	-0.356121
N72	N	1.983457	0.623603	0.143879
C73	C	1.568868	0.067032	0.428036
C74	C	2.068868	0.567032	0.928036
C75	C	1.568865	0.067021	0.571919
C76	C	2.068865	0.567021	1.071919
C77	C	1.398039	0.180193	0.571949
C78	C	1.898039	0.680193	1.071949
C79	C	1.398037	0.180199	0.428069
C80	C	1.898037	0.680199	0.928069
C81	C	1.667497	0.001695	0.428020
C82	C	2.167497	0.501695	0.928020
C83	C	1.667493	0.001685	0.571902
C84	C	2.167493	0.501685	1.071902
H85	H	0.921339	-0.076757	0.095607
H86	H	1.421339	0.423243	0.595607
H87	H	1.758409	0.022154	0.383394
H88	H	2.258409	0.522154	0.883394
H89	H	1.328479	0.226269	0.369513
H90	H	1.828479	0.726269	0.869513
H91	H	0.914991	-0.070345	-0.098743
H92	H	1.414991	0.429655	0.401257
Cl93	Cl	1.290657	0.251318	0.662413
Cl94	Cl	1.790657	0.751318	1.162413
Cl95	Cl	0.801801	0.293524	0.000037
Cl96	Cl	1.301801	0.793524	0.500037
Cl97	Cl	1.347545	-0.299570	-0.260081
Cl98	Cl	1.847545	0.200430	0.239919
H99	H	1.261391	-0.410530	-0.000139
H100	H	1.761391	0.089470	0.499861
Cl101	Cl	1.097457	0.298762	0.000041
Cl102	Cl	1.597457	0.798762	0.500041
Cl103	Cl	1.152253	-0.081088	0.152347
Cl104	Cl	1.652253	0.418912	0.652347
Cl105	Cl	1.619477	-0.453384	0.259746
Cl106	Cl	2.119477	0.046616	0.759746
H107	H	1.637789	-0.059327	0.616512
H108	H	2.137789	0.440673	1.116512
H109	H	1.123435	-0.073170	-0.095694
H110	H	1.623435	0.426830	0.404306
H111	H	1.705400	-0.342051	-0.000127
H112	H	2.205400	0.157949	0.499873
H113	H	1.592357	-0.437852	-0.207995
H114	H	2.092357	0.062148	0.292005
H115	H	1.646909	-0.062868	0.388960
H116	H	2.146909	0.437132	0.888960
H117	H	1.374643	-0.314908	0.207935
H118	H	1.874643	0.185092	0.707935
Cl119	Cl	1.816202	0.023899	0.632205
Cl120	Cl	2.316202	0.523899	1.132205
