data_functionalizedCrystal
_audit_creation_method	'MofGen! by Chris Wilmer'
_symmetry_space_group_name_H-M	'P1'
_symmetry_Int_Tables_number	1
_symmetry_cell_setting	triclinic
loop_
_symmetry_equiv_pos_as_xyz
  x,y,z
_cell_length_a	10.723024
_cell_length_b	18.266242
_cell_length_c	10.723024
_cell_angle_alpha	89.994867
_cell_angle_beta	84.467869
_cell_angle_gamma	89.990655
loop_
_atom_site_label
_atom_site_type_symbol
_atom_site_fract_x
_atom_site_fract_y
_atom_site_fract_z
O1	O	-1.657197	0.060885	-0.175029
O2	O	-1.294044	0.060885	-0.191783
O3	O	-1.483997	0.060882	-0.001830
O4	O	-1.467244	0.060888	-0.364982
O5	O	-1.483964	-0.060880	-0.001820
O6	O	-1.294012	-0.060877	-0.191772
O7	O	-1.657164	-0.060877	-0.175019
Zn8	Zn	-1.475583	-0.080209	-0.183394
Zn9	Zn	-1.475625	0.080217	-0.183408
O10	O	-1.467211	-0.060874	-0.364972
C11	C	-1.247528	0.000004	-0.190558
C12	C	-1.108974	0.000004	-0.186911
C13	C	-1.033991	0.000005	-0.293198
C14	C	-0.890788	0.000005	-0.289431
N15	N	-1.475562	-0.189696	-0.183384
C16	C	-1.559702	-0.228006	-0.099315
C17	C	-1.559710	-0.304651	-0.099309
C18	C	-1.475590	-0.342983	-0.183394
C19	C	-1.391435	-0.304664	-0.267470
C20	C	-1.391421	-0.228021	-0.267465
N21	N	-1.460652	-0.463314	-0.293680
N22	N	-1.460672	-0.536122	-0.293681
C23	C	-1.475625	-0.573906	-0.183413
N24	N	-1.490582	-0.536131	-0.073140
N25	N	-1.490567	-0.463316	-0.073141
C26	C	-1.475595	-0.426090	-0.183409
C27	C	-1.559778	-0.695323	-0.099331
C28	C	-1.559777	-0.771969	-0.099323
C29	C	-1.391509	-0.771980	-0.267495
C30	C	-1.391503	-0.695336	-0.267491
C31	C	-1.475645	-0.657011	-0.183411
C32	C	-0.703680	0.000004	-0.176243
C33	C	-0.842234	0.000004	-0.179891
C34	C	-1.482762	0.000002	0.044675
C35	C	-1.479114	0.000005	0.183229
N36	N	-1.475656	0.189704	-0.183408
C37	C	-1.468447	0.000007	-0.411477
C38	C	-1.472094	0.000010	-0.550031
C39	C	-1.585401	0.000006	0.258212
C40	C	-1.581634	0.000008	0.401415
H41	H	-0.906659	0.000007	-0.088896
H42	H	-1.628290	-0.803162	-0.030857
H43	H	-1.672624	0.000006	0.465848
O44	O	-0.805448	-0.000001	-0.409966
H45	H	-0.745477	0.049623	-0.413767
H46	H	-1.323012	-0.803190	-0.335953
O47	O	-1.300767	-0.654007	-0.358181
H48	H	-1.242281	-0.693536	-0.416659
H49	H	-1.679187	0.000001	0.216390
O50	O	-1.300661	-0.186691	-0.358134
H51	H	-1.353694	-0.151753	-0.419260
H52	H	-1.075814	0.000003	-0.386984
H53	H	-1.067152	0.000021	-0.093125
H54	H	-1.381099	0.000004	0.385544
H55	H	-1.385328	0.000009	0.225051
H56	H	-1.628287	-0.664118	-0.030863
H57	H	-1.628228	-0.335849	-0.030847
O58	O	-1.650433	-0.186669	-0.008617
H59	H	-1.708933	-0.226190	0.049853
H60	H	-1.322942	-0.335878	-0.335931
