data_functionalizedCrystal
_audit_creation_method	'MofGen! by Chris Wilmer'
_symmetry_space_group_name_H-M	'P1'
_symmetry_Int_Tables_number	1
_symmetry_cell_setting	triclinic
loop_
_symmetry_equiv_pos_as_xyz
  x,y,z
_cell_length_a	15.944551
_cell_length_b	11.792253
_cell_length_c	10.268362
_cell_angle_alpha	89.989159
_cell_angle_beta	90.000094
_cell_angle_gamma	96.151331
loop_
_atom_site_label
_atom_site_type_symbol
_atom_site_fract_x
_atom_site_fract_y
_atom_site_fract_z
O1	O	1.115190	-0.146380	0.108181
O2	O	1.448523	0.186954	0.441514
O3	O	1.781856	0.520287	0.774847
O4	O	0.870722	-0.164427	0.108215
O5	O	1.204055	0.168907	0.441548
O6	O	1.537389	0.502240	0.774882
O7	O	0.998883	0.009815	0.108170
O8	O	1.332216	0.343149	0.441503
O9	O	1.665550	0.676482	0.774837
O10	O	0.987029	-0.320622	0.108226
O11	O	1.320362	0.012712	0.441559
O12	O	1.653696	0.346045	0.774892
O13	O	0.998872	0.009822	-0.108431
O14	O	1.332205	0.343156	0.224903
O15	O	1.665538	0.676489	0.558236
O16	O	0.870711	-0.164420	-0.108385
O17	O	1.204044	0.168914	0.224948
O18	O	1.537377	0.502247	0.558281
O19	O	1.115178	-0.146373	-0.108420
O20	O	1.448512	0.186961	0.224913
O21	O	1.781845	0.520294	0.558247
Cu22	Cu	0.992944	-0.155395	-0.128180
Cu23	Cu	1.326277	0.177938	0.205153
Cu24	Cu	1.659610	0.511271	0.538487
Cu25	Cu	0.992957	-0.155404	0.127975
Cu26	Cu	1.326290	0.177929	0.461309
Cu27	Cu	1.659624	0.511263	0.794642
O28	O	0.987018	-0.320615	-0.108375
O29	O	1.320351	0.012719	0.224958
O30	O	1.653684	0.346052	0.558292
C31	C	0.839419	-0.163674	-0.000081
C32	C	1.172752	0.169659	0.333252
C33	C	1.506086	0.502993	0.666586
C34	C	0.746163	-0.161428	-0.000069
C35	C	1.079496	0.171905	0.333264
C36	C	1.412829	0.505239	0.666597
C37	C	0.998131	0.052103	-0.000134
C38	C	1.331464	0.385437	0.333199
C39	C	1.664797	0.718770	0.666532
C40	C	0.995895	0.178098	-0.000146
C41	C	1.329229	0.511431	0.333187
C42	C	1.662562	0.844765	0.666520
N43	N	0.992940	-0.155389	-0.308346
N44	N	1.326274	0.177945	0.024987
N45	N	1.659607	0.511278	0.358321
C46	C	0.530791	-0.048056	-0.000114
C47	C	0.864124	0.285278	0.333220
C48	C	1.197457	0.618611	0.666553
C49	C	0.470015	-0.100705	0.106691
C50	C	0.803349	0.232628	0.440024
C51	C	1.136682	0.565961	0.773357
C52	C	0.575418	-0.157364	-0.000085
C53	C	0.908752	0.175969	0.333248
C54	C	1.242085	0.509302	0.666581
C55	C	0.470027	-0.100724	-0.106860
C56	C	0.803360	0.232609	0.226473
C57	C	1.136693	0.565942	0.559806
C58	C	0.410488	-0.153431	-0.000107
C59	C	0.743821	0.179902	0.333227
C60	C	1.077155	0.513235	0.666560
C61	C	0.515872	-0.210044	0.106807
C62	C	0.849205	0.123289	0.440141
C63	C	1.182538	0.456623	0.773474
C64	C	0.515889	-0.210048	-0.106840
C65	C	0.849222	0.123286	0.226493
C66	C	1.182556	0.456619	0.559827
C67	C	0.455132	-0.262777	-0.000009
C68	C	0.788465	0.070556	0.333324
C69	C	1.121799	0.403890	0.666657
C70	C	0.670431	-0.159627	-0.000072
C71	C	1.003764	0.173706	0.333261
C72	C	1.337098	0.507040	0.666595
C73	C	0.315477	-0.151177	-0.000111
C74	C	0.648810	0.182156	0.333223
C75	C	0.982143	0.515489	0.666556
C76	C	1.146481	-0.147125	-0.000121
C77	C	1.479815	0.186208	0.333213
C78	C	1.813148	0.519541	0.666546
C79	C	1.239738	-0.149371	-0.000124
C80	C	1.573071	0.183962	0.333209
C81	C	1.906404	0.517295	0.666543
C82	C	0.994079	0.280420	-0.000153
C83	C	1.327413	0.613753	0.333181
C84	C	1.660746	0.947086	0.666514
C85	C	0.991809	0.408787	-0.000154
C86	C	1.325142	0.742121	0.333179
C87	C	1.658475	1.075454	0.666513
C88	C	0.987770	0.637097	-0.000095
C89	C	1.321103	0.970431	0.333239
C90	C	1.654437	1.303764	0.666572
C91	C	0.990005	0.511103	-0.000155
C92	C	1.323338	0.844436	0.333178
C93	C	1.656672	1.177769	0.666512
C94	C	0.992953	-0.155402	-0.574016
C95	C	1.326286	0.177932	-0.240683
C96	C	1.659619	0.511265	0.092650
C97	C	0.992943	-0.155398	-0.426179
C98	C	1.326276	0.177935	-0.092845
C99	C	1.659610	0.511269	0.240488
N100	N	0.992967	-0.155402	0.308141
N101	N	1.326300	0.177932	0.641475
N102	N	1.659633	0.511265	0.974808
H103	H	0.449700	-0.054475	0.196971
H104	H	0.783033	0.278858	0.530305
H105	H	1.116366	0.612191	0.863638
H106	H	0.422386	-0.353588	0.000066
H107	H	0.755719	-0.020254	0.333399
H108	H	1.089053	0.313079	0.666732
H109	H	0.536226	-0.256240	-0.197124
H110	H	0.869559	0.077094	0.136209
H111	H	1.202892	0.410427	0.469542
N112	N	0.443130	-0.039463	-0.226463
N113	N	0.776464	0.293870	0.106870
N114	N	1.109797	0.627204	0.440203
H115	H	0.470928	0.041631	-0.226376
H116	H	0.804261	0.374965	0.106958
H117	H	1.137594	0.708298	0.440291
H118	H	0.460627	-0.080014	-0.307053
H119	H	0.793960	0.253320	0.026281
H120	H	1.127293	0.586653	0.359614
H121	H	0.563711	0.042661	0.000003
H122	H	0.897045	0.375995	0.333337
H123	H	1.230378	0.709328	0.666670
H124	H	0.536074	-0.256246	0.197201
H125	H	0.869407	0.077088	0.530534
H126	H	1.202741	0.410421	0.863867
