data_functionalizedCrystal
_audit_creation_method	'MofGen! by Chris Wilmer'
_symmetry_space_group_name_H-M	'P1'
_symmetry_Int_Tables_number	1
_symmetry_cell_setting	triclinic
loop_
_symmetry_equiv_pos_as_xyz
  x,y,z
_cell_length_a	34.490303
_cell_length_b	34.489386
_cell_length_c	34.485816
_cell_angle_alpha	60.004462
_cell_angle_beta	60.008900
_cell_angle_gamma	59.994399
loop_
_atom_site_label
_atom_site_type_symbol
_atom_site_fract_x
_atom_site_fract_y
_atom_site_fract_z
O1	O	0.053846	-0.566517	0.473678
O2	O	0.553846	-0.066517	0.973678
O3	O	0.020329	-0.441078	0.381663
O4	O	0.520329	0.058922	0.881663
O5	O	0.099768	-0.520436	0.381578
O6	O	0.599768	-0.020436	0.881578
O7	O	-0.025592	-0.487159	0.473762
O8	O	0.474408	0.012841	0.973762
O9	O	0.126127	-0.494082	0.407849
O10	O	0.626127	0.005918	0.907849
O11	O	0.046689	-0.414724	0.407933
O12	O	0.546689	0.085276	0.907933
O13	O	0.080206	-0.540163	0.499949
O14	O	0.580206	-0.040163	0.999949
Zn15	Zn	0.067632	-0.473259	0.458112
Zn16	Zn	0.567632	0.026741	0.958112
Zn17	Zn	0.032903	-0.507982	0.423499
Zn18	Zn	0.532903	-0.007982	0.923499
O19	O	0.000767	-0.460805	0.500033
O20	O	0.500767	0.039195	1.000033
N21	N	0.091336	-0.449565	0.481736
N22	N	0.591336	0.050435	0.981736
N23	N	0.009203	-0.531680	0.399875
N24	N	0.509203	-0.031680	0.899875
C25	C	0.142510	-0.268211	0.532817
C26	C	0.642510	0.231789	1.032817
C27	C	0.142641	-0.398441	0.662987
C28	C	0.642641	0.101559	1.162987
C29	C	0.142524	-0.398421	0.532817
C30	C	0.642524	0.101579	1.032817
C31	C	0.272762	-0.398394	0.532723
C32	C	0.772762	0.101606	1.032723
C33	C	0.156853	-0.311177	0.547124
C34	C	0.656853	0.188823	1.047124
C35	C	0.156928	-0.384109	0.620020
C36	C	0.656928	0.115891	1.120020
C37	C	0.229794	-0.384081	0.547073
C38	C	0.729794	0.115919	1.047073
C39	C	0.156863	-0.384097	0.547124
C40	C	0.656863	0.115903	1.047124
C41	C	0.124253	-0.213522	0.514606
C42	C	0.624253	0.286478	1.014606
C43	C	0.124277	-0.416652	0.514606
C44	C	0.624277	0.083348	1.014606
C45	C	0.175110	-0.365866	0.565335
C46	C	0.675110	0.134134	1.065335
C47	C	0.352285	-0.384669	0.490824
C48	C	0.852285	0.115331	0.990824
C49	C	0.401998	-0.401229	0.474223
C50	C	0.901998	0.098771	0.974223
C51	C	0.402027	-0.481671	0.504898
C52	C	0.902027	0.018329	1.004898
C53	C	0.352316	-0.465109	0.521500
C54	C	0.852316	0.034891	1.021500
C55	C	0.136220	-0.188652	0.465734
C56	C	0.636220	0.311348	0.965734
C57	C	0.119621	-0.138936	0.449181
C58	C	0.619621	0.361064	0.949181
C59	C	0.079092	-0.138961	0.530374
C60	C	0.579092	0.361039	1.030374
C61	C	0.095691	-0.188678	0.546927
C62	C	0.595691	0.311322	1.046927
C63	C	0.075398	-0.404656	0.526651
C64	C	0.575398	0.095344	1.026651
C65	C	0.058814	-0.421229	0.510091
C66	C	0.558814	0.078771	1.010091
C67	C	0.139984	-0.461794	0.469452
C68	C	0.639984	0.038206	0.969452
C69	C	0.156570	-0.445221	0.486007
C70	C	0.656570	0.054779	0.986007
C71	C	0.075593	-0.404694	0.742565
C72	C	0.575593	0.095306	1.242565
C73	C	0.059066	-0.421281	0.792280
C74	C	0.559066	0.078719	1.292280
C75	C	0.140274	-0.461856	0.792215
C76	C	0.640274	0.038144	1.292215
C77	C	0.156800	-0.445269	0.742499
C78	C	0.656800	0.054731	1.242499
C79	C	0.124458	-0.416687	0.717675
C80	C	0.624458	0.083313	1.217675
C81	C	0.327446	-0.416608	0.514460
C82	C	0.827446	0.083392	1.014460
C83	C	-0.023585	-0.564792	0.161919
C84	C	0.476415	-0.064792	0.661919
C85	C	-0.023910	-0.769260	0.366530
C86	C	0.476090	-0.269260	0.866530
C87	C	-0.023880	-0.564780	0.366623
C88	C	0.476120	-0.064780	0.866623
C89	C	-0.228325	-0.564561	0.366222
C90	C	0.271675	-0.064561	0.866222
C91	C	-0.129610	-0.597564	0.333467
C92	C	0.370390	-0.097564	0.833467
C93	C	-0.056729	-0.597644	0.333613
C94	C	0.443271	-0.097644	0.833613
C95	C	-0.074925	-0.615849	0.315324
C96	C	0.425075	-0.115849	0.815324
C97	C	-0.088689	-0.695351	0.357144
C98	C	0.411311	-0.195351	0.857144
C99	C	-0.072155	-0.745068	0.373736
C100	C	0.427845	-0.245068	0.873736
C101	C	0.008283	-0.745150	0.343188
C102	C	0.508283	-0.245150	0.843188
C103	C	-0.008252	-0.695435	0.326596
C104	C	0.491748	-0.195435	0.826596
C105	C	-0.154529	-0.609541	0.382326
C106	C	0.345471	-0.109541	0.882326
C107	C	-0.204241	-0.592916	0.398818
C108	C	0.295759	-0.092916	0.898818
C109	C	-0.204114	-0.552341	0.317588
C110	C	0.295886	-0.052341	0.817588
C111	C	-0.154401	-0.568966	0.301096
C112	C	0.345599	-0.068966	0.801096
C113	C	-0.068707	-0.548770	0.321590
C114	C	0.431293	-0.048770	0.821590
C115	C	-0.052166	-0.532225	0.338221
C116	C	0.447834	-0.032225	0.838221
C117	C	-0.011669	-0.613425	0.378886
C118	C	0.488331	-0.113425	0.878886
C119	C	-0.028210	-0.629972	0.362261
C120	C	0.471790	-0.129972	0.862261
C121	C	-0.068581	-0.548777	0.235758
C122	C	0.431419	-0.048777	0.735758
C123	C	-0.051939	-0.532234	0.186043
C124	C	0.448061	-0.032234	0.686043
C125	C	-0.011379	-0.613438	0.186090
C126	C	0.488621	-0.113438	0.686090
C127	C	-0.028020	-0.629981	0.235806
C128	C	0.471980	-0.129981	0.735806
C129	C	-0.056622	-0.597649	0.260639
C130	C	0.443378	-0.097649	0.760639
C131	C	-0.056739	-0.670537	0.333576
C132	C	0.443261	-0.170537	0.833576
C133	C	-0.005614	-0.545951	0.107238
C134	C	0.494386	-0.045951	0.607238
C135	C	-0.006360	-0.823943	0.385033
C136	C	0.493640	-0.323943	0.885033
C137	C	-0.005995	-0.545937	0.384582
C138	C	0.494005	-0.045937	0.884582
C139	C	-0.283006	-0.545971	0.383725
C140	C	0.216994	-0.045971	0.883725
N141	N	0.426163	-0.449489	0.481488
N142	N	0.926163	0.050511	0.981488
O143	O	0.588601	-0.457377	0.364497
O144	O	1.088601	0.042623	0.864497
O145	O	0.588789	-0.549696	0.489801
O146	O	1.088789	-0.049696	0.989801
O147	O	0.588709	-0.549485	0.410335
O148	O	1.088709	-0.049485	0.910335
O149	O	0.588681	-0.457588	0.443963
O150	O	1.088681	0.042412	0.943963
O151	O	0.509731	-0.523223	0.436741
O152	O	1.009731	-0.023223	0.936741
O153	O	0.509811	-0.523434	0.516207
O154	O	1.009811	-0.023434	1.016207
O155	O	0.509624	-0.431115	0.390903
O156	O	1.009624	0.068885	0.890903
Zn157	Zn	0.497178	-0.473105	0.457747
Zn158	Zn	0.997178	0.026895	0.957747
Zn159	Zn	0.601234	-0.507706	0.422956
Zn160	Zn	1.101234	-0.007706	0.922956
O161	O	0.509704	-0.431326	0.470368
O162	O	1.009704	0.068674	0.970368
N163	N	0.672250	-0.531322	0.399211
N164	N	1.172250	-0.031322	0.899211
N165	N	0.091303	-0.114798	0.481730
N166	N	0.591303	0.385202	0.981730
O167	O	-0.025603	0.047729	0.473733
O168	O	0.474397	0.547729	0.973733
O169	O	0.099703	0.047764	0.381394
O170	O	0.599703	0.547764	0.881394
O171	O	0.020199	0.047731	0.381655
O172	O	0.520199	0.547731	0.881655
O173	O	0.053901	0.047761	0.473472
O174	O	0.553901	0.547761	0.973472
O175	O	0.046564	-0.031252	0.407974
O176	O	0.546564	0.468748	0.907974
O177	O	0.126068	-0.031219	0.407713
O178	O	0.626068	0.468781	0.907713
O179	O	0.000762	-0.031254	0.500052
O180	O	0.500762	0.468746	1.000052
Zn181	Zn	0.067601	-0.043777	0.458061
Zn182	Zn	0.567601	0.456223	0.958061
Zn183	Zn	0.032864	0.060287	0.423385
Zn184	Zn	0.532864	0.560287	0.923385
O185	O	0.080266	-0.031222	0.499791
O186	O	0.580266	0.468778	0.999791
N187	N	0.009156	0.131307	0.399717
N188	N	0.509156	0.631307	0.899717
N189	N	0.091635	-0.449614	0.816396
N190	N	0.591635	0.050386	1.316396
O191	O	0.083664	-0.566502	0.978913
O192	O	0.583664	-0.066502	1.478913
O193	O	-0.008637	-0.441152	0.978954
O194	O	0.491363	0.058848	1.478954
O195	O	-0.008421	-0.520640	0.978930
O196	O	0.491579	-0.020640	1.478930
O197	O	0.083448	-0.487013	0.978936
O198	O	0.583448	0.012987	1.478936
O199	O	0.017877	-0.494296	0.899950
O200	O	0.517877	0.005704	1.399950
O201	O	0.017661	-0.414807	0.899974
O202	O	0.517661	0.085193	1.399974
O203	O	0.109961	-0.540157	0.899933
O204	O	0.609961	-0.040157	1.399933
Zn205	Zn	0.067986	-0.473299	0.887414
Zn206	Zn	0.567986	0.026701	1.387414
Zn207	Zn	0.033338	-0.508010	0.991473
Zn208	Zn	0.533338	-0.008010	1.491473
O209	O	0.109746	-0.460669	0.899956
O210	O	0.609746	0.039331	1.399956
N211	N	0.009689	-0.531700	1.062491
N212	N	0.509689	-0.031700	1.562491
C213	C	0.030367	-0.412095	0.382120
C214	C	0.530367	0.087905	0.882120
C215	C	0.128741	-0.510370	0.382016
C216	C	0.628741	-0.010370	0.882016
C217	C	0.070168	-0.569147	0.499490
C218	C	0.570168	-0.069147	0.999490
C219	C	-0.028207	-0.470871	0.499595
C220	C	0.471793	0.029129	0.999595
C221	C	0.549323	-0.549278	0.518791
C222	C	1.049323	-0.049278	1.018791
C223	C	0.549225	-0.549017	0.420381
C224	C	1.049225	-0.049017	0.920381
C225	C	0.549087	-0.431532	0.361914
C226	C	1.049087	0.068468	0.861914
C227	C	0.549188	-0.431794	0.460322
C228	C	1.049188	0.068206	0.960322
C229	C	0.128638	0.008374	0.381806
C230	C	0.628638	0.508374	0.881806
C231	C	0.030215	0.008236	0.382161
C232	C	0.530215	0.508236	0.882161
C233	C	-0.028206	0.008233	0.499608
C234	C	0.471794	0.508233	0.999608
C235	C	0.070250	0.008272	0.499285
C236	C	0.570250	0.508272	0.999285
C237	C	-0.008199	-0.412187	0.939469
C238	C	0.491801	0.087813	1.439469
C239	C	-0.007927	-0.510619	0.939425
C240	C	0.492073	-0.010619	1.439425
C241	C	0.109523	-0.569121	0.939417
C242	C	0.609523	-0.069121	1.439417
C243	C	0.109257	-0.470684	0.939444
C244	C	0.609257	0.029316	1.439444
H245	H	0.019274	-0.411508	0.812539
H246	H	0.519274	0.088492	1.312539
O247	O	0.549469	-0.583868	0.561702
O248	O	1.049469	-0.083868	1.061702
C249	C	0.590460	-0.634034	0.618854
C250	C	1.090460	-0.134034	1.118854
C251	C	0.590359	-0.594868	0.570243
C252	C	1.090359	-0.094868	1.070243
H253	H	0.623511	-0.642932	0.625780
H254	H	1.123511	-0.142932	1.125780
H255	H	0.590512	-0.667151	0.618926
H256	H	1.090512	-0.167151	1.118926
H257	H	0.557409	-0.620989	0.647862
H258	H	1.057409	-0.120989	1.147862
H259	H	0.623405	-0.607868	0.541208
H260	H	1.123405	-0.107868	1.041208
H261	H	0.590282	-0.561759	0.570212
H262	H	1.090282	-0.061759	1.070212
O263	O	0.011337	-0.409522	0.521709
O264	O	0.511337	0.090478	1.021709
C265	C	-0.054530	-0.371297	0.493205
C266	C	0.445470	0.128703	0.993205
C267	C	-0.000759	-0.384516	0.479981
C268	C	0.499241	0.115484	0.979981
H269	H	-0.064325	-0.351086	0.459475
H270	H	0.435675	0.148914	0.959475
H271	H	-0.074785	-0.348009	0.516470
H272	H	0.425215	0.151991	1.016470
H273	H	-0.064282	-0.405046	0.513462
H274	H	0.435718	0.094954	1.013462
H275	H	0.009037	-0.350793	0.459706
H276	H	0.509037	0.149207	0.959706
H277	H	0.019466	-0.407823	0.456738
H278	H	0.519466	0.092177	0.956738
H279	H	0.138503	-0.605120	0.939399
H280	H	0.638503	-0.105120	1.439399
O281	O	0.548998	-0.396893	0.319018
O282	O	1.048998	0.103107	0.819018
C283	C	0.548923	-0.316815	0.270373
C284	C	1.048923	0.183185	0.770373
C285	C	0.549013	-0.355998	0.318977
C286	C	1.049013	0.144002	0.818977
H287	H	0.548944	-0.283746	0.270321
H288	H	1.048944	0.216254	0.770321
H289	H	0.515845	-0.307835	0.263444
H290	H	1.015845	0.192165	0.763444
H291	H	0.581949	-0.329874	0.241357
H292	H	1.081949	0.170126	0.741357
H293	H	0.516008	-0.342972	0.348024
H294	H	1.016008	0.157028	0.848024
H295	H	0.582112	-0.364973	0.325865
H296	H	1.082112	0.135027	0.825865
O297	O	0.021680	0.008248	0.347686
O298	O	0.521680	0.508248	0.847686
C299	C	0.052706	0.008218	0.267687
C300	C	0.552706	0.508218	0.767687
C301	C	0.062432	0.008216	0.306684
C302	C	0.562432	0.508216	0.806684
H303	H	0.085651	0.008181	0.234531
H304	H	0.585651	0.508181	0.734531
H305	H	0.021625	0.041273	0.258794
H306	H	0.521625	0.541273	0.758794
H307	H	0.043649	-0.024836	0.280883
H308	H	0.543649	0.475164	0.780883
H309	H	0.071509	0.041247	0.293521
H310	H	0.571509	0.541247	0.793521
H311	H	0.093500	-0.024861	0.315571
H312	H	0.593500	0.475139	0.815571
O313	O	0.143646	-0.462017	0.939418
O314	O	0.643646	0.037983	1.439418
C315	C	0.165356	-0.405605	0.939454
C316	C	0.665356	0.094395	1.439454
C317	C	0.126372	-0.415353	0.939473
C318	C	0.626372	0.084647	1.439473
H319	H	0.151401	-0.367881	0.939509
H320	H	0.651401	0.132119	1.439509
H321	H	0.197759	-0.409815	0.906386
H322	H	0.697759	0.090185	1.406386
H323	H	0.175760	-0.431920	0.972492
H324	H	0.675760	0.068080	1.472492
H325	H	0.115928	-0.389047	0.906458
H326	H	0.615928	0.110953	1.406458
H327	H	0.093995	-0.411160	0.972563
H328	H	0.593995	0.088840	1.472563
H329	H	0.077468	0.008281	0.528131
H330	H	0.577468	0.508281	1.028131
O331	O	0.078779	-0.612168	0.533911
O332	O	0.578779	-0.112168	1.033911
C333	C	0.135149	-0.690334	0.555750
C334	C	0.635149	-0.190334	1.055750
C335	C	0.125457	-0.641638	0.516724
C336	C	0.625457	-0.141638	1.016724
H337	H	0.172891	-0.714170	0.541872
H338	H	0.672891	-0.214170	1.041872
H339	H	0.108866	-0.707485	0.566144
H340	H	0.608866	-0.207485	1.066144
H341	H	0.130873	-0.685381	0.588142
H342	H	0.630873	-0.185381	1.088142
H343	H	0.129739	-0.646549	0.484306
H344	H	0.629739	-0.146549	0.984306
H345	H	0.151739	-0.624503	0.506370
H346	H	0.651739	-0.124503	1.006370
H347	H	0.164551	0.008603	0.352745
H348	H	0.664551	0.508603	0.852745
H349	H	0.549182	-0.402927	0.467517
H350	H	1.049182	0.097073	0.967517
H351	H	-0.064192	0.008222	0.528596
H352	H	0.435808	0.508222	1.028596
O353	O	-0.042726	-0.369221	0.939504
O354	O	0.457274	0.130779	1.439504
C355	C	-0.064798	-0.290979	0.939498
C356	C	0.435202	0.209021	1.439498
C357	C	-0.025658	-0.339620	0.939470
C358	C	0.474342	0.160380	1.439470
H359	H	-0.051009	-0.267029	0.939460
H360	H	0.448991	0.232971	1.439460
H361	H	-0.097178	-0.295943	0.972562
H362	H	0.402822	0.204057	1.472562
H363	H	-0.075173	-0.273944	0.906456
H364	H	0.424827	0.226056	1.406456
H365	H	-0.015242	-0.356682	0.972489
H366	H	0.484758	0.143318	1.472489
H367	H	0.006697	-0.334625	0.906384
H368	H	0.506697	0.165375	1.406384
H369	H	0.049253	-0.381417	0.722357
H370	H	0.549253	0.118583	1.222357
H371	H	0.166612	-0.485121	0.812425
H372	H	0.666612	0.014879	1.312425
H373	H	-0.036776	-0.517804	0.939391
H374	H	0.463224	-0.017804	1.439391
H375	H	0.049100	-0.381393	0.549936
H376	H	0.549100	0.118607	1.049936
O377	O	0.204286	-0.456946	0.718396
O378	O	0.704286	0.043054	1.218396
C379	C	0.283088	-0.498960	0.723582
C380	C	0.783088	0.001040	1.223582
C381	C	0.229325	-0.485764	0.750936
C382	C	0.729325	0.014236	1.250936
H383	H	0.303348	-0.522269	0.749878
H384	H	0.803348	-0.022269	1.249878
H385	H	0.292878	-0.465233	0.700319
H386	H	0.792878	0.034767	1.200319
H387	H	0.292841	-0.519176	0.700291
H388	H	0.792841	-0.019176	1.200291
H389	H	0.219533	-0.465560	0.774252
H390	H	0.719533	0.034440	1.274252
H391	H	0.219564	-0.519509	0.774168
H392	H	0.719564	-0.019509	1.274168
O393	O	0.549153	-0.583416	0.411807
O394	O	1.049153	-0.083416	0.911807
C395	C	0.508239	-0.606102	0.390918
C396	C	1.008239	-0.106102	0.890918
C397	C	0.508255	-0.567109	0.400627
C398	C	1.008255	-0.067109	0.900627
H399	H	0.475182	-0.592928	0.381867
H400	H	0.975182	-0.092928	0.881867
H401	H	0.508262	-0.639284	0.423842
H402	H	1.008262	-0.139284	0.923842
H403	H	0.541284	-0.614951	0.359820
H404	H	1.041284	-0.114951	0.859820
H405	H	0.475216	-0.558219	0.431709
H406	H	0.975216	-0.058219	0.931709
H407	H	0.508256	-0.533951	0.367679
H408	H	1.008256	-0.033951	0.867679
O409	O	0.171420	-0.489528	0.441661
O410	O	0.671420	0.010472	0.941661
C411	C	0.253683	-0.528042	0.403125
C412	C	0.753683	-0.028042	0.903125
C413	C	0.218136	-0.496623	0.434593
C414	C	0.718136	0.003377	0.934593
H415	H	0.291459	-0.533795	0.397410
H416	H	0.791459	-0.033795	0.897410
H417	H	0.247957	-0.509826	0.367359
H418	H	0.747957	-0.009826	0.867359
H419	H	0.247943	-0.563795	0.421340
H420	H	0.747943	-0.063795	0.921340
H421	H	0.223854	-0.460864	0.416420
H422	H	0.723854	0.039136	0.916420
H423	H	0.223870	-0.514875	0.470358
H424	H	0.723870	-0.014875	0.970358
O425	O	0.204035	-0.456812	0.474337
O426	O	0.704035	0.043188	0.974337
C427	C	0.265561	-0.449282	0.481858
C428	C	0.765561	0.050718	0.981858
C429	C	0.211795	-0.436110	0.495100
C430	C	0.711795	0.063890	0.995100
H431	H	0.271852	-0.432559	0.498648
H432	H	0.771852	0.067441	0.998648
H433	H	0.282306	-0.435533	0.441604
H434	H	0.782306	0.064467	0.941604
H435	H	0.282331	-0.489541	0.495547
H436	H	0.782331	0.010459	0.995547
H437	H	0.194985	-0.395856	0.481443
H438	H	0.694985	0.104144	0.981443
H439	H	0.195085	-0.449893	0.535356
H440	H	0.695085	0.050107	1.035356
O441	O	0.328262	-0.496198	0.544433
O442	O	0.828262	0.003802	1.044433
C443	C	0.333545	-0.577739	0.573129
C444	C	0.833545	-0.077739	1.073129
C445	C	0.360844	-0.542579	0.547140
C446	C	0.860844	-0.042579	1.047140
H447	H	0.359876	-0.615246	0.575334
H448	H	0.859876	-0.115246	1.075334
H449	H	0.310259	-0.567800	0.552824
H450	H	0.810259	-0.067800	1.052824
H451	H	0.310284	-0.576200	0.610502
H452	H	0.810284	-0.076200	1.110502
H453	H	0.384131	-0.544099	0.509767
H454	H	0.884131	-0.044099	1.009767
H455	H	0.384100	-0.552529	0.567481
H456	H	0.884100	-0.052529	1.067481
H457	H	0.422274	-0.521162	0.510626
H458	H	0.922274	-0.021162	1.010626
H459	H	-0.064213	-0.463781	0.528541
H460	H	0.435787	0.036219	1.028541
H461	H	0.422223	-0.375220	0.454977
H462	H	0.922223	0.124780	0.954977
O463	O	0.055399	-0.769319	0.336327
O464	O	0.555399	-0.269319	0.836327
C465	C	0.134493	-0.784592	0.279561
C466	C	0.634493	-0.284592	0.779561
C467	C	0.081149	-0.757200	0.287265
C468	C	0.581149	-0.257200	0.787265
H469	H	0.155328	-0.774796	0.239897
H470	H	0.655328	-0.274796	0.739897
H471	H	0.140852	-0.824393	0.295434
H472	H	0.640852	-0.324393	0.795434
H473	H	0.146791	-0.774840	0.297656
H474	H	0.646791	-0.274840	0.797656
H475	H	0.068814	-0.766912	0.269170
H476	H	0.568814	-0.266912	0.769170
H477	H	0.074820	-0.717405	0.271404
H478	H	0.574820	-0.217405	0.771404
O479	O	0.328178	-0.337535	0.483904
O480	O	0.828178	0.162465	0.983904
C481	C	0.312893	-0.258480	0.427055
C482	C	0.812893	0.241520	0.927055
C483	C	0.340230	-0.311843	0.434826
C484	C	0.840230	0.188157	0.934826
H485	H	0.322620	-0.237693	0.387377
H486	H	0.822620	0.262307	0.887377
H487	H	0.322694	-0.246104	0.445039
H488	H	0.822694	0.253896	0.945039
H489	H	0.273097	-0.252142	0.443001
H490	H	0.773097	0.247858	0.943001
H491	H	0.380032	-0.318222	0.418878
H492	H	0.880032	0.181778	0.918878
H493	H	0.330390	-0.324193	0.416853
H494	H	0.830390	0.175807	0.916853
O495	O	0.163894	-0.212762	0.434319
O496	O	0.663894	0.287238	0.934319
C497	C	0.170200	-0.227940	0.369996
C498	C	0.670200	0.272060	0.869996
C499	C	0.138806	-0.200612	0.405555
C500	C	0.638806	0.299388	0.905555
H501	H	0.149933	-0.218119	0.346725
H502	H	0.649933	0.281881	0.846725
H503	H	0.180000	-0.267751	0.390197
H504	H	0.680000	0.232249	0.890197
H505	H	0.203927	-0.218155	0.346720
H506	H	0.703927	0.281845	0.846720
H507	H	0.105060	-0.210357	0.428840
H508	H	0.605060	0.289643	0.928840
H509	H	0.129045	-0.160808	0.385324
H510	H	0.629045	0.339192	0.885324
O511	O	0.051407	-0.114880	0.561816
O512	O	0.551407	0.385120	1.061816
C513	C	0.045128	-0.099662	0.626099
C514	C	0.545128	0.400338	1.126099
C515	C	0.076528	-0.126969	0.590522
C516	C	0.576528	0.373031	1.090522
H517	H	0.065430	-0.109418	0.649311
H518	H	0.565430	0.390582	1.149311
H519	H	0.011413	-0.109463	0.649433
H520	H	0.511413	0.390537	1.149433
H521	H	0.035305	-0.059858	0.605865
H522	H	0.535305	0.440142	1.105865
H523	H	0.086387	-0.166779	0.610718
H524	H	0.586387	0.333221	1.110718
H525	H	0.110221	-0.117128	0.567189
H526	H	0.610221	0.382872	1.067189
O527	O	0.084163	-0.212874	0.594392
O528	O	0.584163	0.287126	1.094392
C529	C	0.112827	-0.268946	0.660171
C530	C	0.612827	0.231054	1.160171
C531	C	0.125942	-0.241589	0.606404
C532	C	0.625942	0.258411	1.106404
H533	H	0.146597	-0.292161	0.669901
H534	H	0.646597	0.207839	1.169901
H535	H	0.092614	-0.292275	0.670024
H536	H	0.592614	0.207725	1.170024
H537	H	0.089552	-0.242623	0.680398
H538	H	0.589552	0.257377	1.180398
H539	H	0.149231	-0.267877	0.586140
H540	H	0.649231	0.232123	1.086140
H541	H	0.146131	-0.218253	0.596588
H542	H	0.646131	0.281747	1.096588
H543	H	0.129365	-0.118686	0.409385
H544	H	0.629365	0.381314	0.909385
H545	H	0.164745	-0.517463	0.353068
H546	H	0.664745	-0.017463	0.853068
H547	H	-0.061683	-0.492436	0.165791
H548	H	0.438317	0.007564	0.665791
H549	H	0.011902	-0.639768	0.165877
H550	H	0.511902	-0.139768	0.665877
O551	O	-0.096336	-0.517303	0.259806
O552	O	0.403664	-0.017303	0.759806
C553	C	-0.134817	-0.435013	0.254512
C554	C	0.365183	0.064987	0.754512
C555	C	-0.103379	-0.470602	0.227218
C556	C	0.396621	0.029398	0.727218
H557	H	-0.140530	-0.397247	0.228176
H558	H	0.359470	0.102753	0.728176
H559	H	-0.116642	-0.440726	0.277820
H560	H	0.383358	0.059274	0.777820
H561	H	-0.170584	-0.440723	0.277751
H562	H	0.329416	0.059277	0.777751
H563	H	-0.067607	-0.464913	0.203953
H564	H	0.432393	0.035087	0.703953
H565	H	-0.121592	-0.464879	0.203940
H566	H	0.378408	0.035121	0.703940
H567	H	-0.018278	-0.669778	0.256062
H568	H	0.481722	-0.169778	0.756062
H569	H	-0.091926	-0.522444	0.298262
H570	H	0.408074	-0.022444	0.798262
O571	O	-0.228272	-0.524573	0.286210
O572	O	0.271728	-0.024573	0.786210
C573	C	-0.304802	-0.480949	0.275619
C574	C	0.195198	0.019051	0.775619
C575	C	-0.277503	-0.512404	0.311206
C576	C	0.222497	-0.012404	0.811206
H577	H	-0.344610	-0.471092	0.295814
H578	H	0.155390	0.028908	0.795814
H579	H	-0.295043	-0.501183	0.252343
H580	H	0.204957	-0.001183	0.752343
H581	H	-0.294957	-0.447253	0.252348
H582	H	0.205043	0.052747	0.752348
H583	H	-0.287333	-0.546104	0.334508
H584	H	0.212667	-0.046104	0.834508
H585	H	-0.287264	-0.492134	0.334449
H586	H	0.212736	0.007866	0.834449
H587	H	-0.061921	-0.492427	0.328433
H588	H	0.438079	0.007573	0.828433
H589	H	0.011557	-0.639751	0.402207
H590	H	0.511557	-0.139751	0.902207
H591	H	0.017768	-0.675232	0.307405
H592	H	0.517768	-0.175232	0.807405
O593	O	-0.016595	-0.677457	0.374003
O594	O	0.483405	-0.177457	0.874003
C595	C	-0.020505	-0.751899	0.437006
C596	C	0.479495	-0.251899	0.937006
C597	C	-0.033681	-0.698134	0.423787
C598	C	0.466319	-0.198134	0.923787
H599	H	-0.034321	-0.768632	0.477255
H600	H	0.465679	-0.268632	0.977255
H601	H	0.019748	-0.768724	0.423376
H602	H	0.519748	-0.268724	0.923376
H603	H	-0.037217	-0.758140	0.420164
H604	H	0.462783	-0.258140	0.920164
H605	H	-0.017001	-0.691851	0.440624
H606	H	0.482999	-0.191851	0.940624
H607	H	-0.073938	-0.681336	0.437407
H608	H	0.426062	-0.181336	0.937407
O609	O	-0.103266	-0.769100	0.396695
O610	O	0.396734	-0.269100	0.896695
C611	C	-0.184810	-0.763774	0.425349
C612	C	0.315190	-0.263774	0.925349
C613	C	-0.149624	-0.736497	0.399314
C614	C	0.350376	-0.236497	0.899314
H615	H	-0.222297	-0.737426	0.427466
H616	H	0.277703	-0.237426	0.927466
H617	H	-0.183340	-0.786996	0.462753
H618	H	0.316660	-0.286996	0.962753
H619	H	-0.174833	-0.787099	0.405071
H620	H	0.325167	-0.287099	0.905071
H621	H	-0.159578	-0.713146	0.419552
H622	H	0.340422	-0.213146	0.919552
H623	H	-0.151100	-0.713304	0.361908
H624	H	0.348900	-0.213304	0.861908
H625	H	-0.134345	-0.632833	0.408685
H626	H	0.365655	-0.132833	0.908685
O627	O	-0.135768	-0.671109	0.363833
O628	O	0.364232	-0.171109	0.863833
C629	C	-0.195826	-0.614952	0.327076
C630	C	0.304174	-0.114952	0.827076
C631	C	-0.142496	-0.642373	0.319438
C632	C	0.357504	-0.142373	0.819438
H633	H	-0.201284	-0.591720	0.291189
H634	H	0.298716	-0.091720	0.791189
H635	H	-0.209860	-0.591634	0.348908
H636	H	0.290140	-0.091634	0.848908
H637	H	-0.215821	-0.641232	0.346790
H638	H	0.284179	-0.141232	0.846790
H639	H	-0.122463	-0.616128	0.299711
H640	H	0.377537	-0.116128	0.799711
H641	H	-0.128500	-0.665699	0.297626
H642	H	0.371500	-0.165699	0.797626
O643	O	-0.228431	-0.604633	0.446287
O644	O	0.271569	-0.104633	0.946287
C645	C	-0.243740	-0.667629	0.520745
C646	C	0.256260	-0.167629	1.020745
C647	C	-0.216324	-0.654423	0.466993
C648	C	0.283676	-0.154423	0.966993
H649	H	-0.233954	-0.707885	0.537503
H650	H	0.266046	-0.207885	1.037503
H651	H	-0.283534	-0.650872	0.526997
H652	H	0.216466	-0.150872	1.026997
H653	H	-0.234003	-0.653901	0.537533
H654	H	0.265997	-0.153901	1.037533
H655	H	-0.226021	-0.668149	0.450169
H656	H	0.273979	-0.168149	0.950169
H657	H	-0.176536	-0.671173	0.460774
H658	H	0.323464	-0.171173	0.960774
O659	O	-0.130212	-0.557391	0.253627
O660	O	0.369788	-0.057391	0.753627
C661	C	-0.114915	-0.561175	0.179132
C662	C	0.385085	-0.061175	0.679132
C663	C	-0.142330	-0.574322	0.232885
C664	C	0.357670	-0.074322	0.732885
H665	H	-0.124710	-0.574849	0.162345
H666	H	0.375290	-0.074849	0.662345
H667	H	-0.075121	-0.577984	0.172879
H668	H	0.424879	-0.077984	0.672879
H669	H	-0.124644	-0.520922	0.162374
H670	H	0.375356	-0.020922	0.662374
H671	H	-0.132641	-0.614568	0.249679
H672	H	0.367359	-0.114568	0.749679
H673	H	-0.182118	-0.557480	0.239104
H674	H	0.317882	-0.057480	0.739104
O675	O	0.021741	-0.369089	0.347685
O676	O	0.521741	0.130911	0.847685
C677	C	-0.034612	-0.290906	0.325863
C678	C	0.465388	0.209094	0.825863
C679	C	-0.024910	-0.339591	0.364900
C680	C	0.475090	0.160409	0.864900
H681	H	-0.072325	-0.267040	0.339770
H682	H	0.427675	0.232960	0.839770
H683	H	-0.030398	-0.295816	0.293473
H684	H	0.469602	0.204184	0.793473
H685	H	-0.008279	-0.273808	0.315455
H686	H	0.491721	0.226192	0.815455
H687	H	-0.051235	-0.356716	0.375348
H688	H	0.448765	0.143284	0.875348
H689	H	-0.029108	-0.334649	0.397264
H690	H	0.470892	0.165351	0.897264
