data_functionalizedCrystal
_audit_creation_method	'MofGen! by Chris Wilmer'
_symmetry_space_group_name_H-M	'P1'
_symmetry_Int_Tables_number	1
_symmetry_cell_setting	triclinic
loop_
_symmetry_equiv_pos_as_xyz
  x,y,z
_cell_length_a	12.827893
_cell_length_b	15.297327
_cell_length_c	12.827885
_cell_angle_alpha	99.642715
_cell_angle_beta	89.980728
_cell_angle_gamma	99.706564
loop_
_atom_site_label
_atom_site_type_symbol
_atom_site_fract_x
_atom_site_fract_y
_atom_site_fract_z
Zn1	Zn	1.525601	-0.359117	-0.662774
Zn2	Zn	1.495216	-0.510002	-0.518254
Zn3	Zn	1.350834	-0.359161	-0.488057
Zn4	Zn	1.320562	-0.509935	-0.692941
O5	O	1.423053	-0.434554	-0.590506
O6	O	1.667805	-0.379142	-0.643616
O7	O	1.476016	-0.490040	-0.368022
O8	O	1.399403	-0.232910	-0.485971
O9	O	1.645481	-0.489997	-0.537438
O10	O	1.527804	-0.232878	-0.614335
O11	O	1.369939	-0.379217	-0.345836
O12	O	1.200584	-0.379152	-0.515222
O13	O	1.347808	-0.489883	-0.835166
O14	O	1.178343	-0.489925	-0.665749
O15	O	1.498450	-0.379077	-0.813003
O16	O	1.446662	-0.636239	-0.566689
O17	O	1.318345	-0.636189	-0.695031
C18	C	1.151547	-0.434537	-0.590483
C19	C	1.035391	-0.434551	-0.590502
C20	C	0.972611	-0.489451	-0.664907
C21	C	0.852558	-0.489467	-0.664929
C22	C	1.375950	-0.668948	-0.637433
C23	C	1.355894	-0.769223	-0.657544
C24	C	1.566825	-1.051858	-0.447130
C25	C	1.585667	-0.957645	-0.428230
C26	C	1.528226	-0.910535	-0.485557
C27	C	1.451938	-0.957647	-0.561787
C28	C	1.433088	-1.051869	-0.580683
C29	C	1.394489	-0.910546	-0.619110
C30	C	1.318201	-0.957658	-0.695340
C31	C	1.299355	-1.051871	-0.714233
C32	C	1.356796	-1.098981	-0.656906
C33	C	1.413339	-0.816324	-0.600214
C34	C	1.279602	-0.816335	-0.733767
C35	C	1.260760	-0.910548	-0.752667
C36	C	1.695620	-0.434572	-0.590531
C37	C	1.811771	-0.434580	-0.590541
C38	C	1.423142	-0.434468	-0.863059
C39	C	1.423180	-0.434431	-0.979205
C40	C	1.470370	-0.199245	-0.543419
C41	C	1.490533	-0.098970	-0.523353
C42	C	1.497731	-0.379590	-1.020021
C43	C	1.497772	-0.379551	-1.140063
C44	C	1.423038	-0.434575	-0.319001
C45	C	1.423254	-0.434358	-0.202805
H46	H	0.865711	-0.387579	-0.526834
O47	O	1.347241	-0.490421	-1.160788
C48	C	1.395069	-0.548678	-1.109337
H49	H	1.480673	-0.516857	-1.086735
H50	H	1.393075	-0.615554	-1.164721
C51	C	1.229230	-0.604045	-1.036610
C52	C	1.334368	-0.564958	-1.008842
H53	H	1.191785	-0.614091	-0.974623
H54	H	1.197006	-0.564799	-1.071277
H55	H	1.227583	-0.659771	-1.082766
H56	H	1.336014	-0.509228	-0.962699
H57	H	1.366591	-0.604195	-0.974165
O58	O	1.574049	-0.323630	-1.181952
C59	C	1.674259	-0.343323	-1.159286
H60	H	1.665068	-0.415380	-1.143632
H61	H	1.711345	-0.294926	-1.086330
C62	C	1.757328	-0.244370	-1.273449
C63	C	1.746041	-0.332875	-1.254232
H64	H	1.801610	-0.237922	-1.332013
H65	H	1.689816	-0.231100	-1.288717
H66	H	1.788230	-0.204050	-1.212645
H67	H	1.715128	-0.373193	-1.315029
H68	H	1.813550	-0.346152	-1.238976
O69	O	1.546529	-0.819017	-0.467010
C70	C	1.525996	-0.787623	-0.360544
H71	H	1.533006	-0.841946	-0.311261
H72	H	1.442623	-0.770963	-0.354919
C73	C	1.598112	-0.635731	-0.378950
C74	C	1.606730	-0.702450	-0.318417
H75	H	1.647908	-0.583190	-0.352964
H76	H	1.611942	-0.656881	-0.450679
H77	H	1.528630	-0.621859	-0.374257
H78	H	1.676206	-0.716329	-0.323122
H79	H	1.592913	-0.681300	-0.246688
H80	H	1.341461	-1.175698	-0.672293
H81	H	1.647779	-0.919290	-0.366164
H82	H	1.198645	-0.948920	-0.814734
H83	H	1.359378	-0.481347	-1.033131
O84	O	1.225128	-1.097680	-0.788137
C85	C	1.146758	-1.152283	-0.739536
H86	H	1.146009	-1.123946	-0.651544
H87	H	1.164795	-1.223667	-0.750276
C88	C	1.038720	-1.188584	-0.898877
C89	C	1.037793	-1.153776	-0.790805
H90	H	0.971505	-1.189509	-0.930503
H91	H	1.091521	-1.151800	-0.931622
H92	H	1.053755	-1.248067	-0.907812
H93	H	1.022772	-1.094290	-0.781871
H94	H	0.984987	-1.190550	-0.758059
O95	O	1.014653	-0.545386	-0.740913
C96	C	1.088113	-0.494033	-0.798175
H97	H	1.118077	-0.425611	-0.747734
H98	H	1.048117	-0.484241	-0.873721
C99	C	1.145108	-0.627629	-0.888766
C100	C	1.181916	-0.543594	-0.826810
H101	H	1.202968	-0.658201	-0.906434
H102	H	1.095613	-0.662227	-0.850191
H103	H	1.111777	-0.619456	-0.951714
H104	H	1.215234	-0.551768	-0.763858
H105	H	1.231419	-0.508998	-0.865375
H106	H	1.613579	-1.090224	-0.400457
H107	H	1.000261	-0.387558	-0.526821
O108	O	0.788063	-0.545457	-0.740877
C109	C	0.682552	-0.533020	-0.723981
H110	H	0.681723	-0.463354	-0.675927
H111	H	0.640820	-0.586456	-0.678905
C112	C	0.625811	-0.626923	-0.890346
C113	C	0.624792	-0.541355	-0.831333
H114	H	0.590179	-0.632069	-0.956565
H115	H	0.696894	-0.635306	-0.901728
H116	H	0.591035	-0.671444	-0.852770
H117	H	0.659578	-0.496837	-0.868902
H118	H	0.553712	-0.532965	-0.819959
H119	H	1.475453	-0.777973	-0.538147
O120	O	1.573758	-0.323482	-0.955714
C121	C	1.569059	-0.233535	-0.964325
H122	H	1.486536	-0.228939	-0.993475
H123	H	1.629919	-0.209887	-1.022867
C124	C	1.694545	-0.179083	-0.819472
C125	C	1.593186	-0.173436	-0.855266
H126	H	1.709432	-0.142009	-0.752200
H127	H	1.697714	-0.239681	-0.813672
H128	H	1.745249	-0.159378	-0.868266
H129	H	1.542482	-0.193151	-0.806479
H130	H	1.590008	-0.112839	-0.861055
H131	H	1.232826	-0.777979	-0.780445
