data_functionalizedCrystal
_audit_creation_method	'MofGen! by Chris Wilmer'
_symmetry_space_group_name_H-M	'P1'
_symmetry_Int_Tables_number	1
_symmetry_cell_setting	triclinic
loop_
_symmetry_equiv_pos_as_xyz
  x,y,z
_cell_length_a	15.944551
_cell_length_b	16.109301
_cell_length_c	15.186229
_cell_angle_alpha	90.000638
_cell_angle_beta	89.995303
_cell_angle_gamma	96.519891
loop_
_atom_site_label
_atom_site_type_symbol
_atom_site_fract_x
_atom_site_fract_y
_atom_site_fract_z
O1	O	0.107966	-1.103166	-0.073175
O2	O	0.607966	-0.603166	0.426825
O3	O	0.121402	-0.861108	-0.073189
O4	O	0.621402	-0.361108	0.426811
O5	O	-0.007593	-0.988747	-0.073174
O6	O	0.492407	-0.488747	0.426826
O7	O	0.236961	-0.975527	-0.073190
O8	O	0.736961	-0.475527	0.426810
O9	O	-0.007594	-0.988738	0.073284
O10	O	0.492406	-0.488738	0.573284
O11	O	0.121401	-0.861099	0.073268
O12	O	0.621401	-0.361099	0.573268
O13	O	0.107964	-1.103157	0.073282
O14	O	0.607964	-0.603157	0.573282
Zn15	Zn	0.114682	-0.982127	0.096529
Zn16	Zn	0.614682	-0.482127	0.596529
Zn17	Zn	0.114685	-0.982138	-0.096435
Zn18	Zn	0.614685	-0.482138	0.403565
O19	O	0.236960	-0.975518	0.073267
O20	O	0.736960	-0.475518	0.573267
C21	C	0.120857	-0.830129	0.000038
C22	C	0.620857	-0.330129	0.500038
C23	C	0.119226	-0.737833	0.000033
C24	C	0.619226	-0.237833	0.500033
C25	C	-0.038887	-0.988194	0.000055
C26	C	0.461113	-0.488194	0.500055
C27	C	-0.132133	-0.986548	0.000056
C28	C	0.367867	-0.486548	0.500056
C29	C	0.108510	-1.134136	0.000054
C30	C	0.608510	-0.634136	0.500054
C31	C	0.110141	-1.226432	0.000053
C32	C	0.610141	-0.726432	0.500053
C33	C	-0.346962	-0.903499	0.000039
C34	C	0.153038	-0.403499	0.500039
C35	C	-0.407993	-0.942060	0.072253
C36	C	0.092007	-0.442060	0.572253
C37	C	-0.302858	-0.983572	0.000049
C38	C	0.197142	-0.483572	0.500049
C39	C	-0.407975	-0.942087	-0.072142
C40	C	0.092025	-0.442087	0.427858
C41	C	-0.467769	-0.980691	0.000038
C42	C	0.032231	-0.480691	0.500038
C43	C	-0.362660	-1.022155	0.072323
C44	C	0.137340	-0.522155	0.572323
C45	C	-0.362636	-1.022171	-0.072137
C46	C	0.137364	-0.522171	0.427863
C47	C	-0.423649	-1.060790	0.000095
C48	C	0.076351	-0.560790	0.500095
C49	C	-0.207856	-0.985229	0.000055
C50	C	0.292144	-0.485229	0.500055
C51	C	-0.562770	-0.979039	0.000038
C52	C	-0.062770	-0.479039	0.500038
C53	C	0.268254	-0.976071	0.000036
C54	C	0.768254	-0.476071	0.500036
C55	C	0.361500	-0.977717	0.000030
C56	C	0.861500	-0.477717	0.500030
N57	N	0.114680	-0.982125	0.228221
N58	N	0.614680	-0.482125	0.728221
C59	C	0.191975	-0.515584	0.000038
C60	C	0.691975	-0.015584	0.500038
C61	C	0.190435	-0.428863	0.000044
C62	C	0.690435	0.071137	0.500044
C63	C	0.037387	-0.448688	0.000050
C64	C	0.537387	0.051312	0.500050
C65	C	0.038927	-0.535407	0.000051
C66	C	0.538927	-0.035407	0.500051
C67	C	0.116224	-0.568853	0.000040
C68	C	0.616224	-0.068853	0.500040
C69	C	0.113143	-0.395412	0.000045
C70	C	0.613143	0.104588	0.500045
C71	C	0.111473	-0.301386	0.000052
C72	C	0.611473	0.198614	0.500052
C73	C	0.117894	-0.662885	0.000036
C74	C	0.617894	-0.162885	0.500036
N75	N	0.114680	-0.982146	-0.228128
N76	N	0.614680	-0.482146	0.271872
C77	C	0.057580	-1.038663	0.453951
C78	C	0.557580	-0.538663	0.953951
C79	C	0.057578	-1.038666	0.546141
C80	C	0.557578	-0.538666	1.046141
C81	C	0.171783	-0.925603	0.546136
C82	C	0.671783	-0.425603	1.046136
C83	C	0.171780	-0.925597	0.453948
C84	C	0.671780	-0.425597	0.953948
C85	C	0.114680	-0.982132	0.407858
C86	C	0.614680	-0.482132	0.907858
C87	C	0.114680	-0.982140	0.592236
C88	C	0.614680	-0.482140	1.092236
C89	C	0.114679	-0.982143	0.692192
C90	C	0.614679	-0.482143	1.192192
C91	C	0.114680	-0.982128	0.307895
C92	C	0.614680	-0.482128	0.807895
H93	H	-0.313632	-0.837035	0.000107
H94	H	0.186368	-0.337035	0.500107
H95	H	-0.428040	-0.908213	-0.133198
H96	H	0.071960	-0.408213	0.366802
H97	H	-0.342516	-1.056013	-0.133188
H98	H	0.157484	-0.556013	0.366812
H99	H	0.254914	-0.542812	0.000036
H100	H	0.754914	-0.042812	0.500036
H101	H	0.252119	-0.385495	0.000044
H102	H	0.752119	0.114505	0.500044
H103	H	0.011085	-1.084696	0.416427
H104	H	0.511085	-0.584696	0.916427
H105	H	0.011082	-1.084698	0.583667
H106	H	0.511082	-0.584698	1.083667
H107	H	-0.025546	-0.421446	0.000064
H108	H	0.474454	0.078554	0.500064
H109	H	-0.456830	-1.127313	0.000139
H110	H	0.043170	-0.627313	0.500139
H111	H	0.218278	-0.879558	0.416417
H112	H	0.718278	-0.379558	0.916417
H113	H	-0.428091	-0.908189	0.133301
H114	H	0.071909	-0.408189	0.633301
H115	H	-0.022762	-0.578781	0.000055
H116	H	0.477238	-0.078781	0.500055
H117	H	0.218274	-0.879574	0.583672
H118	H	0.718274	-0.379574	1.083672
H119	H	-0.342682	-1.055990	0.133442
H120	H	0.157318	-0.555990	0.633442
