data_functionalizedCrystal
_audit_creation_method	'MofGen! by Chris Wilmer'
_symmetry_space_group_name_H-M	'P1'
_symmetry_Int_Tables_number	1
_symmetry_cell_setting	triclinic
loop_
_symmetry_equiv_pos_as_xyz
  x,y,z
_cell_length_a	15.297327
_cell_length_b	12.759401
_cell_length_c	12.759393
_cell_angle_alpha	89.980678
_cell_angle_beta	80.358266
_cell_angle_gamma	80.295528
loop_
_atom_site_label
_atom_site_type_symbol
_atom_site_fract_x
_atom_site_fract_y
_atom_site_fract_z
Zn1	Zn	-0.359154	-1.533789	0.666329
Zn2	Zn	-0.510040	-1.503238	0.521034
Zn3	Zn	-0.359195	-1.358082	0.490674
Zn4	Zn	-0.509965	-1.327650	0.696658
O5	O	-0.434589	-1.430690	0.593674
O6	O	-0.379184	-1.676754	0.647068
O7	O	-0.490079	-1.483934	0.369995
O8	O	-0.232946	-1.406911	0.488577
O9	O	-0.490039	-1.654309	0.540321
O10	O	-0.232915	-1.536002	0.617630
O11	O	-0.379254	-1.377288	0.347690
O12	O	-0.379181	-1.207027	0.517985
O13	O	-0.489911	-1.355044	0.839646
O14	O	-0.489951	-1.184669	0.669320
O15	O	-0.379111	-1.506493	0.817363
O16	O	-0.636275	-1.454425	0.569729
O17	O	-0.636219	-1.325421	0.698759
C18	C	-0.434563	-1.157728	0.593650
C19	C	-0.434574	-1.040949	0.593670
C20	C	-0.492342	-0.974454	0.672376
C21	C	-0.492350	-0.864728	0.672387
C22	C	-0.376818	-0.888003	0.514976
C23	C	-0.376807	-0.997727	0.514970
C24	C	-0.550109	-1.017676	0.751075
C25	C	-0.607883	-0.951180	0.829788
C26	C	-0.607890	-0.841454	0.829799
C27	C	-0.550124	-0.798225	0.751098
C28	C	-0.668980	-1.383334	0.640852
C29	C	-0.769254	-1.363171	0.661071
C30	C	-1.051899	-1.575230	0.449528
C31	C	-0.957687	-1.594174	0.430527
C32	C	-0.910574	-1.536425	0.488161
C33	C	-0.957683	-1.459729	0.564800
C34	C	-1.051904	-1.440778	0.583798
C35	C	-0.910579	-1.401972	0.622431
C36	C	-0.957688	-1.325276	0.699070
C37	C	-1.051900	-1.306329	0.718064
C38	C	-1.099013	-1.364078	0.660430
C39	C	-0.816358	-1.420924	0.603433
C40	C	-0.816363	-1.286471	0.737703
C41	C	-0.910575	-1.267528	0.756704
C42	C	-0.199282	-1.478259	0.546334
C43	C	-0.099008	-1.498530	0.526160
C44	C	-0.434498	-1.430782	0.867689
C45	C	-0.434459	-1.430821	0.984458
C46	C	-0.434607	-0.704719	0.593693
C47	C	-0.434593	-0.821499	0.593687
C48	C	-0.434614	-1.430672	0.320711
C49	C	-0.434399	-1.430887	0.203892
C50	C	-0.376760	-1.509691	1.027718
C51	C	-0.376727	-1.509722	1.137436
C52	C	-0.492101	-1.352009	1.160625
C53	C	-0.492128	-1.351974	1.050908
C54	C	-0.319091	-1.588537	0.961268
C55	C	-0.261388	-1.667414	1.004527
C56	C	-0.261355	-1.667446	1.114245
C57	C	-0.319025	-1.588600	1.180703
H58	H	-0.550128	-0.708879	0.751121
Cl59	Cl	-0.969808	-1.171112	0.853047
H60	H	-0.550111	-1.107018	0.751073
Cl61	Cl	-0.792135	-1.560529	0.464560
Cl62	Cl	-1.111120	-1.209906	0.814406
Cl63	Cl	-1.217455	-1.339840	0.683888
Cl64	Cl	-0.680511	-0.757864	0.928756
Cl65	Cl	-0.757147	-1.517339	0.507091
Cl66	Cl	-0.564599	-1.252900	1.244172
Cl67	Cl	-0.304206	-0.833654	0.416043
Cl68	Cl	-0.318970	-1.588631	1.318632
Cl69	Cl	-0.188818	-1.766606	1.168627
Cl70	Cl	-0.304182	-1.081326	0.416023
Cl71	Cl	-0.898472	-1.690597	0.334196
Cl72	Cl	-0.757142	-1.213862	0.810155
Cl73	Cl	-0.564664	-1.252821	0.996518
H74	H	-1.090267	-1.622235	0.402604
Cl75	Cl	-0.319131	-1.588506	0.823337
Cl76	Cl	-0.188878	-1.766515	0.920980
H77	H	-0.654908	-0.986386	0.893868
