data_functionalizedCrystal
_audit_creation_method	'MofGen! by Chris Wilmer'
_symmetry_space_group_name_H-M	'P1'
_symmetry_Int_Tables_number	1
_symmetry_cell_setting	triclinic
loop_
_symmetry_equiv_pos_as_xyz
  x,y,z
_cell_length_a	31.640172
_cell_length_b	23.096457
_cell_length_c	23.096457
_cell_angle_alpha	60.000151
_cell_angle_beta	90.003659
_cell_angle_gamma	59.998714
loop_
_atom_site_label
_atom_site_type_symbol
_atom_site_fract_x
_atom_site_fract_y
_atom_site_fract_z
Zr1	Zr	0.407193	0.633662	-0.075882
O2	O	0.339705	0.754463	-0.168340
O3	O	0.427880	0.512871	-0.047542
O4	O	0.427881	0.633662	-0.168329
O5	O	0.339705	0.633669	0.047730
O6	O	0.497438	0.633650	-0.168316
O7	O	0.339704	0.633672	-0.047553
O8	O	0.497436	0.417578	0.047750
O9	O	0.339706	0.849741	-0.168336
O10	O	0.488615	0.562541	-0.035441
O11	O	0.436706	0.562547	0.035658
O12	O	0.436707	0.704763	-0.106554
O13	O	0.384798	0.704769	-0.035454
Zr14	Zr	0.518130	0.633637	0.076104
Zr15	Zr	0.518128	0.633643	-0.075861
Zr16	Zr	0.407194	0.633656	0.076084
Zr17	Zr	0.407196	0.785619	-0.075875
Zr18	Zr	0.518127	0.481679	0.076098
O19	O	0.497443	0.754427	0.047764
O20	O	0.497441	0.754436	-0.168311
O21	O	0.339707	0.754454	0.047735
O22	O	0.585618	0.512836	0.168562
O23	O	0.585616	0.512844	-0.047513
O24	O	0.427882	0.512863	0.168534
O25	O	0.585618	0.633630	-0.047508
O26	O	0.497442	0.633637	0.168551
O27	O	0.427885	0.633649	0.168539
O28	O	0.585619	0.633626	0.047775
O29	O	0.427885	0.849726	-0.168320
O30	O	0.497438	0.417573	0.168542
O31	O	0.585616	0.417558	0.168558
O32	O	0.585615	0.417562	0.047766
O33	O	0.339708	0.849736	-0.047544
O34	O	0.427886	0.849721	-0.047528
O35	O	0.488616	0.562536	0.106776
O36	O	0.540525	0.562530	0.035677
O37	O	0.488617	0.704751	-0.035435
O38	O	0.436708	0.704757	0.035664
C39	C	0.462658	0.443574	0.000103
C40	C	0.462657	0.379064	0.000100
C41	C	0.489749	0.348760	-0.037015
C42	C	0.489754	0.288137	-0.037009
C43	C	0.462657	0.257833	0.000102
C44	C	0.435563	0.288141	0.037226
C45	C	0.435563	0.348757	0.037225
N46	N	0.418560	0.195445	-0.005053
N47	N	0.418561	0.137865	-0.005055
C48	C	0.462656	0.075201	0.000109
N49	N	0.506750	0.072301	0.005263
N50	N	0.506748	0.129890	0.005262
C51	C	0.462654	0.192106	0.000108
C52	C	0.489757	-0.020837	-0.037002
C53	C	0.489763	-0.081464	-0.036991
C54	C	0.435567	-0.081453	0.037240
C55	C	0.435566	-0.020833	0.037234
C56	C	0.462659	0.009474	0.000109
C57	C	0.323898	0.633673	0.000086
C58	C	0.276803	0.633681	0.000077
C59	C	0.011892	0.559403	0.037245
C60	C	-0.165093	0.559389	0.037259
O61	O	-0.164935	0.496252	0.068854
N62	N	-0.214318	0.633627	0.000139
C63	C	-0.219296	0.707873	-0.036984
O64	O	-0.265226	0.771017	-0.068552
C65	C	-0.042311	0.707887	-0.036994
C66	C	0.006913	0.633644	0.000123
C67	C	0.061115	0.485167	0.074360
C68	C	0.105358	0.485171	0.074353
C69	C	0.100379	0.559412	0.037231
C70	C	0.051157	0.633648	0.000116
C71	C	-0.047290	0.782132	-0.074112
C72	C	-0.003038	0.782129	-0.074110
C73	C	0.046186	0.707886	-0.036993
C74	C	0.090421	0.707893	-0.037013
N75	N	0.139646	0.633656	0.000108
C76	C	0.144625	0.559415	0.037230
C77	C	-0.312213	0.707861	-0.036978
C78	C	-0.356459	0.707858	-0.036977
C79	C	-0.302253	0.559374	0.037268
C80	C	-0.258007	0.559377	0.037262
C81	C	-0.262988	0.633623	0.000143
C82	C	0.237537	0.559430	0.037212
C83	C	0.281782	0.559441	0.037199
C84	C	0.227572	0.707924	-0.037043
C85	C	0.183331	0.707914	-0.037033
C86	C	0.188317	0.633660	0.000099
O87	O	0.090303	0.770998	-0.068584
O88	O	0.190559	0.496281	0.068805
C89	C	-0.032351	0.559399	0.037252
C90	C	-0.081573	0.633636	0.000137
C91	C	-0.086552	0.707876	-0.036985
C92	C	-0.125819	0.633632	0.000139
C93	C	-0.120840	0.559392	0.037261
C94	C	-0.071615	0.485154	0.074381
C95	C	-0.027372	0.485158	0.074374
C96	C	-0.135777	0.782114	-0.074105
C97	C	-0.180018	0.782104	-0.074096
C98	C	-0.175039	0.707863	-0.036974
C99	C	0.601425	0.633625	0.000137
C100	C	0.648520	0.633617	0.000145
C101	C	0.462660	0.633657	-0.189974
C102	C	0.462659	0.633659	-0.254488
C103	C	0.462665	0.823725	0.000119
C104	C	0.462666	0.888235	0.000122
C105	C	0.435574	0.707877	-0.752109
C106	C	0.435569	0.707882	-0.691495
C107	C	0.462665	0.633644	-0.624063
C108	C	0.489756	0.559397	-0.617246
C109	C	0.489756	0.559394	-0.677859
N110	N	0.506762	0.578384	-0.501258
N111	N	0.506761	0.578391	-0.443680
C112	C	0.462667	0.633648	-0.441435
N113	N	0.418574	0.688909	-0.498950
N114	N	0.418576	0.688904	-0.556534
C115	C	0.462668	0.633639	-0.558333
C116	C	0.435570	0.707896	-0.382533
C117	C	0.435564	0.707897	-0.321917
C118	C	0.489756	0.559410	-0.247667
C119	C	0.489757	0.559411	-0.308283
C120	C	0.462665	0.633656	-0.375714
C121	C	0.462663	0.633642	0.190197
C122	C	0.462664	0.633639	0.254710
C123	C	0.601421	0.443550	0.000129
C124	C	0.648515	0.379032	0.000134
C125	C	0.462660	0.443566	0.190189
C126	C	0.462659	0.379054	0.254699
C127	C	0.601423	0.443542	0.190214
C128	C	0.648518	0.379022	0.254733
C129	C	0.323900	0.823756	-0.189992
C130	C	0.276805	0.888277	-0.254511
C131	C	0.323902	0.823749	0.000094
C132	C	0.276808	0.888267	0.000088
C133	C	0.462663	0.823732	-0.189966
C134	C	0.462664	0.888245	-0.254477
C135	C	0.643534	0.348740	-0.036992
C136	C	0.687780	0.288126	-0.037001
C137	C	0.737005	0.257803	0.000122
C138	C	0.741985	0.288101	0.037249
C139	C	0.697740	0.348717	0.037253
C140	C	0.489756	0.348752	0.322124
C141	C	0.489753	0.288144	0.382744
C142	C	0.462657	0.257835	0.375939
C143	C	0.435557	0.288143	0.308507
C144	C	0.435557	0.348754	0.247889
C145	C	0.697734	0.348719	0.247919
C146	C	0.741989	0.288103	0.308536
C147	C	0.737025	0.257788	0.375966
C148	C	0.687804	0.288096	0.382779
C149	C	0.643550	0.348715	0.322163
C150	C	0.227589	0.918587	-0.247697
C151	C	0.183334	0.979221	-0.308314
C152	C	0.188297	1.009540	-0.375744
C153	C	0.237519	0.979228	-0.382557
C154	C	0.281773	0.918599	-0.321941
C155	C	0.281789	0.918565	0.037208
C156	C	0.237543	0.979195	0.037200
C157	C	0.188318	1.009521	0.000076
C158	C	0.183338	0.979220	-0.037049
C159	C	0.227583	0.918596	-0.037045
C160	C	0.489765	0.918535	-0.247649
C161	C	0.489776	0.979143	-0.308258
C162	C	0.462682	1.009464	-0.375694
C163	C	0.435579	0.979169	-0.382521
C164	C	0.435572	0.918557	-0.321913
H165	H	0.511812	0.373432	-0.067242
O166	O	0.145394	1.068383	0.000177
C167	C	0.160352	1.088629	0.040892
H168	H	0.201198	1.035453	0.080140
H169	H	0.132403	1.101223	0.071110
H170	H	0.159552	1.145580	0.004349
H171	H	0.413494	0.373418	0.192991
H172	H	0.511819	0.498958	-0.302728
H173	H	0.143260	1.003892	-0.302753
H174	H	0.413501	0.893902	-0.327482
H175	H	0.701785	0.373393	0.193020
H176	H	0.241554	1.003921	-0.437466
O177	O	0.595758	0.378126	-0.073119
C178	C	0.600861	0.338369	-0.105872
H179	H	0.640347	0.313389	-0.113214
H180	H	0.569125	0.383848	-0.159796
H181	H	0.597235	0.285723	-0.071093
H182	H	0.321863	0.498981	0.067427
H183	H	0.511828	-0.106142	-0.067212
O184	O	0.329542	0.889216	-0.328692
C185	C	0.324426	0.928995	-0.401207
H186	H	0.284933	0.953988	-0.433530
H187	H	0.356152	0.883528	-0.409667
H188	H	0.328057	0.981635	-0.419064
O189	O	0.222805	0.889017	-0.072993
C190	C	0.246758	0.804085	-0.025332
H191	H	0.276923	0.778366	0.023522
H192	H	0.266394	0.772671	-0.052257
H193	H	0.216329	0.792541	-0.008722
H194	H	0.511828	0.893856	-0.192745
H195	H	0.511821	0.373423	0.327678
H196	H	0.413502	0.003843	0.067454
H197	H	0.511845	1.003803	-0.302685
H198	H	0.683715	0.263465	-0.067234
H199	H	0.413504	-0.106127	0.067457
H200	H	0.152259	1.058908	-0.425096
H201	H	0.782063	0.263432	0.302976
O202	O	0.780069	0.198873	0.434773
C203	C	0.824571	0.178647	0.414290
H204	H	0.814404	0.195361	0.358335
H205	H	0.855825	0.110133	0.452580
H206	H	0.839470	0.214089	0.415392
H207	H	0.413508	0.768350	-0.437438
H208	H	0.773028	0.208444	0.000113
H209	H	-0.298206	0.498924	0.067490
O210	O	0.409251	0.779943	-0.328415
C211	C	0.415067	0.764028	-0.260457
H212	H	0.425042	0.700228	-0.220278
H213	H	0.377351	0.811448	-0.261137
H214	H	0.447508	0.767539	-0.245005
H215	H	0.782071	0.263402	0.067473
H216	H	0.413500	0.373431	0.067449
O217	O	0.329565	0.889228	0.073286
C218	C	0.324462	0.928968	0.106057
H219	H	0.284977	0.990414	0.076933
H220	H	0.356200	0.939405	0.104066
H221	H	0.328085	0.889220	0.163669
H222	H	0.511823	0.263475	0.437644
H223	H	0.462661	0.208482	0.425304
H224	H	0.413496	0.263456	0.302977
O225	O	0.683055	0.258651	0.448322
C226	C	0.707023	0.273473	0.485601
H227	H	0.737167	0.281039	0.462441
H228	H	0.726686	0.219617	0.543934
H229	H	0.676599	0.331747	0.480574
O230	O	0.409334	1.008619	-0.448069
C231	C	0.444124	0.993789	-0.485339
H232	H	0.479794	0.986213	-0.462170
H233	H	0.424473	1.047645	-0.543672
H234	H	0.456236	0.935517	-0.480315
O235	O	0.409180	0.780051	-0.698202
C236	C	0.356284	0.825227	-0.735589
H237	H	0.351843	0.804128	-0.769050
H238	H	0.339691	0.893140	-0.771618
H239	H	0.334545	0.814946	-0.696333
H240	H	0.511817	0.263459	-0.067234
O241	O	0.516060	0.487368	-0.182117
C242	C	0.510235	0.503288	-0.130078
H243	H	0.500269	0.567081	-0.153695
H244	H	0.547943	0.455859	-0.083319
H245	H	0.477783	0.499796	-0.111141
H246	H	0.701803	0.373373	0.067490
O247	O	0.595781	0.378025	0.328914
C248	C	0.600897	0.338276	0.401430
H249	H	0.640389	0.276840	0.433750
H250	H	0.569169	0.327816	0.409886
H251	H	0.597269	0.378028	0.419291
O252	O	-0.227862	0.854177	-0.110052
C253	C	-0.255064	0.858623	-0.062390
H254	H	-0.238163	0.794163	-0.013535
H255	H	-0.297651	0.890051	-0.089313
H256	H	-0.251375	0.895251	-0.045782
O257	O	0.135479	1.008743	-0.073044
C258	C	0.097502	1.068759	-0.065093
H259	H	0.114759	1.058794	-0.014960
H260	H	0.063377	1.063849	-0.060835
H261	H	0.083660	1.132162	-0.113052
O262	O	0.242476	0.487227	0.073291
C263	C	0.295413	0.421714	0.106058
H264	H	0.319000	0.443494	0.076935
H265	H	0.301587	0.369788	0.104062
H266	H	0.308459	0.398883	0.163671
O267	O	0.409290	0.780049	-0.817570
C268	C	0.429226	0.825195	-0.825342
H269	H	0.449073	0.804079	-0.770774
H270	H	0.396251	0.893114	-0.857226
H271	H	0.458475	0.814900	-0.854309
H272	H	0.223538	0.893905	-0.192797
O273	O	0.516162	0.008472	-0.072963
C274	C	0.569053	-0.056223	-0.045670
H275	H	0.578644	-0.107744	0.010909
H276	H	0.593563	-0.033102	-0.045763
H277	H	0.577720	-0.080137	-0.080086
H278	H	0.413501	0.263463	0.067444
H279	H	0.462692	1.058818	-0.425039
O280	O	0.153133	0.412978	0.110477
C281	C	0.148029	0.347460	0.143225
H282	H	0.108542	0.369234	0.150568
H283	H	0.179765	0.295534	0.197148
H284	H	0.151652	0.324632	0.108442
O285	O	0.065891	0.413096	0.110319
C286	C	0.041932	0.408639	0.062666
H287	H	0.011766	0.473096	0.013812
H288	H	0.022297	0.377201	0.089598
H289	H	0.072357	0.372015	0.046054
O290	O	-0.210231	0.487186	0.073385
C291	C	-0.215332	0.421664	0.106131
H292	H	-0.254818	0.443434	0.113474
H293	H	-0.183596	0.369739	0.160054
H294	H	-0.211706	0.398838	0.071345
O295	O	-0.404235	0.780050	-0.073051
C296	C	-0.399133	0.845572	-0.105827
H297	H	-0.359646	0.823802	-0.076711
H298	H	-0.430868	0.897496	-0.103832
H299	H	-0.402762	0.868400	-0.163441
O300	O	-0.316990	0.779935	-0.073092
C301	C	-0.293035	0.784397	-0.125203
H302	H	-0.262873	0.719941	-0.109601
H303	H	-0.273396	0.815828	-0.129701
H304	H	-0.323463	0.821029	-0.178443
H305	H	0.511816	0.498952	-0.562338
O306	O	-0.066809	0.413057	0.110536
C307	C	-0.090792	0.408632	0.162617
H308	H	-0.092829	0.450761	0.176408
H309	H	-0.067328	0.342972	0.212192
H310	H	-0.131609	0.428585	0.141368
H311	H	0.241608	1.003856	0.067434
H312	H	-0.087364	0.842589	-0.104337
H313	H	-0.007100	0.842590	-0.104329
H314	H	0.223527	0.768369	-0.067269
O315	O	0.135539	0.780080	-0.073202
C316	C	0.129854	0.825230	-0.145664
H317	H	0.169683	0.804126	-0.151740
H318	H	0.106572	0.893150	-0.168415
H319	H	0.108709	0.814926	-0.175431
O320	O	0.020403	0.412965	0.110497
C321	C	0.015299	0.347447	0.143244
H322	H	-0.024187	0.369220	0.150589
H323	H	0.047036	0.295520	0.197167
H324	H	0.018921	0.324621	0.108459
H325	H	0.511816	0.498939	-0.672302
O326	O	-0.140711	0.854308	-0.110233
C327	C	-0.193648	0.919823	-0.142976
H328	H	-0.217239	0.898044	-0.150311
H329	H	-0.199827	0.971749	-0.196903
H330	H	-0.206683	0.942653	-0.108193
