data_functionalizedCrystal
_audit_creation_method	'MofGen! by Chris Wilmer'
_symmetry_space_group_name_H-M	'P1'
_symmetry_Int_Tables_number	1
_symmetry_cell_setting	triclinic
loop_
_symmetry_equiv_pos_as_xyz
  x,y,z
_cell_length_a	14.519709
_cell_length_b	14.421503
_cell_length_c	14.519709
_cell_angle_alpha	90.003352
_cell_angle_beta	96.319855
_cell_angle_gamma	90.002031
loop_
_atom_site_label
_atom_site_type_symbol
_atom_site_fract_x
_atom_site_fract_y
_atom_site_fract_z
O1	O	1.223873	0.076993	-0.120878
O2	O	0.955396	0.077022	-0.135115
O3	O	1.096753	0.076998	0.006242
O4	O	1.082516	0.077016	-0.262235
O5	O	1.096729	-0.077225	0.006221
O6	O	0.955373	-0.077202	-0.135136
O7	O	1.223850	-0.077230	-0.120900
Cu8	Cu	1.089609	-0.091298	-0.128020
Cu9	Cu	1.089637	0.091089	-0.127995
O10	O	1.082493	-0.077207	-0.262256
C11	C	0.921025	-0.000087	-0.134462
C12	C	0.818643	-0.000076	-0.132474
N13	N	1.089596	-0.219579	-0.128037
C14	C	0.443748	-0.000119	-0.125154
C15	C	0.548056	-0.000106	-0.127187
C16	C	0.631192	-0.000096	-0.128814
C17	C	0.735507	-0.000086	-0.130847
C18	C	1.024221	-0.469222	-0.193371
C19	C	1.107583	-0.531032	-0.211408
C20	C	1.089619	-0.408741	-0.128015
C21	C	1.006278	-0.531024	-0.109999
C22	C	1.089633	-0.591462	-0.127996
C23	C	1.173023	-0.469190	-0.146093
C24	C	1.071663	-0.469177	-0.044648
C25	C	1.155085	-0.530959	-0.062650
C26	C	1.089609	-0.303480	-0.128028
C27	C	1.089652	-0.696721	-0.127981
C28	C	1.258221	-0.000120	-0.121553
C29	C	1.360602	-0.000125	-0.123541
C30	C	1.096078	-0.000114	0.040591
C31	C	1.094090	-0.000114	0.142972
N32	N	1.089657	0.219370	-0.127971
C33	C	1.083168	-0.000093	-0.296606
C34	C	1.085156	-0.000087	-0.398987
C35	C	1.086770	-0.000089	0.517868
C36	C	1.088803	-0.000096	0.413560
C37	C	1.090430	-0.000102	0.330423
C38	C	1.092463	-0.000108	0.226109
H39	H	1.122784	-0.558202	-0.281900
O40	O	0.958425	-0.436760	-0.259405
C41	C	1.000725	-0.381670	-0.323068
H42	H	1.069886	-0.354532	-0.288760
H43	H	1.012873	-0.425210	-0.386145
C44	C	0.852149	-0.332668	-0.395886
C45	C	0.937091	-0.299330	-0.353745
H46	H	0.812896	-0.281879	-0.414813
H47	H	0.823650	-0.369786	-0.352997
H48	H	0.862285	-0.368951	-0.448445
H49	H	0.926955	-0.263058	-0.301181
H50	H	0.965587	-0.262204	-0.396626
O51	O	1.257045	-0.436776	-0.164455
C52	C	1.256007	-0.339016	-0.164292
H53	H	1.181516	-0.313447	-0.178604
H54	H	1.287448	-0.312508	-0.093782
C55	C	1.404521	-0.333979	-0.222449
C56	C	1.313030	-0.302574	-0.240035
H57	H	1.439698	-0.311499	-0.269168
H58	H	1.405223	-0.399842	-0.222556
H59	H	1.430709	-0.311887	-0.163689
H60	H	1.286840	-0.324676	-0.298789
H61	H	1.312325	-0.236714	-0.239940
O62	O	1.221257	-0.563060	0.003201
C63	C	1.308960	-0.531363	-0.016123
H64	H	1.306449	-0.514116	-0.092979
H65	H	1.328503	-0.466582	0.026625
C66	C	1.384840	-0.628728	0.103240
C67	C	1.381758	-0.607552	0.008842
H68	H	1.429747	-0.675722	0.118643
H69	H	1.325753	-0.650081	0.116261
H70	H	1.401123	-0.574738	0.138851
H71	H	1.365464	-0.661539	-0.026768
H72	H	1.440844	-0.586210	-0.004185
O73	O	1.053338	-0.436773	0.039384
C74	C	0.965364	-0.468242	0.058107
H75	H	0.921702	-0.485621	-0.009812
H76	H	0.973721	-0.532895	0.103433
C77	C	0.970583	-0.370459	0.192500
C78	C	0.916954	-0.391797	0.109079
H79	H	0.940722	-0.323307	0.223946
H80	H	1.029854	-0.349260	0.179888
H81	H	0.977543	-0.424343	0.230260
H82	H	0.910005	-0.337917	0.071317
H83	H	0.857680	-0.412985	0.121686
O84	O	0.922115	-0.563315	-0.091932
C85	C	0.853379	-0.531876	-0.161033
H86	H	0.878894	-0.466794	-0.194864
H87	H	0.838251	-0.588196	-0.215709
C88	C	0.732927	-0.589307	-0.075407
C89	C	0.764262	-0.509367	-0.116953
H90	H	0.677953	-0.575426	-0.048219
H91	H	0.779235	-0.610491	-0.028854
H92	H	0.720327	-0.636232	-0.120978
H93	H	0.776872	-0.462447	-0.071381
H94	H	0.717953	-0.488174	-0.163498
