data_functionalizedCrystal
_audit_creation_method	'MofGen! by Chris Wilmer'
_symmetry_space_group_name_H-M	'P1'
_symmetry_Int_Tables_number	1
_symmetry_cell_setting	triclinic
loop_
_symmetry_equiv_pos_as_xyz
  x,y,z
_cell_length_a	16.625547
_cell_length_b	19.120786
_cell_length_c	16.625539
_cell_angle_alpha	87.530339
_cell_angle_beta	89.978691
_cell_angle_gamma	92.464876
loop_
_atom_site_label
_atom_site_type_symbol
_atom_site_fract_x
_atom_site_fract_y
_atom_site_fract_z
Zn1	Zn	1.218941	-0.279643	-0.442285
Zn2	Zn	1.552275	0.053690	-0.108952
Zn3	Zn	1.885608	0.387024	0.224381
Zn4	Zn	1.213094	-0.397103	-0.301692
Zn5	Zn	1.546427	-0.063770	0.031642
Zn6	Zn	1.879760	0.269563	0.364975
Zn7	Zn	1.084110	-0.279664	-0.307455
Zn8	Zn	1.417444	0.053670	0.025878
Zn9	Zn	1.750777	0.387003	0.359212
Zn10	Zn	1.078316	-0.397064	-0.436473
Zn11	Zn	1.411650	-0.063731	-0.103140
Zn12	Zn	1.744983	0.269602	0.230193
O13	O	1.148615	-0.338369	-0.371976
O14	O	1.481949	-0.005035	-0.038643
O15	O	1.815282	0.328298	0.294690
O16	O	1.330998	-0.295232	-0.423656
O17	O	1.664331	0.038101	-0.090322
O18	O	1.997664	0.371435	0.243011
O19	O	1.195961	-0.381550	-0.189623
O20	O	1.529295	-0.048216	0.143711
O21	O	1.862628	0.285117	0.477044
O22	O	1.106868	-0.181371	-0.330185
O23	O	1.440202	0.151963	0.003149
O24	O	1.773535	0.485296	0.336482
O25	O	1.326701	-0.381530	-0.320362
O26	O	1.660035	-0.048196	0.012971
O27	O	1.993368	0.285137	0.346305
O28	O	1.205928	-0.181355	-0.429244
O29	O	1.539261	0.151978	-0.095911
O30	O	1.872595	0.485311	0.237422
O31	O	1.101198	-0.295267	-0.193857
O32	O	1.434531	0.038066	0.139477
O33	O	1.767865	0.371400	0.472810
O34	O	0.970510	-0.295229	-0.324549
O35	O	1.303843	0.038104	0.008784
O36	O	1.637177	0.371437	0.342118
O37	O	1.096993	-0.381463	-0.550078
O38	O	1.430326	-0.048130	-0.216745
O39	O	1.763660	0.285203	0.116589
O40	O	0.966253	-0.381483	-0.419338
O41	O	1.299586	-0.048150	-0.086005
O42	O	1.632920	0.285183	0.247328
O43	O	1.200310	-0.295194	-0.554348
O44	O	1.533643	0.038139	-0.221015
O45	O	1.866976	0.371472	0.112319
O46	O	1.190343	-0.495388	-0.314727
O47	O	1.523676	-0.162055	0.018607
O48	O	1.857010	0.171278	0.351940
O49	O	1.091323	-0.495360	-0.413750
O50	O	1.424656	-0.162027	-0.080417
O51	O	1.757989	0.171307	0.252917
C52	C	0.939125	-0.338355	-0.371939
C53	C	1.272459	-0.005022	-0.038606
C54	C	1.605792	0.328312	0.294728
C55	C	0.849504	-0.338366	-0.371941
C56	C	1.182837	-0.005033	-0.038608
C57	C	1.516170	0.328301	0.294725
C58	C	0.776721	-0.338367	-0.371951
C59	C	1.110054	-0.005034	-0.038618
C60	C	1.443388	0.328299	0.294715
C61	C	0.685412	-0.338371	-0.371971
C62	C	1.018746	-0.005038	-0.038638
C63	C	1.352079	0.328296	0.294696
C64	C	0.612636	-0.338378	-0.371991
C65	C	0.945969	-0.005044	-0.038658
C66	C	1.279302	0.328289	0.294675
C67	C	0.521321	-0.338382	-0.372010
C68	C	0.854655	-0.005049	-0.038677
C69	C	1.187988	0.328284	0.294656
C70	C	1.139591	-0.520860	-0.363000
C71	C	1.472925	-0.187526	-0.029666
C72	C	1.806258	0.145807	0.303667
C73	C	1.135805	-0.598930	-0.359187
C74	C	1.469138	-0.265597	-0.025853
C75	C	1.802471	0.067736	0.307480
C76	C	1.185562	-0.635540	-0.409012
C77	C	1.518896	-0.302206	-0.075679
C78	C	1.852229	0.031127	0.257655
C79	C	1.182001	-0.708895	-0.405430
C80	C	1.515334	-0.375562	-0.072097
C81	C	1.848668	-0.042228	0.261236
C82	C	1.128686	-0.745640	-0.352019
C83	C	1.462019	-0.412307	-0.018685
C84	C	1.795352	-0.078973	0.314648
C85	C	1.078922	-0.709025	-0.302191
C86	C	1.412256	-0.375692	0.031142
C87	C	1.745589	-0.042359	0.364475
C88	C	1.082480	-0.635671	-0.305778
C89	C	1.415814	-0.302338	0.027556
C90	C	1.749147	0.030995	0.360889
C91	C	1.115361	-0.967126	-0.338612
C92	C	1.448695	-0.633792	-0.005279
C93	C	1.782028	-0.300459	0.328054
C94	C	1.111809	-1.040485	-0.335028
C95	C	1.445142	-0.707152	-0.001695
C96	C	1.778476	-0.373818	0.331639
C97	C	1.214887	-1.040350	-0.438268
C98	C	1.548220	-0.707016	-0.104935
C99	C	1.881553	-0.373683	0.228398
C100	C	1.218443	-0.966994	-0.441846
C101	C	1.551777	-0.633661	-0.108513
C102	C	1.885110	-0.300327	0.224820
C103	C	1.168677	-0.930386	-0.392022
C104	C	1.502011	-0.597052	-0.058689
C105	C	1.835344	-0.263719	0.274644
C106	C	1.125046	-0.820621	-0.348355
C107	C	1.458379	-0.487288	-0.015021
C108	C	1.791712	-0.153954	0.318312
C109	C	1.172314	-0.855406	-0.395691
C110	C	1.505647	-0.522073	-0.062357
C111	C	1.838980	-0.188739	0.270976
C112	C	1.358924	-0.338383	-0.372014
C113	C	1.692257	-0.005049	-0.038681
C114	C	2.025590	0.328284	0.294652
C115	C	1.448544	-0.338389	-0.372031
C116	C	1.781878	-0.005055	-0.038697
C117	C	2.115211	0.328278	0.294636
C118	C	1.148657	-0.338322	-0.582288
C119	C	1.481991	-0.004989	-0.248954
C120	C	1.815324	0.328344	0.084379
C121	C	1.148675	-0.338302	-0.671910
C122	C	1.482008	-0.004969	-0.338576
C123	C	1.815342	0.328364	-0.005243
C124	C	1.157697	-0.155165	-0.381006
C125	C	1.491030	0.178169	-0.047672
C126	C	1.824363	0.511502	0.285661
C127	C	1.161567	-0.077094	-0.384853
C128	C	1.494900	0.256239	-0.051520
C129	C	1.828233	0.589572	0.281813
C130	C	1.148689	-0.338287	-0.744693
C131	C	1.482022	-0.004954	-0.411360
C132	C	1.815356	0.328380	-0.078026
C133	C	1.148709	-0.338261	-0.836003
C134	C	1.482042	-0.004927	-0.502670
C135	C	1.815376	0.328406	-0.169336
C136	C	1.148729	-0.338236	-0.908781
C137	C	1.482063	-0.004903	-0.575447
C138	C	1.815396	0.328431	-0.242114
C139	C	1.148751	-0.338211	-1.000096
C140	C	1.482084	-0.004877	-0.666763
C141	C	1.815417	0.328456	-0.333429
C142	C	1.148623	-0.338364	-0.162486
C143	C	1.481956	-0.005031	0.170848
C144	C	1.815289	0.328303	0.504181
C145	C	1.148771	-0.338186	-0.072874
C146	C	1.482104	-0.004853	0.260459
C147	C	1.815437	0.328481	0.593793
H148	H	1.228981	-0.605627	-0.452502
H149	H	1.562314	-0.272293	-0.119168
H150	H	1.895648	0.061040	0.214165
F151	F	1.062389	-0.928174	-0.285590
F152	F	1.395723	-0.594840	0.047743
F153	F	1.729056	-0.261507	0.381076
F154	F	1.234951	-0.747854	-0.458470
F155	F	1.568285	-0.414521	-0.125137
F156	F	1.901618	-0.081188	0.208196
F157	F	1.229050	-0.816298	-0.452538
F158	F	1.562383	-0.482965	-0.119204
F159	F	1.895716	-0.149632	0.214129
F160	F	1.055063	-1.079590	-0.278175
F161	F	1.388397	-0.746257	0.055158
F162	F	1.721730	-0.412923	0.388491
F163	F	1.022173	-0.748134	-0.245354
F164	F	1.355506	-0.414801	0.087980
F165	F	1.688839	-0.081467	0.421313
H166	H	1.081639	-0.850547	-0.304865
H167	H	1.414972	-0.517213	0.028469
H168	H	1.748305	-0.183880	0.361802
F169	F	1.267845	-1.079316	-0.491293
F170	F	1.601179	-0.745982	-0.157960
F171	F	1.934512	-0.412649	0.175373
F172	F	1.275188	-0.927893	-0.498695
F173	F	1.608521	-0.594559	-0.165362
F174	F	1.941855	-0.261226	0.167971
H175	H	1.041961	-0.605865	-0.265206
H176	H	1.375295	-0.272531	0.068128
H177	H	1.708628	0.060802	0.401461
