data_functionalizedCrystal
_audit_creation_method	'MofGen! by Chris Wilmer'
_symmetry_space_group_name_H-M	'P1'
_symmetry_Int_Tables_number	1
_symmetry_cell_setting	triclinic
loop_
_symmetry_equiv_pos_as_xyz
  x,y,z
_cell_length_a	20.875621
_cell_length_b	14.560438
_cell_length_c	14.560438
_cell_angle_alpha	59.995857
_cell_angle_beta	87.028029
_cell_angle_gamma	58.316488
loop_
_atom_site_label
_atom_site_type_symbol
_atom_site_fract_x
_atom_site_fract_y
_atom_site_fract_z
Zr1	Zr	0.617942	1.005320	-0.166521
O2	O	0.515521	1.196930	-0.305569
O3	O	0.649339	0.813711	-0.123887
O4	O	0.649340	1.005323	-0.315503
O5	O	0.515520	1.005316	0.037188
O6	O	0.754899	1.005324	-0.323349
O7	O	0.515520	1.005319	-0.113952
O8	O	0.754897	0.662566	0.019418
O9	O	0.515522	1.348074	-0.305579
O10	O	0.741508	0.892523	-0.111569
O11	O	0.662730	0.892520	0.007081
O12	O	0.662731	1.118118	-0.218523
O13	O	0.583953	1.118116	-0.099873
Zr14	Zr	0.786297	1.005317	0.062018
Zr15	Zr	0.786297	1.005321	-0.179034
Zr16	Zr	0.617942	1.005316	0.074531
Zr17	Zr	0.617943	1.246377	-0.166536
Zr18	Zr	0.786296	0.764260	0.062034
O19	O	0.754900	1.196926	0.019384
O20	O	0.754900	1.196932	-0.323362
O21	O	0.515521	1.196924	0.037176
O22	O	0.888718	0.813707	0.201066
O23	O	0.888718	0.813713	-0.141679
O24	O	0.649339	0.813705	0.218859
O25	O	0.888719	1.005321	-0.141691
O26	O	0.754899	1.005314	0.211000
O27	O	0.649340	1.005313	0.218846
O28	O	0.888719	1.005318	0.009449
O29	O	0.649341	1.348075	-0.315525
O30	O	0.754898	0.662562	0.211023
O31	O	0.888717	0.662563	0.201076
O32	O	0.888717	0.662567	0.009472
O33	O	0.515522	1.348071	-0.113975
O34	O	0.649342	1.348071	-0.123921
O35	O	0.741508	0.892519	0.114020
O36	O	0.820286	0.892521	-0.004630
O37	O	0.741509	1.118117	-0.111584
O38	O	0.662731	1.118114	0.007066
C39	C	0.702118	0.703793	-0.052232
C40	C	0.702117	0.601458	-0.052225
C41	C	0.643962	0.636673	-0.131185
C42	C	0.643966	0.540533	-0.131214
C43	C	0.760282	0.373964	0.026686
C44	C	0.760282	0.470103	0.026710
C45	C	0.491533	1.005317	-0.036599
C46	C	0.420062	1.005317	-0.031287
C47	C	0.386484	1.005322	-0.112058
C48	C	0.319332	1.005315	-0.107061
C49	C	0.285755	1.005312	-0.021297
C50	C	0.319339	1.005303	0.059482
C51	C	0.386493	1.005301	0.054489
C52	C	0.084915	1.005309	0.002570
C53	C	0.017755	1.005316	0.007555
C54	C	0.017753	1.005325	-0.158988
C55	C	0.084906	1.005330	-0.163977
C56	C	0.118486	1.005315	-0.083195
N57	N	0.217113	1.005309	-0.016189
N58	N	0.187130	1.005308	-0.088299
C59	C	0.912706	1.005320	-0.067904
C60	C	0.984177	1.005320	-0.073216
C61	C	0.702119	1.005324	-0.353771
C62	C	0.702119	1.005326	-0.456104
C63	C	0.702121	1.306844	-0.052271
C64	C	0.702122	1.409179	-0.052278
C65	C	0.760272	1.005327	-0.508502
C66	C	0.760275	1.005315	-0.604648
C67	C	0.643964	1.005306	-0.595992
C68	C	0.643965	1.005308	-0.499843
C69	C	0.702120	1.005313	0.249268
C70	C	0.702120	1.005311	0.351601
C71	C	0.912704	0.703794	-0.067884
C72	C	0.984175	0.601460	-0.073190
C73	C	0.702118	0.703788	0.249288
C74	C	0.702118	0.601451	0.351627
C75	C	0.912705	0.703789	0.233635
C76	C	0.984175	0.601453	0.330663
C77	C	0.491534	1.306848	-0.338138
C78	C	0.420064	1.409184	-0.435165
C79	C	0.491535	1.306843	-0.036619
C80	C	0.420064	1.409177	-0.031313
C81	C	0.702121	1.306849	-0.353791
C82	C	0.702121	1.409186	-0.456130
C83	C	0.976617	0.553403	-0.131513
C84	C	1.043765	0.457262	-0.136520
C85	C	1.118470	0.409173	-0.083197
C86	C	1.126026	0.457240	-0.024872
C87	C	1.058879	0.553385	-0.019872
C88	C	1.058867	0.553396	0.314293
C89	C	1.126028	0.457253	0.405451
C90	C	1.118495	0.409163	0.512977
C91	C	1.043796	0.457229	0.529345
C92	C	0.976637	0.553377	0.438188
C93	C	0.345372	1.457253	-0.418796
C94	C	0.278212	1.553425	-0.509954
C95	C	0.285744	1.601521	-0.617480
C96	C	0.360443	1.553448	-0.633848
C97	C	0.427602	1.457284	-0.542691
C98	C	0.427622	1.457244	0.027000
C99	C	0.360474	1.553411	0.031981
C100	C	0.285769	1.601504	-0.021346
C101	C	0.278213	1.553433	-0.079666
C102	C	0.345360	1.457274	-0.084653
C103	C	0.743238	0.553370	0.455528
C104	C	0.743229	0.457223	0.551684
C105	C	0.660978	0.457242	0.440024
C106	C	0.660983	0.553394	0.343871
H107	H	0.807643	0.441418	0.091010
Br108	Br	0.194591	1.732031	-0.741183
Br109	Br	0.565028	0.814937	-0.238313
Br110	Br	0.176821	1.618712	-0.152028
Br111	Br	0.194648	1.732007	-0.014567
H112	H	1.037674	0.418060	0.616905
H113	H	0.488418	1.418147	-0.556033
H114	H	1.186860	0.418071	0.018540
H115	H	0.339195	1.418141	-0.132134
H116	H	0.915822	0.592492	0.451532
H117	H	0.339224	1.418099	-0.331250
Br118	Br	0.605165	0.618664	0.202852
H119	H	1.065044	0.592501	0.027627
H120	H	0.217395	1.592550	-0.496605
Br121	Br	1.227395	0.392038	0.383211
H122	H	0.776730	0.592500	0.461849
H123	H	0.776712	0.418081	0.636281
Br124	Br	0.565042	1.005286	-0.655357
H125	H	0.627489	0.418100	0.433723
H126	H	0.596611	0.569218	-0.195513
Br127	Br	1.209648	0.278676	0.636680
H128	H	0.807626	1.005339	-0.472891
H129	H	1.065015	0.592537	0.226747
Br130	Br	0.839213	0.195697	0.133811
Br131	Br	0.528999	1.392001	0.099378
H132	H	0.413815	1.005332	-0.181901
H133	H	0.291994	1.005317	-0.172831
H134	H	0.112243	1.005333	-0.233814
H135	H	0.112250	1.005300	0.068344
Br136	Br	-0.027821	1.005342	-0.268614
Br137	Br	1.033491	0.392048	-0.215677
H138	H	-0.009581	1.005314	0.077399
Br139	Br	0.370653	1.618732	-0.779785
Br140	Br	0.875240	0.618649	-0.203894
Br141	Br	0.273778	1.005285	0.175887
H142	H	0.366642	1.592534	0.079475
Br143	Br	0.839203	1.005308	-0.675755
Br144	Br	0.565043	1.005291	-0.428716
Br145	Br	0.432068	1.005281	0.164118
H146	H	1.173139	0.330884	-0.087276
