data_functionalizedCrystal
_audit_creation_method	'MofGen! by Chris Wilmer'
_symmetry_space_group_name_H-M	'P1'
_symmetry_Int_Tables_number	1
_symmetry_cell_setting	triclinic
loop_
_symmetry_equiv_pos_as_xyz
  x,y,z
_cell_length_a	14.519731
_cell_length_b	15.944493
_cell_length_c	12.996460
_cell_angle_alpha	89.999729
_cell_angle_beta	89.994327
_cell_angle_gamma	83.581948
loop_
_atom_site_label
_atom_site_type_symbol
_atom_site_fract_x
_atom_site_fract_y
_atom_site_fract_z
O1	O	1.223639	0.110197	-0.085555
O2	O	1.723639	0.610197	0.414445
O3	O	0.955139	0.123146	-0.085555
O4	O	1.455139	0.623146	0.414445
O5	O	1.096749	-0.005596	-0.085564
O6	O	1.596749	0.494404	0.414436
O7	O	1.082029	0.238938	-0.085547
O8	O	1.582029	0.738938	0.414453
O9	O	1.096734	-0.005603	0.085570
O10	O	1.596734	0.494397	0.585570
O11	O	0.955124	0.123138	0.085579
O12	O	1.455124	0.623138	0.585579
O13	O	1.223624	0.110190	0.085579
O14	O	1.723624	0.610190	0.585579
Cu15	Cu	1.089373	0.116664	0.101205
Cu16	Cu	1.589373	0.616664	0.601205
Cu17	Cu	1.089390	0.116672	-0.101181
Cu18	Cu	1.589390	0.616672	0.398819
O19	O	1.082014	0.238931	0.085587
O20	O	1.582014	0.738931	0.585587
C21	C	0.920773	0.122535	0.000012
C22	C	1.420773	0.622535	0.500012
C23	C	0.818397	0.120717	0.000011
C24	C	1.318397	0.620717	0.500011
C25	C	0.735255	0.119240	0.000007
C26	C	1.235255	0.619240	0.500007
C27	C	0.630950	0.117394	0.000006
C28	C	1.130950	0.617394	0.500006
C29	C	0.547814	0.115929	0.000006
C30	C	1.047814	0.615929	0.500006
C31	C	0.443502	0.114083	0.000004
C32	C	0.943502	0.614083	0.500004
C33	C	1.096140	-0.036895	-0.000001
C34	C	1.596140	0.463105	0.499999
C35	C	1.094336	-0.130146	-0.000014
C36	C	1.594336	0.369854	0.499986
C37	C	1.177691	-0.365779	0.000005
C38	C	1.677691	0.134221	0.500005
C39	C	1.132748	-0.416412	-0.084372
C40	C	1.632748	0.083588	0.415628
C41	C	1.090994	-0.300872	-0.000002
C42	C	1.590994	0.199128	0.499998
C43	C	1.132713	-0.416395	0.084352
C44	C	1.632713	0.083605	0.584352
C45	C	1.087772	-0.465787	0.000015
C46	C	1.587772	0.034213	0.500015
C47	C	1.046074	-0.350277	-0.084449
C48	C	1.546074	0.149723	0.415551
C49	C	1.046052	-0.350257	0.084352
C50	C	1.546052	0.149743	0.584352
C51	C	1.001046	-0.400857	-0.000046
C52	C	1.501046	0.099143	0.499954
C53	C	1.092852	-0.205870	-0.000012
C54	C	1.592852	0.294130	0.499988
C55	C	1.085907	-0.560787	0.000018
C56	C	1.585907	-0.060787	0.500018
C57	C	1.257990	0.110800	0.000010
C58	C	1.757990	0.610800	0.500010
C59	C	1.360366	0.112618	0.000004
C60	C	1.860366	0.612618	0.500004
C61	C	1.082623	0.270231	0.000022
C62	C	1.582623	0.770231	0.500022
C63	C	1.084427	0.363482	0.000029
C64	C	1.584427	0.863482	0.500029
N65	N	1.089367	0.116657	0.243552
N66	N	1.589367	0.616657	0.743552
N67	N	1.089403	0.116672	-0.243528
N68	N	1.589403	0.616672	0.256472
C69	C	1.089389	0.116673	0.663366
C70	C	1.589389	0.616673	1.163366
C71	C	1.089380	0.116671	0.546561
C72	C	1.589380	0.616671	1.046561
C73	C	1.089378	0.116666	0.453462
C74	C	1.589378	0.616666	0.953462
C75	C	1.089369	0.116663	0.336650
C76	C	1.589369	0.616663	0.836650
H77	H	1.252369	-0.350037	-0.000080
H78	H	1.752369	0.149963	0.499920
C79	C	0.900089	-0.421914	-0.000101
C80	C	1.400089	0.078086	0.499899
H81	H	0.889220	-0.453433	0.059866
H82	H	1.389220	0.046567	0.559866
H83	H	0.889573	-0.454232	-0.059497
H84	H	1.389573	0.045768	0.440503
H85	H	0.859190	-0.371060	-0.000688
H86	H	1.359190	0.128940	0.499312
C87	C	1.182215	-0.455445	-0.180735
C88	C	1.682215	0.044555	0.319265
H89	H	1.244938	-0.443704	-0.180634
H90	H	1.744938	0.056296	0.319366
H91	H	1.152041	-0.431925	-0.240655
H92	H	1.652041	0.068075	0.259345
H93	H	1.180201	-0.514793	-0.180348
H94	H	1.680201	-0.014793	0.319652
C95	C	0.996658	-0.311427	-0.180927
C96	C	1.496658	0.188573	0.319073
H97	H	0.974843	-0.354864	-0.221165
H98	H	1.474843	0.145136	0.278835
H99	H	1.038884	-0.283231	-0.220370
H100	H	1.538884	0.216769	0.279630
H101	H	0.945747	-0.272225	-0.160759
H102	H	1.445747	0.227775	0.339241
H103	H	1.009464	-0.321355	0.155690
H104	H	1.509464	0.178645	0.655690
H105	H	1.169339	-0.445274	0.155682
H106	H	1.669339	0.054726	0.655682
