data_functionalizedCrystal
_audit_creation_method	'MofGen! by Chris Wilmer'
_symmetry_space_group_name_H-M	'P1'
_symmetry_Int_Tables_number	1
_symmetry_cell_setting	triclinic
loop_
_symmetry_equiv_pos_as_xyz
  x,y,z
_cell_length_a	18.050590
_cell_length_b	18.050591
_cell_length_c	17.077396
_cell_angle_alpha	89.974392
_cell_angle_beta	90.019447
_cell_angle_gamma	89.995953
loop_
_atom_site_label
_atom_site_type_symbol
_atom_site_fract_x
_atom_site_fract_y
_atom_site_fract_z
Zn1	Zn	0.295738	1.135431	-0.444020
Zn2	Zn	0.629072	1.468764	-0.110687
Zn3	Zn	0.962405	1.802098	0.222647
Zn4	Zn	0.419936	1.135375	-0.312775
Zn5	Zn	0.753269	1.468709	0.020559
Zn6	Zn	1.086602	1.802042	0.353892
Zn7	Zn	0.295755	1.011240	-0.312754
Zn8	Zn	0.629089	1.344573	0.020579
Zn9	Zn	0.962422	1.677907	0.353913
Zn10	Zn	0.419882	1.011242	-0.443984
Zn11	Zn	0.753216	1.344575	-0.110651
Zn12	Zn	1.086549	1.677909	0.222682
O13	O	0.357828	1.073322	-0.378383
O14	O	0.691161	1.406655	-0.045050
O15	O	1.024495	1.739989	0.288284
O16	O	0.312229	1.239348	-0.426634
O17	O	0.645562	1.572682	-0.093300
O18	O	0.978895	1.906015	0.240033
O19	O	0.403492	1.118884	-0.202925
O20	O	0.736826	1.452218	0.130408
O21	O	1.070159	1.785551	0.463742
O22	O	0.191829	1.027737	-0.330173
O23	O	0.525162	1.361070	0.003160
O24	O	0.858495	1.694404	0.336494
O25	O	0.403476	1.239307	-0.330208
O26	O	0.736809	1.572641	0.003125
O27	O	1.070143	1.905974	0.336458
O28	O	0.191816	1.118979	-0.426613
O29	O	0.525149	1.452313	-0.093280
O30	O	0.858483	1.785646	0.240053
O31	O	0.312258	1.027683	-0.202910
O32	O	0.645591	1.361016	0.130424
O33	O	0.978924	1.694349	0.463757
O34	O	0.312206	0.907316	-0.330138
O35	O	0.645539	1.240649	0.003195
O36	O	0.978873	1.573982	0.336528
O37	O	0.403385	1.027740	-0.553836
O38	O	0.736718	1.361073	-0.220503
O39	O	1.070052	1.694407	0.112831
O40	O	0.403402	0.907317	-0.426553
O41	O	0.736735	1.240650	-0.093219
O42	O	1.070068	1.573984	0.240114
O43	O	0.312177	1.118981	-0.553862
O44	O	0.645510	1.452315	-0.220529
O45	O	0.978844	1.785648	0.112805
O46	O	0.523853	1.118886	-0.330174
O47	O	0.857187	1.452220	0.003160
O48	O	1.190520	1.785553	0.336493
O49	O	0.523814	1.027686	-0.426573
O50	O	0.857147	1.361019	-0.093239
O51	O	1.190481	1.694353	0.240094
C52	C	0.357800	0.880370	-0.378340
C53	C	0.691134	1.213703	-0.045006
C54	C	1.024467	1.547037	0.288327
C55	C	0.357806	0.797824	-0.378340
C56	C	0.691140	1.131158	-0.045006
C57	C	1.024473	1.464491	0.288327
C58	C	0.164122	1.073364	-0.378395
C59	C	0.497456	1.406697	-0.045061
C60	C	0.830789	1.740031	0.288272
C61	C	0.081577	1.073382	-0.378400
C62	C	0.414910	1.406715	-0.045066
C63	C	0.748243	1.740049	0.288267
C64	C	-0.117881	1.122997	-0.430861
C65	C	0.215453	1.456330	-0.097527
C66	C	0.548786	1.789664	0.235806
C67	C	-0.167252	1.141146	-0.359251
C68	C	0.166081	1.474479	-0.025918
C69	C	0.499415	1.807812	0.307415
C70	C	-0.069554	1.073375	-0.378404
C71	C	0.263780	1.406708	-0.045071
C72	C	0.597113	1.740041	0.288263
C73	C	-0.167264	1.055253	-0.450016
C74	C	0.166069	1.388587	-0.116682
C75	C	0.499403	1.721920	0.216651
C76	C	-0.215539	1.073369	-0.378414
C77	C	0.117795	1.406702	-0.045081
C78	C	0.451128	1.740035	0.288252
C79	C	-0.117838	1.091558	-0.306757
C80	C	0.215495	1.424892	0.026577
C81	C	0.548829	1.758225	0.359910
C82	C	-0.117845	1.005634	-0.397569
C83	C	0.215488	1.338968	-0.064236
C84	C	0.548821	1.672301	0.269097
C85	C	-0.167194	1.023757	-0.325911
C86	C	0.166139	1.357091	0.007423
C87	C	0.499472	1.690424	0.340756
C88	C	0.014545	1.073380	-0.378399
C89	C	0.347878	1.406713	-0.045066
C90	C	0.681211	1.740046	0.288268
C91	C	-0.299635	1.073363	-0.378411
C92	C	0.033698	1.406697	-0.045078
C93	C	0.367031	1.740030	0.288256
C94	C	0.308157	0.598351	-0.326030
C95	C	0.641490	0.931685	0.007303
C96	C	0.974823	1.265018	0.340636
C97	C	0.375895	0.548954	-0.306725
C98	C	0.709228	0.882287	0.026609
C99	C	1.042561	1.215621	0.359942
C100	C	0.357829	0.646694	-0.378375
C101	C	0.691162	0.980027	-0.045042
C102	C	1.024496	1.313361	0.288291
C103	C	0.290115	0.549010	-0.397679
C104	C	0.623448	0.882343	-0.064346
C105	C	0.956781	1.215676	0.268988
C106	C	0.357845	0.500709	-0.378408
C107	C	0.691178	0.834042	-0.045075
C108	C	1.024511	1.167375	0.288259
C109	C	0.425602	0.598384	-0.359032
C110	C	0.758936	0.931717	-0.025699
C111	C	1.092269	1.265050	0.307634
C112	C	0.339777	0.598444	-0.450020
C113	C	0.673110	0.931777	-0.116686
C114	C	1.006443	1.265110	0.216647
C115	C	0.407561	0.549069	-0.430741
C116	C	0.740895	0.882402	-0.097408
C117	C	1.074228	1.215735	0.235925
C118	C	0.357819	0.730792	-0.378354
C119	C	0.691152	1.064125	-0.045021
C120	C	1.024486	1.397459	0.288312
C121	C	0.357862	0.416612	-0.378429
C122	C	0.691196	0.749946	-0.045096
C123	C	1.024529	1.083279	0.288238
C124	C	0.550780	1.073300	-0.378389
C125	C	0.884113	1.406634	-0.045055
C126	C	1.217447	1.739967	0.288278
C127	C	0.633326	1.073359	-0.378417
C128	C	0.966659	1.406692	-0.045084
C129	C	1.299993	1.740026	0.288249
C130	C	0.357773	1.073367	-0.583128
C131	C	0.691107	1.406700	-0.249794
C132	C	1.024440	1.740034	0.083539
C133	C	0.357750	1.073386	-0.670377
C134	C	0.691083	1.406720	-0.337044
C135	C	1.024417	1.740053	-0.003711
C136	C	0.357856	1.267028	-0.378427
C137	C	0.691190	1.600361	-0.045094
C138	C	1.024523	1.933694	0.288239
C139	C	0.357868	1.349573	-0.378446
C140	C	0.691202	1.682907	-0.045113
C141	C	1.024535	2.016240	0.288221
C142	C	0.310254	1.120897	-0.711382
C143	C	0.643587	1.454231	-0.378049
C144	C	0.976921	1.787564	-0.044716
C145	C	0.310229	1.120906	-0.793363
C146	C	0.643563	1.454239	-0.460030
C147	C	0.976896	1.787573	-0.126696
C148	C	0.357705	1.073407	-0.834337
C149	C	0.691038	1.406741	-0.501004
C150	C	1.024372	1.740074	-0.167670
C151	C	0.405203	1.025891	-0.793326
C152	C	0.738536	1.359224	-0.459993
C153	C	1.071870	1.692558	-0.126659
C154	C	0.405223	1.025879	-0.711347
C155	C	0.738557	1.359212	-0.378014
C156	C	1.071890	1.692546	-0.044680
C157	C	0.405158	1.025921	-0.964196
C158	C	0.738492	1.359254	-0.630863
C159	C	1.071825	1.692588	-0.297530
C160	C	0.405139	1.025934	-1.046181
C161	C	0.738472	1.359267	-0.712848
C162	C	1.071806	1.692600	-0.379514
C163	C	0.310164	1.120948	-1.046212
C164	C	0.643498	1.454281	-0.712879
C165	C	0.976831	1.787615	-0.379545
C166	C	0.310185	1.120936	-0.964233
C167	C	0.643518	1.454269	-0.630900
C168	C	0.976851	1.787603	-0.297566
C169	C	0.357684	1.073421	-0.923228
C170	C	0.691017	1.406754	-0.589895
C171	C	1.024351	1.740087	-0.256561
C172	C	0.357829	1.073320	-0.174435
C173	C	0.691162	1.406653	0.158898
C174	C	1.024496	1.739987	0.492231
C175	C	0.357643	1.073445	-0.087186
C176	C	0.690976	1.406778	0.246147
C177	C	1.024310	1.740111	0.579481
H178	H	-0.096228	1.164995	-0.475162
H179	H	0.237105	1.498329	-0.141829
H180	H	0.570439	1.831662	0.191505
H181	H	0.271596	1.159579	-0.678027
H182	H	0.604929	1.492912	-0.344694
H183	H	0.938263	1.826245	-0.011361
H184	H	-0.188954	1.198430	-0.343040
H185	H	0.144379	1.531763	-0.009707
H186	H	0.477713	1.865096	0.323627
N187	N	0.460325	0.522072	-0.486280
N188	N	0.793659	0.855406	-0.152947
N189	N	1.126992	1.188739	0.180387
N190	N	0.468550	0.453894	-0.495671
N191	N	0.801883	0.787228	-0.162338
N192	N	1.135217	1.120561	0.170996
H193	H	0.505817	0.434825	-0.534891
H194	H	0.839150	0.768159	-0.201558
H195	H	1.172483	1.101492	0.131775
N196	N	0.395055	0.521666	-0.230741
N197	N	0.728389	0.855000	0.102592
N198	N	1.061722	1.188333	0.435926
N199	N	0.398660	0.453443	-0.218753
N200	N	0.731993	0.786776	0.114581
N201	N	1.065326	1.120109	0.447914
H202	H	0.412186	0.434172	-0.165087
H203	H	0.745520	0.767505	0.168246
H204	H	1.078853	1.100838	0.501579
N205	N	-0.090711	1.110862	-0.230769
N206	N	0.242622	1.444195	0.102564
N207	N	0.575955	1.777528	0.435898
N208	N	-0.022510	1.114003	-0.218508
N209	N	0.310823	1.447336	0.114825
N210	N	0.644156	1.780669	0.448159
H211	H	-0.003350	1.127637	-0.164843
H212	H	0.329984	1.460970	0.168490
H213	H	0.663317	1.794303	0.501823
H214	H	0.271555	1.159596	-0.826746
H215	H	0.604888	1.492929	-0.493412
H216	H	0.938222	1.826263	-0.160079
N217	N	0.497468	0.625483	-0.338482
N218	N	0.830801	0.958816	-0.005148
N219	N	1.164134	1.292149	0.328185
N220	N	0.509052	0.693679	-0.335125
N221	N	0.842385	1.027013	-0.001791
N222	N	1.175718	1.360346	0.331542
H223	H	0.559805	0.712820	-0.320609
H224	H	0.893138	1.046154	0.012724
H225	H	1.226472	1.379487	0.346058
N226	N	0.320577	0.625728	-0.525988
N227	N	0.653910	0.959062	-0.192655
N228	N	0.987243	1.292395	0.140678
N229	N	0.259123	0.609947	-0.555326
N230	N	0.592456	0.943281	-0.221993
N231	N	0.925790	1.276614	0.111340
H232	H	0.245555	0.629218	-0.608980
H233	H	0.578888	0.962551	-0.275647
H234	H	0.912222	1.295884	0.057686
H235	H	0.271487	1.159636	-1.079602
H236	H	0.604821	1.492969	-0.746269
H237	H	0.938154	1.826302	-0.412936
H238	H	-0.188711	0.981791	-0.281503
H239	H	0.144623	1.315124	0.051830
H240	H	0.477956	1.648457	0.385164
H241	H	0.443826	0.987217	-0.930812
H242	H	0.777159	1.320550	-0.597479
H243	H	1.110492	1.653884	-0.264146
H244	H	0.443856	0.987214	-0.826694
H245	H	0.777189	1.320547	-0.493360
H246	H	1.110522	1.653881	-0.160027
N247	N	-0.090605	0.933792	-0.417938
N248	N	0.242728	1.267125	-0.084605
N249	N	0.576061	1.600459	0.248728
N250	N	-0.106416	0.906152	-0.482928
N251	N	0.226917	1.239485	-0.149594
N252	N	0.560251	1.572818	0.183739
H253	H	-0.087177	0.855412	-0.497322
H254	H	0.246156	1.188745	-0.163988
H255	H	0.579489	1.522079	0.169345
H256	H	0.232850	0.527283	-0.413965
H257	H	0.566184	0.860616	-0.080632
H258	H	0.899517	1.193950	0.252702
H259	H	-0.188976	1.039929	-0.510572
H260	H	0.144358	1.373263	-0.177239
H261	H	0.477691	1.706596	0.156095
N262	N	0.453603	0.977399	-1.088053
N263	N	0.786936	1.310732	-0.754720
N264	N	1.120270	1.644066	-0.421387
N265	N	0.427421	0.930107	-1.133786
N266	N	0.760754	1.263440	-0.800453
N267	N	1.094088	1.596773	-0.467120
H268	H	0.461642	0.895826	-1.163366
H269	H	0.794976	1.229160	-0.830033
H270	H	1.128309	1.562493	-0.496699
H271	H	0.271530	1.159618	-0.930874
H272	H	0.604863	1.492951	-0.597541
H273	H	0.938197	1.826285	-0.264208
H274	H	0.266196	0.619991	-0.281716
H275	H	0.599529	0.953324	0.051617
H276	H	0.932862	1.286657	0.384951
H277	H	0.443892	0.987183	-0.677962
H278	H	0.777225	1.320516	-0.344628
H279	H	1.110559	1.653850	-0.011295
