data_functionalizedCrystal
_audit_creation_method	'MofGen! by Chris Wilmer'
_symmetry_space_group_name_H-M	'P1'
_symmetry_Int_Tables_number	1
_symmetry_cell_setting	triclinic
loop_
_symmetry_equiv_pos_as_xyz
  x,y,z
_cell_length_a	11.792241
_cell_length_b	23.532407
_cell_length_c	10.868271
_cell_angle_alpha	89.990218
_cell_angle_beta	89.999893
_cell_angle_gamma	83.521047
loop_
_atom_site_label
_atom_site_type_symbol
_atom_site_fract_x
_atom_site_fract_y
_atom_site_fract_z
O1	O	1.505071	0.078055	-0.102217
O2	O	2.005071	0.578055	0.397783
O3	O	1.174541	0.086099	-0.102247
O4	O	1.674541	0.586099	0.397753
O5	O	1.349773	-0.000796	-0.102208
O6	O	1.849773	0.499204	0.397792
O7	O	1.329839	0.164950	-0.102255
O8	O	1.829839	0.664950	0.397745
O9	O	1.349759	-0.000799	0.102436
O10	O	1.849759	0.499201	0.602436
O11	O	1.174526	0.086096	0.102398
O12	O	1.674526	0.586096	0.602398
O13	O	1.505057	0.078051	0.102428
O14	O	2.005057	0.578051	0.602428
Zn15	Zn	1.339789	0.082073	0.134905
Zn16	Zn	1.839789	0.582073	0.634905
Zn17	Zn	1.339808	0.082078	-0.134723
Zn18	Zn	1.839808	0.582078	0.365277
O19	O	1.329824	0.164946	0.102390
O20	O	1.829824	0.664946	0.602390
C21	C	1.132254	0.085592	0.000072
C22	C	1.632254	0.585592	0.500072
C23	C	1.006276	0.084080	0.000062
C24	C	1.506276	0.584080	0.500062
C25	C	0.775630	0.081299	0.000098
C26	C	1.275630	0.581299	0.500098
C27	C	0.903978	0.082844	0.000078
C28	C	1.403978	0.582844	0.500078
C29	C	1.349258	-0.022016	0.000117
C30	C	1.849258	0.477984	0.500117
C31	C	1.347732	-0.085242	0.000127
C32	C	1.847732	0.414758	0.500127
C33	C	1.441858	-0.483788	0.000068
C34	C	1.941858	0.016212	0.500068
C35	C	1.440440	-0.543196	0.000058
C36	C	1.940440	-0.043196	0.500058
O37	O	1.527696	-0.579424	0.000021
O38	O	2.027696	-0.079424	0.500021
N39	N	1.336265	-0.566440	0.000050
N40	N	1.836265	-0.066440	0.500050
C41	C	1.233500	-0.530271	0.000038
C42	C	1.733500	-0.030271	0.500038
O43	O	1.144761	-0.555497	0.000029
O44	O	1.644761	-0.055497	0.500029
C45	C	1.234919	-0.470864	0.000039
C46	C	1.734919	0.029136	0.500039
C47	C	1.339102	-0.447624	0.000060
C48	C	1.839102	0.052376	0.500060
C49	C	1.546032	-0.460547	0.000087
C50	C	2.046032	0.039453	0.500087
C51	C	1.547449	-0.401142	0.000099
C52	C	2.047449	0.098858	0.500099
C53	C	1.444693	-0.364979	0.000091
C54	C	1.944693	0.135021	0.500091
C55	C	1.340519	-0.388219	0.000072
C56	C	1.840519	0.111781	0.500072
C57	C	1.132156	-0.434696	0.000018
C58	C	1.632156	0.065304	0.500018
C59	C	1.133584	-0.375285	0.000018
C60	C	1.633584	0.124715	0.500018
C61	C	1.237766	-0.352045	0.000039
C62	C	1.737766	0.147955	0.500039
C63	C	1.239180	-0.292651	0.000075
C64	C	1.739180	0.207349	0.500075
N65	N	1.343355	-0.269407	0.000084
N66	N	1.843355	0.230593	0.500084
C67	C	1.446112	-0.305571	0.000092
C68	C	1.946112	0.194429	0.500092
C69	C	1.230528	-0.655031	0.000034
C70	C	1.730528	-0.155031	0.500034
C71	C	1.229108	-0.714438	0.000043
C72	C	1.729108	-0.214438	0.500043
C73	C	1.436049	-0.727359	0.000061
C74	C	1.936049	-0.227359	0.500061
C75	C	1.437468	-0.667951	0.000061
C76	C	1.937468	-0.167951	0.500061
C77	C	1.334704	-0.631788	0.000043
C78	C	1.834704	-0.131788	0.500043
C79	C	1.449080	-0.180817	0.000118
C80	C	1.949080	0.319183	0.500118
C81	C	1.450489	-0.121406	0.000135
C82	C	1.950489	0.378594	0.500135
C83	C	1.243549	-0.108491	0.000110
C84	C	1.743549	0.391509	0.500110
C85	C	1.242140	-0.167896	0.000100
C86	C	1.742140	0.332104	0.500100
C87	C	1.344915	-0.204058	0.000099
C88	C	1.844915	0.295942	0.500099
O89	O	1.151970	-0.256388	0.000108
O90	O	1.651970	0.243612	0.500108
O91	O	1.534837	-0.280337	0.000085
O92	O	2.034837	0.219663	0.500085
C93	C	1.547343	0.078558	0.000107
C94	C	2.047343	0.578558	0.500107
C95	C	1.673321	0.080071	0.000109
C96	C	2.173321	0.580071	0.500109
C97	C	1.330339	0.186167	0.000061
C98	C	1.830339	0.686167	0.500061
C99	C	1.331865	0.249393	0.000044
C100	C	1.831865	0.749393	0.500044
N101	N	1.339785	0.082070	0.318919
N102	N	1.839785	0.582070	0.818919
N103	N	1.339822	0.082077	-0.318737
N104	N	1.839822	0.582077	0.181263
C105	C	1.339802	0.082076	0.569925
C106	C	1.839802	0.582076	1.069925
C107	C	1.339789	0.082074	0.430247
C108	C	1.839789	0.582074	0.930247
H109	H	1.532770	-0.210254	0.000113
H110	H	2.032770	0.289746	0.500113
C111	C	1.549080	-0.767147	0.000046
C112	C	2.049080	-0.267147	0.500046
H113	H	1.533306	-0.805855	0.000026
H114	H	2.033306	-0.305855	0.500026
H115	H	1.591837	-0.760079	0.071408
H116	H	2.091837	-0.260079	0.571408
H117	H	1.591820	-0.760058	-0.071329
H118	H	2.091820	-0.260058	0.428671
H119	H	1.049899	-0.345843	0.000001
H120	H	1.549899	0.154157	0.500001
H121	H	1.632285	-0.382226	0.000111
H122	H	2.132285	0.117774	0.500111
H123	H	1.522302	-0.649034	0.000077
H124	H	2.022302	-0.149034	0.500077
C125	C	1.127543	-0.193461	0.000074
C126	C	1.627543	0.306539	0.500074
H127	H	1.066549	-0.163413	0.000063
H128	H	1.566549	0.336587	0.500063
H129	H	1.122672	-0.216381	0.071423
H130	H	1.622672	0.283619	0.571423
H131	H	1.122703	-0.216353	-0.071314
H132	H	1.622703	0.283647	0.428686
H133	H	1.047320	-0.453608	-0.000006
H134	H	1.547320	0.046392	0.499994
C135	C	1.114511	-0.739998	0.000034
C136	C	1.614511	-0.239998	0.500034
H137	H	1.128372	-0.780559	0.000037
H138	H	1.628372	-0.280559	0.500037
H139	H	1.072236	-0.727597	-0.071332
H140	H	1.572236	-0.227597	0.428668
H141	H	1.072231	-0.727613	0.071405
H142	H	1.572231	-0.227613	0.571405
C143	C	1.659075	-0.500319	0.000106
C144	C	2.159075	-0.000319	0.500106
H145	H	1.721310	-0.477961	0.000127
H146	H	2.221310	0.022039	0.500127
H147	H	1.662848	-0.523761	-0.071253
H148	H	2.162848	-0.023761	0.428747
H149	H	1.662818	-0.523764	0.071485
H150	H	2.162818	-0.023764	0.571485
H151	H	1.146840	-0.625590	0.000030
H152	H	1.646840	-0.125590	0.500030
C153	C	1.130526	-0.068703	0.000094
C154	C	1.630526	0.431297	0.500094
H155	H	1.146300	-0.029995	0.000089
H156	H	1.646300	0.470005	0.500089
H157	H	1.087761	-0.075786	0.071446
H158	H	1.587761	0.424214	0.571446
H159	H	1.087794	-0.075776	-0.071291
H160	H	1.587794	0.424224	0.428709
H161	H	1.535330	-0.102488	0.000155
H162	H	2.035330	0.397512	0.500155
