data_functionalizedCrystal
_audit_creation_method	'MofGen! by Chris Wilmer'
_symmetry_space_group_name_H-M	'P1'
_symmetry_Int_Tables_number	1
_symmetry_cell_setting	triclinic
loop_
_symmetry_equiv_pos_as_xyz
  x,y,z
_cell_length_a	17.019282
_cell_length_b	17.019294
_cell_length_c	7.681481
_cell_angle_alpha	80.410874
_cell_angle_beta	99.572296
_cell_angle_gamma	83.655696
loop_
_atom_site_label
_atom_site_type_symbol
_atom_site_fract_x
_atom_site_fract_y
_atom_site_fract_z
O1	O	1.046417	0.100594	-0.002950
O2	O	0.814832	0.115329	-0.040316
O3	O	0.937985	-0.007833	-0.002950
O4	O	0.923265	0.223756	-0.040315
O5	O	0.953143	-0.023026	0.294512
O6	O	0.829991	0.100136	0.257146
O7	O	1.061576	0.085401	0.294513
Zn8	Zn	0.948190	0.090356	0.323058
Zn9	Zn	0.928218	0.110374	-0.068861
O10	O	0.938423	0.208563	0.257147
C11	C	0.792796	0.107476	0.103961
C12	C	0.704550	0.106701	0.090692
C13	C	0.671360	0.098053	0.246609
C14	C	0.588446	0.097311	0.234148
C15	C	0.538723	0.105224	0.065767
C16	C	0.571919	0.113870	-0.090161
C17	C	0.654832	0.114606	-0.077697
C18	C	0.287966	0.103412	0.020024
C19	C	0.205047	0.102678	0.007572
C20	C	0.221581	0.086118	0.331883
C21	C	0.304494	0.086859	0.344331
C22	C	0.337683	0.095501	0.188403
C23	C	0.453971	0.104469	0.053026
C24	C	0.422434	0.096250	0.201147
C25	C	0.945305	-0.045045	0.150231
C26	C	0.944523	-0.133291	0.163488
C27	C	0.935895	-0.166463	0.007571
C28	C	0.935156	-0.249378	0.020032
C29	C	0.943050	-0.299122	0.188413
C30	C	0.951677	-0.265944	0.344341
C31	C	0.952410	-0.183029	0.331877
C32	C	0.941244	-0.549886	0.234157
C33	C	0.940512	-0.632806	0.246610
C34	C	0.923990	-0.616234	-0.077701
C35	C	0.924729	-0.533319	-0.090149
C36	C	0.933351	-0.500148	0.065778
C37	C	0.942297	-0.383876	0.201155
C38	C	0.934098	-0.415395	0.053034
C39	C	1.083612	0.093254	0.150231
C40	C	1.171857	0.094030	0.163489
C41	C	0.931103	0.245776	0.103962
C42	C	0.931884	0.334022	0.090693
N43	N	0.961826	0.076694	0.590533
N44	N	0.914588	0.124030	-0.336335
H45	H	0.561429	0.090256	0.361115
C46	C	0.691340	0.124124	-0.249207
H47	H	0.649852	0.128739	-0.351276
H48	H	0.729821	0.078368	-0.243068
H49	H	0.716859	0.171150	-0.259103
H50	H	0.959425	-0.156021	0.458840
C51	C	0.927214	-0.111749	-0.177645
H52	H	0.928894	-0.057617	-0.162742
H53	H	0.877311	-0.115455	-0.250252
H54	H	0.970093	-0.128416	-0.234199
C55	C	1.026973	0.011422	0.711901
H56	H	1.025490	0.012908	0.834412
H57	H	1.078426	0.021082	0.688091
H58	H	1.017182	-0.039999	0.688093
C59	C	0.477125	0.087533	0.386361
H60	H	0.445488	0.082269	0.477447
H61	H	0.503341	0.133859	0.389950
H62	H	0.516286	0.041077	0.405962
H63	H	0.711839	0.091616	0.383721
H64	H	0.928133	-0.276383	-0.106932
C65	C	0.960364	-0.320660	0.529557
H66	H	0.958700	-0.374794	0.514654
H67	H	0.917493	-0.303999	0.586127
H68	H	1.010273	-0.316951	0.602152
H69	H	0.344975	0.080412	0.481444
C70	C	0.399273	0.113198	-0.132191
H71	H	0.430911	0.118458	-0.223277
H72	H	0.360111	0.159646	-0.151775
H73	H	0.373060	0.066866	-0.135796
H74	H	0.194549	0.079081	0.458830
C75	C	0.849443	0.189299	0.542314
H76	H	0.821176	0.217635	0.614912
H77	H	0.812864	0.164730	0.468581
H78	H	0.874105	0.225813	0.468591
C79	C	0.150350	0.111401	-0.177658
H80	H	0.181990	0.116653	-0.268739
H81	H	0.111192	0.157853	-0.197252
H82	H	0.124131	0.065073	-0.181258
H83	H	0.314978	0.110447	-0.106943
H84	H	0.916968	-0.643251	-0.204648
C85	C	0.517227	0.122587	-0.275382
H86	H	0.548872	0.127840	-0.366455
H87	H	0.478065	0.169037	-0.294990
H88	H	0.491014	0.076255	-0.278982
C89	C	0.916034	-0.478606	-0.275370
H90	H	0.910781	-0.510236	-0.366448
H91	H	0.962362	-0.452391	-0.278961
H92	H	0.869582	-0.439440	-0.294981
H93	H	0.946937	-0.673306	0.383732
H94	H	0.927665	-0.374890	-0.084062
C95	C	0.950742	-0.513410	0.405673
H96	H	0.955349	-0.554914	0.507736
H97	H	0.904986	-0.474930	0.399551
H98	H	0.997766	-0.487891	0.415566
H99	H	0.948728	-0.424386	0.338252
