data_functionalizedCrystal
_audit_creation_method	'MofGen! by Chris Wilmer'
_symmetry_space_group_name_H-M	'P1'
_symmetry_Int_Tables_number	1
_symmetry_cell_setting	triclinic
loop_
_symmetry_equiv_pos_as_xyz
  x,y,z
_cell_length_a	29.839131
_cell_length_b	19.121246
_cell_length_c	19.120904
_cell_angle_alpha	90.125749
_cell_angle_beta	92.413304
_cell_angle_gamma	87.524876
loop_
_atom_site_label
_atom_site_type_symbol
_atom_site_fract_x
_atom_site_fract_y
_atom_site_fract_z
Zn1	Zn	-0.162218	-1.054794	-0.442219
Zn2	Zn	-0.234014	-1.059681	-0.324983
Zn3	Zn	-0.161950	-0.942561	-0.319986
Zn4	Zn	-0.240377	-0.937487	-0.437167
O5	O	-0.199640	-0.998631	-0.381088
O6	O	-0.169191	-1.153551	-0.430873
O7	O	-0.221679	-1.048313	-0.226215
O8	O	-0.099117	-0.957527	-0.336224
O9	O	-0.221939	-1.157141	-0.344740
O10	O	-0.099314	-1.039984	-0.426027
O11	O	-0.168735	-0.962265	-0.222544
O12	O	-0.174905	-0.843779	-0.331325
O13	O	-0.232784	-0.948879	-0.535941
O14	O	-0.232525	-0.840051	-0.417417
O15	O	-0.175361	-1.035064	-0.539653
O16	O	-0.297727	-1.043394	-0.339841
O17	O	-0.302402	-0.953618	-0.422262
C18	C	-0.204377	-0.816477	-0.373281
C19	C	-0.206414	-0.738550	-0.369957
C20	C	-0.179956	-0.700068	-0.413309
C21	C	-0.181868	-0.626847	-0.410180
C22	C	-0.210241	-0.592110	-0.363703
C23	C	-0.236701	-0.630597	-0.320346
C24	C	-0.234786	-0.703817	-0.323472
C25	C	-0.217393	-0.371129	-0.352015
C26	C	-0.219307	-0.297905	-0.348893
C27	C	-0.164473	-0.294160	-0.438727
C28	C	-0.162563	-0.367380	-0.441852
C29	C	-0.189020	-0.405861	-0.398493
C30	C	-0.212198	-0.517267	-0.360505
C31	C	-0.187061	-0.480703	-0.401687
C32	C	-0.316365	-0.998504	-0.381062
C33	C	-0.366300	-0.998513	-0.381076
C34	C	-0.725333	-0.951913	-0.424003
C35	C	-0.537662	-0.951822	-0.423977
O36	O	-0.515481	-0.912049	-0.460456
N37	N	-0.511744	-0.998586	-0.381100
C38	C	-0.532746	-1.045380	-0.338230
O39	O	-0.506394	-1.085159	-0.301765
C40	C	-0.720416	-1.045474	-0.338260
C41	C	-0.746332	-0.998702	-0.381135
C42	C	-0.751249	-0.905146	-0.466875
C43	C	-0.798164	-0.905166	-0.466878
C44	C	-0.819163	-0.951955	-0.424010
C45	C	-0.793247	-0.998723	-0.381138
C46	C	-0.741417	-1.092271	-0.295394
C47	C	-0.788338	-1.092292	-0.295406
C48	C	-0.814254	-1.045520	-0.338281
C49	C	-0.861161	-1.045533	-0.338273
N50	N	-0.887080	-0.998768	-0.381150
C51	C	-0.866081	-0.951979	-0.424018
C52	C	-0.434216	-1.045326	-0.338216
C53	C	-0.387299	-1.045302	-0.338208
C54	C	-0.392218	-0.951744	-0.423956
C55	C	-0.439137	-0.951766	-0.423961
C56	C	-0.460135	-0.998562	-0.381093
C57	C	-0.964605	-0.952026	-0.424022
C58	C	-1.011524	-0.952049	-0.424019
C59	C	-1.006601	-1.045609	-0.338273
C60	C	-0.959686	-1.045584	-0.338273
C61	C	-0.938689	-0.998790	-0.381153
O62	O	-0.883372	-1.085290	-0.301819
O63	O	-0.892440	-0.912217	-0.460489
C64	C	-0.678418	-0.951893	-0.424000
C65	C	-0.652502	-0.998661	-0.381128
C66	C	-0.673501	-1.045449	-0.338260
C67	C	-0.605585	-0.998636	-0.381120
C68	C	-0.584586	-0.951847	-0.423988
C69	C	-0.610504	-0.905083	-0.466866
C70	C	-0.657419	-0.905104	-0.466869
C71	C	-0.647583	-1.092214	-0.295382
C72	C	-0.600668	-1.092189	-0.295382
C73	C	-0.579669	-1.045400	-0.338251
C74	C	-0.082459	-0.998776	-0.381132
C75	C	-0.032523	-0.998838	-0.381150
C76	C	-0.204813	-0.990861	-0.563946
C77	C	-0.207017	-0.987550	-0.641868
C78	C	-0.194882	-0.181496	-0.388921
C79	C	-0.192848	-0.259423	-0.392245
C80	C	-0.178157	-1.030864	-0.680410
C81	C	-0.180226	-1.027744	-0.753627
C82	C	-0.211159	-0.981313	-0.788300
C83	C	-0.240020	-0.937995	-0.749753
C84	C	-0.237948	-0.941111	-0.676538
C85	C	-0.218909	-0.969655	-1.009266
C86	C	-0.220980	-0.966543	-1.082486
C87	C	-0.161185	-1.056292	-1.086355
C88	C	-0.159118	-1.059408	-1.013138
C89	C	-0.187977	-1.016086	-0.974597
C90	C	-0.213276	-0.978125	-0.863139
C91	C	-0.185858	-1.019272	-0.899760
C92	C	-0.194454	-1.006411	-0.198944
C93	C	-0.192120	-1.009857	-0.121028
H94	H	-1.032623	-0.913960	-0.458934
H95	H	-0.238937	-0.402452	-0.316709
H96	H	-0.246170	-0.928732	-1.110715
H97	H	-0.947515	-0.913923	-0.458939
H98	H	-0.460235	-0.913683	-0.458877
C99	C	-0.151832	-1.070341	-0.861624
H100	H	-0.134937	-1.095691	-0.895062
H101	H	-0.167416	-1.102078	-0.834365
H102	H	-0.132145	-1.044754	-0.831922
C103	C	-0.369114	-0.900283	-0.471117
H104	H	-0.337460	-0.906976	-0.464972
H105	H	-0.377768	-0.853623	-0.458810
H106	H	-0.377852	-0.908518	-0.518670
C107	C	-0.135369	-0.251830	-0.486411
H108	H	-0.140569	-0.203248	-0.477891
H109	H	-0.143006	-0.261831	-0.534010
H110	H	-0.104570	-0.264290	-0.476739
C111	C	-0.712920	-1.143727	-0.248237
H112	H	-0.732152	-1.171598	-0.222719
H113	H	-0.694471	-1.118238	-0.216510
H114	H	-0.694560	-1.173105	-0.276395
H115	H	-0.261445	-0.905833	-0.645157
C116	C	-0.129439	-1.103936	-1.128751
H117	H	-0.135100	-1.095428	-1.177321
H118	H	-0.134448	-1.151544	-1.118771
H119	H	-0.099180	-1.094217	-1.116321
C120	C	-0.250645	-0.921989	-0.966879
H121	H	-0.269362	-0.893892	-0.998017
H122	H	-0.233435	-0.892683	-0.937024
H123	H	-0.268720	-0.949985	-0.939451
H124	H	-0.242414	-0.269624	-0.311045
H125	H	-0.163958	-0.508990	-0.439526
C126	C	-0.274045	-0.886923	-0.787891
H127	H	-0.271150	-0.891275	-0.837016
H128	H	-0.268357	-0.840336	-0.773874
H129	H	-0.303626	-0.897662	-0.776319
C130	C	-0.243411	-0.479056	-0.309387
H131	H	-0.258896	-0.512459	-0.284012
H132	H	-0.264513	-0.449342	-0.334935
H133	H	-0.226076	-0.451802	-0.277666
H134	H	-0.579570	-1.130275	-0.260462
H135	H	-0.156853	-0.728345	-0.451158
H136	H	-0.160324	-0.595518	-0.445483
H137	H	-0.238463	-0.940324	-0.891378
H138	H	-0.139460	-0.395658	-0.479701
H139	H	-0.451308	-1.083434	-0.303306
C140	C	-0.263893	-0.746146	-0.275791
H141	H	-0.281070	-0.714973	-0.247668
H142	H	-0.245070	-0.776017	-0.246511
H143	H	-0.283506	-0.773556	-0.303781
C144	C	-0.267911	-0.592392	-0.269221
H145	H	-0.283392	-0.625799	-0.243846
H146	H	-0.289017	-0.562679	-0.294765
H147	H	-0.250577	-0.565135	-0.237501
C148	C	-0.826666	-0.853724	-0.514049
H149	H	-0.807434	-0.825864	-0.539582
H150	H	-0.845032	-0.824344	-0.485908
H151	H	-0.845109	-0.879232	-0.545774
C152	C	-0.587401	-0.853618	-0.514024
H153	H	-0.609553	-0.825762	-0.539561
H154	H	-0.569243	-0.879110	-0.545734
H155	H	-0.569159	-0.824225	-0.485866
C156	C	-0.728158	-0.853670	-0.514031
H157	H	-0.750318	-0.825821	-0.539557
H158	H	-0.709996	-0.879143	-0.545751
H159	H	-0.709920	-0.824271	-0.485870
C160	C	-0.811436	-1.143765	-0.248249
H161	H	-0.843090	-1.137086	-0.254393
H162	H	-0.802693	-1.135545	-0.200699
H163	H	-0.802778	-1.190422	-0.260575
C164	C	-0.358796	-1.096747	-0.291041
H165	H	-0.378026	-1.124618	-0.265518
H166	H	-0.340349	-1.071249	-0.259318
H167	H	-0.340434	-1.126125	-0.319194
H168	H	-0.938584	-1.083663	-0.303353
H169	H	-1.023706	-1.083701	-0.303368
C170	C	-0.144129	-1.081934	-0.642276
H171	H	-0.127234	-1.107278	-0.675719
H172	H	-0.159708	-1.113678	-0.615017
H173	H	-0.124442	-1.056348	-0.612573
C174	C	-0.125092	-1.110482	-0.975003
H175	H	-0.108198	-1.135829	-1.008443
H176	H	-0.140677	-1.142221	-0.947747
H177	H	-0.105404	-1.084901	-0.945297
H178	H	-0.156726	-1.063017	-0.785004
H179	H	-0.664675	-1.130316	-0.260473
H180	H	-0.678516	-0.867018	-0.501783
