data_functionalizedCrystal
_audit_creation_method	'MofGen! by Chris Wilmer'
_symmetry_space_group_name_H-M	'P1'
_symmetry_Int_Tables_number	1
_symmetry_cell_setting	triclinic
loop_
_symmetry_equiv_pos_as_xyz
  x,y,z
_cell_length_a	23.532407
_cell_length_b	23.532407
_cell_length_c	11.295483
_cell_angle_alpha	94.064566
_cell_angle_beta	85.923202
_cell_angle_gamma	82.848712
loop_
_atom_site_label
_atom_site_type_symbol
_atom_site_fract_x
_atom_site_fract_y
_atom_site_fract_z
O1	O	0.759115	0.065281	-0.098961
O2	O	1.259115	0.565281	0.401039
O3	O	0.593252	0.075283	-0.098981
O4	O	1.093252	0.575283	0.401019
O5	O	0.681184	-0.012649	-0.098949
O6	O	1.181184	0.487351	0.401051
O7	O	0.671183	0.153213	-0.098993
O8	O	1.171183	0.653213	0.401007
O9	O	0.673461	-0.004938	0.099099
O10	O	1.173461	0.495062	0.599099
O11	O	0.585529	0.082994	0.099067
O12	O	1.085529	0.582994	0.599067
O13	O	0.751392	0.072992	0.099087
O14	O	1.251392	0.572992	0.599087
Cu15	Cu	0.667755	0.078697	0.117160
Cu16	Cu	1.167755	0.578697	0.617160
Cu17	Cu	0.676889	0.069578	-0.117054
Cu18	Cu	1.176889	0.569578	0.382946
O19	O	0.663460	0.160924	0.099054
O20	O	1.163460	0.660924	0.599054
C21	C	0.568175	0.078884	0.000040
C22	C	1.068175	0.578884	0.500040
C23	C	0.504958	0.078118	0.000034
C24	C	1.004958	0.578118	0.500034
C25	C	0.238789	0.022924	0.000081
C26	C	0.738789	0.522924	0.500081
C27	C	0.298189	0.023636	0.000080
C28	C	0.798189	0.523636	0.500080
O29	O	0.334931	-0.020148	0.000133
O30	O	0.834931	0.479852	0.500133
N31	N	0.320816	0.075911	0.000058
N32	N	0.820816	0.575911	0.500058
C33	C	0.284039	0.127479	0.000048
C34	C	0.784039	0.627479	0.500048
O35	O	0.308739	0.172009	0.000031
O36	O	0.808739	0.672009	0.500031
C37	C	0.224639	0.126767	0.000057
C38	C	0.724639	0.626767	0.500057
C39	C	0.202016	0.074488	0.000068
C40	C	0.702016	0.574488	0.500068
C41	C	0.216165	-0.029351	0.000092
C42	C	0.716165	0.470649	0.500092
C43	C	0.156769	-0.030062	0.000091
C44	C	0.656769	0.469938	0.500091
C45	C	0.119996	0.021502	0.000077
C46	C	0.619996	0.521502	0.500077
C47	C	0.142620	0.073777	0.000066
C48	C	0.642620	0.573777	0.500066
C49	C	0.187863	0.178335	0.000056
C50	C	0.687863	0.678335	0.500056
C51	C	0.128460	0.177619	0.000066
C52	C	0.628460	0.677619	0.500066
C53	C	0.105837	0.125339	0.000076
C54	C	0.605837	0.625339	0.500076
C55	C	0.046452	0.124629	0.000051
C56	C	0.546452	0.624629	0.500051
N57	N	0.023825	0.072354	0.000073
N58	N	0.523825	0.572354	0.500073
C59	C	0.060597	0.020790	0.000086
C60	C	0.560597	0.520790	0.500086
C61	C	0.408782	0.128970	0.000032
C62	C	0.908782	0.628970	0.500032
C63	C	0.468181	0.129682	0.000014
C64	C	0.968181	0.629682	0.500014
C65	C	0.482327	0.025838	0.000048
C66	C	0.982327	0.525838	0.500048
C67	C	0.422927	0.025126	0.000057
C68	C	0.922927	0.525126	0.500057
C69	C	0.386155	0.076694	0.000054
C70	C	0.886155	0.576694	0.500054
C71	C	-0.064140	0.019300	0.000082
C72	C	0.435860	0.519300	0.500082
C73	C	-0.123541	0.018593	0.000075
C74	C	0.376459	0.518593	0.500075
C75	C	-0.137682	0.122437	0.000047
C76	C	0.362318	0.622437	0.500047
C77	C	-0.078286	0.123144	0.000048
C78	C	0.421714	0.623144	0.500048
C79	C	-0.041515	0.071571	0.000069
C80	C	0.458485	0.571571	0.500069
O81	O	0.009674	0.168390	0.000003
O82	O	0.509674	0.668390	0.500003
O83	O	0.035888	-0.023732	0.000120
O84	O	0.535888	0.476268	0.500120
C85	C	0.677068	-0.030009	0.000078
C86	C	1.177068	0.469991	0.500078
C87	C	0.676302	-0.093226	0.000087
C88	C	1.176302	0.406774	0.500087
C89	C	0.723537	-0.492331	0.000028
C90	C	1.223537	0.007669	0.500028
C91	C	0.722826	-0.551732	0.000019
C92	C	1.222826	-0.051732	0.500019
O93	O	0.766614	-0.588478	-0.000020
O94	O	1.266614	-0.088478	0.499980
N95	N	0.670550	-0.574358	0.000013
N96	N	1.170550	-0.074358	0.500013
C97	C	0.618982	-0.537581	0.000005
C98	C	1.118982	-0.037581	0.500005
O99	O	0.574452	-0.562281	-0.000002
O100	O	1.074452	-0.062281	0.499998
C101	C	0.619694	-0.478182	0.000005
C102	C	1.119694	0.021818	0.500005
C103	C	0.671973	-0.455559	0.000023
C104	C	1.171973	0.044441	0.500023
C105	C	0.775812	-0.469707	0.000044
C106	C	1.275812	0.030293	0.500044
C107	C	0.776523	-0.410311	0.000056
C108	C	1.276523	0.089689	0.500056
C109	C	0.724959	-0.373538	0.000051
C110	C	1.224959	0.126462	0.500051
C111	C	0.672684	-0.396162	0.000034
C112	C	1.172684	0.103838	0.500034
C113	C	0.568127	-0.441406	-0.000012
C114	C	1.068127	0.058594	0.499988
C115	C	0.568844	-0.382004	-0.000012
C116	C	1.068844	0.117996	0.499988
C117	C	0.621123	-0.359380	0.000006
C118	C	1.121123	0.140620	0.500006
C119	C	0.621831	-0.299993	0.000041
C120	C	1.121831	0.200007	0.500041
N121	N	0.674107	-0.277366	0.000046
N122	N	1.174107	0.222634	0.500046
C123	C	0.725671	-0.314139	0.000051
C124	C	1.225671	0.185861	0.500051
C125	C	0.617491	-0.662324	0.000001
C126	C	1.117491	-0.162324	0.500001
C127	C	0.616778	-0.721721	0.000009
C128	C	1.116778	-0.221721	0.500009
C129	C	0.720622	-0.735868	0.000021
C130	C	1.220622	-0.235868	0.500021
C131	C	0.721334	-0.676469	0.000022
C132	C	1.221334	-0.176469	0.500022
C133	C	0.669767	-0.639697	0.000007
C134	C	1.169767	-0.139697	0.500007
C135	C	0.727160	-0.189401	0.000076
C136	C	1.227160	0.310599	0.500076
C137	C	0.727866	-0.129999	0.000092
C138	C	1.227866	0.370001	0.500092
C139	C	0.624022	-0.115857	0.000074
C140	C	1.124022	0.384143	0.500074
C141	C	0.623315	-0.175254	0.000064
C142	C	1.123315	0.324746	0.500064
C143	C	0.674889	-0.212026	0.000061
C144	C	1.174889	0.287974	0.500061
O145	O	0.578067	-0.263212	0.000074
O146	O	1.078067	0.236788	0.500074
O147	O	0.770194	-0.289431	0.000042
O148	O	1.270194	0.210569	0.500042
C149	C	0.776469	0.069391	0.000063
C150	C	1.276469	0.569391	0.500063
C151	C	0.839686	0.070157	0.000062
C152	C	1.339686	0.570157	0.500062
C153	C	0.667576	0.178284	0.000025
C154	C	1.167576	0.678284	0.500025
C155	C	0.668343	0.241501	0.000008
C156	C	1.168343	0.741501	0.500008
N157	N	0.661335	0.085111	0.281894
N158	N	1.161335	0.585111	0.781894
N159	N	0.683313	0.063159	-0.281788
N160	N	1.183313	0.563159	0.218212
C161	C	0.729527	0.016957	0.531209
C162	C	1.229527	0.516957	1.031209
C163	C	0.724680	0.021808	0.655871
C164	C	1.224680	0.521808	1.155871
C165	C	0.646790	0.099661	0.655882
C166	C	1.146790	0.599661	1.155882
C167	C	0.651638	0.094810	0.531220
C168	C	1.151638	0.594810	1.031220
C169	C	0.693008	0.053457	0.468888
C170	C	1.193008	0.553457	0.968888
C171	C	0.697858	0.048609	0.344224
C172	C	1.197858	0.548609	0.844224
C173	C	0.619966	0.126460	0.344237
C174	C	1.119966	0.626460	0.844237
C175	C	0.615119	0.131311	0.468899
C176	C	1.115119	0.631311	0.968899
H177	H	0.512278	-0.016148	0.000059
H178	H	1.012278	0.483852	0.500059
H179	H	0.526851	-0.352066	-0.000026
H180	H	1.026851	0.147934	0.499974
H181	H	0.378845	0.170965	0.000020
H182	H	0.878845	0.670965	0.500020
H183	H	0.246100	-0.071343	0.000107
H184	H	0.746100	0.428657	0.500107
Cl185	Cl	0.216288	0.244062	0.000044
Cl186	Cl	0.716288	0.744062	0.500044
H187	H	0.580744	-0.193674	0.000083
H188	H	1.080744	0.306326	0.500083
H189	H	0.582040	-0.085906	0.000074
H190	H	1.082040	0.414094	0.500074
Cl191	Cl	0.394493	-0.040598	0.000076
Cl192	Cl	0.894493	0.459402	0.500076
Cl193	Cl	0.496614	0.195406	-0.000023
Cl194	Cl	0.996614	0.695406	0.499977
Cl195	Cl	0.082235	0.242451	0.000067
Cl196	Cl	0.582235	0.742451	0.500067
H197	H	0.575496	-0.632386	-0.000001
H198	H	1.075496	-0.132386	0.499999
Cl199	Cl	0.791996	-0.235619	0.000074
Cl200	Cl	1.291996	0.264381	0.500074
H201	H	0.817804	-0.499643	0.000044
H202	H	1.317804	0.000357	0.500044
H203	H	0.763217	-0.016711	0.480457
H204	H	1.263217	0.483289	0.980457
Cl205	Cl	0.594779	0.151639	0.734254
Cl206	Cl	1.094779	0.651639	1.234254
Cl207	Cl	-0.049844	0.188866	0.000020
Cl208	Cl	0.450156	0.688866	0.500020
H209	H	0.754417	-0.007915	0.706609
H210	H	1.254417	0.492085	1.206609
Cl211	Cl	0.749867	-0.003376	0.265866
Cl212	Cl	1.249867	0.496624	0.765866
Cl213	Cl	-0.151977	-0.047135	0.000080
Cl214	Cl	0.348023	0.452865	0.500080
Cl215	Cl	0.787059	-0.648035	0.000043
Cl216	Cl	1.287059	-0.148035	0.500043
Cl217	Cl	0.502401	-0.469832	-0.000042
Cl218	Cl	1.002401	0.030168	0.499958
H219	H	0.581434	0.164978	0.519664
H220	H	1.081434	0.664978	1.019664
Cl221	Cl	-0.183921	0.187256	0.000026
Cl222	Cl	0.316079	0.687256	0.500026
H223	H	0.770439	-0.111582	0.000110
H224	H	1.270439	0.388418	0.500110
H225	H	0.819094	-0.391897	0.000065
H226	H	1.319094	0.108103	0.500065
Cl227	Cl	0.574058	0.172351	0.265880
Cl228	Cl	1.074058	0.672351	0.765880
H229	H	0.762609	-0.765820	0.000021
H230	H	1.262609	-0.265820	0.500021
H231	H	-0.034207	-0.022695	0.000099
H232	H	0.465793	0.477305	0.500099
H233	H	0.574206	-0.740135	0.000015
H234	H	1.074206	-0.240135	0.500015
H235	H	0.138355	-0.072633	0.000104
H236	H	0.638355	0.427367	0.500104
