data_functionalizedCrystal
_audit_creation_method	'MofGen! by Chris Wilmer'
_symmetry_space_group_name_H-M	'P1'
_symmetry_Int_Tables_number	1
_symmetry_cell_setting	triclinic
loop_
_symmetry_equiv_pos_as_xyz
  x,y,z
_cell_length_a	16.992694
_cell_length_b	13.339070
_cell_length_c	15.455313
_cell_angle_alpha	93.394339
_cell_angle_beta	87.142206
_cell_angle_gamma	103.148759
loop_
_atom_site_label
_atom_site_type_symbol
_atom_site_fract_x
_atom_site_fract_y
_atom_site_fract_z
O1	O	1.090408	0.214131	-0.072012
O2	O	1.590408	0.714131	0.427988
O3	O	0.861603	0.211734	-0.072038
O4	O	1.361603	0.711734	0.427962
O5	O	0.949746	0.063546	-0.072026
O6	O	1.449746	0.563546	0.427974
O7	O	1.002265	0.362319	-0.072025
O8	O	1.502265	0.862319	0.427975
O9	O	0.944697	0.071983	0.072236
O10	O	1.444697	0.571983	0.572236
O11	O	0.856554	0.220171	0.072223
O12	O	1.356554	0.720171	0.572223
O13	O	1.085360	0.222568	0.072249
O14	O	1.585360	0.722568	0.572249
Cu15	Cu	0.970496	0.222140	0.085408
Cu16	Cu	1.470496	0.722140	0.585408
Cu17	Cu	0.976466	0.212163	-0.085197
Cu18	Cu	1.476466	0.712163	0.414803
O19	O	0.997216	0.370756	0.072237
O20	O	1.497216	0.870756	0.572237
C21	C	0.829195	0.212871	0.000089
C22	C	1.329195	0.712871	0.500089
C23	C	0.740151	0.203676	0.000079
C24	C	1.240151	0.703676	0.500079
C25	C	0.938350	0.029358	0.000103
C26	C	1.438350	0.529358	0.500103
C27	C	0.911906	-0.085082	0.000097
C28	C	1.411906	0.414918	0.500097
C29	C	0.709211	0.292390	0.000080
C30	C	1.209211	0.792390	0.500080
C31	C	0.625543	0.283745	0.000092
C32	C	1.125543	0.783745	0.500092
C33	C	0.572817	0.186386	0.000097
C34	C	1.072817	0.686386	0.500097
C35	C	0.603762	0.097666	0.000099
C36	C	1.103762	0.597666	0.500099
C37	C	0.687429	0.106311	0.000093
C38	C	1.187429	0.606311	0.500093
C39	C	0.321423	0.150552	0.000120
C40	C	0.821423	0.650552	0.500120
C41	C	0.237751	0.141912	0.000123
C42	C	0.737751	0.641912	0.500123
C43	C	0.259538	0.327993	0.000118
C44	C	0.759538	0.827993	0.500118
C45	C	0.343205	0.336630	0.000107
C46	C	0.843205	0.836630	0.500107
C47	C	0.374143	0.247910	0.000114
C48	C	0.874143	0.747910	0.500114
N49	N	0.487295	0.177547	0.000107
N50	N	0.987295	0.677547	0.500107
N51	N	0.459663	0.256750	0.000110
N52	N	0.959663	0.756750	0.500110
C53	C	1.117519	-0.433251	0.000120
C54	C	1.617519	0.066749	0.500120
C55	C	1.142367	-0.325728	0.000131
C56	C	1.642367	0.174272	0.500131
C57	C	1.084754	-0.265562	0.000122
C58	C	1.584754	0.234438	0.500122
C59	C	1.002289	-0.312927	0.000103
C60	C	1.502289	0.187073	0.500103
C61	C	0.977439	-0.420460	0.000099
C62	C	1.477439	0.079540	0.500099
C63	C	0.944673	-0.252771	0.000101
C64	C	1.444673	0.247229	0.500101
C65	C	0.862209	-0.300136	0.000081
C66	C	1.362209	0.199864	0.500081
C67	C	0.837363	-0.407658	0.000077
C68	C	1.337363	0.092342	0.500077
C69	C	0.894976	-0.467825	0.000086
C70	C	1.394976	0.032175	0.500086
C71	C	0.969524	-0.145238	0.000105
C72	C	1.469524	0.354762	0.500105
C73	C	0.829443	-0.132447	0.000083
C74	C	1.329443	0.367553	0.500083
C75	C	0.804596	-0.239969	0.000072
C76	C	1.304596	0.260031	0.500072
C77	C	1.117767	0.221431	0.000120
C78	C	1.617767	0.721431	0.500120
C79	C	1.206811	0.230626	0.000124
C80	C	1.706811	0.730626	0.500124
C81	C	1.008612	0.404944	0.000106
C82	C	1.508612	0.904944	0.500106
C83	C	1.035056	0.519384	0.000107
C84	C	1.535056	1.019384	0.500107
N85	N	0.966302	0.229157	0.205403
N86	N	1.466302	0.729157	0.705403
N87	N	0.980664	0.205137	-0.205192
N88	N	1.480664	0.705137	0.294808
C89	C	1.003772	0.166228	0.250803
C90	C	1.503772	0.666228	0.750803
C91	C	1.000610	0.171545	0.341610
C92	C	1.500610	0.671545	0.841610
C93	C	0.959983	0.239798	0.387017
C94	C	1.459983	0.739798	0.887017
C95	C	0.922508	0.302729	0.341611
C96	C	1.422508	0.802729	0.841611
C97	C	0.925665	0.297406	0.250805
C98	C	1.425665	0.797406	0.750805
C99	C	0.946347	0.262746	0.658596
C100	C	1.446347	0.762746	1.158596
C101	C	0.943195	0.268067	0.749408
C102	C	1.443195	0.768067	1.249408
C103	C	1.021296	0.136880	0.749401
C104	C	1.521296	0.636880	1.249401
C105	C	1.024454	0.131568	0.658594
C106	C	1.524454	0.631568	1.158594
C107	C	0.986976	0.194496	0.613196
C108	C	1.486976	0.694496	1.113196
N109	N	0.956752	0.245237	0.479836
N110	N	1.456752	0.745237	0.979836
N111	N	0.990202	0.189051	0.520378
N112	N	1.490202	0.689051	1.020378
H113	H	0.752136	0.371670	0.000076
H114	H	1.252136	0.871670	0.500076
Br115	Br	0.861260	-0.613762	-0.000047
Br116	Br	1.361260	-0.113762	0.499953
Br117	Br	1.072155	0.051480	0.811016
Br118	Br	1.572155	0.551480	1.311016
Br119	Br	0.895488	0.348148	0.596990
Br120	Br	1.395488	0.848148	1.096990
H121	H	0.346601	0.078309	0.000126
H122	H	0.846601	0.578309	0.500126
Br123	Br	1.051459	0.086136	0.403227
Br124	Br	1.551459	0.586136	0.903227
Br125	Br	0.583556	0.404148	0.000091
Br126	Br	1.083556	0.904148	0.500091
H127	H	1.057536	0.075991	0.621626
H128	H	1.557536	0.575991	1.121626
H129	H	0.712618	0.034071	0.000092
H130	H	1.212618	0.534071	0.500092
Br131	Br	0.692682	-0.304264	0.000041
Br132	Br	1.192682	0.195736	0.500041
Br133	Br	0.888057	0.360708	0.811026
Br134	Br	1.388057	0.860708	1.311026
H135	H	0.560826	0.018394	0.000115
H136	H	1.060826	0.518394	0.500115
Br137	Br	1.118476	-0.119636	0.000134
Br138	Br	1.618476	0.380364	0.500134
H139	H	0.194822	0.062627	0.000126
H140	H	0.694822	0.562627	0.500126
H141	H	0.386130	0.415910	0.000093
H142	H	0.886130	0.915910	0.500093
H143	H	0.889423	0.358298	0.378586
H144	H	1.389423	0.858298	0.878586
H145	H	0.895152	0.348649	0.213842
H146	H	1.395152	0.848649	0.713842
Br147	Br	0.217546	0.448392	0.000111
Br148	Br	0.717546	0.948392	0.500111
Br149	Br	1.254278	-0.261454	0.000139
Br150	Br	1.754278	0.238546	0.500139
H151	H	1.036667	-0.106684	0.000121
H152	H	1.536667	0.393316	0.500121
H153	H	0.770215	-0.446220	0.000068
H154	H	1.270215	0.053780	0.500068
Br155	Br	0.751248	-0.050801	0.000081
Br156	Br	1.251248	0.449199	0.500081
Br157	Br	1.058919	0.073603	0.189189
Br158	Br	1.558919	0.573603	0.689189
H159	H	1.164418	-0.482247	0.000134
H160	H	1.664418	0.017753	0.500134
