data_functionalizedCrystal
_audit_creation_method	'MofGen! by Chris Wilmer'
_symmetry_space_group_name_H-M	'P1'
_symmetry_Int_Tables_number	1
_symmetry_cell_setting	triclinic
loop_
_symmetry_equiv_pos_as_xyz
  x,y,z
_cell_length_a	16.120530
_cell_length_b	12.645330
_cell_length_c	12.645323
_cell_angle_alpha	89.975130
_cell_angle_beta	87.080466
_cell_angle_gamma	87.113442
loop_
_atom_site_label
_atom_site_type_symbol
_atom_site_fract_x
_atom_site_fract_y
_atom_site_fract_z
Zn1	Zn	1.274613	-0.504324	-0.681531
Zn2	Zn	1.774613	-0.004324	-0.181531
Zn3	Zn	1.274520	-0.681606	-0.504265
Zn4	Zn	1.774520	-0.181606	-0.004265
Zn5	Zn	1.135188	-0.495361	-0.495296
Zn6	Zn	1.635188	0.004639	0.004704
Zn7	Zn	1.135173	-0.672543	-0.672507
Zn8	Zn	1.635173	-0.172543	-0.172507
O9	O	1.204873	-0.588458	-0.588400
O10	O	1.704873	-0.088458	-0.088400
O11	O	1.391267	-0.535384	-0.665546
O12	O	1.891267	-0.035384	-0.165546
O13	O	1.256004	-0.656942	-0.354726
O14	O	1.756004	-0.156942	0.145274
O15	O	1.153728	-0.348206	-0.520024
O16	O	1.653728	0.151794	-0.020024
O17	O	1.391199	-0.665632	-0.535310
O18	O	1.891199	-0.165632	-0.035310
O19	O	1.256163	-0.354790	-0.656850
O20	O	1.756163	0.145210	-0.156850
O21	O	1.153638	-0.520109	-0.348137
O22	O	1.653638	-0.020109	0.151863
O23	O	1.018519	-0.511321	-0.511274
O24	O	1.518519	-0.011321	-0.011274
O25	O	1.153703	-0.650186	-0.822053
O26	O	1.653703	-0.150186	-0.322053
O27	O	1.018509	-0.641496	-0.641469
O28	O	1.518509	-0.141496	-0.141469
O29	O	1.256149	-0.526596	-0.828683
O30	O	1.756149	-0.026596	-0.328683
O31	O	1.255990	-0.828748	-0.526559
O32	O	1.755990	-0.328748	-0.026559
O33	O	1.153613	-0.822089	-0.650166
O34	O	1.653613	-0.322089	-0.150166
C35	C	0.988264	-0.574453	-0.574420
C36	C	1.488264	-0.074453	-0.074420
C37	C	0.895597	-0.568487	-0.568464
C38	C	1.395597	-0.068487	-0.068464
C39	C	0.725934	-0.557570	-0.557600
C40	C	1.225934	-0.057570	-0.057600
C41	C	0.684653	-0.619425	-0.619278
C42	C	1.184653	-0.119425	-0.119278
C43	C	0.590247	-0.613350	-0.613233
C44	C	1.090247	-0.113350	-0.113233
C45	C	0.820349	-0.563643	-0.563643
C46	C	1.320349	-0.063643	-0.063643
C47	C	1.204813	-0.863884	-0.588381
C48	C	1.704813	-0.363884	-0.088381
C49	C	1.204863	-0.981717	-0.588413
C50	C	1.704863	-0.481717	-0.088413
C51	C	1.140723	-1.145154	-0.666444
C52	C	1.640723	-0.645154	-0.166444
C53	C	1.140395	-1.022573	-0.666159
C54	C	1.640395	-0.522573	-0.166159
C55	C	1.181077	-1.024776	-0.475160
C56	C	1.681077	-0.524776	0.024840
C57	C	1.180685	-1.147349	-0.475633
C58	C	1.680685	-0.647349	0.024367
C59	C	1.293181	-1.154509	-0.622756
C60	C	1.793181	-0.654509	-0.122756
C61	C	1.292640	-1.031867	-0.625164
C62	C	1.792640	-0.531867	-0.125164
C63	C	1.422329	-0.602519	-0.602435
C64	C	1.922329	-0.102519	-0.102435
C65	C	1.514996	-0.608511	-0.608416
C66	C	2.014996	-0.108511	-0.108416
C67	C	1.204935	-0.588380	-0.864909
C68	C	1.704935	-0.088380	-0.364909
C69	C	1.204961	-0.588347	-0.982741
C70	C	1.704961	-0.088347	-0.482741
C71	C	1.204957	-0.311958	-0.588443
C72	C	1.704957	0.188042	-0.088443
C73	C	1.204993	-0.194131	-0.588462
C74	C	1.704993	0.305869	-0.088462
C75	C	1.140314	-0.665699	-1.146121
C76	C	1.640314	-0.165699	-0.646121
C77	C	1.140483	-0.666113	-1.023572
C78	C	1.640483	-0.166113	-0.523572
C79	C	1.292806	-0.624337	-1.032918
C80	C	1.792806	-0.124337	-0.532918
C81	C	1.292452	-0.624825	-1.155494
C82	C	1.792452	-0.124825	-0.655494
C83	C	1.182593	-0.474603	-1.148498
C84	C	1.682593	0.025397	-0.648498
C85	C	1.180634	-0.475149	-1.025766
C86	C	1.680634	0.024851	-0.525766
C87	C	1.204860	-0.588463	-0.312969
C88	C	1.704860	-0.088463	0.187031
C89	C	1.204996	-0.588208	-0.195148
C90	C	1.704996	-0.088208	0.304852
H91	H	0.720213	-0.676941	-0.676623
H92	H	1.220213	-0.176941	-0.176623
H93	H	1.343046	-1.004471	-0.572953
H94	H	1.843046	-0.504471	-0.072953
C95	C	1.160085	-0.778597	-1.189036
C96	C	1.660085	-0.278597	-0.689036
H97	H	1.207590	-0.778714	-1.236697
H98	H	1.707590	-0.278714	-0.736697
H99	H	1.113923	-0.801600	-1.225064
H100	H	1.613923	-0.301600	-0.725064
H101	H	1.170954	-0.825126	-1.131820
H102	H	1.670954	-0.325126	-0.631820
C103	C	0.677906	-0.479878	-0.480131
C104	C	1.177906	0.020122	0.019869
H105	H	0.716219	-0.441861	-0.442227
H106	H	1.216219	0.058139	0.057773
H107	H	0.643907	-0.518234	-0.431745
H108	H	1.143907	-0.018234	0.068255
H109	H	0.643963	-0.431593	-0.518635
H110	H	1.143963	0.068407	-0.018635
C111	C	1.160470	-0.983128	-0.779368
C112	C	1.660470	-0.483128	-0.279368
H113	H	1.168898	-1.042048	-0.825948
H114	H	1.668898	-0.542048	-0.325948
H115	H	1.209459	-0.944343	-0.780364
H116	H	1.709459	-0.444343	-0.280364
H117	H	1.115414	-0.938672	-0.801646
H118	H	1.615414	-0.438672	-0.301646
C119	C	1.318898	-0.735625	-0.993155
C120	C	1.818898	-0.235625	-0.493155
H121	H	1.276382	-0.760309	-0.945996
H122	H	1.776382	-0.260309	-0.445996
H123	H	1.369065	-0.732570	-0.957238
H124	H	1.869065	-0.232570	-0.457238
H125	H	1.327327	-0.782662	-1.051710
H126	H	1.827327	-0.282662	-0.551710
H127	H	1.311440	-0.708041	-1.185327
H128	H	1.811440	-0.208041	-0.685327
H129	H	1.115987	-0.448111	-0.992503
H130	H	1.615987	0.051889	-0.492503
C131	C	1.160561	-1.186296	-0.779977
C132	C	1.660561	-0.686296	-0.279977
H133	H	1.208222	-1.233703	-0.780844
H134	H	1.708222	-0.733703	-0.280844
H135	H	1.171167	-1.128359	-0.825693
H136	H	1.671167	-0.628359	-0.325693
H137	H	1.114511	-1.222272	-0.803423
H138	H	1.614511	-0.722272	-0.303423
C139	C	1.052952	-1.181217	-0.635508
C140	C	1.552952	-0.681217	-0.135508
H141	H	1.055304	-1.225988	-0.575272
H142	H	1.555304	-0.725988	-0.075272
H143	H	1.032479	-1.218893	-0.692859
H144	H	1.532479	-0.718893	-0.192859
H145	H	1.016924	-1.121009	-0.619283
H146	H	1.516924	-0.621009	-0.119283
H147	H	1.075016	-0.989117	-0.642991
H148	H	1.575016	-0.489117	-0.142991
C149	C	1.093597	-1.180492	-0.437289
C150	C	1.593597	-0.680492	0.062711
H151	H	1.058789	-1.119066	-0.421575
H152	H	1.558789	-0.619066	0.078425
H153	H	1.097868	-1.222643	-0.375419
H154	H	1.597868	-0.722643	0.124581
H155	H	1.070398	-1.220197	-0.491235
H156	H	1.570398	-0.720197	0.008765
H157	H	1.225465	-1.179897	-0.415244
H158	H	1.725465	-0.679897	0.084756
C159	C	1.097568	-0.431775	-1.184770
C160	C	1.597568	0.068225	-0.684770
H161	H	1.074933	-0.482786	-1.228706
H162	H	1.574933	0.017214	-0.728706
H163	H	1.104402	-0.368084	-1.223388
H164	H	1.604402	0.131916	-0.723388
H165	H	1.060905	-0.418057	-1.124589
H166	H	1.560905	0.081943	-0.624589
C167	C	1.242301	-0.989335	-0.394180
C168	C	1.742301	-0.489335	0.105820
H169	H	1.283007	-0.947860	-0.428803
H170	H	1.783007	-0.447860	0.071197
H171	H	1.268815	-1.049896	-0.363594
H172	H	1.768815	-0.549896	0.136406
H173	H	1.212847	-0.948362	-0.340190
H174	H	1.712847	-0.448362	0.159810
H175	H	1.117282	-0.990046	-0.446373
H176	H	1.617282	-0.490046	0.053627
C177	C	1.359773	-0.552327	-1.199928
C178	C	1.859773	-0.052327	-0.699928
H179	H	1.387222	-0.522714	-1.143056
H180	H	1.887222	-0.022714	-0.643056
H181	H	1.334599	-0.497064	-1.240037
H182	H	1.834599	0.002936	-0.740037
H183	H	1.399046	-0.592494	-1.244091
H184	H	1.899046	-0.092494	-0.744091
H185	H	1.314879	-1.186754	-0.704236
H186	H	1.814879	-0.686754	-0.204236
H187	H	1.310578	-1.003875	-0.708541
H188	H	1.810578	-0.503875	-0.208541
C189	C	1.357850	-1.197738	-0.546051
C190	C	1.857850	-0.697738	-0.046051
H191	H	1.331282	-1.239745	-0.493392
H192	H	1.831282	-0.739745	0.006608
H193	H	1.382412	-1.140302	-0.513242
H194	H	1.882412	-0.640302	-0.013242
H195	H	1.399736	-1.239828	-0.584177
H196	H	1.899736	-0.739828	-0.084177
H197	H	1.342291	-0.569931	-1.006970
H198	H	1.842291	-0.069931	-0.506970
H199	H	1.075343	-0.642935	-0.989275
H200	H	1.575343	-0.142935	-0.489275
H201	H	1.224303	-0.413905	-0.997957
H202	H	1.724303	0.086095	-0.497957
C203	C	1.052050	-0.634616	-1.180241
C204	C	1.552050	-0.134616	-0.680241
H205	H	1.053853	-0.574107	-1.224698
H206	H	1.553853	-0.074107	-0.724698
H207	H	1.016712	-0.618810	-1.119295
H208	H	1.516712	-0.118810	-0.619295
H209	H	1.031138	-0.691756	-1.217805
H210	H	1.531138	-0.191756	-0.717805
H211	H	1.155272	-0.750216	-0.995211
H212	H	1.655272	-0.250216	-0.495211
H213	H	1.229704	-0.416800	-1.180546
H214	H	1.729704	0.083200	-0.680546
