data_functionalizedCrystal
_audit_creation_method	'MofGen! by Chris Wilmer'
_symmetry_space_group_name_H-M	'P1'
_symmetry_Int_Tables_number	1
_symmetry_cell_setting	triclinic
loop_
_symmetry_equiv_pos_as_xyz
  x,y,z
_cell_length_a	15.944551
_cell_length_b	16.109301
_cell_length_c	15.186229
_cell_angle_alpha	90.005167
_cell_angle_beta	90.001133
_cell_angle_gamma	96.519890
loop_
_atom_site_label
_atom_site_type_symbol
_atom_site_fract_x
_atom_site_fract_y
_atom_site_fract_z
O1	O	1.114487	-0.107227	-0.073140
O2	O	1.364487	0.142773	0.176860
O3	O	1.614487	0.392773	0.426860
O4	O	1.864487	0.642773	0.676860
O5	O	0.869933	-0.120447	-0.073162
O6	O	1.119933	0.129553	0.176838
O7	O	1.369933	0.379553	0.426838
O8	O	1.619933	0.629553	0.676838
O9	O	0.998929	0.007192	-0.073141
O10	O	1.248929	0.257192	0.176859
O11	O	1.498929	0.507192	0.426859
O12	O	1.748929	0.757192	0.676859
O13	O	0.985492	-0.234866	-0.073160
O14	O	1.235492	0.015134	0.176840
O15	O	1.485492	0.265134	0.426840
O16	O	1.735492	0.515134	0.676840
O17	O	0.998920	0.007194	0.073316
O18	O	1.248920	0.257194	0.323316
O19	O	1.498920	0.507194	0.573316
O20	O	1.748920	0.757194	0.823316
O21	O	0.869925	-0.120445	0.073295
O22	O	1.119925	0.129555	0.323295
O23	O	1.369925	0.379555	0.573295
O24	O	1.619925	0.629555	0.823295
O25	O	1.114479	-0.107225	0.073318
O26	O	1.364479	0.142775	0.323318
O27	O	1.614479	0.392775	0.573318
O28	O	1.864479	0.642775	0.823318
Zn29	Zn	0.992200	-0.113835	0.096560
Zn30	Zn	1.242200	0.136165	0.346560
Zn31	Zn	1.492200	0.386165	0.596560
Zn32	Zn	1.742200	0.636165	0.846560
Zn33	Zn	0.992212	-0.113837	-0.096404
Zn34	Zn	1.242212	0.136163	0.153596
Zn35	Zn	1.492212	0.386163	0.403596
Zn36	Zn	1.742212	0.636163	0.653596
O37	O	0.985484	-0.234864	0.073297
O38	O	1.235484	0.015136	0.323297
O39	O	1.485484	0.265136	0.573297
O40	O	1.735484	0.515136	0.823297
C41	C	0.838635	-0.119897	0.000064
C42	C	1.088635	0.130103	0.250064
C43	C	1.338635	0.380103	0.500064
C44	C	1.588635	0.630103	0.750064
C45	C	0.745390	-0.118252	0.000056
C46	C	0.995390	0.131748	0.250056
C47	C	1.245390	0.381748	0.500056
C48	C	1.495390	0.631748	0.750056
C49	C	0.998380	0.038168	0.000088
C50	C	1.248380	0.288168	0.250088
C51	C	1.498380	0.538168	0.500088
C52	C	1.748380	0.788168	0.750088
C53	C	0.996748	0.130464	0.000089
C54	C	1.246748	0.380464	0.250089
C55	C	1.496748	0.630464	0.500089
C56	C	1.746748	0.880464	0.750089
C57	C	0.986032	-0.265840	0.000066
C58	C	1.236032	-0.015840	0.250066
C59	C	1.486032	0.234160	0.500066
C60	C	1.736032	0.484160	0.750066
C61	C	0.987664	-0.358136	0.000059
C62	C	1.237664	-0.108136	0.250059
C63	C	1.487664	0.141864	0.500059
C64	C	1.737664	0.391864	0.750059
C65	C	0.530561	-0.035203	0.000079
C66	C	0.780561	0.214797	0.250079
C67	C	1.030561	0.464797	0.500079
C68	C	1.280561	0.714797	0.750079
C69	C	0.469532	-0.073769	-0.072135
C70	C	0.719532	0.176231	0.177865
C71	C	0.969532	0.426231	0.427865
C72	C	1.219532	0.676231	0.677865
C73	C	0.574665	-0.115275	0.000066
C74	C	0.824665	0.134725	0.250066
C75	C	1.074665	0.384725	0.500066
C76	C	1.324665	0.634725	0.750066
C77	C	0.469546	-0.073786	0.072261
C78	C	0.719546	0.176214	0.322261
C79	C	0.969546	0.426214	0.572261
C80	C	1.219546	0.676214	0.822261
C81	C	0.409753	-0.112394	0.000081
C82	C	0.659753	0.137606	0.250081
C83	C	0.909753	0.387606	0.500081
C84	C	1.159753	0.637606	0.750081
C85	C	0.514865	-0.153864	-0.072207
C86	C	0.764865	0.096136	0.177793
C87	C	1.014865	0.346136	0.427793
C88	C	1.264865	0.596136	0.677793
C89	C	0.514885	-0.153870	0.072253
C90	C	0.764885	0.096130	0.322253
C91	C	1.014885	0.346130	0.572253
C92	C	1.264885	0.596130	0.822253
C93	C	0.453874	-0.192494	0.000021
C94	C	0.703874	0.057506	0.250021
C95	C	0.953874	0.307506	0.500021
C96	C	1.203874	0.557506	0.750021
C97	C	0.669667	-0.116933	0.000058
C98	C	0.919667	0.133067	0.250058
C99	C	1.169667	0.383067	0.500058
C100	C	1.419667	0.633067	0.750058
C101	C	0.314753	-0.110743	0.000083
C102	C	0.564753	0.139257	0.250083
C103	C	0.814753	0.389257	0.500083
C104	C	1.064753	0.639257	0.750083
C105	C	1.145777	-0.107775	0.000090
C106	C	1.395777	0.142225	0.250090
C107	C	1.645777	0.392225	0.500090
C108	C	1.895777	0.642225	0.750090
C109	C	1.239022	-0.109420	0.000092
C110	C	1.489022	0.140580	0.250092
C111	C	1.739022	0.390580	0.500092
C112	C	1.989022	0.640580	0.750092
N113	N	0.992199	-0.113833	0.228252
N114	N	1.242199	0.136167	0.478252
N115	N	1.492199	0.386167	0.728252
N116	N	1.742199	0.636167	0.978252
C117	C	1.069497	0.352712	0.000082
C118	C	1.319497	0.602712	0.250082
C119	C	1.569497	0.852712	0.500082
C120	C	1.819497	1.102712	0.750082
C121	C	1.067958	0.439433	0.000074
C122	C	1.317958	0.689433	0.250074
C123	C	1.567958	0.939433	0.500074
C124	C	1.817958	1.189433	0.750074
C125	C	0.914909	0.419608	0.000064
C126	C	1.164909	0.669608	0.250064
C127	C	1.414909	0.919608	0.500064
C128	C	1.664909	1.169608	0.750064
C129	C	0.916450	0.332889	0.000065
C130	C	1.166450	0.582889	0.250065
C131	C	1.416450	0.832889	0.500065
C132	C	1.666450	1.082889	0.750065
C133	C	0.993746	0.299444	0.000078
C134	C	1.243746	0.549444	0.250078
C135	C	1.493746	0.799444	0.500078
C136	C	1.743746	1.049444	0.750078
C137	C	0.990666	0.472884	0.000070
C138	C	1.240666	0.722884	0.250070
C139	C	1.490666	0.972884	0.500070
C140	C	1.740666	1.222884	0.750070
C141	C	0.988996	0.566910	0.000062
C142	C	1.238996	0.816910	0.250062
C143	C	1.488996	1.066910	0.500062
C144	C	1.738996	1.316910	0.750062
C145	C	0.995417	0.205411	0.000085
C146	C	1.245417	0.455411	0.250085
C147	C	1.495417	0.705411	0.500085
C148	C	1.745417	0.955411	0.750085
N149	N	0.992220	-0.113833	-0.228097
N150	N	1.242220	0.136167	0.021903
N151	N	1.492220	0.386167	0.271903
N152	N	1.742220	0.636167	0.521903
C153	C	1.049337	-0.057333	0.453984
C154	C	1.299337	0.192667	0.703984
C155	C	1.549337	0.442667	0.953984
C156	C	1.799337	0.692667	1.203984
C157	C	1.049340	-0.057331	0.546174
C158	C	1.299340	0.192669	0.796174
C159	C	1.549340	0.442669	1.046174
C160	C	1.799340	0.692669	1.296174
C161	C	0.935075	-0.170335	0.546165
C162	C	1.185075	0.079665	0.796165
C163	C	1.435075	0.329665	1.046165
C164	C	1.685075	0.579665	1.296165
C165	C	0.935070	-0.170332	0.453977
C166	C	1.185070	0.079668	0.703977
C167	C	1.435070	0.329668	0.953977
C168	C	1.685070	0.579668	1.203977
C169	C	0.992205	-0.113833	0.407889
C170	C	1.242205	0.136167	0.657889
C171	C	1.492205	0.386167	0.907889
C172	C	1.742205	0.636167	1.157889
C173	C	0.992214	-0.113833	0.592267
C174	C	1.242214	0.136167	0.842267
C175	C	1.492214	0.386167	1.092267
C176	C	1.742214	0.636167	1.342267
C177	C	0.992216	-0.113832	0.692223
C178	C	1.242216	0.136168	0.942223
C179	C	1.492216	0.386168	1.192223
C180	C	1.742216	0.636168	1.442223
C181	C	0.992202	-0.113833	0.307927
C182	C	1.242202	0.136167	0.557927
C183	C	1.492202	0.386167	0.807927
C184	C	1.742202	0.636167	1.057927
H185	H	0.563915	0.031251	-0.000005
H186	H	0.813915	0.281251	0.249995
H187	H	1.063915	0.531251	0.499995
H188	H	1.313915	0.781251	0.749995
H189	H	1.095861	-0.011324	0.583703
H190	H	1.345861	0.238676	0.833703
H191	H	1.595861	0.488676	1.083703
H192	H	1.845861	0.738676	1.333703
H193	H	1.095859	-0.011327	0.416462
H194	H	1.345859	0.238673	0.666462
H195	H	1.595859	0.488673	0.916462
H196	H	1.845859	0.738673	1.166462
H197	H	1.129642	0.482802	0.000075
H198	H	1.379642	0.732802	0.250075
H199	H	1.629642	0.982802	0.500075
H200	H	1.879642	1.232802	0.750075
H201	H	0.854760	0.289515	0.000060
H202	H	1.104760	0.539515	0.250060
H203	H	1.354760	0.789515	0.500060
H204	H	1.604760	1.039515	0.750060
H205	H	0.888558	-0.216337	0.583699
H206	H	1.138558	0.033663	0.833699
H207	H	1.388558	0.283663	1.083699
H208	H	1.638558	0.533663	1.333699
H209	H	0.888542	-0.216341	0.416443
H210	H	1.138542	0.033659	0.666443
H211	H	1.388542	0.283659	0.916443
H212	H	1.638542	0.533659	1.166443
H213	H	0.535001	-0.187708	0.133303
H214	H	0.785001	0.062292	0.383303
H215	H	1.035001	0.312292	0.633303
H216	H	1.285001	0.562292	0.883303
H217	H	0.851977	0.446851	0.000055
H218	H	1.101977	0.696851	0.250055
H219	H	1.351977	0.946851	0.500055
H220	H	1.601977	1.196851	0.750055
H221	H	1.132437	0.325484	0.000091
H222	H	1.382437	0.575484	0.250091
H223	H	1.632437	0.825484	0.500091
H224	H	1.882437	1.075484	0.750091
H225	H	0.449437	-0.039902	-0.133182
H226	H	0.699437	0.210098	0.116818
H227	H	0.949437	0.460098	0.366818
H228	H	1.199437	0.710098	0.616818
H229	H	0.534845	-0.187707	-0.133325
H230	H	0.784845	0.062293	0.116675
H231	H	1.034845	0.312293	0.366675
H232	H	1.284845	0.562293	0.616675
H233	H	0.449467	-0.039903	0.133310
H234	H	0.699467	0.210097	0.383310
H235	H	0.949467	0.460097	0.633310
H236	H	1.199467	0.710097	0.883310
H237	H	0.420693	-0.259016	-0.000025
H238	H	0.670693	-0.009016	0.249975
H239	H	0.920693	0.240984	0.499975
H240	H	1.170693	0.490984	0.749975
