data_functionalizedCrystal
_audit_creation_method	'MofGen! by Chris Wilmer'
_symmetry_space_group_name_H-M	'P1'
_symmetry_Int_Tables_number	1
_symmetry_cell_setting	triclinic
loop_
_symmetry_equiv_pos_as_xyz
  x,y,z
_cell_length_a	6.817900
_cell_length_b	15.301126
_cell_length_c	9.514088
_cell_angle_alpha	90.959771
_cell_angle_beta	118.843545
_cell_angle_gamma	104.177575
loop_
_atom_site_label
_atom_site_type_symbol
_atom_site_fract_x
_atom_site_fract_y
_atom_site_fract_z
V1	V	-4.221186	-0.126359	-0.501237
O2	O	-4.201232	0.004427	-0.491194
O3	O	-4.174995	-0.248966	-0.498292
O4	O	-4.255928	-0.125137	-0.719624
O5	O	-4.119739	-0.120260	-0.268330
V6	V	-4.693754	-0.110630	-0.473321
O7	O	-4.506474	-0.160861	-0.562474
O8	O	-4.858663	-0.076128	-0.412084
O9	O	-4.516738	0.011977	-0.476266
O10	O	-4.831105	-0.241416	-0.483365
O11	O	-4.912598	-0.116730	-0.706229
O12	O	-4.435806	-0.111852	-0.254935
C13	C	-4.017843	-0.278833	-0.490510
C14	C	-4.061918	-0.379071	-0.489558
C15	C	-4.267918	-0.430781	-0.497139
C16	C	-4.309325	-0.524966	-0.496254
C17	C	-4.144721	-0.567437	-0.487775
C18	C	-3.938707	-0.515721	-0.480198
C19	C	-3.897310	-0.421539	-0.481095
C20	C	-4.025001	-0.712026	-0.478325
C21	C	-4.066398	-0.806214	-0.477425
C22	C	-4.437016	-0.815453	-0.493484
C23	C	-4.395619	-0.721271	-0.494381
C24	C	-4.189605	-0.669560	-0.486801
C25	C	-4.121079	-0.120875	-0.772838
C26	C	-4.230782	-0.120687	-0.951373
C27	C	-4.337231	0.041839	-0.484044
C28	C	-4.272398	0.142076	-0.485007
C29	C	-4.233993	-0.116117	-0.201712
C30	C	-4.103528	-0.116300	-0.023175
H31	H	-4.401953	-0.396207	-0.504028
N32	N	-4.486273	-0.125456	-1.050861
H33	H	-4.555604	-0.128408	-0.977582
H34	H	-4.571956	-0.181783	-1.136649
H35	H	-3.910658	-0.112696	-0.948065
H36	H	-4.529651	-0.686692	-0.501276
H37	H	-4.604746	-0.857558	-0.499633
H38	H	-4.477069	-0.567065	-0.502430
H39	H	-3.857254	-0.669926	-0.472166
N40	N	-3.888871	-0.852026	-0.468283
H41	H	-3.752089	-0.804980	-0.463630
H42	H	-3.963729	-0.899981	-0.567618
N43	N	-3.761151	-0.561525	-0.471028
H44	H	-3.835778	-0.609479	-0.570340
H45	H	-3.704409	-0.591254	-0.370171
N46	N	-3.675132	-0.365762	-0.472931
H47	H	-3.577135	-0.406957	-0.467423
H48	H	-3.584143	-0.317404	-0.372899
