data_functionalizedCrystal
_audit_creation_method	'MofGen! by Chris Wilmer'
_symmetry_space_group_name_H-M	'P1'
_symmetry_Int_Tables_number	1
_symmetry_cell_setting	triclinic
loop_
_symmetry_equiv_pos_as_xyz
  x,y,z
_cell_length_a	14.971475
_cell_length_b	14.971493
_cell_length_c	13.448316
_cell_angle_alpha	90.005675
_cell_angle_beta	90.005879
_cell_angle_gamma	83.613431
loop_
_atom_site_label
_atom_site_type_symbol
_atom_site_fract_x
_atom_site_fract_y
_atom_site_fract_z
O1	O	-1.186957	-0.116518	-0.082669
O2	O	-0.686957	0.383482	0.417331
O3	O	-0.926555	-0.130487	-0.082676
O4	O	-0.426555	0.369513	0.417324
O5	O	-1.063732	0.006697	-0.082668
O6	O	-0.563732	0.506697	0.417332
O7	O	-1.049780	-0.253702	-0.082677
O8	O	-0.549780	0.246298	0.417323
O9	O	-1.063715	0.006706	0.082716
O10	O	-0.563715	0.506706	0.582716
O11	O	-0.926538	-0.130478	0.082708
O12	O	-0.426538	0.369522	0.582708
O13	O	-1.186939	-0.116510	0.082714
O14	O	-0.686939	0.383490	0.582714
Cu15	Cu	-1.056737	-0.123493	0.097812
Cu16	Cu	-0.556737	0.376507	0.597812
Cu17	Cu	-1.056758	-0.123503	-0.097773
Cu18	Cu	-0.556758	0.376497	0.402227
O19	O	-1.049763	-0.253694	0.082707
O20	O	-0.549763	0.246306	0.582707
C21	C	-0.893222	-0.129860	0.000015
C22	C	-0.393222	0.370140	0.500015
C23	C	-0.793924	-0.127993	0.000013
C24	C	-0.293924	0.372007	0.500013
C25	C	-0.747270	-0.127109	0.090165
C26	C	-0.247270	0.372891	0.590165
C27	C	-0.653971	-0.125341	0.090165
C28	C	-0.153971	0.374659	0.590165
C29	C	-0.607328	-0.124463	0.000013
C30	C	-0.107328	0.375537	0.500013
C31	C	-0.653989	-0.125344	-0.090145
C32	C	-0.153989	0.374656	0.409855
C33	C	-0.747287	-0.127106	-0.090145
C34	C	-0.247287	0.372894	0.409855
C35	C	-0.459526	-0.121674	-0.090140
C36	C	0.040474	0.378326	0.409860
C37	C	-0.366221	-0.119913	-0.090141
C38	C	0.133779	0.380087	0.409859
C39	C	-0.366211	-0.119908	0.090170
C40	C	0.133789	0.380092	0.590170
C41	C	-0.459509	-0.121670	0.090170
C42	C	0.040491	0.378330	0.590170
C43	C	-0.506163	-0.122553	0.000012
C44	C	-0.006163	0.377447	0.500012
C45	C	-1.063098	0.040026	0.000023
C46	C	-0.563098	0.540026	0.500023
C47	C	-1.061225	0.139323	0.000020
C48	C	-0.561225	0.639323	0.500020
C49	C	-0.220272	-0.117143	0.000019
C50	C	0.279728	0.382857	0.500019
C51	C	-0.319567	-0.119029	0.000011
C52	C	0.180433	0.380971	0.500011
C53	C	-1.060356	0.185963	-0.090132
C54	C	-0.560356	0.685963	0.409868
C55	C	-1.058590	0.279262	-0.090131
C56	C	-0.558590	0.779262	0.409869
C57	C	-1.057699	0.325920	0.000021
C58	C	-0.557699	0.825920	0.500021
C59	C	-1.058565	0.279273	0.090179
C60	C	-0.558565	0.779273	0.590179
C61	C	-1.060325	0.185975	0.090178
C62	C	-0.560325	0.685975	0.590178
C63	C	-1.054900	0.473736	0.090175
C64	C	-0.554900	0.973736	0.590175
C65	C	-1.053142	0.567041	0.090177
C66	C	-0.553142	1.067041	0.590177
C67	C	-1.053165	0.567023	-0.090134
C68	C	-0.553165	1.067023	0.409866
C69	C	-1.054925	0.473725	-0.090135
C70	C	-0.554925	0.973725	0.409865
C71	C	-1.055792	0.427085	0.000023
C72	C	-0.555792	0.927085	0.500023
N73	N	-1.056729	-0.123486	0.235376
N74	N	-0.556729	0.376514	0.735376
C75	C	-1.050397	0.712977	0.000018
C76	C	-0.550397	1.212977	0.500018
C77	C	-1.052273	0.613681	0.000026
C78	C	-0.552273	1.113681	0.500026
N79	N	-1.056772	-0.123504	-0.235338
N80	N	-0.556772	0.376496	0.264662
C81	C	-1.117490	-0.062765	0.287420
C82	C	-0.617490	0.437235	0.787420
C83	C	-1.117496	-0.062765	0.391523
C84	C	-0.617496	0.437235	0.891523
C85	C	-1.056744	-0.123489	0.443581
C86	C	-0.556744	0.376511	0.943581
C87	C	-0.995977	-0.184212	0.391530
C88	C	-0.495977	0.315788	0.891530
C89	C	-0.995968	-0.184208	0.287429
C90	C	-0.495968	0.315792	0.787429
C91	C	-0.996002	-0.184218	0.608510
C92	C	-0.496002	0.315782	1.108510
C93	C	-0.996012	-0.184224	0.712619
C94	C	-0.496012	0.315776	1.212619
C95	C	-1.117530	-0.062775	0.712605
C96	C	-0.617530	0.437225	1.212605
C97	C	-1.117520	-0.062771	0.608503
C98	C	-0.617520	0.437229	1.108503
C99	C	-1.056754	-0.123495	0.556460
C100	C	-0.556754	0.376505	1.056460
H101	H	-0.616005	-0.124623	-0.163549
H102	H	-0.116005	0.375377	0.336451
H103	H	-1.057834	0.317269	0.163583
H104	H	-0.557834	0.817269	0.663583
F105	F	-1.182202	0.001851	0.767998
F106	F	-0.682202	0.501851	1.267998
H107	H	-0.785271	-0.127827	-0.163556
H108	H	-0.285271	0.372173	0.336444
H109	H	-1.061020	0.148000	0.163588
H110	H	-0.561020	0.648000	0.663588
F111	F	-0.604321	-0.124412	0.186117
F112	F	-0.104321	0.375588	0.686117
H113	H	-1.055587	0.435762	0.163592
H114	H	-0.555587	0.935762	0.663592
F115	F	-1.182156	0.001863	0.232026
F116	F	-0.682156	0.501863	0.732026
F117	F	-1.182163	0.001861	0.446912
F118	F	-0.682163	0.501861	0.946912
H119	H	-1.166993	-0.013329	0.566118
H120	H	-0.666993	0.486671	1.066118
F121	F	-0.931350	-0.248854	0.768015
F122	F	-0.431350	0.251146	1.268015
H123	H	-0.946516	-0.233664	0.566139
H124	H	-0.446516	0.266336	1.066139
F125	F	-0.931315	-0.248837	0.446934
F126	F	-0.431315	0.251163	0.946934
H127	H	-1.052457	0.605002	-0.163544
H128	H	-0.552457	1.105002	0.336456
F129	F	-1.061310	0.136315	-0.186086
F130	F	-0.561310	0.636315	0.313914
H131	H	-1.055657	0.435739	-0.163545
H132	H	-0.555657	0.935739	0.336455
F133	F	-0.796903	-0.128049	0.186119
F134	F	-0.296903	0.371951	0.686119
F135	F	-0.509147	-0.122614	0.186120
F136	F	-0.009147	0.377386	0.686120
H137	H	-0.946489	-0.233651	0.245056
H138	H	-0.446489	0.266349	0.745056
H139	H	-0.328246	-0.119199	-0.163551
H140	H	0.171754	0.380801	0.336449
F141	F	-0.509177	-0.122610	-0.186098
F142	F	-0.009177	0.377390	0.313902
F143	F	-0.316557	-0.118969	0.186124
F144	F	0.183443	0.381031	0.686124
H145	H	-1.057887	0.317233	-0.163542
H146	H	-0.557887	0.817233	0.336458
H147	H	-1.052409	0.605027	0.163587
H148	H	-0.552409	1.105027	0.663587
