data_functionalizedCrystal
_audit_creation_method	'MofGen! by Chris Wilmer'
_symmetry_space_group_name_H-M	'P1'
_symmetry_Int_Tables_number	1
_symmetry_cell_setting	triclinic
loop_
_symmetry_equiv_pos_as_xyz
  x,y,z
_cell_length_a	21.295418
_cell_length_b	19.077068
_cell_length_c	19.076919
_cell_angle_alpha	94.470751
_cell_angle_beta	92.261150
_cell_angle_gamma	92.343619
loop_
_atom_site_label
_atom_site_type_symbol
_atom_site_fract_x
_atom_site_fract_y
_atom_site_fract_z
Zn1	Zn	0.936930	-0.296407	-0.410191
Zn2	Zn	0.936852	-0.409561	-0.297035
Zn3	Zn	0.836073	-0.291721	-0.292284
Zn4	Zn	0.827225	-0.414290	-0.414839
O5	O	0.884270	-0.352995	-0.353587
O6	O	1.025008	-0.311399	-0.395223
O7	O	0.927154	-0.389989	-0.197759
O8	O	0.853187	-0.193692	-0.303991
O9	O	1.024951	-0.394533	-0.312089
O10	O	0.927287	-0.197135	-0.390616
O11	O	0.853112	-0.303413	-0.194268
O12	O	0.746811	-0.307998	-0.308498
O13	O	0.838108	-0.402592	-0.512868
O14	O	0.740311	-0.398049	-0.398538
O15	O	0.918708	-0.315985	-0.509453
O16	O	0.918575	-0.508838	-0.316596
O17	O	0.838032	-0.512313	-0.403146
C18	C	0.877352	-0.536155	-0.360906
C19	C	0.874449	-0.614513	-0.364061
C20	C	0.720720	-0.353028	-0.353507
C21	C	0.650752	-0.353061	-0.353491
C22	C	0.915049	-0.649495	-0.320518
C23	C	0.912322	-0.723120	-0.323490
C24	C	0.868991	-0.761763	-0.370000
C25	C	0.828389	-0.726776	-0.413548
C26	C	0.831120	-0.653152	-0.410579
C27	C	0.856328	-0.982152	-0.383709
C28	C	0.853599	-1.055781	-0.386673
C29	C	0.937533	-1.052121	-0.296615
C30	C	0.940257	-0.978495	-0.293648
C31	C	0.899657	-0.943515	-0.337198
N32	N	0.866201	-0.837020	-0.373037
N33	N	0.902451	-0.868259	-0.334164
C34	C	0.614517	-0.400007	-0.400310
C35	C	0.548774	-0.399991	-0.400341
C36	C	0.519268	-0.353035	-0.353540
C37	C	0.555511	-0.306080	-0.306718
C38	C	0.621253	-0.306093	-0.306693
N39	N	0.418510	-0.345050	-0.291663
N40	N	0.356058	-0.345042	-0.291689
C41	C	0.321192	-0.352993	-0.353613
N42	N	0.351138	-0.360967	-0.415513
N43	N	0.413596	-0.360978	-0.415487
C44	C	0.447983	-0.353016	-0.353562
C45	C	0.213672	-0.399925	-0.400470
C46	C	0.147927	-0.399904	-0.400502
C47	C	0.154666	-0.305997	-0.306873
C48	C	0.220409	-0.306014	-0.306847
C49	C	0.249907	-0.352982	-0.353645
C50	C	1.048459	-0.352961	-0.353667
C51	C	1.118426	-0.352947	-0.353702
C52	C	0.877430	-0.360339	-0.537453
C53	C	0.874514	-0.363469	-0.615806
C54	C	0.891232	-0.169120	-0.346255
C55	C	0.894199	-0.090763	-0.343130
C56	C	0.915107	-0.319849	-0.650840
C57	C	0.912360	-0.322787	-0.724460
C58	C	0.869024	-0.369349	-0.763046
C59	C	0.828427	-0.412970	-0.728008
C60	C	0.831171	-0.410028	-0.654388
C61	C	0.856314	-0.382979	-0.983416
C62	C	0.853575	-0.385919	-1.057040
C63	C	0.937507	-0.295735	-1.053488
C64	C	0.940250	-0.292800	-0.979867
C65	C	0.899651	-0.336419	-0.944835
N66	N	0.866217	-0.372354	-0.838299
N67	N	0.902456	-0.333409	-0.869584
C68	C	0.891122	-0.345628	-0.170434
C69	C	0.894167	-0.342300	-0.092074
H70	H	0.950330	-0.618036	-0.282641
H71	H	0.970588	-1.080610	-0.261161
H72	H	0.950398	-0.281936	-0.619428
H73	H	0.823269	-0.953677	-0.419168
C74	C	0.811645	-0.430943	-0.944889
H75	H	0.785444	-0.459094	-0.978415
H76	H	0.786313	-0.402819	-0.915089
H77	H	0.835619	-0.460517	-0.917398
C78	C	0.780725	-0.769280	-0.464707
H79	H	0.784908	-0.818139	-0.460233
H80	H	0.788587	-0.759077	-0.511596
H81	H	0.739268	-0.756853	-0.453840
C82	C	0.508905	-0.451635	-0.451840
H83	H	0.465527	-0.444897	-0.445154
H84	H	0.518249	-0.498571	-0.443331
H85	H	0.518338	-0.443287	-0.498812
H86	H	0.118426	-0.438132	-0.438632
C87	C	0.646965	-0.451681	-0.451771
H88	H	0.691309	-0.444975	-0.445043
H89	H	0.634860	-0.443349	-0.498753
H90	H	0.634754	-0.498609	-0.443248
H91	H	0.798060	-0.624670	-0.446037
C92	C	0.260269	-0.254381	-0.255336
H93	H	0.233282	-0.226417	-0.227463
H94	H	0.286103	-0.224790	-0.281113
H95	H	0.286005	-0.280084	-0.225642
C96	C	0.786521	-0.458008	-0.615848
H97	H	0.794357	-0.449583	-0.566477
H98	H	0.793487	-0.505855	-0.629804
H99	H	0.744166	-0.448174	-0.627479
C100	C	0.523058	-0.254431	-0.255238
H101	H	0.478714	-0.261151	-0.261954
H102	H	0.535260	-0.207498	-0.263737
H103	H	0.535171	-0.262787	-0.208261
C104	C	0.805899	-0.437133	-1.099487
H105	H	0.810086	-0.432641	-1.148349
H106	H	0.764446	-0.426338	-1.086990
H107	H	0.813766	-0.484019	-1.089316
H108	H	0.130643	-0.267761	-0.268770
H109	H	0.818321	-1.087243	-0.424560
C110	C	0.957025	-0.274824	-0.762998
H111	H	0.949185	-0.283242	-0.812369
H112	H	0.999373	-0.284668	-0.751362
H113	H	0.950068	-0.226970	-0.749045
H114	H	0.945382	-0.751599	-0.288032
C115	C	0.661112	-0.254453	-0.255186
H116	H	0.634127	-0.226487	-0.227314
H117	H	0.686947	-0.224866	-0.280965
H118	H	0.686849	-0.280155	-0.225490
H119	H	0.970560	-0.260222	-1.082019
C120	C	0.246123	-0.451579	-0.451951
H121	H	0.215125	-0.479529	-0.479848
H122	H	0.271582	-0.481181	-0.426153
H123	H	0.271675	-0.425887	-0.481625
H124	H	0.975541	-0.254887	-0.948455
C125	C	0.987924	-0.935994	-0.242491
H126	H	1.011718	-0.967373	-0.216988
H127	H	0.966076	-0.906086	-0.210587
H128	H	1.015396	-0.908309	-0.268343
C129	C	0.780759	-0.464187	-0.770450
H130	H	0.784942	-0.459698	-0.819314
H131	H	0.739304	-0.453398	-0.757952
H132	H	0.788632	-0.511071	-0.760276
