data_functionalizedCrystal
_audit_creation_method	'MofGen! by Chris Wilmer'
_symmetry_space_group_name_H-M	'P1'
_symmetry_Int_Tables_number	1
_symmetry_cell_setting	triclinic
loop_
_symmetry_equiv_pos_as_xyz
  x,y,z
_cell_length_a	10.685980
_cell_length_b	14.909042
_cell_length_c	10.686551
_cell_angle_alpha	97.938673
_cell_angle_beta	98.408259
_cell_angle_gamma	90.836958
loop_
_atom_site_label
_atom_site_type_symbol
_atom_site_fract_x
_atom_site_fract_y
_atom_site_fract_z
Zn1	Zn	2.010934	-0.202206	0.851556
Zn2	Zn	2.006753	-0.365638	0.627049
Zn3	Zn	1.784242	-0.227315	0.621139
Zn4	Zn	1.810870	-0.365551	0.822966
O5	O	1.903200	-0.290177	0.730677
O6	O	2.187229	-0.213414	0.836213
O7	O	1.964343	-0.357834	0.447843
O8	O	1.804919	-0.097735	0.661196
O9	O	2.184157	-0.333487	0.671268
O10	O	1.971468	-0.079288	0.830482
O11	O	1.800865	-0.256209	0.443501
O12	O	1.610925	-0.256124	0.633474
O13	O	1.850303	-0.333338	1.005180
O14	O	1.630489	-0.357685	0.781755
O15	O	1.997289	-0.213329	1.026185
O16	O	1.990163	-0.491876	0.643546
O17	O	1.846249	-0.491811	0.787485
C18	C	1.574852	-0.309620	0.703871
C19	C	1.434387	-0.317957	0.692432
C20	C	1.920678	-0.524575	0.713085
C21	C	1.928274	-0.624842	0.705611
C22	C	1.792524	-0.813268	0.841296
C23	C	1.799658	-0.907478	0.834278
C24	C	1.949667	-0.907473	0.684549
C25	C	1.942533	-0.813263	0.691568
C26	C	1.863961	-0.766164	0.769945
C27	C	1.856835	-0.671952	0.776970
C28	C	2.006837	-0.671949	0.627235
C29	C	2.013970	-0.766159	0.620217
C30	C	2.232830	-0.270660	0.757589
C31	C	2.373299	-0.262342	0.769057
C32	C	1.927233	-0.270523	1.063239
C33	C	1.937474	-0.262147	1.204957
C34	C	1.885690	-0.054861	0.748369
C35	C	1.878228	0.045417	0.755908
C36	C	1.879328	-0.309686	0.399420
C37	C	1.869313	-0.317793	0.257742
H38	H	1.792861	-0.633605	0.840792
C39	C	1.990619	-0.103321	1.262696
C40	C	2.026841	-0.189175	1.290304
H41	H	2.045795	-0.058274	1.315380
H42	H	1.906292	-0.093880	1.278529
H43	H	1.995225	-0.099581	1.175456
H44	H	2.022225	-0.192918	1.377542
H45	H	2.111189	-0.198619	1.274481
H46	H	1.728557	-0.774919	0.905124
H47	H	2.013624	-0.945838	0.620725
C48	C	1.802369	-1.004299	0.996431
C49	C	1.721139	-0.959258	0.912713
H50	H	1.753889	-1.036269	1.044848
H51	H	1.858117	-0.961353	1.052478
H52	H	1.850176	-1.045831	0.948737
H53	H	1.673339	-0.917720	0.960407
H54	H	1.665370	-1.002208	0.856658
C55	C	2.091485	-0.910577	0.542946
C56	C	2.100317	-0.817937	0.534050
H57	H	2.144796	-0.942539	0.489750
H58	H	2.006413	-0.932196	0.516136
H59	H	2.117280	-0.919823	0.628985
H60	H	2.074513	-0.808691	0.448012
H61	H	2.185407	-0.796312	0.560853
H62	H	1.428457	-0.208344	0.843408
C63	C	2.062512	-0.527533	0.571501
C64	C	2.085362	-0.620171	0.548793
H65	H	2.110986	-0.495569	0.523071
H66	H	2.085958	-0.505909	0.659831
H67	H	1.975094	-0.518295	0.546979
H68	H	2.172778	-0.629409	0.573324
H69	H	2.061924	-0.641802	0.460444
H70	H	1.803126	-0.371844	1.194515
H71	H	1.379221	-0.371954	0.618068
