data_functionalizedCrystal
_audit_creation_method	'MofGen! by Chris Wilmer'
_symmetry_space_group_name_H-M	'P1'
_symmetry_Int_Tables_number	1
_symmetry_cell_setting	triclinic
loop_
_symmetry_equiv_pos_as_xyz
  x,y,z
_cell_length_a	19.188933
_cell_length_b	19.188924
_cell_length_c	14.586319
_cell_angle_alpha	89.994146
_cell_angle_beta	89.997913
_cell_angle_gamma	83.143767
loop_
_atom_site_label
_atom_site_type_symbol
_atom_site_fract_x
_atom_site_fract_y
_atom_site_fract_z
O1	O	0.926141	0.087173	-0.076214
O2	O	0.722829	0.098906	-0.076223
O3	O	0.830355	-0.008616	-0.076207
O4	O	0.818616	0.194696	-0.076230
O5	O	0.830347	-0.008618	0.076273
O6	O	0.722822	0.098905	0.076258
O7	O	0.926133	0.087172	0.076267
Cu8	Cu	0.824477	0.093038	0.090185
Cu9	Cu	0.824486	0.093040	-0.090141
O10	O	0.818608	0.194694	0.076251
C11	C	0.696815	0.098525	0.000016
C12	C	0.619310	0.097384	0.000013
C13	C	0.829972	-0.034628	0.000034
C14	C	0.828833	-0.112133	0.000036
C15	C	0.066059	0.089240	-0.083093
C16	C	0.138883	0.090308	-0.083097
C17	C	0.175296	0.090844	0.000020
C18	C	0.138881	0.090295	0.083147
C19	C	0.066060	0.089219	0.083148
N20	N	0.284312	0.132262	0.061883
N21	N	0.353490	0.133285	0.061876
C22	C	0.394705	0.094082	0.000021
N23	N	0.364128	0.053827	-0.061841
N24	N	0.294944	0.052807	-0.061837
C25	C	0.254260	0.092010	0.000028
C26	C	0.510076	0.095785	-0.083104
C27	C	0.582902	0.096849	-0.083105
C28	C	0.582898	0.096843	0.083142
C29	C	0.510074	0.095772	0.083139
C30	C	0.473667	0.095246	0.000014
C31	C	0.828306	-0.148531	-0.083081
C32	C	0.827226	-0.221353	-0.083088
C33	C	0.826687	-0.257777	0.000027
C34	C	0.827211	-0.221370	0.083155
C35	C	0.828284	-0.148548	0.083160
N36	N	0.864732	-0.377441	0.061889
N37	N	0.863714	-0.446619	0.061879
C38	C	0.823453	-0.477186	0.000018
N39	N	0.784257	-0.435963	-0.061847
N40	N	0.785278	-0.366779	-0.061840
C41	C	0.825523	-0.336741	0.000031
C42	C	0.821754	-0.592547	-0.083113
C43	C	0.820669	-0.665370	-0.083116
C44	C	0.820662	-0.665386	0.083130
C45	C	0.821739	-0.592563	0.083131
C46	C	0.822288	-0.556149	0.000007
C47	C	0.952148	0.087553	0.000025
C48	C	1.029653	0.088694	0.000023
C49	C	0.818991	0.220706	0.000008
C50	C	0.820130	0.298211	-0.000000
N51	N	0.824476	0.093036	0.217017
N52	N	0.824492	0.093036	-0.216973
C53	C	0.872104	0.045441	0.452030
C54	C	0.872106	0.045440	0.548011
C55	C	0.776860	0.140634	0.548007
C56	C	0.776855	0.140631	0.452027
C57	C	0.824481	0.093036	0.404042
C58	C	0.824488	0.093037	0.596002
C59	C	0.824489	0.093035	0.700069
C60	C	0.824478	0.093036	0.299968
H61	H	0.036421	0.088809	-0.150781
H62	H	0.738071	0.179389	0.412953
H63	H	0.612544	0.097288	-0.150790
H64	H	0.820218	-0.695041	0.150804
H65	H	0.036417	0.088778	0.150833
H66	H	0.168531	0.090756	-0.150782
N67	N	0.820153	-0.702551	-0.168028
N68	N	0.868767	-0.749768	-0.186562
H69	H	0.868407	-0.776027	-0.246534
H70	H	0.822197	-0.562896	-0.150797
H71	H	0.826770	-0.251030	0.150828
N72	N	0.920753	-0.003185	0.597016
N73	N	0.963267	-0.045678	0.554156
H74	H	0.997626	-0.080023	0.588765
N75	N	0.728217	0.189243	0.597039
N76	N	0.728228	0.189240	0.682735
H77	H	0.693874	0.223572	0.717364
N78	N	0.828868	-0.111326	-0.167980
N79	N	0.878673	-0.077276	-0.186519
H80	H	0.879071	-0.050998	-0.246480
H81	H	0.168534	0.090730	0.150821
H82	H	0.910883	0.006685	0.412962
N83	N	0.472893	0.095244	-0.168018
N84	N	0.505413	0.095722	-0.242226
H85	H	0.479156	0.095339	-0.302198
N86	N	0.620096	0.097382	0.168037
N87	N	0.685115	0.098337	0.168026
H88	H	0.711390	0.098715	0.227986
N89	N	0.472893	0.095232	0.168052
N90	N	0.474442	0.144557	0.223700
H91	H	0.448185	0.144175	0.283675
N92	N	0.826684	-0.258532	-0.168003
N93	N	0.827172	-0.226010	-0.242211
H94	H	0.826790	-0.252266	-0.302183
H95	H	0.822174	-0.562929	0.150814
N96	N	0.828819	-0.111374	0.168075
N97	N	0.828331	-0.143899	0.242281
H98	H	0.828710	-0.117645	0.302255
