data_functionalizedCrystal
_audit_creation_method	'MofGen! by Chris Wilmer'
_symmetry_space_group_name_H-M	'P1'
_symmetry_Int_Tables_number	1
_symmetry_cell_setting	triclinic
loop_
_symmetry_equiv_pos_as_xyz
  x,y,z
_cell_length_a	13.032831
_cell_length_b	15.299816
_cell_length_c	13.032268
_cell_angle_alpha	72.095154
_cell_angle_beta	89.113023
_cell_angle_gamma	74.594753
loop_
_atom_site_label
_atom_site_type_symbol
_atom_site_fract_x
_atom_site_fract_y
_atom_site_fract_z
Zn1	Zn	1.608034	-0.636635	0.922463
Zn2	Zn	1.653946	-0.777088	0.781728
Zn3	Zn	1.451116	-0.597255	0.719943
Zn4	Zn	1.459317	-0.771991	0.930720
O5	O	1.543103	-0.695742	0.838713
O6	O	1.761248	-0.673880	0.926196
O7	O	1.642822	-0.738885	0.626424
O8	O	1.449285	-0.470571	0.717495
O9	O	1.794979	-0.777070	0.822799
O10	O	1.564572	-0.499503	0.866285
O11	O	1.493804	-0.606762	0.581030
O12	O	1.305080	-0.601820	0.725501
O13	O	1.463263	-0.768383	1.076733
O14	O	1.311105	-0.730198	0.880358
O15	O	1.572524	-0.668938	1.070667
O16	O	1.650775	-0.908319	0.830805
O17	O	1.507782	-0.904574	0.940269
C18	C	1.269945	-0.661183	0.797122
C19	C	1.153088	-0.646424	0.779359
C20	C	1.104024	-0.703445	0.847984
C21	C	0.983247	-0.688192	0.829627
C22	C	1.585176	-0.940655	0.893165
C23	C	1.603268	-1.045445	0.916509
C24	C	1.414452	-1.280894	0.672331
C25	C	1.397449	-1.182438	0.650399
C26	C	1.448902	-1.148185	0.716925
C27	C	1.517362	-1.212398	0.805385
C28	C	1.534360	-1.310863	0.827324
C29	C	1.568810	-1.178154	0.871918
C30	C	1.637270	-1.242367	0.960379
C31	C	1.654266	-1.340822	0.982313
C32	C	1.602812	-1.375076	0.915787
C33	C	1.551812	-1.079688	0.849979
C34	C	1.671720	-1.109657	1.004972
C35	C	1.688723	-1.208113	1.026904
C36	C	1.817328	-0.730436	0.880468
C37	C	1.934186	-0.745221	0.898262
C38	C	1.513687	-0.722485	1.112910
C39	C	1.501151	-0.733881	1.229756
C40	C	1.500892	-0.449879	0.784077
C41	C	1.482904	-0.345106	0.760794
C42	C	1.572454	-0.669043	0.565578
C43	C	1.585147	-0.657407	0.448704
C44	C	1.549623	-0.689758	1.278848
C45	C	1.536669	-0.701536	1.399615
H46	H	0.981590	-0.805331	0.970615
H47	H	1.151434	-0.763552	0.920330
C48	C	1.089044	-0.565215	0.681624
N49	N	1.040807	-0.504047	0.608007
C50	C	1.432126	-0.796690	1.293755
N51	N	1.380134	-0.844000	1.341957
H52	H	1.636234	-0.610903	1.401330
H53	H	1.744463	-1.260409	1.098930
C54	C	1.618641	-0.626942	1.214848
N55	N	1.670627	-0.579627	1.166643
H56	H	0.935839	-0.628074	0.757282
C57	C	1.476508	-1.009065	0.752674
N58	N	1.419786	-0.955872	0.679376
C59	C	1.728325	-1.071984	1.078153
N60	N	1.770955	-1.043601	1.133269
H61	H	1.341709	-1.130160	0.578376
C62	C	1.357943	-1.318583	0.599102
N63	N	1.315407	-1.346971	0.543918
C64	C	1.621512	-1.483383	0.939908
N65	N	1.635594	-1.564961	0.958073
H66	H	1.435055	-1.068017	0.699062
C67	C	1.729574	-1.411454	1.079621
N68	N	1.786301	-1.464653	1.152912
H69	H	1.485568	-0.748026	1.446986
