data_functionalizedCrystal
_audit_creation_method	'MofGen! by Chris Wilmer'
_symmetry_space_group_name_H-M	'P1'
_symmetry_Int_Tables_number	1
_symmetry_cell_setting	triclinic
loop_
_symmetry_equiv_pos_as_xyz
  x,y,z
_cell_length_a	17.019282
_cell_length_b	19.188925
_cell_length_c	16.098538
_cell_angle_alpha	92.713859
_cell_angle_beta	91.140572
_cell_angle_gamma	83.266030
loop_
_atom_site_label
_atom_site_type_symbol
_atom_site_fract_x
_atom_site_fract_y
_atom_site_fract_z
O1	O	1.046076	0.089163	0.005794
O2	O	0.817211	0.099776	-0.010627
O3	O	0.938250	-0.007153	-0.001938
O4	O	0.925037	0.196093	-0.002895
O5	O	0.931179	-0.000932	0.136067
O6	O	0.810141	0.105998	0.127378
O7	O	1.039005	0.095385	0.143799
Zn8	Zn	0.923450	0.101680	0.157500
Zn9	Zn	0.932766	0.093482	-0.024328
O10	O	0.917966	0.202315	0.135110
C11	C	0.784396	0.102364	0.056275
C12	C	0.697150	0.100796	0.050015
C13	C	0.652312	0.103449	0.122302
C14	C	0.570337	0.101964	0.116423
C15	C	0.533201	0.097831	0.038255
C16	C	0.578045	0.095176	-0.034038
C17	C	0.660019	0.096656	-0.028158
C18	C	0.285885	0.093190	0.016737
C19	C	0.203904	0.091713	0.010862
C20	C	0.196203	0.098499	0.161324
C21	C	0.278178	0.099983	0.167197
C22	C	0.323016	0.097324	0.094904
C23	C	0.449409	0.096316	0.032243
C24	C	0.406807	0.098834	0.100917
C25	C	0.934287	-0.030056	0.067033
C26	C	0.933005	-0.107567	0.066940
C27	C	0.995441	-0.669032	0.071399
C28	C	0.996653	-0.596203	0.071493
C29	C	0.925631	-0.551616	0.066397
C30	C	0.853391	-0.579864	0.061227
C31	C	0.852181	-0.652691	0.061141
N32	N	0.876621	-0.433305	0.015734
N33	N	0.877775	-0.364122	0.015815
C34	C	0.929271	-0.332189	0.066658
N35	N	0.979583	-0.372054	0.117408
N36	N	0.978431	-0.441244	0.117324
C37	C	0.926935	-0.472646	0.066490
C38	C	1.002820	-0.224980	0.071935
C39	C	1.004028	-0.152148	0.072035
C40	C	0.860765	-0.135811	0.061760
C41	C	0.859558	-0.208641	0.061669
C42	C	0.930588	-0.253221	0.066753
C43	C	1.071821	0.092798	0.076896
C44	C	1.159067	0.094366	0.083150
C45	C	0.921929	0.225217	0.066137
C46	C	0.923211	0.302728	0.066225
N47	N	0.917098	0.107274	0.281593
N48	N	0.939124	0.087882	-0.148421
C49	C	0.968491	0.061905	0.328868
C50	C	0.964055	0.065825	0.415738
C51	C	0.908229	0.115117	0.455333
C52	C	0.856831	0.160489	0.408052
C53	C	0.861264	0.156565	0.321183
C54	C	0.892159	0.129330	0.717429
C55	C	0.887732	0.133252	0.804305
C56	C	0.994954	0.038586	0.811985
C57	C	0.999386	0.034670	0.725114
C58	C	0.947985	0.080038	0.677841
C59	C	0.903695	0.119127	0.544128
C60	C	0.952516	0.076025	0.589046
H61	H	0.159688	0.100663	0.220181
H62	H	1.062848	-0.129158	0.076253
H63	H	0.173670	0.088349	-0.052795
H64	H	0.802937	-0.099509	0.057618
H65	H	1.044843	-0.005469	0.692878
H66	H	0.850308	0.166272	0.678946
C67	C	1.080947	-0.274020	0.077538
H68	H	1.124139	-0.246767	0.080645
H69	H	1.085919	-0.304937	0.029591
H70	H	1.080986	-0.300602	0.125848
C71	C	0.709344	0.093739	-0.107672
H72	H	0.763484	0.095205	-0.092975
H73	H	0.691357	0.132777	-0.139991
H74	H	0.703629	0.051420	-0.139100
C75	C	0.335194	0.090273	-0.062782
H76	H	0.301333	0.087608	-0.110176
H77	H	0.373470	0.050033	-0.063179
H78	H	0.361193	0.131390	-0.064058
H79	H	0.811373	0.200622	0.440294
H80	H	0.997966	0.035888	0.556806
H81	H	0.437047	0.102195	0.164561
H82	H	0.419163	0.092951	-0.031401
H83	H	0.547802	0.091806	-0.097684
H84	H	0.795565	-0.543556	0.057080
H85	H	1.053279	-0.705325	0.075543
H86	H	1.005902	0.028881	0.454229
C87	C	0.772726	-0.683757	0.055440
H88	H	0.730599	-0.646775	0.052414
H89	H	0.766811	-0.709664	0.103315
H90	H	0.771744	-0.713992	0.007058
H91	H	1.055473	-0.573205	0.075706
C92	C	0.780105	-0.239707	0.055965
H93	H	0.737979	-0.202725	0.052937
H94	H	0.774189	-0.265611	0.103842
H95	H	0.779122	-0.269944	0.007585
C96	C	0.842263	0.173325	0.587680
H97	H	0.812277	0.199777	0.547086
H98	H	0.868675	0.204003	0.623595
H99	H	0.807918	0.149616	0.619220
H100	H	1.013953	0.021768	0.296636
C101	C	1.051482	-0.011321	0.863986
H102	H	1.040845	-0.001931	0.921393
H103	H	1.104636	-0.004244	0.853498
H104	H	1.043828	-0.058586	0.849157
C105	C	0.826279	0.187439	0.847854
H106	H	0.796285	0.213882	0.807258
H107	H	0.852678	0.218126	0.883769
H108	H	0.791943	0.163721	0.879394
H109	H	0.819414	0.193508	0.282692
H110	H	0.533836	0.104113	0.175288
C111	C	0.693159	0.107996	0.208286
H112	H	0.748401	0.108504	0.201437
H113	H	0.684279	0.068471	0.238676
H114	H	0.672002	0.149828	0.237788
C115	C	0.319020	0.104546	0.253182
H116	H	0.280575	0.105914	0.295393
H117	H	0.344693	0.145945	0.258144
H118	H	0.356982	0.064589	0.259060
