data_functionalizedCrystal
_audit_creation_method	'MofGen! by Chris Wilmer'
_symmetry_space_group_name_H-M	'P1'
_symmetry_Int_Tables_number	1
_symmetry_cell_setting	triclinic
loop_
_symmetry_equiv_pos_as_xyz
  x,y,z
_cell_length_a	25.639239
_cell_length_b	18.215407
_cell_length_c	18.215398
_cell_angle_alpha	89.980536
_cell_angle_beta	89.972491
_cell_angle_gamma	90.039134
loop_
_atom_site_label
_atom_site_type_symbol
_atom_site_fract_x
_atom_site_fract_y
_atom_site_fract_z
Zn1	Zn	-0.208163	1.124999	-0.416105
Zn2	Zn	-0.295595	1.124878	-0.293034
Zn3	Zn	-0.208176	1.001932	-0.293053
Zn4	Zn	-0.295570	1.001867	-0.416059
O5	O	-0.251876	1.063419	-0.354563
O6	O	-0.219766	1.227967	-0.399791
O7	O	-0.284015	1.108546	-0.190052
O8	O	-0.135009	1.018335	-0.309403
O9	O	-0.284002	1.227878	-0.309372
O10	O	-0.134999	1.108751	-0.399809
O11	O	-0.219789	1.018218	-0.190066
O12	O	-0.219764	0.898939	-0.309358
O13	O	-0.283959	1.018225	-0.519050
O14	O	-0.283972	0.898892	-0.399731
O15	O	-0.219742	1.108688	-0.519083
O16	O	-0.368757	1.108483	-0.309327
O17	O	-0.368738	1.018108	-0.399713
C18	C	-0.251867	0.872213	-0.354542
C19	C	-0.251876	0.790414	-0.354550
C20	C	-0.285361	0.602215	-0.401548
C21	C	-0.285363	0.525356	-0.401557
C22	C	-0.218400	0.525376	-0.307594
C23	C	-0.218396	0.602233	-0.307589
C24	C	-0.251880	0.640650	-0.354565
C25	C	-0.251885	0.486934	-0.354579
C26	C	-0.251887	0.403601	-0.354589
C27	C	-0.251878	0.723989	-0.354556
C28	C	-0.387719	1.063295	-0.354529
C29	C	-0.445833	1.063310	-0.354539
C30	C	-0.806193	1.110600	-0.307579
C31	C	-0.860797	1.110629	-0.307589
O32	O	-0.889031	1.150709	-0.267625
N33	N	-0.888115	1.063548	-0.354612
C34	C	-0.860826	1.016442	-0.401633
O35	O	-0.889076	0.976399	-0.441631
C36	C	-0.806223	1.016417	-0.401626
C37	C	-0.778907	1.063496	-0.354595
C38	C	-0.778878	1.157675	-0.260553
C39	C	-0.724277	1.157646	-0.260542
C40	C	-0.696992	1.110541	-0.307558
C41	C	-0.724307	1.063466	-0.354584
C42	C	-0.778934	0.969315	-0.448650
C43	C	-0.724327	0.969295	-0.448640
C44	C	-0.697012	1.016373	-0.401609
C45	C	-0.642421	1.016332	-0.401590
N46	N	-0.615103	1.063412	-0.354567
C47	C	-0.642388	1.110517	-0.307551
C48	C	-0.975497	1.016497	-0.401644
C49	C	-1.030099	1.016517	-0.401648
C50	C	-1.030066	1.110706	-0.307605
C51	C	-0.975463	1.110681	-0.307598
C52	C	-0.948179	1.063578	-0.354621
C53	C	-0.527723	1.110450	-0.307532
C54	C	-0.473118	1.110414	-0.307523
C55	C	-0.473155	1.016229	-0.401569
C56	C	-0.527756	1.016262	-0.401575
C57	C	-0.555039	1.063379	-0.354554
O58	O	-0.614152	0.976274	-0.441536
O59	O	-0.614132	1.150559	-0.267567
C60	C	-0.115503	1.063563	-0.354613
C61	C	-0.057389	1.063625	-0.354634
C62	C	-0.251846	1.063463	-0.546516
C63	C	-0.251833	1.063481	-0.628315
C64	C	-0.251885	1.255372	-0.354584
C65	C	-0.251889	1.337171	-0.354594
C66	C	-0.285211	1.110549	-0.893370
C67	C	-0.285229	1.110538	-0.816511
C68	C	-0.218354	1.016469	-0.816508
C69	C	-0.218339	1.016478	-0.893366
C70	C	-0.251767	1.063521	-0.931795
C71	C	-0.251800	1.063502	-0.778078
C72	C	-0.251820	1.063490	-0.694745
C73	C	-0.251748	1.063533	-1.015134
C74	C	-0.251868	1.063418	-0.163357
C75	C	-0.251734	1.063542	-0.081558
H76	H	-0.191128	0.633528	-0.269329
H77	H	-0.191138	0.978169	-0.785210
H78	H	-0.450931	0.977875	-0.439847
H79	H	-0.312626	0.494065	-0.439817
H80	H	-0.191140	0.494087	-0.269346
H81	H	-0.312431	1.148854	-0.924656
O82	O	-1.056687	0.970882	-0.447365
C83	C	-1.088208	1.012768	-0.494959
H84	H	-1.096363	1.068558	-0.469057
H85	H	-1.126621	0.982802	-0.504808
H86	H	-1.067130	1.020814	-0.549497
O87	O	-0.697806	1.203350	-0.214760
C88	C	-0.711184	1.187309	-0.141398
H89	H	-0.750847	1.159028	-0.139855
H90	H	-0.713038	1.240446	-0.108456
H91	H	-0.680487	1.149485	-0.116562
H92	H	-0.312625	0.633492	-0.439801
O93	O	-0.446665	1.156219	-0.261813
C94	C	-0.482462	1.197788	-0.220308
H95	H	-0.521369	1.200337	-0.250465
H96	H	-0.466647	1.255769	-0.212507
H97	H	-0.488315	1.170874	-0.164392
H98	H	-0.549930	1.148819	-0.269245
O99	O	-0.185826	0.970893	-0.930780
C100	C	-0.152040	1.012826	-0.975248
H101	H	-0.170475	1.068584	-0.986764
H102	H	-0.145031	0.982863	-1.029292
H103	H	-0.113296	1.020939	-0.945648
H104	H	-0.801087	1.196038	-0.222266
O105	O	-0.317733	1.156291	-0.779300
C106	C	-0.347242	1.197797	-0.829702
H107	H	-0.325813	1.200372	-0.884494
H108	H	-0.352823	1.255773	-0.807507
H109	H	-0.386949	1.170812	-0.837862
O110	O	-0.805485	0.923511	-0.494237
C111	C	-0.837135	0.876019	-0.452318
H112	H	-0.820715	0.871488	-0.394346
H113	H	-0.837780	0.819374	-0.478895
H114	H	-0.878504	0.898791	-0.449816
H115	H	-0.953226	1.149017	-0.269302
H116	H	-1.052292	1.149063	-0.269324
H117	H	-0.702115	0.930938	-0.486935
O118	O	-0.949075	0.970661	-0.447343
C119	C	-0.984901	0.929130	-0.488856
H120	H	-1.023836	0.926625	-0.458709
H121	H	-0.969168	0.871132	-0.496651
H122	H	-0.990668	0.956049	-0.544774
H123	H	-0.549997	0.977929	-0.439874
