data_functionalizedCrystal
_audit_creation_method	'MofGen! by Chris Wilmer'
_symmetry_space_group_name_H-M	'P1'
_symmetry_Int_Tables_number	1
_symmetry_cell_setting	triclinic
loop_
_symmetry_equiv_pos_as_xyz
  x,y,z
_cell_length_a	6.817900
_cell_length_b	19.551786
_cell_length_c	16.305550
_cell_angle_alpha	95.887605
_cell_angle_beta	103.455250
_cell_angle_gamma	101.662645
loop_
_atom_site_label
_atom_site_type_symbol
_atom_site_fract_x
_atom_site_fract_y
_atom_site_fract_z
V1	V	-4.017275	-0.097265	-0.263425
O2	O	-4.014216	0.004067	-0.258008
O3	O	-3.959964	-0.192277	-0.262011
O4	O	-3.968795	-0.096035	-0.378137
O5	O	-4.005324	-0.092841	-0.141078
V6	V	-4.502068	-0.085113	-0.248745
O7	O	-4.275748	-0.123921	-0.295629
O8	O	-4.693793	-0.058457	-0.216541
O9	O	-4.336173	0.009899	-0.250159
O10	O	-4.622525	-0.186445	-0.254162
O11	O	-4.631417	-0.089538	-0.371092
O12	O	-4.327342	-0.086343	-0.134032
C13	C	-3.802799	-0.215430	-0.257956
C14	C	-3.837227	-0.293105	-0.257564
C15	C	-4.048045	-0.842682	-0.177543
C16	C	-4.015678	-0.769696	-0.177902
C17	C	-4.036800	-0.743311	-0.255333
C18	C	-4.090243	-0.789917	-0.332409
C19	C	-4.122588	-0.862900	-0.332047
C20	C	-4.131206	-0.637790	-0.318317
C21	C	-4.098872	-0.564809	-0.318676
C22	C	-3.937030	-0.518207	-0.256452
C23	C	-3.807544	-0.544595	-0.193856
C24	C	-3.839889	-0.617578	-0.193494
C25	C	-4.001731	-0.664174	-0.255734
C26	C	-3.848484	-0.392471	-0.179771
C27	C	-3.816105	-0.319485	-0.180133
C28	C	-3.890692	-0.339708	-0.334642
C29	C	-3.923049	-0.412692	-0.334277
C30	C	-3.901951	-0.439069	-0.256839
C31	C	-3.814063	-0.092664	-0.406085
C32	C	-3.855650	-0.092287	-0.499865
C33	C	-4.006871	-0.090826	-0.840605
C34	C	-3.771223	-0.086491	-0.799659
C35	C	-3.727967	-0.087172	-0.702167
C36	C	-3.931847	-0.091550	-0.671560
C37	C	-4.092516	-0.160558	-0.722466
C38	C	-4.134415	-0.160168	-0.820014
C39	C	-4.067540	-0.026706	-0.794502
C40	C	-4.019661	-0.026160	-0.696657
C41	C	-3.889459	-0.091962	-0.576024
C42	C	-4.049268	-0.090419	-0.936142
C43	C	-4.156680	0.033048	-0.254212
C44	C	-4.101490	0.110722	-0.254609
C45	C	-4.145416	-0.089717	-0.106080
C46	C	-4.083068	-0.090090	-0.012299
H47	H	-4.107435	-0.768429	-0.395453
N48	N	-4.025165	-0.871127	-0.094019
H49	H	-4.053733	-0.924432	-0.105480
H50	H	-4.127083	-0.856462	-0.063738
N51	N	-4.363935	-0.168185	-0.857130
H52	H	-4.392916	-0.167995	-0.920726
H53	H	-4.409551	-0.127614	-0.829537
H54	H	-4.166108	-0.900840	-0.394805
N55	N	-4.305890	-0.688045	-0.385390
H56	H	-4.306767	-0.738282	-0.375651
H57	H	-4.285384	-0.682236	-0.443885
N58	N	-3.758441	-0.269240	-0.096994
H59	H	-3.867226	-0.241000	-0.097106
H60	H	-3.619418	-0.236060	-0.090321
H61	H	-3.972145	-0.731751	-0.115144
N62	N	-4.295130	-0.030083	-0.830040
H63	H	-4.367673	-0.033664	-0.782700
H64	H	-4.358537	-0.072915	-0.875785
N65	N	-3.980708	-0.462955	-0.417399
H66	H	-3.989180	-0.435168	-0.466507
H67	H	-4.119643	-0.496175	-0.424030
H68	H	-3.907881	-0.318226	-0.397687
N69	N	-4.294703	-0.168114	-0.697454
H70	H	-4.284066	-0.126779	-0.652775
H71	H	-4.324838	-0.213600	-0.673522
N72	N	-4.238515	-0.536349	-0.386189
H73	H	-4.386439	-0.550966	-0.382272
H74	H	-4.229017	-0.555982	-0.444521
N75	N	-3.566722	-0.021394	-0.655497
H76	H	-3.538338	-0.021692	-0.591932
H77	H	-3.619639	0.021765	-0.669686
N78	N	-3.632934	-0.494342	-0.126755
H79	H	-3.555809	-0.522134	-0.087053
H80	H	-3.691725	-0.461104	-0.093028
H81	H	-3.669682	-0.036640	-0.811820
N82	N	-3.705848	-0.147512	-0.841636
H83	H	-3.828213	-0.177953	-0.887062
H84	H	-3.654533	-0.176737	-0.797273
N85	N	-4.080619	-0.224464	-0.860527
H86	H	-4.029961	-0.252793	-0.814975
H87	H	-3.968101	-0.208935	-0.890046
H88	H	-3.980961	0.025581	-0.807658
N89	N	-3.634283	-0.148901	-0.680847
H90	H	-3.726565	-0.181378	-0.653731
H91	H	-3.492521	-0.130863	-0.639740
H92	H	-4.032604	-0.209112	-0.705850
N93	N	-3.865550	0.041456	-0.650866
H94	H	-3.739374	0.029786	-0.614013
H95	H	-3.931562	0.069211	-0.613816
H96	H	-4.167028	-0.025301	-0.675306
H97	H	-3.734453	-0.639060	-0.142527
H98	H	-3.831290	-0.413949	-0.116716
