data_functionalizedCrystal
_audit_creation_method	'MofGen! by Chris Wilmer'
_symmetry_space_group_name_H-M	'P1'
_symmetry_Int_Tables_number	1
_symmetry_cell_setting	triclinic
loop_
_symmetry_equiv_pos_as_xyz
  x,y,z
_cell_length_a	12.827892
_cell_length_b	12.827893
_cell_length_c	12.827885
_cell_angle_alpha	90.021189
_cell_angle_beta	89.970214
_cell_angle_gamma	89.986588
loop_
_atom_site_label
_atom_site_type_symbol
_atom_site_fract_x
_atom_site_fract_y
_atom_site_fract_z
Zn1	Zn	-0.416038	-1.597672	-0.590897
Zn2	Zn	-0.590815	-1.597565	-0.416157
Zn3	Zn	-0.416083	-1.422912	-0.416165
Zn4	Zn	-0.590731	-1.422898	-0.590852
O5	O	-0.503417	-1.510262	-0.503518
O6	O	-0.439238	-1.743893	-0.567733
O7	O	-0.567690	-1.574358	-0.269922
O8	O	-0.269841	-1.446145	-0.439366
O9	O	-0.567647	-1.743815	-0.439352
O10	O	-0.269808	-1.574540	-0.567740
O11	O	-0.439315	-1.446042	-0.269928
O12	O	-0.439234	-1.276674	-0.439322
O13	O	-0.567504	-1.446121	-0.737094
O14	O	-0.567548	-1.276664	-0.567664
O15	O	-0.439157	-1.574526	-0.737127
O16	O	-0.737040	-1.574345	-0.439309
O17	O	-0.736978	-1.446018	-0.567656
C18	C	-0.503387	-1.238752	-0.503490
C19	C	-0.503400	-1.122599	-0.503502
C20	C	-0.566841	-1.070776	-0.439890
C21	C	-0.566855	-0.950725	-0.439901
C22	C	-0.774927	-1.510196	-0.503499
C23	C	-0.891080	-1.510264	-0.503526
C24	C	-0.942860	-1.573840	-0.440086
C25	C	-1.062910	-1.573911	-0.440113
C26	C	-0.230846	-1.510356	-0.503559
C27	C	-0.114693	-1.510396	-0.503577
C28	C	-0.503316	-1.510334	-0.776088
C29	C	-0.503274	-1.510365	-0.892241
C30	C	-0.503438	-0.782832	-0.503538
C31	C	-0.503426	-0.898985	-0.503525
C32	C	-0.439737	-1.446890	-0.944029
C33	C	-0.439691	-1.446920	-1.064079
C34	C	-0.503441	-1.510250	-0.232008
C35	C	-0.503190	-1.510422	-0.115855
H36	H	-0.621167	-0.906159	-0.385438
H37	H	-0.557584	-1.564772	-1.071326
O38	O	-0.438468	-1.069625	-0.568439
C39	C	-0.260803	-1.036018	-0.619402
C40	C	-0.334222	-1.096090	-0.545810
H41	H	-0.176503	-1.057376	-0.601118
H42	H	-0.279146	-1.057476	-0.703668
H43	H	-0.272413	-0.948662	-0.607852
H44	H	-0.322653	-1.183460	-0.557267
H45	H	-0.315861	-1.074545	-0.461571
H46	H	-0.935625	-1.455892	-0.557863
O47	O	-0.889567	-1.638616	-0.375298
C48	C	-0.721324	-1.697684	-0.316277
C49	C	-0.781545	-1.624251	-0.389687
H50	H	-0.633978	-1.686111	-0.327900
H51	H	-0.742720	-1.679409	-0.231958
H52	H	-0.742704	-1.781958	-0.334679
H53	H	-0.760197	-1.539953	-0.371379
H54	H	-0.760144	-1.642616	-0.473984
H55	H	-1.107441	-1.628338	-0.385797
O56	O	-0.374994	-1.381877	-0.890948
C57	C	-0.324257	-1.204159	-0.857380
C58	C	-0.397658	-1.277669	-0.917538
H59	H	-0.342539	-1.119893	-0.878872
H60	H	-0.335857	-1.215600	-0.770013
H61	H	-0.239972	-1.222577	-0.878775
H62	H	-0.481971	-1.259297	-0.896230
H63	H	-0.385968	-1.266215	-1.004890
H64	H	-1.070171	-1.455959	-0.557889
H65	H	-0.621147	-1.115285	-0.385423
O66	O	-0.374895	-1.382115	-1.117363
C67	C	-0.315699	-1.323130	-1.285601
C68	C	-0.389150	-1.396561	-1.225386
H69	H	-0.327183	-1.334799	-1.372949
H70	H	-0.334037	-1.238813	-1.264267
H71	H	-0.231436	-1.341468	-1.264155
H72	H	-0.473438	-1.378317	-1.246800
H73	H	-0.370723	-1.480855	-1.246725
O74	O	-0.567979	-1.575341	-0.945411
C75	C	-0.581890	-1.716308	-1.068827
C76	C	-0.508491	-1.642799	-1.008665
H77	H	-0.533825	-1.770850	-1.119998
H78	H	-0.629714	-1.764172	-1.011208
H79	H	-0.636486	-1.668261	-1.119869
H80	H	-0.453832	-1.690765	-0.957621
H81	H	-0.460741	-1.594931	-1.066339
H82	H	-0.449104	-0.943545	-0.557985
