data_functionalizedCrystal
_audit_creation_method	'MofGen! by Chris Wilmer'
_symmetry_space_group_name_H-M	'P1'
_symmetry_Int_Tables_number	1
_symmetry_cell_setting	triclinic
loop_
_symmetry_equiv_pos_as_xyz
  x,y,z
_cell_length_a	16.625547
_cell_length_b	29.839131
_cell_length_c	16.625539
_cell_angle_alpha	90.027924
_cell_angle_beta	90.024822
_cell_angle_gamma	90.041640
loop_
_atom_site_label
_atom_site_type_symbol
_atom_site_fract_x
_atom_site_fract_y
_atom_site_fract_z
Zn1	Zn	1.232573	-0.178853	0.456003
Zn2	Zn	1.732573	0.321147	0.956003
Zn3	Zn	1.232431	-0.253984	0.321171
Zn4	Zn	1.732431	0.246016	0.821171
Zn5	Zn	1.097735	-0.178869	0.321173
Zn6	Zn	1.597735	0.321131	0.821173
Zn7	Zn	1.097660	-0.253957	0.455951
Zn8	Zn	1.597660	0.246043	0.955951
O9	O	1.165099	-0.216416	0.388575
O10	O	1.665099	0.283584	0.888575
O11	O	1.345386	-0.188824	0.438138
O12	O	1.845386	0.311176	0.938138
O13	O	1.214535	-0.244038	0.208339
O14	O	1.714535	0.255962	0.708339
O15	O	1.115712	-0.116000	0.339082
O16	O	1.615712	0.384000	0.839082
O17	O	1.345282	-0.244023	0.339078
O18	O	1.845282	0.255977	0.839078
O19	O	1.214777	-0.115988	0.438140
O20	O	1.714777	0.384012	0.938140
O21	O	1.115574	-0.188851	0.208341
O22	O	1.615574	0.311149	0.708341
O23	O	0.984892	-0.188825	0.339031
O24	O	1.484892	0.311175	0.839031
O25	O	1.115584	-0.243976	0.568790
O26	O	1.615584	0.256024	1.068790
O27	O	0.984837	-0.243991	0.438052
O28	O	1.484837	0.256009	0.938052
O29	O	1.214704	-0.188798	0.568828
O30	O	1.714704	0.311202	1.068828
O31	O	1.214462	-0.316848	0.339027
O32	O	1.714462	0.183152	0.839027
O33	O	1.115447	-0.316828	0.438049
O34	O	1.615447	0.183172	0.938049
C35	C	0.955609	-0.216407	0.388536
C36	C	1.455609	0.283593	0.888536
C37	C	0.865987	-0.216414	0.388539
C38	C	1.365987	0.283586	0.888539
C39	C	0.793205	-0.216415	0.388549
C40	C	1.293205	0.283585	0.888549
C41	C	0.701897	-0.216417	0.388569
C42	C	1.201897	0.283583	0.888569
C43	C	0.629120	-0.216422	0.388590
C44	C	1.129120	0.283578	0.888590
C45	C	0.537806	-0.216425	0.388609
C46	C	1.037806	0.283575	0.888609
C47	C	1.164953	-0.333138	0.388550
C48	C	1.664953	0.166862	0.888550
C49	C	1.164964	-0.383073	0.388566
C50	C	1.664964	0.116927	0.888566
C51	C	1.113575	-0.739665	0.440132
C52	C	1.613575	-0.239665	0.940132
C53	C	1.113469	-0.551992	0.440107
C54	C	1.613469	-0.051992	0.940107
O55	O	1.069600	-0.527732	0.483935
O56	O	1.569600	-0.027732	0.983935
N57	N	1.165049	-0.528518	0.388590
N58	N	1.665049	-0.028518	0.888590
C59	C	1.216664	-0.551965	0.337080
C60	C	1.716664	-0.051965	0.837080
O61	O	1.260539	-0.527692	0.293268
O62	O	1.760539	-0.027692	0.793268
C63	C	1.216774	-0.739637	0.337110
C64	C	1.716774	-0.239637	0.837110
C65	C	1.165184	-0.763109	0.388624
C66	C	1.665184	-0.263109	0.888624
C67	C	1.061990	-0.763137	0.491642
C68	C	1.561990	-0.263137	0.991642
C69	C	1.062014	-0.810052	0.491645
C70	C	1.562014	-0.310052	0.991645
C71	C	1.113623	-0.833496	0.440137
C72	C	1.613623	-0.333496	0.940137
C73	C	1.165208	-0.810024	0.388627
C74	C	1.665208	-0.310024	0.888627
C75	C	1.268392	-0.763083	0.285605
C76	C	1.768392	-0.263083	0.785605
C77	C	1.268416	-0.810004	0.285618
C78	C	1.768416	-0.310004	0.785618
C79	C	1.216826	-0.833476	0.337132
C80	C	1.716826	-0.333476	0.837132
C81	C	1.216841	-0.880383	0.337122
C82	C	1.716841	-0.380383	0.837122
N83	N	1.165260	-0.903858	0.388638
N84	N	1.665260	-0.403858	0.888638
C85	C	1.113652	-0.880414	0.440146
C86	C	1.613652	-0.380414	0.940146
C87	C	1.216601	-0.453434	0.337067
C88	C	1.716601	0.046566	0.837067
C89	C	1.216573	-0.406516	0.337058
C90	C	1.716573	0.093484	0.837058
C91	C	1.113379	-0.406547	0.440086
C92	C	1.613379	0.093453	0.940086
C93	C	1.113403	-0.453466	0.440090
C94	C	1.613403	0.046534	0.940090
C95	C	1.165021	-0.476908	0.388584
C96	C	1.665021	0.023092	0.888584
C97	C	1.113706	-0.978940	0.440147
C98	C	1.613706	-0.478940	0.940147
C99	C	1.113732	-1.025859	0.440143
C100	C	1.613732	-0.525859	0.940143
C101	C	1.216929	-1.025825	0.337119
C102	C	1.716929	-0.525825	0.837119
C103	C	1.216900	-0.978909	0.337119
C104	C	1.716900	-0.478909	0.837119
C105	C	1.165285	-0.955468	0.388640
C106	C	1.665285	-0.455468	0.888640
O107	O	1.260692	-0.904672	0.293323
O108	O	1.760692	-0.404672	0.793323
O109	O	1.069795	-0.904694	0.483965
O110	O	1.569795	-0.404694	0.983965
C111	C	1.113551	-0.692750	0.440129
C112	C	1.613551	-0.192750	0.940129
C113	C	1.165136	-0.669278	0.388619
C114	C	1.665136	-0.169278	0.888619
C115	C	1.216745	-0.692722	0.337111
C116	C	1.716745	-0.192722	0.837111
C117	C	1.165107	-0.622360	0.388610
C118	C	1.665107	-0.122360	0.888610
C119	C	1.113499	-0.598916	0.440118
C120	C	1.613499	-0.098916	0.940118
C121	C	1.061918	-0.622391	0.491634
C122	C	1.561918	-0.122391	0.991634
C123	C	1.061942	-0.669306	0.491637
C124	C	1.561942	-0.169306	0.991637
C125	C	1.268325	-0.669247	0.285595
C126	C	1.768325	-0.169247	0.785595
C127	C	1.268296	-0.622332	0.285595
C128	C	1.768296	-0.122332	0.785595
C129	C	1.216687	-0.598888	0.337103
C130	C	1.716687	-0.098888	0.837103
C131	C	1.375408	-0.216425	0.388613
C132	C	1.875408	0.283575	0.888613
C133	C	1.465029	-0.216429	0.388630
C134	C	1.965029	0.283571	0.888630
C135	C	1.165152	-0.216382	0.598884
C136	C	1.665152	0.283618	1.098884
C137	C	1.165174	-0.216368	0.688505
C138	C	1.665174	0.283632	1.188505
C139	C	1.165269	-0.099237	0.388617
C140	C	1.665269	0.400763	0.888617
C141	C	1.165341	-0.049303	0.388635
C142	C	1.665341	0.450697	0.888635
C143	C	1.165094	-0.216417	0.179084
C144	C	1.665094	0.283583	0.679084
C145	C	1.165228	-0.216304	0.089463
C146	C	1.665228	0.283696	0.589463
C147	C	1.165211	-0.216318	1.016681
C148	C	1.665211	0.283682	1.516681
C149	C	1.165199	-0.216333	0.925372
C150	C	1.665199	0.283667	1.425372
C151	C	1.165193	-0.216343	0.852596
C152	C	1.665193	0.283657	1.352596
C153	C	1.165180	-0.216358	0.761281
C154	C	1.665180	0.283642	1.261281
H155	H	1.071720	-1.044968	0.482094
H156	H	1.571720	-0.544968	0.982094
H157	H	1.020004	-0.829159	0.533592
H158	H	1.520004	-0.329159	1.033592
H159	H	1.071399	-0.472573	0.482042
H160	H	1.571399	0.027427	0.982042
H161	H	1.019934	-0.688413	0.533586
H162	H	1.519934	-0.188413	1.033586
H163	H	1.258900	-0.959798	0.295164
H164	H	1.758900	-0.459798	0.795164
H165	H	1.071355	-0.387451	0.482025
H166	H	1.571355	0.112549	0.982025
H167	H	1.258944	-1.044921	0.295179
H168	H	1.758944	-0.544921	0.795179
H169	H	1.019965	-0.744053	0.533590
H170	H	1.519965	-0.244053	1.033590
H171	H	1.019893	-0.603295	0.533571
H172	H	1.519893	-0.103295	1.033571
H173	H	1.310353	-0.688330	0.243651
H174	H	1.810353	-0.188330	0.743651
H175	H	1.071678	-0.959859	0.482101
H176	H	1.571678	-0.459859	0.982101
H177	H	1.258573	-0.387409	0.295102
H178	H	1.758573	0.112591	0.795102
H179	H	1.258636	-0.472517	0.295121
H180	H	1.758636	0.027483	0.795121
H181	H	1.310401	-0.743979	0.243658
H182	H	1.810401	-0.243979	0.743658
H183	H	1.310452	-0.829089	0.243677
H184	H	1.810452	-0.329089	0.743677
H185	H	1.310305	-0.603224	0.243639
H186	H	1.810305	-0.103224	0.743639
