data_functionalizedCrystal
_audit_creation_method	'MofGen! by Chris Wilmer'
_symmetry_space_group_name_H-M	'P1'
_symmetry_Int_Tables_number	1
_symmetry_cell_setting	triclinic
loop_
_symmetry_equiv_pos_as_xyz
  x,y,z
_cell_length_a	13.635800
_cell_length_b	11.102183
_cell_length_c	11.102300
_cell_angle_alpha	88.052849
_cell_angle_beta	108.605850
_cell_angle_gamma	71.396124
loop_
_atom_site_label
_atom_site_type_symbol
_atom_site_fract_x
_atom_site_fract_y
_atom_site_fract_z
V1	V	2.055760	-0.175838	0.396254
O2	O	2.035282	0.008450	0.388713
O3	O	2.044143	-0.348658	0.393542
O4	O	2.044150	-0.173133	0.569075
O5	O	2.035274	-0.168290	0.211965
V6	V	2.294312	-0.153795	0.374212
O7	O	2.193429	-0.224191	0.444606
O8	O	2.381741	-0.105442	0.325861
O9	O	2.194325	0.019024	0.376924
O10	O	2.373488	-0.338084	0.381753
O11	O	2.373496	-0.161344	0.558501
O12	O	2.194318	-0.156500	0.201391
V13	V	2.555760	-0.175838	0.396254
O14	O	2.535282	0.008450	0.388713
O15	O	2.544143	-0.348658	0.393542
O16	O	2.544150	-0.173133	0.569075
O17	O	2.535274	-0.168290	0.211965
V18	V	2.794312	-0.153795	0.374212
O19	O	2.693429	-0.224191	0.444606
O20	O	2.881741	-0.105442	0.325861
O21	O	2.694325	0.019024	0.376924
O22	O	2.873488	-0.338084	0.381753
O23	O	2.873496	-0.161344	0.558501
O24	O	2.694318	-0.156500	0.201391
C25	C	1.969297	-0.390788	0.387290
C26	C	2.000526	-0.532070	0.386225
C27	C	1.940348	-0.495793	0.153446
C28	C	1.924929	-0.544028	0.036560
C29	C	1.954276	-0.676776	0.035566
C30	C	1.999048	-0.761294	0.151470
C31	C	2.014467	-0.713059	0.268355
C32	C	1.985114	-0.580306	0.269337
C33	C	2.074652	-0.749336	0.501132
C34	C	2.045299	-0.616588	0.502129
C35	C	2.119424	-0.833854	0.617036
C36	C	2.134837	-0.785619	0.733924
C37	C	2.105486	-0.652862	0.734913
C38	C	2.060718	-0.568353	0.619014
C39	C	1.969306	-0.166887	0.611199
C40	C	2.000539	-0.165819	0.752481
C41	C	2.100842	0.061148	0.383172
C42	C	2.059233	0.202429	0.384246
C43	C	2.100833	-0.162751	0.159261
C44	C	2.059219	-0.163812	0.017977
C45	C	2.469297	-0.390788	0.387290
C46	C	2.500526	-0.532070	0.386225
C47	C	2.469306	-0.166887	0.611199
C48	C	2.500539	-0.165819	0.752481
C49	C	2.107217	-0.171665	0.825330
C50	C	2.136557	-0.170657	0.958078
C51	C	1.952530	-0.157962	0.945118
C52	C	1.923190	-0.158961	0.812371
C53	C	2.600842	0.061148	0.383172
C54	C	2.559233	0.202429	0.384246
C55	C	2.600833	-0.162751	0.159261
C56	C	2.559219	-0.163812	0.017977
C57	C	2.607201	-0.604918	0.392064
C58	C	2.636541	-0.737669	0.391073
C59	C	2.452518	-0.724711	0.378397
C60	C	2.423183	-0.591964	0.379397
C61	C	2.607217	-0.171665	0.825330
C62	C	2.636557	-0.170657	0.958078
C63	C	2.452530	-0.157962	0.945118
C64	C	2.423190	-0.158961	0.812371
H65	H	1.916420	-0.387699	0.154242
H66	H	2.336313	-0.532649	0.374646
H67	H	2.170201	-0.177246	0.776572
N68	N	2.308125	-0.152664	0.733782
H69	H	2.271400	-0.073645	0.666078
H70	H	2.263664	-0.148230	0.791951
N71	N	1.876647	-0.452873	-0.088446
H72	H	1.860392	-0.361457	-0.070086
H73	H	1.806067	-0.463760	-0.143750
H74	H	2.670201	-0.177246	0.776572
H75	H	2.670181	-0.556157	0.397622
N76	N	1.937658	-0.728812	-0.090498
H77	H	1.904846	-0.655134	-0.163772
H78	H	1.885956	-0.778703	-0.100282
N79	N	2.183144	-0.876788	0.858913
H80	H	2.134107	-0.928292	0.859387
H81	H	2.188465	-0.826015	0.933051
H82	H	2.022954	-0.869384	0.150650
H83	H	1.889560	-0.152382	0.993897
N84	N	2.251614	-0.176946	1.036650
H85	H	2.296155	-0.181437	0.978562
H86	H	2.288257	-0.255954	1.104359
N87	N	2.751618	-0.176972	1.036662
H88	H	2.747438	-0.097689	1.079683
H89	H	2.796104	-0.181513	0.978505
N90	N	2.122115	-0.600830	0.860980
H91	H	2.202946	-0.636258	0.915995
H92	H	2.077753	-0.627478	0.907283
N93	N	2.369105	-0.150577	1.009707
H94	H	2.356721	-0.070733	1.052159
H95	H	2.397687	-0.229089	1.076772
H96	H	2.143325	-0.941944	0.616218
H97	H	1.836313	-0.154191	0.753053
N98	N	2.029050	-0.425174	0.620081
H99	H	1.998347	-0.378957	0.528924
H100	H	2.096399	-0.404819	0.670376
H101	H	2.723405	-0.796977	0.395831
N102	N	2.369093	-0.789306	0.370999
H103	H	2.403859	-0.884453	0.371238
H104	H	2.303336	-0.750916	0.289246
