data_functionalizedCrystal
_audit_creation_method	'MofGen! by Chris Wilmer'
_symmetry_space_group_name_H-M	'P1'
_symmetry_Int_Tables_number	1
_symmetry_cell_setting	triclinic
loop_
_symmetry_equiv_pos_as_xyz
  x,y,z
_cell_length_a	13.101039
_cell_length_b	14.044220
_cell_length_c	14.044190
_cell_angle_alpha	86.809672
_cell_angle_beta	93.663707
_cell_angle_gamma	93.659868
loop_
_atom_site_label
_atom_site_type_symbol
_atom_site_fract_x
_atom_site_fract_y
_atom_site_fract_z
O1	O	-0.085126	-1.281975	0.225348
O2	O	-0.085151	-1.005305	0.217041
O3	O	-0.085118	-1.139483	0.082859
O4	O	-0.085158	-1.147797	0.359530
O5	O	0.085309	-1.129857	0.092504
O6	O	0.085277	-0.995679	0.226686
O7	O	0.085302	-1.272349	0.234993
Zn8	Zn	0.112348	-1.132486	0.232371
Zn9	Zn	-0.112197	-1.145168	0.219663
O10	O	0.085270	-1.138172	0.369174
C11	C	0.000060	-0.964870	0.218228
C12	C	0.000051	-0.858728	0.207382
N13	N	0.265595	-1.123838	0.241043
C14	C	0.000098	-1.131033	0.052060
C15	C	0.000106	-1.120185	-0.054083
N16	N	-0.265444	-1.153824	0.210984
C17	C	0.474635	-1.112072	0.252851
C18	C	0.525523	-1.165586	0.199179
C19	C	0.641840	-1.159040	0.205749
C20	C	0.358307	-1.118618	0.246282
C21	C	0.000089	-1.312784	0.233806
C22	C	0.000091	-1.418927	0.244651
C23	C	0.000075	-0.664388	0.187557
C24	C	0.000068	-0.613261	0.264472
C25	C	0.000081	-0.505123	0.253441
C26	C	0.000062	-0.772535	0.198587
C27	C	0.000071	-1.177288	-0.299543
C28	C	0.000071	-1.100371	-0.248418
C29	C	0.000091	-1.111398	-0.140280
C30	C	0.000052	-1.166262	-0.407691
C31	C	0.000051	-1.146621	0.399974
C32	C	0.000036	-1.157470	0.506116
H33	H	0.481733	-1.216319	0.148295
H34	H	0.000059	-1.026240	-0.285862
H35	H	0.000091	-0.626948	0.113431
C36	C	0.532963	-1.044274	0.320575
C37	C	0.506990	-0.950552	0.295814
C38	C	0.560726	-0.888074	0.358172
H39	H	0.515482	-1.060983	0.384214
H40	H	0.604523	-1.048748	0.316016
H41	H	0.435446	-0.946082	0.300382
H42	H	0.524474	-0.933814	0.232185
H43	H	0.632286	-0.892548	0.353613
H44	H	0.543240	-0.904791	0.421808
H45	H	0.543118	-0.824476	0.341375
C46	C	-0.000036	-0.663359	0.363236
C47	C	-0.000084	-0.762213	0.354685
C48	C	-0.000208	-0.808400	0.445640
H49	H	0.059365	-0.642192	0.400404
H50	H	-0.059506	-0.648809	0.393563
H51	H	0.059380	-0.776756	0.324372
H52	H	-0.059481	-0.783407	0.317534
H53	H	-0.059678	-0.793850	0.475967
H54	H	0.059195	-0.787226	0.482801
H55	H	-0.000250	-0.875477	0.439850
C56	C	0.000153	-1.276045	-0.249443
C57	C	0.000198	-1.267482	-0.150590
C58	C	0.000291	-1.358433	-0.104395
H59	H	-0.059258	-1.313196	-0.270614
H60	H	0.059613	-1.306395	-0.263981
H61	H	-0.059257	-1.237146	-0.136059
H62	H	0.059604	-1.230348	-0.129392
H63	H	0.059752	-1.388783	-0.118933
H64	H	-0.059121	-1.395577	-0.125573
H65	H	0.000331	-1.352635	-0.037318
