data_functionalizedCrystal
_audit_creation_method	'MofGen! by Chris Wilmer'
_symmetry_space_group_name_H-M	'P1'
_symmetry_Int_Tables_number	1
_symmetry_cell_setting	triclinic
loop_
_symmetry_equiv_pos_as_xyz
  x,y,z
_cell_length_a	12.594517
_cell_length_b	16.120484
_cell_length_c	16.120297
_cell_angle_alpha	95.614431
_cell_angle_beta	87.122039
_cell_angle_gamma	87.074624
loop_
_atom_site_label
_atom_site_type_symbol
_atom_site_fract_x
_atom_site_fract_y
_atom_site_fract_z
Zn1	Zn	1.572401	0.356753	0.489463
Zn2	Zn	2.072401	0.856753	0.989463
Zn3	Zn	1.572267	0.489442	0.356773
Zn4	Zn	2.072267	0.989442	0.856773
Zn5	Zn	1.403914	0.349688	0.349708
Zn6	Zn	1.903914	0.849688	0.849708
Zn7	Zn	1.384857	0.496483	0.496495
Zn8	Zn	1.884857	0.996483	0.996495
O9	O	1.483360	0.423092	0.423110
O10	O	1.983360	0.923092	0.923110
O11	O	1.721327	0.374364	0.471875
O12	O	2.221327	0.874364	0.971875
O13	O	1.557854	0.465001	0.238874
O14	O	2.057854	0.965001	0.738874
O15	O	1.434296	0.233660	0.362347
O16	O	1.934296	0.733660	0.862347
O17	O	1.721229	0.471851	0.374389
O18	O	2.221229	0.971851	0.874389
O19	O	1.558082	0.238850	0.465024
O20	O	2.058082	0.738850	0.965024
O21	O	1.434165	0.362324	0.233683
O22	O	1.934165	0.862324	0.733683
O23	O	1.252442	0.369151	0.369165
O24	O	1.752442	0.869151	0.869165
O25	O	1.401816	0.483851	0.612524
O26	O	1.901816	0.983851	1.112524
O27	O	1.238440	0.477000	0.477009
O28	O	1.738440	0.977000	0.977009
O29	O	1.539603	0.381191	0.607357
O30	O	2.039603	0.881191	1.107357
O31	O	1.539375	0.607342	0.381207
O32	O	2.039375	1.107342	0.881207
O33	O	1.401685	0.612514	0.483860
O34	O	1.901685	1.112514	0.983860
C35	C	1.468475	0.640257	0.434082
C36	C	1.968475	1.140257	0.934082
C37	C	1.462203	0.733162	0.438803
C38	C	1.962203	1.233162	0.938803
C39	C	1.206821	0.423074	0.423084
C40	C	1.706821	0.923074	0.923084
C41	C	1.088514	0.423087	0.423094
C42	C	1.588514	0.923087	0.923094
C43	C	1.468599	0.434094	0.641115
C44	C	1.968599	0.934094	1.141115
C45	C	1.462308	0.438783	0.734016
C46	C	1.962308	0.938783	1.234016
C47	C	1.026844	0.364357	0.364541
C48	C	1.526844	0.864357	0.864541
C49	C	0.952230	0.439556	0.347840
C50	C	1.452230	0.939556	0.847840
C51	C	0.952325	0.347926	0.439811
C52	C	1.452325	0.847926	0.939811
C53	C	1.015459	0.498324	0.406355
C54	C	1.515459	0.998324	0.906355
C55	C	1.015562	0.406645	0.498360
C56	C	1.515562	0.906645	0.998360
C57	C	0.940975	0.481898	0.481690
C58	C	1.440975	0.981898	0.981690
C59	C	1.760977	0.423110	0.423136
C60	C	2.260977	0.923110	0.923136
C61	C	1.879282	0.423118	0.423147
C62	C	2.379282	0.923118	0.923147
C63	C	1.498330	0.205080	0.412113
C64	C	1.998330	0.705080	0.912113
C65	C	1.504709	0.112176	0.407427
C66	C	2.004709	0.612176	0.907427
C67	C	1.450757	0.903262	0.447441
C68	C	1.950757	1.403262	0.947441
C69	C	1.516152	0.942081	0.398791
C70	C	2.016152	1.442081	0.898791
C71	C	1.509783	1.036731	0.403598
C72	C	2.009783	1.536731	0.903598
C73	C	1.457124	0.808604	0.442636
C74	C	1.957124	1.308604	0.942636
C75	C	1.498128	0.412071	0.205949
C76	C	1.998128	0.912071	0.705949
C77	C	1.504641	0.407147	0.113036
C78	C	2.004641	0.907147	0.613036
C79	C	1.450786	0.447325	0.904106
C80	C	1.950786	0.947325	1.404106
C81	C	1.516159	0.398608	0.942952
C82	C	2.016159	0.898608	1.442952
C83	C	1.509748	0.403361	1.037596
C84	C	2.009748	0.903361	1.537596
C85	C	1.457196	0.442573	0.809454
C86	C	1.957196	0.942573	1.309454
H87	H	0.924287	0.453482	0.284212
H88	H	1.424287	0.953482	0.784212
H89	H	1.576920	0.904231	0.353531
H90	H	2.076920	1.404231	0.853531
H91	H	0.903711	0.531632	0.531232
H92	H	1.403711	1.031632	1.031232
H93	H	1.389992	0.941110	0.492698
H94	H	1.889992	1.441110	0.992698
H95	H	1.390010	0.492599	0.941927
H96	H	1.890010	0.992599	1.441927
N97	N	1.592404	0.341798	0.895511
N98	N	2.092404	0.841798	1.395511
N99	N	1.561857	0.286130	0.844079
N100	N	2.061857	0.786130	1.344079
H101	H	1.615703	0.246009	0.810572
H102	H	2.115703	0.746009	1.310572
N103	N	1.073823	0.302108	0.302349
N104	N	1.573823	0.802108	0.802349
N105	N	1.055660	0.305866	0.227247
N106	N	1.555660	0.805866	0.727247
H107	H	1.088839	0.261906	0.183322
H108	H	1.588839	0.761906	0.683322
N109	N	1.050642	0.389139	0.578156
N110	N	1.550642	0.889139	1.078156
N111	N	1.030630	0.321560	0.605903
N112	N	1.530630	0.821560	1.105903
H113	H	1.055407	0.309187	0.662260
H114	H	1.555407	0.809187	1.162260
H115	H	0.924414	0.284358	0.453900
H116	H	1.424414	0.784358	0.953900
N117	N	1.050254	0.578094	0.388555
N118	N	1.550254	1.078094	0.888555
N119	N	1.147347	0.590945	0.385631
N120	N	1.647347	1.090945	0.885631
H121	H	1.171925	0.647281	0.373057
H122	H	1.671925	1.147281	0.873057
