data_functionalizedCrystal
_audit_creation_method	'MofGen! by Chris Wilmer'
_symmetry_space_group_name_H-M	'P1'
_symmetry_Int_Tables_number	1
_symmetry_cell_setting	triclinic
loop_
_symmetry_equiv_pos_as_xyz
  x,y,z
_cell_length_a	10.654546
_cell_length_b	9.130313
_cell_length_c	10.654559
_cell_angle_alpha	90.001323
_cell_angle_beta	95.513896
_cell_angle_gamma	90.007851
loop_
_atom_site_label
_atom_site_type_symbol
_atom_site_fract_x
_atom_site_fract_y
_atom_site_fract_z
O1	O	-1.667842	-0.122049	0.176372
O2	O	-1.302364	-0.121994	0.193183
O3	O	-1.493500	-0.122023	0.002039
O4	O	-1.476706	-0.122020	0.367516
O5	O	-1.493498	0.121576	0.002044
O6	O	-1.302362	0.121605	0.193188
O7	O	-1.667840	0.121550	0.176377
Cu8	Cu	-1.485101	0.143820	0.184783
Cu9	Cu	-1.485103	-0.144264	0.184777
O10	O	-1.476704	0.121578	0.367521
C11	C	-1.255565	-0.000188	0.191952
C12	C	-1.116121	-0.000167	0.188262
N13	N	-1.485108	0.346442	0.184787
C14	C	-1.036639	-0.000182	0.300804
C15	C	-0.905618	-0.000196	0.297329
C16	C	-0.933574	-0.000188	0.068760
C17	C	-1.064592	-0.000163	0.072236
C18	C	-1.020498	-0.000193	0.432766
C19	C	-0.889477	-0.000208	0.429291
C20	C	-1.492263	-0.000226	-0.044756
C21	C	-1.488567	-0.000235	-0.184199
C22	C	-0.714639	-0.000239	0.177611
C23	C	-0.854081	-0.000207	0.181310
N24	N	-1.485106	-0.346887	0.184763
C25	C	-1.569765	0.423082	0.100177
C26	C	-1.569761	0.576419	0.100162
C27	C	-1.400440	0.576463	0.269377
C28	C	-1.400438	0.423129	0.269385
C29	C	-1.667525	0.423057	0.002486
C30	C	-1.667522	0.576394	0.002471
C31	C	-1.372554	-0.000221	-0.235737
C32	C	-1.369089	-0.000210	-0.366760
C33	C	-1.597658	-0.000232	-0.394695
C34	C	-1.601123	-0.000233	-0.263675
C35	C	-1.240591	-0.000215	-0.219610
C36	C	-1.237126	-0.000204	-0.350633
C37	C	-1.477940	-0.000221	0.414316
C38	C	-1.481637	-0.000222	0.553759
H39	H	-1.129303	-0.000130	-0.019407
N40	N	-1.181463	0.139125	-0.397842
H41	H	-1.157113	0.206436	-0.324284
H42	H	-1.104228	0.114812	-0.441809
N43	N	-1.309106	0.340481	0.360629
H44	H	-1.324328	0.367170	0.449904
H45	H	-1.321985	0.231732	0.347693
N46	N	-1.067748	-0.139504	0.488411
H47	H	-0.994210	-0.206833	0.512744
H48	H	-1.111698	-0.115179	0.565655
H49	H	-1.646079	0.381440	-0.094046
H50	H	-1.758710	0.375485	0.033073
N51	N	-0.877996	-0.000172	-0.056377
H52	H	-0.782935	-0.000183	-0.041504
H53	H	-0.907018	-0.090469	-0.105685
N54	N	-1.187790	-0.139526	-0.159140
H55	H	-1.159727	-0.206836	-0.226290
H56	H	-1.113366	-0.115193	-0.096642
H57	H	-1.185516	-0.102136	-0.380002
H58	H	-0.847747	-0.102157	0.479011
H59	H	-0.843806	0.104964	0.469175
H60	H	-1.764034	0.617996	0.023988
H61	H	-1.049830	0.101756	0.484378
N62	N	-1.309118	0.659175	0.360615
H63	H	-1.321960	0.767942	0.347770
H64	H	-1.324394	0.632385	0.449851
H65	H	-1.637006	0.623945	-0.088751
N66	N	-1.726249	-0.000216	-0.208084
H67	H	-1.797022	-0.000215	-0.278315
H68	H	-1.732681	-0.090519	-0.154332
N69	N	-1.719047	-0.000225	-0.480424
H70	H	-1.722710	-0.090523	-0.535414
H71	H	-1.793000	-0.000177	-0.427806
H72	H	-1.190860	0.101732	-0.177860
