data_functionalizedCrystal
_audit_creation_method	'MofGen! by Chris Wilmer'
_symmetry_space_group_name_H-M	'P1'
_symmetry_Int_Tables_number	1
_symmetry_cell_setting	triclinic
loop_
_symmetry_equiv_pos_as_xyz
  x,y,z
_cell_length_a	13.262402
_cell_length_b	10.489716
_cell_length_c	12.376457
_cell_angle_alpha	101.395919
_cell_angle_beta	94.181204
_cell_angle_gamma	84.481629
loop_
_atom_site_label
_atom_site_type_symbol
_atom_site_fract_x
_atom_site_fract_y
_atom_site_fract_z
O1	O	1.327278	0.253185	0.314121
O2	O	1.040548	0.249028	0.225955
O3	O	1.190451	0.065986	0.272044
O4	O	1.177375	0.436227	0.268032
O5	O	1.152988	0.111681	0.448538
O6	O	1.003085	0.294723	0.402449
O7	O	1.289815	0.298880	0.490615
Zn8	Zn	1.140502	0.304057	0.474554
Zn9	Zn	1.189861	0.243851	0.242016
O10	O	1.139912	0.481922	0.444525
C11	C	0.985101	0.267904	0.302912
C12	C	0.875700	0.256056	0.269272
C13	C	1.170738	0.041228	0.359986
C14	C	1.167801	-0.100621	0.359072
C15	C	0.844724	0.225578	0.157258
C16	C	0.741935	0.214458	0.125653
C17	C	0.670113	0.233805	0.206059
C18	C	0.701089	0.264274	0.318076
C19	C	0.803887	0.275405	0.349684
C20	C	0.629276	0.283632	0.398484
C21	C	0.660252	0.314101	0.510501
C22	C	0.763041	0.325229	0.542103
C23	C	0.834863	0.305882	0.461697
C24	C	0.526478	0.272501	0.366877
C25	C	0.485641	0.322328	0.559302
C26	C	0.588430	0.333447	0.590907
C27	C	1.259723	-0.191544	0.387348
C28	C	1.229619	-0.295000	0.285394
C29	C	1.192662	-0.249914	0.459396
C30	C	1.137750	-0.202228	0.257058
C31	C	1.100790	-0.157115	0.431143
C32	C	1.070623	-0.260532	0.329147
C33	C	1.345263	0.280003	0.413655
C34	C	1.454665	0.291850	0.447288
C35	C	1.159626	0.506679	0.356581
C36	C	1.162564	0.648527	0.357488
N37	N	1.106823	0.345145	0.633257
N38	N	1.223548	0.202754	0.083315
C39	C	1.301727	0.107349	1.048167
C40	C	1.325293	0.078591	0.937073
C41	C	1.270677	0.145227	0.861114
C42	C	1.192492	0.240626	0.896259
C43	C	1.168928	0.269395	1.007366
C44	C	1.137879	0.307272	0.820312
C45	C	1.059693	0.402672	0.855458
C46	C	1.036133	0.431435	0.966554
C47	C	1.090749	0.364799	1.042513
C48	C	1.161443	0.278504	0.709206
C49	C	1.028644	0.440549	0.668404
C50	C	1.005078	0.469307	0.779499
H51	H	0.501268	0.247694	0.275672
H52	H	1.215872	-0.271490	0.544899
N53	N	0.565119	0.222413	0.173781
N54	N	0.518578	0.139426	0.205221
H55	H	0.444423	0.131372	0.182421
H56	H	1.225102	0.200829	0.680601
N57	N	1.032551	-0.082212	0.508479
N58	N	0.982097	-0.138401	0.563626
H59	H	0.933906	-0.085500	0.618256
N60	N	1.297895	-0.369872	0.208072
N61	N	1.390576	-0.354217	0.220048
H62	H	1.438801	-0.407088	0.165444
N63	N	1.294766	0.115845	0.747640
N64	N	1.364576	0.030669	0.716275
H65	H	1.381592	0.009912	0.636129
H66	H	0.788256	0.350051	0.633314
N67	N	0.710311	0.183350	0.011236
N68	N	0.774443	0.166084	-0.060545
H69	H	0.752110	0.144114	-0.141360
H70	H	1.339701	-0.161021	0.411846
N71	N	0.918102	0.205824	0.075155
N72	N	0.988476	0.117355	0.073929
H73	H	1.040304	0.103407	0.015939
H74	H	0.941418	0.546985	0.808128
N75	N	0.939905	0.317367	0.493687
N76	N	0.986193	0.400381	0.461960
H77	H	1.060396	0.408536	0.484445
H78	H	1.071559	0.388210	1.132975
N79	N	1.405255	-0.018715	0.901224
N80	N	1.454077	-0.078112	0.969071
H81	H	1.510591	-0.146791	0.943766
N82	N	1.108727	-0.175436	0.149690
N83	N	1.085727	-0.265996	0.072515
H84	H	1.065234	-0.247075	-0.003314
N85	N	0.620057	0.364614	0.705329
N86	N	0.555928	0.381907	0.777115
H87	H	0.578262	0.403928	0.857927
H88	H	0.990614	-0.290849	0.304495
N89	N	0.412272	0.342107	0.641429
N90	N	0.320496	0.332173	0.613195
H91	H	0.268672	0.346148	0.671191
N92	N	1.357519	0.039333	1.125775
N93	N	1.336481	0.065051	1.224971
H94	H	1.375893	0.017018	1.279787
H95	H	0.972478	0.509125	0.995170
N96	N	0.972862	0.508644	0.590831
N97	N	1.017828	0.574505	0.538616
H98	H	0.978438	0.622598	0.483826
