data_functionalizedCrystal
_audit_creation_method	'MofGen! by Chris Wilmer'
_symmetry_space_group_name_H-M	'P1'
_symmetry_Int_Tables_number	1
_symmetry_cell_setting	triclinic
loop_
_symmetry_equiv_pos_as_xyz
  x,y,z
_cell_length_a	21.395364
_cell_length_b	14.908520
_cell_length_c	14.908854
_cell_angle_alpha	89.778335
_cell_angle_beta	93.278007
_cell_angle_gamma	93.316489
loop_
_atom_site_label
_atom_site_type_symbol
_atom_site_fract_x
_atom_site_fract_y
_atom_site_fract_z
Zn1	Zn	0.923492	-0.328708	-0.529058
Zn2	Zn	1.423492	0.171292	-0.029058
Zn3	Zn	0.922721	-0.487761	-0.387371
Zn4	Zn	1.422721	0.012239	0.112629
Zn5	Zn	0.824391	-0.337410	-0.378715
Zn6	Zn	1.324391	0.162590	0.121285
Zn7	Zn	0.812322	-0.479016	-0.537679
Zn8	Zn	1.312322	0.020984	-0.037679
O9	O	0.870731	-0.408224	-0.458206
O10	O	1.370731	0.091776	0.041794
O11	O	1.011066	-0.349825	-0.510278
O12	O	1.511066	0.150175	-0.010278
O13	O	0.914406	-0.475118	-0.260400
O14	O	1.414406	0.024882	0.239600
O15	O	0.842911	-0.210429	-0.391428
O16	O	1.342911	0.289571	0.108572
O17	O	1.010500	-0.466680	-0.406181
O18	O	1.510500	0.033320	0.093819
O19	O	0.915719	-0.204036	-0.501884
O20	O	1.415719	0.295964	-0.001884
O21	O	0.842164	-0.364656	-0.254040
O22	O	1.342164	0.135344	0.245960
O23	O	0.735114	-0.356176	-0.399787
O24	O	1.235114	0.143824	0.100213
O25	O	0.822340	-0.451776	-0.662358
O26	O	1.322340	0.048224	-0.162358
O27	O	0.726246	-0.460213	-0.516577
O28	O	1.226246	0.039787	-0.016577
O29	O	0.904016	-0.341345	-0.656025
O30	O	1.404016	0.158655	-0.156025
O31	O	0.902703	-0.612428	-0.414540
O32	O	1.402703	-0.112428	0.085460
O33	O	0.821593	-0.606003	-0.524970
O34	O	1.321593	-0.106003	-0.024970
C35	C	0.707946	-0.408191	-0.458179
C36	C	1.207946	0.091809	0.041821
C37	C	0.638304	-0.408197	-0.458190
C38	C	1.138304	0.091803	0.041810
C39	C	0.136791	-0.347507	-0.512523
C40	C	0.636791	0.152493	-0.012523
C41	C	0.202226	-0.347500	-0.512523
C42	C	0.702226	0.152500	-0.012523
C43	C	0.234662	-0.408250	-0.458228
C44	C	0.734662	0.091750	0.041772
C45	C	0.201656	-0.469027	-0.403946
C46	C	0.701656	0.030973	0.096054
C47	C	0.136221	-0.469038	-0.403955
C48	C	0.636221	0.030962	0.096045
C49	C	0.341068	-0.419909	-0.377595
C50	C	0.841068	0.080091	0.122405
C51	C	0.406502	-0.419892	-0.377584
C52	C	0.906502	0.080108	0.122416
C53	C	0.436485	-0.408222	-0.458201
C54	C	0.936485	0.091778	0.041799
C55	C	0.401027	-0.396550	-0.538830
C56	C	0.901027	0.103450	-0.038830
C57	C	0.335592	-0.396560	-0.538839
C58	C	0.835592	0.103440	-0.038839
C59	C	0.305615	-0.408245	-0.458212
C60	C	0.805615	0.091755	0.041788
C61	C	0.540436	-0.347446	-0.512483
C62	C	1.040436	0.152554	-0.012483
C63	C	0.605873	-0.347445	-0.512484
C64	C	1.105873	0.152555	-0.012484
C65	C	0.605302	-0.468968	-0.403900
C66	C	1.105302	0.031032	0.096100
C67	C	0.539866	-0.468973	-0.403907
C68	C	1.039866	0.031027	0.096093
C69	C	0.507437	-0.408207	-0.458197
C70	C	1.007437	0.091793	0.041803
C71	C	0.860771	-0.641840	-0.471650
C72	C	1.360771	-0.141840	0.028350
C73	C	0.856566	-0.741780	-0.477431
C74	C	1.356566	-0.241780	0.022569
C75	C	0.933203	-0.936202	-0.373397
C76	C	1.433203	-0.436202	0.126603
C77	C	0.929254	-1.030105	-0.378826
C78	C	1.429254	-0.530105	0.121174
C79	C	0.844723	-1.023490	-0.493723
C80	C	1.344723	-0.523490	0.006277
C81	C	0.848672	-0.929587	-0.488294
C82	C	1.348672	-0.429587	0.011706
C83	C	0.892913	-0.885946	-0.428128
C84	C	1.392913	-0.385946	0.071872
C85	C	0.896858	-0.792042	-0.422694
C86	C	1.396858	-0.292042	0.077306
C87	C	0.812330	-0.785429	-0.537595
C88	C	1.312330	-0.285429	-0.037595
C89	C	0.808381	-0.879332	-0.543024
C90	C	1.308381	-0.379332	-0.043024
C91	C	1.034152	-0.408258	-0.458234
C92	C	1.534152	0.091742	0.041766
C93	C	1.103792	-0.408272	-0.458245
C94	C	1.603792	0.091728	0.041755
C95	C	0.861918	-0.394614	-0.692728
C96	C	1.361918	0.105386	-0.192728
C97	C	0.858162	-0.388815	-0.792668
C98	C	1.358162	0.111185	-0.292668
C99	C	0.880747	-0.173694	-0.444729
C100	C	1.380747	0.326306	0.055271
C101	C	0.885015	-0.073752	-0.438986
C102	C	1.385015	0.426248	0.061014
C103	C	0.926345	-0.492939	-0.987089
C104	C	1.426345	0.007061	-0.487089
C105	C	0.922818	-0.487492	-1.080991
C106	C	1.422818	0.012508	-0.580991
C107	C	0.847584	-0.372472	-1.074376
C108	C	1.347584	0.127528	-0.574376
C109	C	0.851111	-0.377918	-0.980474
C110	C	1.351111	0.122082	-0.480474
C111	C	0.890492	-0.438154	-0.936834
C112	C	1.390492	0.061846	-0.436834
C113	C	0.894015	-0.443605	-0.842930
C114	C	1.394015	0.056395	-0.342930
C115	C	0.818786	-0.328580	-0.836317
C116	C	1.318786	0.171420	-0.336317
C117	C	0.815259	-0.323134	-0.930219
C118	C	1.315259	0.176866	-0.430219
C119	C	0.879550	-0.421715	-0.224592
C120	C	1.379550	0.078285	0.275408
C121	C	0.883438	-0.427262	-0.124638
C122	C	1.383438	0.072738	0.375362
H123	H	0.110391	-0.298030	-0.556734
H124	H	0.610391	0.201970	-0.056734
H125	H	0.815526	-0.323425	-1.109924
H126	H	1.315526	0.176575	-0.609924
Cl127	Cl	0.765755	-0.247411	-0.985089
Cl128	Cl	1.265755	0.252589	-0.485089
Cl129	Cl	0.967893	-0.556365	-1.144167
Cl130	Cl	1.467893	-0.056365	-0.644167
Cl131	Cl	0.789119	-1.078367	-0.569365
Cl132	Cl	1.289119	-0.578367	-0.069365
Cl133	Cl	0.773690	-0.259734	-0.773135
Cl134	Cl	1.273690	0.240266	-0.273135
Cl135	Cl	0.943520	-0.519332	-0.788069
Cl136	Cl	1.443520	-0.019332	-0.288069
H137	H	0.229099	-0.298014	-0.556721
H138	H	0.729099	0.201986	-0.056721
H139	H	0.969222	-0.900670	-0.324401
H140	H	1.469222	-0.400670	0.175599
H141	H	0.306724	-0.387059	-0.604490
H142	H	0.806724	0.112941	-0.104490
Cl143	Cl	0.752769	-0.934202	-0.618660
Cl144	Cl	1.252769	-0.434202	-0.118660
Cl145	Cl	0.094735	-0.545431	-0.335710
Cl146	Cl	0.594735	-0.045431	0.164290
Cl147	Cl	0.952472	-0.737181	-0.347055
Cl148	Cl	1.452472	-0.237181	0.152945
H149	H	0.435368	-0.429390	-0.311931
H150	H	0.935368	0.070610	0.188069
H151	H	0.425438	-0.387042	-0.604475
H152	H	0.925438	0.112958	-0.104475
Cl153	Cl	0.303382	-0.434596	-0.276240
Cl154	Cl	0.803382	0.065404	0.223760
H155	H	0.514032	-0.297967	-0.556689
H156	H	1.014032	0.202033	-0.056689
H157	H	0.631710	-0.518438	-0.359699
H158	H	1.131710	-0.018438	0.140301
Cl159	Cl	0.647357	-0.271054	-0.580734
Cl160	Cl	1.147357	0.228946	-0.080734
H161	H	0.512999	-0.518451	-0.359704
H162	H	1.012999	-0.018451	0.140296
H163	H	0.228069	-0.518492	-0.359742
H164	H	0.728069	-0.018492	0.140258
Cl165	Cl	0.761668	-0.722246	-0.606392
Cl166	Cl	1.261668	-0.222246	-0.106392
Cl167	Cl	0.975842	-0.568672	-0.932224
Cl168	Cl	1.475842	-0.068672	-0.432224
H169	H	0.962064	-1.071019	-0.334260
H170	H	1.462064	-0.571019	0.165740
