data_functionalizedCrystal
_audit_creation_method	'MofGen! by Chris Wilmer'
_symmetry_space_group_name_H-M	'P1'
_symmetry_Int_Tables_number	1
_symmetry_cell_setting	triclinic
loop_
_symmetry_equiv_pos_as_xyz
  x,y,z
_cell_length_a	19.288864
_cell_length_b	10.654550
_cell_length_c	17.766277
_cell_angle_alpha	89.994852
_cell_angle_beta	89.976791
_cell_angle_gamma	83.810575
loop_
_atom_site_label
_atom_site_type_symbol
_atom_site_fract_x
_atom_site_fract_y
_atom_site_fract_z
O1	O	0.922379	0.156657	-0.062834
O2	O	0.720257	0.177789	-0.062782
O3	O	0.825965	-0.015616	-0.062807
O4	O	0.816670	0.350062	-0.062810
O5	O	0.825946	-0.015625	0.062382
O6	O	0.720238	0.177780	0.062406
O7	O	0.922360	0.156647	0.062355
Cu8	Cu	0.821297	0.167212	0.073811
Cu9	Cu	0.821319	0.167224	-0.074239
O10	O	0.816652	0.350052	0.062379
C11	C	0.694366	0.177105	-0.000181
C12	C	0.617249	0.175063	-0.000162
C13	C	0.573296	0.288545	-0.000175
C14	C	0.500836	0.286627	-0.000183
C15	C	0.472333	0.171222	-0.000193
C16	C	0.516296	0.057725	-0.000176
C17	C	0.588754	0.059646	-0.000160
C18	C	0.363484	0.080503	-0.044077
C19	C	0.291027	0.078587	-0.044098
C20	C	0.248849	0.165292	-0.000239
C21	C	0.279135	0.253934	0.043630
C22	C	0.351593	0.255855	0.043646
C23	C	0.393766	0.169126	-0.000210
C24	C	0.126326	0.276702	-0.000260
C25	C	0.053865	0.274779	-0.000263
C26	C	0.069327	0.045875	-0.000264
C27	C	0.141786	0.047800	-0.000253
C28	C	0.170281	0.163217	-0.000254
C29	C	0.825273	-0.062404	-0.000213
C30	C	0.823231	-0.201803	-0.000215
C31	C	0.885471	-0.282621	-0.000229
C32	C	0.883548	-0.413601	-0.000234
C33	C	0.757141	-0.382932	-0.000208
C34	C	0.759065	-0.251955	-0.000208
C35	C	0.949637	-0.232470	-0.000235
C36	C	1.011882	-0.313290	-0.000248
C37	C	1.009959	-0.444269	-0.000253
C38	C	0.945792	-0.494429	-0.000245
C39	C	0.948250	0.157332	-0.000248
C40	C	1.025367	0.159373	-0.000273
C41	C	0.817344	0.396840	-0.000216
C42	C	0.819385	0.536240	-0.000219
N43	N	0.821287	0.167203	0.177941
N44	N	0.821335	0.167223	-0.178369
C45	C	0.868110	0.081606	0.217318
C46	C	0.868114	0.081600	0.296119
C47	C	0.821301	0.167213	0.335542
C48	C	0.774469	0.252818	0.296156
C49	C	0.774462	0.252813	0.217356
C50	C	0.812752	0.281634	0.460380
C51	C	0.812764	0.281641	0.539179
C52	C	0.821320	0.167229	0.578588
C53	C	0.829879	0.052804	0.539189
C54	C	0.829871	0.052799	0.460389
C55	C	0.821304	0.167228	0.420988
C56	C	0.868150	0.081617	0.703410
C57	C	0.868149	0.081610	0.782214
C58	C	0.774508	0.252839	0.782249
C59	C	0.774506	0.252835	0.703447
C60	C	0.821330	0.167226	0.664033
H61	H	0.244795	0.324537	0.079345
N62	N	0.157067	0.401179	-0.000257
H63	H	0.118224	0.472781	-0.000260
H64	H	0.186771	0.406956	0.046156
H65	H	0.465043	0.379040	-0.000191
H66	H	0.493084	-0.036239	-0.000195
N67	N	0.918616	-0.010730	0.338602
H68	H	0.948276	-0.064964	0.301676
H69	H	0.949549	0.037218	0.371276
H70	H	0.906235	0.011895	0.185229
H71	H	0.951210	-0.125822	-0.000229
H72	H	0.805772	0.374809	0.428300
H73	H	0.397820	0.009895	-0.079796
N74	N	0.038589	-0.078596	-0.000274
H75	H	0.054602	-0.128296	-0.046679
H76	H	0.054562	-0.128198	0.046167
N77	N	1.081086	-0.259190	-0.000255
H78	H	1.108371	-0.288704	0.046146
H79	H	1.108336	-0.288691	-0.046700
H80	H	1.060642	-0.510069	-0.000271
H81	H	0.944232	-0.601083	-0.000257
H82	H	0.624542	-0.032767	-0.000150
N83	N	0.724007	0.345179	0.660980
H84	H	0.750810	0.400659	0.628267
H85	H	0.693032	0.297243	0.628350
N86	N	0.687936	-0.437027	-0.000197
H87	H	0.696163	-0.532265	-0.000197
H88	H	0.660666	-0.407442	0.046218
N89	N	0.839099	-0.070603	0.417892
H90	H	0.844522	-0.143087	0.454809
H91	H	0.796867	-0.077739	0.385222
H92	H	0.708384	-0.186150	-0.000196
N93	N	0.839111	-0.070610	0.581681
H94	H	0.837814	-0.053250	0.637579
H95	H	0.800247	-0.122732	0.567929
N96	N	0.918648	-0.010716	0.660892
H97	H	0.948309	-0.064952	0.697797
H98	H	0.891791	-0.066110	0.628213
N99	N	0.918665	-0.010697	0.824688
H100	H	0.948331	-0.064916	0.787759
H101	H	0.949592	0.037276	0.857355
H102	H	0.805799	0.374812	0.571252
N103	N	0.724011	0.345173	0.824757
H104	H	0.731118	0.332186	0.880653
H105	H	0.732457	0.434225	0.810973
N106	N	0.723974	0.345153	0.338671
H107	H	0.731084	0.332170	0.394566
H108	H	0.732419	0.434205	0.324884
H109	H	0.018079	0.367194	-0.000269
N110	N	0.723954	0.345143	0.174887
H111	H	0.732378	0.434237	0.188590
H112	H	0.731077	0.332044	0.118999
N113	N	0.604021	0.413033	-0.000177
H114	H	0.588004	0.462734	0.046225
H115	H	0.656588	0.396941	-0.000196
N116	N	0.384262	0.351448	0.090961
H117	H	0.346553	0.406088	0.118745
H118	H	0.417425	0.306024	0.128428
N119	N	0.189192	-0.074605	-0.000242
H120	H	0.179987	-0.124972	-0.046652
H121	H	0.239400	-0.055781	-0.000201
N122	N	0.258363	-0.017011	-0.091412
H123	H	0.296076	-0.071658	-0.119186
H124	H	0.231916	-0.071648	-0.057773
