data_functionalizedCrystal
_audit_creation_method	'MofGen! by Chris Wilmer'
_symmetry_space_group_name_H-M	'P1'
_symmetry_Int_Tables_number	1
_symmetry_cell_setting	triclinic
loop_
_symmetry_equiv_pos_as_xyz
  x,y,z
_cell_length_a	16.992694
_cell_length_b	10.654550
_cell_length_c	15.455313
_cell_angle_alpha	92.692163
_cell_angle_beta	87.142206
_cell_angle_gamma	87.576563
loop_
_atom_site_label
_atom_site_type_symbol
_atom_site_fract_x
_atom_site_fract_y
_atom_site_fract_z
O1	O	1.045244	0.261289	-0.072018
O2	O	0.816944	0.258364	-0.072044
O3	O	0.936343	0.077541	-0.072027
O4	O	0.925845	0.442112	-0.072035
O5	O	0.929515	0.087836	0.072234
O6	O	0.810116	0.268659	0.072217
O7	O	1.038416	0.271584	0.072243
Cu8	Cu	0.923642	0.271061	0.085402
Cu9	Cu	0.931717	0.258886	-0.085203
O10	O	0.919017	0.452406	0.072226
C11	C	0.784297	0.259751	0.000083
C12	C	0.697192	0.248531	0.000074
C13	C	0.647540	0.356782	0.000072
C14	C	0.565696	0.346233	0.000084
C15	C	0.533505	0.227433	0.000092
C16	C	0.583163	0.119174	0.000096
C17	C	0.665006	0.129724	0.000090
C18	C	0.289668	0.183707	0.000116
C19	C	0.207819	0.173165	0.000119
C20	C	0.190358	0.400226	0.000109
C21	C	0.272203	0.410765	0.000098
C22	C	0.321854	0.302507	0.000107
N23	N	0.449847	0.216648	0.000102
N24	N	0.405510	0.313293	0.000103
C25	C	0.932158	0.035824	0.000102
C26	C	0.929852	-0.103819	0.000099
C27	C	1.000152	-0.177229	0.000109
C28	C	0.997980	-0.308438	0.000103
C29	C	0.855203	-0.292815	0.000079
C30	C	0.857375	-0.161609	0.000080
C31	C	1.072629	-0.119439	0.000129
C32	C	1.142934	-0.192850	0.000140
C33	C	1.140763	-0.324059	0.000134
C34	C	1.068286	-0.381857	0.000116
C35	C	1.071063	0.270196	0.000114
C36	C	1.158168	0.281416	0.000118
C37	C	0.923202	0.494124	0.000095
C38	C	0.925508	0.633766	0.000093
N39	N	0.917968	0.279624	0.205397
N40	N	0.937397	0.250314	-0.205198
C41	C	0.968711	0.202836	0.250798
C42	C	0.964428	0.209324	0.341605
C43	C	0.909405	0.292607	0.387010
C44	C	0.858656	0.369399	0.341602
C45	C	0.862937	0.362903	0.250797
C46	C	0.890929	0.320610	0.658589
C47	C	0.886654	0.327102	0.749401
C48	C	0.992425	0.167025	0.749398
C49	C	0.996704	0.160543	0.658590
C50	C	0.945953	0.237329	0.613191
N51	N	0.905027	0.299244	0.479830
N52	N	0.950328	0.230685	0.520373
H53	H	0.181613	0.076419	0.000125
C54	C	0.747231	0.393152	0.443743
C55	C	0.798174	0.460943	0.391513
H56	H	0.709896	0.449674	0.474558
H57	H	0.720399	0.335470	0.408329
H58	H	0.776850	0.348353	0.483774
H59	H	0.768556	0.505735	0.351478
H60	H	0.825009	0.518648	0.426931
C61	C	1.069427	0.050482	0.332481
C62	C	1.020218	0.124937	0.391510
H63	H	1.103876	-0.001608	0.363292
H64	H	1.038203	-0.000571	0.297079
H65	H	1.099584	0.103135	0.297049
H66	H	0.990056	0.072283	0.426939
H67	H	1.051446	0.175994	0.426927
C68	C	1.224670	-0.485948	-0.074025
C69	C	1.218042	-0.404751	0.000138
H70	H	1.272383	-0.535755	-0.074021
H71	H	1.181204	-0.539144	-0.074028
H72	H	1.224930	-0.438007	-0.124324
H73	H	1.217776	-0.452692	0.050438
H74	H	1.261519	-0.351549	0.000149
H75	H	1.201944	-0.145783	0.000133
H76	H	0.796195	-0.339885	0.000066
H77	H	0.525272	0.434383	0.000082
H78	H	1.074405	-0.012603	0.000137
C79	C	0.716026	-0.159334	0.000062
C80	C	0.780101	-0.080907	0.000069
H81	H	0.668321	-0.109509	0.000057
H82	H	0.720530	-0.214422	-0.050240
H83	H	0.715768	-0.207246	0.050374
H84	H	0.780363	-0.033001	-0.050247
H85	H	0.775595	-0.025797	0.050377
H86	H	0.841845	0.394926	0.786365
H87	H	1.013520	0.135024	0.213836
H88	H	1.033743	0.104508	0.786370
C89	C	1.100816	0.002952	0.667712
C90	C	1.057183	0.068987	0.608684
H91	H	1.138151	-0.053574	0.636900
H92	H	1.127648	0.060645	0.703117
H93	H	1.066239	-0.043018	0.703141
H94	H	1.091759	0.114964	0.573259
H95	H	1.030349	0.011286	0.573264
H96	H	0.330084	0.095555	0.000124
H97	H	0.849607	0.383135	0.621632
H98	H	0.821616	0.425431	0.213832
C99	C	0.622051	0.580159	0.000072
C100	C	0.682920	0.487373	0.000066
H101	H	0.643893	0.660781	0.000076
H102	H	0.592868	0.567733	-0.050230
H103	H	0.588118	0.574899	0.050385
H104	H	0.716850	0.492626	-0.050250
H105	H	0.712116	0.499803	0.050373
C106	C	0.465459	0.002181	0.000101
C107	C	0.547781	-0.011415	0.000103
H108	H	0.443619	-0.078443	0.000098
H109	H	0.446088	0.050680	0.050405
H110	H	0.450842	0.043510	-0.050210
H111	H	0.562398	-0.052736	0.050417
H112	H	0.567159	-0.059934	-0.050206
C113	C	0.389910	0.527748	0.000024
C114	C	0.307588	0.541351	0.000052
H115	H	0.411754	0.608367	-0.000024
H116	H	0.404542	0.486472	0.050341
H117	H	0.409264	0.479196	-0.050273
H118	H	0.288233	0.589896	0.050353
H119	H	0.292949	0.582647	-0.050271
C120	C	0.798220	0.045079	0.000090
C121	C	0.719587	0.010733	0.000091
H122	H	0.831914	-0.028385	0.000099
H123	H	0.810416	0.089851	-0.050217
H124	H	0.805660	0.097049	0.050398
H125	H	0.712146	-0.041230	-0.050220
H126	H	0.707388	-0.034059	0.050404
H127	H	0.149924	0.488363	0.000104
H128	H	1.066524	-0.488698	0.000102
