data_functionalizedCrystal
_audit_creation_method	'MofGen! by Chris Wilmer'
_symmetry_space_group_name_H-M	'P1'
_symmetry_Int_Tables_number	1
_symmetry_cell_setting	triclinic
loop_
_symmetry_equiv_pos_as_xyz
  x,y,z
_cell_length_a	17.699083
_cell_length_b	14.044220
_cell_length_c	16.776229
_cell_angle_alpha	89.992645
_cell_angle_beta	89.998886
_cell_angle_gamma	88.235946
loop_
_atom_site_label
_atom_site_type_symbol
_atom_site_fract_x
_atom_site_fract_y
_atom_site_fract_z
O1	O	1.012346	0.119850	-0.066178
O2	O	0.793043	0.135443	-0.066204
O3	O	0.899403	-0.010330	-0.066183
O4	O	0.905986	0.265624	-0.066198
O5	O	0.899387	-0.010339	0.066393
O6	O	0.793027	0.135434	0.066372
O7	O	1.012330	0.119841	0.066399
Zn8	Zn	0.902676	0.127636	0.087435
Zn9	Zn	0.902697	0.127648	-0.087240
O10	O	0.905970	0.265615	0.066378
C11	C	0.764800	0.134880	0.000081
C12	C	0.680666	0.133204	0.000071
C13	C	0.637948	0.218769	0.000067
C14	C	0.558895	0.217189	0.000077
C15	C	0.522563	0.130041	0.000086
C16	C	0.565287	0.044469	0.000093
C17	C	0.644338	0.046050	0.000088
C18	C	0.246484	0.038089	0.000113
C19	C	0.167427	0.036514	0.000115
C20	C	0.161041	0.209227	0.000102
C21	C	0.240092	0.210809	0.000097
C22	C	0.282809	0.125237	0.000108
C23	C	0.368527	0.126952	0.000098
C24	C	0.436847	0.128325	0.000090
C25	C	0.896513	-0.045643	0.000105
C26	C	0.887917	-0.150849	0.000105
C27	C	0.872202	-0.343474	0.000091
C28	C	0.933168	-0.401248	0.000096
C29	C	0.924424	-0.508431	0.000089
C30	C	0.880945	-0.236281	0.000099
C31	C	1.040574	0.120404	0.000112
C32	C	1.124707	0.122081	0.000117
C33	C	0.908860	0.300927	0.000088
C34	C	0.917456	0.406133	0.000083
N35	N	0.902667	0.127628	0.206646
N36	N	0.902712	0.127649	-0.206452
C37	C	0.949781	0.063106	0.248372
C38	C	0.949785	0.063105	0.331825
C39	C	0.902679	0.127631	0.373549
C40	C	0.855560	0.192156	0.331817
C41	C	0.855552	0.192152	0.248366
C42	C	0.855589	0.192175	0.668364
C43	C	0.855601	0.192176	0.751821
C44	C	0.949821	0.063128	0.751822
C45	C	0.949813	0.063123	0.668372
C46	C	0.902692	0.127645	0.626647
C47	C	0.902687	0.127644	0.536159
C48	C	0.902687	0.127638	0.464036
H49	H	0.524117	0.286865	0.000073
C50	C	0.803731	0.263126	0.202464
H51	H	0.810467	0.253876	0.146788
H52	H	0.816215	0.326368	0.216128
H53	H	0.752531	0.252905	0.216149
H54	H	0.269670	0.281773	0.000086
C55	C	0.803746	0.263136	0.377712
H56	H	0.810503	0.253906	0.433388
H57	H	0.752545	0.252924	0.364045
H58	H	0.816237	0.326377	0.364022
C59	C	1.001646	-0.007855	0.797722
H60	H	0.994900	0.001378	0.853398
H61	H	1.052844	0.002358	0.784039
H62	H	0.989154	-0.071098	0.784052
H63	H	0.667523	0.289735	0.000059
C64	C	1.012550	-0.359328	0.000124
H65	H	1.008092	-0.291742	0.000136
H66	H	1.039280	-0.380169	-0.046101
H67	H	1.039246	-0.380197	0.046370
C68	C	0.114054	0.303359	0.000095
H69	H	0.147015	0.355485	0.000079
H70	H	0.083084	0.306338	0.046328
H71	H	0.083083	0.306330	-0.046142
C72	C	0.127463	-0.059353	0.000133
H73	H	0.164225	-0.110091	0.000147
H74	H	0.096756	-0.063562	-0.046097
H75	H	0.096759	-0.063551	0.046374
C76	C	0.792824	-0.385390	0.000081
H77	H	0.755718	-0.335048	0.000074
H78	H	0.786884	-0.423501	0.046309
H79	H	0.786895	-0.423476	-0.046161
C80	C	0.293463	-0.056036	0.000120
H81	H	0.260501	-0.108162	0.000117
H82	H	0.324434	-0.059016	0.046351
H83	H	0.324432	-0.059009	-0.046119
H84	H	0.679119	-0.023626	0.000091
H85	H	0.535699	-0.026488	0.000112
H86	H	0.988143	0.010565	0.214406
H87	H	0.988148	0.010565	0.365798
H88	H	0.988174	0.010583	0.634402
C89	C	0.803768	0.263142	0.797716
H90	H	0.775694	0.301558	0.760915
H91	H	0.833643	0.302560	0.830266
H92	H	0.769975	0.229075	0.830274
C93	C	0.803764	0.263153	0.622477
H94	H	0.775719	0.301589	0.659281
H95	H	0.769957	0.229113	0.589932
H96	H	0.833650	0.302565	0.589915
