data_functionalizedCrystal
_audit_creation_method	'MofGen! by Chris Wilmer'
_symmetry_space_group_name_H-M	'P1'
_symmetry_Int_Tables_number	1
_symmetry_cell_setting	triclinic
loop_
_symmetry_equiv_pos_as_xyz
  x,y,z
_cell_length_a	23.532407
_cell_length_b	15.538191
_cell_length_c	14.750779
_cell_angle_alpha	82.427828
_cell_angle_beta	77.433997
_cell_angle_gamma	114.939614
loop_
_atom_site_label
_atom_site_type_symbol
_atom_site_fract_x
_atom_site_fract_y
_atom_site_fract_z
O1	O	-0.168713	-1.231045	-0.079813
O2	O	-0.102826	-0.956168	-0.079822
O3	O	-0.220390	-1.101900	-0.079800
O4	O	-0.051149	-1.085313	-0.079835
O5	O	-0.253621	-1.143097	0.079857
O6	O	-0.136057	-0.997364	0.079835
O7	O	-0.201944	-1.272242	0.079843
Zn8	Zn	-0.174277	-1.141344	0.105188
Zn9	Zn	-0.130493	-1.087066	-0.105166
O10	O	-0.084380	-1.126510	0.079821
C11	C	-0.112548	-0.941606	0.000006
C12	C	-0.092014	-0.836839	0.000003
C13	C	-0.258136	-1.122077	0.000031
C14	C	-0.321097	-1.120810	0.000038
N15	N	-0.204160	-1.178395	0.248749
C16	C	-0.736103	-1.199074	-0.000012
C17	C	-0.795262	-1.197893	-0.000019
O18	O	-0.846752	-1.270448	-0.000052
N19	N	-0.800275	-1.111258	-0.000021
C20	C	-0.746122	-1.025796	-0.000026
O21	O	-0.755818	-0.951997	-0.000029
C22	C	-0.686963	-1.026976	-0.000025
C23	C	-0.681957	-1.113619	-0.000013
C24	C	-0.731095	-1.285710	-0.000001
C25	C	-0.671940	-1.286891	0.000008
C26	C	-0.617794	-1.201436	0.000006
C27	C	-0.622802	-1.114800	-0.000004
C28	C	-0.632810	-0.941513	-0.000037
C29	C	-0.573649	-0.942701	-0.000037
C30	C	-0.568643	-1.029344	-0.000025
C31	C	-0.509501	-1.030526	0.000003
N32	N	-0.504489	-1.117161	0.000005
C33	C	-0.558635	-1.202616	0.000007
C34	C	-0.870362	-1.023324	-0.000028
C35	C	-0.929521	-1.022144	-0.000022
C36	C	-0.978656	-1.194241	-0.000017
C37	C	-0.919497	-1.195421	-0.000017
C38	C	-0.865349	-1.109959	-0.000026
C39	C	-0.434404	-1.205090	0.000027
C40	C	-0.375243	-1.206264	0.000040
C41	C	-0.326112	-1.034167	0.000030
C42	C	-0.385268	-1.032993	0.000022
C43	C	-0.439415	-1.118461	0.000017
O44	O	-0.457984	-0.958008	0.000032
O45	O	-0.548925	-1.276399	-0.000002
C46	C	-0.046633	-1.106332	-0.000012
C47	C	0.016329	-1.107598	-0.000025
C48	C	-0.192222	-1.286804	0.000014
C49	C	-0.212754	-1.391568	0.000010
C50	C	-0.296010	-0.550965	0.000031
C51	C	-0.276701	-0.452517	0.000026
C52	C	-0.168092	-0.429052	0.000004
C53	C	-0.187393	-0.527501	0.000013
C54	C	-0.251353	-0.588450	0.000026
C55	C	-0.142735	-0.564986	0.000008
C56	C	-0.162034	-0.663425	0.000012
C57	C	-0.225990	-0.724379	0.000022
C58	C	-0.270651	-0.686889	0.000030
C59	C	-0.078774	-0.504034	-0.000012
C60	C	-0.034116	-0.541519	-0.000017
C61	C	-0.053416	-0.639961	-0.000006
C62	C	-0.117373	-0.700915	0.000004
C63	C	-0.008755	-0.677451	-0.000014
C64	C	-0.028054	-0.775891	-0.000010
C65	C	-0.136672	-0.799354	0.000008
N66	N	-0.100616	-1.050023	-0.248728
C67	C	-0.017183	-0.946546	0.600532
C68	C	-0.038120	-0.972516	0.701035
C69	C	-0.142200	-1.101588	0.701018
C70	C	-0.121272	-1.075626	0.600512
C71	C	-0.058763	-0.998105	0.550278
C72	C	-0.162853	-1.127185	0.550258
C73	C	-0.141925	-1.101228	0.449762
C74	C	-0.079417	-1.023713	0.399520
C75	C	-0.037835	-0.972148	0.449781
C76	C	-0.225360	-1.204710	0.600495
C77	C	-0.266941	-1.256269	0.550240
C78	C	-0.246015	-1.230308	0.449742
C79	C	-0.183507	-1.152792	0.399500
C80	C	-0.287597	-1.281872	0.399480
C81	C	-0.266669	-1.255915	0.298984
C82	C	-0.162579	-1.126836	0.299004
H83	H	-0.371174	-1.276823	0.000052
H84	H	0.013064	-0.909017	0.408878
H85	H	-0.338490	-1.344996	0.440395
H86	H	-0.116014	-0.379414	-0.000011
H87	H	0.033716	-0.883414	0.559629
H88	H	-0.933593	-0.951595	-0.000015
H89	H	-0.241700	-0.804531	0.000013
H90	H	0.017961	-0.491880	-0.000031
H91	H	-1.022753	-1.263822	-0.000020
H92	H	-0.063063	-0.423878	-0.000018
H93	H	0.043323	-0.627810	-0.000034
H94	H	-0.300528	-1.297902	0.258066
H95	H	-0.529561	-0.873104	-0.000046
H96	H	-0.062378	-1.002583	0.317689
H97	H	-0.313071	-0.422002	0.000029
H98	H	-0.317836	-1.319390	0.591153
H99	H	0.008309	-0.806413	-0.000005
H100	H	-0.915427	-1.265973	-0.000008
H101	H	-0.322735	-0.736519	0.000046
H102	H	-0.636872	-0.870958	-0.000052
H103	H	-0.478484	-1.274686	0.000019
H104	H	-0.826275	-0.953727	-0.000028
H105	H	-0.004255	-0.930524	0.741948
H106	H	-0.188755	-0.848985	0.000024
H107	H	-0.667871	-1.357443	0.000014
H108	H	-0.348094	-0.600595	0.000047
H109	H	-0.111680	-1.063704	0.258101
H110	H	-0.242396	-1.225844	0.682325
H111	H	-0.193095	-1.164709	0.741930
H112	H	-0.775177	-1.355300	-0.000003
H113	H	-0.389349	-0.962448	0.000039
H114	H	-0.282016	-0.964593	0.000032
