data_functionalizedCrystal
_audit_creation_method	'MofGen! by Chris Wilmer'
_symmetry_space_group_name_H-M	'P1'
_symmetry_Int_Tables_number	1
_symmetry_cell_setting	triclinic
loop_
_symmetry_equiv_pos_as_xyz
  x,y,z
_cell_length_a	20.919309
_cell_length_b	14.446369
_cell_length_c	14.446369
_cell_angle_alpha	60.000250
_cell_angle_beta	90.000599
_cell_angle_gamma	57.442498
loop_
_atom_site_label
_atom_site_type_symbol
_atom_site_fract_x
_atom_site_fract_y
_atom_site_fract_z
Zr1	Zr	0.641770	0.940909	-0.085371
O2	O	0.535401	1.146008	-0.239172
O3	O	0.674378	0.744118	-0.038216
O4	O	0.674379	0.937226	-0.231335
O5	O	0.535399	0.952908	0.106276
O6	O	0.784009	0.924871	-0.225160
O7	O	0.535399	0.952899	-0.046053
O8	O	0.784006	0.579435	0.120295
O9	O	0.535402	1.298343	-0.239179
O10	O	0.770101	0.812764	-0.013504
O11	O	0.688285	0.821990	0.095569
O12	O	0.688287	1.049350	-0.131804
O13	O	0.606471	1.058577	-0.022731
Zr14	Zr	0.816617	0.921217	0.167425
Zr15	Zr	0.816617	0.921204	-0.075522
Zr16	Zr	0.641770	0.940922	0.157576
Zr17	Zr	0.641772	1.183867	-0.085382
Zr18	Zr	0.816615	0.678260	0.167436
O19	O	0.784009	1.118009	0.120270
O20	O	0.784010	1.117990	-0.225169
O21	O	0.535400	1.146027	0.106267
O22	O	0.922986	0.716119	0.321227
O23	O	0.922987	0.716100	-0.024213
O24	O	0.674377	0.744137	0.307223
O25	O	0.922988	0.909219	-0.024221
O26	O	0.784008	0.924901	0.313389
O27	O	0.674378	0.937256	0.307214
O28	O	0.922988	0.909227	0.128107
O29	O	0.674381	1.282681	-0.231351
O30	O	0.784006	0.579446	0.313405
O31	O	0.922985	0.563783	0.321233
O32	O	0.922986	0.563773	0.128123
O33	O	0.535401	1.298354	-0.046069
O34	O	0.674381	1.282691	-0.038241
O35	O	0.770100	0.812776	0.213858
O36	O	0.851916	0.803549	0.104786
O37	O	0.770102	1.040136	-0.013514
O38	O	0.688287	1.049363	0.095558
C39	C	0.729192	0.627160	0.041041
C40	C	0.729191	0.524018	0.041046
C41	C	0.510487	0.955711	0.028708
C42	C	0.436260	0.964076	0.024527
C43	C	0.677837	0.382800	0.110180
C44	C	0.677558	0.490451	0.109873
C45	C	0.691549	0.577250	-0.084610
C46	C	0.691163	0.470060	-0.084257
C47	C	0.818223	0.280529	0.096505
C48	C	0.818092	0.386695	0.099019
C49	C	0.444092	0.844513	0.084308
C50	C	0.374345	0.852382	0.080377
C51	C	0.296767	0.979814	0.016657
C52	C	0.288937	1.099385	-0.043126
C53	C	0.358683	1.091516	-0.039187
C54	C	0.084043	1.009753	0.001683
C55	C	0.014295	1.017613	-0.002254
C56	C	0.099708	0.770608	0.121251
C57	C	0.169452	0.762750	0.125178
C58	C	0.161616	0.882322	0.065400
C59	C	0.225474	0.987859	0.012635
C60	C	0.232908	0.874275	0.069430
C61	C	0.947900	0.906415	0.053346
C62	C	1.022127	0.898050	0.057527
C63	C	0.729194	0.931047	-0.262862
C64	C	0.729194	0.931041	-0.366000
C65	C	0.729195	1.234966	0.041013
C66	C	0.729196	1.338108	0.041009
C67	C	0.781051	0.781812	-0.438054
C68	C	0.780826	0.781740	-0.330738
C69	C	0.640296	1.012287	-0.445570
C70	C	0.640580	1.011345	-0.552413
C71	C	0.765517	1.000218	-0.546949
C72	C	0.767316	0.997313	-0.438176
C73	C	0.729193	0.931080	0.344917
C74	C	0.729193	0.931086	0.448054
C75	C	0.947898	0.602512	0.053360
C76	C	1.022124	0.491005	0.057546
C77	C	0.729191	0.627177	0.344930
C78	C	0.729190	0.524041	0.448072
C79	C	0.947898	0.602529	0.357250
C80	C	1.022124	0.491028	0.464572
C81	C	0.510489	1.259597	-0.275195
C82	C	0.436263	1.371099	-0.382518
C83	C	0.510489	1.259614	0.028694
C84	C	0.436263	1.371121	0.024508
C85	C	0.729196	1.234950	-0.262876
C86	C	0.729197	1.338086	-0.366018
C87	C	1.014275	0.443450	-0.002245
C88	C	1.084012	0.338691	0.001665
C89	C	1.161597	0.281483	0.065373
C90	C	1.169445	0.329048	0.125165
C91	C	1.099709	0.433812	0.121248
C92	C	1.099695	0.433848	0.458038
C93	C	1.169445	0.329094	0.558870
C94	C	1.161622	0.281513	0.666236
C95	C	1.084042	0.338703	0.672768
C96	C	1.014294	0.443463	0.571937
C97	C	0.358692	1.428290	-0.375984
C98	C	0.288942	1.533075	-0.476816
C99	C	0.296765	1.580660	-0.584182
C100	C	0.374345	1.523464	-0.590714
C101	C	0.444093	1.418688	-0.489882
C102	C	0.444112	1.418687	0.084289
C103	C	0.374375	1.523472	0.080352
C104	C	0.296790	1.580684	0.016641
C105	C	0.288943	1.533114	-0.043146
C106	C	0.358678	1.428337	-0.039216
C107	C	0.677339	0.383570	0.520141
C108	C	0.677559	0.490466	0.412820
C109	C	0.818090	0.387169	0.527639
C110	C	0.817811	0.279825	0.634487
C111	C	0.692875	0.468878	0.629028
C112	C	0.691072	0.577551	0.520250
H113	H	0.702808	0.450901	0.202262
O114	O	1.075616	0.287366	0.788577
H115	H	1.009959	0.344723	0.776196
H116	H	1.077606	0.299978	-0.047025
H117	H	0.352276	1.389613	-0.087894
O118	O	1.108185	0.485072	0.185765
H119	H	1.078466	0.595322	0.124201
O120	O	0.590573	0.617892	0.058598
H121	H	0.590069	0.695308	0.058210
O122	O	0.867535	0.697900	-0.253920
H123	H	0.875013	0.763127	-0.243698
O124	O	0.715731	1.145790	-0.653359
H125	H	0.755394	1.159374	-0.700478
O126	O	0.607467	0.530942	0.629648
H127	H	0.605430	0.532206	0.705810
H128	H	0.240013	1.665999	0.013450
H129	H	0.232616	0.658981	0.177043
H130	H	0.702953	0.291106	0.202788
O131	O	0.856892	0.331698	0.461486
H132	H	0.820159	0.312313	0.430164
H133	H	0.352301	1.188877	-0.087853
O134	O	0.930630	0.505097	0.579002
H135	H	0.923536	0.550033	0.625671
O136	O	0.590847	0.618576	0.336010
H137	H	0.548378	0.604562	0.375361
O138	O	0.527789	1.356993	0.153006
H139	H	0.561606	1.371767	0.094994
H140	H	1.218374	0.196178	0.068554
O141	O	0.205259	1.594825	-0.111863
H142	H	0.158094	1.675663	-0.104535
H143	H	0.730468	0.439855	0.709361
H144	H	0.352306	1.389553	-0.288571
H145	H	1.106081	0.472572	0.370625
O146	O	0.856319	0.155269	0.636305
H147	H	0.874961	0.172123	0.561008
H148	H	0.849673	0.183243	0.187843
O149	O	0.205277	1.594727	-0.469742
H150	H	0.171454	1.705435	-0.512929
O151	O	0.871787	0.234041	0.741620
H152	H	0.835100	0.257472	0.793221
H153	H	0.380781	1.562185	0.129044
H154	H	0.612555	0.425918	0.071798
H155	H	0.239965	1.665976	-0.666276
H156	H	0.380705	1.562221	-0.678143
H157	H	0.106079	0.673260	0.169919
H158	H	0.846214	0.343930	0.191612
O159	O	1.253104	0.267469	0.551777
H160	H	1.286907	0.282310	0.594954
O161	O	0.604319	0.707202	0.447257
H162	H	0.588410	0.733436	0.359932
H163	H	0.599839	1.121169	-0.633292
O164	O	0.590414	0.442613	0.512172
H165	H	0.583241	0.440210	0.589294
O166	O	0.735907	0.615040	0.556604
H167	H	0.786288	0.596024	0.523655
H168	H	0.611010	0.966115	-0.395615
O169	O	0.527760	1.356988	-0.496936
H170	H	0.521473	1.407676	-0.588536
O171	O	0.710413	0.261069	0.520635
H172	H	0.662207	0.250278	0.514522
O173	O	1.253127	0.267339	0.193882
H174	H	1.286932	0.156629	0.261374
O175	O	0.604388	0.533727	-0.142668
H176	H	0.563095	0.640632	-0.170894
H177	H	1.218422	0.196211	0.748331
O178	O	0.710853	0.437151	0.343380
H179	H	0.726878	0.334815	0.386426
O180	O	0.871500	0.410620	0.566699
H181	H	0.845677	0.452683	0.615458
H182	H	0.951107	0.490028	-0.054136
H183	H	0.726155	0.444145	-0.138897
H184	H	0.727159	0.602019	-0.138619
O185	O	-0.069385	1.155063	-0.070973
H186	H	-0.063117	1.236888	-0.111869
H187	H	0.626663	0.676867	-0.128953
H188	H	0.859583	0.403519	0.054327
H189	H	0.856669	0.250219	0.046432
H190	H	0.380729	0.755021	0.129059
O191	O	0.527765	0.707068	0.153035
H192	H	0.521490	0.625252	0.193952
H193	H	0.077652	1.107116	-0.047013
H194	H	0.225767	1.203143	-0.095001
H195	H	0.296075	0.770520	0.121315
O196	O	0.850923	0.929799	-0.547578
H197	H	0.868435	0.844730	-0.551459
H198	H	0.162302	1.091615	-0.039245
O199	O	0.867987	0.697446	-0.430060
H200	H	0.909925	0.660678	-0.351637
O201	O	0.747995	0.711323	-0.438531
H202	H	0.683616	0.768900	-0.444891
O203	O	0.747446	0.711014	-0.261364
H204	H	0.684244	0.766065	-0.314905
O205	O	0.602210	0.948342	-0.553976
H206	H	0.538583	1.009401	-0.558566
O207	O	0.586865	1.158022	-0.484585
H208	H	0.623193	1.174131	-0.447593
H209	H	0.832812	0.937986	-0.383067
H210	H	0.733472	1.105803	-0.465603
