data_functionalizedCrystal
_audit_creation_method	'MofGen! by Chris Wilmer'
_symmetry_space_group_name_H-M	'P1'
_symmetry_Int_Tables_number	1
_symmetry_cell_setting	triclinic
loop_
_symmetry_equiv_pos_as_xyz
  x,y,z
_cell_length_a	31.640172
_cell_length_b	31.640171
_cell_length_c	18.878441
_cell_angle_alpha	59.980158
_cell_angle_beta	90.003166
_cell_angle_gamma	59.992468
loop_
_atom_site_label
_atom_site_type_symbol
_atom_site_fract_x
_atom_site_fract_y
_atom_site_fract_z
Zr1	Zr	0.407057	0.462742	-0.093233
O2	O	0.339544	0.550957	-0.206424
O3	O	0.427770	0.374533	-0.058485
O4	O	0.427746	0.462740	-0.206334
O5	O	0.339566	0.462749	0.057996
O6	O	0.497303	0.462731	-0.206319
O7	O	0.339567	0.462750	-0.058575
O8	O	0.497345	0.304945	0.058156
O9	O	0.339525	0.620536	-0.206478
O10	O	0.488493	0.410806	-0.043713
O11	O	0.436583	0.410811	0.043271
O12	O	0.436556	0.514664	-0.130802
O13	O	0.384646	0.514670	-0.043818
Zr14	Zr	0.517991	0.462726	0.092709
Zr15	Zr	0.517992	0.462728	-0.093208
Zr16	Zr	0.407056	0.462740	0.092684
Zr17	Zr	0.407027	0.573712	-0.093320
Zr18	Zr	0.518021	0.351757	0.092796
O19	O	0.497278	0.550935	0.057962
O20	O	0.497279	0.550938	-0.206388
O21	O	0.339542	0.550955	0.057926
O22	O	0.585504	0.374511	0.205900
O23	O	0.585506	0.374513	-0.058450
O24	O	0.427768	0.374531	0.205864
O25	O	0.585482	0.462719	-0.058520
O26	O	0.497302	0.462728	0.205810
O27	O	0.427744	0.462737	0.205795
O28	O	0.585481	0.462718	0.058051
O29	O	0.427704	0.620525	-0.206459
O30	O	0.497344	0.304943	0.205935
O31	O	0.585523	0.304932	0.205955
O32	O	0.585524	0.304934	0.058175
O33	O	0.339524	0.620535	-0.058699
O34	O	0.427703	0.620524	-0.058680
O35	O	0.488492	0.410804	0.130278
O36	O	0.540402	0.410798	0.043294
O37	O	0.488465	0.514657	-0.043795
O38	O	0.436555	0.514663	0.043189
C39	C	0.462562	0.323928	-0.000152
C40	C	0.462574	0.276818	-0.000115
C41	C	0.435427	-0.059401	0.045150
C42	C	0.435455	0.117553	0.045227
O43	O	0.412431	0.140417	0.083879
N44	N	0.462555	0.139678	-0.000169
C45	C	0.489653	0.117560	-0.045583
O46	O	0.512709	0.140435	-0.084186
C47	C	0.489629	-0.059396	-0.045654
C48	C	0.462522	-0.081515	-0.000262
C49	C	0.408324	-0.081521	0.090539
C50	C	0.408315	-0.125754	0.090516
C51	C	0.435410	-0.147868	0.045104
C52	C	0.462513	-0.125749	-0.000285
C53	C	0.516729	-0.081517	-0.091062
C54	C	0.516722	-0.125760	-0.091074
C55	C	0.489615	-0.147878	-0.045682
C56	C	0.489599	-0.192096	-0.045721
N57	N	0.462499	-0.214222	-0.000325
C58	C	0.435404	-0.192108	0.045087
C59	C	0.489664	0.210465	-0.045544
C60	C	0.489669	0.254704	-0.045528
C61	C	0.435472	0.254693	0.045284
C62	C	0.435463	0.210456	0.045262
C63	C	0.462563	0.188339	-0.000148
C64	C	0.435387	-0.285001	0.045034
C65	C	0.435379	-0.329236	0.045004
C66	C	0.489578	-0.329224	-0.045804
C67	C	0.489585	-0.284990	-0.045777
C68	C	0.462488	-0.262881	-0.000352
O69	O	0.512615	-0.214992	-0.084345
O70	O	0.412361	-0.215000	0.083700
C71	C	0.435436	-0.015168	0.045174
C72	C	0.462540	0.006952	-0.000215
C73	C	0.489635	-0.015162	-0.045627
C74	C	0.462546	0.051191	-0.000199
C75	C	0.435451	0.073305	0.045214
C76	C	0.408351	0.051180	0.090610
C77	C	0.408342	0.006946	0.090586
C78	C	0.516735	0.006963	-0.091023
C79	C	0.516741	0.051197	-0.090997
C80	C	0.489647	0.073311	-0.045585
C81	C	0.323761	0.462752	-0.000293
C82	C	0.276666	0.462758	-0.000303
C83	C	0.011770	0.408515	0.045215
C84	C	-0.165215	0.408505	0.045232
O85	O	-0.165044	0.362398	0.083926
N86	N	-0.214455	0.462718	-0.000228
C87	C	-0.219449	0.516937	-0.045692
O88	O	-0.265392	0.563048	-0.084351
C89	C	-0.042464	0.516947	-0.045704
C90	C	0.006776	0.462730	-0.000247
C91	C	0.061008	0.354304	0.090669
C92	C	0.105252	0.354307	0.090660
C93	C	0.100257	0.408522	0.045198
C94	C	0.051019	0.462733	-0.000256
C95	C	-0.047458	0.571165	-0.091162
C96	C	-0.003207	0.571163	-0.091159
C97	C	0.046033	0.516946	-0.045702
C98	C	0.090268	0.516952	-0.045726
N99	N	0.139509	0.462739	-0.000266
C100	C	0.144503	0.408524	0.045196
C101	C	-0.312366	0.516928	-0.045684
C102	C	-0.356612	0.516926	-0.045683
C103	C	-0.302375	0.408494	0.045243
C104	C	-0.258129	0.408496	0.045236
C105	C	-0.263126	0.462715	-0.000223
C106	C	0.237415	0.408535	0.045174
C107	C	0.281660	0.408543	0.045159
C108	C	0.227419	0.516974	-0.045763
C109	C	0.183178	0.516967	-0.045751
C110	C	0.188180	0.462742	-0.000276
O111	O	0.090137	0.563034	-0.084392
O112	O	0.190450	0.362420	0.083866
C113	C	-0.032473	0.408512	0.045224
C114	C	-0.081711	0.462724	-0.000230
C115	C	-0.086705	0.516939	-0.045692
C116	C	-0.125957	0.462722	-0.000228
C117	C	-0.120962	0.408507	0.045234
C118	C	-0.071722	0.354294	0.090695
C119	C	-0.027478	0.354297	0.090686
C120	C	-0.135946	0.571152	-0.091153
C121	C	-0.180187	0.571144	-0.091141
C122	C	-0.175192	0.516929	-0.045679
C123	C	0.601287	0.462717	-0.000231
C124	C	0.648382	0.462711	-0.000220
C125	C	0.462525	0.462736	-0.232816
C126	C	0.462525	0.462737	-0.311742
C127	C	0.462486	0.601540	-0.000372
C128	C	0.462473	0.648650	-0.000409
C129	C	0.500845	0.462733	-0.348813
C130	C	0.500847	0.462728	-0.422969
C131	C	0.462526	0.462732	-0.460055
C132	C	0.424205	0.462734	-0.422977
C133	C	0.424206	0.462734	-0.348820
C134	C	0.424205	0.462735	-0.577547
C135	C	0.424203	0.462735	-0.651711
C136	C	0.500846	0.462729	-0.651696
C137	C	0.500847	0.462729	-0.577538
C138	C	0.462524	0.462732	-0.540466
C139	C	0.462523	0.462732	0.232292
C140	C	0.462523	0.462731	0.311218
C141	C	0.601325	0.323910	-0.000121
C142	C	0.648433	0.276795	-0.000074
C143	C	0.462561	0.323926	0.232401
C144	C	0.462573	0.276816	0.311365
C145	C	0.601324	0.323908	0.232432
C146	C	0.648431	0.276792	0.311407
C147	C	0.323724	0.601560	-0.232956
C148	C	0.276617	0.648676	-0.311930
C149	C	0.323723	0.601558	-0.000403
C150	C	0.276615	0.648673	-0.000450
C151	C	0.462487	0.601542	-0.232925
C152	C	0.462475	0.648652	-0.311889
C153	C	0.643459	0.254673	-0.045476
C154	C	0.687718	0.210409	-0.045448
C155	C	0.736949	0.188265	-0.000013
C156	C	0.741922	0.210392	0.045390
C157	C	0.697664	0.254658	0.045357
C158	C	0.489675	0.254689	0.393872
C159	C	0.489685	0.210430	0.468074
C160	C	0.462595	0.188296	0.459767
C161	C	0.435490	0.210427	0.377252
C162	C	0.435477	0.254689	0.303051
C163	C	0.697655	0.254663	0.303089
C164	C	0.741921	0.210399	0.377287
C165	C	0.736964	0.188261	0.459801
C166	C	0.687735	0.210395	0.468117
C167	C	0.643470	0.254662	0.393920
C168	C	0.227393	0.670811	-0.303613
C169	C	0.183127	0.715089	-0.377811
C170	C	0.188084	0.737228	-0.460325
C171	C	0.237313	0.715092	-0.468641
C172	C	0.281578	0.670818	-0.394444
C173	C	0.281589	0.670800	0.044944
C174	C	0.237330	0.715076	0.044896
C175	C	0.188099	0.737222	-0.000542
C176	C	0.183126	0.715093	-0.045942
C177	C	0.227384	0.670821	-0.045898
C178	C	0.489570	0.670772	-0.303554
C179	C	0.489568	0.715031	-0.377742
C180	C	0.462468	0.737173	-0.460264
C181	C	0.435373	0.715049	-0.468596
C182	C	0.435378	0.670787	-0.394409
H183	H	0.413321	-0.267004	0.082022
H184	H	0.701701	0.272681	0.235908
Cl185	Cl	0.549018	0.462730	-0.530918
H186	H	0.241343	0.733124	-0.535833
H187	H	0.782001	0.192382	0.370500
H188	H	0.152065	0.773271	-0.000570
Cl189	Cl	0.581573	0.282504	-0.102606
H190	H	0.683659	0.192399	-0.082421
Cl191	Cl	0.121246	0.742906	-0.367336
H192	H	0.413312	0.652782	-0.401208
Cl193	Cl	0.376032	0.462734	-0.469595
Cl194	Cl	-0.196230	0.340337	0.102386
H195	H	0.773012	0.152216	0.520210
Cl196	Cl	0.792584	0.132614	0.000022
H197	H	0.413409	0.272707	0.082258
Cl198	Cl	0.034419	0.286136	0.147836
H199	H	-0.220279	0.615297	-0.128166
Cl200	Cl	0.401299	-0.357039	0.102071
Cl201	Cl	0.132430	0.792887	-0.553594
Cl202	Cl	0.550794	-0.020823	-0.148131
H203	H	0.386244	-0.143762	0.127482
Cl204	Cl	0.681511	0.182558	0.571856
Cl205	Cl	0.343457	0.642992	-0.404915
Cl206	Cl	0.523736	0.282503	0.404337
Cl207	Cl	0.343475	0.642972	0.102068
Cl208	Cl	0.374287	0.078990	0.147696
Cl209	Cl	0.374258	-0.053729	0.147639
H210	H	0.511735	0.272717	-0.082501
Cl211	Cl	0.803818	0.182544	0.102509
Cl212	Cl	0.550819	0.079002	-0.148072
H213	H	0.603391	0.272673	0.400704
Cl214	Cl	0.401438	0.182594	0.366823
H215	H	0.462609	0.152256	0.520193
H216	H	0.413391	0.192450	0.082224
H217	H	0.511732	0.192461	-0.082524
H218	H	0.241389	0.733086	0.081870
H219	H	0.538802	-0.063514	-0.128023
H220	H	0.143084	0.561114	-0.082777
Cl221	Cl	0.401301	0.742896	-0.572345
Cl222	Cl	0.121230	0.742937	-0.103055
H223	H	0.223347	0.652787	-0.236432
Cl224	Cl	0.221122	0.643006	-0.102965
H225	H	0.701721	0.272664	0.082334
Cl226	Cl	0.221151	0.585127	-0.102898
Cl227	Cl	0.523765	0.182614	0.571796
Cl228	Cl	0.401406	0.282497	0.199331
Cl229	Cl	0.549021	0.462726	-0.698304
Cl230	Cl	-0.109351	0.639327	-0.148302
H231	H	0.511637	0.652751	-0.236368
Cl232	Cl	0.462466	0.792819	-0.553520
Cl233	Cl	0.523630	0.742839	-0.367247
H234	H	0.538792	-0.143766	-0.128050
H235	H	0.511651	-0.266974	-0.082750
Cl236	Cl	0.343562	0.340380	0.102307
H237	H	0.511637	-0.347234	-0.082781
H238	H	0.386269	-0.011059	0.127549
Cl239	Cl	0.376028	0.462736	-0.530943
Cl240	Cl	0.167149	0.286145	0.147816
Cl241	Cl	0.067300	0.286138	0.147831
Cl242	Cl	-0.296104	0.340338	0.102396
Cl243	Cl	0.243710	0.340366	0.102341
H244	H	0.393003	0.462736	-0.318636
H245	H	-0.316443	0.561082	-0.082709
Cl246	Cl	-0.418510	0.585086	-0.102843
Cl247	Cl	-0.065452	0.286139	0.147844
H248	H	-0.007281	0.615315	-0.128167
Cl249	Cl	-0.142235	0.639315	-0.148312
H250	H	0.532049	0.462724	-0.453151
Cl251	Cl	0.549020	0.462733	-0.302202
Cl252	Cl	0.376028	0.462738	-0.698326
