data_functionalizedCrystal
_audit_creation_method	'MofGen! by Chris Wilmer'
_symmetry_space_group_name_H-M	'P1'
_symmetry_Int_Tables_number	1
_symmetry_cell_setting	triclinic
loop_
_symmetry_equiv_pos_as_xyz
  x,y,z
_cell_length_a	16.625539
_cell_length_b	16.625548
_cell_length_c	16.625546
_cell_angle_alpha	90.023536
_cell_angle_beta	90.030397
_cell_angle_gamma	90.020568
loop_
_atom_site_label
_atom_site_type_symbol
_atom_site_fract_x
_atom_site_fract_y
_atom_site_fract_z
Zn1	Zn	-0.455898	-1.232680	0.320977
Zn2	Zn	-0.321060	-1.232584	0.455820
Zn3	Zn	-0.321078	-1.097842	0.321008
Zn4	Zn	-0.455850	-1.097813	0.455774
O5	O	-0.388471	-1.165230	0.388395
O6	O	-0.438024	-1.345500	0.338871
O7	O	-0.208230	-1.214682	0.437969
O8	O	-0.338990	-1.115782	0.208171
O9	O	-0.338959	-1.345429	0.437940
O10	O	-0.438041	-1.214847	0.208149
O11	O	-0.208243	-1.115688	0.338923
O12	O	-0.338944	-0.985006	0.338878
O13	O	-0.568689	-1.115731	0.437861
O14	O	-0.437960	-0.984984	0.437890
O15	O	-0.568724	-1.214818	0.338826
O16	O	-0.338912	-1.214653	0.568647
O17	O	-0.437942	-1.115637	0.568613
C18	C	-0.388449	-0.955739	0.388383
C19	C	-0.388458	-0.866118	0.388398
C20	C	-0.388438	-1.165153	0.597886
C21	C	-0.388450	-1.165195	0.687507
C22	C	-0.598780	-1.165282	0.388335
C23	C	-0.688402	-1.165305	0.388309
C24	C	-1.016577	-1.165342	0.388219
C25	C	-0.925269	-1.165329	0.388247
C26	C	-0.852492	-1.165324	0.388265
C27	C	-0.761178	-1.165310	0.388291
C28	C	-0.178981	-1.165224	0.388397
C29	C	-0.089360	-1.165358	0.388195
C30	C	-0.388494	-1.375539	0.388407
C31	C	-0.388504	-1.465160	0.388412
C32	C	-0.388493	-0.537942	0.388403
C33	C	-0.388481	-0.629251	0.388399
C34	C	-0.388475	-0.702027	0.388401
C35	C	-0.388464	-0.793341	0.388396
C36	C	-0.388523	-1.165328	0.178086
C37	C	-0.388545	-1.165370	0.088465
C38	C	-0.388534	-1.165335	1.015682
C39	C	-0.388513	-1.165294	0.924374
C40	C	-0.388492	-1.165264	0.851598
C41	C	-0.388471	-1.165224	0.760283
