data_functionalizedCrystal
_audit_creation_method	'MofGen! by Chris Wilmer'
_symmetry_space_group_name_H-M	'P1'
_symmetry_Int_Tables_number	1
_symmetry_cell_setting	triclinic
loop_
_symmetry_equiv_pos_as_xyz
  x,y,z
_cell_length_a	10.540539
_cell_length_b	10.540539
_cell_length_c	9.016244
_cell_angle_alpha	90.005301
_cell_angle_beta	89.999933
_cell_angle_gamma	95.474508
loop_
_atom_site_label
_atom_site_type_symbol
_atom_site_fract_x
_atom_site_fract_y
_atom_site_fract_z
O1	O	0.178895	-1.685893	-0.123263
O2	O	0.195751	-1.316480	-0.123280
O3	O	0.002617	-1.509614	-0.123269
O4	O	0.372030	-1.492759	-0.123274
O5	O	0.002621	-1.509586	0.123411
O6	O	0.195755	-1.316452	0.123400
O7	O	0.178900	-1.685865	0.123418
Cu8	Cu	0.187328	-1.501156	0.145933
Cu9	Cu	0.187323	-1.501189	-0.145795
O10	O	0.372034	-1.492730	0.123407
C11	C	0.194489	-1.269163	0.000058
C12	C	0.190707	-1.128215	0.000051
C13	C	-0.044684	-1.508336	0.000068
C14	C	-0.185632	-1.504554	0.000060
C15	C	0.180161	-1.733182	0.000077
C16	C	0.183943	-1.874130	0.000074
C17	C	-0.369059	-1.359637	-0.000500
C18	C	-0.222441	-1.363471	0.000055
C19	C	-0.247287	-1.572434	0.140930
C20	C	-0.393832	-1.567619	0.141049
C21	C	-0.394355	-1.570520	-0.139473
C22	C	-0.247373	-1.571820	-0.141336
C23	C	0.419335	-1.494008	0.000066
C24	C	0.560283	-1.497790	0.000064
N25	N	0.187331	-1.501141	0.351119
C26	C	0.045790	-0.944788	0.000628
C27	C	0.049624	-1.091406	0.000057
C28	C	0.258600	-1.066558	-0.140811
C29	C	0.253785	-0.920014	-0.140914
C30	C	0.256660	-0.919493	0.139608
C31	C	0.257960	-1.066475	0.141455
N32	N	0.187310	-1.501213	-0.350982
C33	C	0.290298	-1.397510	0.586146
C34	C	0.290684	-1.397739	0.414255
C35	C	0.217464	-1.633864	0.413464
C36	C	0.218193	-1.633298	0.585409
C37	C	0.053892	-1.473367	0.585663
C38	C	0.054757	-1.470322	0.413709
H39	H	-0.179839	-1.310059	-0.100926
H40	H	-0.206517	-1.522153	-0.245547
H41	H	-0.223152	-1.674681	-0.149837
Cl42	Cl	0.176305	-0.876472	-0.303478
Cl43	Cl	-0.040262	-0.900629	0.156597
H44	H	0.313702	-1.658762	0.370386
Cl45	Cl	0.185781	-1.132323	-0.302668
Cl46	Cl	-0.413214	-1.273602	-0.156470
H47	H	0.211004	-0.887935	0.246381
Cl48	Cl	0.410434	-0.845949	-0.150791
Cl49	Cl	-0.039911	-0.898164	-0.154458
Cl50	Cl	-0.032858	-1.157187	0.155954
H51	H	-0.399265	-1.304121	0.099949
H52	H	-0.004177	-1.133163	-0.101092
Cl53	Cl	0.181256	-1.129540	0.302346
H54	H	0.272446	-1.298584	0.627535
Cl55	Cl	0.104815	-1.755925	0.350327
Cl56	Cl	0.418550	-1.101107	-0.148944
H57	H	0.360819	-1.090700	0.149959
H58	H	-0.180683	-1.309661	0.101200
H59	H	0.025213	-1.378630	0.629106
H60	H	-0.441800	-1.669083	0.147444
H61	H	0.315531	-1.657653	0.625498
H62	H	-0.022762	-1.548979	0.626319
H63	H	-0.422030	-1.517429	0.246347
Cl64	Cl	-0.212778	-1.732396	0.149034
Cl65	Cl	0.019487	-1.319576	0.350802
Cl66	Cl	-0.069256	-1.579223	0.347387
Cl67	Cl	-0.181522	-1.499599	0.302779
H68	H	0.358564	-0.872266	0.140559
H69	H	0.272553	-1.299123	0.372106
Cl70	Cl	-0.443053	-1.500029	-0.304320
Cl71	Cl	-0.467270	-1.727850	-0.140934
H72	H	0.388722	-1.415177	0.629339
H73	H	0.389668	-1.415639	0.373108
Cl74	Cl	0.106759	-1.755998	0.649624
