data_functionalizedCrystal
_audit_creation_method	'MofGen! by Chris Wilmer'
_symmetry_space_group_name_H-M	'P1'
_symmetry_Int_Tables_number	1
_symmetry_cell_setting	triclinic
loop_
_symmetry_equiv_pos_as_xyz
  x,y,z
_cell_length_a	14.044191
_cell_length_b	14.044220
_cell_length_c	13.930277
_cell_angle_alpha	89.994760
_cell_angle_beta	89.995225
_cell_angle_gamma	93.190327
loop_
_atom_site_label
_atom_site_type_symbol
_atom_site_fract_x
_atom_site_fract_y
_atom_site_fract_z
O1	O	1.277176	0.230199	-0.079789
O2	O	1.000504	0.221887	-0.079801
O3	O	1.134687	0.087707	-0.079785
O4	O	1.142993	0.364379	-0.079804
O5	O	1.134667	0.087702	0.079876
O6	O	1.000483	0.221882	0.079861
O7	O	1.277156	0.230195	0.079873
Zn8	Zn	1.138816	0.226038	0.105217
Zn9	Zn	1.138843	0.226044	-0.105144
O10	O	1.142972	0.364374	0.079858
C11	C	0.964872	0.218248	0.000029
C12	C	0.858728	0.207401	0.000024
C13	C	0.613270	0.264501	0.000030
C14	C	0.664395	0.187585	0.000034
C15	C	0.772532	0.198613	0.000029
C16	C	0.505123	0.253474	0.000035
C17	C	1.131041	0.052083	0.000046
C18	C	1.120197	-0.054060	0.000046
C19	C	1.100370	-0.248398	0.000032
C20	C	1.177285	-0.299526	0.000032
C21	C	1.166253	-0.407663	0.000024
C22	C	1.111400	-0.140252	0.000040
C23	C	1.312788	0.233834	0.000042
C24	C	1.418931	0.244681	0.000039
C25	C	1.146618	0.399998	0.000025
C26	C	1.157463	0.506142	0.000018
N27	N	1.138805	0.226033	0.248783
N28	N	1.138862	0.226041	-0.248711
C29	C	1.079422	0.285433	0.701045
C30	C	1.198290	0.166650	0.701028
C31	C	1.198278	0.166646	0.600533
C32	C	1.138839	0.226037	0.550289
C33	C	1.079411	0.285433	0.600540
C34	C	1.257712	0.107258	0.550273
C35	C	1.257704	0.107253	0.449772
C36	C	1.198259	0.166640	0.399526
C37	C	1.138828	0.226037	0.449784
C38	C	1.079388	0.285429	0.399540
C39	C	1.019951	0.344822	0.449796
C40	C	1.019966	0.344820	0.550295
C41	C	1.198244	0.166642	0.299027
C42	C	1.079377	0.285429	0.299035
H43	H	0.650711	0.338628	0.000022
F44	F	0.956699	0.408035	0.396312
F45	F	1.274184	-0.250591	0.000044
F46	F	0.956716	0.408028	0.603784
F47	F	1.003478	-0.297333	0.000023
F48	F	1.016106	0.348638	0.245569
H49	H	1.031027	0.333787	0.741966
H50	H	1.246689	0.118300	0.741940
F51	F	1.320976	0.044059	0.603746
F52	F	1.261503	0.103441	0.245547
F53	F	0.615457	0.090687	0.000041
F54	F	1.320958	0.044041	0.396292
