data_functionalizedCrystal
_audit_creation_method	'MofGen! by Chris Wilmer'
_symmetry_space_group_name_H-M	'P1'
_symmetry_Int_Tables_number	1
_symmetry_cell_setting	triclinic
loop_
_symmetry_equiv_pos_as_xyz
  x,y,z
_cell_length_a	17.077404
_cell_length_b	14.908520
_cell_length_c	17.077396
_cell_angle_alpha	86.731679
_cell_angle_beta	90.019501
_cell_angle_gamma	93.320938
loop_
_atom_site_label
_atom_site_type_symbol
_atom_site_fract_x
_atom_site_fract_y
_atom_site_fract_z
Zn1	Zn	1.182024	-0.359154	0.461868
Zn2	Zn	1.174357	-0.510026	0.338173
Zn3	Zn	1.050754	-0.359186	0.330617
Zn4	Zn	1.043152	-0.509972	0.469394
O5	O	1.112572	-0.434584	0.400013
O6	O	1.290853	-0.379177	0.445472
O7	O	1.157933	-0.490052	0.227326
O8	O	1.074557	-0.232937	0.341715
O9	O	1.285220	-0.490021	0.354594
O10	O	1.171001	-0.232913	0.438145
O11	O	1.067123	-0.379231	0.221774
O12	O	0.939899	-0.379179	0.349014
O13	O	1.061601	-0.489930	0.578241
O14	O	0.934314	-0.489961	0.450973
O15	O	1.163629	-0.379125	0.572711
O16	O	1.150562	-0.636263	0.361892
O17	O	1.054166	-0.636224	0.458300
C18	C	0.908625	-0.434568	0.399990
C19	C	0.821374	-0.434583	0.400001
C20	C	0.777492	-0.492354	0.453014
C21	C	0.695511	-0.492356	0.453027
C22	C	0.657414	-0.434591	0.400022
C23	C	0.701302	-0.376813	0.347005
C24	C	0.783282	-0.376807	0.346997
C25	C	0.530432	-0.376831	0.347025
C26	C	0.448447	-0.376837	0.347032
C27	C	0.442661	-0.492380	0.453055
C28	C	0.524640	-0.492374	0.453047
C29	C	0.568523	-0.434597	0.400029
C30	C	1.100728	-0.668978	0.411750
C31	C	1.095734	-0.769252	0.416797
C32	C	1.186828	-0.957658	0.325973
C33	C	1.182137	-1.051875	0.330713
C34	C	1.081667	-1.051904	0.431020
C35	C	1.086357	-0.957687	0.426280
C36	C	1.138939	-0.910568	0.373754
C37	C	1.143625	-0.816349	0.369011
C38	C	1.043159	-0.816380	0.469321
C39	C	1.038468	-0.910597	0.474061
C40	C	1.317315	-0.434601	0.400036
C41	C	1.404564	-0.434609	0.400046
C42	C	1.112622	-0.434518	0.604754
C43	C	1.112644	-0.434490	0.692002
C44	C	1.124482	-0.199276	0.388248
C45	C	1.129558	-0.099001	0.383234
C46	C	1.112569	-0.434585	0.196065
C47	C	1.112713	-0.434360	0.108804
C48	C	1.165772	-0.376788	0.730114
C49	C	1.165783	-0.376758	0.812093
C50	C	1.112669	-0.434435	0.855959
C51	C	1.059535	-0.492138	0.817842
C52	C	1.059521	-0.492163	0.735864
C53	C	1.059569	-0.492084	0.988709
C54	C	1.059584	-0.492061	1.070693
C55	C	1.165832	-0.376679	1.064938
C56	C	1.165818	-0.376704	0.982961
C57	C	1.112684	-0.434409	0.944849
H58	H	0.819010	-0.329759	0.303831
Cl59	Cl	0.982941	-0.757175	0.529382
Cl60	Cl	0.992803	-0.564559	1.125837
Cl61	Cl	1.232629	-0.304137	1.112850
Cl62	Cl	0.992771	-0.564628	0.940799
Cl63	Cl	1.015581	-1.111155	0.497057
Cl64	Cl	1.232595	-0.304201	0.927816
Cl65	Cl	1.232552	-0.304281	0.674977
Cl66	Cl	0.992726	-0.564702	0.687952
Cl67	Cl	0.653409	-0.304187	0.280374
H68	H	1.016286	-0.539096	0.853564
H69	H	0.555656	-0.539416	0.496205
H70	H	0.808504	-0.539396	0.496175
Cl71	Cl	1.209723	-0.757114	0.302976
H72	H	1.221135	-1.090213	0.291806
H73	H	0.417431	-0.329789	0.303879
Cl74	Cl	0.640348	-0.564986	0.519676
Cl75	Cl	0.972372	-0.969841	0.540092
H76	H	1.209048	-0.329774	0.843120
Cl77	Cl	0.585597	-0.304196	0.280373
H78	H	0.406928	-0.539421	0.496226
Cl79	Cl	1.252916	-0.898419	0.259931
