data_functionalizedCrystal
_audit_creation_method	'MofGen! by Chris Wilmer'
_symmetry_space_group_name_H-M	'P1'
_symmetry_Int_Tables_number	1
_symmetry_cell_setting	triclinic
loop_
_symmetry_equiv_pos_as_xyz
  x,y,z
_cell_length_a	16.109302
_cell_length_b	16.992695
_cell_length_c	14.586319
_cell_angle_alpha	89.995905
_cell_angle_beta	89.994552
_cell_angle_gamma	87.065002
loop_
_atom_site_label
_atom_site_type_symbol
_atom_site_fract_x
_atom_site_fract_y
_atom_site_fract_z
O1	O	1.109856	0.100786	-0.076283
O2	O	0.868631	0.113328	-0.076276
O3	O	0.988276	-0.007085	-0.076272
O4	O	0.990210	0.221200	-0.076287
O5	O	0.988267	-0.007087	0.076209
O6	O	0.868622	0.113326	0.076205
O7	O	1.109847	0.100785	0.076198
Cu8	Cu	0.989234	0.107055	0.090124
Cu9	Cu	0.989244	0.107058	-0.090202
O10	O	0.990201	0.221198	0.076194
C11	C	0.837618	0.112819	-0.000034
C12	C	0.745221	0.111296	-0.000031
C13	C	0.532640	0.107772	0.083077
C14	C	0.445824	0.106332	0.083074
C15	C	0.445844	0.106338	-0.083169
C16	C	0.532659	0.107773	-0.083165
C17	C	0.576054	0.108493	-0.000039
C18	C	0.402423	0.105619	-0.000046
C19	C	0.308293	0.104058	-0.000050
C20	C	0.670190	0.110053	-0.000035
C21	C	0.985784	-0.036298	-0.000032
C22	C	0.978360	-0.123340	-0.000032
C23	C	1.049986	-0.173599	-0.000033
C24	C	1.043006	-0.255384	-0.000041
C25	C	0.964400	-0.286908	-0.000042
C26	C	0.892768	-0.236643	-0.000044
C27	C	0.899749	-0.154860	-0.000042
C28	C	0.935467	-0.530499	-0.000054
C29	C	0.928491	-0.612288	-0.000053
C30	C	1.078730	-0.631023	-0.000052
C31	C	1.085704	-0.549237	-0.000045
C32	C	1.014073	-0.498980	-0.000051
N33	N	0.957263	-0.370505	-0.000048
N34	N	1.021210	-0.415384	-0.000052
C35	C	1.140860	0.101294	-0.000045
C36	C	1.233257	0.102817	-0.000054
C37	C	0.992694	0.250411	-0.000048
C38	C	1.000117	0.337453	-0.000054
N39	N	0.989232	0.107053	0.216956
N40	N	0.989252	0.107053	-0.217034
C41	C	1.042231	0.053752	0.451964
C42	C	1.042233	0.053750	0.547945
C43	C	0.936247	0.160357	0.547951
C44	C	0.936241	0.160355	0.451972
C45	C	0.989238	0.107053	0.403981
C46	C	0.989246	0.107054	0.595942
C47	C	0.989248	0.107052	0.700009
C48	C	0.989235	0.107054	0.299907
H49	H	0.568008	0.108358	-0.150852
H50	H	1.085384	0.010347	0.587011
H51	H	0.828765	-0.262317	-0.000050
H52	H	1.085383	0.010350	0.412892
H53	H	0.410501	0.105752	-0.150847
H54	H	0.893099	0.203755	0.587035
O55	O	0.574822	0.108604	0.163798
C56	C	0.620147	0.177290	0.168771
H57	H	0.590561	0.224298	0.121603
H58	H	0.687055	0.163034	0.146444
C59	C	0.655578	0.150338	0.326010
C60	C	0.619236	0.208077	0.268084
H61	H	0.655020	0.169328	0.387271
H62	H	0.625045	0.104062	0.322659
H63	H	0.711332	0.138464	0.307393
H64	H	0.563481	0.219943	0.286693
H65	H	0.649760	0.254356	0.271440
H66	H	1.113997	-0.147938	-0.000026
H67	H	0.864477	-0.637952	-0.000039
O68	O	1.112669	-0.304093	0.000005
C69	C	1.183545	-0.258731	-0.000009
H70	H	1.166493	-0.197689	0.028859
H71	H	1.207396	-0.252908	-0.073159
C72	C	1.272725	-0.374478	0.024338
C73	C	1.251783	-0.299507	0.059801
H74	H	1.314820	-0.399631	0.061228
H75	H	1.224975	-0.405040	0.024344
H76	H	1.292596	-0.369615	-0.036620
H77	H	1.231903	-0.304371	0.120753
H78	H	1.299532	-0.268947	0.059807
O79	O	0.884791	0.212062	0.405213
C80	C	0.896166	0.200641	0.310209
H81	H	0.923094	0.138309	0.297106
H82	H	0.940814	0.245029	0.282959
C83	C	0.778827	0.288962	0.277032
C84	C	0.811895	0.212402	0.260939
H85	H	0.726847	0.296220	0.246639
H86	H	0.771165	0.296660	0.341038
H87	H	0.816042	0.325944	0.254324
H88	H	0.774686	0.175423	0.283657
H89	H	0.819549	0.204699	0.196936
O90	O	1.162127	-0.518747	-0.000082
C91	C	1.223852	-0.580645	-0.000057
H92	H	1.196861	-0.636194	-0.028934
H93	H	1.246194	-0.592233	0.073097
C94	C	1.330706	-0.489345	-0.024377
C95	C	1.297558	-0.557569	-0.059851
H96	H	1.376174	-0.475110	-0.061257
H97	H	1.289122	-0.447642	-0.024390
H98	H	1.349318	-0.499010	0.036584
H99	H	1.278937	-0.547900	-0.120807
H100	H	1.339141	-0.599269	-0.059850
H101	H	0.410479	0.105745	0.150755
H102	H	1.137048	-0.671951	-0.000049
O103	O	0.865802	-0.481797	-0.000007
C104	C	0.794929	-0.527163	-0.000024
H105	H	0.811979	-0.588209	0.028839
H106	H	0.771089	-0.532974	-0.073175
C107	C	0.705738	-0.411424	0.024333
C108	C	0.726679	-0.486401	0.059790
H109	H	0.663637	-0.386279	0.061225
H110	H	0.753487	-0.380860	0.024340
H111	H	0.685877	-0.416277	-0.036626
H112	H	0.746550	-0.481546	0.120742
H113	H	0.678932	-0.516963	0.059794
H114	H	0.841423	-0.113939	-0.000041
