data_functionalizedCrystal
_audit_creation_method	'MofGen! by Chris Wilmer'
_symmetry_space_group_name_H-M	'P1'
_symmetry_Int_Tables_number	1
_symmetry_cell_setting	triclinic
loop_
_symmetry_equiv_pos_as_xyz
  x,y,z
_cell_length_a	29.839134
_cell_length_b	18.215405
_cell_length_c	18.215399
_cell_angle_alpha	90.032960
_cell_angle_beta	89.973592
_cell_angle_gamma	89.980254
loop_
_atom_site_label
_atom_site_type_symbol
_atom_site_fract_x
_atom_site_fract_y
_atom_site_fract_z
Zn1	Zn	0.686791	0.293075	-0.416291
Zn2	Zn	0.686739	0.416152	-0.293219
Zn3	Zn	0.611668	0.293092	-0.293217
Zn4	Zn	0.611643	0.416093	-0.416223
O5	O	0.649210	0.354603	-0.354738
O6	O	0.749651	0.309419	-0.399994
O7	O	0.676769	0.399859	-0.190234
O8	O	0.621665	0.190106	-0.309571
O9	O	0.749613	0.399842	-0.309573
O10	O	0.676858	0.190093	-0.399992
O11	O	0.621615	0.309448	-0.190233
O12	O	0.548797	0.309392	-0.309506
O13	O	0.621623	0.399743	-0.519216
O14	O	0.548779	0.399760	-0.399877
O15	O	0.676834	0.309362	-0.519266
O16	O	0.676745	0.519128	-0.309508
O17	O	0.621573	0.519085	-0.399879
C18	C	0.532488	0.354572	-0.354684
C19	C	0.482553	0.354576	-0.354679
C20	C	0.649163	0.545809	-0.354702
C21	C	0.649184	0.627608	-0.354712
C22	C	0.649231	0.354544	-0.546691
C23	C	0.649240	0.354519	-0.628489
C24	C	0.172910	0.401728	-0.401736
C25	C	-0.014763	0.401748	-0.401769
O26	O	-0.039028	0.441803	-0.441747
N27	N	-0.038232	0.354630	-0.354793
C28	C	-0.014779	0.307500	-0.307809
O29	O	-0.039047	0.267418	-0.267859
C30	C	0.172893	0.307476	-0.307780
C31	C	0.196359	0.354603	-0.354754
C32	C	0.196376	0.448850	-0.448707
C33	C	0.243292	0.448847	-0.448696
C34	C	0.266741	0.401722	-0.401713
C35	C	0.243274	0.354600	-0.354743
C36	C	0.196344	0.260343	-0.260800
C37	C	0.243266	0.260340	-0.260799
C38	C	0.266732	0.307466	-0.307772
C39	C	0.313639	0.307472	-0.307749
N40	N	0.337108	0.354590	-0.354725
C41	C	0.313659	0.401715	-0.401707
C42	C	-0.113310	0.307517	-0.307826
C43	C	-0.160228	0.307524	-0.307832
C44	C	-0.160208	0.401771	-0.401794
C45	C	-0.113290	0.401768	-0.401783
C46	C	-0.089841	0.354635	-0.354802
C47	C	0.412184	0.401706	-0.401679
C48	C	0.459104	0.401701	-0.401661
C49	C	0.459081	0.307451	-0.307703
C50	C	0.412165	0.307459	-0.307718
C51	C	0.388718	0.354588	-0.354712
O52	O	0.337933	0.267432	-0.267797
O53	O	0.337934	0.441779	-0.441663
C54	C	0.125994	0.401730	-0.401748
C55	C	0.102528	0.354608	-0.354777
C56	C	0.125977	0.307483	-0.307795
C57	C	0.055610	0.354615	-0.354783
C58	C	0.032161	0.401740	-0.401765
C59	C	0.055630	0.448858	-0.448742
C60	C	0.102545	0.448855	-0.448730
C61	C	0.102509	0.260365	-0.260819
C62	C	0.055593	0.260373	-0.260833
C63	C	0.032144	0.307497	-0.307816
C64	C	0.766389	0.354635	-0.354791
C65	C	0.816323	0.354649	-0.354814
C66	C	0.649270	0.162650	-0.354789
C67	C	0.649296	0.080851	-0.354811
C68	C	0.677979	0.815800	-0.307742
C69	C	0.677999	0.892659	-0.307760
C70	C	0.620499	0.892654	-0.401786
C71	C	0.620481	0.815797	-0.401771
C72	C	0.649221	0.777372	-0.354745
C73	C	0.649258	0.931088	-0.354778
C74	C	0.649280	1.014421	-0.354797
C75	C	0.649200	0.694033	-0.354726
C76	C	0.620546	0.307411	-0.816684
C77	C	0.620554	0.307396	-0.893543
C78	C	0.677989	0.401540	-0.893533
C79	C	0.677978	0.401558	-0.816676
C80	C	0.649258	0.354489	-0.778253
C81	C	0.649276	0.354456	-0.931969
C82	C	0.649284	0.354441	-1.015303
C83	C	0.649248	0.354506	-0.694914
C84	C	0.649215	0.354609	-0.163531
C85	C	0.649293	0.354426	-0.081733
H86	H	0.478208	0.440080	-0.439914
H87	H	0.597159	0.269084	-0.785403
H88	H	0.597062	0.784507	-0.440050
C89	C	-0.060542	0.500773	-0.411831
C90	C	-0.087498	0.453566	-0.453423
H91	H	-0.044624	0.532753	-0.443715
H92	H	-0.039860	0.472707	-0.383861
H93	H	-0.078864	0.528882	-0.379717
H94	H	-0.069176	0.425453	-0.485533
H95	H	-0.108183	0.481634	-0.481405
H96	H	0.701360	0.439898	-0.785384
H97	H	0.597099	0.923949	-0.440072
H98	H	0.597173	0.269060	-0.924830
C99	C	0.703510	0.443312	-1.011346
C100	C	0.709561	0.453271	-0.935770
H101	H	0.723004	0.475246	-1.037419
H102	H	0.673327	0.454075	-1.023923
H103	H	0.710101	0.393861	-1.023953
H104	H	0.702966	0.502721	-0.923163
H105	H	0.739750	0.442513	-0.923188
C106	C	-0.155523	0.214361	-0.214960
C107	C	-0.186019	0.255725	-0.256192
H108	H	-0.171445	0.182377	-0.183085
H109	H	-0.137240	0.246390	-0.186750
H110	H	-0.137206	0.186255	-0.247084
H111	H	-0.204333	0.283836	-0.224068
H112	H	-0.204309	0.223693	-0.284404
C113	C	0.703483	0.697985	-0.265964
C114	C	0.709572	0.773561	-0.256057
H115	H	0.722987	0.671912	-0.234052
H116	H	0.710035	0.685347	-0.315415
H117	H	0.673299	0.685441	-0.255133
H118	H	0.739756	0.786106	-0.266894
H119	H	0.703023	0.786205	-0.206595
C120	C	0.416929	0.494868	-0.494553
C121	C	0.386416	0.453513	-0.453334
H122	H	0.401020	0.526855	-0.526437
H123	H	0.435244	0.462835	-0.522753
H124	H	0.435212	0.522972	-0.462421
H125	H	0.368135	0.425405	-0.485466
H126	H	0.368094	0.485550	-0.425133
C127	C	0.511820	0.297102	-0.208732
C128	C	0.484865	0.255654	-0.256065
H129	H	0.527742	0.265121	-0.176859
H130	H	0.493502	0.329119	-0.180520
H131	H	0.532504	0.325169	-0.236718
H132	H	0.464179	0.227591	-0.228079
H133	H	0.503185	0.223625	-0.284279
H134	H	0.177289	0.487225	-0.486970
C135	C	0.238583	0.541997	-0.541577
C136	C	0.269082	0.500642	-0.500340
H137	H	0.254504	0.573969	-0.573466
H138	H	0.220271	0.570108	-0.509463
H139	H	0.220297	0.509956	-0.569780
H140	H	0.287366	0.532683	-0.472133
H141	H	0.287402	0.472529	-0.532458
C142	C	0.684339	0.979222	-0.208847
C143	C	0.709627	0.934928	-0.256141
H144	H	0.703872	1.005328	-0.176997
H145	H	0.664789	0.949304	-0.180609
H146	H	0.667213	1.013083	-0.236863
H147	H	0.726751	0.901064	-0.228125
H148	H	0.729185	0.964849	-0.284382
H149	H	-0.179309	0.440142	-0.440048
H150	H	-0.094223	0.269135	-0.269565
C151	C	0.201058	0.167168	-0.167945
C152	C	0.170559	0.208532	-0.209170
H153	H	0.185139	0.135177	-0.136073
H154	H	0.219339	0.199196	-0.139731
H155	H	0.219376	0.139070	-0.200073
H156	H	0.152243	0.236635	-0.177042
H157	H	0.152270	0.176500	-0.237386
H158	H	0.393058	0.269086	-0.269466
C159	C	0.295994	0.249980	-0.161813
C160	C	0.269042	0.208533	-0.209153
H161	H	0.311909	0.217997	-0.129932
H162	H	0.277674	0.282002	-0.133610
H163	H	0.316684	0.278040	-0.189793
H164	H	0.248349	0.180477	-0.181172
H165	H	0.287363	0.176498	-0.237358
H166	H	0.036529	0.487231	-0.486994
C167	C	0.097837	0.542008	-0.541609
C168	C	0.128335	0.500653	-0.500372
H169	H	0.113757	0.573983	-0.573496
H170	H	0.079524	0.570118	-0.509494
H171	H	0.079551	0.509968	-0.569813
H172	H	0.146619	0.532693	-0.472163
H173	H	0.146656	0.472541	-0.532491
C174	C	0.060299	0.167201	-0.167963
C175	C	0.029802	0.208564	-0.209196
H176	H	0.044377	0.135212	-0.136093
H177	H	0.078578	0.199229	-0.139748
H178	H	0.078618	0.139100	-0.200087
H179	H	0.011485	0.236670	-0.177072
H180	H	0.011515	0.176532	-0.237413
H181	H	0.121596	0.221990	-0.222559
