data_functionalizedCrystal
_audit_creation_method	'MofGen! by Chris Wilmer'
_symmetry_space_group_name_H-M	'P1'
_symmetry_Int_Tables_number	1
_symmetry_cell_setting	triclinic
loop_
_symmetry_equiv_pos_as_xyz
  x,y,z
_cell_length_a	14.560438
_cell_length_b	14.560438
_cell_length_c	14.560438
_cell_angle_alpha	90.001034
_cell_angle_beta	60.000713
_cell_angle_gamma	60.000094
loop_
_atom_site_label
_atom_site_type_symbol
_atom_site_fract_x
_atom_site_fract_y
_atom_site_fract_z
Zr1	Zr	1.005299	0.884744	-0.120520
O2	O	1.196901	0.738093	-0.267165
O3	O	0.813697	0.929701	-0.075567
O4	O	1.005302	0.929695	-0.267169
O5	O	1.005293	0.738102	0.075577
O6	O	1.005305	1.080833	-0.267170
O7	O	1.005296	0.738099	-0.075563
O8	O	0.662558	1.080844	0.075571
O9	O	1.348040	0.738092	-0.267164
O10	O	0.892507	1.061666	-0.056394
O11	O	0.892504	0.948876	0.056401
O12	O	1.118094	0.948869	-0.169185
O13	O	1.118090	0.836079	-0.056390
Zr14	Zr	1.005299	1.125798	0.120530
Zr15	Zr	1.005303	1.125792	-0.120522
Zr16	Zr	1.005295	0.884750	0.120532
Zr17	Zr	1.246348	0.884742	-0.120517
Zr18	Zr	0.764250	1.125799	0.120527
O19	O	1.196901	1.080841	0.075577
O20	O	1.196907	1.080832	-0.267168
O21	O	1.196895	0.738101	0.075580
O22	O	0.813697	1.272449	0.267175
O23	O	0.813703	1.272440	-0.075570
O24	O	0.813691	0.929710	0.267178
O25	O	1.005305	1.272439	-0.075567
O26	O	1.005296	1.080847	0.267179
O27	O	1.005293	0.929708	0.267180
O28	O	1.005302	1.272443	0.075573
O29	O	1.348043	0.929693	-0.267165
O30	O	0.662555	1.080849	0.267175
O31	O	0.662558	1.272450	0.267173
O32	O	0.662561	1.272445	0.075569
O33	O	1.348037	0.738097	-0.075559
O34	O	1.348040	0.929698	-0.075561
O35	O	0.892504	1.061672	0.169195
O36	O	0.892507	1.174462	0.056400
O37	O	1.118094	1.061665	-0.056391
O38	O	1.118090	0.948875	0.056404
C39	C	0.703783	1.005273	0.000001
C40	C	0.601451	1.005273	-0.000000
C41	C	0.457215	1.064146	-0.058871
C42	C	0.553372	1.064145	-0.058879
C43	C	0.553379	0.946388	0.058882
C44	C	0.457230	0.946383	0.058884
C45	C	1.005294	0.703756	0.000007
C46	C	1.005292	0.601425	0.000008
C47	C	0.887540	0.612226	0.058880
C48	C	0.887546	0.516071	0.058880
C49	C	1.123067	0.398318	-0.058871
C50	C	1.123059	0.494472	-0.058865
C51	C	1.306815	1.005269	0.000009
C52	C	1.409147	1.005268	0.000010
C53	C	1.005304	1.005263	-0.301515
C54	C	1.005306	1.005261	-0.403847
C55	C	1.005304	1.306785	0.000003
C56	C	1.005306	1.409116	0.000002
C57	C	1.123058	0.946383	-0.510799
C58	C	1.123051	0.946396	-0.606948
C59	C	0.887531	1.064166	-0.489179
C60	C	0.887539	1.064159	-0.393033
C61	C	1.005294	1.005278	0.301524
C62	C	1.005292	1.005281	0.403857
C63	C	0.703788	1.306787	-0.000001
C64	C	0.601458	1.409119	-0.000003
C65	C	0.703778	1.005280	0.301521
C66	C	0.601444	1.005283	0.403852
C67	C	0.703783	1.306795	0.301518
C68	C	0.601451	1.409129	0.403849
C69	C	1.306815	0.703747	-0.301509
C70	C	1.409147	0.601412	-0.403840
C71	C	1.306810	0.703755	0.000011
C72	C	1.409140	0.601423	0.000013
C73	C	1.306820	1.005261	-0.301511
C74	C	1.409153	1.005258	-0.403843
C75	C	0.553381	1.398319	-0.058879
C76	C	0.457238	1.494475	-0.058884
C77	C	0.457256	1.612226	0.058870
C78	C	0.553403	1.516072	0.058869
C79	C	0.553366	1.064162	0.510805
C80	C	0.457222	1.064152	0.606953
C81	C	0.457239	0.946384	0.489181
C82	C	0.553388	0.946388	0.393036
C83	C	0.553375	1.516081	0.393050
C84	C	0.457232	1.612231	0.489204
C85	C	0.457246	1.494464	0.606955
C86	C	0.553393	1.398316	0.510802
H87	H	0.592508	1.112087	-0.106827
Br88	Br	0.727715	0.757373	0.138780
Br89	Br	0.618583	1.144091	0.525487
H90	H	0.592504	1.524891	0.305968
H91	H	0.592538	0.898448	0.106817
H92	H	1.218937	0.898453	-0.694030
H93	H	0.418095	0.898432	0.106831
Br94	Br	0.727733	0.530735	0.138790
Br95	Br	1.282883	0.866458	-0.525478
H96	H	0.791650	1.112117	-0.480388
Br97	Br	0.618655	0.866464	0.247873
H98	H	1.218948	0.311227	-0.106805
Br99	Br	0.391983	1.144055	0.752104
H100	H	1.218953	0.485669	-0.106803
H101	H	0.418093	1.699314	0.480403
H102	H	0.791645	1.112110	-0.305942
H103	H	0.592516	1.311237	-0.106827
Br104	Br	0.391999	1.479812	-0.138796
H105	H	0.418116	1.699317	0.106803
H106	H	0.592551	1.524873	0.106812
H107	H	0.418098	0.898435	0.480388
Br108	Br	0.392018	1.479798	0.752107
H109	H	0.592541	1.311224	0.519604
H110	H	0.418070	1.112092	-0.106811
