data_functionalizedCrystal
_audit_creation_method	'MofGen! by Chris Wilmer'
_symmetry_space_group_name_H-M	'P1'
_symmetry_Int_Tables_number	1
_symmetry_cell_setting	triclinic
loop_
_symmetry_equiv_pos_as_xyz
  x,y,z
_cell_length_a	19.288864
_cell_length_b	17.699083
_cell_length_c	17.766277
_cell_angle_alpha	90.006111
_cell_angle_beta	90.023245
_cell_angle_gamma	83.209630
loop_
_atom_site_label
_atom_site_type_symbol
_atom_site_fract_x
_atom_site_fract_y
_atom_site_fract_z
O1	O	0.921465	0.094416	0.062837
O2	O	0.719219	0.107153	0.062786
O3	O	0.826056	-0.009413	0.062806
O4	O	0.814628	0.210982	0.062817
O5	O	0.826037	-0.009416	-0.062382
O6	O	0.719200	0.107149	-0.062403
O7	O	0.921446	0.094413	-0.062351
Cu8	Cu	0.820321	0.100781	-0.073808
Cu9	Cu	0.820344	0.100785	0.074242
O10	O	0.814609	0.210978	-0.062372
C11	C	0.693333	0.106741	0.000185
C12	C	0.616228	0.105511	0.000165
C13	C	0.571613	0.173906	0.000180
C14	C	0.499164	0.172751	0.000188
C15	C	0.471334	0.103196	0.000197
C16	C	0.515959	0.034791	0.000177
C17	C	0.588406	0.035949	0.000162
C18	C	0.363014	0.048519	0.044079
C19	C	0.290568	0.047364	0.044099
C20	C	0.247884	0.099622	0.000242
C21	C	0.277654	0.153048	-0.043625
C22	C	0.350101	0.154205	-0.043641
C23	C	0.392779	0.101932	0.000213
C24	C	0.124712	0.166769	0.000265
C25	C	0.052262	0.165610	0.000269
C26	C	0.069059	0.027649	0.000265
C27	C	0.141507	0.028809	0.000254
C28	C	0.169329	0.098371	0.000258
C29	C	0.825637	-0.037611	0.000212
C30	C	0.824409	-0.121627	0.000211
C31	C	0.887120	-0.170336	0.000226
C32	C	0.885961	-0.249278	0.000232
C33	C	0.822091	-0.279509	0.000219
C34	C	0.759375	-0.230794	0.000206
C35	C	0.760535	-0.151854	0.000205
C36	C	0.754699	-0.549150	0.000211
C37	C	0.753545	-0.628097	0.000210
C38	C	0.880126	-0.646575	0.000238
C39	C	0.881285	-0.567635	0.000237
C40	C	0.818570	-0.518926	0.000229
C41	C	0.819827	-0.433329	0.000223
C42	C	0.820834	-0.365105	0.000219
C43	C	0.947332	0.094824	0.000251
C44	C	1.024437	0.096054	0.000276
C45	C	0.815028	0.239176	0.000224
C46	C	0.816257	0.323193	0.000230
N47	N	0.820311	0.100777	-0.177938
C48	C	0.862352	0.146569	-0.217305
C49	C	0.862363	0.146567	-0.296107
C50	C	0.820320	0.100782	-0.335539
C51	C	0.778275	0.054981	-0.296162
C52	C	0.778271	0.054979	-0.217362
C53	C	0.757705	0.098868	-0.460414
C54	C	0.757708	0.098875	-0.539213
C55	C	0.820334	0.100784	-0.578585
C56	C	0.882958	0.102702	-0.539149
C57	C	0.882954	0.102699	-0.460348
C58	C	0.820320	0.100779	-0.420984
C59	C	0.862391	0.146576	-0.703398
C60	C	0.862403	0.146568	-0.782201
C61	C	0.778309	0.054987	-0.782255
C62	C	0.778303	0.054990	-0.703453
C63	C	0.820343	0.100789	-0.664029
N64	N	0.820360	0.100782	0.178372
H65	H	0.242902	0.195601	-0.079339
H66	H	0.744034	0.017689	-0.185310
H67	H	0.706703	0.097318	-0.428364
H68	H	0.703632	-0.509501	0.000204
H69	H	0.374336	0.197704	-0.079362
C70	C	0.602213	0.250421	0.000170
H71	H	0.565261	0.290990	0.000173
H72	H	0.630153	0.253747	0.043817
H73	H	0.630097	0.253737	-0.043501
H74	H	0.707371	-0.255414	0.000199
H75	H	0.493296	-0.021841	0.000195
C76	C	0.951835	0.104797	-0.416971
H77	H	0.989137	0.105929	-0.451700
H78	H	0.948538	0.148988	-0.386223
H79	H	0.960331	0.060753	-0.386236
C80	C	0.155319	0.243282	0.000261
H81	H	0.118368	0.283852	0.000261
H82	H	0.183253	0.246604	0.043913
H83	H	0.183209	0.246599	-0.043405
H84	H	0.896644	0.183855	-0.814253
H85	H	0.933295	-0.543025	0.000245
H86	H	0.397762	0.005962	0.079797
C87	C	0.908636	0.196943	-0.660025
H88	H	0.902605	0.190392	-0.607456
H89	H	0.956184	0.182750	-0.672914
H90	H	0.895638	0.248769	-0.672942
C91	C	0.637485	-0.039289	0.000154
H92	H	0.610538	-0.080881	0.000164
H93	H	0.666076	-0.041708	-0.043505
H94	H	0.666114	-0.041700	0.043813
H95	H	0.744065	0.017705	-0.671400
H96	H	0.046401	-0.028984	0.000319
H97	H	0.015936	0.221308	0.000277
H98	H	0.462831	0.228448	0.000199
H99	H	0.701531	-0.652707	0.000197
C100	C	0.732061	0.004625	-0.825620
H101	H	0.738082	0.011187	-0.878190
H102	H	0.745053	-0.047198	-0.812706
H103	H	0.684511	0.018826	-0.812729
C104	C	0.957378	-0.137089	0.000241
H105	H	0.994559	-0.177408	0.000258
H106	H	0.960457	-0.106683	-0.043414
H107	H	0.960467	-0.106676	0.043904
C108	C	0.190586	-0.046427	0.000249
H109	H	0.163638	-0.088018	0.000262
H110	H	0.219175	-0.048846	-0.043411
H111	H	0.219218	-0.048838	0.043906
C112	C	0.257824	-0.011395	0.092354
H113	H	0.208564	-0.004594	0.086091
H114	H	0.275781	-0.061282	0.076929
H115	H	0.268919	-0.004549	0.143820
C116	C	0.688830	0.096734	-0.582586
H117	H	0.651535	0.095573	-0.547853
H118	H	0.680305	0.140760	-0.613335
H119	H	0.692155	0.052527	-0.613319
H120	H	0.744044	0.017702	-0.328272
C121	C	0.954941	-0.302858	0.000256
H122	H	0.945106	-0.354202	0.000267
H123	H	0.981134	-0.293729	-0.043392
H124	H	0.981138	-0.293706	0.043926
C125	C	0.949113	-0.700156	0.000260
H126	H	0.939279	-0.751500	0.000268
H127	H	0.975302	-0.691022	-0.043390
H128	H	0.975313	-0.691007	0.043928
C129	C	0.691555	-0.098270	0.000189
H130	H	0.701392	-0.046927	0.000198
H131	H	0.665349	-0.107412	-0.043471
H132	H	0.665370	-0.107408	0.043846
C133	C	0.908600	0.196939	-0.173943
H134	H	0.933644	0.224206	-0.208680
H135	H	0.880077	0.231849	-0.143211
H136	H	0.940622	0.165829	-0.143194
C137	C	0.951853	0.104785	-0.582447
H138	H	0.942891	0.104498	-0.635025
H139	H	0.971693	0.149680	-0.569524
H140	H	0.983474	0.061445	-0.569513
C141	C	0.908607	0.196940	-0.339423
H142	H	0.902591	0.190378	-0.392000
H143	H	0.895609	0.248762	-0.326509
H144	H	0.956157	0.182745	-0.326490
