data_functionalizedCrystal
_audit_creation_method	'MofGen! by Chris Wilmer'
_symmetry_space_group_name_H-M	'P1'
_symmetry_Int_Tables_number	1
_symmetry_cell_setting	triclinic
loop_
_symmetry_equiv_pos_as_xyz
  x,y,z
_cell_length_a	19.288864
_cell_length_b	14.472311
_cell_length_c	19.288865
_cell_angle_alpha	89.985117
_cell_angle_beta	96.863755
_cell_angle_gamma	90.017990
loop_
_atom_site_label
_atom_site_type_symbol
_atom_site_fract_x
_atom_site_fract_y
_atom_site_fract_z
O1	O	0.921347	0.077148	-0.086653
O2	O	0.719087	0.077086	-0.098341
O3	O	0.826061	0.077100	0.008633
O4	O	0.814373	0.077133	-0.193627
O5	O	0.826054	-0.076582	0.008647
O6	O	0.719079	-0.076596	-0.098328
O7	O	0.921340	-0.076534	-0.086639
Cu8	Cu	0.820209	-0.090598	-0.092483
Cu9	Cu	0.820218	0.091149	-0.092498
O10	O	0.814365	-0.076549	-0.193614
C11	C	0.693207	0.000237	-0.097959
C12	C	0.616103	0.000212	-0.096830
N13	N	0.820208	-0.218428	-0.092471
C14	C	0.571407	0.000237	-0.159598
C15	C	0.498960	0.000247	-0.158537
C16	C	0.471212	0.000251	-0.094705
C17	C	0.515918	0.000221	-0.031929
C18	C	0.588364	0.000202	-0.032991
C19	C	0.362953	0.054116	-0.044530
C20	C	0.290508	0.054141	-0.043470
C21	C	0.247767	0.000306	-0.091425
C22	C	0.277477	-0.053541	-0.140451
C23	C	0.349922	-0.053560	-0.141514
C24	C	0.392658	0.000271	-0.093546
C25	C	0.124514	0.000341	-0.153047
C26	C	0.052066	0.000345	-0.151984
C27	C	0.069026	0.000328	-0.025374
C28	C	0.141473	0.000315	-0.026439
C29	C	0.169212	0.000325	-0.090278
C30	C	0.820218	-0.592520	-0.092493
C31	C	0.877643	-0.553317	-0.035443
C32	C	0.877494	-0.446229	-0.035234
C33	C	0.820214	-0.406929	-0.092482
C34	C	0.747796	-0.445845	-0.076880
C35	C	0.748136	-0.552967	-0.076477
C36	C	0.834559	-0.553007	-0.165315
C37	C	0.836205	-0.445878	-0.164822
C38	C	0.820207	-0.302040	-0.092477
C39	C	0.820221	-0.697408	-0.092497
C40	C	0.947220	0.000317	-0.087022
C41	C	1.024324	0.000347	-0.088151
C42	C	0.825682	0.000257	0.034516
C43	C	0.824553	0.000248	0.111620
N44	N	0.820224	0.218980	-0.092504
C45	C	0.814745	0.000297	-0.219497
C46	C	0.815874	0.000312	-0.296601
C47	C	0.887321	0.000263	0.156316
C48	C	0.886260	0.000277	0.228763
C49	C	0.822428	0.000258	0.256511
C50	C	0.759652	0.000249	0.211805
C51	C	0.760714	0.000244	0.139359
C52	C	0.772246	-0.053589	0.364803
C53	C	0.771186	-0.053589	0.437247
C54	C	0.819148	0.000278	0.479956
C55	C	0.868182	0.054134	0.450214
C56	C	0.869244	0.054129	0.377768
C57	C	0.821269	0.000264	0.335065
C58	C	0.880770	0.000309	0.603209
C59	C	0.879707	0.000329	0.675657
C60	C	0.753097	0.000292	0.658697
C61	C	0.754162	0.000281	0.586250
C62	C	0.818000	0.000285	0.558511
H63	H	0.462561	0.000265	-0.209652
H64	H	0.931663	-0.579053	-0.044547
H65	H	0.868639	-0.580260	0.018297
H66	H	0.797073	-0.419122	-0.209247
H67	H	0.731256	-0.097437	0.461458
H68	H	0.886225	-0.579997	-0.180366
N69	N	0.866099	-0.414115	0.032588
N70	N	0.858223	-0.470817	0.079913
H71	H	0.850200	-0.448138	0.127824
H72	H	0.735462	-0.577975	-0.023376
H73	H	0.593987	0.000248	-0.211580
H74	H	0.704132	-0.578902	-0.116461
N75	N	0.692913	-0.413913	-0.127635
N76	N	0.706594	-0.361992	-0.175987
H77	H	0.667835	-0.339438	-0.211835
H78	H	0.930822	0.000346	0.712049
N79	N	0.040704	0.000342	0.039836
N80	N	0.080624	0.000329	0.095877
H81	H	0.060620	0.000336	0.141934
H82	H	0.792681	-0.578364	-0.207768
N83	N	0.687899	0.000264	0.687042
N84	N	0.673179	-0.064517	0.725592
H85	H	0.627131	-0.064534	0.745615
N86	N	0.731503	-0.412213	-0.011026
N87	N	0.773106	-0.359594	0.024525
H88	H	0.761603	-0.335841	0.071036
H89	H	0.889478	-0.420440	-0.176666
N90	N	0.952529	0.000259	0.127984
N91	N	0.994790	-0.064512	0.141767
H92	H	1.040844	-0.064515	0.121757
N93	N	0.945969	0.000317	0.574854
N94	N	0.960681	-0.064466	0.536337
H95	H	1.006728	-0.064461	0.516311
H96	H	0.397748	0.097959	-0.005478
N97	N	0.260153	0.109123	0.006609
N98	N	0.195470	0.109131	0.007554
H99	H	0.174032	0.147961	0.042925
H100	H	0.937375	0.000293	0.265162
H101	H	0.909168	0.097982	0.353555
N102	N	0.233844	-0.108536	-0.189455
N103	N	0.233388	-0.094949	-0.253507
H104	H	0.202573	-0.133786	-0.288120
H105	H	0.374109	-0.097407	-0.181431
H106	H	0.907237	0.097998	0.484986
N107	N	0.690039	0.000263	0.540600
N108	N	0.633049	0.000249	0.565380
H109	H	0.587758	0.000239	0.533139
H110	H	0.733187	-0.097459	0.330034
N111	N	0.694454	0.000238	0.240156
N112	N	0.693514	0.000241	0.304840
H113	H	0.647466	0.000238	0.324863
H114	H	0.709599	0.000231	0.102967
H115	H	0.147101	0.000336	-0.205028
H116	H	0.493322	0.000237	0.020044
N117	N	0.006417	0.000359	-0.216110
N118	N	0.031198	0.000366	-0.273099
H119	H	-0.001043	0.000375	-0.318391
H120	H	0.177866	0.000300	0.024674
H121	H	0.624756	0.000182	0.018124
N122	N	0.945017	-0.413226	-0.046915
N123	N	0.992583	-0.469307	-0.055276
H124	H	1.040268	-0.446004	-0.063548
