data_functionalizedCrystal
_audit_creation_method	'MofGen! by Chris Wilmer'
_symmetry_space_group_name_H-M	'P1'
_symmetry_Int_Tables_number	1
_symmetry_cell_setting	triclinic
loop_
_symmetry_equiv_pos_as_xyz
  x,y,z
_cell_length_a	16.109301
_cell_length_b	19.288859
_cell_length_c	17.766277
_cell_angle_alpha	89.989768
_cell_angle_beta	89.992214
_cell_angle_gamma	83.297603
loop_
_atom_site_label
_atom_site_type_symbol
_atom_site_fract_x
_atom_site_fract_y
_atom_site_fract_z
O1	O	0.103692	0.921603	-0.062611
O2	O	0.603692	1.421603	0.437389
O3	O	0.117688	0.719375	-0.062610
O4	O	0.617688	1.219375	0.437390
O5	O	-0.010360	0.826045	-0.062603
O6	O	0.489640	1.326045	0.437397
O7	O	0.231740	0.814934	-0.062618
O8	O	0.731740	1.314934	0.437382
O9	O	-0.010367	0.826026	0.062585
O10	O	0.489633	1.326026	0.562585
O11	O	0.117681	0.719357	0.062579
O12	O	0.617681	1.219357	0.562579
O13	O	0.103685	0.921585	0.062577
O14	O	0.603685	1.421585	0.562577
Cu15	Cu	0.110683	0.820469	0.074009
Cu16	Cu	0.610683	1.320469	0.574009
Cu17	Cu	0.110690	0.820491	-0.074041
Cu18	Cu	0.610690	1.320491	0.425959
O19	O	0.231733	0.814915	0.062570
O20	O	0.731733	1.314915	0.562570
C21	C	0.117235	0.693489	-0.000015
C22	C	0.617235	1.193489	0.499985
C23	C	0.115886	0.616381	-0.000015
C24	C	0.615886	1.116381	0.499985
C25	C	0.181891	0.052498	-0.000020
C26	C	0.681891	0.552498	0.499980
C27	C	0.183166	0.124948	-0.000024
C28	C	0.683166	0.624948	0.499976
C29	C	0.108033	0.169475	-0.000018
C30	C	0.608033	0.669475	0.499982
C31	C	0.031619	0.141548	-0.000027
C32	C	0.531619	0.641548	0.499973
C33	C	0.030346	0.069099	-0.000030
C34	C	0.530346	0.569099	0.499970
C35	C	0.051997	0.290605	0.043848
C36	C	0.551997	0.790605	0.543848
C37	C	0.053273	0.363052	0.043856
C38	C	0.553273	0.863052	0.543856
C39	C	0.111956	0.392931	-0.000010
C40	C	0.611956	0.892931	0.499990
C41	C	0.169377	0.350352	-0.043875
C42	C	0.669377	0.850352	0.456125
C43	C	0.168104	0.277904	-0.043878
C44	C	0.668104	0.777904	0.456122
C45	C	0.109405	0.248034	-0.000014
C46	C	0.609405	0.748034	0.499986
C47	C	0.189748	0.499408	-0.000011
C48	C	0.689748	0.999408	0.499989
C49	C	0.191020	0.571859	-0.000020
C50	C	0.691020	1.071859	0.499980
C51	C	0.039471	0.588458	-0.000015
C52	C	0.539471	1.088458	0.499985
C53	C	0.038201	0.516008	-0.000014
C54	C	0.538201	1.016008	0.499986
C55	C	0.113342	0.471487	-0.000008
C56	C	0.613342	0.971487	0.499992
C57	C	-0.041337	0.825585	-0.000008
C58	C	0.458663	1.325585	0.499992
C59	C	-0.133628	0.824236	-0.000007
C60	C	0.366372	1.324236	0.499993
C61	C	-0.356107	0.884394	-0.000020
C62	C	0.143893	1.384394	0.499980
C63	C	-0.442823	0.883121	-0.000026
C64	C	0.057177	1.383121	0.499974
C65	C	-0.422513	0.756561	-0.000022
C66	C	0.077487	1.256561	0.499978
C67	C	-0.335798	0.757835	-0.000021
C68	C	0.164202	1.257835	0.499979
C69	C	-0.302598	0.821754	-0.000016
C70	C	0.197402	1.321754	0.499984
C71	C	-0.476029	0.819206	-0.000023
C72	C	0.023971	1.319206	0.499977
C73	C	-0.570050	0.817825	-0.000030
C74	C	-0.070050	1.317825	0.499970
C75	C	-0.208571	0.823135	-0.000011
C76	C	0.291429	1.323135	0.499989
C77	C	0.262710	0.815375	-0.000026
C78	C	0.762710	1.315375	0.499974
C79	C	0.355001	0.816724	-0.000032
C80	C	0.855001	1.316724	0.499968
C81	C	0.104138	0.947472	-0.000019
C82	C	0.604138	1.447472	0.499981
C83	C	0.105487	1.024579	-0.000025
C84	C	0.605487	1.524579	0.499975
N85	N	0.110677	0.820458	0.178139
N86	N	0.610677	1.320458	0.678139
N87	N	0.110690	0.820507	-0.178172
N88	N	0.610690	1.320507	0.321828
C89	C	0.054005	0.867707	0.217529
C90	C	0.554005	1.367707	0.717529
C91	C	0.054001	0.867711	0.296331
C92	C	0.554001	1.367711	0.796331
C93	C	0.110683	0.820473	0.335739
C94	C	0.610683	1.320473	0.835739
C95	C	0.167360	0.773216	0.296340
C96	C	0.667360	1.273216	0.796340
C97	C	0.167357	0.773208	0.217540
C98	C	0.667357	1.273208	0.717540
C99	C	0.186437	0.811355	0.460573
C100	C	0.686437	1.311355	0.960573
C101	C	0.186441	0.811367	0.539372
C102	C	0.686441	1.311367	1.039372
C103	C	0.110693	0.820492	0.578786
C104	C	0.610693	1.320492	1.078786
C105	C	0.034938	0.829619	0.539392
C106	C	0.534938	1.329619	1.039392
C107	C	0.034934	0.829611	0.460591
C108	C	0.534934	1.329611	0.960591
C109	C	0.110693	0.820475	0.421185
C110	C	0.610693	1.320475	0.921185
C111	C	0.054012	0.867747	0.703622
C112	C	0.554012	1.367747	1.203622
C113	C	0.054007	0.867746	0.782425
C114	C	0.554007	1.367746	1.282425
C115	C	0.167374	0.773254	0.782433
C116	C	0.667374	1.273254	1.282433
C117	C	0.167371	0.773252	0.703631
C118	C	0.667371	1.273252	1.203631
C119	C	0.110692	0.820502	0.664230
C120	C	0.610692	1.320502	1.164230
H121	H	-0.021704	0.624711	-0.000016
H122	H	0.478296	1.124711	0.499984
F123	F	-0.006318	0.918033	0.824348
F124	F	0.493682	1.418033	1.324348
H125	H	0.213507	0.734732	0.185468
H126	H	0.713507	1.234732	0.685468
F127	F	0.272343	0.601572	-0.000022
F128	F	0.772343	1.101572	0.499978
H129	H	-0.292229	0.706823	-0.000021
H130	H	0.207771	1.206823	0.499979
F131	F	-0.457855	0.688538	-0.000028
F132	F	0.042145	1.188538	0.499972
F133	F	-0.006321	0.917991	0.175597
F134	F	0.493679	1.417991	0.675597
F135	F	-0.006321	0.918002	0.338259
F136	F	0.493679	1.418002	0.838259
F137	F	-0.010499	0.258818	0.090504
F138	F	0.489501	0.758818	0.590504
F139	F	-0.007833	0.408360	0.090546
F140	F	0.492167	0.908360	0.590546
H141	H	-0.024015	0.493276	-0.000013
H142	H	0.475985	0.993276	0.499987
F143	F	0.227683	0.722939	0.338282
F144	F	0.727683	1.222939	0.838282
H145	H	-0.026749	0.837041	0.428520
H146	H	0.473251	1.337041	0.928520
H147	H	-0.329079	0.936440	-0.000017
H148	H	0.170921	1.436440	0.499983
F149	F	-0.045686	0.839335	0.581332
F150	F	0.454314	1.339335	1.081332
F151	F	-0.048343	0.188938	-0.000023
F152	F	0.451657	0.688938	0.499977
H153	H	0.007858	0.906219	0.671540
H154	H	0.507858	1.406219	1.171540
H155	H	0.213522	0.734790	0.814519
H156	H	0.713522	1.234790	1.314519
H157	H	0.245385	0.147685	-0.000013
H158	H	0.745385	0.647685	0.499987
F159	F	0.231843	0.382144	-0.090557
F160	F	0.731843	0.882144	0.409443
F161	F	0.227693	0.722967	0.661706
F162	F	0.727693	1.222967	1.161706
F163	F	-0.499769	0.949791	-0.000031
F164	F	0.000231	1.449791	0.499969
H165	H	0.248126	0.803940	0.571440
H166	H	0.748126	1.303940	1.071440
F167	F	0.261863	0.005120	-0.000021
F168	F	0.761863	0.505120	0.499979
H169	H	0.214857	0.243239	-0.079596
H170	H	0.714857	0.743239	0.420404
F171	F	0.267066	0.801694	0.418633
F172	F	0.767066	1.301694	0.918633
H173	H	-0.031873	0.046369	-0.000035
H174	H	0.468127	0.546369	0.499965
F175	F	0.269718	0.452023	-0.000007
F176	F	0.769718	0.952023	0.499993
