data_functionalizedCrystal
_audit_creation_method	'MofGen! by Chris Wilmer'
_symmetry_space_group_name_H-M	'P1'
_symmetry_Int_Tables_number	1
_symmetry_cell_setting	triclinic
loop_
_symmetry_equiv_pos_as_xyz
  x,y,z
_cell_length_a	10.685980
_cell_length_b	19.120786
_cell_length_c	10.686551
_cell_angle_alpha	96.651844
_cell_angle_beta	98.408259
_cell_angle_gamma	96.632738
loop_
_atom_site_label
_atom_site_type_symbol
_atom_site_fract_x
_atom_site_fract_y
_atom_site_fract_z
Zn1	Zn	1.982569	-0.158561	0.853507
Zn2	Zn	2.482569	0.341439	1.353507
Zn3	Zn	1.955463	-0.286717	0.630578
Zn4	Zn	2.455463	0.213283	1.130578
Zn5	Zn	1.752355	-0.178250	0.623333
Zn6	Zn	2.252355	0.321750	1.123333
Zn7	Zn	1.759592	-0.286649	0.826494
Zn8	Zn	2.259592	0.213351	1.326494
O9	O	1.862495	-0.227544	0.733478
O10	O	2.362495	0.272456	1.233478
O11	O	2.157292	-0.167350	0.838272
O12	O	2.657292	0.332650	1.338272
O13	O	1.914147	-0.280598	0.451296
O14	O	2.414147	0.219402	0.951296
O15	O	1.791209	-0.076640	0.662139
O16	O	2.291209	0.423360	1.162139
O17	O	2.137377	-0.261506	0.674487
O18	O	2.637377	0.238494	1.174487
O19	O	1.960346	-0.062174	0.831247
O20	O	2.460346	0.437826	1.331247
O21	O	1.764925	-0.200908	0.445974
O22	O	2.264925	0.299092	0.945974
O23	O	1.574997	-0.200841	0.635945
O24	O	2.074997	0.299159	1.135945
O25	O	1.803544	-0.261389	1.008397
O26	O	2.303544	0.238611	1.508397
O27	O	1.580314	-0.280481	0.785207
O28	O	2.080314	0.219519	1.285207
O29	O	1.967364	-0.167283	1.028244
O30	O	2.467364	0.332717	1.528244
O31	O	1.921165	-0.385707	0.648293
O32	O	2.421165	0.114293	1.148293
O33	O	1.777260	-0.385657	0.792231
O34	O	2.277260	0.114343	1.292231
C35	C	1.531420	-0.242790	0.706859
C36	C	2.031420	0.257210	1.206859
C37	C	1.389785	-0.249328	0.695501
C38	C	1.889785	0.250672	1.195501
C39	C	1.847093	-0.411348	0.718148
C40	C	2.347093	0.088652	1.218148
C41	C	1.840624	-0.489973	0.711641
C42	C	2.340624	0.010027	1.211641
C43	C	1.925590	-0.519319	0.796691
C44	C	2.425590	-0.019319	1.296691
C45	C	1.919507	-0.593196	0.790580
C46	C	2.419507	-0.093196	1.290580
C47	C	1.828463	-0.637725	0.699411
C48	C	2.328463	-0.137725	1.199411
C49	C	1.743487	-0.608375	0.614357
C50	C	2.243487	-0.108375	1.114357
C51	C	1.749566	-0.534499	0.620475
C52	C	2.249566	-0.034499	1.120475
C53	C	1.805702	-0.861160	0.676535
C54	C	2.305702	-0.361160	1.176535
C55	C	1.799632	-0.935040	0.670420
C56	C	2.299632	-0.435040	1.170420
C57	C	1.975651	-0.919856	0.846645
C58	C	2.475651	-0.419856	1.346645
C59	C	1.981727	-0.845980	0.852750
C60	C	2.481727	-0.345980	1.352750
C61	C	1.896747	-0.816636	0.767701
C62	C	2.396747	-0.316636	1.267701
C63	C	1.822245	-0.713239	0.693159
C64	C	2.322245	-0.213239	1.193159
C65	C	1.902960	-0.741124	0.773959
C66	C	2.402960	-0.241124	1.273959
C67	C	2.194863	-0.212239	0.760201
C68	C	2.694863	0.287761	1.260201
C69	C	2.336498	-0.205717	0.771589
C70	C	2.836498	0.294283	1.271589
C71	C	1.889285	-0.212132	1.065850
C72	C	2.389285	0.287868	1.565850
C73	C	1.900701	-0.205564	1.207487
C74	C	2.400701	0.294436	1.707487
C75	C	1.877994	-0.043020	0.748899
C76	C	2.377994	0.456980	1.248899
C77	C	1.884599	0.035614	0.755470
C78	C	2.384599	0.535614	1.255470
C79	C	1.835887	-0.242842	0.402409
C80	C	2.335887	0.257158	0.902409
C81	C	1.824734	-0.249199	0.260809
C82	C	2.324734	0.250801	0.760809
H83	H	1.327045	-0.291670	0.621658
H84	H	1.827045	0.208330	1.121658
O85	O	1.724067	-0.761277	0.594822
O86	O	2.224067	-0.261277	1.094822
H87	H	1.626948	-0.750755	0.609713
H88	H	2.126948	-0.250755	1.109713
O89	O	1.998413	-0.149406	1.290539
O90	O	2.498413	0.350594	1.790539
H91	H	1.992337	-0.152876	1.392486
H92	H	2.492337	0.347124	1.892486
H93	H	1.399232	-0.163374	0.845419
H94	H	1.899232	0.336626	1.345419
H95	H	1.736510	-0.837274	0.607282
H96	H	2.236510	-0.337274	1.107282
O97	O	2.023799	-0.471292	0.895013
O98	O	2.523799	0.028708	1.395013
H99	H	2.081855	-0.504112	0.953130
H100	H	2.581855	-0.004112	1.453130
H101	H	1.988705	-0.617085	0.859827
H102	H	2.488705	-0.117085	1.359827
O103	O	1.726979	-0.305330	1.177765
O104	O	2.226979	0.194670	1.677765
H105	H	1.746180	-0.358686	1.200336
H106	H	2.246180	0.141314	1.700336
O107	O	2.079962	-0.797952	0.951044
O108	O	2.579962	-0.297952	1.451044
H109	H	2.138033	-0.830770	1.009151
H110	H	2.638033	-0.330770	1.509151
H111	H	2.044835	-0.943757	0.915889
H112	H	2.544835	-0.443757	1.415889
H113	H	1.725487	-0.971295	0.596178
H114	H	2.225487	-0.471295	1.096178
H115	H	1.669352	-0.644636	0.540130
H116	H	2.169352	-0.144636	1.040130
H117	H	1.680376	-0.510607	0.551220
H118	H	2.180376	-0.010607	1.051220
O119	O	2.001169	-0.693102	0.872280
O120	O	2.501169	-0.193102	1.372280
H121	H	1.952084	-0.659079	0.935262
H122	H	2.452084	-0.159079	1.435262
