data_functionalizedCrystal
_audit_creation_method	'MofGen! by Chris Wilmer'
_symmetry_space_group_name_H-M	'P1'
_symmetry_Int_Tables_number	1
_symmetry_cell_setting	triclinic
loop_
_symmetry_equiv_pos_as_xyz
  x,y,z
_cell_length_a	16.625547
_cell_length_b	16.120484
_cell_length_c	16.625539
_cell_angle_alpha	92.868615
_cell_angle_beta	89.975178
_cell_angle_gamma	92.925712
loop_
_atom_site_label
_atom_site_type_symbol
_atom_site_fract_x
_atom_site_fract_y
_atom_site_fract_z
Zn1	Zn	1.216387	-0.331907	-0.472258
Zn2	Zn	1.209446	-0.471332	-0.344255
Zn3	Zn	1.081547	-0.331936	-0.337430
Zn4	Zn	1.074677	-0.471281	-0.479032
O5	O	1.145514	-0.401614	-0.408244
O6	O	1.328298	-0.350411	-0.455300
O7	O	1.192450	-0.452874	-0.230519
O8	O	1.105214	-0.215267	-0.349625
O9	O	1.323198	-0.452846	-0.361256
O10	O	1.204280	-0.215245	-0.448682
O11	O	1.098483	-0.350461	-0.225505
O12	O	0.967804	-0.350412	-0.356193
O13	O	1.093505	-0.452759	-0.590964
O14	O	0.962756	-0.452787	-0.460227
O15	O	1.197618	-0.350362	-0.585988
O16	O	1.185788	-0.587991	-0.367824
O17	O	1.086774	-0.587953	-0.466845
C18	C	0.936024	-0.401598	-0.408205
C19	C	0.846402	-0.401611	-0.408209
C20	C	0.773620	-0.401613	-0.408219
C21	C	0.682311	-0.401617	-0.408239
C22	C	0.609534	-0.401625	-0.408260
C23	C	0.518220	-0.401630	-0.408279
C24	C	1.134804	-0.618222	-0.418828
C25	C	1.130296	-0.710888	-0.423383
C26	C	1.122071	-0.880550	-0.431715
C27	C	1.169102	-0.921838	-0.384786
C28	C	1.164525	-1.016243	-0.389422
C29	C	1.126646	-0.786136	-0.427080
C30	C	1.355822	-0.401631	-0.408283
C31	C	1.445443	-0.401638	-0.408300
C32	C	1.145570	-0.401552	-0.618550
C33	C	1.145593	-0.401525	-0.708170
C34	C	1.156288	-0.184160	-0.397636
C35	C	1.160879	-0.091494	-0.393116
C36	C	1.145635	-0.401432	-1.036341
C37	C	1.145621	-0.401461	-0.945034
C38	C	1.145615	-0.401479	-0.872258
C39	C	1.145600	-0.401507	-0.780945
C40	C	1.145508	-0.401616	-0.198753
C41	C	1.145652	-0.401407	-0.109122
H42	H	1.212804	-0.886285	-0.341127
H43	H	1.078372	-0.916100	-0.475370
