data_functionalizedCrystal
_audit_creation_method	'MofGen! by Chris Wilmer'
_symmetry_space_group_name_H-M	'P1'
_symmetry_Int_Tables_number	1
_symmetry_cell_setting	triclinic
loop_
_symmetry_equiv_pos_as_xyz
  x,y,z
_cell_length_a	8.559649
_cell_length_b	8.597187
_cell_length_c	7.681481
_cell_angle_alpha	91.817200
_cell_angle_beta	85.086760
_cell_angle_gamma	102.374946
loop_
_atom_site_label
_atom_site_type_symbol
_atom_site_fract_x
_atom_site_fract_y
_atom_site_fract_z
O1	O	-2.103901	-0.035879	-0.151845
O2	O	-1.641183	0.043651	-0.139786
O3	O	-1.878203	-0.221790	-0.180051
O4	O	-1.866882	0.229562	-0.111579
O5	O	-1.907374	-0.254527	0.107840
O6	O	-1.670354	0.010914	0.148106
O7	O	-2.133072	-0.068616	0.136047
Zn8	Zn	-1.906345	-0.034049	0.187785
Zn9	Zn	-1.867911	0.009084	-0.191524
O10	O	-1.896053	0.196825	0.176312
C11	C	-1.596427	0.033309	0.005074
C12	C	-1.419608	0.051250	0.007792
N13	N	-1.932587	-0.063488	0.446654
C14	C	-1.889946	-0.295406	-0.044794
C15	C	-1.881459	-0.465984	-0.070683
C16	C	-2.177828	-0.058274	-0.008816
C17	C	-2.354646	-0.076213	-0.011547
C18	C	-1.884309	0.270442	0.041051
C19	C	-1.892794	0.441021	0.066929
N20	N	-1.841681	0.038509	-0.450395
H21	H	-1.434301	-0.199063	-0.030192
C22	C	-1.715643	0.548314	-0.340573
C23	C	-1.859586	0.465331	-0.256455
H24	H	-1.702141	0.505913	-0.455260
H25	H	-1.628498	0.537529	-0.276560
H26	H	-1.718684	0.657779	-0.346971
H27	H	-1.856540	0.355867	-0.250045
H28	H	-1.946753	0.476101	-0.320484
C29	C	-1.151850	0.203386	0.030867
C30	C	-1.312078	0.217111	0.032953
H31	H	-1.085470	0.305780	0.046409
H32	H	-1.120533	0.158967	-0.077994
H33	H	-1.140880	0.136120	0.122793
H34	H	-1.323050	0.284368	-0.058983
H35	H	-1.343404	0.261552	0.141827
C36	C	-1.636220	0.269029	0.602740
C37	C	-1.716399	0.179057	0.469424
H38	H	-1.558883	0.355804	0.553229
H39	H	-1.583973	0.203818	0.664759
H40	H	-1.711430	0.308506	0.680631
H41	H	-1.641191	0.139570	0.391540
H42	H	-1.768648	0.244279	0.407377
H43	H	-2.025401	-0.167595	0.506067
C44	C	-1.919085	0.671061	0.243223
C45	C	-1.914642	0.509701	0.252695
H46	H	-1.932562	0.713467	0.357912
H47	H	-2.006254	0.681828	0.179239
H48	H	-1.821434	0.727324	0.186118
H49	H	-2.012297	0.453436	0.309789
H50	H	-1.827465	0.498923	0.316705
