data_functionalizedCrystal
_audit_creation_method	'MofGen! by Chris Wilmer'
_symmetry_space_group_name_H-M	'P1'
_symmetry_Int_Tables_number	1
_symmetry_cell_setting	triclinic
loop_
_symmetry_equiv_pos_as_xyz
  x,y,z
_cell_length_a	17.639617
_cell_length_b	18.101397
_cell_length_c	17.640968
_cell_angle_alpha	78.764690
_cell_angle_beta	70.333968
_cell_angle_gamma	101.204936
loop_
_atom_site_label
_atom_site_type_symbol
_atom_site_fract_x
_atom_site_fract_y
_atom_site_fract_z
Zn1	Zn	1.354385	0.097957	-0.721254
Zn2	Zn	1.326418	-0.057296	-0.583395
Zn3	Zn	1.188675	0.035195	-0.555518
Zn4	Zn	1.216507	-0.057224	-0.693278
O5	O	1.271496	0.004658	-0.638361
O6	O	1.466023	0.103598	-0.726341
O7	O	1.284794	-0.071323	-0.464350
O8	O	1.210713	0.147172	-0.577545
O9	O	1.445476	-0.010465	-0.625057
O10	O	1.332459	0.193283	-0.699310
O11	O	1.183595	-0.003371	-0.443869
O12	O	1.077019	-0.003301	-0.550418
O13	O	1.258149	-0.010342	-0.812336
O14	O	1.097467	-0.071200	-0.651629
O15	O	1.359447	0.103668	-0.832890
O16	O	1.311782	-0.160938	-0.597930
O17	O	1.231031	-0.160885	-0.678661
C18	C	1.057335	-0.044054	-0.594963
C19	C	0.965719	-0.064906	-0.576417
C20	C	1.271418	-0.187778	-0.638307
C21	C	1.271465	-0.270079	-0.638327
C22	C	0.717944	0.163134	-0.779460
C23	C	0.631854	0.143517	-0.762016
C24	C	0.610449	0.024865	-0.656397
C25	C	0.696540	0.044470	-0.673835
C26	C	0.750281	0.113606	-0.735366
C27	C	0.728876	-0.005058	-0.629741
C28	C	0.814959	0.014547	-0.647175
C29	C	0.868704	0.083681	-0.708702
C30	C	0.836363	0.133211	-0.752800
C31	C	0.675133	-0.074191	-0.568206
C32	C	0.707470	-0.123719	-0.524113
C33	C	0.793555	-0.104117	-0.541550
C34	C	0.847300	-0.034983	-0.603077
C35	C	0.825896	-0.153647	-0.497452
C36	C	0.911978	-0.134042	-0.514886
C37	C	0.933383	-0.015378	-0.620511
C38	C	1.271585	-0.569129	-0.638423
C39	C	1.322179	-0.537886	-0.587423
C40	C	1.322433	-0.452179	-0.587633
C41	C	1.271526	-0.420767	-0.638375
C42	C	1.312643	-0.426635	-0.730024
C43	C	1.313064	-0.512247	-0.729776
C44	C	1.179856	-0.562552	-0.598491
C45	C	1.179895	-0.477246	-0.596639
C46	C	1.271491	-0.336918	-0.638352
C47	C	1.271623	-0.652976	-0.638452
C48	C	1.486494	0.053559	-0.681929
C49	C	1.578114	0.074398	-0.700495
C50	C	1.315023	0.053672	-0.853357
C51	C	1.333571	0.074559	-0.944976
C52	C	1.271601	0.197854	-0.638438
C53	C	1.271646	0.280183	-0.638471
C54	C	1.130903	-0.153542	-1.192798
C55	C	1.148349	-0.133903	-1.278891
C56	C	1.253822	-0.015194	-1.300281
C57	C	1.236382	-0.034821	-1.214188
C58	C	1.174922	-0.103997	-1.160453
C59	C	1.280401	0.014724	-1.181842
C60	C	1.262964	-0.004905	-1.095757
C61	C	1.201509	-0.074079	-1.042017
C62	C	1.157486	-0.123626	-1.074367
C63	C	1.341864	0.083896	-1.235580
C64	C	1.385883	0.133442	-1.203234
C65	C	1.368443	0.113816	-1.117147
C66	C	1.306988	0.044642	-1.063407
C67	C	1.412467	0.163363	-1.084796
C68	C	1.395031	0.143735	-0.998711
C69	C	1.289552	0.025014	-0.977321
C70	C	1.228187	-0.044101	-0.424211
C71	C	1.209798	-0.064743	-0.332626
H72	H	0.977143	0.040917	-0.670619
H73	H	1.303865	0.041128	-1.344044
C74	C	1.480069	0.239450	-1.143910
H75	H	1.484147	0.244044	-1.199812
H76	H	1.532587	0.237992	-1.141013
H77	H	1.465168	0.283259	-1.127381
C78	C	0.648352	-0.199765	-0.456436
H79	H	0.592454	-0.204351	-0.452371
H80	H	0.651246	-0.198266	-0.403930
H81	H	0.664882	-0.243599	-0.471267
H82	H	1.356060	0.099874	-1.305676
C83	C	0.963394	0.105252	-0.727883
H84	H	0.990766	0.153522	-0.770839
H85	H	0.985735	0.065107	-0.745985
H86	H	0.972098	0.110451	-0.678657
C87	C	0.596288	0.197998	-0.810531
H88	H	0.640627	0.241975	-0.849677
H89	H	0.556333	0.215488	-0.772269
H90	H	0.569975	0.170139	-0.839592
H91	H	1.278788	-0.531828	-0.770040
C92	C	0.766779	-0.229689	-0.429768
H93	H	0.798366	-0.256377	-0.406000
H94	H	0.739564	-0.262473	-0.454430
H95	H	0.725942	-0.217125	-0.387106
H96	H	1.277682	-0.405351	-0.769804
H97	H	1.294558	-0.576552	-0.519862
C98	C	0.947554	-0.188527	-0.466395
H99	H	0.903221	-0.232514	-0.427260
H100	H	0.973877	-0.160681	-0.437337
H101	H	0.987505	-0.206012	-0.504675
H102	H	1.379566	-0.386418	-0.761972
H103	H	1.435926	0.189763	-1.246997
C104	C	1.133906	-0.617537	-0.508527
H105	H	1.078679	-0.612664	-0.485581
H106	H	1.163499	-0.603633	-0.474932
H107	H	1.131185	-0.670243	-0.509572
C108	C	0.777065	0.239178	-0.847149
H109	H	0.745480	0.265871	-0.870915
H110	H	0.817907	0.226617	-0.889803
H111	H	0.804272	0.271966	-0.822480
H112	H	1.294673	-0.449238	-0.520229
C113	C	1.138434	-0.474999	-0.505412
H114	H	1.176796	-0.439787	-0.492804
H115	H	1.123290	-0.526052	-0.468463
H116	H	1.089640	-0.457751	-0.498692
H117	H	1.138748	-0.457389	-0.629648
C118	C	1.221942	-0.051075	-0.918203
H119	H	1.217862	-0.055663	-0.862301
H120	H	1.236828	-0.094885	-0.934731
H121	H	1.169420	-0.049606	-0.921095
C122	C	1.412970	-0.542646	-0.624680
H123	H	1.420176	-0.563589	-0.671182
H124	H	1.424024	-0.575685	-0.583183
H125	H	1.450721	-0.491592	-0.642677
H126	H	0.566682	-0.031423	-0.606296
H127	H	0.605036	-0.090139	-0.553996
H128	H	0.880123	0.189506	-0.802908
H129	H	1.080837	-0.209859	-1.149039
C130	C	1.413741	-0.400032	-0.625217
H131	H	1.450823	-0.431205	-0.640425
H132	H	1.424538	-0.376513	-0.584856
H133	H	1.422198	-0.360212	-0.673575
C134	C	1.089911	-0.199739	-1.015260
H135	H	1.066201	-0.226446	-1.046853
H136	H	1.047199	-0.187263	-0.974393
H137	H	1.114665	-0.232477	-0.988080
H138	H	1.380637	-0.513367	-0.761550
C139	C	1.128681	-0.590033	-0.648465
H140	H	1.162999	-0.605466	-0.693429
H141	H	1.109772	-0.548235	-0.670245
H142	H	1.081721	-0.633326	-0.612579
H143	H	1.187317	-0.090061	-0.971922
C144	C	1.443441	0.198237	-0.963126
H145	H	1.482533	0.242252	-1.007456
H146	H	1.472539	0.170420	-0.936804
H147	H	1.405113	0.215679	-0.923171
H148	H	1.112499	-0.174254	-1.305222
