data_functionalizedCrystal
_audit_creation_method	'MofGen! by Chris Wilmer'
_symmetry_space_group_name_H-M	'P1'
_symmetry_Int_Tables_number	1
_symmetry_cell_setting	triclinic
loop_
_symmetry_equiv_pos_as_xyz
  x,y,z
_cell_length_a	13.032831
_cell_length_b	16.959454
_cell_length_c	13.032328
_cell_angle_alpha	97.149270
_cell_angle_beta	90.887223
_cell_angle_gamma	82.825094
loop_
_atom_site_label
_atom_site_type_symbol
_atom_site_fract_x
_atom_site_fract_y
_atom_site_fract_z
Zn1	Zn	1.498445	-0.533797	-0.780841
Zn2	Zn	1.998445	-0.033797	-0.280841
Zn3	Zn	1.520182	-0.651566	-0.608865
Zn4	Zn	2.020182	-0.151566	-0.108865
Zn5	Zn	1.348306	-0.500780	-0.587083
Zn6	Zn	1.848306	-0.000780	-0.087083
Zn7	Zn	1.326429	-0.647290	-0.758989
Zn8	Zn	1.826429	-0.147290	-0.258989
O9	O	1.423340	-0.583358	-0.683944
O10	O	1.923340	-0.083358	-0.183944
O11	O	1.645248	-0.565026	-0.776289
O12	O	2.145248	-0.065026	-0.276289
O13	O	1.515635	-0.619536	-0.462059
O14	O	2.015635	-0.119536	0.037941
O15	O	1.368281	-0.394557	-0.612815
O16	O	1.868281	0.105443	-0.112815
O17	O	1.661218	-0.651551	-0.649939
O18	O	2.161218	-0.151551	-0.149939
O19	O	1.478587	-0.418814	-0.755168
O20	O	1.978587	0.081186	-0.255168
O21	O	1.389358	-0.508754	-0.446056
O22	O	1.889358	-0.008754	0.053944
O23	O	1.201484	-0.504607	-0.591625
O24	O	1.701484	-0.004607	-0.091625
O25	O	1.330994	-0.644263	-0.905804
O26	O	1.830994	-0.144263	-0.405804
O27	O	1.185411	-0.612248	-0.717924
O28	O	1.685411	-0.112248	-0.217924
O29	O	1.457374	-0.560880	-0.921858
O30	O	1.957374	-0.060880	-0.421858
O31	O	1.494421	-0.761602	-0.628750
O32	O	1.994421	-0.261602	-0.128750
O33	O	1.352072	-0.758460	-0.739045
O34	O	1.852072	-0.258460	-0.239045
C35	C	1.156131	-0.554382	-0.650040
C36	C	1.656131	-0.054382	-0.150040
C37	C	1.041815	-0.542007	-0.635561
C38	C	1.541815	-0.042007	-0.135561
C39	C	0.982936	-0.589817	-0.691502
C40	C	1.482936	-0.089817	-0.191502
C41	C	0.864783	-0.577028	-0.676537
C42	C	1.364783	-0.077028	-0.176537
C43	C	1.423256	-0.788714	-0.683916
C44	C	1.923256	-0.288714	-0.183916
C45	C	1.423310	-0.876579	-0.683950
C46	C	1.923310	-0.376579	-0.183950
C47	C	1.349315	-1.246461	-0.741380
C48	C	1.849315	-0.746461	-0.241380
C49	C	1.497638	-1.249693	-0.626650
C50	C	1.997638	-0.749693	-0.126650
C51	C	1.497604	-1.167142	-0.626636
C52	C	1.997604	-0.667142	-0.126636
C53	C	1.423423	-1.124247	-0.683994
C54	C	1.923423	-0.624247	-0.183994
C55	C	1.349276	-1.163902	-0.741366
C56	C	1.849276	-0.663902	-0.241366
C57	C	1.571742	-1.127479	-0.569256
C58	C	2.071742	-0.627479	-0.069256
C59	C	1.571710	-1.044923	-0.569239
C60	C	2.071710	-0.544923	-0.069239
C61	C	1.497532	-1.002028	-0.626604
C62	C	1.997532	-0.502028	-0.126604
C63	C	1.423384	-1.041688	-0.683979
C64	C	1.923384	-0.541688	-0.183979
C65	C	1.349203	-0.998793	-0.741337
C66	C	1.849203	-0.498793	-0.241337
C67	C	1.275058	-1.038453	-0.798719
C68	C	1.775058	-0.538453	-0.298719
C69	C	1.275099	-1.121006	-0.798730
C70	C	1.775099	-0.621006	-0.298730
C71	C	1.497491	-0.919474	-0.626592
C72	C	1.997491	-0.419474	-0.126592
C73	C	1.349164	-0.916234	-0.741322
C74	C	1.849164	-0.416234	-0.241322
C75	C	1.691593	-0.612449	-0.717981
C76	C	2.191593	-0.112449	-0.217981
C77	C	1.805906	-0.624845	-0.732486
C78	C	2.305906	-0.124845	-0.232486
C79	C	1.389319	-0.605778	-0.952190
C80	C	1.889319	-0.105778	-0.452190
C81	C	1.374821	-0.615331	-1.066501
C82	C	1.874821	-0.115331	-0.566501
C83	C	1.423450	-0.377206	-0.683999
C84	C	1.923450	0.122794	-0.183999
C85	C	1.423496	-0.289356	-0.684022
C86	C	1.923496	0.210644	-0.184022
C87	C	1.415918	-0.588214	-1.243555
C88	C	1.915918	-0.088214	-0.743555
C89	C	1.430897	-0.578333	-1.125409
C90	C	1.930897	-0.078333	-0.625409
C91	C	1.457288	-0.560976	-0.416750
C92	C	1.957288	-0.060976	0.083250
C93	C	1.471985	-0.551221	-0.302465
C94	C	1.971985	-0.051221	0.197535
H95	H	1.214655	-1.003517	-0.845415
H96	H	1.714655	-0.503517	-0.345415
H97	H	1.315715	-0.654312	-1.103526
H98	H	1.815715	-0.154312	-0.603526
H99	H	0.827724	-0.526621	-0.617566
H100	H	1.327724	-0.026621	-0.117566
H101	H	1.019998	-0.640215	-0.750477
H102	H	1.519998	-0.140215	-0.250477
H103	H	1.531072	-0.512230	-1.265432
H104	H	2.031072	-0.012230	-0.765432
H105	H	1.632130	-1.162409	-0.522550
H106	H	2.132130	-0.662409	-0.022550
H107	H	1.288951	-1.278756	-0.788102
H108	H	1.788951	-0.778756	-0.288102
O109	O	0.854977	-0.691612	-0.810614
O110	O	1.354977	-0.191612	-0.310614
H111	H	0.940077	-0.691183	-0.810108
H112	H	1.440077	-0.191183	-0.310108
O113	O	1.337635	-0.639851	-1.292599
O114	O	1.837635	-0.139851	-0.792599
H115	H	1.357819	-0.702089	-1.274253
H116	H	1.857819	-0.202089	-0.774253
O117	O	0.992739	-0.475254	-0.557423
O118	O	1.492739	0.024746	-0.057423
H119	H	0.907641	-0.475693	-0.557917
H120	H	1.407641	0.024307	-0.057917
H121	H	1.288760	-0.881314	-0.788035
H122	H	1.788760	-0.381314	-0.288035
O123	O	1.577657	-1.295971	-0.564819
O124	O	2.077657	-0.795971	-0.064819
H125	H	1.538341	-1.324273	-0.506634
H126	H	2.038341	-0.824273	-0.006634
O127	O	1.195115	-1.163775	-0.860594
O128	O	1.695115	-0.663775	-0.360594
H129	H	1.207594	-1.228383	-0.850951
H130	H	1.707594	-0.728383	-0.350951
O131	O	1.651685	-1.002150	-0.507367
O132	O	2.151685	-0.502150	-0.007367
H133	H	1.703278	-1.045850	-0.467493
H134	H	2.203278	-0.545850	0.032507
O135	O	1.577452	-0.876695	-0.564715
O136	O	2.077452	-0.376695	-0.064715
H137	H	1.629043	-0.920393	-0.524835
H138	H	2.129043	-0.420393	-0.024835
O139	O	1.509184	-0.526690	-1.076377
O140	O	2.009184	-0.026690	-0.576377
H141	H	1.508672	-0.527039	-0.991276
H142	H	2.008672	-0.027039	-0.491276
