data_functionalizedCrystal
_audit_creation_method	'MofGen! by Chris Wilmer'
_symmetry_space_group_name_H-M	'P1'
_symmetry_Int_Tables_number	1
_symmetry_cell_setting	triclinic
loop_
_symmetry_equiv_pos_as_xyz
  x,y,z
_cell_length_a	8.559649
_cell_length_b	12.996460
_cell_length_c	8.597304
_cell_angle_alpha	82.294004
_cell_angle_beta	77.624184
_cell_angle_gamma	89.990776
loop_
_atom_site_label
_atom_site_type_symbol
_atom_site_fract_x
_atom_site_fract_y
_atom_site_fract_z
O1	O	-2.119300	0.080930	0.053140
O2	O	-1.655360	0.088087	-0.027760
O3	O	-1.896459	0.064155	0.242258
O4	O	-1.878201	0.104862	-0.216878
O5	O	-1.896433	-0.106980	0.242268
O6	O	-1.655334	-0.083048	-0.027750
O7	O	-2.119274	-0.090204	0.053150
Cu8	Cu	-1.887302	-0.102252	0.012701
Cu9	Cu	-1.887332	0.100134	0.012689
O10	O	-1.878175	-0.066272	-0.216868
C11	C	-1.595913	0.003061	-0.033886
C12	C	-1.418818	0.004673	-0.052136
N13	N	-1.887292	-0.244600	0.012712
C14	C	-1.887330	-0.664412	0.012687
C15	C	-1.887315	-0.547607	0.012688
C16	C	-1.887312	-0.454510	0.012698
C17	C	-1.887295	-0.337698	0.012702
C18	C	-1.178721	-0.005186	0.059276
C19	C	-1.355816	-0.006819	0.077525
C20	C	-1.894484	-0.026574	0.300499
C21	C	-1.888620	-0.041952	0.474020
N22	N	-1.887354	0.242481	0.012692
C23	C	-1.880150	0.024458	-0.275109
C24	C	-1.886014	0.039843	-0.448630
H25	H	-1.437368	-0.017896	0.202503
H26	H	-1.886346	-0.123757	0.540548
H27	H	-1.337275	0.015760	-0.177105
H28	H	-1.888265	0.121644	0.484844
