data_functionalizedCrystal
_audit_creation_method	'MofGen! by Chris Wilmer'
_symmetry_space_group_name_H-M	'P1'
_symmetry_Int_Tables_number	1
_symmetry_cell_setting	triclinic
loop_
_symmetry_equiv_pos_as_xyz
  x,y,z
_cell_length_a	19.288864
_cell_length_b	14.185569
_cell_length_c	19.288865
_cell_angle_alpha	76.886572
_cell_angle_beta	96.863755
_cell_angle_gamma	76.905400
loop_
_atom_site_label
_atom_site_type_symbol
_atom_site_fract_x
_atom_site_fract_y
_atom_site_fract_z
O1	O	0.905480	0.083748	-0.102508
O2	O	1.405480	0.583748	0.397492
O3	O	0.703232	0.083681	-0.114184
O4	O	1.203232	0.583681	0.385816
O5	O	0.810204	0.083697	-0.007212
O6	O	1.310204	0.583697	0.492788
O7	O	0.798509	0.083732	-0.209479
O8	O	1.298509	0.583732	0.290521
O9	O	0.841805	-0.083133	0.024385
O10	O	1.341805	0.416867	0.524385
O11	O	0.734833	-0.083149	-0.082587
O12	O	1.234833	0.416851	0.417413
O13	O	0.937081	-0.083082	-0.070911
O14	O	1.437081	0.416918	0.429089
Cu15	Cu	0.838842	-0.098348	-0.073864
Cu16	Cu	1.338842	0.401652	0.426136
Cu17	Cu	0.801471	0.098947	-0.111231
Cu18	Cu	1.301471	0.598947	0.388769
O19	O	0.830109	-0.083098	-0.177882
O20	O	1.330109	0.416902	0.322118
C21	C	0.693158	0.000257	-0.098007
C22	C	1.193158	0.500257	0.401993
C23	C	0.616059	0.000231	-0.096873
C24	C	1.116059	0.500231	0.403127
N25	N	0.865132	-0.237116	-0.047581
N26	N	1.365132	0.262884	0.452419
C27	C	0.571358	0.000258	-0.159646
C28	C	1.071358	0.500258	0.340354
C29	C	0.498909	0.000268	-0.158588
C30	C	0.998909	0.500268	0.341412
C31	C	0.471160	0.000273	-0.094756
C32	C	0.971160	0.500273	0.405244
C33	C	0.515873	0.000240	-0.031974
C34	C	1.015873	0.500240	0.468026
C35	C	0.588322	0.000219	-0.033033
C36	C	1.088322	0.500219	0.466967
C37	C	0.351823	0.058745	-0.055652
C38	C	0.851823	0.558745	0.444348
C39	C	0.279373	0.058772	-0.054597
C40	C	0.779373	0.558772	0.445403
C41	C	0.247703	0.000333	-0.091488
C42	C	0.747703	0.500333	0.408512
C43	C	0.288488	-0.058121	-0.129448
C44	C	0.788488	0.441879	0.370552
C45	C	0.360938	-0.058142	-0.130507
C46	C	0.860938	0.441858	0.369493
C47	C	0.392602	0.000295	-0.093601
C48	C	0.892602	0.500295	0.406399
C49	C	0.124444	0.000370	-0.153117
C50	C	0.624444	0.500370	0.346883
C51	C	0.051995	0.000375	-0.152055
C52	C	0.551995	0.500375	0.347945
C53	C	0.068959	0.000356	-0.025441
C54	C	0.568959	0.500356	0.474559
C55	C	0.141408	0.000342	-0.026504
C56	C	0.641408	0.500342	0.473496
C57	C	0.169145	0.000353	-0.090344
C58	C	0.669145	0.500353	0.409656
C59	C	0.697947	-0.604790	-0.214695
C60	C	1.197947	-0.104790	0.285305
C61	C	0.717866	-0.709809	-0.194791
C62	C	1.217866	-0.209809	0.305209
C63	C	0.812609	-0.709756	-0.100103
C64	C	1.312609	-0.209756	0.399897
C65	C	0.792695	-0.604735	-0.119997
C66	C	1.292695	-0.104735	0.380003
C67	C	0.735364	-0.552260	-0.177294
C68	C	1.235364	-0.052260	0.322706
C69	C	0.830113	-0.552205	-0.082595
C70	C	1.330113	-0.052205	0.417405
C71	C	0.810203	-0.447194	-0.102490
C72	C	1.310203	0.052806	0.397510
C73	C	0.752876	-0.394712	-0.159786
C74	C	1.252876	0.105288	0.340214
C75	C	0.715455	-0.447249	-0.197189
C76	C	1.215455	0.052751	0.302811
C77	C	0.887446	-0.604682	-0.025302
C78	C	1.387446	-0.104682	0.474698
C79	C	0.924864	-0.552152	0.012100
C80	C	1.424864	-0.052152	0.512100
C81	C	0.904951	-0.447139	-0.007791
C82	C	1.404951	0.052861	0.492209
C83	C	0.847624	-0.394657	-0.065088
C84	C	1.347624	0.105343	0.434912
C85	C	0.942372	-0.394602	0.029611
C86	C	1.442372	0.105398	0.529611
C87	C	0.922463	-0.289590	0.009716
C88	C	1.422463	0.210410	0.509716
C89	C	0.827715	-0.289645	-0.084983
C90	C	1.327715	0.210355	0.415017
C91	C	0.947155	0.000344	-0.087087
C92	C	1.447155	0.500344	0.412913
C93	C	1.024252	0.000377	-0.088223
C94	C	1.524252	0.500377	0.411777
C95	C	0.825629	0.000278	0.034464
C96	C	1.325629	0.500278	0.534464
C97	C	0.824502	0.000269	0.111569
C98	C	1.324502	0.500269	0.611569
N99	N	0.775187	0.237715	-0.137508
N100	N	1.275187	0.737715	0.362492
C101	C	0.814684	0.000323	-0.219558
C102	C	1.314684	0.500323	0.280442
C103	C	0.815810	0.000339	-0.296665
C104	C	1.315810	0.500339	0.203335
C105	C	0.887266	0.000285	0.156262
C106	C	1.387266	0.500285	0.656262
C107	C	0.886203	0.000301	0.228706
C108	C	1.386203	0.500301	0.728706
C109	C	0.822375	0.000280	0.256458
C110	C	1.322375	0.500280	0.756458
C111	C	0.759600	0.000270	0.211754
C112	C	1.259600	0.500270	0.711754
C113	C	0.760664	0.000264	0.139309
C114	C	1.260664	0.500264	0.639309
C115	C	0.783267	-0.058173	0.375816
C116	C	1.283267	0.441827	0.875816
C117	C	0.782207	-0.058174	0.448261
C118	C	1.282207	0.441826	0.948261
C119	C	0.819091	0.000302	0.479899
C120	C	1.319091	0.500302	0.979899
C121	C	0.857048	0.058765	0.439088
C122	C	1.357048	0.558765	0.939088
C123	C	0.858112	0.058759	0.366644
C124	C	1.358112	0.558759	0.866644
C125	C	0.821214	0.000287	0.335011
C126	C	1.321214	0.500287	0.835011
C127	C	0.880707	0.000336	0.603145
C128	C	1.380707	0.500336	1.103145
C129	C	0.879639	0.000357	0.675589
C130	C	1.379639	0.500357	1.175589
C131	C	0.753037	0.000317	0.658637
C132	C	1.253037	0.500317	1.158637
C133	C	0.754104	0.000305	0.586192
C134	C	1.254104	0.500305	1.086192
C135	C	0.817942	0.000310	0.558452
C136	C	1.317942	0.500310	1.058452
H137	H	0.593936	0.000269	-0.211631
H138	H	1.093936	0.500269	0.288369
H139	H	0.952933	-0.246820	0.040172
H140	H	1.452933	0.253180	0.540172
N141	N	0.653613	-0.390644	-0.258983
N142	N	1.153613	0.109356	0.241017
H143	H	0.664912	-0.408903	-0.304803
H144	H	1.164912	0.091097	0.195197
H145	H	0.646709	-0.316168	-0.265844
H146	H	1.146709	0.183832	0.234156
H147	H	0.377601	0.106340	-0.025610
H148	H	0.877601	0.606340	0.474390
N149	N	0.743500	-0.121272	0.341704
N150	N	1.243500	0.378728	0.841704
H151	H	0.749935	-0.112409	0.289619
H152	H	1.249935	0.387591	0.789619
H153	H	0.690328	-0.099453	0.343682
H154	H	1.190328	0.400547	0.843682
H155	H	0.687392	-0.752573	-0.225254
H156	H	1.187392	-0.252573	0.274746
H157	H	0.859290	-0.752493	-0.053452
H158	H	1.359290	-0.252493	0.446548
H159	H	0.046355	0.000422	0.026520
H160	H	0.546355	0.500422	0.526520
N161	N	0.485941	0.000247	0.036869
N162	N	0.985941	0.500247	0.536869
H163	H	0.490562	0.062081	0.052650
H164	H	0.990562	0.562081	0.552650
H165	H	0.513964	-0.061648	0.076026
H166	H	1.013964	0.438352	0.576026
N167	N	0.154369	0.000377	-0.221968
N168	N	0.654369	0.500377	0.278032
H169	H	0.115055	0.000388	-0.261574
H170	H	0.615055	0.500388	0.238426
H171	H	0.195758	-0.061474	-0.213451
H172	H	0.695758	0.438526	0.286549
N173	N	0.896837	0.121835	0.473204
N174	N	1.396837	0.621835	0.973204
H175	H	0.876745	0.194764	0.445905
H176	H	1.376745	0.694764	0.945905
H177	H	0.950015	0.099936	0.471272
H178	H	1.450015	0.599936	0.971272
H179	H	0.930751	0.000376	0.711977
H180	H	1.430751	0.500376	1.211977
N181	N	0.686413	0.000267	0.537983
N182	N	1.186413	0.500267	1.037983
H183	H	0.672317	0.062107	0.495827
H184	H	1.172317	0.562107	0.995827
H185	H	0.645861	0.000216	0.566609
H186	H	1.145861	0.500216	1.066609
N187	N	0.636110	-0.548179	-0.276493
N188	N	1.136110	-0.048179	0.223507
H189	H	0.597190	-0.504635	-0.258272
H190	H	1.097190	-0.004635	0.241728
H191	H	0.615481	-0.597451	-0.297144
H192	H	1.115481	-0.097451	0.202856
H193	H	0.989056	-0.437340	0.076258
H194	H	1.489056	0.062660	0.576258
H195	H	0.903657	-0.690189	-0.009108
H196	H	1.403657	-0.190189	0.490892
N197	N	0.235386	0.121817	-0.013659
N198	N	0.735386	0.621817	0.486341
H199	H	0.266443	0.158825	0.009559
H200	H	0.766443	0.658825	0.509559
H201	H	0.217795	0.076984	0.025052
H202	H	0.717795	0.576984	0.525052
N203	N	0.003803	0.000388	-0.219775
N204	N	0.503803	0.500388	0.280225
H205	H	-0.038337	0.062233	-0.233886
H206	H	0.461663	0.562233	0.266114
H207	H	-0.014877	-0.061496	-0.210405
H208	H	0.485123	0.438504	0.289595
H209	H	0.971545	-0.594889	0.058750
H210	H	1.471545	-0.094889	0.558750
N211	N	0.731391	-0.281449	-0.181238
N212	N	1.231391	0.218551	0.318762
H213	H	0.689394	-0.256180	-0.223207
H214	H	1.189394	0.243820	0.276793
H215	H	0.773782	-0.256187	-0.195983
H216	H	1.273782	0.243813	0.304017
H217	H	0.707631	0.000255	0.234353
H218	H	1.207631	0.500255	0.734353
H219	H	0.932686	0.000344	0.580557
H220	H	1.432686	0.500344	1.080557
H221	H	0.177804	0.000325	0.024612
H222	H	0.677804	0.500325	0.524612
N223	N	0.956116	0.000292	0.126342
N224	N	1.456116	0.500292	0.626342
H225	H	0.995717	0.000305	0.165652
H226	H	1.495717	0.500305	0.665652
H227	H	0.947604	0.062137	0.084933
H228	H	1.447604	0.562137	0.584933
H229	H	0.937314	0.000318	0.265102
H230	H	1.437314	0.500318	0.765102
N231	N	0.636542	0.000185	0.034676
N232	N	1.136542	0.500185	0.534676
H233	H	0.607975	0.000185	0.075277
H234	H	1.107975	0.500185	0.575277
H235	H	0.655275	0.062023	0.025283
H236	H	1.155275	0.562023	0.525283
N237	N	0.254336	-0.121163	-0.169232
N238	N	0.754336	0.378837	0.330768
H239	H	0.281607	-0.194097	-0.149132
H240	H	0.781607	0.305903	0.350868
H241	H	0.256266	-0.099260	-0.222415
H242	H	0.756266	0.400740	0.277585
N243	N	0.692965	0.000248	0.091099
N244	N	1.192965	0.500248	0.591099
H245	H	0.652366	0.000241	0.119668
H246	H	1.152366	0.500241	0.619668
H247	H	0.702363	-0.061603	0.072396
H248	H	1.202363	0.438397	0.572396
H249	H	0.889016	0.106364	0.333418
H250	H	1.389016	0.606364	0.833418
N251	N	0.765875	-0.233043	-0.146779
N252	N	1.265875	0.266957	0.353221
H253	H	0.784052	-0.189450	-0.185725
H254	H	1.284052	0.310550	0.314275
H255	H	0.726978	-0.189557	-0.128498
H256	H	1.226978	0.310443	0.371502
H257	H	0.701066	0.000305	0.681230
H258	H	1.201066	0.500305	1.181230
H259	H	0.751296	-0.105773	0.481482
H260	H	1.251296	0.394227	0.981482
N261	N	0.404934	-0.121197	-0.171432
N262	N	0.904934	0.378803	0.328568
H263	H	0.422533	-0.076434	-0.210183
H264	H	0.922533	0.423566	0.289817
H265	H	0.373847	-0.158213	-0.194597
H266	H	0.873847	0.341787	0.305403
N267	N	0.450682	0.000300	-0.226295
N268	N	0.950682	0.500300	0.273705
H269	H	0.479248	0.000303	-0.266898
H270	H	0.979248	0.500303	0.233102
H271	H	0.408560	0.062158	-0.240319
H272	H	0.908560	0.562158	0.259681
