data_functionalizedCrystal
_audit_creation_method	'MofGen! by Chris Wilmer'
_symmetry_space_group_name_H-M	'P1'
_symmetry_Int_Tables_number	1
_symmetry_cell_setting	triclinic
loop_
_symmetry_equiv_pos_as_xyz
  x,y,z
_cell_length_a	18.215407
_cell_length_b	18.215405
_cell_length_c	12.759393
_cell_angle_alpha	89.966397
_cell_angle_beta	89.980320
_cell_angle_gamma	90.017245
loop_
_atom_site_label
_atom_site_type_symbol
_atom_site_fract_x
_atom_site_fract_y
_atom_site_fract_z
Zn1	Zn	1.125096	-0.293056	-0.593996
Zn2	Zn	1.125006	-0.416140	-0.418307
Zn3	Zn	1.002025	-0.293080	-0.418332
Zn4	Zn	1.002000	-0.416073	-0.593945
O5	O	1.063532	-0.354587	-0.506145
O6	O	1.228069	-0.309401	-0.570702
O7	O	1.108664	-0.399854	-0.271289
O8	O	1.018399	-0.190092	-0.441666
O9	O	1.228002	-0.399830	-0.441624
O10	O	1.108820	-0.190075	-0.570726
O11	O	1.018311	-0.309442	-0.271307
O12	O	0.899037	-0.309377	-0.441616
O13	O	1.018356	-0.399716	-0.740973
O14	O	0.899019	-0.399740	-0.570638
O15	O	1.108795	-0.309336	-0.741011
O16	O	1.108640	-0.519115	-0.441574
O17	O	1.018268	-0.519066	-0.570614
C18	C	0.872325	-0.354555	-0.506124
C19	C	0.790527	-0.354559	-0.506141
C20	C	0.525498	-0.307591	-0.573463
C21	C	0.602357	-0.307579	-0.573460
C22	C	0.602306	-0.401607	-0.438850
C23	C	0.525449	-0.401622	-0.438859
C24	C	0.487047	-0.354610	-0.506164
C25	C	0.640763	-0.354583	-0.506152
C26	C	0.724097	-0.354570	-0.506147
C27	C	0.403708	-0.354623	-0.506170
C28	C	1.063461	-0.545793	-0.506109
C29	C	1.063498	-0.627592	-0.506128
C30	C	1.110602	-0.815716	-0.573421
C31	C	1.110629	-0.892575	-0.573441
C32	C	1.016552	-0.892706	-0.438934
C33	C	1.016522	-0.815849	-0.438920
C34	C	1.063551	-0.777356	-0.506162
C35	C	1.063608	-0.931072	-0.506196
C36	C	1.063637	-1.014405	-0.506217
C37	C	1.063522	-0.694017	-0.506143
C38	C	1.255485	-0.354620	-0.506166
C39	C	1.337283	-0.354634	-0.506175
C40	C	1.063583	-0.354516	-0.780178
C41	C	1.063605	-0.354486	-0.896955
C42	C	1.063623	-0.162634	-0.506204
C43	C	1.063661	-0.080835	-0.506230
C44	C	1.110719	-0.307385	-1.061564
C45	C	1.110701	-0.307416	-0.951839
C46	C	1.016528	-0.401534	-0.951801
C47	C	1.016550	-0.401506	-1.061523
C48	C	1.165087	-0.253044	-1.061585
C49	C	1.165069	-0.253075	-0.951861
C50	C	1.063523	-0.354605	-0.233178
C51	C	1.063644	-0.354428	-0.116401
H52	H	0.633583	-0.439881	-0.384051
C53	C	0.964832	-0.935051	-0.364964
H54	H	0.971593	-0.986319	-0.374595
H55	H	0.915372	-0.922484	-0.380266
H56	H	0.975634	-0.922480	-0.294383
H57	H	0.978204	-0.784614	-0.384150
C58	C	1.162389	-0.934768	-0.647420
H59	H	1.190395	-0.900832	-0.687456
H60	H	1.134233	-0.964746	-0.693169
H61	H	1.194483	-0.964747	-0.607269
H62	H	1.149824	-0.196082	-0.922099
H63	H	0.978224	-0.439820	-1.106168
C64	C	0.964724	-0.453311	-0.891431
H65	H	0.971450	-0.446588	-0.818230
H66	H	0.975472	-0.502755	-0.909400
H67	H	0.915283	-0.442522	-0.909410
C68	C	0.483150	-0.453344	-0.364825
H69	H	0.517027	-0.481332	-0.324728
H70	H	0.453176	-0.485445	-0.404941
H71	H	0.453158	-0.425156	-0.319118
H72	H	1.222083	-0.268309	-1.091361
C73	C	1.162326	-0.773372	-0.647388
H74	H	1.155576	-0.722104	-0.637743
H75	H	1.151531	-0.785940	-0.717966
H76	H	1.211787	-0.785943	-0.632074
H77	H	1.144699	-0.198892	-1.095634
C78	C	1.238183	-0.280685	-0.905873
H79	H	1.235672	-0.279775	-0.831513
H80	H	1.277038	-0.249828	-0.928868
H81	H	1.246934	-0.329504	-0.928855
C82	C	0.483258	-0.255889	-0.647507
H83	H	0.517169	-0.227891	-0.687595
H84	H	0.453265	-0.223796	-0.607407
H85	H	0.453290	-0.284091	-0.693221
H86	H	0.633660	-0.269292	-0.628262
