data_functionalizedCrystal
_audit_creation_method	'MofGen! by Chris Wilmer'
_symmetry_space_group_name_H-M	'P1'
_symmetry_Int_Tables_number	1
_symmetry_cell_setting	triclinic
loop_
_symmetry_equiv_pos_as_xyz
  x,y,z
_cell_length_a	23.096457
_cell_length_b	21.606444
_cell_length_c	23.096457
_cell_angle_alpha	59.999408
_cell_angle_beta	90.003973
_cell_angle_gamma	59.998565
loop_
_atom_site_label
_atom_site_type_symbol
_atom_site_fract_x
_atom_site_fract_y
_atom_site_fract_z
Zr1	Zr	0.557744	0.677471	-0.075988
O2	O	0.465278	0.806605	-0.168437
O3	O	0.586091	0.548348	-0.047649
O4	O	0.586068	0.677489	-0.168446
O5	O	0.465318	0.677447	0.047648
O6	O	0.681348	0.677490	-0.168449
O7	O	0.465301	0.677465	-0.047641
O8	O	0.681390	0.446482	0.047633
O9	O	0.465277	0.908456	-0.168434
O10	O	0.669286	0.601456	-0.035563
O11	O	0.598192	0.601442	0.035553
O12	O	0.598165	0.753488	-0.106669
O13	O	0.527071	0.753474	-0.035553
Zr14	Zr	0.709733	0.677447	0.075982
Zr15	Zr	0.709705	0.677474	-0.075993
Zr16	Zr	0.557772	0.677444	0.075988
Zr17	Zr	0.557743	0.839912	-0.075983
Zr18	Zr	0.709735	0.515006	0.075977
O19	O	0.681386	0.806570	0.047644
O20	O	0.681347	0.806609	-0.168445
O21	O	0.465317	0.806566	0.047652
O22	O	0.802200	0.548313	0.168432
O23	O	0.802160	0.548352	-0.047657
O24	O	0.586130	0.548309	0.168440
O25	O	0.802159	0.677471	-0.047653
O26	O	0.681409	0.677429	0.168440
O27	O	0.586129	0.677428	0.168444
O28	O	0.802176	0.677453	0.047636
O29	O	0.586065	0.908458	-0.168439
O30	O	0.681412	0.446460	0.168433
O31	O	0.802201	0.446462	0.168429
O32	O	0.802179	0.446484	0.047629
O33	O	0.465299	0.908434	-0.047634
O34	O	0.586087	0.908436	-0.047639
O35	O	0.669312	0.601430	0.106664
O36	O	0.740406	0.601444	0.035548
O37	O	0.669285	0.753476	-0.035558
O38	O	0.598191	0.753462	0.035558
C39	C	0.633741	0.474271	-0.000009
C40	C	0.633741	0.405311	-0.000011
C41	C	0.670850	0.372921	-0.037134
C42	C	0.670852	0.308121	-0.037129
C43	C	0.633742	0.275716	-0.000005
C44	C	0.596632	0.308109	0.037122
C45	C	0.596634	0.372904	0.037121
C46	C	0.596624	0.046800	0.037128
C47	C	0.596623	-0.017997	0.037125
C48	C	0.670842	-0.017983	-0.037122
C49	C	0.670844	0.046811	-0.037123
C50	C	0.633738	0.079195	0.000007
C51	C	0.633736	0.149458	0.000003
C52	C	0.633738	0.205460	-0.000004
C53	C	0.443658	0.677456	0.000004
C54	C	0.379147	0.677454	0.000007
C55	C	0.385965	0.598098	0.037117
C56	C	0.325350	0.598096	0.037120
C57	C	0.257916	0.677456	-0.000001
C58	C	0.251100	0.756824	-0.037113
C59	C	0.311715	0.756823	-0.037109
N60	N	0.135109	0.736534	-0.060415
N61	N	0.077529	0.736530	-0.060417
C62	C	0.075283	0.677464	-0.000014
N63	N	0.132798	0.618390	0.060392
N64	N	0.190384	0.618392	0.060393
C65	C	0.192185	0.677466	-0.000009
C66	C	0.016379	0.598101	0.037103
C67	C	-0.044240	0.598103	0.037108
C68	C	-0.118490	0.756832	-0.037131
C69	C	-0.057872	0.756828	-0.037129
C70	C	0.009560	0.677460	-0.000014
C71	C	0.823819	0.677462	-0.000010
C72	C	0.888330	0.677464	-0.000012
C73	C	0.633704	0.677493	-0.190101
C74	C	0.633692	0.677505	-0.254618
C75	C	0.633737	0.880647	0.000004
C76	C	0.633736	0.949607	0.000006
C77	C	0.686185	0.677508	-0.284914
C78	C	0.686201	0.677490	-0.345521
C79	C	0.633713	0.677487	-0.375839
C80	C	0.581216	0.677480	-0.345534
C81	C	0.581205	0.677489	-0.284924
N82	N	0.571476	0.727027	-0.494194
N83	N	0.571489	0.727020	-0.551773
C84	C	0.633742	0.677458	-0.558455
N85	N	0.695986	0.627914	-0.505389
N86	N	0.695974	0.627924	-0.447807
C87	C	0.633719	0.677477	-0.441561
C88	C	0.686256	0.677440	-0.654468
C89	C	0.686272	0.677417	-0.715074
C90	C	0.581282	0.677416	-0.715090
C91	C	0.581271	0.677430	-0.654481
C92	C	0.633758	0.677446	-0.624175
C93	C	0.633773	0.677425	0.190095
C94	C	0.633785	0.677413	0.254613
C95	C	0.823821	0.474274	-0.000016
C96	C	0.888333	0.405315	-0.000020
C97	C	0.633775	0.474237	0.190089
C98	C	0.633788	0.405265	0.254605
C99	C	0.823856	0.474240	0.190082
C100	C	0.888379	0.405269	0.254595
C101	C	0.443622	0.880678	-0.190088
C102	C	0.379098	0.949649	-0.254601
C103	C	0.443656	0.880644	0.000010
C104	C	0.379144	0.949603	0.000015
C105	C	0.633702	0.880681	-0.190094
C106	C	0.633689	0.949653	-0.254610
C107	C	0.881505	0.372938	-0.037148
C108	C	0.942115	0.308152	-0.037166
C109	C	1.009553	0.275741	-0.000052
C110	C	1.016380	0.308126	0.037076
C111	C	0.955770	0.372914	0.037090
C112	C	0.670917	0.372869	0.322027
C113	C	0.670926	0.308071	0.382652
C114	C	0.633809	0.275667	0.375853
C115	C	0.596675	0.308069	0.308423
C116	C	0.596663	0.372870	0.247800
C117	C	0.955797	0.372887	0.247770
C118	C	1.016430	0.308091	0.308381
C119	C	1.009644	0.275674	0.375817
C120	C	0.942219	0.308062	0.382641
C121	C	0.881588	0.372861	0.322031
C122	C	0.311680	0.982038	-0.247775
C123	C	0.251047	1.046855	-0.308386
C124	C	0.257833	1.079276	-0.375822
C125	C	0.325258	1.046883	-0.382646
C126	C	0.385890	0.982073	-0.322036
C127	C	0.385972	0.981987	0.037136
C128	C	0.325362	1.046790	0.037138
C129	C	0.257924	1.079203	0.000022
C130	C	0.251098	1.046816	-0.037104
C131	C	0.311707	0.982018	-0.037109
C132	C	0.670814	0.982037	-0.247788
C133	C	0.670816	1.046835	-0.308401
C134	C	0.633689	1.079252	-0.375836
C135	C	0.596564	1.046862	-0.382656
C136	C	0.596566	0.982061	-0.322044
H137	H	0.701066	0.399304	-0.067368
H138	H	0.566333	0.955701	-0.327608
Br139	Br	0.477477	0.490385	0.087491
Br140	Br	0.302460	0.864529	-0.087475
H141	H	0.826695	0.399218	0.327598
H142	H	1.058899	0.222986	-0.000069
H143	H	0.071285	0.533474	0.067339
H144	H	0.701168	0.281697	0.437550
H145	H	0.196182	1.073217	-0.067322
Br146	Br	1.107908	0.264128	0.087444
H147	H	0.961340	0.399268	0.067328
H148	H	0.701059	-0.044360	-0.067353
H149	H	0.306141	0.955645	-0.192870
H150	H	-0.063427	0.821449	-0.067353
H151	H	0.208458	1.132049	-0.425169
H152	H	0.728948	0.677491	-0.370193
Br153	Br	0.546275	0.416858	0.087509
Br154	Br	0.721300	0.416828	0.331274
H155	H	0.538481	0.677476	-0.370221
H156	H	0.633825	0.222902	0.425222
H157	H	0.330902	0.533473	0.067339
H158	H	0.936704	0.281658	0.437556
Br159	Br	0.546306	0.264082	0.299208
Br160	Br	0.546270	0.416824	0.156300
H161	H	0.196153	1.073218	-0.302816
H162	H	0.208578	1.131966	0.000032
Br163	Br	-0.034982	0.490395	0.087487
Br164	Br	0.965027	0.416873	0.156257
Br165	Br	0.334456	1.090891	-0.474173
H166	H	0.633693	1.132017	-0.425185
Br167	Br	-0.210002	0.864537	-0.087502
Br168	Br	1.107926	0.264147	0.299102
Br169	Br	0.546174	1.090873	-0.474180
H170	H	0.196191	0.821439	-0.067336
H171	H	0.728924	0.677518	-0.260239
Br172	Br	0.477383	0.938118	-0.331313
Br173	Br	0.509961	0.677484	-0.243804
H174	H	1.059020	0.222910	0.425164
Br175	Br	0.302427	0.938072	-0.087489
H176	H	0.440878	0.955601	0.067365
Br177	Br	0.757489	0.677458	-0.613335
Br178	Br	0.334643	1.090729	0.087528
H179	H	0.701060	0.073196	-0.067356
Br180	Br	0.721200	0.264182	-0.087528
Br181	Br	0.721205	0.938058	-0.156277
Br182	Br	0.721200	1.090783	-0.299128
Br183	Br	0.932834	0.264214	-0.087557
Br184	Br	0.546254	-0.061973	0.087510
H185	H	0.566420	0.281716	0.067353
Br186	Br	0.546270	0.090736	0.087524
Br187	Br	0.757523	0.677409	-0.756188
H188	H	0.538525	0.677433	-0.629815
Br189	Br	0.510055	0.677398	-0.756224
Br190	Br	0.789990	0.416911	-0.087525
