data_functionalizedCrystal
_audit_creation_method	'MofGen! by Chris Wilmer'
_symmetry_space_group_name_H-M	'P1'
_symmetry_Int_Tables_number	1
_symmetry_cell_setting	triclinic
loop_
_symmetry_equiv_pos_as_xyz
  x,y,z
_cell_length_a	14.519709
_cell_length_b	14.519709
_cell_length_c	15.186229
_cell_angle_alpha	90.001226
_cell_angle_beta	90.000004
_cell_angle_gamma	83.680145
loop_
_atom_site_label
_atom_site_type_symbol
_atom_site_fract_x
_atom_site_fract_y
_atom_site_fract_z
O1	O	1.223870	0.120885	0.073116
O2	O	1.723870	0.620885	0.573116
O3	O	0.955393	0.135122	0.073143
O4	O	1.455393	0.635122	0.573143
O5	O	1.096750	-0.006235	0.073121
O6	O	1.596750	0.493765	0.573121
O7	O	1.082513	0.262242	0.073138
O8	O	1.582513	0.762242	0.573138
O9	O	1.096733	-0.006227	-0.073337
O10	O	1.596733	0.493773	0.426663
O11	O	0.955376	0.135130	-0.073314
O12	O	1.455376	0.635130	0.426686
O13	O	1.223853	0.120893	-0.073341
O14	O	1.723853	0.620893	0.426659
Zn15	Zn	1.089612	0.128013	-0.096581
Zn16	Zn	1.589612	0.628013	0.403419
Zn17	Zn	1.089634	0.128002	0.096383
Zn18	Zn	1.589634	0.628002	0.596383
O19	O	1.082496	0.262250	-0.073319
O20	O	1.582496	0.762250	0.426681
C21	C	0.921025	0.134462	-0.000082
C22	C	1.421025	0.634462	0.499918
C23	C	0.818643	0.132474	-0.000072
C24	C	1.318643	0.632474	0.499928
C25	C	0.443748	0.125154	-0.000113
C26	C	0.943748	0.625154	0.499887
C27	C	0.548056	0.127187	-0.000101
C28	C	1.048056	0.627187	0.499899
C29	C	0.631192	0.128814	-0.000092
C30	C	1.131192	0.628814	0.499908
C31	C	0.735507	0.130847	-0.000082
C32	C	1.235507	0.630847	0.499918
C33	C	1.096078	-0.040591	-0.000108
C34	C	1.596078	0.459409	0.499892
C35	C	1.094090	-0.142972	-0.000108
C36	C	1.594090	0.357028	0.499892
C37	C	1.086770	-0.517868	-0.000085
C38	C	1.586770	-0.017868	0.499915
C39	C	1.088803	-0.413560	-0.000091
C40	C	1.588803	0.086440	0.499909
C41	C	1.090430	-0.330423	-0.000097
C42	C	1.590430	0.169577	0.499903
C43	C	1.092463	-0.226109	-0.000102
C44	C	1.592463	0.273891	0.499898
C45	C	1.258221	0.121553	-0.000114
C46	C	1.758221	0.621553	0.499886
C47	C	1.360602	0.123541	-0.000119
C48	C	1.860602	0.623541	0.499881
C49	C	1.083168	0.296606	-0.000089
C50	C	1.583168	0.796606	0.499911
C51	C	1.085156	0.398987	-0.000082
C52	C	1.585156	0.898987	0.499918
N53	N	1.089604	0.128019	-0.228274
N54	N	1.589604	0.628019	0.271726
C55	C	1.145643	0.184064	-0.453999
C56	C	1.645643	0.684064	0.046001
C57	C	1.145653	0.184057	-0.546188
C58	C	1.645653	0.684057	-0.046188
C59	C	1.033608	0.071937	-0.546193
C60	C	1.533608	0.571937	-0.046193
C61	C	1.033603	0.071940	-0.454005
C62	C	1.533603	0.571940	0.045995
C63	C	1.089619	0.128008	-0.407910
C64	C	1.589619	0.628008	0.092090
C65	C	1.089634	0.127999	-0.592288
C66	C	1.589634	0.627999	-0.092288
C67	C	1.089644	0.127992	-0.692244
C68	C	1.589644	0.627992	-0.192244
C69	C	1.089610	0.128015	-0.307948
C70	C	1.589610	0.628015	0.192052
N71	N	1.089649	0.127988	0.228075
N72	N	1.589649	0.627988	0.728075
H73	H	1.191256	0.229718	-0.416471
H74	H	1.691256	0.729718	0.083529
Br75	Br	0.957565	-0.004142	-0.391451
Br76	Br	1.457565	0.495858	0.108549
Br77	Br	0.957583	-0.004146	-0.608756
Br78	Br	1.457583	0.495854	-0.108756
H79	H	1.191275	0.229702	-0.583709
H80	H	1.691275	0.729702	-0.083709
