data_functionalizedCrystal
_audit_creation_method	'MofGen! by Chris Wilmer'
_symmetry_space_group_name_H-M	'P1'
_symmetry_Int_Tables_number	1
_symmetry_cell_setting	triclinic
loop_
_symmetry_equiv_pos_as_xyz
  x,y,z
_cell_length_a	19.805407
_cell_length_b	12.827892
_cell_length_c	19.805399
_cell_angle_alpha	90.022719
_cell_angle_beta	90.017803
_cell_angle_gamma	90.012708
loop_
_atom_site_label
_atom_site_type_symbol
_atom_site_fract_x
_atom_site_fract_y
_atom_site_fract_z
Zn1	Zn	1.034787	-0.416132	0.382711
Zn2	Zn	1.034724	-0.590887	0.269532
Zn3	Zn	0.921602	-0.416153	0.269539
Zn4	Zn	0.921587	-0.590824	0.382682
O5	O	0.978175	-0.503499	0.326116
O6	O	1.129496	-0.439332	0.367706
O7	O	1.019698	-0.567744	0.174816
O8	O	0.936649	-0.269914	0.284566
O9	O	1.129449	-0.567724	0.284554
O10	O	1.019806	-0.269899	0.367713
O11	O	0.936588	-0.439367	0.174821
O12	O	0.826884	-0.439305	0.284538
O13	O	0.936624	-0.567615	0.477403
O14	O	0.826873	-0.567635	0.367664
O15	O	1.019792	-0.439270	0.477423
O16	O	1.019684	-0.737115	0.284527
O17	O	0.936563	-0.737068	0.367658
C18	C	0.802319	-0.503466	0.326099
C19	C	0.727087	-0.503477	0.326108
C20	C	0.691768	-0.436742	0.369471
C21	C	0.621080	-0.436747	0.369474
C22	C	0.585712	-0.503494	0.326117
C23	C	0.621036	-0.570233	0.282749
C24	C	0.691723	-0.570221	0.282743
C25	C	0.335963	-0.570280	0.282769
C26	C	0.265271	-0.570288	0.282780
C27	C	0.265319	-0.436806	0.369500
C28	C	0.336006	-0.436794	0.369495
C29	C	0.371324	-0.503528	0.326125
C30	C	0.447973	-0.503520	0.326122
C31	C	0.509065	-0.503509	0.326123
C32	C	0.978133	-0.775009	0.326103
C33	C	0.978177	-0.891162	0.326121
C34	C	1.019307	-0.942856	0.367301
C35	C	1.019353	-1.062906	0.367320
C36	C	1.154718	-0.503533	0.326133
C37	C	1.229950	-0.503547	0.326140
C38	C	0.978213	-0.503433	0.502659
C39	C	0.978229	-0.503405	0.577891
C40	C	0.978236	-0.230929	0.326143
C41	C	0.978262	-0.114776	0.326155
C42	C	0.978176	-0.503489	0.150260
C43	C	0.978291	-0.503223	0.075028
C44	C	1.021536	-0.436572	0.613247
C45	C	1.021543	-0.436542	0.683935
C46	C	0.978246	-0.503350	0.719266
C47	C	0.934935	-0.570186	0.683905
C48	C	0.934925	-0.570210	0.613218
C49	C	0.934973	-0.570089	0.968979
C50	C	0.934988	-0.570061	1.039671
C51	C	1.021591	-0.436420	1.039696
C52	C	1.021581	-0.436445	0.969009
C53	C	0.978268	-0.503276	0.933654
C54	C	0.978260	-0.503307	0.857005
C55	C	0.978257	-0.503326	0.795913
H56	H	0.720560	-0.382391	0.404780
Br57	Br	1.078054	-1.136995	0.426081
Br58	Br	0.919533	-0.965520	0.267383
H59	H	0.364710	-0.624620	0.247456
H60	H	0.592234	-0.624574	0.247443
Br61	Br	1.080304	-0.345907	0.565304
H62	H	1.056809	-0.382123	0.712719
H63	H	1.054484	-0.898239	0.402547
Br64	Br	0.876190	-0.660786	0.921006
Br65	Br	0.876170	-0.660850	0.731854
H66	H	0.943049	-1.070328	0.290894
Br67	Br	0.876146	-0.660909	0.565234
H68	H	1.056840	-0.382046	0.940246
H69	H	1.056856	-0.382000	1.068490
Br70	Br	0.573149	-0.346175	0.428327
Br71	Br	0.739657	-0.660793	0.223890
H72	H	0.899728	-0.624467	1.068435
H73	H	0.364799	-0.382446	0.404803
H74	H	0.236555	-0.382464	0.404812
Br75	Br	0.217271	-0.660880	0.223933
