data_functionalizedCrystal
_audit_creation_method	'MofGen! by Chris Wilmer'
_symmetry_space_group_name_H-M	'P1'
_symmetry_Int_Tables_number	1
_symmetry_cell_setting	triclinic
loop_
_symmetry_equiv_pos_as_xyz
  x,y,z
_cell_length_a	14.044220
_cell_length_b	19.288865
_cell_length_c	17.766277
_cell_angle_alpha	89.988397
_cell_angle_beta	89.995720
_cell_angle_gamma	88.162563
loop_
_atom_site_label
_atom_site_type_symbol
_atom_site_fract_x
_atom_site_fract_y
_atom_site_fract_z
O1	O	1.256998	0.167413	-0.062531
O2	O	1.590332	0.500746	0.270802
O3	O	1.923665	0.834080	0.604136
O4	O	0.981055	0.161372	-0.062549
O5	O	1.314388	0.494705	0.270784
O6	O	1.647722	0.828039	0.604117
O7	O	1.127000	0.063774	-0.062525
O8	O	1.460333	0.397108	0.270809
O9	O	1.793667	0.730441	0.604142
O10	O	1.111053	0.265010	-0.062556
O11	O	1.444387	0.598344	0.270778
O12	O	1.777720	0.931677	0.604111
O13	O	1.126975	0.063767	0.062664
O14	O	1.460308	0.397101	0.395997
O15	O	1.793641	0.730434	0.729330
O16	O	0.981029	0.161365	0.062639
O17	O	1.314363	0.494698	0.395972
O18	O	1.647696	0.828032	0.729306
O19	O	1.256973	0.167406	0.062658
O20	O	1.590306	0.500739	0.395991
O21	O	1.923639	0.834073	0.729324
Cu22	Cu	1.118999	0.164385	0.074079
Cu23	Cu	1.452332	0.497718	0.407412
Cu24	Cu	1.785665	0.831051	0.740746
Cu25	Cu	1.119029	0.164393	-0.073971
Cu26	Cu	1.452362	0.497726	0.259362
Cu27	Cu	1.785696	0.831060	0.592696
O28	O	1.111028	0.265003	0.062633
O29	O	1.444361	0.598337	0.395966
O30	O	1.777694	0.931670	0.729300
C31	C	1.126474	0.037862	0.000072
C32	C	1.459808	0.371195	0.333405
C33	C	1.793141	0.704528	0.666738
C34	C	1.124934	-0.039341	0.000078
C35	C	1.458267	0.293992	0.333412
C36	C	1.791601	0.627326	0.666745
C37	C	0.945739	0.158724	0.000043
C38	C	1.279072	0.492057	0.333376
C39	C	1.612406	0.825391	0.666709
C40	C	0.840547	0.150836	0.000036
C41	C	1.173880	0.484170	0.333370
C42	C	1.507214	0.817503	0.666703
C43	C	1.210568	-0.078535	0.000088
C44	C	1.543901	0.254798	0.333421
C45	C	1.877235	0.588131	0.666754
C46	C	1.209121	-0.151075	0.000076
C47	C	1.542454	0.182258	0.333409
C48	C	1.875787	0.515591	0.666742
C49	C	1.122035	-0.184418	0.000069
C50	C	1.455368	0.148915	0.333403
C51	C	1.788702	0.482248	0.666736
C52	C	1.036390	-0.145215	0.000056
C53	C	1.369723	0.188118	0.333389
C54	C	1.703056	0.521452	0.666722
C55	C	1.037839	-0.072676	0.000060
C56	C	1.371172	0.260657	0.333393
C57	C	1.704506	0.593990	0.666727
C58	C	1.053566	-0.297107	0.043916
C59	C	1.386899	0.036227	0.377249
C60	C	1.720233	0.369560	0.710582
C61	C	1.052120	-0.369644	0.043916
C62	C	1.385454	-0.036311	0.377249
C63	C	1.718787	0.297023	0.710582
C64	C	1.117560	-0.408151	0.000052
C65	C	1.450894	-0.074818	0.333386
C66	C	1.784227	0.258515	0.666719
C67	C	1.184463	-0.374113	-0.043802
C68	C	1.517796	-0.040779	0.289532
C69	C	1.851129	0.292554	0.622865
C70	C	1.185912	-0.301574	-0.043797
C71	C	1.519246	0.031759	0.289536
C72	C	1.852579	0.365093	0.622869
C73	C	1.120453	-0.263074	0.000064
C74	C	1.453787	0.070260	0.333397
C75	C	1.787120	0.403593	0.666731
C76	C	1.201631	-0.526002	0.000048
C77	C	1.534965	-0.192669	0.333381
C78	C	1.868298	0.140665	0.666714
C79	C	1.200181	-0.598543	0.000031
C80	C	1.533514	-0.265210	0.333364
C81	C	1.866847	0.068124	0.666698
C82	C	1.027447	-0.592681	0.000019
C83	C	1.360780	-0.259348	0.333352
C84	C	1.694114	0.073985	0.666685
C85	C	1.028900	-0.520142	0.000028
C86	C	1.362233	-0.186808	0.333361
C87	C	1.695567	0.146525	0.666694
C88	C	1.115995	-0.486806	0.000046
C89	C	1.449328	-0.153473	0.333379
C90	C	1.782662	0.179860	0.666712
C91	C	0.647947	0.136416	0.000053
C92	C	0.981280	0.469749	0.333387
C93	C	1.314614	0.803082	0.666720
C94	C	0.590075	0.192359	0.000048
C95	C	0.923408	0.525692	0.333381
C96	C	1.256742	0.859026	0.666715
C97	C	0.482906	0.184335	0.000058
C98	C	0.816239	0.517669	0.333391
C99	C	1.149573	0.851002	0.666724
C100	C	0.755126	0.144438	0.000044
C101	C	1.088460	0.477772	0.333377
C102	C	1.421793	0.811105	0.666711
C103	C	1.292289	0.170054	0.000064
C104	C	1.625622	0.503387	0.333397
C105	C	1.958955	0.836721	0.666730
C106	C	1.397481	0.177942	0.000065
C107	C	1.730814	0.511275	0.333399
C108	C	2.064148	0.844608	0.666732
C109	C	1.111554	0.290916	0.000035
C110	C	1.444887	0.624250	0.333368
C111	C	1.778220	0.957583	0.666701
C112	C	1.113094	0.368119	0.000023
C113	C	1.446427	0.701452	0.333357
C114	C	1.779761	1.034786	0.666690
N115	N	1.118984	0.164379	0.178209
N116	N	1.452318	0.497712	0.511543
N117	N	1.785651	0.831046	0.844876
N118	N	1.119051	0.164394	-0.178101
N119	N	1.452384	0.497727	0.155232
N120	N	1.785718	0.831061	0.488565
C121	C	1.183630	0.121187	0.217607
C122	C	1.516963	0.454521	0.550941
C123	C	1.850296	0.787854	0.884274
C124	C	1.183635	0.121184	0.296409
C125	C	1.516969	0.454518	0.629742
C126	C	1.850302	0.787851	0.963076
C127	C	1.119004	0.164386	0.335810
C128	C	1.452338	0.497719	0.669143
C129	C	1.785671	0.831052	1.002477
C130	C	1.054347	0.207580	0.296403
C131	C	1.387680	0.540914	0.629736
C132	C	1.721014	0.874247	0.963069
C133	C	1.054337	0.207577	0.217602
C134	C	1.387670	0.540910	0.550936
C135	C	1.721004	0.874243	0.884269
C136	C	1.106318	0.226858	0.460638
C137	C	1.439651	0.560192	0.793971
C138	C	1.772985	0.893525	1.127304
C139	C	1.106335	0.226863	0.539437
C140	C	1.439668	0.560196	0.872770
C141	C	1.773001	0.893530	1.206103
C142	C	1.119030	0.164396	0.578856
C143	C	1.452363	0.497729	0.912190
C144	C	1.785696	0.831062	1.245523
C145	C	1.131728	0.101922	0.539467
C146	C	1.465062	0.435256	0.872801
C147	C	1.798395	0.768589	1.206134
C148	C	1.131718	0.101919	0.460667
C149	C	1.465052	0.435252	0.794000
C150	C	1.798385	0.768585	1.127334
C151	C	1.119008	0.164394	0.421256
C152	C	1.452341	0.497727	0.754589
C153	C	1.785674	0.831061	1.087922
C154	C	1.183684	0.121197	0.703700
C155	C	1.517018	0.454531	1.037033
C156	C	1.850351	0.787864	1.370367
C157	C	1.183683	0.121193	0.782503
C158	C	1.517017	0.454526	1.115837
C159	C	1.850350	0.787860	1.449170
C160	C	1.054400	0.207595	0.782495
C161	C	1.387733	0.540929	1.115829
C162	C	1.721066	0.874262	1.449162
C163	C	1.054396	0.207593	0.703694
C164	C	1.387730	0.540926	1.037027
C165	C	1.721063	0.874260	1.370360
C166	C	1.119044	0.164395	0.664301
C167	C	1.452377	0.497728	0.997634
C168	C	1.785710	0.831062	1.330967
H169	H	1.281487	-0.051398	0.000100
H170	H	1.614821	0.281935	0.333433
H171	H	1.948154	0.615268	0.666766
H172	H	1.096001	0.277733	0.571501
H173	H	1.429334	0.611066	0.904834
H174	H	1.762667	0.944400	1.238168
H175	H	1.236279	0.086011	0.328493
H176	H	1.569612	0.419344	0.661826
H177	H	1.902946	0.752678	0.995159
H178	H	0.621016	0.246280	0.000036
H179	H	0.954349	0.579613	0.333370
H180	H	1.287683	0.912946	0.666703
H181	H	1.000274	-0.265760	0.079639
H182	H	1.333608	0.067573	0.412972
H183	H	1.666941	0.400907	0.746305
H184	H	0.617008	0.082499	0.000066
H185	H	0.950341	0.415833	0.333399
H186	H	1.283675	0.749166	0.666733
H187	H	1.142055	0.051051	0.428600
H188	H	1.475389	0.384384	0.761933
H189	H	1.808722	0.717717	1.095267
H190	H	1.240385	-0.273863	-0.079506
H191	H	1.573718	0.059470	0.253827
H192	H	1.907051	0.392804	0.587160
H193	H	1.001760	0.242767	0.671614
H194	H	1.335093	0.576100	1.004947
H195	H	1.668426	0.909433	1.338280
H196	H	1.236267	0.086011	0.185536
H197	H	1.569600	0.419345	0.518869
H198	H	1.902934	0.752678	0.852202
H199	H	1.142065	0.051055	0.571561
H200	H	1.475399	0.384389	0.904894
H201	H	1.808732	0.717722	1.238228
H202	H	0.968103	-0.040764	0.000053
H203	H	1.301437	0.292569	0.333386
H204	H	1.634770	0.625902	0.666719
H205	H	0.965484	-0.172367	0.000049
H206	H	1.298817	0.160966	0.333382
H207	H	1.632150	0.494299	0.666716
H208	H	1.237750	-0.405464	-0.079520
H209	H	1.571084	-0.072130	0.253813
H210	H	1.904417	0.261203	0.587146
H211	H	1.095964	0.277729	0.428549
H212	H	1.429297	0.611062	0.761882
H213	H	1.762630	0.944396	1.095215
H214	H	1.236322	0.086020	0.671625
H215	H	1.569655	0.419354	1.004958
H216	H	1.902988	0.752687	1.338292
H217	H	1.236323	0.086017	0.814582
H218	H	1.569656	0.419351	1.147915
H219	H	1.902989	0.752684	1.481248
H220	H	1.001722	0.242754	0.328487
H221	H	1.335055	0.576088	0.661820
H222	H	1.668389	0.909421	0.995153
H223	H	1.001772	0.242768	0.814575
H224	H	1.335106	0.576101	1.147908
H225	H	1.668439	0.909434	1.481242
H226	H	1.001694	0.242749	0.185524
H227	H	1.335027	0.576083	0.518857
H228	H	1.668361	0.909416	0.852191
H229	H	1.272549	-0.498859	0.000059
H230	H	1.605882	-0.165526	0.333392
H231	H	1.939216	0.167808	0.666725
H232	H	1.278856	-0.182993	0.000080
H233	H	1.612190	0.150340	0.333414
H234	H	1.945523	0.483673	0.666747
H235	H	1.269917	-0.630454	0.000034
H236	H	1.603250	-0.297121	0.333368
H237	H	1.936584	0.036212	0.666701
H238	H	0.956540	-0.619828	0.000010
H239	H	1.289873	-0.286495	0.333343
H240	H	1.623206	0.046838	0.666676
H241	H	0.959167	-0.488229	0.000024
H242	H	1.292501	-0.154896	0.333358
H243	H	1.625834	0.178438	0.666691
H244	H	0.997640	-0.397352	0.079620
H245	H	1.330974	-0.064019	0.412953
H246	H	1.664307	0.269314	0.746287
