data_functionalizedCrystal
_audit_creation_method	'MofGen! by Chris Wilmer'
_symmetry_space_group_name_H-M	'P1'
_symmetry_Int_Tables_number	1
_symmetry_cell_setting	triclinic
loop_
_symmetry_equiv_pos_as_xyz
  x,y,z
_cell_length_a	18.050591
_cell_length_b	18.050589
_cell_length_c	18.050582
_cell_angle_alpha	90.018205
_cell_angle_beta	90.020922
_cell_angle_gamma	90.024227
loop_
_atom_site_label
_atom_site_type_symbol
_atom_site_fract_x
_atom_site_fract_y
_atom_site_fract_z
Zn1	Zn	1.135293	-0.295786	0.420054
Zn2	Zn	1.135203	-0.419969	0.295873
Zn3	Zn	1.011112	-0.295789	0.295865
Zn4	Zn	1.011060	-0.419930	0.420009
O5	O	1.073167	-0.357868	0.357950
O6	O	1.239205	-0.312274	0.403603
O7	O	1.118727	-0.403514	0.191948
O8	O	1.027644	-0.191864	0.312354
O9	O	1.239140	-0.403511	0.312369
O10	O	1.118879	-0.191862	0.403595
O11	O	1.027557	-0.312279	0.191942
O12	O	0.907180	-0.312241	0.312311
O13	O	1.027555	-0.403444	0.523940
O14	O	0.907142	-0.403447	0.403519
O15	O	1.118828	-0.312236	0.523973
O16	O	1.118676	-0.523888	0.312325
O17	O	1.027468	-0.523860	0.403527
C18	C	0.880215	-0.357841	0.357909
C19	C	0.797669	-0.357847	0.357909
C20	C	0.598217	-0.308191	0.308425
C21	C	0.548798	-0.375927	0.290154
C22	C	0.646539	-0.357869	0.357943
C23	C	0.548877	-0.290157	0.376212
C24	C	0.500553	-0.357885	0.357974
C25	C	0.598206	-0.425641	0.339637
C26	C	0.598289	-0.339825	0.425726
C27	C	0.548892	-0.407607	0.407481
C28	C	0.730637	-0.357859	0.357923
C29	C	0.416457	-0.357903	0.357994
C30	C	1.073077	-0.550820	0.357938
C31	C	1.073107	-0.633366	0.357958
C32	C	1.023557	-0.832828	0.407536
C33	C	1.005459	-0.882261	0.339767
C34	C	1.073180	-0.784497	0.357967
C35	C	1.091314	-0.882146	0.425744
C36	C	1.073249	-0.930482	0.357983
C37	C	1.055046	-0.832842	0.290162
C38	C	1.140933	-0.832722	0.376186
C39	C	1.122861	-0.882133	0.308370
C40	C	1.073138	-0.700398	0.357959
C41	C	1.073291	-1.014578	0.357983
C42	C	1.266872	-0.357897	0.357992
C43	C	1.349418	-0.357909	0.358010
C44	C	1.073196	-0.357835	0.551656
C45	C	1.073208	-0.357821	0.634202
C46	C	1.073277	-0.164163	0.357979
C47	C	1.073324	-0.081617	0.357991
C48	C	1.073181	-0.357848	0.164998
C49	C	1.073312	-0.357652	0.082453
C50	C	1.023612	-0.407353	0.833635
C51	C	1.091367	-0.425511	0.883034
C52	C	1.073245	-0.357765	0.785332
C53	C	1.005527	-0.339586	0.883014
C54	C	1.073274	-0.357711	0.931317
C55	C	1.141036	-0.375958	0.833645
C56	C	1.055150	-0.290002	0.833620
C57	C	1.122952	-0.308134	0.882998
C58	C	1.073227	-0.357797	0.701234
C59	C	1.073300	-0.357679	1.015414
H60	H	0.619785	-0.482928	0.324134
H61	H	1.039669	-0.811275	0.232834
H62	H	0.527169	-0.232894	0.391625
H63	H	1.039807	-0.232736	0.811899
Br64	Br	0.513018	-0.477716	0.477302
Br65	Br	1.236534	-0.401665	0.797657
Br66	Br	1.192858	-0.917989	0.238438
H67	H	0.948195	-0.904037	0.324371
Br68	Br	1.116909	-0.520984	0.919211
H69	H	0.948246	-0.324232	0.904701
H70	H	0.981678	-0.449342	0.811961
Br71	Br	1.193007	-0.238201	0.918901
H72	H	1.106625	-0.903802	0.483056
Br73	Br	0.634318	-0.238244	0.238558
Br74	Br	0.512566	-0.401388	0.194635
H75	H	0.620045	-0.324530	0.483019
H76	H	1.198184	-0.810948	0.391613
Br77	Br	0.953516	-0.796742	0.477306
