data_functionalizedCrystal
_audit_creation_method	'MofGen! by Chris Wilmer'
_symmetry_space_group_name_H-M	'P1'
_symmetry_Int_Tables_number	1
_symmetry_cell_setting	triclinic
loop_
_symmetry_equiv_pos_as_xyz
  x,y,z
_cell_length_a	16.974885
_cell_length_b	16.974885
_cell_length_c	18.366186
_cell_angle_alpha	93.642976
_cell_angle_beta	93.647587
_cell_angle_gamma	83.160210
loop_
_atom_site_label
_atom_site_type_symbol
_atom_site_fract_x
_atom_site_fract_y
_atom_site_fract_z
O1	O	0.100747	1.049024	0.007142
O2	O	0.113590	0.818807	-0.005656
O3	O	-0.007940	0.940334	-0.005654
O4	O	0.222277	0.927497	0.007140
O5	O	-0.007946	0.940314	0.115444
O6	O	0.113584	0.818787	0.115442
O7	O	0.100741	1.049003	0.128240
Zn8	Zn	0.107162	0.933892	0.141068
Zn9	Zn	0.107170	0.933919	-0.018484
O10	O	0.222271	0.927476	0.128238
C11	C	0.113100	0.789340	0.053130
C12	C	0.111638	0.701566	0.047876
C13	C	-0.037401	0.939836	0.053131
C14	C	-0.125174	0.938372	0.047873
C15	C	0.103383	0.207499	0.011164
C16	C	0.104757	0.289971	0.016111
C17	C	0.105446	0.331188	0.084596
C18	C	0.104754	0.289928	0.148137
C19	C	0.103375	0.207458	0.143190
C20	C	0.109566	0.577836	0.106470
C21	C	0.110948	0.660312	0.111413
C22	C	0.110949	0.660350	-0.020614
C23	C	0.109575	0.577877	-0.025555
C24	C	0.108878	0.536625	0.037986
N25	N	0.106853	0.415488	0.089653
N26	N	0.107466	0.452328	0.032928
C27	C	-0.166421	0.937672	0.111411
C28	C	-0.248895	0.936301	0.106465
C29	C	-0.290119	0.935626	0.037981
C30	C	-0.248867	0.936329	-0.025561
C31	C	-0.166396	0.937705	-0.020614
C32	C	-0.536771	0.931518	0.016109
C33	C	-0.619248	0.930139	0.011167
C34	C	-0.619270	0.930113	0.143193
C35	C	-0.536796	0.931484	0.148134
C36	C	-0.495552	0.932191	0.084592
N37	N	-0.374420	0.934223	0.032924
N38	N	-0.411253	0.933600	0.089650
C39	C	0.251732	0.927975	0.069452
C40	C	0.339506	0.929438	0.074704
C41	C	0.101232	1.078471	0.069453
C42	C	0.102694	1.166245	0.074702
N43	N	0.107156	0.933879	0.249958
N44	N	0.107169	0.933938	-0.127374
C45	C	0.053369	0.987709	0.288062
C46	C	0.053365	0.987714	0.364290
C47	C	0.107162	0.933897	0.402412
C48	C	0.160954	0.880057	0.364299
C49	C	0.160950	0.880048	0.288071
C50	C	0.179185	0.923459	0.526797
C51	C	0.179189	0.923473	0.603023
C52	C	0.107172	0.933919	0.637521
C53	C	0.035148	0.944368	0.595785
C54	C	0.035144	0.944359	0.519558
C55	C	0.107172	0.933900	0.485067
C56	C	0.053377	0.987757	0.758280
C57	C	0.053372	0.987757	0.834509
C58	C	0.160968	0.880103	0.834517
C59	C	0.160965	0.880100	0.758289
C60	C	0.107171	0.933931	0.720175
H61	H	0.102828	0.173946	-0.044603
C62	C	0.105490	0.335263	0.223470
H63	H	0.104868	0.298881	0.260601
H64	H	0.152109	0.361359	0.230510
H65	H	0.059930	0.373510	0.225777
H66	H	0.105314	0.323557	-0.035628
H67	H	0.204767	0.836270	0.727263
C68	C	-0.294264	0.935516	0.176353
H69	H	-0.349286	0.934605	0.163602
H70	H	-0.274670	0.889645	0.201923
H71	H	-0.286837	0.981823	0.206650
C72	C	-0.121024	0.938474	-0.090505
H73	H	-0.157385	0.937868	-0.132001
H74	H	-0.094933	0.985098	-0.088963
H75	H	-0.082770	0.892920	-0.093676
C76	C	-0.005798	1.046930	0.406216
H77	H	0.001907	1.039222	0.457073
H78	H	0.002765	1.099685	0.397320
H79	H	-0.058571	1.038405	0.390127
H80	H	0.204755	0.836236	0.395341
C81	C	-0.294212	0.935585	-0.100892
H82	H	-0.349235	0.934656	-0.094740
H83	H	-0.286773	0.981900	-0.124851
H84	H	-0.274606	0.889722	-0.129557
H85	H	0.109012	0.544325	-0.081323
H86	H	0.204751	0.836212	0.257047
H87	H	0.102821	0.173869	0.194929
C88	C	-0.664599	0.929440	-0.064167
H89	H	-0.628227	0.930077	-0.101301
H90	H	-0.690704	0.882828	-0.071221
H91	H	-0.702841	0.975007	-0.066454
H92	H	0.237834	0.914938	0.498714
C93	C	0.111706	0.705729	-0.090504
H94	H	0.112619	0.760750	-0.077752
H95	H	0.157563	0.686140	-0.116089
H96	H	0.065385	0.698304	-0.120785
C97	C	-0.005811	1.046912	0.246140
H98	H	-0.037850	1.078967	0.279754
H99	H	0.022610	1.079788	0.219997
H100	H	-0.038716	1.018498	0.212809
C101	C	-0.491411	0.932282	-0.053785
H102	H	-0.527775	0.931671	-0.095279
H103	H	-0.465317	0.978903	-0.052252
H104	H	-0.453159	0.886725	-0.056953
H105	H	-0.652860	0.929538	0.194925
C106	C	0.111666	0.705654	0.186747
H107	H	0.111036	0.669278	0.223881
H108	H	0.158281	0.731755	0.193796
H109	H	0.066102	0.743898	0.189040
H110	H	-0.023496	0.952874	0.623872
C111	C	-0.005802	1.046956	0.716347
H112	H	0.001906	1.039248	0.665492
H113	H	-0.058567	1.038427	0.725239
H114	H	0.002758	1.099718	0.732437
C115	C	-0.121081	0.938414	0.186744
H116	H	-0.157462	0.937808	0.223876
H117	H	-0.082828	0.892865	0.189065
H118	H	-0.094993	0.985043	0.193773
C119	C	-0.005798	1.046968	0.876427
H120	H	0.001900	1.039258	0.927283
H121	H	0.002762	1.099724	0.867534
H122	H	-0.058568	1.038438	0.860330
H123	H	0.108987	0.544260	0.158210
C124	C	-0.491456	0.932236	0.223467
H125	H	-0.527835	0.931631	0.260600
H126	H	-0.453201	0.886689	0.225788
H127	H	-0.465370	0.978867	0.230491
H128	H	-0.023500	0.952865	0.485579
H129	H	0.204767	0.836281	0.865556
C130	C	0.258412	0.911985	0.648926
H131	H	0.301301	0.905750	0.617463
H132	H	0.262779	0.957161	0.681564
H133	H	0.260035	0.865945	0.676060
