data_functionalizedCrystal
_audit_creation_method	'MofGen! by Chris Wilmer'
_symmetry_space_group_name_H-M	'P1'
_symmetry_Int_Tables_number	1
_symmetry_cell_setting	triclinic
loop_
_symmetry_equiv_pos_as_xyz
  x,y,z
_cell_length_a	17.699077
_cell_length_b	19.188924
_cell_length_c	16.776229
_cell_angle_alpha	89.991276
_cell_angle_beta	89.993415
_cell_angle_gamma	83.211270
loop_
_atom_site_label
_atom_site_type_symbol
_atom_site_fract_x
_atom_site_fract_y
_atom_site_fract_z
O1	O	1.003963	0.088275	-0.066281
O2	O	1.503963	0.588275	0.433719
O3	O	0.783568	0.099766	-0.066286
O4	O	1.283568	0.599766	0.433714
O5	O	0.900128	-0.007628	-0.066274
O6	O	1.400128	0.492372	0.433726
O7	O	0.887403	0.195670	-0.066293
O8	O	1.387403	0.695670	0.433707
O9	O	0.900113	-0.007635	0.066303
O10	O	1.400113	0.492365	0.566303
O11	O	0.783553	0.099760	0.066291
O12	O	1.283553	0.599760	0.566291
O13	O	1.003947	0.088268	0.066295
O14	O	1.503947	0.588268	0.566295
Zn15	Zn	0.893748	0.094013	0.087342
Zn16	Zn	1.393748	0.594013	0.587342
Zn17	Zn	0.893768	0.094022	-0.087333
Zn18	Zn	1.393768	0.594022	0.412667
O19	O	0.887387	0.195663	0.066284
O20	O	1.387387	0.695663	0.566284
C21	C	0.755364	0.099352	0.000002
C22	C	1.255364	0.599352	0.500002
C23	C	0.671347	0.098119	0.000001
C24	C	1.171347	0.598119	0.500001
C25	C	0.631872	0.097534	0.072269
C26	C	1.131872	0.597534	0.572269
C27	C	0.552931	0.096364	0.072270
C28	C	1.052931	0.596364	0.572270
C29	C	0.513466	0.095784	0.000002
C30	C	1.013466	0.595784	0.500002
C31	C	0.552947	0.096367	-0.072272
C32	C	1.052947	0.596367	0.427728
C33	C	0.631887	0.097532	-0.072272
C34	C	1.131887	0.597532	0.427728
C35	C	0.234590	0.091668	-0.072273
C36	C	0.734590	0.591668	0.427727
C37	C	0.155644	0.090505	-0.072267
C38	C	0.655644	0.590505	0.427733
C39	C	0.155634	0.090501	0.072269
C40	C	0.655634	0.590501	0.572269
C41	C	0.234574	0.091666	0.072269
C42	C	0.734574	0.591666	0.572269
C43	C	0.274049	0.092245	-0.000004
C44	C	0.774049	0.592245	0.499996
C45	C	0.359646	0.093512	-0.000005
C46	C	0.859646	0.593512	0.499995
C47	C	0.427870	0.094522	0.000001
C48	C	0.927870	0.594522	0.500001
C49	C	0.899709	-0.033643	0.000015
C50	C	1.399709	0.466357	0.500015
C51	C	0.898475	-0.111149	0.000017
C52	C	1.398475	0.388851	0.500017
C53	C	0.897907	-0.147545	-0.072250
C54	C	1.397907	0.352455	0.427750
C55	C	0.896737	-0.220369	-0.072257
C56	C	1.396737	0.279631	0.427743
C57	C	0.896149	-0.256796	0.000009
C58	C	1.396149	0.243204	0.500009
C59	C	0.896712	-0.220391	0.072286
C60	C	1.396712	0.279609	0.572286
C61	C	0.897875	-0.147568	0.072290
C62	C	1.397875	0.352432	0.572290
N63	N	0.937387	-0.376417	0.053796
N64	N	1.437387	0.123583	0.553796
N65	N	0.936284	-0.445596	0.053787
N66	N	1.436284	0.054404	0.553787
C67	C	0.892643	-0.476209	0.000001
C68	C	1.392643	0.023791	0.500001
N69	N	0.850156	-0.435031	-0.053787
N70	N	1.350156	0.064969	0.446213
N71	N	0.851263	-0.365845	-0.053781
N72	N	1.351263	0.134155	0.446219
C73	C	0.894887	-0.335761	0.000013
C74	C	1.394887	0.164239	0.500013
C75	C	0.890805	-0.591569	-0.072278
C76	C	1.390805	-0.091569	0.427722
C77	C	0.889630	-0.664394	-0.072281
C78	C	1.389630	-0.164394	0.427719
C79	C	0.889613	-0.664415	0.072264
C80	C	1.389613	-0.164415	0.572264
C81	C	0.890781	-0.591591	0.072265
C82	C	1.390781	-0.091591	0.572265
C83	C	0.891380	-0.555173	-0.000008
C84	C	1.391380	-0.055173	0.499992
C85	C	1.032152	0.088683	0.000006
C86	C	1.532152	0.588683	0.500006
C87	C	1.116168	0.089916	0.000002
C88	C	1.616168	0.589916	0.500002
C89	C	0.887806	0.221678	-0.000007
C90	C	1.387806	0.721678	0.499993
C91	C	0.889041	0.299184	-0.000015
C92	C	1.389041	0.799184	0.499985
N93	N	0.893739	0.094007	0.206554
N94	N	1.393739	0.594007	0.706554
N95	N	0.893782	0.094022	-0.206544
N96	N	1.393782	0.594022	0.293456
C97	C	0.945368	0.046472	0.248276
C98	C	1.445368	0.546472	0.748276
C99	C	0.945372	0.046471	0.331728
C100	C	1.445372	0.546471	0.831728
C101	C	0.893751	0.094009	0.373457
C102	C	1.393751	0.594009	0.873457
C103	C	0.842117	0.141547	0.331728
C104	C	1.342117	0.641547	0.831728
C105	C	0.842110	0.141543	0.248278
C106	C	1.342110	0.641543	0.748278
C107	C	0.842144	0.141560	0.668276
C108	C	1.342144	0.641560	1.168276
C109	C	0.842157	0.141561	0.751732
C110	C	1.342157	0.641561	1.251732
C111	C	0.945406	0.046488	0.751726
C112	C	1.445406	0.546488	1.251726
C113	C	0.945399	0.046485	0.668275
C114	C	1.445399	0.546485	1.168275
C115	C	0.893763	0.094019	0.626555
C116	C	1.393763	0.594019	1.126555
C117	C	0.893758	0.094018	0.536066
C118	C	1.393758	0.594018	1.036066
C119	C	0.893759	0.094014	0.463943
C120	C	1.393759	0.594014	0.963943
H121	H	0.123485	0.090026	0.131118
H122	H	0.623485	0.590026	0.631118
C123	C	0.785357	0.193843	0.797632
C124	C	1.285357	0.693843	1.297632
H125	H	0.754595	0.222146	0.760834
H126	H	1.254595	0.722146	1.260834
H127	H	0.812475	0.222883	0.830178
H128	H	1.312475	0.722883	1.330178
H129	H	0.753948	0.168746	0.830194
H130	H	1.253948	0.668746	1.330194
H131	H	0.123514	0.090032	-0.131120
H132	H	0.623514	0.590032	0.368880
C133	C	0.509537	0.095730	-0.151766
C134	C	1.009537	0.595730	0.348234
H135	H	0.456868	0.094961	-0.141416
H136	H	0.956868	0.594961	0.358584
H137	H	0.528386	0.055224	-0.181458
H138	H	1.028386	0.555224	0.318542
H139	H	0.516568	0.136628	-0.181461
H140	H	1.016568	0.636628	0.318539
C141	C	0.896142	-0.260417	-0.151754
C142	C	1.396142	0.239583	0.348246
H143	H	0.896678	-0.228299	-0.194795
H144	H	1.396678	0.271701	0.305205
H145	H	0.851572	-0.283436	-0.154783
H146	H	1.351572	0.216564	0.345217
H147	H	0.939831	-0.294217	-0.154732
H148	H	1.439831	0.205783	0.345268
C149	C	0.896065	-0.260454	0.151778
C150	C	1.396065	0.239546	0.651778
H151	H	0.896564	-0.228344	0.194821
H152	H	1.396564	0.271656	0.694821
H153	H	0.939737	-0.294265	0.154786
H154	H	1.439737	0.205735	0.654786
H155	H	0.851478	-0.283460	0.154776
H156	H	1.351478	0.216540	0.654776
H157	H	0.891249	-0.561958	0.131113
H158	H	1.391249	-0.061958	0.631113
C159	C	0.675309	0.098180	-0.151767
C160	C	1.175309	0.598180	0.348233
H161	H	0.640499	0.097674	-0.194808
H162	H	1.140499	0.597674	0.305192
H163	H	0.712016	0.057935	-0.154769
H164	H	1.212016	0.557935	0.345231
H165	H	0.700191	0.139340	-0.154774
H166	H	1.200191	0.639340	0.345226
H167	H	0.800102	0.180266	0.634313
H168	H	1.300102	0.680266	1.134313
C169	C	0.509448	0.096145	0.151762
C170	C	1.009448	0.596145	0.651762
H171	H	0.456765	0.095488	0.141413
H172	H	0.956765	0.595488	0.641413
H173	H	0.516620	0.137166	0.181140
H174	H	1.016620	0.637166	0.681140
H175	H	0.528109	0.055759	0.181769
H176	H	1.028109	0.555759	0.681769
C177	C	0.278001	0.092313	-0.151770
C178	C	0.778001	0.592313	0.348230
H179	H	0.243188	0.091809	-0.194808
H180	H	0.743188	0.591809	0.305192
H181	H	0.314707	0.052068	-0.154776
H182	H	0.814707	0.552068	0.345224
H183	H	0.302883	0.133472	-0.154779
H184	H	0.802883	0.633472	0.345221
C185	C	0.889001	-0.704429	-0.151780
C186	C	1.389001	-0.204429	0.348220
H187	H	0.889531	-0.672308	-0.194819
H188	H	1.389531	-0.172308	0.305181
H189	H	0.844420	-0.727433	-0.154790
H190	H	1.344420	-0.227433	0.345210
H191	H	0.932678	-0.738241	-0.154780
H192	H	1.432678	-0.238241	0.345220
C193	C	0.898553	-0.107487	-0.151748
C194	C	1.398553	0.392513	0.348252
H195	H	0.898040	-0.139597	-0.194789
H196	H	1.398040	0.360403	0.305211
H197	H	0.943131	-0.084476	-0.154753
H198	H	1.443131	0.415524	0.345247
H199	H	0.854872	-0.073680	-0.154749
H200	H	1.354872	0.426320	0.345251
H201	H	0.800082	0.180251	0.365709
H202	H	1.300082	0.680251	0.865709
C203	C	0.891455	-0.551505	-0.151773
C204	C	1.391455	-0.051505	0.348227
H205	H	0.890938	-0.583613	-0.194816
H206	H	1.390938	-0.083613	0.305184
H207	H	0.936037	-0.528499	-0.154776
H208	H	1.436037	-0.028499	0.345224
H209	H	0.847779	-0.517693	-0.154775
H210	H	1.347779	-0.017693	0.345225
H211	H	0.800068	0.180250	0.214308
H212	H	1.300068	0.680250	0.714308
H213	H	0.898335	-0.117934	0.131141
H214	H	1.398335	0.382066	0.631141
H215	H	0.889129	-0.694073	0.131104
H216	H	1.389129	-0.194073	0.631104
C217	C	1.002151	-0.005822	0.202382
C218	C	1.502151	0.494178	0.702382
H219	H	1.032894	-0.034137	0.239185
H220	H	1.532894	0.465863	0.739185
H221	H	1.033569	0.019253	0.169813
H222	H	1.533569	0.519253	0.669813
H223	H	0.975016	-0.034859	0.169843
H224	H	1.475016	0.465141	0.669843
C225	C	1.002170	-0.005811	0.377619
C226	C	1.502170	0.494189	0.877619
H227	H	1.032920	-0.034116	0.340815
H228	H	1.532920	0.465884	0.840815
H229	H	0.975055	-0.034847	0.410188
H230	H	1.475055	0.465153	0.910188
H231	H	1.033591	0.019280	0.410158
H232	H	1.533591	0.519280	0.910158
H233	H	0.266703	0.092142	0.131117
H234	H	0.766703	0.592142	0.631117
H235	H	0.663998	0.098012	0.131119
H236	H	1.163998	0.598012	0.631119
C237	C	1.002180	-0.005809	0.622378
C238	C	1.502180	0.494191	1.122378
H239	H	1.032924	-0.034125	0.659179
H240	H	1.532924	0.465875	1.159179
H241	H	1.033596	0.019266	0.589808
H242	H	1.533596	0.519266	1.089808
H243	H	0.975042	-0.034844	0.589840
H244	H	1.475042	0.465156	1.089840
C245	C	1.002199	-0.005807	0.797621
C246	C	1.502199	0.494193	1.297621
H247	H	0.994807	0.000995	0.853298
H248	H	1.494807	0.500995	1.353298
H249	H	1.052682	0.001717	0.783933
H250	H	1.552682	0.501717	1.283933
H251	H	0.994132	-0.052398	0.783953
H252	H	1.494132	0.447602	1.283953
