data_functionalizedCrystal
_audit_creation_method	'MofGen! by Chris Wilmer'
_symmetry_space_group_name_H-M	'P1'
_symmetry_Int_Tables_number	1
_symmetry_cell_setting	triclinic
loop_
_symmetry_equiv_pos_as_xyz
  x,y,z
_cell_length_a	11.026607
_cell_length_b	11.026607
_cell_length_c	10.065875
_cell_angle_alpha	100.731764
_cell_angle_beta	79.302338
_cell_angle_gamma	108.586017
loop_
_atom_site_label
_atom_site_type_symbol
_atom_site_fract_x
_atom_site_fract_y
_atom_site_fract_z
O1	O	1.741286	0.518966	-0.113490
O2	O	1.374706	0.458202	-0.113493
O3	O	1.527614	0.305294	-0.113487
O4	O	1.588379	0.671873	-0.113496
O5	O	1.498489	0.334601	0.113501
O6	O	1.345582	0.487509	0.113495
O7	O	1.712161	0.548273	0.113497
Zn8	Zn	1.524247	0.522544	0.149535
Zn9	Zn	1.562620	0.483931	-0.149531
O10	O	1.559254	0.701180	0.113491
C11	C	1.312485	0.461645	0.000001
C12	C	1.170471	0.428228	0.000000
C13	C	1.116822	0.520498	-0.000003
C14	C	0.970043	0.485962	-0.000004
C15	C	1.501842	0.272288	0.000005
C16	C	1.468426	0.130273	0.000000
C17	C	1.560695	0.076624	-0.000001
C18	C	1.526160	-0.070155	-0.000006
C19	C	1.774384	0.544829	0.000001
C20	C	1.916399	0.578244	-0.000007
C21	C	1.585026	0.734186	-0.000004
C22	C	1.618444	0.876199	-0.000008
N23	N	1.498068	0.548898	0.353640
N24	N	1.588808	0.457569	-0.353635
C25	C	1.553502	0.493090	0.421421
C26	C	1.533366	0.513385	0.578587
H27	H	1.107742	0.323661	-0.000032
C28	C	1.413817	0.633743	0.432419
H29	H	1.411344	0.636261	0.527718
H30	H	1.328701	0.598514	0.409087
H31	H	1.449449	0.718817	0.409064
C32	C	1.384896	-0.154887	-0.000009
H33	H	1.380215	-0.242422	-0.000003
H34	H	1.353818	-0.147477	-0.079161
H35	H	1.333509	-0.127045	0.079160
C36	C	0.885313	0.344697	-0.000008
H37	H	0.797778	0.340015	-0.000020
H38	H	0.892780	0.313677	0.079145
H39	H	0.913098	0.293251	-0.079177
H40	H	0.979125	0.682816	-0.000001
C41	C	1.449111	0.598234	0.657361
H42	H	1.446637	0.600752	0.752660
H43	H	1.363995	0.563005	0.634029
H44	H	1.484743	0.683308	0.634007
C45	C	1.701954	0.161354	0.000005
H46	H	1.755366	0.108660	-0.000005
H47	H	1.708668	0.224048	0.079161
H48	H	1.728985	0.203610	-0.079160
C49	C	1.201558	0.661754	-0.000008
H50	H	1.289095	0.666434	-0.000017
H51	H	1.173777	0.713210	0.079143
H52	H	1.194091	0.692760	-0.079178
H53	H	1.651173	0.394755	0.588046
H54	H	1.363864	0.067539	-0.000009
C55	C	1.759711	-0.039078	-0.000008
H56	H	1.813121	-0.091774	-0.000019
H57	H	1.766431	0.023618	0.079146
H58	H	1.786739	0.003175	-0.079175
C59	C	1.637753	0.408244	0.342642
H60	H	1.640240	0.405741	0.247343
H61	H	1.602136	0.323178	0.365999
H62	H	1.722877	0.443488	0.365971
