data_functionalizedCrystal
_audit_creation_method	'MofGen! by Chris Wilmer'
_symmetry_space_group_name_H-M	'P1'
_symmetry_Int_Tables_number	1
_symmetry_cell_setting	triclinic
loop_
_symmetry_equiv_pos_as_xyz
  x,y,z
_cell_length_a	16.992694
_cell_length_b	10.654541
_cell_length_c	15.455313
_cell_angle_alpha	92.691200
_cell_angle_beta	87.142206
_cell_angle_gamma	87.576076
loop_
_atom_site_label
_atom_site_type_symbol
_atom_site_fract_x
_atom_site_fract_y
_atom_site_fract_z
O1	O	1.045242	0.261289	-0.072021
O2	O	0.816942	0.258364	-0.072047
O3	O	0.936342	0.077541	-0.072028
O4	O	0.925843	0.442112	-0.072040
O5	O	0.929514	0.087836	0.072233
O6	O	0.810114	0.268659	0.072214
O7	O	1.038414	0.271584	0.072240
Cu8	Cu	0.923641	0.271061	0.085399
Cu9	Cu	0.931716	0.258886	-0.085206
O10	O	0.919015	0.452407	0.072221
C11	C	0.784296	0.259751	0.000080
C12	C	0.697191	0.248531	0.000071
C13	C	0.932158	0.035824	0.000102
C14	C	0.929852	-0.103819	0.000100
C15	C	0.647539	0.356782	0.000068
C16	C	0.565694	0.346233	0.000080
C17	C	0.533504	0.227433	0.000089
C18	C	0.583162	0.119174	0.000095
C19	C	0.665005	0.129724	0.000089
C20	C	0.289667	0.183707	0.000114
C21	C	0.207818	0.173165	0.000117
C22	C	0.190356	0.400226	0.000105
C23	C	0.272201	0.410765	0.000093
C24	C	0.321852	0.302507	0.000103
N25	N	0.449846	0.216648	0.000099
N26	N	0.405508	0.313293	0.000100
C27	C	1.072627	-0.119450	0.000127
C28	C	1.142928	-0.192868	0.000142
C29	C	1.140757	-0.324074	0.000139
C30	C	1.068277	-0.381864	0.000119
C31	C	0.997977	-0.308446	0.000103
C32	C	1.000155	-0.177238	0.000109
C33	C	0.855204	-0.292816	0.000070
C34	C	0.857373	-0.161609	0.000079
C35	C	0.782725	-0.350606	0.000050
C36	C	0.712422	-0.277188	0.000041
C37	C	0.714596	-0.145974	0.000045
C38	C	0.787072	-0.088191	0.000064
C39	C	1.071061	0.270197	0.000111
C40	C	1.158166	0.281416	0.000115
C41	C	0.923199	0.494124	0.000089
C42	C	0.925505	0.633766	0.000085
N43	N	0.917967	0.279624	0.205394
N44	N	0.937396	0.250314	-0.205201
C45	C	0.968710	0.202836	0.250796
C46	C	0.964427	0.209324	0.341603
C47	C	0.909403	0.292608	0.387007
C48	C	0.858655	0.369399	0.341598
C49	C	0.862935	0.362903	0.250793
C50	C	0.890928	0.320610	0.658585
C51	C	0.886653	0.327102	0.749397
C52	C	0.992424	0.167025	0.749396
C53	C	0.996703	0.160543	0.658588
C54	C	0.945952	0.237329	0.613188
N55	N	0.905025	0.299244	0.479826
N56	N	0.950326	0.230685	0.520370
H57	H	0.673741	0.453522	0.000060
H58	H	0.788849	0.018643	0.000073
H59	H	1.033743	0.104508	0.786369
H60	H	0.780962	-0.457442	0.000042
H61	H	0.705432	0.041574	0.000090
O62	O	0.337781	0.078419	0.000082
C63	C	0.346454	-0.147903	0.000149
C64	C	0.291872	-0.028763	0.000164
H65	H	0.309358	-0.234588	0.000233
H66	H	0.388045	-0.153048	-0.060238
H67	H	0.382372	-0.144262	0.060508
H68	H	0.255903	-0.032322	-0.060154
H69	H	0.250332	-0.023661	0.060591
H70	H	0.849605	0.383135	0.621627
H71	H	0.525270	0.434383	0.000077
H72	H	1.066517	-0.488700	0.000105
H73	H	0.556946	0.022445	0.000114
H74	H	1.074401	-0.012615	0.000141
H75	H	1.013519	0.135024	0.213834
O76	O	0.303601	0.526068	0.000018
C77	C	0.421946	0.642944	-0.000021
C78	C	0.386489	0.512287	0.000070
H79	H	0.488964	0.631848	0.000039
H80	H	0.404442	0.692521	-0.060424
H81	H	0.398667	0.701203	0.060322
H82	H	0.409750	0.453927	-0.060233
H83	H	0.403988	0.462809	0.060513
H84	H	0.149921	0.488363	0.000098
H85	H	0.841844	0.394927	0.786361
O86	O	0.646228	-0.074843	0.000066
C87	C	0.504386	-0.073209	-0.000030
C88	C	0.581753	-0.153905	-0.000032
H89	H	0.452239	-0.137097	-0.000128
H90	H	0.498910	-0.007117	0.060359
H91	H	0.504743	-0.015660	-0.060387
H92	H	0.581450	-0.211530	0.060284
H93	H	0.587199	-0.219916	-0.060461
H94	H	1.201939	-0.145800	0.000167
H95	H	0.181613	0.076419	0.000124
O96	O	1.013810	0.134698	0.385572
C97	C	1.119160	-0.024781	0.375988
C98	C	1.063288	0.059680	0.326086
H99	H	1.159166	-0.085473	0.327915
H100	H	1.156688	0.036435	0.418461
H101	H	1.082944	-0.087897	0.418540
H102	H	1.099442	0.122810	0.283487
H103	H	1.025758	-0.001609	0.283667
H104	H	0.653415	-0.324252	0.000018
O105	O	1.050173	0.079527	0.614621
C106	C	1.154662	-0.078510	0.624205
C107	C	1.094130	0.013158	0.674106
H108	H	1.190229	-0.132175	0.672278
H109	H	1.122496	-0.147833	0.581728
H110	H	1.196114	-0.023311	0.581657
H111	H	1.052661	-0.041937	0.716702
H112	H	1.126347	0.082481	0.716529
H113	H	0.813849	0.437205	0.378571
H114	H	1.198002	-0.383851	0.000145
O115	O	0.813610	0.437627	0.206821
C116	C	0.708216	0.597033	0.216400
C117	C	0.764046	0.512504	0.266304
H118	H	0.668119	0.657574	0.264470
H119	H	0.744387	0.660278	0.173897
H120	H	0.670774	0.535748	0.173876
H121	H	0.801501	0.573691	0.308875
H122	H	0.727830	0.449250	0.308752
