data_functionalizedCrystal
_audit_creation_method	'MofGen! by Chris Wilmer'
_symmetry_space_group_name_H-M	'P1'
_symmetry_Int_Tables_number	1
_symmetry_cell_setting	triclinic
loop_
_symmetry_equiv_pos_as_xyz
  x,y,z
_cell_length_a	14.908571
_cell_length_b	19.121063
_cell_length_c	14.908694
_cell_angle_alpha	95.839462
_cell_angle_beta	83.592472
_cell_angle_gamma	89.303906
loop_
_atom_site_label
_atom_site_type_symbol
_atom_site_fract_x
_atom_site_fract_y
_atom_site_fract_z
Zn1	Zn	1.394122	-0.369756	-0.610618
Zn2	Zn	1.727455	-0.036423	-0.277285
Zn3	Zn	2.060789	0.296911	0.056049
Zn4	Zn	1.379559	-0.480018	-0.464952
Zn5	Zn	1.712892	-0.146684	-0.131619
Zn6	Zn	2.046225	0.186649	0.201715
Zn7	Zn	1.234771	-0.355390	-0.449811
Zn8	Zn	1.568104	-0.022057	-0.116478
Zn9	Zn	1.901437	0.311276	0.216856
Zn10	Zn	1.236993	-0.479963	-0.607548
Zn11	Zn	1.570327	-0.146630	-0.274214
Zn12	Zn	1.903660	0.186704	0.059119
O13	O	1.311361	-0.421282	-0.533232
O14	O	1.644694	-0.087948	-0.199899
O15	O	1.978028	0.245385	0.133435
O16	O	1.518543	-0.390417	-0.598917
O17	O	1.851877	-0.057084	-0.265584
O18	O	2.185210	0.276250	0.067750
O19	O	1.353327	-0.457496	-0.335968
O20	O	1.686661	-0.124163	-0.002635
O21	O	2.019994	0.209170	0.330698
O22	O	1.261073	-0.259017	-0.466091
O23	O	1.594407	0.074316	-0.132757
O24	O	1.927740	0.407650	0.200576
O25	O	1.507844	-0.471426	-0.491897
O26	O	1.841177	-0.138093	-0.158563
O27	O	2.174511	0.195241	0.174770
O28	O	1.378148	-0.269571	-0.584235
O29	O	1.711481	0.063762	-0.250902
O30	O	2.044815	0.397095	0.082431
O31	O	1.246952	-0.365933	-0.324844
O32	O	1.580285	-0.032600	0.008489
O33	O	1.913619	0.300733	0.341822
O34	O	1.108712	-0.365880	-0.463113
O35	O	1.442046	-0.032547	-0.129780
O36	O	1.775379	0.300786	0.203553
O37	O	1.264862	-0.471333	-0.734930
O38	O	1.598195	-0.138000	-0.401597
O39	O	1.931528	0.195334	-0.068263
O40	O	1.110345	-0.457403	-0.579002
O41	O	1.443679	-0.124070	-0.245668
O42	O	1.777012	0.209263	0.087665
O43	O	1.380303	-0.390364	-0.737186
O44	O	1.713637	-0.057031	-0.403853
O45	O	2.046970	0.276302	-0.070519
O46	O	1.355483	-0.578289	-0.488919
O47	O	1.688816	-0.244956	-0.155586
O48	O	2.022149	0.088377	0.177748
O49	O	1.250741	-0.578249	-0.593683
O50	O	1.584074	-0.244916	-0.260350
O51	O	1.917407	0.088417	0.072983
C52	C	1.076767	-0.410078	-0.519082
C53	C	1.410100	-0.076744	-0.185749
C54	C	1.743433	0.256589	0.147585
C55	C	0.976407	-0.405303	-0.513051
C56	C	1.309740	-0.071969	-0.179717
C57	C	1.643073	0.261364	0.153616
C58	C	0.789552	-0.491764	-0.622243
C59	C	1.122885	-0.158431	-0.288910
C60	C	1.456219	0.174902	0.044423
C61	C	0.695255	-0.487280	-0.616580
C62	C	1.028588	-0.153947	-0.283247
C63	C	1.361922	0.179387	0.050087
C64	C	0.693513	-0.391847	-0.496065
C65	C	1.026847	-0.058513	-0.162732
C66	C	1.360180	0.274820	0.170601
C67	C	0.787811	-0.396331	-0.501729
C68	C	1.121144	-0.062998	-0.168395
C69	C	1.454477	0.270336	0.164938
C70	C	0.835827	-0.446292	-0.564819
C71	C	1.169160	-0.112959	-0.231486
C72	C	1.502493	0.220374	0.101848
C73	C	0.930125	-0.450779	-0.570478
C74	C	1.263459	-0.117446	-0.237144
C75	C	1.596792	0.215887	0.096189
C76	C	0.928383	-0.355343	-0.449968
C77	C	1.261716	-0.022010	-0.116635
C78	C	1.595049	0.311324	0.216699
C79	C	0.834085	-0.350859	-0.444304
C80	C	1.167419	-0.017525	-0.110971
C81	C	1.500752	0.315808	0.222362
C82	C	1.301798	-0.603754	-0.542632
C83	C	1.635131	-0.270421	-0.209299
C84	C	1.968465	0.062913	0.124034
C85	C	1.297791	-0.681822	-0.546689
C86	C	1.631125	-0.348489	-0.213356
C87	C	1.964458	-0.015155	0.119978
C88	C	1.350490	-0.718500	-0.494101
C89	C	1.683823	-0.385167	-0.160767
C90	C	2.017157	-0.051834	0.172566
C91	C	1.346727	-0.791854	-0.497922
C92	C	1.680061	-0.458520	-0.164588
C93	C	2.013394	-0.125187	0.168745
C94	C	1.290260	-0.828527	-0.554327
C95	C	1.623594	-0.495194	-0.220994
C96	C	1.956927	-0.161860	0.112340
C97	C	1.237560	-0.791844	-0.606921
C98	C	1.570893	-0.458510	-0.273588
C99	C	1.904226	-0.125177	0.059745
C100	C	1.241328	-0.718492	-0.603105
C101	C	1.574661	-0.385159	-0.269771
C102	C	1.907994	-0.051825	0.063562
C103	C	1.276157	-1.050002	-0.568582
C104	C	1.609490	-0.716669	-0.235249
C105	C	1.942823	-0.383336	0.098085
C106	C	1.272391	-1.123359	-0.572393
C107	C	1.605724	-0.790026	-0.239059
C108	C	1.939057	-0.456692	0.094274
C109	C	1.381560	-1.123364	-0.463394
C110	C	1.714893	-0.790031	-0.130060
C111	C	2.048227	-0.456697	0.203273
C112	C	1.385319	-1.050011	-0.459578
C113	C	1.718652	-0.716677	-0.126245
C114	C	2.051986	-0.383344	0.207089
C115	C	1.332622	-1.013334	-0.512176
C116	C	1.665955	-0.680001	-0.178843
C117	C	1.999289	-0.346667	0.154491
C118	C	1.286411	-0.903506	-0.558232
C119	C	1.619744	-0.570173	-0.224899
C120	C	1.953077	-0.236839	0.108435
C121	C	1.336477	-0.938357	-0.508275
C122	C	1.669810	-0.605023	-0.174942
C123	C	2.003144	-0.271690	0.158391
C124	C	1.546872	-0.432530	-0.547438
C125	C	1.880205	-0.099197	-0.214105
C126	C	2.213538	0.234137	0.119228
C127	C	1.647232	-0.437323	-0.553492
C128	C	1.980565	-0.103990	-0.220159
C129	C	2.313899	0.229343	0.113175
C130	C	1.324455	-0.432445	-0.769902
C131	C	1.657788	-0.099112	-0.436568
C132	C	1.991122	0.234222	-0.103235
C133	C	1.330035	-0.437202	-0.870756
C134	C	1.663368	-0.103869	-0.537423
C135	C	1.996702	0.229465	-0.204090
C136	C	1.320987	-0.238099	-0.523817
C137	C	1.654321	0.095234	-0.190483
C138	C	1.987654	0.428568	0.142850
C139	C	1.325089	-0.160037	-0.519804
C140	C	1.658423	0.173296	-0.186471
C141	C	1.991756	0.506629	0.146862
C142	C	1.229730	-0.350798	-1.048689
C143	C	1.563064	-0.017464	-0.715356
C144	C	1.896397	0.315869	-0.382023
C145	C	1.234970	-0.355265	-1.143451
C146	C	1.568303	-0.021931	-0.810117
C147	C	1.901637	0.311402	-0.476784
C148	C	1.345749	-0.450607	-1.155042
C149	C	1.679082	-0.117273	-0.821709
C150	C	2.012415	0.216060	-0.488375
C151	C	1.340509	-0.446140	-1.060281
C152	C	1.673842	-0.112806	-0.726947
C153	C	2.007176	0.220527	-0.393614
C154	C	1.282499	-0.396233	-1.007107
C155	C	1.615832	-0.062899	-0.673774
C156	C	1.949165	0.270434	-0.340441
C157	C	1.277264	-0.391762	-0.912344
C158	C	1.610598	-0.058429	-0.579011
C159	C	1.943931	0.274904	-0.245678
C160	C	1.388038	-0.487107	-0.923937
C161	C	1.721371	-0.153774	-0.590604
C162	C	2.054705	0.179559	-0.257271
C163	C	1.393278	-0.491575	-1.018699
C164	C	1.726611	-0.158241	-0.685365
C165	C	2.059944	0.175092	-0.352032
C166	C	1.298373	-0.410114	-0.297484
C167	C	1.631706	-0.076780	0.035849
C168	C	1.965039	0.256553	0.369183
C169	C	1.292978	-0.405167	-0.196630
C170	C	1.626312	-0.071834	0.136703
C171	C	1.959645	0.261500	0.470036
H172	H	0.657582	-0.524307	-0.663343
H173	H	0.990915	-0.190973	-0.330009
H174	H	1.324249	0.142360	0.003324
H175	H	1.431009	-0.524102	-0.890072
H176	H	1.764342	-0.190768	-0.556738
H177	H	2.097676	0.142565	-0.223405
O178	O	1.167170	-0.296968	-0.991336
O179	O	1.500503	0.036366	-0.658003
O180	O	1.833836	0.369699	-0.324669
H181	H	1.207079	-0.261130	-0.948772
H182	H	1.540412	0.072204	-0.615438
H183	H	1.873746	0.405537	-0.282105
H184	H	0.794978	-0.310180	-0.392940
H185	H	1.128311	0.023153	-0.059607
H186	H	1.461645	0.356487	0.273726
O187	O	1.397383	-0.898808	-0.447441
O188	O	1.730716	-0.565474	-0.114108
O189	O	2.064050	-0.232141	0.219226
H190	H	1.468379	-0.916951	-0.468069
H191	H	1.801713	-0.583617	-0.134736
H192	H	2.135046	-0.250284	0.198598
H193	H	0.654403	-0.351166	-0.444706
H194	H	0.987736	-0.017833	-0.111372
H195	H	1.321070	0.315500	0.221961
H196	H	0.969218	-0.491461	-0.621848
H197	H	1.302552	-0.158128	-0.288514
H198	H	1.635885	0.175205	0.044819
O199	O	0.978290	-0.306290	-0.388027
O200	O	1.311624	0.027043	-0.054694
O201	O	1.644957	0.360376	0.278640
H202	H	1.051929	-0.317798	-0.402565
H203	H	1.385262	0.015536	-0.069232
H204	H	1.718596	0.348869	0.264101
H205	H	0.828647	-0.532448	-0.673609
H206	H	1.161980	-0.199115	-0.340276
H207	H	1.495314	0.134218	-0.006943
H208	H	1.230033	-0.351123	-0.869052
H209	H	1.563366	-0.017790	-0.535718
H210	H	1.896700	0.315544	-0.202385
O211	O	1.411398	-0.678946	-0.433267
O212	O	1.744731	-0.345613	-0.099934
O213	O	2.078065	-0.012280	0.233399
H214	H	1.447418	-0.716778	-0.397350
H215	H	1.780751	-0.383445	-0.064016
H216	H	2.114084	-0.050112	0.269317
H217	H	1.389640	-0.821714	-0.455098
H218	H	1.722973	-0.488381	-0.121764
H219	H	2.056306	-0.155047	0.211569
O220	O	1.446231	-1.010456	-0.398750
O221	O	1.779564	-0.677122	-0.065417
O222	O	2.112898	-0.343789	0.267917
H223	H	1.482252	-1.048285	-0.362830
H224	H	1.815586	-0.714952	-0.029497
H225	H	2.148919	-0.381619	0.303837
O226	O	1.455841	-0.545398	-1.076059
O227	O	1.789174	-0.212065	-0.742726
O228	O	2.122508	0.121268	-0.409393
H229	H	1.436454	-0.598922	-1.059777
H230	H	1.769787	-0.265589	-0.726444
H231	H	2.103121	0.067744	-0.393111
H232	H	1.424464	-1.153234	-0.420573
H233	H	1.757798	-0.819901	-0.087240
H234	H	2.091131	-0.486567	0.246094
O235	O	1.178063	-0.306256	-1.188305
O236	O	1.511397	0.027077	-0.854971
O237	O	1.844730	0.360410	-0.521638
H238	H	1.136853	-0.270800	-1.135407
H239	H	1.470187	0.062533	-0.802073
H240	H	1.803520	0.395866	-0.468740
O241	O	1.211492	-1.162919	-0.633240
O242	O	1.544825	-0.829586	-0.299906
O243	O	1.878158	-0.496253	0.033427
H244	H	1.175488	-1.125094	-0.669181
H245	H	1.508821	-0.791760	-0.335848
H246	H	1.842155	-0.458427	-0.002515
O247	O	1.219293	-1.010445	-0.625280
O248	O	1.552626	-0.677111	-0.291947
O249	O	1.885960	-0.343778	0.041387
H250	H	1.179380	-1.048270	-0.665124
H251	H	1.512714	-0.714937	-0.331791
H252	H	1.846047	-0.381603	0.001542
O253	O	1.176643	-0.831392	-0.667750
O254	O	1.509976	-0.498059	-0.334417
O255	O	1.843309	-0.164726	-0.001083
H256	H	1.182864	-0.888560	-0.661559
H257	H	1.516197	-0.555227	-0.328226
H258	H	1.849530	-0.221893	0.005107
O259	O	1.225492	-0.943066	-0.619048
O260	O	1.558826	-0.609733	-0.285715
O261	O	1.892159	-0.276399	0.047618
H262	H	1.266703	-0.980556	-0.669413
H263	H	1.600037	-0.647223	-0.336080
H264	H	1.933370	-0.313890	-0.002746
O265	O	1.184479	-0.678925	-0.659813
O266	O	1.517812	-0.345592	-0.326480
O267	O	1.851145	-0.012258	0.006854
H268	H	1.144571	-0.716747	-0.699668
H269	H	1.477904	-0.383414	-0.366334
H270	H	1.811237	-0.050081	-0.033001
H271	H	1.392965	-0.491248	-1.198352
H272	H	1.726298	-0.157914	-0.865018
H273	H	2.059632	0.175419	-0.531685
