data_functionalizedCrystal
_audit_creation_method	'MofGen! by Chris Wilmer'
_symmetry_space_group_name_H-M	'P1'
_symmetry_Int_Tables_number	1
_symmetry_cell_setting	triclinic
loop_
_symmetry_equiv_pos_as_xyz
  x,y,z
_cell_length_a	12.759395
_cell_length_b	19.077068
_cell_length_c	19.076919
_cell_angle_alpha	94.470751
_cell_angle_beta	87.716711
_cell_angle_gamma	87.671512
loop_
_atom_site_label
_atom_site_type_symbol
_atom_site_fract_x
_atom_site_fract_y
_atom_site_fract_z
Zn1	Zn	1.563744	0.296653	0.409806
Zn2	Zn	2.063744	0.796653	0.909806
Zn3	Zn	1.563614	0.409806	0.296650
Zn4	Zn	2.063614	0.909806	0.796650
Zn5	Zn	1.395412	0.291940	0.291940
Zn6	Zn	1.895412	0.791940	0.791940
Zn7	Zn	1.380645	0.414507	0.414499
Zn8	Zn	1.880645	0.914507	0.914499
O9	O	1.475854	0.353227	0.353224
O10	O	1.975854	0.853227	0.853224
O11	O	1.710747	0.311668	0.394802
O12	O	2.210747	0.811668	0.894802
O13	O	1.547427	0.390232	0.197378
O14	O	2.047427	0.890232	0.697378
O15	O	1.423976	0.193916	0.303640
O16	O	1.923976	0.693916	0.803640
O17	O	1.710651	0.394801	0.311668
O18	O	2.210651	0.894801	0.811668
O19	O	1.547648	0.197378	0.390235
O20	O	2.047648	0.697378	0.890235
O21	O	1.423850	0.303636	0.193918
O22	O	1.923850	0.803636	0.693918
O23	O	1.246433	0.308194	0.308191
O24	O	1.746433	0.808194	0.808191
O25	O	1.398808	0.402812	0.512524
O26	O	1.898808	0.902812	1.012524
O27	O	1.235584	0.398243	0.398234
O28	O	1.735584	0.898243	0.898234
O29	O	1.533330	0.316226	0.509075
O30	O	2.033330	0.816226	1.009075
O31	O	1.533108	0.509079	0.316218
O32	O	2.033108	1.009079	0.816218
O33	O	1.398682	0.512532	0.402801
O34	O	1.898682	1.012532	0.902801
C35	C	1.202887	0.353218	0.353211
C36	C	1.702887	0.853218	0.853211
C37	C	1.086109	0.353231	0.353223
C38	C	1.586109	0.853231	0.853223
C39	C	1.464306	0.536385	0.360546
C40	C	1.964306	1.036385	0.860546
C41	C	1.459461	0.614742	0.363702
C42	C	1.959461	1.114742	0.863702
C43	C	1.464436	0.360569	0.537093
C44	C	1.964436	0.860569	1.037093
C45	C	1.459571	0.363698	0.615447
C46	C	1.959571	0.863698	1.115447
C47	C	1.074851	0.447139	0.446846
C48	C	1.574851	0.947139	0.946846
C49	C	1.014360	0.494099	0.493659
C50	C	1.514360	0.994099	0.993659
C51	C	0.904638	0.494107	0.493668
C52	C	1.404638	0.994107	0.993668
C53	C	0.855404	0.447150	0.446860
C54	C	1.355404	0.947150	0.946860
C55	C	0.915894	0.400191	0.400047
C56	C	1.415894	0.900191	0.900047
C57	C	1.025619	0.400188	0.400041
C58	C	1.525619	0.900188	0.900041
C59	C	0.927152	0.306281	0.306429
C60	C	1.427152	0.806281	0.806429
C61	C	1.036875	0.306274	0.306415
C62	C	1.536875	0.806274	0.806415
C63	C	0.877918	0.259324	0.259621
C64	C	1.377918	0.759324	0.759621
C65	C	0.938409	0.212367	0.212803
C66	C	1.438409	0.712367	0.712803
C67	C	1.048138	0.212360	0.212796
C68	C	1.548138	0.712360	0.712796
C69	C	1.097365	0.259315	0.259602
C70	C	1.597365	0.759315	0.759602
C71	C	1.749886	0.353236	0.353237
C72	C	2.249886	0.853236	0.853237
C73	C	1.866662	0.353240	0.353242
C74	C	2.366662	0.853240	0.853242
C75	C	1.487474	0.169353	0.345889
C76	C	1.987474	0.669353	0.845889
C77	C	1.492425	0.090998	0.342763
C78	C	1.992425	0.590998	0.842763
C79	C	1.527223	0.649735	0.320143
C80	C	2.027223	1.149735	0.820143
C81	C	1.522672	0.723360	0.323115
C82	C	2.022672	1.223360	0.823115
C83	C	1.450353	0.761991	0.369643
C84	C	1.950353	1.261991	0.869643
C85	C	1.382588	0.726993	0.413207
C86	C	1.882588	1.226993	0.913207
C87	C	1.387145	0.653370	0.410238
C88	C	1.887145	1.153370	0.910238
C89	C	1.429218	0.982377	0.383357
C90	C	1.929218	1.482377	0.883357
C91	C	1.424663	1.056005	0.386322
C92	C	1.924663	1.556005	0.886322
C93	C	1.564749	1.052367	0.296230
C94	C	2.064749	1.552367	0.796230
C95	C	1.569296	0.978742	0.293262
C96	C	2.069296	1.478742	0.793262
C97	C	1.501535	0.943751	0.336828
C98	C	2.001535	1.443751	0.836828
N99	N	1.445696	0.837247	0.372681
N100	N	1.945696	1.337247	0.872681
N101	N	1.506197	0.868496	0.333794
N102	N	2.006197	1.368496	0.833794
C103	C	1.487290	0.345862	0.170068
C104	C	1.987290	0.845862	0.670068
C105	C	1.492371	0.342534	0.091706
C106	C	1.992371	0.842534	0.591706
C107	C	1.527320	0.320089	0.650464
C108	C	2.027320	0.820089	1.150464
C109	C	1.522736	0.323026	0.724086
C110	C	2.022736	0.823026	1.224086
C111	C	1.450407	0.369576	0.762689
C112	C	1.950407	0.869576	1.262689
C113	C	1.382651	0.413187	0.727667
C114	C	1.882651	0.913187	1.227667
C115	C	1.387231	0.410246	0.654047
C116	C	1.887231	0.910246	1.154047
C117	C	1.429195	0.383204	0.983064
C118	C	1.929195	0.883204	1.483064
C119	C	1.424622	0.386143	1.056690
C120	C	1.924622	0.886143	1.556690
C121	C	1.564706	0.295981	1.053103
C122	C	2.064706	0.795981	1.553103
C123	C	1.569284	0.293047	0.979481
C124	C	2.069284	0.793047	1.479481
C125	C	1.501524	0.336655	0.944465
C126	C	2.001524	0.836655	1.444465
N127	N	1.445722	0.372582	0.837943
N128	N	1.945722	0.872582	1.337943
N129	N	1.506205	0.333646	0.869213
N130	N	2.006205	0.833646	1.369213
H131	H	1.164192	0.447141	0.446838
H132	H	1.664192	0.947141	0.946838
F133	F	1.357098	0.945146	0.429724
F134	F	1.857098	1.445146	0.929724
H135	H	0.788576	0.259332	0.259635
H136	H	1.288576	0.759332	0.759635
H137	H	1.186707	0.259316	0.259599
H138	H	1.686707	0.759316	0.759599
H139	H	1.332052	0.445750	0.625537
H140	H	1.832052	0.945750	1.125537
H141	H	1.586108	0.618286	0.282251
H142	H	2.086108	1.118286	0.782251
F143	F	1.646279	0.937633	0.243748
F144	F	2.146279	1.437633	0.743748
F145	F	1.305669	0.462727	0.768754
F146	F	1.805669	0.962727	1.268754
F147	F	1.315026	0.616129	0.456601
F148	F	1.815026	1.116129	0.956601
H149	H	1.577906	0.287517	0.752593
H150	H	2.077906	0.787517	1.252593
F151	F	0.886004	0.162393	0.162997
F152	F	1.386004	0.662393	0.662997
F153	F	1.636865	1.089612	0.249870
F154	F	2.136865	1.589612	0.749870
H155	H	1.097383	0.174115	0.174679
H156	H	1.597383	0.674115	0.674679
H157	H	1.365784	1.087457	0.424223
H158	H	1.865784	1.587457	0.924223
H159	H	1.054459	0.532329	0.531770
H160	H	1.554459	1.032329	1.031770
H161	H	1.323708	0.758452	0.451095
H162	H	1.823708	1.258452	0.951095
F163	F	1.594797	0.760598	0.276755
F164	F	2.094797	1.260598	0.776755
F165	F	0.840258	0.544083	0.543495
F166	F	1.340258	1.044083	1.043495
F167	F	1.646267	0.243502	0.938401
F168	F	2.146267	0.743502	1.438401
F169	F	0.738626	0.447154	0.446880
F170	F	1.238626	0.947154	0.946880
H171	H	1.586221	0.282185	0.619038
H172	H	2.086221	0.782185	1.119038
H173	H	1.619871	0.260477	1.081620
H174	H	2.119871	0.760477	1.581620
H175	H	1.365720	0.424052	1.088119
H176	H	1.865720	0.924052	1.588119
H177	H	1.374035	0.418723	0.954564
H178	H	1.874035	0.918723	1.454564
