data_functionalizedCrystal
_audit_creation_method	'MofGen! by Chris Wilmer'
_symmetry_space_group_name_H-M	'P1'
_symmetry_Int_Tables_number	1
_symmetry_cell_setting	triclinic
loop_
_symmetry_equiv_pos_as_xyz
  x,y,z
_cell_length_a	19.805405
_cell_length_b	17.077404
_cell_length_c	17.077396
_cell_angle_alpha	90.020945
_cell_angle_beta	89.968350
_cell_angle_gamma	89.980111
loop_
_atom_site_label
_atom_site_type_symbol
_atom_site_fract_x
_atom_site_fract_y
_atom_site_fract_z
Zn1	Zn	-0.269581	-1.200035	-0.443856
Zn2	Zn	-0.382774	-1.199934	-0.312582
Zn3	Zn	-0.269591	-1.068767	-0.312600
Zn4	Zn	-0.382720	-1.068727	-0.443803
O5	O	-0.326167	-1.134366	-0.378210
O6	O	-0.284614	-1.309869	-0.426457
O7	O	-0.367787	-1.182509	-0.202738
O8	O	-0.174873	-1.086239	-0.330041
O9	O	-0.367777	-1.309795	-0.330011
O10	O	-0.174866	-1.182681	-0.426474
O11	O	-0.284632	-1.086141	-0.202751
O12	O	-0.284580	-0.958915	-0.329990
O13	O	-0.367686	-1.086171	-0.553657
O14	O	-0.367696	-0.958885	-0.426384
O15	O	-0.284562	-1.182643	-0.553696
O16	O	-0.477483	-1.182470	-0.329959
O17	O	-0.477444	-1.086073	-0.426366
C18	C	-0.502023	-1.134278	-0.378172
C19	C	-0.577255	-1.134312	-0.378182
C20	C	-0.326134	-0.930418	-0.378183
C21	C	-0.326136	-0.843168	-0.378191
C22	C	-0.326117	-1.134413	-0.582955
C23	C	-0.326096	-1.134434	-0.670204
C24	C	-0.612597	-1.184555	-0.328036
C25	C	-0.683285	-1.184588	-0.328053
C26	C	-0.718630	-1.134374	-0.378214
C27	C	-0.683283	-1.084129	-0.428366
C28	C	-0.612596	-1.084100	-0.428352
C29	C	-0.968356	-1.084245	-0.428424
C30	C	-1.039048	-1.084276	-0.428432
C31	C	-1.039046	-1.184732	-0.328125
C32	C	-0.968359	-1.184704	-0.328111
C33	C	-0.933018	-1.134462	-0.378266
C34	C	-0.856369	-1.134427	-0.378247
C35	C	-0.795277	-1.134404	-0.378229
C36	C	-0.149624	-1.134476	-0.378266
C37	C	-0.074392	-1.134523	-0.378289
C38	C	-0.369523	-0.467359	-0.428332
C39	C	-0.369516	-0.549340	-0.428322
C40	C	-0.326169	-0.590319	-0.378212
C41	C	-0.282830	-0.549315	-0.328103
C42	C	-0.282841	-0.467336	-0.328109
C43	C	-0.282811	-0.720185	-0.328093
C44	C	-0.282799	-0.802169	-0.328087
C45	C	-0.369486	-0.802189	-0.428306
C46	C	-0.369496	-0.720210	-0.428313
C47	C	-0.326157	-0.679210	-0.378204
C48	C	-0.326193	-0.339110	-0.378232
C49	C	-0.326186	-0.426360	-0.378229
C50	C	-0.282810	-1.184668	-0.711216
C51	C	-0.282787	-1.184678	-0.793197
C52	C	-0.326054	-1.134456	-0.834164
C53	C	-0.369342	-1.084216	-0.793146
C54	C	-0.369361	-1.084203	-0.711167
C55	C	-0.369301	-1.084247	-0.964017
C56	C	-0.369284	-1.084261	-1.046001
C57	C	-0.282728	-1.184722	-1.046046
C58	C	-0.282747	-1.184709	-0.964067
C59	C	-0.326035	-1.134470	-0.923055
C60	C	-0.326168	-1.134364	-0.174262
C61	C	-0.325998	-1.134496	-0.087013
H62	H	-0.712058	-1.225500	-0.287218
H63	H	-0.404807	-0.582717	-0.469120
H64	H	-1.067824	-1.043386	-0.469285
C65	C	-0.235176	-1.239940	-0.838306
H66	H	-0.209417	-1.269855	-0.802166
H67	H	-0.205670	-1.209940	-0.870290
H68	H	-0.261073	-1.274131	-0.870284
C69	C	-0.417179	-0.847284	-0.483400
H70	H	-0.410978	-0.901977	-0.476208
H71	H	-0.407350	-0.833887	-0.536171
H72	H	-0.462641	-0.833819	-0.471792
H73	H	-0.247518	-1.225609	-0.930713
H74	H	-0.939587	-1.043334	-0.469260
H75	H	-0.247479	-1.225628	-1.079441
H76	H	-0.712067	-1.043247	-0.469211
C77	C	-0.416873	-1.029014	-1.091064
H78	H	-0.442650	-0.999084	-1.054900
H79	H	-0.446363	-1.059026	-1.123040
H80	H	-0.390959	-0.994836	-1.123046
H81	H	-0.583821	-1.043188	-0.469187
H82	H	-0.404541	-1.043325	-0.930627
C83	C	-0.416936	-1.028971	-0.838205
H84	H	-0.442714	-0.999047	-0.802036
H85	H	-0.446426	-1.058985	-0.870180
H86	H	-0.391028	-0.994788	-0.870186
C87	C	-0.416992	-1.028965	-0.666055
H88	H	-0.442767	-0.999066	-0.702193
H89	H	-0.391116	-0.994768	-0.634067
H90	H	-0.446493	-1.058989	-0.634081
C91	C	-0.417181	-0.422288	-0.483483
H92	H	-0.442987	-0.458451	-0.513324
H93	H	-0.391312	-0.390344	-0.517735
H94	H	-0.446653	-0.390275	-0.453415
H95	H	-0.247579	-1.225567	-0.677866
H96	H	-0.583824	-1.225441	-0.287186
H97	H	-0.404790	-0.686846	-0.469121
C98	C	-0.235168	-0.422237	-0.272999
H99	H	-0.209345	-0.458382	-0.243159
H100	H	-0.261024	-0.390234	-0.238743
H101	H	-0.205712	-0.390278	-0.303099
C102	C	-0.235115	-0.847246	-0.272972
H103	H	-0.209309	-0.811089	-0.243125
H104	H	-0.205655	-0.879241	-0.303067
H105	H	-0.260965	-0.879209	-0.238710
H106	H	-0.939583	-1.225590	-0.287263
C107	C	-0.235135	-0.675087	-0.272978
H108	H	-0.209312	-0.711233	-0.243140
H109	H	-0.260988	-0.643083	-0.238722
H110	H	-0.205681	-0.643131	-0.303082
H111	H	-0.247539	-0.582687	-0.287298
C112	C	-1.077922	-1.240004	-0.272960
H113	H	-1.125083	-1.232838	-0.280155
H114	H	-1.066377	-1.228539	-0.220207
H115	H	-1.066297	-1.292737	-0.284498
