data_functionalizedCrystal
_audit_creation_method	'MofGen! by Chris Wilmer'
_symmetry_space_group_name_H-M	'P1'
_symmetry_Int_Tables_number	1
_symmetry_cell_setting	triclinic
loop_
_symmetry_equiv_pos_as_xyz
  x,y,z
_cell_length_a	12.645331
_cell_length_b	16.994747
_cell_length_c	12.645323
_cell_angle_alpha	90.006372
_cell_angle_beta	90.022676
_cell_angle_gamma	90.010038
loop_
_atom_site_label
_atom_site_type_symbol
_atom_site_fract_x
_atom_site_fract_y
_atom_site_fract_z
Zn1	Zn	1.620780	-0.314043	0.599583
Zn2	Zn	1.620682	-0.445958	0.422380
Zn3	Zn	1.443495	-0.314070	0.422327
Zn4	Zn	1.443497	-0.445907	0.599595
O5	O	1.532114	-0.379995	0.510971
O6	O	1.769114	-0.331552	0.576093
O7	O	1.597136	-0.428496	0.274026
O8	O	1.467052	-0.203685	0.445813
O9	O	1.769043	-0.428470	0.445903
O10	O	1.597303	-0.203666	0.576042
O11	O	1.466957	-0.331598	0.273987
O12	O	1.295148	-0.331548	0.445825
O13	O	1.467056	-0.428382	0.747941
O14	O	1.295149	-0.428408	0.576063
O15	O	1.597305	-0.331503	0.747932
O16	O	1.597138	-0.556333	0.445915
O17	O	1.466961	-0.556295	0.576115
C18	C	1.256684	-0.379976	0.510941
C19	C	1.138854	-0.379987	0.510953
C20	C	1.532052	-0.584934	0.511019
C21	C	1.532060	-0.674257	0.511016
Zn22	Zn	1.443525	-0.945156	0.422297
Zn23	Zn	1.620827	-0.945108	0.599536
Zn24	Zn	1.443533	-0.813299	0.599577
Zn25	Zn	1.620702	-0.813214	0.422345
O26	O	1.532147	-0.879194	0.510939
O27	O	1.467094	-1.055531	0.445771
O28	O	1.597365	-0.927639	0.747889
O29	O	1.295185	-0.830846	0.576058
O30	O	1.597357	-1.055496	0.575987
O31	O	1.295179	-0.927721	0.445811
O32	O	1.467108	-0.830800	0.747919
O33	O	1.466986	-0.702907	0.576105
O34	O	1.597143	-0.830700	0.273992
O35	O	1.597151	-0.702844	0.445893
O36	O	1.466972	-0.927638	0.273956
O37	O	1.769158	-0.927556	0.576034
O38	O	1.769066	-0.830654	0.445853
C39	C	0.971253	-0.318772	0.429471
C40	C	1.093813	-0.318930	0.429113
C41	C	1.094346	-0.463080	0.480474
C42	C	0.971748	-0.462746	0.479918
C43	C	0.971701	-0.358899	0.623227
C44	C	1.094307	-0.357043	0.622603
C45	C	1.808619	-0.380014	0.511003
C46	C	1.926449	-0.380022	0.511016
C47	C	1.532192	-0.379934	0.787477
C48	C	1.532225	-0.379908	0.905307
C49	C	1.532180	-0.174254	0.510917
C50	C	1.532213	-0.084932	0.510895
C51	C	1.532097	-0.379998	0.235541
C52	C	1.532269	-0.379802	0.117712
C53	C	1.450032	-0.440567	1.072877
C54	C	1.450248	-0.440868	0.950317
C55	C	1.643928	-0.402468	0.949836
C56	C	1.643477	-0.402849	1.072435
C57	C	1.503771	-0.296348	1.072468
C58	C	1.501279	-0.296849	0.949862
C59	C	1.807577	-0.879092	0.510947
C60	C	1.925407	-0.879072	0.510981
C61	C	1.532043	-0.879165	0.234434
C62	C	1.531998	-0.879153	0.116603
C63	C	1.255642	-0.879299	0.510934
C64	C	1.137812	-0.879343	0.510932
C65	C	1.532175	-0.879268	0.786369
C66	C	1.531924	-0.879431	0.904198
C67	C	2.092957	-0.818263	0.428924
C68	C	1.970397	-0.818025	0.429121
C69	C	1.969907	-0.856576	0.622732
C70	C	2.092505	-0.856133	0.622301
C71	C	2.092617	-0.962524	0.482403
C72	C	1.970011	-0.962084	0.479892
C73	C	1.613524	-0.817954	-0.050938
C74	C	1.613912	-0.818134	0.071622
C75	C	1.562351	-0.962256	0.072094
C76	C	1.562878	-0.961900	-0.050504
C77	C	1.419713	-0.857974	-0.050607
C78	C	1.420369	-0.856139	0.072000
H79	H	1.123904	-0.257313	0.448212
H80	H	1.124971	-0.398400	0.686606
C81	C	2.134569	-0.735200	0.454254
N82	N	2.165908	-0.672636	0.473340
H83	H	2.122416	-0.832181	0.345821
C84	C	1.728929	-0.344573	0.910446
N85	N	1.792951	-0.300966	0.880774
C86	C	1.676100	-0.485268	1.111125
N87	N	1.700668	-0.547349	1.140261
C88	C	1.930779	-0.734493	0.454739
N89	N	1.900939	-0.671574	0.474043
H90	H	1.367416	-0.426750	0.920209
C91	C	1.133776	-0.526385	0.558183
N92	N	1.163481	-0.574066	0.616712
C93	C	0.931431	-0.235277	0.454991
N94	N	0.901429	-0.172387	0.474213
C95	C	2.131146	-0.773720	0.655078
N96	N	2.160246	-0.711644	0.679763
H97	H	1.697053	-0.832148	0.100944
H98	H	2.122177	-0.898498	0.685589
H99	H	1.469062	-0.502736	0.921029
H100	H	1.423734	-0.275783	1.103363
C101	C	0.931706	-0.526489	0.556652
N102	N	0.901552	-0.574502	0.614443
C103	C	1.725164	-0.836652	-0.092563
N104	N	1.809251	-0.850738	-0.123916
C105	C	1.930533	-0.914557	0.707623
N106	N	1.900872	-0.958229	0.771561
H107	H	1.556799	-0.249182	0.919220
C108	C	1.928425	-0.775074	0.656071
N109	N	1.897176	-0.713687	0.681180
H110	H	1.123401	-0.295895	0.645586
C111	C	1.929748	-0.837020	0.317175
N112	N	1.899136	-0.851319	0.232850
C113	C	0.933050	-0.486936	0.369094
N114	N	0.903908	-0.505153	0.285616
C115	C	1.135753	-0.487694	0.370838
N116	N	1.166937	-0.506228	0.288256
C117	C	0.932556	-0.419164	0.705309
N118	N	0.903064	-0.464558	0.767126
C119	C	1.584690	-0.235187	1.111634
N120	N	1.645644	-0.189128	1.141137
C121	C	0.929566	-0.337412	0.317797
N122	N	0.898163	-0.351453	0.233684
H123	H	2.123536	-0.983011	0.402335
H124	H	0.940795	-0.299365	0.650953
H125	H	1.366956	-0.426585	1.102344
H126	H	1.397479	-0.794983	0.101093
H127	H	1.940928	-0.979048	0.397653
C128	C	1.475210	-0.523630	1.114531
N129	N	1.494182	-0.586193	1.145901
C130	C	1.928637	-1.026562	0.554774
N131	N	1.897473	-1.075126	0.611183
H132	H	1.594893	-0.756513	0.101716
C133	C	1.390247	-0.273844	0.910497
N134	N	1.306624	-0.256513	0.880826
C135	C	2.131810	-1.023730	0.563213
N136	N	2.161338	-1.069824	0.624081
C137	C	1.588105	-0.734438	-0.090748
N138	N	1.568957	-0.671531	-0.120738
C139	C	1.677117	-0.484025	0.908421
N140	N	1.702109	-0.545456	0.877230
C141	C	1.382359	-0.777517	-0.092359
N142	N	1.354236	-0.716913	-0.123807
H143	H	1.706828	-0.360512	1.102095
C144	C	1.673661	-0.986142	-0.089146
N145	N	1.757107	-1.004395	-0.118246
H146	H	1.505982	-1.009033	-0.080183
C147	C	1.484556	-1.025522	0.111457
N148	N	1.425960	-1.073174	0.141107
H149	H	1.643469	-0.980537	0.102819
C150	C	1.337538	-0.918187	-0.089810
N151	N	1.275652	-0.963542	-0.119345
C152	C	1.133374	-0.337796	0.316776
N153	N	1.163170	-0.352009	0.232159
C154	C	1.333841	-0.911996	0.113319
N155	N	1.268674	-0.954083	0.144425
