data_functionalizedCrystal
_audit_creation_method	'MofGen! by Chris Wilmer'
_symmetry_space_group_name_H-M	'P1'
_symmetry_Int_Tables_number	1
_symmetry_cell_setting	triclinic
loop_
_symmetry_equiv_pos_as_xyz
  x,y,z
_cell_length_a	9.065218
_cell_length_b	11.792254
_cell_length_c	7.540329
_cell_angle_alpha	89.996229
_cell_angle_beta	89.996962
_cell_angle_gamma	84.607241
loop_
_atom_site_label
_atom_site_type_symbol
_atom_site_fract_x
_atom_site_fract_y
_atom_site_fract_z
O1	O	1.958849	0.166429	-0.147488
O2	O	2.458849	0.666429	0.352512
O3	O	1.529437	0.180080	-0.147491
O4	O	2.029437	0.680080	0.352509
O5	O	1.754553	0.008143	-0.147477
O6	O	2.254553	0.508143	0.352523
O7	O	1.733732	0.338366	-0.147502
O8	O	2.233732	0.838366	0.352498
O9	O	1.754540	0.008141	0.147488
O10	O	2.254540	0.508141	0.647488
O11	O	1.529423	0.180078	0.147474
O12	O	2.029423	0.680078	0.647474
O13	O	1.958835	0.166427	0.147477
O14	O	2.458835	0.666427	0.647477
Cu15	Cu	1.744128	0.173252	0.174408
Cu16	Cu	2.244128	0.673252	0.674408
Cu17	Cu	1.744144	0.173255	-0.174422
Cu18	Cu	2.244144	0.673255	0.325578
O19	O	1.733718	0.338364	0.147463
O20	O	2.233718	0.838364	0.647463
C21	C	1.474455	0.178767	-0.000008
C22	C	1.974455	0.678767	0.499992
C23	C	1.310649	0.174844	-0.000009
C24	C	1.810649	0.674844	0.499991
C25	C	1.753235	-0.034156	0.000005
C26	C	2.253235	0.465844	0.500005
C27	C	1.749309	-0.160191	0.000004
C28	C	2.249309	0.339809	0.500004
C29	C	1.746119	-0.262545	-0.000003
C30	C	2.246119	0.237455	0.499997
C31	C	1.742131	-0.390954	-0.000019
C32	C	2.242131	0.109046	0.499981
C33	C	2.013816	0.167740	-0.000009
C34	C	2.513816	0.667740	0.499991
C35	C	2.177623	0.171663	-0.000020
C36	C	2.677623	0.671663	0.499980
C37	C	1.735037	0.380663	-0.000023
C38	C	2.235037	0.880663	0.499977
C39	C	1.738962	0.506698	-0.000033
C40	C	2.238962	1.006698	0.499967
N41	N	1.744127	0.173250	0.419757
N42	N	2.244127	0.673250	0.919757
N43	N	1.744156	0.173248	-0.419771
N44	N	2.244156	0.673248	0.080229
