data_functionalizedCrystal
_audit_creation_method	'MofGen! by Chris Wilmer'
_symmetry_space_group_name_H-M	'P1'
_symmetry_Int_Tables_number	1
_symmetry_cell_setting	triclinic
loop_
_symmetry_equiv_pos_as_xyz
  x,y,z
_cell_length_a	16.625548
_cell_length_b	21.395361
_cell_length_c	21.395356
_cell_angle_alpha	89.969319
_cell_angle_beta	89.976434
_cell_angle_gamma	90.031776
loop_
_atom_site_label
_atom_site_type_symbol
_atom_site_fract_x
_atom_site_fract_y
_atom_site_fract_z
Zn1	Zn	1.232658	-0.249437	-0.354248
Zn2	Zn	1.232535	-0.354213	-0.249465
Zn3	Zn	1.097813	-0.249455	-0.249485
Zn4	Zn	1.097771	-0.354182	-0.354205
O5	O	1.165194	-0.301822	-0.301851
O6	O	1.345474	-0.263340	-0.340358
O7	O	1.214630	-0.340338	-0.161790
O8	O	1.115770	-0.161775	-0.263408
O9	O	1.345384	-0.340319	-0.263374
O10	O	1.214840	-0.161761	-0.340377
O11	O	1.115650	-0.263373	-0.161804
O12	O	0.984975	-0.263343	-0.263366
O13	O	1.115698	-0.340267	-0.441889
O14	O	0.984944	-0.340285	-0.340304
O15	O	1.214799	-0.263310	-0.441920
O16	O	1.214589	-0.441887	-0.263333
O17	O	1.115579	-0.441864	-0.340285
C18	C	1.165088	-0.464609	-0.301816
C19	C	1.165116	-0.534251	-0.301822
C20	C	0.955703	-0.301813	-0.301833
C21	C	0.866082	-0.301824	-0.301841
C22	C	1.216716	-0.566955	-0.261794
C23	C	1.216754	-0.632390	-0.261808
C24	C	1.165177	-0.665119	-0.301843
C25	C	1.113573	-0.632407	-0.341879
C26	C	1.113542	-0.566973	-0.341868
C27	C	1.092577	-0.768834	-0.306753
C28	C	1.092606	-0.834267	-0.306760
C29	C	1.165271	-0.866940	-0.301880
C30	C	1.237909	-0.834171	-0.296981
C31	C	1.237878	-0.768737	-0.296970
C32	C	1.165204	-0.736071	-0.301860
C33	C	1.216916	-0.970596	-0.261865
C34	C	1.216955	-1.036033	-0.261884
C35	C	1.113766	-1.036048	-0.341952
C36	C	1.113735	-0.970613	-0.341936
C37	C	1.165308	-0.937891	-0.301890
C38	C	0.537907	-0.301828	-0.301867
C39	C	0.629215	-0.301825	-0.301858
C40	C	0.701992	-0.301827	-0.301853
C41	C	0.793306	-0.301823	-0.301845
C42	C	1.375503	-0.301831	-0.301869
C43	C	1.465124	-0.301835	-0.301876
C44	C	1.165258	-0.301783	-0.465274
C45	C	1.165285	-0.301766	-0.534915
C46	C	1.165323	-0.138399	-0.301899
C47	C	1.165378	-0.068757	-0.301920
C48	C	1.113760	-0.261686	-0.567626
C49	C	1.113757	-0.261675	-0.633062
C50	C	1.165294	-0.301737	-0.665784
C51	C	1.216822	-0.341825	-0.633065
C52	C	1.216818	-0.341840	-0.567631
C53	C	1.237941	-0.306662	-0.769470
C54	C	1.237947	-0.306642	-0.834903
C55	C	1.165307	-0.301694	-0.867605
C56	C	1.092658	-0.296753	-0.834865
C57	C	1.092654	-0.296767	-0.769431
C58	C	1.165304	-0.301725	-0.736736
C59	C	1.113775	-0.261599	-0.971268
C60	C	1.113771	-0.261592	-1.036705
C61	C	1.216843	-0.341739	-1.036707
C62	C	1.216840	-0.341749	-0.971271
C63	C	1.165307	-0.301676	-0.938556
C64	C	1.165177	-0.301815	-0.139063
C65	C	1.165307	-0.301655	-0.069422
H66	H	1.258713	-0.540314	-0.229187
H67	H	1.033508	-0.292719	-0.861490
H68	H	1.071579	-0.659059	-0.374477
Br69	Br	1.336532	-0.878503	-0.290349
H70	H	1.071807	-0.228956	-1.063337
Br71	Br	1.043843	-0.207262	-0.677465
Br72	Br	1.286788	-0.676785	-0.207481
H73	H	1.071775	-1.062696	-0.374552
Br74	Br	1.286779	-0.396116	-1.081108
Br75	Br	1.336453	-0.724267	-0.290327
H76	H	1.258799	-0.374386	-0.944638
H77	H	1.258783	-0.374444	-0.659712
Br78	Br	1.043836	-0.207219	-0.926865
Br79	Br	1.043700	-0.926226	-0.396262
Br80	Br	0.994065	-0.290064	-0.725001
H81	H	1.297102	-0.310663	-0.861554
H82	H	1.258779	-0.374477	-0.540998
Br83	Br	1.286904	-0.926184	-0.207516
Br84	Br	1.286999	-1.080419	-0.207561
H85	H	1.033459	-0.860943	-0.310743
H86	H	1.297099	-0.310685	-0.742849
H87	H	1.033399	-0.742239	-0.310729
Br88	Br	1.043820	-0.207304	-0.523229
Br89	Br	1.043509	-0.522585	-0.396197
