data_functionalizedCrystal
_audit_creation_method	'MofGen! by Chris Wilmer'
_symmetry_space_group_name_H-M	'P1'
_symmetry_Int_Tables_number	1
_symmetry_cell_setting	triclinic
loop_
_symmetry_equiv_pos_as_xyz
  x,y,z
_cell_length_a	9.065215
_cell_length_b	9.065218
_cell_length_c	9.616153
_cell_angle_alpha	89.991194
_cell_angle_beta	89.999522
_cell_angle_gamma	85.015291
loop_
_atom_site_label
_atom_site_type_symbol
_atom_site_fract_x
_atom_site_fract_y
_atom_site_fract_z
O1	O	0.216349	1.960409	-0.115646
O2	O	0.716349	2.460409	0.384354
O3	O	0.234096	1.531124	-0.115648
O4	O	0.734096	2.031124	0.384352
O5	O	0.010580	1.754642	-0.115641
O6	O	0.510580	2.254642	0.384359
O7	O	0.439865	1.736891	-0.115653
O8	O	0.939865	2.236891	0.384347
O9	O	0.010588	1.754603	0.115650
O10	O	0.510588	2.254603	0.615650
O11	O	0.234104	1.531085	0.115644
O12	O	0.734104	2.031085	0.615644
O13	O	0.216358	1.960370	0.115645
O14	O	0.716358	2.460370	0.615645
Zn15	Zn	0.225232	1.745721	0.152367
Zn16	Zn	0.725232	2.245721	0.652367
Zn17	Zn	0.225221	1.745773	-0.152369
Zn18	Zn	0.725221	2.245773	0.347631
O19	O	0.439874	1.736852	0.115638
O20	O	0.939874	2.236852	0.615638
C21	C	0.232394	1.476118	-0.000002
C22	C	0.732394	1.976118	0.499998
C23	C	0.227295	1.312275	-0.000003
C24	C	0.727295	1.812275	0.499997
C25	C	-0.044403	1.752917	0.000003
C26	C	0.455597	2.252917	0.500003
C27	C	-0.208246	1.747819	-0.000001
C28	C	0.291754	2.247819	0.499999
C29	C	0.494856	1.738576	-0.000009
C30	C	0.994856	2.238576	0.499991
C31	C	0.658699	1.743674	-0.000014
C32	C	1.158699	2.243674	0.499986
C33	C	0.218059	2.015376	-0.000003
C34	C	0.718059	2.515376	0.499997
C35	C	0.223159	2.179219	-0.000012
C36	C	0.723159	2.679219	0.499988
N37	N	0.225239	1.745697	0.360341
N38	N	0.725239	2.245697	0.860341
C39	C	0.344405	1.625753	0.580708
C40	C	0.844405	2.125753	1.080708
C41	C	0.344852	1.626026	0.419540
C42	C	0.844852	2.126026	0.919540
C43	C	0.260927	1.900109	0.418790
C44	C	0.760927	2.400109	0.918790
C45	C	0.261775	1.899451	0.580008
C46	C	0.761775	2.399451	1.080008
C47	C	0.070008	1.712744	0.580257
C48	C	0.570008	2.212744	1.080257
C49	C	0.070996	1.709214	0.419030
C50	C	0.570996	2.209214	0.919030
N51	N	0.225220	1.745773	0.639656
N52	N	0.725220	2.245773	1.139656
H53	H	0.323284	1.511315	0.380025
H54	H	0.823284	2.011315	0.880025
F55	F	0.025843	1.568605	0.633464
F56	F	0.525843	2.068605	1.133464
H57	H	-0.022010	1.790788	0.378738
H58	H	0.477990	2.290788	0.878738
F59	F	-0.045953	1.827112	0.630081
F60	F	0.454047	2.327112	1.130081
H61	H	0.375033	1.928242	0.617593
H62	H	0.875033	2.428242	1.117593
H63	H	0.323161	1.510682	0.619519
H64	H	0.823161	2.010682	1.119519
F65	F	0.035654	1.560732	0.369104
F66	F	0.535654	2.060732	0.869104
F67	F	0.495358	1.653817	0.369103
F68	F	0.995358	2.153817	0.869103
F69	F	0.152650	2.019722	0.630977
F70	F	0.652650	2.519722	1.130977
F71	F	0.494054	1.653245	0.633614
F72	F	0.994054	2.153245	1.133614
F73	F	0.407294	1.938568	0.365995
F74	F	0.907294	2.438568	0.865995
F75	F	0.150595	2.019741	0.368671
F76	F	0.650595	2.519741	0.868671
