data_functionalizedCrystal
_audit_creation_method	'MofGen! by Chris Wilmer'
_symmetry_space_group_name_H-M	'P1'
_symmetry_Int_Tables_number	1
_symmetry_cell_setting	triclinic
loop_
_symmetry_equiv_pos_as_xyz
  x,y,z
_cell_length_a	21.395362
_cell_length_b	18.215405
_cell_length_c	21.395356
_cell_angle_alpha	89.970979
_cell_angle_beta	89.957023
_cell_angle_gamma	90.040762
loop_
_atom_site_label
_atom_site_type_symbol
_atom_site_fract_x
_atom_site_fract_y
_atom_site_fract_z
Zn1	Zn	0.957879	-0.292691	-0.354580
Zn2	Zn	1.457879	0.207309	0.145420
Zn3	Zn	0.957794	-0.415759	-0.249800
Zn4	Zn	1.457794	0.084241	0.250200
Zn5	Zn	0.853096	-0.292745	-0.249781
Zn6	Zn	1.353096	0.207255	0.250219
Zn7	Zn	0.853074	-0.415754	-0.354505
Zn8	Zn	1.353074	0.084246	0.145495
O9	O	0.905460	-0.354237	-0.302166
O10	O	1.405460	0.145763	0.197834
O11	O	1.045546	-0.308996	-0.340720
O12	O	1.545546	0.191004	0.159280
O13	O	0.943879	-0.399465	-0.162119
O14	O	1.443879	0.100535	0.337881
O15	O	0.867040	-0.189753	-0.263706
O16	O	1.367040	0.310247	0.236294
O17	O	1.045483	-0.399413	-0.263739
O18	O	1.545483	0.100587	0.236261
O19	O	0.944024	-0.189714	-0.340702
O20	O	1.444024	0.310286	0.159298
O21	O	0.866958	-0.309087	-0.162106
O22	O	1.366958	0.190913	0.337894
O23	O	0.765415	-0.309083	-0.263634
O24	O	1.265415	0.190917	0.236366
O25	O	0.867003	-0.399405	-0.442193
O26	O	1.367003	0.100595	0.057807
O27	O	0.765399	-0.399458	-0.340573
O28	O	1.265399	0.100542	0.159427
O29	O	0.944003	-0.308991	-0.442248
O30	O	1.444003	0.191009	0.057752
O31	O	0.943858	-0.518743	-0.263666
O32	O	1.443858	-0.018743	0.236334
O33	O	0.866920	-0.518739	-0.340592
O34	O	1.366920	-0.018739	0.159408
C35	C	0.742673	-0.354276	-0.302094
C36	C	1.242673	0.145724	0.197906
C37	C	0.673032	-0.354311	-0.302077
C38	C	1.173032	0.145689	0.197923
C39	C	0.640326	-0.401431	-0.342080
C40	C	1.140326	0.098569	0.157920
C41	C	0.574891	-0.401413	-0.342108
C42	C	1.074891	0.098587	0.157892
C43	C	0.542163	-0.354282	-0.302122
C44	C	1.042163	0.145718	0.197878
C45	C	0.574876	-0.307153	-0.262117
C46	C	1.074876	0.192847	0.237883
C47	C	0.640310	-0.307167	-0.262094
C48	C	1.140310	0.192833	0.237906
C49	C	0.438439	-0.348364	-0.245717
C50	C	0.938439	0.151636	0.254283
C51	C	0.373006	-0.348355	-0.245738
C52	C	0.873006	0.151645	0.254262
C53	C	0.340343	-0.354234	-0.302191
C54	C	0.840343	0.145766	0.197809
C55	C	0.373120	-0.360138	-0.358625
C56	C	0.873120	0.139862	0.141375
C57	C	0.438554	-0.360152	-0.358602
C58	C	0.938554	0.139848	0.141398
C59	C	0.471211	-0.354261	-0.302142
C60	C	0.971211	0.145739	0.197858
C61	C	0.236685	-0.401338	-0.342228
C62	C	0.736685	0.098662	0.157772
C63	C	0.171248	-0.401314	-0.342256
C64	C	0.671248	0.098686	0.157744
C65	C	0.171235	-0.307058	-0.262260
C66	C	0.671235	0.192942	0.237740
C67	C	0.236670	-0.307077	-0.262236
C68	C	0.736670	0.192923	0.237764
C69	C	0.269391	-0.354221	-0.302219
C70	C	0.769391	0.145779	0.197781
C71	C	0.905394	-0.545444	-0.302136
C72	C	1.405394	-0.045444	0.197864
C73	C	0.905423	-0.627243	-0.302144
C74	C	1.405423	-0.127243	0.197856
C75	C	0.945579	-0.815414	-0.262163
C76	C	1.445579	-0.315414	0.237837
C77	C	0.945607	-0.892272	-0.262178
C78	C	1.445607	-0.392272	0.237822
C79	C	0.865422	-0.892309	-0.342215
C80	C	1.365422	-0.392309	0.157785
C81	C	0.865398	-0.815452	-0.342203
C82	C	1.365398	-0.315452	0.157797
C83	C	0.905475	-0.777006	-0.302173
C84	C	1.405475	-0.277006	0.197827
C85	C	0.905528	-0.930722	-0.302201
C86	C	1.405528	-0.430722	0.197799
C87	C	0.905558	-1.014056	-0.302217
C88	C	1.405558	-0.514056	0.197783
C89	C	0.905446	-0.693667	-0.302157
C90	C	1.405446	-0.193667	0.197843
C91	C	1.068884	-0.354199	-0.302240
C92	C	1.568884	0.145801	0.197760
C93	C	1.138525	-0.354182	-0.302271
C94	C	1.638525	0.145818	0.197729
C95	C	0.905510	-0.354192	-0.465590
C96	C	1.405510	0.145808	0.034410
C97	C	0.905531	-0.354172	-0.535231
C98	C	1.405531	0.145828	-0.035231
C99	C	0.905544	-0.162284	-0.302210
C100	C	1.405544	0.337716	0.197790
C101	C	0.905580	-0.080485	-0.302229
C102	C	1.405580	0.419515	0.197771
C103	C	0.865489	-0.307107	-0.567927
C104	C	1.365489	0.192893	-0.067927
C105	C	0.865486	-0.307094	-0.633363
C106	C	1.365486	0.192906	-0.133363
C107	C	0.905538	-0.354137	-0.666099
C108	C	1.405538	0.145863	-0.166099
C109	C	0.945583	-0.401211	-0.633395
C110	C	1.445583	0.098789	-0.133395
C111	C	0.945579	-0.401229	-0.567961
C112	C	1.445579	0.098771	-0.067961
C113	C	0.961990	-0.359905	-0.769805
C114	C	1.461990	0.140095	-0.269805
C115	C	0.961995	-0.359882	-0.835238
C116	C	1.461995	0.140118	-0.335238
C117	C	0.905548	-0.354088	-0.867920
C118	C	1.405548	0.145912	-0.367920
C119	C	0.849095	-0.348300	-0.835162
C120	C	1.349095	0.151700	-0.335162
C121	C	0.849092	-0.348318	-0.769728
C122	C	1.349092	0.151682	-0.269728
C123	C	0.905546	-0.354124	-0.737052
C124	C	1.405546	0.145876	-0.237052
C125	C	0.865500	-0.307005	-0.971569
C126	C	1.365500	0.192995	-0.471569
C127	C	0.865497	-0.306997	-1.037006
C128	C	1.365497	0.193003	-0.537006
C129	C	0.945599	-0.401111	-1.037037
C130	C	1.445599	0.098889	-0.537037
C131	C	0.945596	-0.401123	-0.971602
C132	C	1.445596	0.098877	-0.471602
C133	C	0.905548	-0.354066	-0.938872
C134	C	1.405548	0.145934	-0.438872
C135	C	0.905447	-0.354230	-0.139379
C136	C	1.405447	0.145770	0.360621
C137	C	0.905548	-0.354042	-0.069738
C138	C	1.405548	0.145958	0.430262
H139	H	0.346527	-0.364924	-0.404594
H140	H	0.846527	0.135076	0.095406
C141	C	0.821442	-0.255315	-0.669336
C142	C	1.321442	0.244685	-0.169336
H143	H	0.797594	-0.227290	-0.640471
H144	H	1.297594	0.272710	-0.140471
H145	H	0.794131	-0.283461	-0.694839
H146	H	1.294131	0.216539	-0.194839
H147	H	0.845436	-0.223239	-0.694883
H148	H	1.345436	0.276761	-0.194883
H149	H	0.144621	-0.439684	-0.374835
H150	H	0.644621	0.060316	0.125165
C151	C	0.676316	-0.453279	-0.386067
C152	C	1.176316	0.046721	0.113933
H153	H	0.647463	-0.481335	-0.409899
H154	H	1.147463	0.018665	0.090101
H155	H	0.701794	-0.485313	-0.362044
H156	H	1.201794	0.014687	0.137956
H157	H	0.701890	-0.425168	-0.413405
H158	H	1.201890	0.074832	0.086595
C159	C	0.989712	-0.934521	-0.218161
C160	C	1.489712	-0.434521	0.281839
H161	H	0.983992	-0.985801	-0.223902
H162	H	1.483992	-0.485801	0.276098
H163	H	0.980556	-0.921970	-0.176051
H164	H	1.480556	-0.421970	0.323949
H165	H	1.031805	-0.921865	-0.227381
H166	H	1.531805	-0.421865	0.272619
H167	H	0.548257	-0.439784	-0.374685
H168	H	1.048257	0.060216	0.125315
H169	H	0.832890	-0.268689	-0.944919
H170	H	1.332890	0.231311	-0.444919
C171	C	0.474607	-0.366634	-0.420674
C172	C	0.974607	0.133366	0.079326
H173	H	0.445787	-0.370128	-0.454302
H174	H	0.945787	0.129872	0.045698
H175	H	0.500103	-0.409295	-0.419787
H176	H	1.000103	0.090705	0.080213
H177	H	0.500169	-0.324464	-0.426232
H178	H	1.000169	0.175536	0.073768
H179	H	1.007962	-0.364591	-0.861905
H180	H	1.507962	0.135409	-0.361905
H181	H	0.978193	-0.439515	-0.660054
H182	H	1.478193	0.060485	-0.160054
C183	C	0.272681	-0.453184	-0.386213
C184	C	0.772681	0.046816	0.113787
H185	H	0.243828	-0.481238	-0.410049
H186	H	0.743828	0.018762	0.089951
H187	H	0.298155	-0.485221	-0.362188
H188	H	0.798155	0.014779	0.137812
H189	H	0.298258	-0.425075	-0.413548
H190	H	0.798258	0.074925	0.086452
H191	H	0.832741	-0.784178	-0.374787
H192	H	1.332741	-0.284178	0.125213
C193	C	0.989667	-0.773126	-0.218138
C194	C	1.489667	-0.273126	0.281862
H195	H	1.013560	-0.807011	-0.194316
H196	H	1.513560	-0.307011	0.305684
H197	H	0.965709	-0.743195	-0.190801
H198	H	1.465709	-0.243195	0.309199
H199	H	1.016946	-0.743091	-0.242142
H200	H	1.516946	-0.243091	0.257858
C201	C	0.821335	-0.934601	-0.386238
C202	C	1.321335	-0.434601	0.113762
H203	H	0.827087	-0.985876	-0.380511
H204	H	1.327087	-0.485876	0.119489
H205	H	0.830474	-0.921962	-0.428346
H206	H	1.330474	-0.421962	0.071654
H207	H	0.779237	-0.922064	-0.377005
H208	H	1.279237	-0.422064	0.122995
C209	C	0.272651	-0.255251	-0.218230
C210	C	0.772651	0.244749	0.281770
H211	H	0.316307	-0.262005	-0.223946
H212	H	0.816307	0.237995	0.276054
H213	H	0.261873	-0.265951	-0.176119
H214	H	0.761873	0.234049	0.323881
H215	H	0.261975	-0.205814	-0.227485
H216	H	0.761975	0.294186	0.272515
H217	H	0.803131	-0.343577	-0.861770
H218	H	1.303131	0.156423	-0.361770
H219	H	0.832876	-0.268793	-0.541282
H220	H	1.332876	0.231207	-0.041282
H221	H	0.144589	-0.268680	-0.229705
H222	H	0.644589	0.231320	0.270295
C223	C	0.336957	-0.341860	-0.183665
C224	C	0.836957	0.158140	0.316335
H225	H	0.365780	-0.338347	-0.150042
H226	H	0.865780	0.161653	0.349958
H227	H	0.311392	-0.384022	-0.178096
H228	H	0.811392	0.115978	0.321904
H229	H	0.311465	-0.299192	-0.184560
H230	H	0.811465	0.200808	0.315440
H231	H	0.803126	-0.343607	-0.743058
H232	H	1.303126	0.156393	-0.243058
H233	H	0.978205	-0.439447	-0.944980
H234	H	1.478205	0.060553	-0.444980
H235	H	0.832885	-0.268673	-1.063626
H236	H	1.332885	0.231327	-0.563626
C237	C	0.989655	-0.452857	-1.073040
C238	C	1.489655	0.047143	-0.573040
H239	H	0.983926	-0.446104	-1.116693
H240	H	1.483926	0.053896	-0.616693
H241	H	0.980466	-0.502309	-1.062297
H242	H	1.480466	-0.002309	-0.562297
H243	H	1.031759	-0.442073	-1.062348
H244	H	1.531759	0.057927	-0.562348
C245	C	1.024086	-0.366274	-0.733860
C246	C	1.524086	0.133726	-0.233860
H247	H	1.057707	-0.369706	-0.762740
H248	H	1.557707	0.130294	-0.262740
H249	H	1.023257	-0.408938	-0.708321
H250	H	1.523257	0.091062	-0.208321
H251	H	1.029606	-0.324096	-0.708351
H252	H	1.529606	0.175904	-0.208351
H253	H	0.978189	-0.439554	-0.541340
H254	H	1.478189	0.060446	-0.041340
C255	C	0.474365	-0.341897	-0.183616
C256	C	0.974365	0.158103	0.316384
H257	H	0.518030	-0.342744	-0.191685
H258	H	1.018030	0.157256	0.308315
H259	H	0.463583	-0.381888	-0.157203
H260	H	0.963583	0.118112	0.342797
H261	H	0.463654	-0.297057	-0.163656
H262	H	0.963654	0.202943	0.336344
C263	C	0.538879	-0.255310	-0.218133
C264	C	1.038879	0.244690	0.281867
H265	H	0.495224	-0.262055	-0.223871
H266	H	0.995224	0.237945	0.276129
H267	H	0.549649	-0.205880	-0.227377
H268	H	1.049649	0.294120	0.272623
H269	H	0.549549	-0.266021	-0.176013
H270	H	1.049549	0.233979	0.323987
H271	H	0.666939	-0.268794	-0.229519
H272	H	1.166939	0.231206	0.270481
