data_functionalizedCrystal
_audit_creation_method	'MofGen! by Chris Wilmer'
_symmetry_space_group_name_H-M	'P1'
_symmetry_Int_Tables_number	1
_symmetry_cell_setting	triclinic
loop_
_symmetry_equiv_pos_as_xyz
  x,y,z
_cell_length_a	23.532407
_cell_length_b	10.723024
_cell_length_c	9.198806
_cell_angle_alpha	90.002012
_cell_angle_beta	89.993610
_cell_angle_gamma	96.341727
loop_
_atom_site_label
_atom_site_type_symbol
_atom_site_fract_x
_atom_site_fract_y
_atom_site_fract_z
O1	O	0.756242	-0.151465	-0.120971
O2	O	0.590521	-0.173381	-0.120955
O3	O	0.677204	0.019272	-0.120958
O4	O	0.669559	-0.344118	-0.120968
O5	O	0.677197	0.019273	0.120827
O6	O	0.590514	-0.173381	0.120830
O7	O	0.756235	-0.151465	0.120814
Cu8	Cu	0.673374	-0.162423	0.142899
Cu9	Cu	0.673382	-0.162423	-0.143040
O10	O	0.669552	-0.344118	0.120817
C11	C	0.569298	-0.172823	-0.000061
C12	C	0.506070	-0.171145	-0.000055
C13	C	0.676644	0.065755	-0.000067
C14	C	0.674980	0.204257	-0.000072
C15	C	0.777458	-0.152023	-0.000084
C16	C	0.840686	-0.153701	-0.000099
C17	C	1.239118	-0.050217	-0.000046
C18	C	1.298528	-0.051776	-0.000039
O19	O	1.334650	0.044155	0.000015
N20	N	1.321897	-0.166308	-0.000047
C21	C	1.285853	-0.279289	-0.000046
O22	O	1.311186	-0.376851	-0.000050
C23	C	1.226444	-0.277729	-0.000042
C24	C	1.203078	-0.163189	-0.000049
C25	C	1.215751	0.064314	-0.000051
C26	C	1.156345	0.065872	-0.000061
C27	C	1.120305	-0.047100	-0.000064
C28	C	1.143672	-0.161631	-0.000058
C29	C	1.190400	-0.390708	-0.000030
C30	C	1.130988	-0.389138	-0.000025
C31	C	1.107622	-0.274599	-0.000033
C32	C	1.048226	-0.273045	-0.000071
N33	N	1.024856	-0.158513	-0.000063
C34	C	1.060896	-0.045540	-0.000060
C35	C	1.410617	-0.282556	-0.000052
C36	C	1.470025	-0.284118	-0.000066
C37	C	1.482696	-0.056604	-0.000057
C38	C	1.423287	-0.055044	-0.000053
C39	C	1.387247	-0.168024	-0.000044
C40	C	0.936138	-0.042277	-0.000080
C41	C	0.876726	-0.040728	-0.000096
C42	C	0.864060	-0.268242	-0.000097
C43	C	0.923467	-0.269791	-0.000090
C44	C	0.959505	-0.156798	-0.000076
O45	O	1.012069	-0.368925	-0.000119
O46	O	1.035555	0.052005	-0.000037
C47	C	0.670112	-0.390600	-0.000077
C48	C	0.671776	-0.529103	-0.000082
N49	N	0.673372	-0.162421	0.344013
C50	C	0.723483	0.280751	-0.000079
C51	C	0.721764	0.423901	-0.000084
N52	N	0.673388	-0.162414	-0.344154
C53	C	0.709768	-0.081180	0.416209
C54	C	0.709777	-0.081176	0.583621
H55	H	0.857705	0.052547	-0.000105
H56	H	0.642217	-0.231968	0.406142
N57	N	0.751057	0.010953	0.665851
H58	H	0.744053	0.099394	0.639448
H59	H	0.791547	-0.002813	0.639371
N60	N	0.974998	0.079597	-0.000077
H61	H	0.999934	0.084026	-0.089705
H62	H	0.999887	0.083966	0.089614
N63	N	1.131147	0.189411	-0.000055
H64	H	1.163000	0.260732	-0.000045
H65	H	1.106773	0.195014	0.089582
N66	N	1.254618	0.186173	-0.000037
H67	H	1.230791	0.258952	-0.000037
H68	H	1.279546	0.190491	-0.089672
N69	N	0.618282	0.257862	-0.000071
H70	H	0.615356	0.311174	-0.089702
H71	H	0.615386	0.311122	0.089617
N72	N	0.751023	0.010984	0.333929
H73	H	0.745162	-0.002070	0.225998
H74	H	0.791522	-0.002678	0.360412
H75	H	1.101647	-0.481143	-0.000011
H76	H	0.642229	-0.231976	0.593770
H77	H	1.512051	0.035384	-0.000054
N78	N	1.398087	0.068493	-0.000059
H79	H	1.429938	0.139817	-0.000061
H80	H	1.373712	0.074103	0.089578
H81	H	0.942492	-0.363058	-0.000085
H82	H	1.489044	-0.377387	-0.000080
H83	H	1.381276	-0.374564	-0.000055
H84	H	1.209414	-0.483979	-0.000031
N85	N	0.825183	-0.390086	-0.000107
H86	H	0.784004	-0.371708	-0.000107
H87	H	0.832794	-0.440029	0.089530
N88	N	0.776768	0.510954	-0.000101
H89	H	0.810363	0.459916	-0.000102
H90	H	0.778343	0.565624	0.089531
H91	H	0.766281	0.240262	-0.000074
H92	H	0.630251	0.405179	-0.000066
