data_functionalizedCrystal
_audit_creation_method	'MofGen! by Chris Wilmer'
_symmetry_space_group_name_H-M	'P1'
_symmetry_Int_Tables_number	1
_symmetry_cell_setting	triclinic
loop_
_symmetry_equiv_pos_as_xyz
  x,y,z
_cell_length_a	19.851628
_cell_length_b	17.052862
_cell_length_c	17.052862
_cell_angle_alpha	61.493325
_cell_angle_beta	90.004039
_cell_angle_gamma	70.263327
loop_
_atom_site_label
_atom_site_type_symbol
_atom_site_fract_x
_atom_site_fract_y
_atom_site_fract_z
Zr1	Zr	0.780734	0.816609	-0.200356
O2	O	0.706341	0.944510	-0.328494
O3	O	0.787160	0.665887	-0.146164
O4	O	0.823258	0.783686	-0.306972
O5	O	0.660401	0.860639	-0.057800
O6	O	0.934116	0.783675	-0.306956
O7	O	0.670243	0.826711	-0.167686
O8	O	0.869545	0.572954	-0.019301
O9	O	0.724973	1.071361	-0.345455
O10	O	0.892423	0.736325	-0.141055
O11	O	0.802345	0.761653	-0.059060
O12	O	0.844845	0.900347	-0.248390
O13	O	0.754767	0.925675	-0.166395
Zr14	Zr	0.941843	0.870703	-0.025075
Zr15	Zr	0.957541	0.816592	-0.200331
Zr16	Zr	0.765037	0.870720	-0.025100
Zr17	Zr	0.810450	1.018920	-0.227408
Zr18	Zr	0.912127	0.668391	0.001976
O19	O	0.935417	1.021425	-0.079267
O20	O	0.957736	0.944486	-0.328459
O21	O	0.684021	1.021449	-0.079302
O22	O	1.016237	0.742801	0.103063
O23	O	1.038556	0.665862	-0.146129
O24	O	0.764841	0.742826	0.103028
O25	O	1.062176	0.826673	-0.167632
O26	O	0.899319	0.903625	0.081541
O27	O	0.788461	0.903636	0.081525
O28	O	1.052334	0.860601	-0.057745
O29	O	0.865510	1.071347	-0.345436
O30	O	0.857067	0.615965	0.120005
O31	O	0.997605	0.615951	0.120024
O32	O	1.010082	0.572940	-0.019281
O33	O	0.712495	1.114372	-0.206150
O34	O	0.853033	1.114358	-0.206131
O35	O	0.877732	0.786965	0.022959
O36	O	0.967810	0.761637	-0.059037
O37	O	0.920232	0.925659	-0.166372
O38	O	0.830155	0.950987	-0.084376
C39	C	0.824119	0.590595	-0.078878
C40	C	0.811503	0.504709	-0.067394
C41	C	0.640131	0.843677	-0.112746
C42	C	0.565072	0.843685	-0.112757
C43	C	0.964021	0.209730	-0.206238
C44	C	0.975872	0.290427	-0.217034
C45	C	0.934781	0.344001	-0.179624
C46	C	0.881837	0.316871	-0.131418
C47	C	0.869980	0.236170	-0.120627
C48	C	0.840741	0.370441	-0.094014
C49	C	0.787796	0.343310	-0.045807
C50	C	0.775942	0.262617	-0.035017
C51	C	0.817033	0.209043	-0.072427
C52	C	0.852597	0.451142	-0.104805
C53	C	0.758556	0.477582	-0.019194
C54	C	0.746705	0.396884	-0.008398
C55	C	0.357780	0.933100	-0.171250
C56	C	0.330741	0.871490	-0.196752
C57	C	0.427659	0.843664	-0.112729
C58	C	0.320960	0.905276	-0.087243
C59	C	0.294922	0.843651	-0.112705
C60	C	0.401613	0.782039	-0.138277
C61	C	0.391828	0.815853	-0.028727
C62	C	0.364829	0.754173	-0.054200
C63	C	0.504125	0.843673	-0.112746
C64	C	0.218460	0.843633	-0.112688
C65	C	1.082446	0.843634	-0.112685
C66	C	1.157505	0.843627	-0.112675
C67	C	0.880924	0.775971	-0.331934
C68	C	0.887588	0.753000	-0.406335
C69	C	0.898459	1.096716	-0.146553
C70	C	0.911074	1.182603	-0.158037
C71	C	0.807021	1.030726	-0.840175
C72	C	0.800756	1.052312	-0.770274
C73	C	0.822463	0.977486	-0.679287
C74	C	0.850437	0.881070	-0.658206
C75	C	0.856698	0.859482	-0.728114
C76	C	0.872140	0.806242	-0.567225
C77	C	0.900114	0.709826	-0.546145
C78	C	0.906374	0.688242	-0.616047
C79	C	0.884666	0.763068	-0.707035
C80	C	0.865879	0.827830	-0.497317
C81	C	0.915556	0.656586	-0.385256
C82	C	0.921821	0.635000	-0.455157
C83	C	0.841654	0.911340	0.106503
C84	C	0.834990	0.934312	0.180904
C85	C	1.045276	0.590574	-0.078847
C86	C	1.107720	0.504680	-0.067353
C87	C	0.804484	0.658280	0.140341
C88	C	0.785204	0.595365	0.226226
C89	C	1.025641	0.658258	0.140371
C90	C	1.081421	0.595336	0.226267
C91	C	0.696936	1.029053	-0.365803
C92	C	0.641156	1.091976	-0.451698
C93	C	0.677301	1.096738	-0.146584
C94	C	0.614857	1.182632	-0.158078
C95	C	0.918094	1.029032	-0.365772
C96	C	0.937373	1.091947	-0.451657
C97	C	1.097694	0.451128	-0.104775
C98	C	1.156363	0.370428	-0.093992
C99	C	1.225056	0.343277	-0.045782
C100	C	1.235082	0.396837	-0.008360
C101	C	1.176415	0.477540	-0.019148
C102	C	0.815501	0.579034	0.309378
C103	C	0.797385	0.519932	0.390082
C104	C	0.748975	0.477156	0.387631
C105	C	0.718674	0.493492	0.304469
C106	C	0.736787	0.552599	0.223767
C107	C	1.154643	0.552566	0.223803
C108	C	1.207063	0.493453	0.304503
C109	C	1.186259	0.477106	0.387666
C110	C	1.113030	0.519883	0.390127
C111	C	1.060612	0.579000	0.309427
C112	C	0.567936	1.134755	-0.449236
C113	C	0.515519	1.193893	-0.529939
C114	C	0.536324	1.210245	-0.613102
C115	C	0.609552	1.167462	-0.615562
C116	C	0.661968	1.108331	-0.534861
C117	C	0.624885	1.236189	-0.120665
C118	C	0.566221	1.316906	-0.131469
C119	C	0.497529	1.344059	-0.179683
C120	C	0.487502	1.290496	-0.217101
C121	C	0.546166	1.209786	-0.206302
C122	C	0.985785	1.134705	-0.449177
C123	C	1.003914	1.193812	-0.529867
C124	C	0.973625	1.210164	-0.613037
C125	C	0.925211	1.167399	-0.615514
C126	C	0.907087	1.108288	-0.534825
H127	H	0.944434	0.409708	-0.188418
H128	H	0.355542	1.008705	-0.220790
C129	C	1.009211	0.150803	-0.247385
H130	H	0.994568	0.098857	-0.234050
H131	H	1.001437	0.191350	-0.311452
H132	H	1.059514	0.125832	-0.222024
H133	H	0.367215	0.678480	-0.004703
C134	C	0.815605	1.001229	-0.602397
H135	H	0.795851	1.069367	-0.627982
H136	H	0.784302	0.974496	-0.565866
H137	H	0.862450	0.974487	-0.565913
H138	H	0.734232	0.429030	0.453351
H139	H	0.789346	1.091639	-0.914258
C140	C	0.830722	0.501965	0.481550
H141	H	0.812998	0.460648	0.529267
H142	H	0.882364	0.472368	0.491894
H143	H	0.817356	0.561804	0.479920
C144	C	0.545042	1.116781	-0.357766
H145	H	0.586739	1.075433	-0.310046
H146	H	0.523704	1.176611	-0.359385
H147	H	0.510560	1.087198	-0.347430
H148	H	0.933229	0.595656	-0.311170
C149	C	0.703461	0.570548	0.132306
H150	H	0.672043	0.536597	0.142414
H151	H	0.676385	0.637768	0.093050
H152	H	0.741399	0.548332	0.105035
C153	C	0.478663	1.275284	-0.701868
H154	H	0.501536	1.278904	-0.751755
H155	H	0.442873	1.248833	-0.698331
H156	H	0.456013	1.338250	-0.710286
H157	H	0.304179	0.894996	-0.267781
H158	H	0.944597	0.556497	-0.438005
H159	H	1.018979	0.312515	-0.256284
H160	H	1.041767	0.473229	-0.144043
H161	H	0.418394	0.792380	0.042283
H162	H	0.854919	0.613858	0.311391
H163	H	0.449766	1.409781	-0.188470
H164	H	0.679257	0.458656	0.302487
H165	H	0.867663	1.073479	-0.536857
H166	H	1.096101	0.506564	0.457849
C167	C	0.273908	0.975661	-0.058121
H168	H	0.270853	1.039175	-0.099770
H169	H	0.226332	0.974728	-0.057774
H170	H	0.295527	0.956512	0.001145
H171	H	0.843101	0.906333	-0.514490
C172	C	0.980069	0.626036	0.312144
H173	H	0.951824	0.663593	0.252176
H174	H	0.962784	0.577062	0.348945
H175	H	0.975909	0.666490	0.336981
H176	H	1.010453	1.121403	-0.381464
H177	H	1.171596	0.565865	0.156096
C178	C	1.289581	0.254497	-0.033912
H179	H	1.273763	0.226491	-0.063098
H180	H	1.327430	0.273855	-0.060361
H181	H	1.307348	0.208361	0.029055
C182	C	0.688483	0.367022	0.044649
H183	H	0.665715	0.410471	0.065399
H184	H	0.652861	0.368829	0.005949
H185	H	0.710967	0.303334	0.095350
H186	H	0.431565	1.312617	-0.256357
C187	C	1.287605	0.446398	0.301781
H188	H	1.292480	0.464590	0.240695
H189	H	1.316582	0.467492	0.325494
H190	H	1.303438	0.378072	0.337465
H191	H	0.455897	1.228718	-0.527918
C192	C	0.769990	1.158359	-0.793462
H193	H	0.757964	1.199831	-0.857660
H194	H	0.727444	1.170342	-0.768525
H195	H	0.805590	1.170337	-0.768518
H196	H	1.228948	0.428967	0.453370
C197	C	0.700440	1.206336	-0.067627
H198	H	0.698002	1.249806	-0.046904
H199	H	0.714928	1.142655	-0.016924
H200	H	0.735001	1.208152	-0.106345
C201	C	0.632426	1.185447	-0.707044
H202	H	0.590716	1.226781	-0.754746
H203	H	0.666905	1.215031	-0.717398
H204	H	0.653758	1.125614	-0.705430
C205	C	0.742506	1.061266	-0.537579
H206	H	0.747381	1.079469	-0.598667
H207	H	0.771488	1.082344	-0.513853
H208	H	0.758331	0.992941	-0.501907
C209	C	0.535124	1.150870	-0.247447
H210	H	0.485808	1.178601	-0.277697
H211	H	0.566405	1.151572	-0.289724
H212	H	0.546330	1.086089	-0.200298
C213	C	0.804010	0.120258	-0.060526
H214	H	0.766599	0.111764	-0.026450
H215	H	0.789663	0.129843	-0.118593
H216	H	0.847742	0.064377	-0.029167
C217	C	0.577261	1.375803	-0.090295
H218	H	0.626571	1.348056	-0.060022
H219	H	0.566056	1.440586	-0.137425
H220	H	0.545971	1.375083	-0.048018
H221	H	1.043334	1.228628	-0.527832
H222	H	0.889768	0.745498	-0.763959
C223	C	0.993561	1.275195	-0.701789
H224	H	1.026727	1.298323	-0.688393
H225	H	1.015632	1.238988	-0.729883
H226	H	0.950619	1.328410	-0.741839
C227	C	1.145319	0.311518	-0.135149
H228	H	1.096002	0.339241	-0.165390
H229	H	1.176595	0.312235	-0.177434
H230	H	1.156536	0.246732	-0.088004
H231	H	0.900554	1.180722	-0.683242
H232	H	0.895705	0.473224	-0.144055
H233	H	1.291020	0.374718	0.030893
H234	H	0.732825	0.240536	0.004228
H235	H	0.725095	0.521204	0.011265
H236	H	0.436362	0.729958	-0.159903
H237	H	0.929145	0.609733	-0.598877
H238	H	1.184588	0.521134	0.011332
