data_functionalizedCrystal
_audit_creation_method	'MofGen! by Chris Wilmer'
_symmetry_space_group_name_H-M	'P1'
_symmetry_Int_Tables_number	1
_symmetry_cell_setting	triclinic
loop_
_symmetry_equiv_pos_as_xyz
  x,y,z
_cell_length_a	13.339070
_cell_length_b	8.559649
_cell_length_c	7.088929
_cell_angle_alpha	84.674985
_cell_angle_beta	82.086468
_cell_angle_gamma	87.296021
loop_
_atom_site_label
_atom_site_type_symbol
_atom_site_fract_x
_atom_site_fract_y
_atom_site_fract_z
O1	O	-0.021893	-2.094022	-0.158958
O2	O	0.028612	-1.651208	-0.158966
O3	O	-0.139956	-1.821795	-0.158957
O4	O	0.146675	-1.923436	-0.158966
O5	O	-0.162529	-1.844572	0.159019
O6	O	0.006039	-1.673985	0.159011
O7	O	-0.044466	-2.116799	0.159019
Cu8	Cu	-0.021275	-1.897472	0.188048
Cu9	Cu	0.005420	-1.870536	-0.187995
O10	O	0.124102	-1.946213	0.159010
C11	C	0.021153	-1.604764	0.000021
C12	C	0.032546	-1.432434	0.000018
C13	C	-0.187598	-1.816014	0.000028
C14	C	-0.295923	-1.764836	0.000020
C15	C	-0.037007	-2.163243	0.000027
C16	C	-0.048399	-2.335572	0.000018
C17	C	-0.691632	-2.162764	0.000028
C18	C	-0.589856	-2.210854	0.000047
C19	C	-0.516368	-2.099354	0.000039
C20	C	-0.544665	-1.939755	0.000014
C21	C	-0.646451	-1.891662	0.000011
C22	C	-0.471188	-1.828251	0.000022
C23	C	-0.499485	-1.668653	-0.000003
C24	C	-0.601262	-1.620567	-0.000008
C25	C	-0.674750	-1.732068	-0.000001
C26	C	-0.369402	-1.876345	0.000026
C27	C	-0.324221	-1.605242	0.000008
C28	C	-0.425997	-1.557152	-0.000011
C29	C	0.171744	-1.951993	0.000020
C30	C	0.280070	-2.003170	0.000017
N31	N	-0.040052	-1.916429	0.452537
N32	N	0.024189	-1.851588	-0.452484
H33	H	-0.346373	-2.006290	0.000047
H34	H	-0.566825	-2.340799	0.000070
O35	O	-0.151745	-1.400354	0.000039
H36	H	-0.183929	-1.349976	-0.129566
O37	O	0.135899	-1.367664	0.000029
H38	H	0.128933	-1.237935	0.000043
O39	O	0.112361	-1.762527	0.439381
H40	H	0.110793	-1.764068	0.283425
O41	O	-0.128242	-2.005462	0.560680
H42	H	-0.126688	-2.003896	0.716637
H43	H	-0.751474	-2.253532	0.000050
O44	O	-0.406593	-2.151209	0.000042
H45	H	-0.399260	-2.280916	0.000042
H46	H	-0.624297	-1.490613	-0.000014
H47	H	-0.449051	-1.427204	-0.000030
O48	O	-0.784529	-1.680206	0.000004
H49	H	-0.811917	-1.716772	-0.129590
O50	O	-0.244972	-1.484960	-0.000007
H51	H	-0.169442	-1.545212	-0.000022
