data_functionalizedCrystal
_audit_creation_method	'MofGen! by Chris Wilmer'
_symmetry_space_group_name_H-M	'P1'
_symmetry_Int_Tables_number	1
_symmetry_cell_setting	triclinic
loop_
_symmetry_equiv_pos_as_xyz
  x,y,z
_cell_length_a	15.297327
_cell_length_b	15.297476
_cell_length_c	15.296720
_cell_angle_alpha	91.616508
_cell_angle_beta	107.319222
_cell_angle_gamma	91.626159
loop_
_atom_site_label
_atom_site_type_symbol
_atom_site_fract_x
_atom_site_fract_y
_atom_site_fract_z
Zn1	Zn	-0.695072	1.116342	-0.823132
Zn2	Zn	-0.823673	1.116246	-0.694506
Zn3	Zn	-0.644900	1.005113	-0.644404
Zn4	Zn	-0.814896	0.946204	-0.814414
O5	O	-0.744635	1.045976	-0.744114
O6	O	-0.736801	1.234042	-0.830685
O7	O	-0.782635	1.126118	-0.562880
O8	O	-0.526591	1.044561	-0.650793
O9	O	-0.831284	1.233972	-0.736184
O10	O	-0.563452	1.126281	-0.782104
O11	O	-0.651291	1.044469	-0.526070
O12	O	-0.642780	0.879585	-0.642340
O13	O	-0.816324	0.944159	-0.940550
O14	O	-0.767675	0.836305	-0.767245
O15	O	-0.728290	1.069159	-0.946955
O16	O	-0.947473	1.068996	-0.727731
O17	O	-0.941024	0.944066	-0.815827
C18	C	-0.698831	0.827423	-0.698411
C19	C	-0.679260	0.733917	-0.678883
C20	C	-0.604954	0.712501	-0.604750
C21	C	-0.586564	0.624648	-0.586400
C22	C	-0.642474	0.558202	-0.642186
C23	C	-0.716779	0.579617	-0.716324
C24	C	-0.735175	0.667479	-0.734671
C25	C	-0.772696	0.513180	-0.772107
C26	C	-0.847000	0.534595	-0.846245
C27	C	-0.865392	0.622448	-0.864589
C28	C	-0.809482	0.688894	-0.808804
C29	C	-0.754299	0.425318	-0.753760
C30	C	-0.884521	0.380296	-0.883681
C31	C	-0.902911	0.468149	-0.902031
C32	C	-0.976658	1.000147	-0.776294
C33	C	-1.075938	0.980613	-0.790107
C34	C	-1.369159	1.185880	-0.645769
C35	C	-1.275879	1.204235	-0.632786
C36	C	-1.225890	1.148331	-0.672115
C37	C	-1.269189	1.074069	-0.724429
C38	C	-1.362476	1.055709	-0.737407
C39	C	-1.219206	1.018160	-0.763754
C40	C	-1.262505	0.943898	-0.816067
C41	C	-1.355784	0.925542	-0.829043
C42	C	-1.405773	0.981446	-0.789714
C43	C	-1.125919	1.036520	-0.750776
C44	C	-1.119236	0.906349	-0.842414
C45	C	-1.212516	0.887995	-0.855396
C46	C	-0.511714	1.092003	-0.711832
C47	C	-0.412457	1.111617	-0.698076
C48	C	-0.776925	1.000098	-0.977065
C49	C	-0.790685	0.980548	-1.076335
C50	C	-0.790619	1.265382	-0.789996
C51	C	-0.810214	1.358880	-0.809548
C52	C	-0.646141	1.185768	-1.369501
C53	C	-0.633215	1.204141	-1.276233
C54	C	-0.672581	1.148244	-1.226254
C55	C	-0.724875	1.073971	-1.269552
C56	C	-0.737808	1.055599	-1.362830
C57	C	-0.764249	1.018076	-1.219583
C58	C	-0.816543	0.943803	-1.262881
C59	C	-0.829473	0.925434	-1.356150
C60	C	-0.790107	0.981331	-1.406129
C61	C	-0.751316	1.036448	-1.126305
C62	C	-0.842983	0.906280	-1.119634
C63	C	-0.855909	0.887906	-1.212901
C64	C	-0.712417	1.091736	-0.512070
C65	C	-0.698439	1.111499	-0.412800
H66	H	-0.693798	0.407891	-0.693398
H67	H	-0.614101	1.231274	-1.410204
O68	O	-0.550727	0.777015	-0.550442
C69	C	-0.491693	0.842350	-0.398144
C70	C	-0.553152	0.769254	-0.459556
H71	H	-0.493618	0.836089	-0.324647
H72	H	-0.517609	0.908842	-0.423919
H73	H	-0.418293	0.836197	-0.400398
H74	H	-0.626567	0.775324	-0.457330
H75	H	-0.527160	0.702791	-0.433761
H76	H	-0.963410	0.485598	-0.962394
H77	H	-0.872063	0.864961	-1.391402
H78	H	-0.627496	0.486669	-0.627242
O79	O	-0.514513	0.603824	-0.514277
C80	C	-0.464889	0.530772	-0.371291
C81	C	-0.546565	0.554296	-0.452929
H82	H	-0.490771	0.490709	-0.321679
H83	H	-0.428116	0.593339	-0.334510
H84	H	-0.415300	0.490799	-0.397283
H85	H	-0.596218	0.594245	-0.427013
H86	H	-0.583266	0.491695	-0.489694
H87	H	-0.824450	0.760434	-0.823741
H88	H	-0.800628	0.966375	-1.482076
H89	H	-1.078534	0.860826	-0.874437
H90	H	-0.898487	0.827432	-1.248167
H91	H	-1.481730	0.966508	-0.800284
H92	H	-0.875040	0.860765	-1.078941
H93	H	-1.090673	1.096984	-0.708181
O94	O	-0.937588	0.643101	-0.936662
C95	C	-1.064843	0.589170	-1.063554
C96	C	-0.983099	0.565661	-0.981977
H97	H	-1.101673	0.526575	-1.100203
H98	H	-1.039061	0.629143	-1.113298
H99	H	-1.114352	0.629208	-1.037510
H100	H	-0.933558	0.525594	-1.007938
H101	H	-1.008948	0.525731	-0.932249
O102	O	-0.938722	0.315651	-0.937811
C103	C	-0.968124	0.160346	-0.967091
C104	C	-0.906660	0.233474	-0.905738
H105	H	-0.942237	0.093890	-0.941172
H106	H	-0.966151	0.166457	-1.040592
H107	H	-1.041536	0.166562	-0.964896
H108	H	-0.833221	0.227304	-0.907855
H109	H	-0.908711	0.227341	-0.832266
H110	H	-1.149937	1.163279	-0.661541
H111	H	-1.240629	1.264697	-0.590192
H112	H	-1.409867	1.231385	-0.613746
H113	H	-1.391031	0.865066	-0.871628
H114	H	-1.247783	0.827530	-0.897990
H115	H	-0.708736	1.096921	-1.091061
H116	H	-0.662054	1.163209	-1.150312
H117	H	-0.590640	1.264616	-1.240988
