data_functionalizedCrystal
_audit_creation_method	'MofGen! by Chris Wilmer'
_symmetry_space_group_name_H-M	'P1'
_symmetry_Int_Tables_number	1
_symmetry_cell_setting	triclinic
loop_
_symmetry_equiv_pos_as_xyz
  x,y,z
_cell_length_a	19.288864
_cell_length_b	15.995350
_cell_length_c	17.766277
_cell_angle_alpha	89.995869
_cell_angle_beta	89.976791
_cell_angle_gamma	83.314311
loop_
_atom_site_label
_atom_site_type_symbol
_atom_site_fract_x
_atom_site_fract_y
_atom_site_fract_z
O1	O	0.921624	0.104452	-0.062832
O2	O	1.421624	0.604452	0.437168
O3	O	0.719400	0.118542	-0.062780
O4	O	1.219400	0.618542	0.437220
O5	O	0.826040	-0.010412	-0.062807
O6	O	1.326040	0.489588	0.437193
O7	O	0.814984	0.233405	-0.062805
O8	O	1.314984	0.733405	0.437195
O9	O	0.826021	-0.010418	0.062382
O10	O	1.326021	0.489582	0.562382
O11	O	0.719381	0.118535	0.062408
O12	O	1.219381	0.618535	0.562408
O13	O	0.921605	0.104445	0.062357
O14	O	1.421605	0.604445	0.562357
Cu15	Cu	0.820492	0.111490	0.073813
Cu16	Cu	1.320492	0.611490	0.573813
Cu17	Cu	0.820514	0.111497	-0.074237
Cu18	Cu	1.320514	0.611497	0.425763
O19	O	0.814965	0.233399	0.062383
O20	O	1.314965	0.733399	0.562383
C21	C	0.693513	0.118085	-0.000179
C22	C	1.193513	0.618085	0.499821
C23	C	0.616406	0.116724	-0.000159
C24	C	1.116406	0.616724	0.499841
C25	C	0.571906	0.192388	-0.000171
C26	C	1.071906	0.692388	0.499829
C27	C	0.499456	0.191110	-0.000179
C28	C	0.999456	0.691110	0.499821
C29	C	0.471508	0.114163	-0.000191
C30	C	0.971508	0.614163	0.499809
C31	C	0.516018	0.038489	-0.000176
C32	C	1.016018	0.538489	0.499824
C33	C	0.588467	0.039769	-0.000160
C34	C	1.088467	0.539769	0.499840
C35	C	0.363096	0.053676	-0.044076
C36	C	0.863096	0.553676	0.455924
C37	C	0.290648	0.052398	-0.044097
C38	C	0.790648	0.552398	0.455903
C39	C	0.248053	0.110209	-0.000237
C40	C	0.748053	0.610209	0.499763
C41	C	0.277912	0.169312	0.043634
C42	C	0.777912	0.669312	0.543634
C43	C	0.350361	0.170593	0.043650
C44	C	0.850361	0.670593	0.543650
C45	C	0.392951	0.112765	-0.000208
C46	C	0.892951	0.612765	0.499792
C47	C	0.124993	0.184492	-0.000256
C48	C	0.624993	0.684492	0.499744
C49	C	0.052542	0.183210	-0.000260
C50	C	0.552542	0.683210	0.499740
C51	C	0.069106	0.030587	-0.000264
C52	C	0.569106	0.530587	0.499736
C53	C	0.141556	0.031871	-0.000253
C54	C	0.641556	0.531871	0.499747
C55	C	0.169495	0.108826	-0.000252
C56	C	0.669495	0.608826	0.499748
C57	C	0.825574	-0.041608	-0.000214
C58	C	1.325574	0.458392	0.499786
C59	C	0.824203	-0.134553	-0.000218
C60	C	1.324203	0.365447	0.499782
C61	C	0.819282	-0.472282	-0.000214
C62	C	1.319282	0.027718	0.499786
C63	C	0.743335	-0.424562	-0.000475
C64	C	1.243335	0.075438	0.499525
C65	C	0.744706	-0.327877	-0.000193
C66	C	1.244706	0.172123	0.499807
C67	C	0.821723	-0.304731	-0.000216
C68	C	1.321723	0.195269	0.499784
C69	C	0.859172	-0.345953	0.071262
C70	C	1.359172	0.154047	0.571262
C71	C	0.857264	-0.442582	0.071322
C72	C	1.357264	0.057418	0.571322
C73	C	0.858855	-0.442939	-0.071041
C74	C	1.358855	0.057061	0.428959
C75	C	0.858837	-0.345993	-0.071986
C76	C	1.358837	0.154007	0.428014
C77	C	0.823107	-0.210039	-0.000215
C78	C	1.323107	0.289961	0.499785
C79	C	0.817901	-0.566975	-0.000210
C80	C	1.317901	-0.066975	0.499790
C81	C	0.947492	0.104902	-0.000246
C82	C	1.447492	0.604902	0.499754
C83	C	1.024600	0.106263	-0.000271
C84	C	1.524600	0.606263	0.499729
C85	C	0.815432	0.264595	-0.000211
C86	C	1.315432	0.764595	0.499789
C87	C	0.816802	0.357540	-0.000212
C88	C	1.316802	0.857540	0.499788
N89	N	0.820481	0.111484	0.177944
N90	N	1.320481	0.611484	0.677944
N91	N	0.820530	0.111497	-0.178367
N92	N	1.320530	0.611497	0.321633
C93	C	0.867717	0.054411	0.217319
C94	C	1.367717	0.554411	0.717319
C95	C	0.867721	0.054407	0.296120
C96	C	1.367721	0.554407	0.796120
C97	C	0.820496	0.111490	0.335544
C98	C	1.320496	0.611490	0.835544
C99	C	0.773251	0.168567	0.296160
C100	C	1.273251	0.668567	0.796160
C101	C	0.773244	0.168564	0.217359
C102	C	1.273244	0.668564	0.717359
C103	C	0.811395	0.187781	0.460384
C104	C	1.311395	0.687781	0.960384
C105	C	0.811407	0.187785	0.539183
C106	C	1.311407	0.687785	1.039183
C107	C	0.820514	0.111500	0.578590
C108	C	1.320514	0.611500	1.078590
C109	C	0.829624	0.035208	0.539190
C110	C	1.329624	0.535208	1.039190
C111	C	0.829617	0.035204	0.460389
C112	C	1.329617	0.535204	0.960389
C113	C	0.820498	0.111500	0.420990
C114	C	1.320498	0.611500	0.920990
C115	C	0.867757	0.054419	0.703411
C116	C	1.367757	0.554419	1.203411
C117	C	0.867756	0.054414	0.782215
C118	C	1.367756	0.554414	1.282215
C119	C	0.773290	0.168581	0.782252
C120	C	1.273290	0.668581	1.282252
C121	C	0.773288	0.168579	0.703451
C122	C	1.273288	0.668579	1.203451
C123	C	0.820525	0.111499	0.664035
C124	C	1.320525	0.611499	1.164035
H125	H	0.624700	-0.021848	-0.000151
H126	H	1.124700	0.478152	0.499849
N127	N	0.927214	-0.483294	0.075380
N128	N	1.427214	0.016706	0.575380
N129	N	0.977283	-0.440315	0.078164
N130	N	1.477283	0.059685	0.578164
H131	H	1.026684	-0.469064	0.081036
H132	H	1.526684	0.030936	0.581036
N133	N	0.725051	0.226904	0.822501
N134	N	1.225051	0.726904	1.322501
N135	N	0.682884	0.277866	0.787330
N136	N	1.182884	0.777866	1.287330
H137	H	0.648812	0.319058	0.815758
H138	H	1.148812	0.819058	1.315758
N139	N	0.826536	-0.310243	0.138020
N140	N	1.326536	0.189757	0.638020
N141	N	0.861107	-0.273242	0.184267
N142	N	1.361107	0.226758	0.684267
H143	H	0.838054	-0.248023	0.231415
H144	H	1.338054	0.251977	0.731415
N145	N	0.915975	-0.003902	0.336341
N146	N	1.415975	0.496098	0.836341
N147	N	0.958143	-0.054863	0.301139
N148	N	1.458143	0.445137	0.801139
H149	H	0.992224	-0.096045	0.329542
H150	H	1.492224	0.403955	0.829542
H151	H	0.834032	-0.463382	-0.125218
H152	H	1.334032	0.036618	0.374782
H153	H	0.734778	0.215040	0.185299
H154	H	1.234778	0.715040	0.685299
H155	H	0.266342	0.004277	-0.079822
H156	H	0.766342	0.504277	0.420178
N157	N	0.838927	-0.042720	0.420142
N158	N	1.338927	0.457280	0.920142
N159	N	0.893454	-0.092166	0.428911
N160	N	1.393454	0.407834	0.928911
H161	H	0.900028	-0.147202	0.400486
H162	H	1.400028	0.352798	0.900486
N163	N	0.838929	-0.042727	0.579426
N164	N	1.338929	0.457273	1.079426
N165	N	0.893453	-0.092176	0.570609
N166	N	1.393453	0.407824	1.070609
H167	H	0.900025	-0.147215	0.599030
H168	H	1.400025	0.352785	1.099030
N169	N	0.153526	0.263103	-0.000251
N170	N	0.653526	0.763103	0.499749
N171	N	0.113782	0.330657	-0.000252
N172	N	0.613782	0.830657	0.499748
H173	H	0.133931	0.386177	-0.000248
H174	H	0.633931	0.886177	0.499752
H175	H	0.831457	-0.318638	-0.124863
H176	H	1.331457	0.181362	0.375137
H177	H	0.734827	0.215056	0.671389
H178	H	1.234827	0.715056	1.171389
H179	H	0.016310	0.244828	-0.000265
H180	H	0.516310	0.744828	0.499735
N181	N	0.930154	-0.328501	0.074569
N182	N	1.430154	0.171499	0.574569
N183	N	0.953989	-0.285382	0.024163
N184	N	1.453989	0.214618	0.524163
H185	H	1.004121	-0.273055	0.026496
H186	H	1.504121	0.226945	0.526496
H187	H	0.397772	0.006598	-0.079796
H188	H	0.897772	0.506598	0.420204
H189	H	0.046352	-0.032065	-0.000320
H190	H	0.546352	0.467935	0.499680
N191	N	0.802095	0.265722	0.579411
N192	N	1.302095	0.765722	1.079411
N193	N	0.747563	0.315158	0.570631
N194	N	1.247563	0.815158	1.070631
H195	H	0.740985	0.370204	0.599038
H196	H	1.240985	0.870204	1.099038
H197	H	0.493259	-0.024162	-0.000196
H198	H	0.993259	0.475838	0.499804
H199	H	0.715268	-0.299341	-0.051431
H200	H	1.215268	0.200659	0.448569
H201	H	0.803967	0.249906	0.428305
H202	H	1.303967	0.749906	0.928305
N203	N	0.600433	0.271000	-0.000173
N204	N	1.100433	0.771000	0.499827
N205	N	0.560686	0.338554	-0.000184
N206	N	1.060686	0.838554	0.499816
H207	H	0.580834	0.394075	-0.000186
H208	H	1.080834	0.894075	0.499814
N209	N	0.725013	0.226866	0.336438
N210	N	1.225013	0.726866	0.836438
N211	N	0.725025	0.226862	0.406794
N212	N	1.225025	0.726862	0.906794
H213	H	0.690953	0.268034	0.435241
H214	H	1.190953	0.768034	0.935241
N215	N	0.705271	-0.447660	-0.064784
N216	N	1.205271	0.052340	0.435216
N217	N	0.733669	-0.499565	-0.111173
N218	N	1.233669	0.000435	0.388827
H219	H	0.706787	-0.515881	-0.156595
H220	H	1.206787	-0.015881	0.343405
H221	H	0.463217	0.252727	-0.000186
H222	H	0.963217	0.752727	0.499814
H223	H	0.374670	0.218713	0.079373
H224	H	0.874670	0.718713	0.579373
N225	N	0.234399	0.228384	0.088413
N226	N	0.734399	0.728384	0.588413
N227	N	0.169713	0.227244	0.088386
N228	N	0.669713	0.727244	0.588386
H229	H	0.138978	0.268970	0.120002
H230	H	0.638978	0.768970	0.620002
H231	H	0.715054	-0.299903	0.051147
H232	H	1.215054	0.200097	0.551147
H233	H	0.177789	-0.029743	-0.000247
H234	H	0.677789	0.470257	0.499753
H235	H	0.713107	-0.444044	0.050512
H236	H	1.213107	0.055956	0.550512
H237	H	0.915002	-0.330843	-0.076319
H238	H	1.415002	0.169157	0.423681
N239	N	0.822986	-0.465408	0.138372
N240	N	1.322986	0.034592	0.638372
N241	N	0.800635	-0.410001	0.184796
N242	N	1.300635	0.089999	0.684796
H243	H	0.776424	-0.426117	0.232152
H244	H	1.276424	0.073883	0.732152
N245	N	0.929102	-0.483039	-0.071651
N246	N	1.429102	0.016961	0.428349
N247	N	0.950012	-0.533024	-0.020205
N248	N	1.450012	-0.033024	0.479795
H249	H	0.999624	-0.561345	-0.020627
H250	H	1.499624	-0.061345	0.479373
N251	N	0.916029	-0.003829	0.177070
N252	N	1.416029	0.496171	0.677070
N253	N	0.958240	-0.054737	0.212242
N254	N	1.458240	0.445263	0.712242
H255	H	0.992384	-0.095844	0.183815
H256	H	1.492384	0.404156	0.683815
N257	N	0.915923	-0.003994	0.663155
N258	N	1.415923	0.496006	1.163155
N259	N	0.958034	-0.055025	0.698326
N260	N	1.458034	0.444975	1.198326
H261	H	0.992019	-0.096320	0.669898
H262	H	1.492019	0.403680	1.169898
H263	H	0.906219	0.007934	0.814274
H264	H	1.406219	0.507934	1.314274
