data_functionalizedCrystal
_audit_creation_method	'MofGen! by Chris Wilmer'
_symmetry_space_group_name_H-M	'P1'
_symmetry_Int_Tables_number	1
_symmetry_cell_setting	triclinic
loop_
_symmetry_equiv_pos_as_xyz
  x,y,z
_cell_length_a	12.827893
_cell_length_b	12.594516
_cell_length_c	12.827885
_cell_angle_alpha	89.971946
_cell_angle_beta	89.980728
_cell_angle_gamma	90.016023
loop_
_atom_site_label
_atom_site_type_symbol
_atom_site_fract_x
_atom_site_fract_y
_atom_site_fract_z
Zn1	Zn	1.597665	-0.423691	-0.590861
Zn2	Zn	1.597557	-0.601707	-0.416127
Zn3	Zn	1.422906	-0.423743	-0.416135
Zn4	Zn	1.422889	-0.601628	-0.590827
O5	O	1.510254	-0.512693	-0.503487
O6	O	1.743887	-0.447317	-0.567693
O7	O	1.574351	-0.578155	-0.269892
O8	O	1.446140	-0.274791	-0.439330
O9	O	1.743807	-0.578105	-0.439317
O10	O	1.574535	-0.274752	-0.567701
O11	O	1.446036	-0.447405	-0.269898
O12	O	1.276668	-0.447329	-0.439297
O13	O	1.446112	-0.577970	-0.737067
O14	O	1.276656	-0.578020	-0.567642
O15	O	1.574519	-0.447240	-0.737093
O16	O	1.574335	-0.750643	-0.439283
O17	O	1.446007	-0.750584	-0.567635
C18	C	1.238744	-0.512672	-0.503468
C19	C	1.122591	-0.512689	-0.503484
C20	C	1.070828	-0.577460	-0.566895
C21	C	0.950778	-0.577479	-0.566914
C22	C	1.510186	-0.789234	-0.503477
C23	C	1.510252	-0.907539	-0.503508
C24	C	1.440448	-0.976799	-0.573269
C25	C	1.414986	-1.047668	-0.477914
C26	C	1.535809	-1.047469	-0.598879
C27	C	1.484740	-0.976849	-0.408102
C28	C	1.605607	-0.976645	-0.529132
C29	C	1.580182	-1.047481	-0.433711
C30	C	1.782824	-0.512714	-0.503508
C31	C	1.898978	-0.512723	-0.503517
C32	C	1.510325	-0.512590	-0.776058
C33	C	1.510356	-0.512547	-0.892211
C34	C	1.510352	-0.235072	-0.503521
C35	C	1.510393	-0.116766	-0.503535
C36	C	1.573902	-0.447845	-0.944008
C37	C	1.573935	-0.447799	-1.064059
C38	C	1.510244	-0.512718	-0.231978
C39	C	1.510416	-0.512461	-0.115825
H40	H	0.943486	-0.457271	-0.449221
C41	C	1.564980	-1.089324	-0.707826
H42	H	1.626683	-1.130753	-0.703162
H43	H	1.576491	-1.031110	-0.753519
H44	H	1.509768	-1.131931	-0.734007
H45	H	0.906263	-0.632935	-0.621199
H46	H	1.628279	-0.392482	-0.899477
C47	C	1.647438	-0.372968	-1.124226
H48	H	1.637815	-0.382750	-1.197020
H49	H	1.717656	-0.388542	-1.106389
H50	H	1.632176	-0.301437	-1.106400
H51	H	1.078031	-0.457246	-0.449213
C52	C	1.360566	-0.934860	-0.652846
H53	H	1.292896	-0.959183	-0.634474
H54	H	1.378006	-0.960078	-0.720414
H55	H	1.361503	-0.859437	-0.652724
H56	H	1.686164	-0.945428	-0.550829
C57	C	1.306136	-1.089816	-0.448642
H58	H	1.256568	-1.065622	-0.498265
H59	H	1.287549	-1.064597	-0.381380
H60	H	1.307135	-1.165238	-0.448246
C61	C	1.455478	-0.935125	-0.299132
H62	H	1.455568	-0.859695	-0.299798
H63	H	1.504798	-0.959889	-0.249545
H64	H	1.387995	-0.960035	-0.280838
C65	C	1.660005	-1.089156	-0.353944
H66	H	1.641729	-1.064846	-0.286266
H67	H	1.727489	-1.063763	-0.371558
H68	H	1.660022	-1.164580	-0.354782
C69	C	1.436927	-0.587316	-1.055669
H70	H	1.397090	-0.627888	-1.103720
H71	H	1.391432	-0.546590	-1.013081
H72	H	1.476934	-0.633673	-1.013099
C73	C	1.131015	-0.652355	-0.640220
H74	H	1.203807	-0.642522	-0.630584
H75	H	1.113214	-0.636884	-0.710478
H76	H	1.113165	-0.723875	-0.624820
H77	H	1.455969	-0.567899	-0.936742
