data_functionalizedCrystal
_audit_creation_method	'MofGen! by Chris Wilmer'
_symmetry_space_group_name_H-M	'P1'
_symmetry_Int_Tables_number	1
_symmetry_cell_setting	triclinic
loop_
_symmetry_equiv_pos_as_xyz
  x,y,z
_cell_length_a	15.944493
_cell_length_b	17.038272
_cell_length_c	15.021413
_cell_angle_alpha	90.004956
_cell_angle_beta	89.992483
_cell_angle_gamma	87.293300
loop_
_atom_site_label
_atom_site_type_symbol
_atom_site_fract_x
_atom_site_fract_y
_atom_site_fract_z
O1	O	1.121744	0.100609	-0.074021
O2	O	0.878078	0.113088	-0.074026
O3	O	0.998463	-0.006967	-0.074016
O4	O	1.001359	0.220664	-0.074030
O5	O	0.998442	-0.006948	0.074048
O6	O	0.878057	0.113108	0.074039
O7	O	1.121722	0.100628	0.074043
Zn8	Zn	0.999886	0.106871	0.097549
Zn9	Zn	0.999915	0.106845	-0.097532
O10	O	1.001338	0.220683	0.074034
C11	C	0.846737	0.112588	0.000006
C12	C	0.753379	0.111059	0.000004
C13	C	0.995818	-0.036086	0.000016
C14	C	0.987959	-0.122880	0.000015
C15	C	0.522665	0.181726	-0.000001
C16	C	0.469375	0.143627	0.073009
C17	C	0.582456	0.108225	0.000006
C18	C	0.469399	0.143591	-0.072971
C19	C	0.417351	0.105494	0.000004
C20	C	0.530395	0.070147	0.073076
C21	C	0.530424	0.070121	-0.072969
C22	C	0.477163	0.031968	0.000058
C23	C	0.677568	0.109801	0.000008
C24	C	0.322241	0.103912	0.000009
C25	C	1.060117	-0.172986	0.000017
C26	C	1.052727	-0.254538	0.000009
C27	C	0.973178	-0.285981	0.000004
C28	C	0.901014	-0.235867	-0.000001
C29	C	0.908405	-0.154318	0.000002
C30	C	0.947069	-0.531741	-0.000008
C31	C	0.939684	-0.613297	-0.000008
C32	C	1.091398	-0.631962	-0.000000
C33	C	1.098781	-0.550410	0.000007
C34	C	1.026617	-0.500304	-0.000002
C35	C	0.965623	-0.369339	-0.000002
C36	C	1.034173	-0.416947	-0.000003
C37	C	1.153064	0.101128	0.000009
C38	C	1.246422	0.102658	0.000005
C39	C	1.003983	0.249802	-0.000000
C40	C	1.011842	0.336596	-0.000006
N41	N	0.999873	0.106888	0.230687
C42	C	0.944193	0.162379	0.470366
C43	C	1.021178	0.177544	0.529701
C44	C	0.999891	0.106871	0.412294
C45	C	0.922926	0.091726	0.529701
C46	C	0.999901	0.106856	0.587718
C47	C	1.076916	0.122071	0.470322
C48	C	0.978613	0.036223	0.470317
C49	C	1.055650	0.051358	0.529625
C50	C	0.999884	0.106881	0.311236
C51	C	0.999917	0.106846	0.688773
N52	N	0.999920	0.106837	0.769331
H53	H	0.442645	0.174676	0.134728
H54	H	1.098942	-0.391343	-0.000019
H55	H	0.836244	-0.261475	-0.000010
H56	H	0.557164	0.039096	-0.134692
O57	O	0.957008	-0.034955	0.439059
C58	C	0.859788	-0.106118	0.350848
C59	C	0.884185	-0.025459	0.386172
H60	H	0.800899	-0.098470	0.308097
H61	H	0.913389	-0.133135	0.309023
H62	H	0.846987	-0.146475	0.409335
H63	H	0.896973	0.014957	0.327739
H64	H	0.830570	0.001494	0.428024
H65	H	0.849646	-0.113521	-0.000000
H66	H	0.457173	-0.031392	0.000104
O67	O	1.154654	0.137410	0.439495
C68	C	1.297067	0.165589	0.476956
C69	C	1.209079	0.148204	0.511990
H70	H	1.341090	0.174337	0.535551
H71	H	1.322299	0.114153	0.434681
H72	H	1.292932	0.221206	0.434690
H73	H	1.213143	0.092612	0.554294
H74	H	1.183880	0.199684	0.554217
H75	H	1.102811	0.004407	0.555481
H76	H	1.124894	-0.147392	0.000027
O77	O	1.042681	0.248751	0.560979
C78	C	1.067408	0.328298	0.690134
C79	C	1.043076	0.247611	0.654834
H80	H	1.067718	0.327408	0.766019
H81	H	1.132588	0.341686	0.664761
H82	H	1.019867	0.375557	0.665745
H83	H	1.090560	0.200301	0.679209
H84	H	0.977875	0.234291	0.680201
H85	H	0.542809	0.245039	0.000064
O86	O	0.845337	0.076347	0.560921
C87	C	0.762433	-0.010195	0.647745
C88	C	0.850351	0.007130	0.612468
H89	H	0.766454	-0.066166	0.689412
H90	H	0.737610	0.040992	0.690640
H91	H	0.718130	-0.018263	0.589235
H92	H	0.894717	0.015182	0.670923
H93	H	0.875105	-0.044065	0.569546
O94	O	0.562230	0.033081	0.146699
C95	C	0.651869	-0.072913	0.204180
C96	C	0.615893	-0.031003	0.120730
H97	H	0.695248	-0.124743	0.183215
H98	H	0.688750	-0.029993	0.245136
H99	H	0.598185	-0.095059	0.245977
H100	H	0.669525	-0.008855	0.078865
H101	H	0.578988	-0.073952	0.079841
O102	O	0.437638	0.180729	-0.146582
C103	C	0.424525	0.301623	-0.229733
C104	C	0.460550	0.259651	-0.146344
H105	H	0.443021	0.365443	-0.229558
H106	H	0.450659	0.270968	-0.291969
H107	H	0.353166	0.299540	-0.229374
H108	H	0.531907	0.261722	-0.146617
H109	H	0.434351	0.290318	-0.084145
H110	H	1.111487	-0.295332	0.000013
O111	O	0.887972	0.218316	0.439272
C112	C	0.763020	0.245983	0.352397
C113	C	0.826611	0.182553	0.387571
H114	H	0.713404	0.217095	0.310574
H115	H	0.731497	0.278194	0.410893
H116	H	0.797124	0.289632	0.309631
H117	H	0.792571	0.138853	0.430322
H118	H	0.858133	0.150401	0.329034
H119	H	1.163558	-0.524816	0.000011
O120	O	0.888397	-0.399979	-0.000117
C121	C	0.792008	-0.481195	-0.076851
C122	C	0.879496	-0.446558	-0.076819
H123	H	0.784777	-0.518848	-0.138868
H124	H	0.784739	-0.518958	-0.014931
H125	H	0.741710	-0.431366	-0.076804
H126	H	0.929847	-0.496337	-0.076899
H127	H	0.886693	-0.408775	-0.138735
O128	O	1.161468	-0.680667	-0.000157
C129	C	1.241158	-0.783609	-0.076844
C130	C	1.161775	-0.728483	-0.076782
H131	H	1.241424	-0.822293	-0.138779
H132	H	1.299312	-0.747167	-0.076899
H133	H	1.241477	-0.822216	-0.014853
H134	H	1.161375	-0.689864	-0.138763
H135	H	1.103657	-0.764972	-0.076680
O136	O	0.862388	-0.643807	-0.000178
C137	C	0.730463	-0.652790	-0.076879
C138	C	0.817973	-0.618197	-0.076808
H139	H	0.694522	-0.632085	-0.138818
H140	H	0.737535	-0.719686	-0.076933
H141	H	0.694524	-0.632164	-0.014892
H142	H	0.853960	-0.638763	-0.138784
H143	H	0.810842	-0.551305	-0.076708
O144	O	0.877035	-0.482993	0.000106
C145	C	0.797292	-0.380112	0.076835
C146	C	0.876652	-0.435267	0.076806
H147	H	0.796947	-0.341523	0.138849
H148	H	0.796961	-0.341418	0.014911
H149	H	0.739179	-0.416609	0.076791
H150	H	0.934807	-0.398833	0.076880
H151	H	0.876908	-0.473964	0.138724
