data_functionalizedCrystal
_audit_creation_method	'MofGen! by Chris Wilmer'
_symmetry_space_group_name_H-M	'P1'
_symmetry_Int_Tables_number	1
_symmetry_cell_setting	triclinic
loop_
_symmetry_equiv_pos_as_xyz
  x,y,z
_cell_length_a	21.395364
_cell_length_b	21.395361
_cell_length_c	21.395355
_cell_angle_alpha	90.021511
_cell_angle_beta	90.025600
_cell_angle_gamma	90.028209
loop_
_atom_site_label
_atom_site_type_symbol
_atom_site_fract_x
_atom_site_fract_y
_atom_site_fract_z
Zn1	Zn	-0.957859	0.249553	-0.354266
Zn2	Zn	-0.624526	0.582886	-0.020933
Zn3	Zn	-0.291192	0.916220	0.312401
Zn4	Zn	-0.957762	0.354313	-0.249483
Zn5	Zn	-0.624428	0.687646	0.083850
Zn6	Zn	-0.291095	1.020979	0.417184
Zn7	Zn	-0.853074	0.249548	-0.249501
Zn8	Zn	-0.519741	0.582882	0.083833
Zn9	Zn	-0.186407	0.916215	0.417166
Zn10	Zn	-0.853043	0.354292	-0.354221
Zn11	Zn	-0.519710	0.687625	-0.020888
Zn12	Zn	-0.186377	1.020959	0.312445
O13	O	-0.905434	0.301926	-0.301868
O14	O	-0.572101	0.635260	0.031466
O15	O	-0.238768	0.968593	0.364799
O16	O	-1.045524	0.263460	-0.340377
O17	O	-0.712191	0.596793	-0.007044
O18	O	-0.378857	0.930127	0.326289
O19	O	-0.943847	0.340422	-0.161807
O20	O	-0.610513	0.673756	0.171526
O21	O	-0.277180	1.007089	0.504859
O22	O	-0.867028	0.161871	-0.263424
O23	O	-0.533694	0.495204	0.069909
O24	O	-0.200361	0.828538	0.403243
O25	O	-1.045452	0.340427	-0.263394
O26	O	-0.712119	0.673760	0.069939
O27	O	-0.378786	1.007093	0.403273
O28	O	-0.944013	0.161874	-0.340395
O29	O	-0.610679	0.495208	-0.007061
O30	O	-0.277346	0.828541	0.326272
O31	O	-0.866933	0.263452	-0.161820
O32	O	-0.533600	0.596786	0.171513
O33	O	-0.200266	0.930119	0.504846
O34	O	-0.765392	0.263432	-0.263381
O35	O	-0.432059	0.596766	0.069953
O36	O	-0.098725	0.930099	0.403286
O37	O	-0.866975	0.340391	-0.441905
O38	O	-0.533642	0.673725	-0.108572
O39	O	-0.200308	1.007058	0.224762
O40	O	-0.765369	0.340387	-0.340319
O41	O	-0.432036	0.673720	-0.006985
O42	O	-0.098703	1.007054	0.326348
O43	O	-0.943983	0.263440	-0.441938
O44	O	-0.610650	0.596773	-0.108605
O45	O	-0.277316	0.930107	0.224729
O46	O	-0.943817	0.441988	-0.263351
O47	O	-0.610483	0.775321	0.069983
O48	O	-0.277150	1.108655	0.403316
O49	O	-0.866881	0.441973	-0.340301
O50	O	-0.533547	0.775306	-0.006968
O51	O	-0.200214	1.108639	0.326365
C52	C	-0.742647	0.301907	-0.301847
C53	C	-0.409313	0.635241	0.031486
C54	C	-0.075980	0.968574	0.364820
C55	C	-0.673006	0.301914	-0.301853
C56	C	-0.339672	0.635248	0.031480
C57	C	-0.006339	0.968581	0.364814
C58	C	-0.171214	0.342060	-0.341879
C59	C	0.162119	0.675393	-0.008546
C60	C	0.495453	1.008726	0.324787
C61	C	-0.236649	0.342061	-0.341874
C62	C	0.096684	0.675394	-0.008540
C63	C	0.430017	1.008727	0.324793
C64	C	-0.269367	0.301931	-0.301878
C65	C	0.063966	0.635264	0.031456
C66	C	0.397299	0.968598	0.364789
C67	C	-0.236644	0.261809	-0.261873
C68	C	0.096689	0.595142	0.071460
C69	C	0.430022	0.928475	0.404793
C70	C	-0.171210	0.261813	-0.261876
C71	C	0.162123	0.595146	0.071458
C72	C	0.495457	0.928480	0.404791
C73	C	-0.373056	0.245467	-0.297031
C74	C	-0.039723	0.578801	0.036302
C75	C	0.293611	0.912134	0.369636
C76	C	-0.438489	0.245462	-0.297033
C77	C	-0.105156	0.578795	0.036300
C78	C	0.228178	0.912128	0.369633
C79	C	-0.471188	0.301917	-0.301867
C80	C	-0.137855	0.635251	0.031466
C81	C	0.195479	0.968584	0.364799
C82	C	-0.438446	0.358380	-0.306712
C83	C	-0.105113	0.691714	0.026621
C84	C	0.228221	1.025047	0.359955
C85	C	-0.373012	0.358385	-0.306714
C86	C	-0.039678	0.691718	0.026619
C87	C	0.293655	1.025052	0.359952
C88	C	-0.340320	0.301922	-0.301871
C89	C	-0.006986	0.635255	0.031463
C90	C	0.326347	0.968589	0.364796
C91	C	-0.574856	0.342041	-0.341860
C92	C	-0.241522	0.675375	-0.008527
C93	C	0.091811	1.008708	0.324807
C94	C	-0.640292	0.342044	-0.341850
C95	C	-0.306959	0.675377	-0.008517
C96	C	0.026374	1.008710	0.324817
C97	C	-0.640286	0.261786	-0.261853
C98	C	-0.306953	0.595119	0.071480
C99	C	0.026381	0.928453	0.404814
C100	C	-0.574850	0.261790	-0.261860
C101	C	-0.241517	0.595123	0.071474
C102	C	0.091816	0.928456	0.404807
C103	C	-0.542139	0.301916	-0.301867
C104	C	-0.208806	0.635250	0.031467
C105	C	0.124527	0.968583	0.364800
C106	C	-0.905486	0.301914	-0.465291
C107	C	-0.572153	0.635247	-0.131958
C108	C	-0.238820	0.968580	0.201376
C109	C	-0.905509	0.301908	-0.534932
C110	C	-0.572175	0.635242	-0.201599
C111	C	-0.238842	0.968575	0.131734
C112	C	-0.905352	0.464714	-0.301833
C113	C	-0.572018	0.798047	0.031501
C114	C	-0.238685	1.131381	0.364834
C115	C	-0.905374	0.534355	-0.301839
C116	C	-0.572040	0.867689	0.031495
C117	C	-0.238707	1.201022	0.364828
C118	C	-0.068858	0.301942	-0.301885
C119	C	0.264476	0.635276	0.031448
C120	C	0.597809	0.968609	0.364782
C121	C	-0.138499	0.301940	-0.301882
C122	C	0.194834	0.635273	0.031451
C123	C	0.528168	0.968607	0.364784
C124	C	-0.905535	0.138503	-0.301916
C125	C	-0.572201	0.471837	0.031417
C126	C	-0.238868	0.805170	0.364750
C127	C	-0.905577	0.068862	-0.301937
C128	C	-0.572244	0.402195	0.031396
C129	C	-0.238911	0.735529	0.364730
C130	C	-0.945470	0.567056	-0.261812
C131	C	-0.612136	0.900389	0.071522
C132	C	-0.278803	1.233722	0.404855
C133	C	-0.945499	0.632491	-0.261826
C134	C	-0.612166	0.965824	0.071508
C135	C	-0.278832	1.299158	0.404841
C136	C	-0.905421	0.665224	-0.301860
C137	C	-0.572087	0.998557	0.031473
C138	C	-0.238754	1.331890	0.364806
C139	C	-0.865322	0.632516	-0.341895
C140	C	-0.531988	0.965849	-0.008562
C141	C	-0.198655	1.299182	0.324771
C142	C	-0.865298	0.567081	-0.341885
C143	C	-0.531965	0.900415	-0.008551
C144	C	-0.198632	1.233748	0.324782
C145	C	-0.849006	0.768936	-0.306769
C146	C	-0.515673	1.102270	0.026564
C147	C	-0.182339	1.435603	0.359897
C148	C	-0.849029	0.834369	-0.306776
C149	C	-0.515695	1.167703	0.026558
C150	C	-0.182362	1.501036	0.359891
C151	C	-0.905494	0.867044	-0.301897
C152	C	-0.572160	1.200378	0.031436
C153	C	-0.238827	1.533711	0.364770
C154	C	-0.961938	0.834278	-0.296999
C155	C	-0.628605	1.167612	0.036334
C156	C	-0.295271	1.500945	0.369668
C157	C	-0.961915	0.768844	-0.296988
C158	C	-0.628581	1.102178	0.036345
C159	C	-0.295248	1.435511	0.369678
C160	C	-0.905442	0.736176	-0.301877
C161	C	-0.572109	1.069509	0.031457
C162	C	-0.238775	1.402843	0.364790
C163	C	-0.945625	0.970697	-0.261883
C164	C	-0.612291	1.304031	0.071450
C165	C	-0.278958	1.637364	0.404784
C166	C	-0.945655	1.036134	-0.261901
C167	C	-0.612322	1.369467	0.071432
C168	C	-0.278988	1.702800	0.404765
C169	C	-0.865472	1.036157	-0.341968
C170	C	-0.532139	1.369490	-0.008634
C171	C	-0.198806	1.702824	0.324699
C172	C	-0.865448	0.970722	-0.341953
C173	C	-0.532114	1.304055	-0.008619
C174	C	-0.198781	1.637388	0.324714
C175	C	-0.905523	0.937996	-0.301907
C176	C	-0.572190	1.271329	0.031427
C177	C	-0.238856	1.604662	0.364760
C178	C	-0.945605	0.261838	-0.567664
C179	C	-0.612271	0.595171	-0.234330
C180	C	-0.278938	0.928505	0.099003
C181	C	-0.945604	0.261811	-0.633099
C182	C	-0.612271	0.595145	-0.299766
C183	C	-0.278937	0.928478	0.033568
C184	C	-0.905513	0.301866	-0.665801
C185	C	-0.572180	0.635199	-0.332467
C186	C	-0.238847	0.968532	0.000866
C187	C	-0.865409	0.341939	-0.633062
C188	C	-0.532076	0.675272	-0.299728
C189	C	-0.198743	1.008605	0.033605
C190	C	-0.865407	0.341960	-0.567627
C191	C	-0.532074	0.675293	-0.234294
C192	C	-0.198740	1.008627	0.099039
C193	C	-0.900538	0.358281	-0.769463
C194	C	-0.567204	0.691614	-0.436130
C195	C	-0.233871	1.024947	-0.102797
C196	C	-0.900544	0.358261	-0.834896
C197	C	-0.567211	0.691594	-0.501563
C198	C	-0.233878	1.024927	-0.168230
C199	C	-0.905517	0.301800	-0.867622
C200	C	-0.572184	0.635133	-0.534288
C201	C	-0.238851	0.968466	-0.200955
C202	C	-0.910497	0.245357	-0.834906
C203	C	-0.577163	0.578690	-0.501573
C204	C	-0.243830	0.912024	-0.168239
C205	C	-0.910494	0.245378	-0.769472
C206	C	-0.577161	0.578712	-0.436138
C207	C	-0.243828	0.912045	-0.102805
C208	C	-0.905511	0.301847	-0.736753
C209	C	-0.572178	0.635180	-0.403420
C210	C	-0.238845	0.968513	-0.070086
C211	C	-0.945615	0.261697	-0.971305
C212	C	-0.612281	0.595030	-0.637972
C213	C	-0.278948	0.928363	-0.304639
C214	C	-0.945610	0.261669	-1.036742
C215	C	-0.612276	0.595002	-0.703409
C216	C	-0.278943	0.928335	-0.370075
C217	C	-0.865418	0.341802	-1.036703
C218	C	-0.532085	0.675135	-0.703370
C219	C	-0.198752	1.008469	-0.370037
C220	C	-0.865420	0.341824	-0.971268
C221	C	-0.532087	0.675158	-0.637935
C222	C	-0.198754	1.008491	-0.304601
C223	C	-0.905522	0.301773	-0.938573
C224	C	-0.572189	0.635106	-0.605240
C225	C	-0.238855	0.968439	-0.271906
C226	C	-0.905419	0.301894	-0.139080
C227	C	-0.572085	0.635227	0.194253
C228	C	-0.238752	0.968561	0.527587
C229	C	-0.905518	0.301723	-0.069439
C230	C	-0.572185	0.635056	0.263894
C231	C	-0.238851	0.968389	0.597227
H232	H	-0.465143	0.199486	-0.293095
H233	H	-0.131809	0.532819	0.040238
H234	H	0.201524	0.866152	0.373571
H235	H	-0.978254	0.229178	-0.659754
H236	H	-0.644920	0.562511	-0.326421
H237	H	-0.311587	0.895844	0.006913
H238	H	-0.263291	0.374731	-0.374446
H239	H	0.070042	0.708064	-0.041113
H240	H	0.403375	1.041397	0.292221
F241	F	-0.988176	0.667300	-0.219221
F242	F	-0.654843	1.000633	0.114112
F243	F	-0.321509	1.333967	0.447446
H244	H	-0.832766	0.374549	-0.659691
H245	H	-0.499432	0.707883	-0.326358
H246	H	-0.166099	1.041216	0.006975
H247	H	-0.896320	0.404246	-0.742824
H248	H	-0.562987	0.737580	-0.409490
H249	H	-0.229654	1.070913	-0.076157
F250	F	-0.988282	0.219209	-0.532871
F251	F	-0.654949	0.552542	-0.199537
F252	F	-0.321615	0.885875	0.133796
F253	F	-0.988291	0.219068	-0.936507
F254	F	-0.654958	0.552402	-0.603173
F255	F	-0.321624	0.885735	-0.269840
H256	H	-0.978260	0.229035	-1.063391
H257	H	-0.644926	0.562368	-0.730057
H258	H	-0.311593	0.895702	-0.396724
H259	H	-0.803068	0.861042	-0.310758
H260	H	-0.469735	1.194376	0.022576
H261	H	-0.136401	1.527709	0.355909
F262	F	-0.988275	0.935866	-0.219263
F263	F	-0.654942	1.269199	0.114070
F264	F	-0.321609	1.602532	0.447404
H265	H	-0.832770	0.374409	-1.063328
H266	H	-0.499436	0.707742	-0.729995
H267	H	-0.166103	1.041075	-0.396662
F268	F	-0.822769	0.935918	-0.384553
F269	F	-0.489436	1.269252	-0.051220
F270	F	-0.156102	1.602585	0.282114
H271	H	-0.978310	1.062757	-0.229308
H272	H	-0.644977	1.396091	0.104026
H273	H	-0.311643	1.729424	0.437359
F274	F	-0.271466	0.219102	-0.219305
F275	F	0.061868	0.552435	0.114028
F276	F	0.395201	0.885768	0.447362
F277	F	-0.822821	1.070989	-0.384580
F278	F	-0.489488	1.404323	-0.051246
F279	F	-0.156155	1.737656	0.282087
H280	H	-0.666924	0.229114	-0.229286
H281	H	-0.333591	0.562447	0.104048
H282	H	-0.000257	0.895781	0.437381
H283	H	-0.803022	0.742339	-0.310744
H284	H	-0.469688	1.075672	0.022589
H285	H	-0.136355	1.409005	0.355922
H286	H	-0.548221	0.374716	-0.374435
H287	H	-0.214887	0.708049	-0.041102
H288	H	0.118446	1.041383	0.292231
F289	F	-0.136404	0.384769	-0.384455
F290	F	0.196929	0.718102	-0.051122
F291	F	0.530263	1.051436	0.282211
F292	F	-0.540031	0.219084	-0.219293
F293	F	-0.206698	0.552417	0.114040
F294	F	0.126635	0.885751	0.447373
H295	H	-0.144574	0.229141	-0.229305
H296	H	0.188760	0.562475	0.104028
H297	H	0.522093	0.895808	0.437362
F298	F	-0.675110	0.384751	-0.384419
F299	F	-0.341777	0.718084	-0.051085
F300	F	-0.008443	1.051417	0.282248
H301	H	-0.832773	0.374458	-0.944618
H302	H	-0.499440	0.707791	-0.611285
H303	H	-0.166107	1.041124	-0.277951
H304	H	-0.346438	0.199492	-0.293084
H305	H	-0.013105	0.532825	0.040249
H306	H	0.320229	0.866158	0.373582
H307	H	-0.978103	0.540412	-0.229206
H308	H	-0.644770	0.873745	0.104128
H309	H	-0.311436	1.207079	0.437461
F310	F	-0.822670	0.667353	-0.384505
F311	F	-0.489337	1.000686	-0.051172
F312	F	-0.156003	1.334019	0.282161
F313	F	-0.822620	0.532278	-0.384489
F314	F	-0.489287	0.865612	-0.051156
F315	F	-0.155954	1.198945	0.282178
H316	H	-0.914547	0.199421	-0.742837
H317	H	-0.581214	0.532754	-0.409504
H318	H	-0.247880	0.866088	-0.076171
H319	H	-0.832753	0.374589	-0.540978
H320	H	-0.499420	0.707923	-0.207645
H321	H	-0.166086	1.041256	0.125689
F322	F	-0.895250	0.418331	-0.869709
F323	F	-0.561917	0.751665	-0.536375
F324	F	-0.228584	1.084998	-0.203042
F325	F	-0.915792	0.185262	-0.869729
F326	F	-0.582459	0.518596	-0.536396
F327	F	-0.249125	0.851929	-0.203062
H328	H	-0.346356	0.404359	-0.310658
H329	H	-0.013023	0.737692	0.022675
H330	H	0.320311	1.071026	0.356009
F331	F	-0.473241	0.418470	-0.311856
F332	F	-0.139908	0.751803	0.021478
F333	F	0.193426	1.085136	0.354811
H334	H	-1.007918	0.860881	-0.293027
H335	H	-0.674584	1.194214	0.040307
H336	H	-0.341251	1.527548	0.373640
F337	F	-1.021985	0.733975	-0.291780
F338	F	-0.688652	1.067308	0.041554
F339	F	-0.355318	1.400641	0.374887
