data_functionalizedCrystal
_audit_creation_method	'MofGen! by Chris Wilmer'
_symmetry_space_group_name_H-M	'P1'
_symmetry_Int_Tables_number	1
_symmetry_cell_setting	triclinic
loop_
_symmetry_equiv_pos_as_xyz
  x,y,z
_cell_length_a	12.827893
_cell_length_b	12.759400
_cell_length_c	12.827885
_cell_angle_alpha	90.030494
_cell_angle_beta	90.019081
_cell_angle_gamma	90.014655
loop_
_atom_site_label
_atom_site_type_symbol
_atom_site_fract_x
_atom_site_fract_y
_atom_site_fract_z
Zn1	Zn	1.597675	-0.418216	0.590838
Zn2	Zn	2.097675	0.081784	1.090838
Zn3	Zn	1.597571	-0.593932	0.416096
Zn4	Zn	2.097571	-0.093932	0.916096
Zn5	Zn	1.422916	-0.418267	0.416112
Zn6	Zn	1.922916	0.081733	0.916112
Zn7	Zn	1.422904	-0.593854	0.590797
Zn8	Zn	1.922904	-0.093854	1.090797
O9	O	1.510266	-0.506067	0.503461
O10	O	2.010266	-0.006067	1.003461
O11	O	1.743897	-0.441537	0.567669
O12	O	2.243897	0.058463	1.067669
O13	O	1.574364	-0.570684	0.269862
O14	O	2.074364	-0.070684	0.769862
O15	O	1.446147	-0.271240	0.439314
O16	O	1.946147	0.228760	0.939314
O17	O	1.743821	-0.570634	0.439287
O18	O	2.243821	-0.070634	0.939287
O19	O	1.574541	-0.271202	0.567684
O20	O	2.074541	0.228798	1.067684
O21	O	1.446046	-0.441624	0.269874
O22	O	1.946046	0.058376	0.769874
O23	O	1.276678	-0.441548	0.439274
O24	O	1.776678	0.058452	0.939274
O25	O	1.446125	-0.570501	0.737039
O26	O	1.946125	-0.070501	1.237039
O27	O	1.276669	-0.570550	0.567614
O28	O	1.776669	-0.070550	1.067614
O29	O	1.574529	-0.441461	0.737069
O30	O	2.074529	0.058539	1.237069
O31	O	1.574352	-0.740942	0.439247
O32	O	2.074352	-0.240942	0.939247
O33	O	1.446025	-0.740885	0.567599
O34	O	1.946025	-0.240885	1.067599
C35	C	1.238756	-0.506047	0.503442
C36	C	1.738756	-0.006047	1.003442
C37	C	1.122603	-0.506064	0.503459
C38	C	1.622603	-0.006064	1.003459
C39	C	0.950812	-0.442314	0.567101
C40	C	1.450812	0.057686	1.067101
C41	C	1.070862	-0.442295	0.567085
C42	C	1.570862	0.057705	1.067085
C43	C	1.510204	-0.779035	0.503439
C44	C	2.010204	-0.279035	1.003439
C45	C	1.510273	-0.895811	0.503465
C46	C	2.010273	-0.395811	1.003465
C47	C	1.577168	-0.950668	0.436706
C48	C	2.077168	-0.450668	0.936706
C49	C	1.577232	-1.060392	0.436738
C50	C	2.077232	-0.560392	0.936738
C51	C	1.443499	-1.060393	0.570291
C52	C	1.943499	-0.560393	1.070291
C53	C	1.443440	-0.950671	0.570263
C54	C	1.943440	-0.450671	1.070263
C55	C	1.644001	-0.895809	0.369907
C56	C	2.144001	-0.395809	0.869907
C57	C	1.710899	-0.950666	0.303142
C58	C	2.210899	-0.450666	0.803142
C59	C	1.710964	-1.060390	0.303175
C60	C	2.210964	-0.560390	0.803175
C61	C	1.644129	-1.115257	0.369972
C62	C	2.144129	-0.615257	0.869972
C63	C	1.782836	-0.506088	0.503481
C64	C	2.282836	-0.006088	1.003481
C65	C	1.898990	-0.506097	0.503489
C66	C	2.398990	-0.006097	1.003489
C67	C	1.510337	-0.505966	0.776031
C68	C	2.010337	-0.005966	1.276031
C69	C	1.510368	-0.505923	0.892185
C70	C	2.010368	-0.005923	1.392185
C71	C	1.510357	-0.232034	0.503506
C72	C	2.010357	0.267966	1.003506
C73	C	1.510396	-0.115257	0.503525
C74	C	2.010396	0.384743	1.003525
C75	C	1.510256	-0.506092	0.231951
C76	C	2.010256	-0.006092	0.731951
C77	C	1.510428	-0.505839	0.115798
C78	C	2.010428	-0.005839	0.615798
C79	C	1.573913	-0.442058	0.943984
C80	C	2.073913	0.057942	1.443984
C81	C	1.573946	-0.442012	1.064035
C82	C	2.073946	0.057988	1.564035
H83	H	1.078044	-0.560672	0.448993
H84	H	1.578044	-0.060672	0.948993
H85	H	1.628352	-0.387338	1.108581
H86	H	2.128352	0.112662	1.608581
H87	H	1.455982	-0.560560	0.936714
H88	H	1.955982	-0.060560	1.436714
Cl89	Cl	0.882101	-0.358030	0.651215
Cl90	Cl	1.382101	0.141970	1.151215
Cl91	Cl	1.644217	-0.757871	0.370155
Cl92	Cl	2.144217	-0.257871	0.870155
H93	H	1.628288	-0.387410	0.899455
H94	H	2.128288	0.112590	1.399455
H95	H	1.456025	-0.560523	1.071259
H96	H	1.956025	-0.060523	1.571259
H97	H	1.115428	-0.387684	0.621541
H98	H	1.615428	0.112316	1.121541
H99	H	1.765320	-0.905988	0.248764
H100	H	2.265320	-0.405988	0.748764
H101	H	1.644195	-1.204602	0.370001
H102	H	2.144195	-0.704602	0.870001
Cl103	Cl	0.967700	-0.590396	0.419390
Cl104	Cl	1.467700	-0.090396	0.919390
Cl105	Cl	1.795072	-1.129351	0.219252
Cl106	Cl	2.295072	-0.629351	0.719252
H107	H	1.389084	-1.105074	0.624673
H108	H	1.889084	-0.605074	1.124673
H109	H	1.388970	-0.906006	0.624626
H110	H	1.888970	-0.406006	1.124626
