data_functionalizedCrystal
_audit_creation_method	'MofGen! by Chris Wilmer'
_symmetry_space_group_name_H-M	'P1'
_symmetry_Int_Tables_number	1
_symmetry_cell_setting	triclinic
loop_
_symmetry_equiv_pos_as_xyz
  x,y,z
_cell_length_a	9.065218
_cell_length_b	13.101039
_cell_length_c	9.065218
_cell_angle_alpha	93.413922
_cell_angle_beta	94.984115
_cell_angle_gamma	93.407648
loop_
_atom_site_label
_atom_site_type_symbol
_atom_site_fract_x
_atom_site_fract_y
_atom_site_fract_z
O1	O	1.968410	0.085213	-0.208321
O2	O	2.468410	0.585213	0.291679
O3	O	1.539125	0.085214	-0.226068
O4	O	2.039125	0.585214	0.273932
O5	O	1.762641	0.085211	-0.002552
O6	O	2.262641	0.585211	0.497448
O7	O	1.744894	0.085215	-0.431837
O8	O	2.244894	0.585215	0.068163
O9	O	1.746604	-0.085218	-0.018616
O10	O	2.246604	0.414782	0.481384
O11	O	1.523088	-0.085216	-0.242132
O12	O	2.023088	0.414784	0.257868
O13	O	1.952373	-0.085217	-0.224385
O14	O	2.452373	0.414783	0.275615
Zn15	Zn	1.735185	-0.112276	-0.235809
Zn16	Zn	2.235185	0.387724	0.264191
Zn17	Zn	1.756314	0.112273	-0.214644
Zn18	Zn	2.256314	0.612273	0.285356
O19	O	1.728858	-0.085214	-0.447901
O20	O	2.228858	0.414786	0.052099
C21	C	1.476120	-0.000001	-0.232394
C22	C	1.976120	0.499999	0.267606
C23	C	1.312277	-0.000000	-0.227294
C24	C	1.812277	0.500000	0.272706
N25	N	1.720776	-0.265524	-0.250253
N26	N	2.220776	0.234476	0.249747
C27	C	1.701171	-0.474566	-0.269917
C28	C	2.201171	0.025434	0.230083
C29	C	1.790334	-0.525443	-0.180529
C30	C	2.290334	-0.025443	0.319471
C31	C	1.779426	-0.641761	-0.191471
C32	C	2.279426	-0.141761	0.308529
C33	C	1.712078	-0.358238	-0.258978
C34	C	2.212078	0.141762	0.241022
C35	C	2.015378	0.000000	-0.218059
C36	C	2.515378	0.500000	0.281941
C37	C	2.179222	0.000006	-0.223158
C38	C	2.679222	0.500006	0.276842
C39	C	1.752917	-0.000002	0.044402
C40	C	2.252917	0.499998	0.544402
C41	C	1.747818	0.000003	0.208246
C42	C	2.247818	0.500003	0.708246
N43	N	1.770734	0.265521	-0.200189
N44	N	2.270734	0.765521	0.299811
C45	C	1.738582	0.000001	-0.494855
C46	C	2.238582	0.500001	0.005145
C47	C	1.743682	0.000003	-0.658698
C48	C	2.243682	0.500003	-0.158698
H49	H	1.874861	-0.481642	-0.095785
H50	H	2.374861	0.018358	0.404215
Cl51	Cl	1.570680	-0.542186	-0.400756
Cl52	Cl	2.070680	-0.042186	0.099244
