data_functionalizedCrystal
_audit_creation_method	'MofGen! by Chris Wilmer'
_symmetry_space_group_name_H-M	'P1'
_symmetry_Int_Tables_number	1
_symmetry_cell_setting	triclinic
loop_
_symmetry_equiv_pos_as_xyz
  x,y,z
_cell_length_a	17.019311
_cell_length_b	16.098538
_cell_length_c	11.792254
_cell_angle_alpha	87.258456
_cell_angle_beta	83.796913
_cell_angle_gamma	96.609511
loop_
_atom_site_label
_atom_site_type_symbol
_atom_site_fract_x
_atom_site_fract_y
_atom_site_fract_z
O1	O	1.054645	0.144891	0.134015
O2	O	1.387979	0.478225	0.467348
O3	O	1.721312	0.811558	0.800682
O4	O	0.824222	0.128368	0.153655
O5	O	1.157556	0.461701	0.486988
O6	O	1.490889	0.795035	0.820322
O7	O	0.945020	0.137024	-0.021422
O8	O	1.278353	0.470358	0.311912
O9	O	1.611687	0.803691	0.645245
O10	O	0.933848	0.136235	0.309092
O11	O	1.267181	0.469568	0.642425
O12	O	1.600514	0.802902	0.975758
O13	O	0.937964	-0.001994	-0.011234
O14	O	1.271297	0.331339	0.322099
O15	O	1.604630	0.664672	0.655432
O16	O	0.817166	-0.010650	0.163842
O17	O	1.150499	0.322683	0.497176
O18	O	1.483833	0.656016	0.830509
O19	O	1.047589	0.005873	0.144202
O20	O	1.380922	0.339206	0.477535
O21	O	1.714255	0.672539	0.810869
Zn22	Zn	0.931257	-0.024461	0.155640
Zn23	Zn	1.264590	0.308872	0.488973
Zn24	Zn	1.597924	0.642206	0.822306
Zn25	Zn	0.940554	0.158702	0.142218
Zn26	Zn	1.273888	0.492035	0.475551
Zn27	Zn	1.607221	0.825369	0.808884
O28	O	0.926791	-0.002784	0.319279
O29	O	1.260124	0.330550	0.652612
O30	O	1.593458	0.663883	0.985945
C31	C	0.791195	0.056743	0.158203
C32	C	1.124528	0.390077	0.491537
C33	C	1.457862	0.723410	0.824870
C34	C	0.703296	0.050440	0.156565
C35	C	1.036629	0.383774	0.489898
C36	C	1.369963	0.717107	0.823232
N37	N	0.924917	-0.149465	0.164799
N38	N	1.258251	0.183869	0.498132
N39	N	1.591584	0.517202	0.831466
C40	C	0.205962	0.010990	0.147615
C41	C	0.539296	0.344324	0.480948
C42	C	0.872629	0.677657	0.814281
C43	C	0.288553	0.016915	0.149154
C44	C	0.621886	0.350248	0.482487
C45	C	0.955219	0.683581	0.815821
C46	C	0.333695	0.095657	0.144362
C47	C	0.667029	0.428991	0.477695
C48	C	1.000362	0.762324	0.811028
C49	C	0.296243	0.168480	0.138042
C50	C	0.629576	0.501813	0.471375
C51	C	0.962909	0.835147	0.804708
C52	C	0.213653	0.162555	0.136511
C53	C	0.546986	0.495888	0.469844
C54	C	0.880320	0.829222	0.803177
C55	C	0.583254	0.117338	0.148714
C56	C	0.916587	0.450671	0.482047
C57	C	1.249921	0.784005	0.815380
C58	C	0.665849	0.123258	0.150242
C59	C	0.999183	0.456591	0.483575
C60	C	1.332516	0.789924	0.816909
C61	C	0.658153	-0.028309	0.161356
C62	C	0.991487	0.305025	0.494690
C63	C	1.324820	0.638358	0.828023
C64	C	0.575563	-0.034227	0.159818
C65	C	0.908897	0.299107	0.493151
C66	C	1.242230	0.632440	0.826485
C67	C	0.538117	0.038596	0.153504
C68	C	0.871451	0.371930	0.486837
C69	C	1.204784	0.705263	0.820171
C70	C	0.418116	0.101715	0.145931
C71	C	0.751449	0.435048	0.479265
C72	C	1.084783	0.768381	0.812598
C73	C	0.453697	0.032538	0.151942
C74	C	0.787030	0.365871	0.485276
C75	C	1.120364	0.699205	0.818609
C76	C	0.976208	-0.189374	0.090516
C77	C	1.309541	0.143959	0.423849
C78	C	1.642875	0.477293	0.757182
C79	C	0.971781	-0.276880	0.096934
C80	C	1.305114	0.056453	0.430267
C81	C	1.638447	0.389786	0.763601
C82	C	0.916066	-0.324475	0.177642
C83	C	1.249399	0.008858	0.510975
C84	C	1.582733	0.342191	0.844308
C85	C	0.864770	-0.284560	0.251928
C86	C	1.198104	0.048773	0.585262
C87	C	1.531437	0.382107	0.918595
C88	C	0.869194	-0.197055	0.245504
C89	C	1.202528	0.136278	0.578837
C90	C	1.535861	0.469611	0.912171
C91	C	0.900028	-0.588874	0.200911
C92	C	1.233362	-0.255541	0.534245
C93	C	1.566695	0.077792	0.867578
C94	C	0.895610	-0.676385	0.207332
C95	C	1.228943	-0.343051	0.540666
C96	C	1.562276	-0.009718	0.873999
C97	C	1.002619	-0.668699	0.052336
C98	C	1.335953	-0.335366	0.385669
C99	C	1.669286	-0.002032	0.719002
C100	C	1.007042	-0.581193	0.045923
C101	C	1.340375	-0.247860	0.379256
C102	C	1.673708	0.085474	0.712590
C103	C	0.955743	-0.541286	0.120206
C104	C	1.289076	-0.207952	0.453539
C105	C	1.622410	0.125381	0.786872
C106	C	0.911541	-0.413921	0.184206
C107	C	1.244874	-0.080587	0.517540
C108	C	1.578208	0.252746	0.850873
C109	C	0.960265	-0.451842	0.113635
C110	C	1.293598	-0.118509	0.446968
C111	C	1.626932	0.214825	0.780301
C112	C	1.080617	0.077499	0.139654
C113	C	1.413950	0.410833	0.472987
C114	C	1.747283	0.744166	0.806320
C115	C	1.168516	0.083808	0.141292
C116	C	1.501849	0.417141	0.474625
C117	C	1.835182	0.750475	0.807958
C118	C	0.940788	0.067465	-0.058608
C119	C	1.274121	0.400798	0.274726
C120	C	1.607455	0.734132	0.608059
C121	C	0.938681	0.067315	-0.184588
C122	C	1.272015	0.400648	0.148746
C123	C	1.605348	0.733981	0.482079
N124	N	0.946900	0.283706	0.133049
N125	N	1.280233	0.617039	0.466382
N126	N	1.613567	0.950372	0.799716
C127	C	0.936970	0.067195	-0.286898
C128	C	1.270303	0.400528	0.046435
C129	C	1.603637	0.733862	0.379769
C130	C	0.934830	0.067049	-0.415251
C131	C	1.268163	0.400382	-0.081918
C132	C	1.601497	0.733716	0.251415
C133	C	0.931023	0.066778	0.356465
C134	C	1.264357	0.400111	0.689798
C135	C	1.597690	0.733444	1.023131
C136	C	0.933130	0.066934	0.482444
C137	C	1.266464	0.400267	0.815778
C138	C	1.599797	0.733600	1.149111
H139	H	0.169212	-0.053130	0.151522
H140	H	0.502546	0.280203	0.484855
H141	H	0.835879	0.613536	0.818189
H142	H	0.858260	-0.556389	0.261397
H143	H	1.191594	-0.223055	0.594731
H144	H	1.524927	0.110278	0.928064
H145	H	0.866179	-0.452679	0.249922
H146	H	1.199512	-0.119346	0.583256
H147	H	1.532845	0.213987	0.916589
H148	H	0.538815	-0.098347	0.163695
H149	H	0.872149	0.234986	0.497029
H150	H	1.205482	0.568320	0.830362
C151	C	0.542076	0.197447	0.141744
C152	C	0.875410	0.530780	0.475078
C153	C	1.208743	0.864113	0.808411
N154	N	0.511060	0.257788	0.136487
N155	N	0.844393	0.591122	0.469820
N156	N	1.177726	0.924455	0.803154
C157	C	0.699347	-0.108408	0.168348
C158	C	1.032680	0.224925	0.501681
C159	C	1.366013	0.558258	0.835015
N160	N	0.730372	-0.168743	0.173633
N161	N	1.063705	0.164590	0.506966
N162	N	1.397039	0.497924	0.840300
H163	H	0.319038	-0.042381	0.154300
H164	H	0.652371	0.290952	0.487633
H165	H	0.985705	0.624285	0.820967
H166	H	1.021580	-0.150628	0.024800
H167	H	1.354913	0.182706	0.358133
H168	H	1.688246	0.516039	0.691466
H169	H	0.819402	-0.323317	0.317639
H170	H	1.152736	0.010016	0.650972
H171	H	1.486069	0.343350	0.984306
H172	H	0.827427	-0.164562	0.305992
H173	H	1.160761	0.168771	0.639325
H174	H	1.494094	0.502104	0.972659
H175	H	0.454881	0.165827	0.142026
H176	H	0.788214	0.499160	0.475360
H177	H	1.121547	0.832494	0.808693
C178	C	0.715504	0.209884	0.144987
C179	C	1.048837	0.543218	0.478321
C180	C	1.382170	0.876551	0.811654
N181	N	0.752903	0.275128	0.141034
N182	N	1.086236	0.608461	0.474367
N183	N	1.419569	0.941795	0.807700
H184	H	1.005625	-0.413088	0.047918
H185	H	1.338958	-0.079755	0.381251
H186	H	1.672292	0.253579	0.714585
C187	C	0.172463	0.242660	0.129551
C188	C	0.505796	0.575994	0.462884
C189	C	0.839129	0.909327	0.796217
N190	N	0.141439	0.302998	0.124311
N191	N	0.474772	0.636332	0.457644
N192	N	0.808106	0.969665	0.790977
C193	C	0.345903	0.255098	0.132768
C194	C	0.679236	0.588431	0.466101
C195	C	1.012569	0.921765	0.799434
N196	N	0.383307	0.320341	0.128789
N197	N	0.716640	0.653674	0.462123
N198	N	1.049973	0.987007	0.795456
H199	H	1.052409	-0.542443	-0.019796
H200	H	1.385742	-0.209110	0.313538
H201	H	1.719075	0.124224	0.646871
H202	H	0.416938	-0.031574	0.155850
H203	H	0.750271	0.301760	0.489184
H204	H	1.083605	0.635093	0.822517
C205	C	1.028185	-0.320778	0.015188
C206	C	1.361519	0.012555	0.348522
C207	C	1.694852	0.345889	0.681855
N208	N	1.070665	-0.353842	-0.046397
N209	N	1.403998	-0.020508	0.286937
N210	N	1.737332	0.312825	0.620270
C211	C	0.834315	-0.728738	0.296118
C212	C	1.167648	-0.395404	0.629451
C213	C	1.500981	-0.062071	0.962784
N214	N	0.788150	-0.768170	0.362988
N215	N	1.121483	-0.434837	0.696321
N216	N	1.454816	-0.101503	1.029655
C217	C	1.059038	-0.712605	-0.029379
C218	C	1.392371	-0.379272	0.303955
C219	C	1.725704	-0.045938	0.637288
N220	N	1.101531	-0.745675	-0.090934
N221	N	1.434864	-0.412342	0.242400
N222	N	1.768198	-0.079009	0.575733
