data_functionalizedCrystal
_audit_creation_method	'MofGen! by Chris Wilmer'
_symmetry_space_group_name_H-M	'P1'
_symmetry_Int_Tables_number	1
_symmetry_cell_setting	triclinic
loop_
_symmetry_equiv_pos_as_xyz
  x,y,z
_cell_length_a	19.288864
_cell_length_b	19.288857
_cell_length_c	17.766277
_cell_angle_alpha	89.991474
_cell_angle_beta	89.976791
_cell_angle_gamma	83.134677
loop_
_atom_site_label
_atom_site_type_symbol
_atom_site_fract_x
_atom_site_fract_y
_atom_site_fract_z
O1	O	0.921351	0.086649	-0.062839
O2	O	1.421351	0.586649	0.437161
O3	O	0.719090	0.098338	-0.062788
O4	O	1.219090	0.598338	0.437212
O5	O	0.826067	-0.008637	-0.062806
O6	O	1.326067	0.491363	0.437194
O7	O	0.814373	0.193624	-0.062821
O8	O	1.314373	0.693624	0.437179
O9	O	0.826049	-0.008643	0.062382
O10	O	1.326049	0.491357	0.562382
O11	O	0.719071	0.098332	0.062400
O12	O	1.219071	0.598332	0.562400
O13	O	0.921332	0.086644	0.062349
O14	O	1.421332	0.586644	0.562349
Cu15	Cu	0.820200	0.092488	0.073806
Cu16	Cu	1.320200	0.592488	0.573806
Cu17	Cu	0.820222	0.092494	-0.074244
Cu18	Cu	1.320222	0.592494	0.425756
O19	O	0.814354	0.193619	0.062367
O20	O	1.314354	0.693619	0.562367
C21	C	0.693204	0.097959	-0.000187
C22	C	1.193204	0.597959	0.499813
C23	C	0.616100	0.096830	-0.000167
C24	C	1.116100	0.596830	0.499833
C25	C	0.571402	0.159598	-0.000184
C26	C	1.071402	0.659598	0.499816
C27	C	0.498955	0.158537	-0.000192
C28	C	0.998955	0.658537	0.499808
C29	C	0.471210	0.094705	-0.000199
C30	C	0.971210	0.594705	0.499801
C31	C	0.515917	0.031929	-0.000178
C32	C	1.015917	0.531929	0.499822
C33	C	0.588363	0.032991	-0.000162
C34	C	1.088363	0.532991	0.499838
C35	C	0.362955	0.044528	-0.044080
C36	C	0.862955	0.544528	0.455920
C37	C	0.290511	0.043468	-0.044100
C38	C	0.790511	0.543468	0.455900
C39	C	0.247764	0.091425	-0.000244
C40	C	0.747764	0.591425	0.499756
C41	C	0.277469	0.140455	0.043622
C42	C	0.777469	0.640455	0.543622
C43	C	0.349914	0.141517	0.043638
C44	C	0.849914	0.641517	0.543638
C45	C	0.392656	0.093546	-0.000216
C46	C	0.892656	0.593546	0.499784
C47	C	0.124510	0.153048	-0.000269
C48	C	0.624510	0.653048	0.499731
C49	C	0.052062	0.151984	-0.000272
C50	C	0.552062	0.651984	0.499728
C51	C	0.069026	0.025374	-0.000266
C52	C	0.569026	0.525374	0.499734
C53	C	0.141472	0.026439	-0.000255
C54	C	0.641472	0.526439	0.499745
C55	C	0.169210	0.090278	-0.000260
C56	C	0.669210	0.590278	0.499740
C57	C	0.825683	-0.034516	-0.000211
C58	C	1.325683	0.465484	0.499789
C59	C	0.824556	-0.111620	-0.000209
C60	C	1.324556	0.388380	0.499791
C61	C	0.824040	-0.147828	-0.068449
C62	C	1.324040	0.352172	0.431551
C63	C	0.822971	-0.220274	-0.068454
C64	C	1.322971	0.279726	0.431546
C65	C	0.822432	-0.256511	-0.000215
C66	C	1.322432	0.243489	0.499785
C67	C	0.822944	-0.220295	0.068034
C68	C	1.322944	0.279705	0.568034
C69	C	0.824006	-0.147849	0.068037
C70	C	1.324006	0.352151	0.568037
C71	C	0.861426	-0.376745	0.052050
C72	C	1.361426	0.123255	0.552050
C73	C	0.860369	-0.449190	0.052044
C74	C	1.360369	0.050810	0.552044
C75	C	0.819155	-0.479957	-0.000223
C76	C	1.319155	0.020043	0.499777
C77	C	0.779007	-0.438272	-0.052496
C78	C	1.279007	0.061728	0.447504
C79	C	0.780069	-0.365827	-0.052493
C80	C	1.280069	0.134173	0.447507
C81	C	0.821281	-0.335066	-0.000211
C82	C	1.321281	0.164934	0.499789
C83	C	0.817479	-0.594719	-0.068474
C84	C	1.317479	-0.094719	0.431526
C85	C	0.816406	-0.667166	-0.068476
C86	C	1.316406	-0.167166	0.431524
C87	C	0.816386	-0.667186	0.068014
C88	C	1.316386	-0.167186	0.568014
C89	C	0.817452	-0.594740	0.068014
C90	C	1.317452	-0.094740	0.568014
C91	C	0.818002	-0.558511	-0.000232
C92	C	1.318002	-0.058511	0.499768
C93	C	0.947218	0.087022	-0.000253
C94	C	1.447218	0.587022	0.499747
C95	C	1.024321	0.088151	-0.000278
C96	C	1.524321	0.588151	0.499722
C97	C	0.814739	0.219498	-0.000229
C98	C	1.314739	0.719498	0.499771
C99	C	0.815866	0.296602	-0.000237
C100	C	1.315866	0.796602	0.499763
N101	N	0.820189	0.092483	0.177936
N102	N	1.320189	0.592483	0.677936
N103	N	0.820238	0.092493	-0.178375
N104	N	1.320238	0.592493	0.321625
C105	C	0.867574	0.045137	0.217315
C106	C	1.367574	0.545137	0.717315
C107	C	0.867578	0.045134	0.296117
C108	C	1.367578	0.545134	0.796117
C109	C	0.820204	0.092488	0.335537
C110	C	1.320204	0.592488	0.835537
C111	C	0.772810	0.139837	0.296148
C112	C	1.272810	0.639837	0.796148
C113	C	0.772803	0.139834	0.217348
C114	C	1.272803	0.639834	0.717348
C115	C	0.810903	0.155776	0.460371
C116	C	1.310903	0.655776	0.960371
C117	C	0.810915	0.155780	0.539170
C118	C	1.310915	0.655780	1.039170
C119	C	0.820222	0.092496	0.578583
C120	C	1.320222	0.592496	1.078583
C121	C	0.829532	0.029207	0.539187
C122	C	1.329532	0.529207	1.039187
C123	C	0.829525	0.029204	0.460387
C124	C	1.329525	0.529204	0.960387
C125	C	0.820206	0.092496	0.420982
C126	C	1.320206	0.592496	0.920982
C127	C	0.867614	0.045144	0.703408
C128	C	1.367614	0.545144	1.203408
C129	C	0.867614	0.045139	0.782211
C130	C	1.367614	0.545139	1.282211
C131	C	0.772849	0.139849	0.782241
C132	C	1.272849	0.639849	1.282241
C133	C	0.772846	0.139847	0.703439
C134	C	1.272846	0.639847	1.203439
C135	C	0.820233	0.092495	0.664027
C136	C	1.320233	0.592495	1.164027
H137	H	0.374097	0.181436	0.079358
H138	H	0.874097	0.681436	0.579358
C139	C	0.824580	-0.108020	0.143105
C140	C	1.324580	0.391980	0.643105
H141	H	0.824109	-0.139975	0.183747
H142	H	1.324109	0.360025	0.683747
H143	H	0.784500	-0.074331	0.145953
H144	H	1.284500	0.425669	0.645953
H145	H	0.865497	-0.085189	0.145931
H146	H	1.365497	0.414811	0.645931
C147	C	0.038514	-0.044841	-0.000278
C148	C	0.538514	0.455159	0.499722
H149	H	-0.011034	-0.036485	-0.000295
H150	H	0.488966	0.463515	0.499705
H151	H	0.053847	-0.070683	0.043379
H152	H	0.553847	0.429317	0.543379
H153	H	0.053896	-0.070669	-0.043938
H154	H	0.553896	0.429331	0.456062
H155	H	0.624757	-0.018124	-0.000149
H156	H	1.124757	0.481876	0.499851
H157	H	0.817878	-0.565260	0.123583
H158	H	1.317878	-0.065260	0.623583
C159	C	0.720736	0.191939	0.660117
C160	C	1.220736	0.691939	1.160117
H161	H	0.727515	0.185154	0.607541
H162	H	1.227515	0.685154	1.107541
H163	H	0.728137	0.238275	0.673021
H164	H	1.228137	0.738275	1.173021
H165	H	0.674402	0.184516	0.673053
H166	H	1.174402	0.684516	1.173053
H167	H	0.817923	-0.565220	-0.124044
H168	H	1.317923	-0.065220	0.375956
H169	H	0.745447	-0.463321	-0.095057
H170	H	1.245447	0.036679	0.404943
C171	C	0.449779	0.227585	-0.000222
C172	C	0.949779	0.727585	0.499778
H173	H	0.476674	0.265756	-0.000229
H174	H	0.976674	0.765756	0.499771
H175	H	0.421135	0.229808	0.043423
H176	H	0.921135	0.729808	0.543423
H177	H	0.421196	0.229792	-0.043894
H178	H	0.921196	0.729792	0.456106
C179	C	0.485403	-0.038287	-0.000187
C180	C	0.985403	0.461713	0.499813
H181	H	0.522403	-0.075519	-0.000170
H182	H	1.022403	0.424481	0.499830
H183	H	0.457520	-0.041332	-0.043850
H184	H	0.957520	0.458668	0.456150
H185	H	0.457471	-0.041333	0.043468
H186	H	0.957471	0.458667	0.543468
C187	C	0.002893	0.221033	-0.000291
C188	C	0.502893	0.721033	0.499709
H189	H	0.029792	0.259202	-0.000298
H190	H	0.529792	0.759202	0.499702
H191	H	-0.025744	0.223254	0.043360
H192	H	0.474256	0.723254	0.543360
H193	H	-0.025696	0.223247	-0.043958
H194	H	0.474304	0.723247	0.456042
H195	H	0.894987	-0.351701	0.094617
H196	H	1.394987	0.148299	0.594617
C197	C	0.919690	-0.006955	0.173966
C198	C	1.419690	0.493045	0.673966
H199	H	0.947907	-0.035157	0.208710
H200	H	1.447907	0.464843	0.708710
H201	H	0.948519	0.017954	0.143201
H202	H	1.448519	0.517954	0.643201
H203	H	0.894789	-0.035811	0.143250
H204	H	1.394789	0.464189	0.643250
H205	H	0.147095	0.205029	-0.000262
H206	H	0.647095	0.705029	0.499738
H207	H	0.815983	-0.696644	-0.124048
H208	H	1.315983	-0.196644	0.375952
C209	C	0.824633	-0.107979	-0.143516
C210	C	1.324633	0.392021	0.356484
H211	H	0.824165	-0.139922	-0.184159
H212	H	1.324165	0.360078	0.315841
H213	H	0.865541	-0.085138	-0.146366
H214	H	1.365541	0.414862	0.353634
H215	H	0.784543	-0.074296	-0.146340
H216	H	1.284543	0.425704	0.353660
C217	C	0.904528	-0.495037	0.109541
C218	C	1.404528	0.004963	0.609541
H219	H	0.929215	-0.466337	0.140679
H220	H	1.429215	0.033663	0.640679
H221	H	0.936835	-0.527676	0.083649
H222	H	1.436835	-0.027676	0.583649
H223	H	0.874770	-0.519372	0.139779
H224	H	1.374770	-0.019372	0.639779
H225	H	0.822547	-0.249759	-0.124025
H226	H	1.322547	0.250241	0.375975
H227	H	0.734236	0.178393	0.328248
H228	H	1.234236	0.678393	0.828248
C229	C	0.815787	-0.707038	0.143075
C230	C	1.315787	-0.207038	0.643075
H231	H	0.815083	-0.755370	0.133301
H232	H	1.315083	-0.255370	0.633301
H233	H	0.775461	-0.689741	0.171123
H234	H	1.275461	-0.189741	0.671123
H235	H	0.856458	-0.700597	0.171107
H236	H	1.356458	-0.200597	0.671107
C237	C	0.735903	-0.319975	-0.109980
C238	C	1.235903	0.180025	0.390020
H239	H	0.711199	-0.348669	-0.141107
H240	H	1.211199	0.151331	0.358893
H241	H	0.765650	-0.295634	-0.140220
H242	H	1.265650	0.204366	0.359780
H243	H	0.703598	-0.287339	-0.084073
H244	H	1.203598	0.212661	0.415927
H245	H	0.822503	-0.249803	0.123594
H246	H	1.322503	0.250197	0.623594
H247	H	0.837110	-0.022324	0.571275
H248	H	1.337110	0.477676	1.071275
C249	C	0.919705	-0.006947	0.339443
C250	C	1.419705	0.493053	0.839443
H251	H	0.947927	-0.035145	0.304684
H252	H	1.447927	0.464855	0.804684
H253	H	0.894818	-0.035797	0.370205
H254	H	1.394818	0.464203	0.870205
H255	H	0.948539	0.017977	0.370159
H256	H	1.448539	0.517977	0.870159
H257	H	0.242665	0.179506	0.079334
H258	H	0.742665	0.679506	0.579334
H259	H	0.177867	-0.024674	-0.000245
H260	H	0.677867	0.475326	0.499755
H261	H	0.837103	-0.022328	0.428314
H262	H	1.337103	0.477672	0.928314
C263	C	0.800661	0.225390	0.417021
C264	C	1.300661	0.725390	0.917021
H265	H	0.801981	0.216325	0.364449
H266	H	1.301981	0.716325	0.864449
H267	H	0.836897	0.252519	0.429907
H268	H	1.336897	0.752519	0.929907
H269	H	0.756772	0.250267	0.429956
H270	H	1.256772	0.750267	0.929956
H271	H	0.906197	0.006585	0.671317
H272	H	1.406197	0.506585	1.171317
C273	C	0.919741	-0.006942	0.825528
C274	C	1.419741	0.493058	1.325528
H275	H	0.947964	-0.035136	0.790767
H276	H	1.447964	0.464864	1.290767
H277	H	0.894857	-0.035797	0.856288
H278	H	1.394857	0.464203	1.356288
H279	H	0.948574	0.017981	0.856247
H280	H	1.448574	0.517981	1.356247
C281	C	0.257842	-0.010463	-0.092347
C282	C	0.757842	0.489537	0.407653
H283	H	0.293676	-0.038882	-0.118452
H284	H	0.793676	0.461118	0.381548
H285	H	0.226384	0.013130	-0.127626
H286	H	0.726384	0.513130	0.372374
H287	H	0.233322	-0.038923	-0.060721
H288	H	0.733322	0.461077	0.439279
H289	H	0.734273	0.178403	0.814336
H290	H	1.234273	0.678403	1.314336
H291	H	0.803340	0.207314	0.571240
H292	H	1.303340	0.707314	1.071240
H293	H	0.734215	0.178389	0.185285
H294	H	1.234215	0.678389	0.685285
C295	C	0.409974	-0.008229	-0.092321
C296	C	0.909974	0.491771	0.407679
H297	H	0.457374	-0.000580	-0.086024
H298	H	0.957374	0.499420	0.413976
H299	H	0.397313	-0.002298	-0.143791
H300	H	0.897313	0.497702	0.356209
H301	H	0.404249	-0.054361	-0.076895
H302	H	0.904249	0.445639	0.423105
H303	H	0.593981	0.211581	-0.000189
H304	H	1.093981	0.711581	0.499811
