data_functionalizedCrystal
_audit_creation_method	'MofGen! by Chris Wilmer'
_symmetry_space_group_name_H-M	'P1'
_symmetry_Int_Tables_number	1
_symmetry_cell_setting	triclinic
loop_
_symmetry_equiv_pos_as_xyz
  x,y,z
_cell_length_a	18.215407
_cell_length_b	18.215405
_cell_length_c	18.215399
_cell_angle_alpha	89.969449
_cell_angle_beta	89.982632
_cell_angle_gamma	90.022329
loop_
_atom_site_label
_atom_site_type_symbol
_atom_site_fract_x
_atom_site_fract_y
_atom_site_fract_z
Zn1	Zn	1.125072	-0.293042	-0.416054
Zn2	Zn	1.625072	0.206958	0.083946
Zn3	Zn	1.124980	-0.416113	-0.292982
Zn4	Zn	1.624980	0.083887	0.207018
Zn5	Zn	1.002004	-0.293060	-0.293007
Zn6	Zn	1.502004	0.206940	0.206993
Zn7	Zn	1.001970	-0.416066	-0.416012
Zn8	Zn	1.501970	0.083934	0.083988
O9	O	1.063507	-0.354570	-0.354514
O10	O	1.563507	0.145430	0.145486
O11	O	1.228044	-0.309380	-0.399736
O12	O	1.728044	0.190620	0.100264
O13	O	1.108643	-0.399817	-0.190001
O14	O	1.608643	0.100183	0.309999
O15	O	1.018382	-0.190073	-0.309357
O16	O	1.518382	0.309927	0.190643
O17	O	1.227977	-0.399800	-0.309315
O18	O	1.727977	0.100200	0.190685
O19	O	1.108799	-0.190060	-0.399759
O20	O	1.608799	0.309940	0.100241
O21	O	1.018293	-0.309410	-0.190019
O22	O	1.518293	0.190590	0.309981
O23	O	0.899016	-0.309364	-0.309317
O24	O	1.399016	0.190636	0.190683
O25	O	1.018324	-0.399719	-0.519002
O26	O	1.518324	0.100281	-0.019002
O27	O	0.898991	-0.399736	-0.399688
O28	O	1.398991	0.100264	0.100312
O29	O	1.108766	-0.309334	-0.519033
O30	O	1.608766	0.190666	-0.019033
O31	O	1.108610	-0.519091	-0.309275
O32	O	1.608610	-0.019091	0.190725
O33	O	1.018235	-0.519056	-0.399665
O34	O	1.518235	-0.019056	0.100335
C35	C	0.872301	-0.354548	-0.354501
C36	C	1.372301	0.145452	0.145499
C37	C	0.790502	-0.354556	-0.354513
C38	C	1.290502	0.145444	0.145487
C39	C	1.063429	-0.545777	-0.354479
C40	C	1.563429	-0.045777	0.145521
C41	C	1.063463	-0.627575	-0.354488
C42	C	1.563463	-0.127575	0.145512
C43	C	1.110632	-0.815763	-0.307509
C44	C	1.610632	-0.315763	0.192491
C45	C	1.110665	-0.892622	-0.307526
C46	C	1.610665	-0.392622	0.192474
C47	C	1.016476	-0.892625	-0.401572
C48	C	1.516476	-0.392625	0.098428
C49	C	1.016447	-0.815768	-0.401557
C50	C	1.516447	-0.315768	0.098443
C51	C	1.063524	-0.777339	-0.354522
C52	C	1.563524	-0.277339	0.145478
C53	C	1.063586	-0.931055	-0.354554
C54	C	1.563586	-0.431055	0.145446
C55	C	1.063621	-1.014389	-0.354574
C56	C	1.563621	-0.514389	0.145426
C57	C	1.063490	-0.694000	-0.354503
C58	C	1.563490	-0.194000	0.145497
C59	C	0.602342	-0.307571	-0.401669
C60	C	1.102342	0.192429	0.098331
C61	C	0.525483	-0.307577	-0.401672
C62	C	1.025483	0.192423	0.098328
C63	C	0.525424	-0.401590	-0.307372
C64	C	1.025424	0.098410	0.192628
C65	C	0.602281	-0.401580	-0.307366
C66	C	1.102281	0.098420	0.192634
C67	C	0.640738	-0.354571	-0.354519
C68	C	1.140738	0.145429	0.145481
C69	C	0.487022	-0.354588	-0.354527
C70	C	0.987022	0.145412	0.145473
C71	C	0.403688	-0.354595	-0.354529
C72	C	0.903688	0.145405	0.145471
C73	C	0.724077	-0.354563	-0.354516
C74	C	1.224077	0.145437	0.145484
C75	C	1.255460	-0.354593	-0.354527
C76	C	1.755460	0.145407	0.145473
C77	C	1.337259	-0.354603	-0.354533
C78	C	1.837259	0.145397	0.145467
C79	C	1.063552	-0.354520	-0.546467
C80	C	1.563552	0.145480	-0.046467
C81	C	1.063571	-0.354498	-0.628266
C82	C	1.563571	0.145502	-0.128266
C83	C	1.063605	-0.162617	-0.354566
C84	C	1.563605	0.337383	0.145434
C85	C	1.063647	-0.080818	-0.354588
C86	C	1.563647	0.419182	0.145412
C87	C	1.110681	-0.307390	-0.816477
C88	C	1.610681	0.192610	-0.316477
C89	C	1.110690	-0.307369	-0.893336
C90	C	1.610690	0.192631	-0.393336
C91	C	1.016513	-0.401492	-0.893293
C92	C	1.516513	0.098508	-0.393293
C93	C	1.016501	-0.401509	-0.816435
C94	C	1.516501	0.098491	-0.316435
C95	C	1.063589	-0.354459	-0.778029
C96	C	1.563589	0.145541	-0.278029
C97	C	1.063610	-0.354421	-0.931746
C98	C	1.563610	0.145579	-0.431746
C99	C	1.063619	-0.354398	-1.015079
C100	C	1.563619	0.145602	-0.515079
C101	C	1.063579	-0.354481	-0.694690
C102	C	1.563579	0.145519	-0.194690
C103	C	1.063504	-0.354568	-0.163308
C104	C	1.563504	0.145432	0.336692
C105	C	1.063628	-0.354382	-0.081509
C106	C	1.563628	0.145618	0.418491
H107	H	1.148966	-0.784476	-0.269210
H108	H	1.648966	-0.284476	0.230790
C109	C	0.483118	-0.453302	-0.255511
C110	C	0.983118	0.046698	0.244489
C111	C	0.493651	-0.447190	-0.171859
C112	C	0.993651	0.052810	0.328141
C113	C	0.451346	-0.498905	-0.119998
C114	C	0.951346	0.001095	0.380002
C115	C	0.398509	-0.556731	-0.151790
C116	C	0.898509	-0.056731	0.348210
C117	C	0.387973	-0.562845	-0.235447
C118	C	0.887973	-0.062845	0.264553
C119	C	0.430278	-0.511131	-0.287307
C120	C	0.930278	-0.011131	0.212693
H121	H	0.532767	-0.404382	-0.148320
H122	H	1.032767	0.095618	0.351680
H123	H	0.459146	-0.494378	-0.058070
H124	H	0.959146	0.005622	0.441930
H125	H	0.367192	-0.595013	-0.113400
H126	H	0.867192	-0.095013	0.386600
H127	H	0.348857	-0.605653	-0.258985
H128	H	0.848857	-0.105653	0.241015
H129	H	0.422478	-0.515657	-0.349235
H130	H	0.922478	-0.015657	0.150765
C131	C	0.644646	-0.255857	-0.453529
C132	C	1.144646	0.244143	0.046471
C133	C	0.634107	-0.261963	-0.537181
C134	C	1.134107	0.238037	-0.037181
C135	C	0.676410	-0.210245	-0.589041
C136	C	1.176410	0.289755	-0.089041
C137	C	0.729251	-0.152423	-0.557248
C138	C	1.229251	0.347577	-0.057248
C139	C	0.739792	-0.146315	-0.473592
C140	C	1.239792	0.353685	0.026408
C141	C	0.697490	-0.198032	-0.421732
C142	C	1.197490	0.301968	0.078268
H143	H	0.594989	-0.304769	-0.560720
H144	H	1.094989	0.195231	-0.060720
H145	H	0.668606	-0.214767	-0.650969
H146	H	1.168606	0.285233	-0.150969
H147	H	0.760566	-0.114139	-0.595637
H148	H	1.260566	0.385861	-0.095637
H149	H	0.778911	-0.103509	-0.450053
H150	H	1.278911	0.396491	0.049947
H151	H	0.705293	-0.193511	-0.359804
H152	H	1.205293	0.306489	0.140196
H153	H	1.149021	-0.269078	-0.785209
H154	H	1.649021	0.230922	-0.285209
H155	H	1.149035	-0.269039	-0.924636
H156	H	1.649035	0.230961	-0.424636
C157	C	0.964697	-0.453289	-0.774137
C158	C	1.464697	0.046711	-0.274137
C159	C	0.912908	-0.505048	-0.816378
C160	C	1.412908	-0.005048	-0.316378
C161	C	0.861104	-0.556823	-0.774080
C162	C	1.361104	-0.056823	-0.274080
C163	C	0.861090	-0.556838	-0.689539
C164	C	1.361090	-0.056838	-0.189539
C165	C	0.912881	-0.505077	-0.647293
C166	C	1.412881	-0.005077	-0.147293
C167	C	0.964684	-0.453302	-0.689592
C168	C	1.464684	0.046698	-0.189592
H169	H	0.912917	-0.505039	-0.878964
H170	H	1.412917	-0.005039	-0.378964
H171	H	0.822765	-0.595140	-0.805353
H172	H	1.322765	-0.095140	-0.305353
H173	H	0.822742	-0.595165	-0.658227
H174	H	1.322742	-0.095165	-0.158227
H175	H	0.912872	-0.505087	-0.584707
H176	H	1.412872	-0.005087	-0.084707
H177	H	1.003023	-0.414985	-0.658318
H178	H	1.503023	0.085015	-0.158318
H179	H	0.494224	-0.269304	-0.440065
H180	H	0.994224	0.230696	0.059935
H181	H	1.149026	-0.923903	-0.269245
H182	H	1.649026	-0.423903	0.230755
H183	H	0.978146	-0.923924	-0.439866
H184	H	1.478146	-0.423924	0.060134
H185	H	0.978086	-0.784481	-0.439845
H186	H	1.478086	-0.284481	0.060155
C187	C	0.644523	-0.453285	-0.255499
C188	C	1.144523	0.046715	0.244501
C189	C	0.602226	-0.505000	-0.203639
C190	C	1.102226	-0.005000	0.296361
C191	C	0.644468	-0.556700	-0.151773
C192	C	1.144468	-0.056700	0.348227
C193	C	0.729008	-0.556686	-0.151766
C194	C	1.229008	-0.056686	0.348234
C195	C	0.771311	-0.504969	-0.203627
C196	C	1.271311	-0.004969	0.296373
C197	C	0.729068	-0.453268	-0.255493
C198	C	1.229068	0.046732	0.244507
H199	H	0.539640	-0.505012	-0.203643
H200	H	1.039640	-0.005012	0.296357
H201	H	0.613153	-0.594984	-0.113381
H202	H	1.113153	-0.094984	0.386619
H203	H	0.760279	-0.594957	-0.113371
H204	H	1.260279	-0.094957	0.386629
H205	H	0.833896	-0.504956	-0.203623
H206	H	1.333896	-0.004956	0.296377
H207	H	0.760384	-0.414984	-0.293885
H208	H	1.260384	0.085016	0.206115
C209	C	0.964729	-0.453250	-0.935547
C210	C	1.464729	0.046750	-0.435547
C211	C	0.996610	-0.511016	-0.988368
C212	C	1.496610	-0.011016	-0.488368
C213	C	0.944829	-0.562778	-1.030623
C214	C	1.444829	-0.062778	-0.530623
C215	C	0.861167	-0.556774	-1.020058
C216	C	1.361167	-0.056774	-0.520058
C217	C	0.829281	-0.499006	-0.967234
C218	C	1.329281	0.000994	-0.467234
C219	C	0.881062	-0.447244	-0.924979
C220	C	1.381062	0.052756	-0.424979
H221	H	1.058546	-0.515462	-0.996191
H222	H	1.558546	-0.015462	-0.496191
H223	H	0.968434	-0.605542	-1.069727
H224	H	1.468434	-0.105542	-0.569727
H225	H	0.822835	-0.595092	-1.051338
H226	H	1.322835	-0.095092	-0.551338
H227	H	0.767345	-0.494560	-0.959411
H228	H	1.267345	0.005440	-0.459411
H229	H	0.857457	-0.404481	-0.885876
H230	H	1.357457	0.095519	-0.385876
