data_functionalizedCrystal
_audit_creation_method	'MofGen! by Chris Wilmer'
_symmetry_space_group_name_H-M	'P1'
_symmetry_Int_Tables_number	1
_symmetry_cell_setting	triclinic
loop_
_symmetry_equiv_pos_as_xyz
  x,y,z
_cell_length_a	12.837943
_cell_length_b	12.503552
_cell_length_c	12.837942
_cell_angle_alpha	93.893149
_cell_angle_beta	85.171060
_cell_angle_gamma	93.895408
loop_
_atom_site_label
_atom_site_type_symbol
_atom_site_fract_x
_atom_site_fract_y
_atom_site_fract_z
O1	O	1.407780	0.089301	-0.266687
O2	O	1.104647	0.089307	-0.253244
O3	O	1.249492	0.089297	-0.108399
O4	O	1.262936	0.089310	-0.411532
O5	O	1.238586	-0.089344	-0.119301
O6	O	1.093741	-0.089335	-0.264146
O7	O	1.396874	-0.089341	-0.277590
Cu8	Cu	1.244312	-0.105649	-0.271863
Cu9	Cu	1.257210	0.105615	-0.258970
O10	O	1.252030	-0.089331	-0.422434
C11	C	1.060125	-0.000013	-0.254153
C12	C	0.943710	-0.000011	-0.240609
N13	N	1.235248	-0.254241	-0.280932
C14	C	0.718836	-0.000019	-0.403439
C15	C	0.609453	-0.000018	-0.390717
C16	C	0.615561	-0.000014	-0.202446
C17	C	0.724943	-0.000016	-0.215167
C18	C	0.776577	-0.000017	-0.315667
C19	C	0.885961	-0.000010	-0.328387
C20	C	0.892066	-0.000014	-0.140117
C21	C	0.782684	-0.000013	-0.127395
C22	C	1.279609	-0.526678	-0.236550
C23	C	1.221923	-0.473350	-0.294273
C24	C	1.229339	-0.351426	-0.286848
C25	C	1.272194	-0.648612	-0.243973
C26	C	1.441397	-0.000019	-0.276680
C27	C	1.557812	-0.000014	-0.290224
C28	C	1.239497	-0.000023	-0.074781
C29	C	1.225953	-0.000021	0.041634
N30	N	1.266281	0.254207	-0.249894
C31	C	1.262024	-0.000009	-0.456052
C32	C	1.275569	-0.000004	-0.572467
C33	C	1.388784	-0.000002	0.266509
C34	C	1.376062	0.000000	0.375892
C35	C	1.187791	-0.000007	0.369784
C36	C	1.200512	-0.000009	0.260402
C37	C	1.301012	-0.000008	0.208768
C38	C	1.313731	-0.000018	0.099383
C39	C	1.125461	-0.000017	0.093278
C40	C	1.112740	-0.000015	0.202660
H41	H	0.928000	-0.000013	-0.410219
Cl42	Cl	0.536867	-0.000024	-0.501064
Cl43	Cl	0.717763	-0.000015	-0.001060
Cl44	Cl	0.986405	-0.000007	0.267582
Cl45	Cl	1.364455	-0.455799	-0.151650
Cl46	Cl	1.440071	-0.000024	0.034473
H47	H	1.447536	0.000009	0.422901
H48	H	1.105969	0.000004	0.411844
Cl49	Cl	0.964663	0.000005	-0.029767
H50	H	0.760877	-0.000018	-0.485269
Cl51	Cl	1.137080	-0.544232	-0.379184
H52	H	1.470614	-0.000011	0.224468
H53	H	0.573496	-0.000102	-0.120629
H54	H	1.053990	-0.000031	0.046253
