data_functionalizedCrystal
_audit_creation_method	'MofGen! by Chris Wilmer'
_symmetry_space_group_name_H-M	'P1'
_symmetry_Int_Tables_number	1
_symmetry_cell_setting	triclinic
loop_
_symmetry_equiv_pos_as_xyz
  x,y,z
_cell_length_a	7.681215
_cell_length_b	10.654550
_cell_length_c	10.654550
_cell_angle_alpha	84.484931
_cell_angle_beta	83.622652
_cell_angle_gamma	83.624266
loop_
_atom_site_label
_atom_site_type_symbol
_atom_site_fract_x
_atom_site_fract_y
_atom_site_fract_z
O1	O	0.146303	-1.678525	-0.187080
O2	O	0.146335	-1.313049	-0.203888
O3	O	0.146307	-1.504189	-0.012744
O4	O	0.146331	-1.487385	-0.378224
O5	O	-0.146562	-1.482785	0.008643
O6	O	-0.146534	-1.291645	-0.182502
O7	O	-0.146567	-1.657121	-0.165693
Zn8	Zn	-0.193050	-1.470985	-0.170702
Zn9	Zn	0.192818	-1.499185	-0.198879
O10	O	-0.146539	-1.465981	-0.356837
C11	C	-0.000096	-1.255549	-0.191961
C12	C	-0.000084	-1.116107	-0.188270
C13	C	-0.000127	-1.492253	0.044747
C14	C	-0.000124	-1.488562	0.184190
N15	N	-0.456395	-1.451748	-0.151471
N16	N	0.456163	-1.518432	-0.218101
C17	C	-0.000132	-1.714621	-0.177620
C18	C	-0.000133	-1.854064	-0.181312
C19	C	-0.000081	-1.036622	-0.300812
C20	C	-0.000112	-0.905599	-0.297333
C21	C	-0.000140	-0.933560	-0.068762
C22	C	-0.000122	-1.064579	-0.072241
C23	C	-0.000101	-1.477917	-0.414329
C24	C	-0.000093	-1.481610	-0.553773
C25	C	-0.000133	-1.601103	0.263677
C26	C	-0.000111	-1.597628	0.394696
C27	C	-0.000078	-1.369061	0.366730
C28	C	-0.000087	-1.372538	0.235713
H29	H	-0.531630	-1.383713	-0.083463
Cl30	Cl	-0.427678	-1.623494	-0.323096
Cl31	Cl	-0.000044	-1.101394	-0.446676
H32	H	-0.000114	-0.840886	-0.388976
Cl33	Cl	-0.000060	-1.231047	0.135778
H34	H	-0.000129	-1.129300	0.019411
Cl35	Cl	-0.000177	-0.868773	0.077095
Cl36	Cl	-0.000174	-1.746961	0.198910
Cl37	Cl	-0.000119	-1.739115	0.494617
Cl38	Cl	-0.000033	-1.223210	0.431511
