data_functionalizedCrystal
_audit_creation_method	'MofGen! by Chris Wilmer'
_symmetry_space_group_name_H-M	'P1'
_symmetry_Int_Tables_number	1
_symmetry_cell_setting	triclinic
loop_
_symmetry_equiv_pos_as_xyz
  x,y,z
_cell_length_a	25.639239
_cell_length_b	12.759401
_cell_length_c	12.759393
_cell_angle_alpha	90.019676
_cell_angle_beta	90.035978
_cell_angle_gamma	90.039113
loop_
_atom_site_label
_atom_site_type_symbol
_atom_site_fract_x
_atom_site_fract_y
_atom_site_fract_z
Zn1	Zn	-0.208120	1.606091	0.593945
Zn2	Zn	-0.295565	1.605909	0.418248
Zn3	Zn	-0.208146	1.430390	0.418284
Zn4	Zn	-0.295526	1.430308	0.593889
O5	O	-0.251839	1.518175	0.506091
O6	O	-0.219724	1.753088	0.570646
O7	O	-0.283995	1.582584	0.271232
O8	O	-0.134977	1.453808	0.441624
O9	O	-0.283970	1.752954	0.441563
O10	O	-0.134958	1.582895	0.570681
O11	O	-0.219769	1.453631	0.271258
O12	O	-0.219732	1.283358	0.441570
O13	O	-0.283905	1.453669	0.740918
O14	O	-0.283930	1.283298	0.570586
O15	O	-0.219687	1.582815	0.740958
O16	O	-0.368725	1.582504	0.441509
O17	O	-0.368697	1.453492	0.570552
C18	C	-0.251830	1.245207	0.506076
C19	C	-0.251839	1.128431	0.506095
C20	C	-0.218447	1.073639	0.573413
C21	C	-0.218452	0.963915	0.573419
C22	C	-0.285246	0.963784	0.438789
C23	C	-0.285238	1.073506	0.438777
C24	C	-0.387682	1.517998	0.506043
C25	C	-0.445796	1.518018	0.506058
C26	C	-0.806161	1.585527	0.439013
C27	C	-0.860765	1.585568	0.439027
O28	O	-0.889004	1.642782	0.381971
N29	N	-0.888078	1.518359	0.506161
C30	C	-0.860784	1.451113	0.573292
O31	O	-0.889030	1.393952	0.630397
C32	C	-0.806181	1.451079	0.573283
C33	C	-0.778870	1.518284	0.506137
C34	C	-0.778850	1.652728	0.371874
C35	C	-0.724250	1.652685	0.371859
C36	C	-0.696960	1.585442	0.438983
C37	C	-0.724270	1.518242	0.506122
C38	C	-0.778888	1.383839	0.640419
C39	C	-0.724281	1.383810	0.640404
C40	C	-0.696970	1.451016	0.573259
C41	C	-0.642379	1.450956	0.573231
N42	N	-0.615066	1.518165	0.506097
C43	C	-0.642356	1.585408	0.438973
C44	C	-0.975455	1.451192	0.573309
C45	C	-1.030057	1.451221	0.573314
C46	C	-1.030034	1.585677	0.439050
C47	C	-0.975431	1.585642	0.439040
C48	C	-0.948142	1.518401	0.506175
C49	C	-0.527691	1.585313	0.438946
C50	C	-0.473086	1.585261	0.438934
C51	C	-0.473113	1.450810	0.573201
C52	C	-0.527714	1.450857	0.573210
C53	C	-0.555002	1.518117	0.506079
O54	O	-0.614106	1.393774	0.630261
O55	O	-0.614104	1.642569	0.381888
C56	C	-0.115466	1.518381	0.506163
C57	C	-0.057352	1.518468	0.506193
C58	C	-0.251789	1.518253	0.780125
C59	C	-0.251768	1.518287	0.896902
C60	C	-0.251849	1.792208	0.506107
C61	C	-0.251853	1.908984	0.506113
C62	C	-0.251851	1.518157	0.233124
C63	C	-0.251725	1.518327	0.116348
C64	C	-0.218324	1.585539	0.951786
C65	C	-0.218302	1.585556	1.061511
C66	C	-0.285170	1.451068	1.061455
C67	C	-0.285190	1.451045	0.951733
H68	H	-0.312439	0.919051	0.383982
H69	H	-0.450852	1.639988	0.384252
H70	H	-0.312430	1.118118	0.383954
H71	H	-0.191068	1.640318	1.106193
H72	H	-0.953238	1.396428	0.627975
O73	O	-0.185961	0.910643	0.638666
C74	C	-0.152166	0.847167	0.578988
H75	H	-0.148882	0.880200	0.496250
H76	H	-0.168335	0.763991	0.575315
C77	C	-0.101881	0.804993	0.732144
C78	C	-0.097843	0.845570	0.630527
H79	H	-0.068372	0.804003	0.763937
H80	H	-0.124650	0.847755	0.772352
H81	H	-0.115356	0.735684	0.729069
H82	H	-0.084374	0.914883	0.633604
H83	H	-0.075070	0.802820	0.590321
H84	H	-0.191108	1.640288	0.907146
O85	O	-0.317605	1.385602	0.898365
C86	C	-0.287845	1.317798	0.834885
H87	H	-0.246661	1.311378	0.867976
H88	H	-0.286058	1.350270	0.751735
C89	C	-0.363967	1.216423	0.792521
C90	C	-0.313385	1.208532	0.833169
H91	H	-0.379722	1.149024	0.791458
H92	H	-0.384018	1.262106	0.835286
H93	H	-0.362471	1.243488	0.723234
H94	H	-0.314881	1.181481	0.902460
H95	H	-0.293335	1.162841	0.790417
O96	O	-0.554131	1.650797	0.373784
C97	C	-0.540725	1.755482	0.396855
H98	H	-0.501067	1.757590	0.437252
H99	H	-0.571419	1.790879	0.450894
C100	C	-0.586896	1.816583	0.244870
C101	C	-0.538186	1.819173	0.294479
H102	H	-0.585332	1.855873	0.181722
H103	H	-0.595930	1.746056	0.229329
H104	H	-0.612469	1.846078	0.289914
H105	H	-0.512614	1.789666	0.249441
H106	H	-0.529147	1.889697	0.310011
O107	O	-0.185953	1.126832	0.638832
C108	C	-0.156491	1.054937	0.698267
H109	H	-0.154660	0.976707	0.655246
H110	H	-0.175686	1.043279	0.777989
C111	C	-0.103099	1.193907	0.766452
C112	C	-0.100847	1.097827	0.713608
H113	H	-0.068776	1.220365	0.775920
H114	H	-0.122949	1.242345	0.726413
H115	H	-0.119098	1.184180	0.832882
H116	H	-0.084855	1.107558	0.647175
H117	H	-0.080993	1.049391	0.753637
O118	O	-0.697805	1.718079	0.306611
C119	C	-0.733611	1.777415	0.247362
H120	H	-0.772515	1.781037	0.290413
H121	H	-0.739466	1.738996	0.167533
C122	C	-0.664476	1.884787	0.179448
C123	C	-0.712258	1.889243	0.232329
H124	H	-0.651304	1.953766	0.170170
H125	H	-0.640353	1.844809	0.219362
H126	H	-0.669362	1.852766	0.112929
H127	H	-0.707370	1.921251	0.298851
H128	H	-0.736380	1.929229	0.192426
O129	O	-0.805361	1.718224	0.306846
C130	C	-0.836878	1.786063	0.366760
H131	H	-0.820399	1.792406	0.449523
H132	H	-0.878291	1.753675	0.370311
C133	C	-0.857867	1.887560	0.213960
C134	C	-0.837623	1.895357	0.315608
H135	H	-0.858329	1.954977	0.182406
H136	H	-0.836635	1.841854	0.173593
H137	H	-0.892376	1.860566	0.216933
H138	H	-0.803113	1.922338	0.312633
H139	H	-0.858850	1.941071	0.355974
O140	O	-1.056554	1.651185	0.374037
C141	C	-1.088065	1.719003	0.433990
H142	H	-1.071571	1.725328	0.516744
H143	H	-1.129475	1.686605	0.437562
C144	C	-1.109084	1.820534	0.281230
C145	C	-1.088824	1.828310	0.382867
H146	H	-1.109555	1.887959	0.249694
H147	H	-1.087857	1.774842	0.240837
H148	H	-1.143591	1.793532	0.284220
H149	H	-1.054316	1.855299	0.379875
H150	H	-1.110045	1.874009	0.423259
O151	O	-0.805327	1.318525	0.705748
C152	C	-0.769521	1.259163	0.764968
H153	H	-0.730576	1.302177	0.768615
H154	H	-0.763767	1.179384	0.726432
C155	C	-0.838619	1.191155	0.872307
C156	C	-0.790788	1.243990	0.876794
H157	H	-0.851738	1.181790	0.941286
H158	H	-0.862743	1.231144	0.832408
H159	H	-0.833818	1.124677	0.840189
H160	H	-0.795591	1.310471	0.908900
H161	H	-0.766665	1.204011	0.916702
H162	H	-0.953198	1.640367	0.384365
H163	H	-0.702064	1.329055	0.695077
O164	O	-0.554166	1.385538	0.638529
C165	C	-0.518367	1.326158	0.697748
H166	H	-0.479418	1.369154	0.701400
H167	H	-0.512621	1.246378	0.659208
C168	C	-0.587474	1.258174	0.805078
C169	C	-0.539638	1.310988	0.809572
H170	H	-0.600596	1.248811	0.874055
H171	H	-0.611593	1.298177	0.765179
H172	H	-0.582680	1.191696	0.772957
H173	H	-0.544434	1.377469	0.841681
H174	H	-0.515520	1.270996	0.849479
O175	O	-0.317621	1.385857	1.114883
C176	C	-0.310425	1.400278	1.223497
H177	H	-0.293303	1.481388	1.238503
H178	H	-0.282573	1.338011	1.254641
C179	C	-0.384345	1.290958	1.261367
C180	C	-0.363320	1.390582	1.279799
H181	H	-0.416972	1.284972	1.296098
H182	H	-0.389192	1.281238	1.188192
H183	H	-0.361130	1.239079	1.287321
H184	H	-0.386531	1.442457	1.253833
H185	H	-0.358478	1.400310	1.352971
H186	H	-1.052288	1.396486	0.627980
H187	H	-0.450885	1.396058	0.627850
