data_functionalizedCrystal
_audit_creation_method	'MofGen! by Chris Wilmer'
_symmetry_space_group_name_H-M	'P1'
_symmetry_Int_Tables_number	1
_symmetry_cell_setting	triclinic
loop_
_symmetry_equiv_pos_as_xyz
  x,y,z
_cell_length_a	10.489741
_cell_length_b	10.654550
_cell_length_c	9.130313
_cell_angle_alpha	90.000276
_cell_angle_beta	89.995761
_cell_angle_gamma	95.487948
loop_
_atom_site_label
_atom_site_type_symbol
_atom_site_fract_x
_atom_site_fract_y
_atom_site_fract_z
O1	O	0.179162	-1.667923	-0.121689
O2	O	0.196231	-1.302453	-0.121716
O3	O	0.002095	-1.493504	-0.121693
O4	O	0.373299	-1.476872	-0.121712
O5	O	0.002089	-1.493491	0.121906
O6	O	0.196226	-1.302440	0.121883
O7	O	0.179156	-1.667910	0.121910
Cu8	Cu	0.187691	-1.485174	0.144139
Cu9	Cu	0.187697	-1.485189	-0.143945
O10	O	0.373293	-1.476859	0.121887
C11	C	0.194975	-1.255648	0.000080
C12	C	0.191225	-1.116203	0.000070
C13	C	-0.045439	-1.492241	0.000105
C14	C	-0.187067	-1.488483	0.000102
N15	N	0.187685	-1.485172	0.346761
C16	C	-0.255148	-1.366923	0.000083
C17	C	-0.347301	-1.424340	0.120194
C18	C	-0.347270	-1.424382	-0.119976
C19	C	-0.277354	-1.545951	0.120313
C20	C	-0.277314	-1.545976	-0.119965
C21	C	-0.369439	-1.603481	0.000176
C22	C	0.420827	-1.478122	0.000085
C23	C	0.562454	-1.481880	0.000079
C24	C	0.180413	-1.714715	0.000110
C25	C	0.184162	-1.854160	0.000111
C26	C	0.305530	-1.036771	0.000068
C27	C	0.301999	-0.905748	0.000094
C28	C	0.069849	-0.933603	0.000117
C29	C	0.073381	-1.064623	0.000102
N30	N	0.187693	-1.485201	-0.346568
C31	C	0.101758	-1.569798	0.423423
C32	C	0.101758	-1.569810	0.576760
C33	C	0.273624	-1.400565	0.576760
C34	C	0.273617	-1.400548	0.423426
H35	H	-0.205449	-1.266977	0.000196
O36	O	-0.384196	-1.362777	0.241219
C37	C	-0.325432	-1.238101	0.240807
H38	H	-0.297975	-1.209209	0.123925
H39	H	-0.235776	-1.232324	0.311991
C40	C	-0.453164	-1.184232	0.445645
C41	C	-0.419451	-1.148742	0.302086
H42	H	-0.511156	-1.129110	0.483450
H43	H	-0.492752	-1.268229	0.445927
H44	H	-0.378442	-1.179417	0.504946
H45	H	-0.494170	-1.153572	0.242784
H46	H	-0.379878	-1.064742	0.301796
H47	H	-0.246549	-1.597335	0.221971
O48	O	0.018244	-1.652140	0.651002
C49	C	-0.057621	-1.726798	0.550449
H50	H	-0.005308	-1.728673	0.441142
H51	H	-0.152770	-1.685172	0.534157
C52	C	-0.146877	-1.859745	0.744529
C53	C	-0.082621	-1.862056	0.610279
H54	H	-0.162304	-1.943177	0.781435
H55	H	-0.095769	-1.809444	0.812275
H56	H	-0.226161	-1.825051	0.730934
H57	H	-0.003332	-1.896735	0.623879
H58	H	-0.133715	-1.912366	0.542536
H59	H	-0.019705	-1.129300	0.000107
O60	O	-0.044651	-0.883556	0.000390
C61	C	-0.114420	-0.924077	0.126533
H62	H	-0.045537	-0.951947	0.214710
H63	H	-0.184741	-1.008812	0.098007
C64	C	-0.273293	-0.781996	0.075446
C65	C	-0.188688	-0.816216	0.183751
H66	H	-0.319110	-0.715466	0.110738
H67	H	-0.226292	-0.754699	-0.009542
H68	H	-0.331882	-0.852619	0.051684
H69	H	-0.130091	-0.745599	0.207498
H70	H	-0.235681	-0.843499	0.268745
H71	H	-0.378207	-1.372937	-0.221530
H72	H	0.401486	-1.078762	0.000054
H73	H	-0.418912	-1.703517	0.000250
H74	H	0.031785	-1.638702	0.361007
H75	H	-0.246292	-1.597372	-0.221508
H76	H	0.343589	-1.331669	0.639195
H77	H	0.343589	-1.331629	0.361003
H78	H	0.395078	-0.841079	0.000096
