data_functionalizedCrystal
_audit_creation_method	'MofGen! by Chris Wilmer'
_symmetry_space_group_name_H-M	'P1'
_symmetry_Int_Tables_number	1
_symmetry_cell_setting	triclinic
loop_
_symmetry_equiv_pos_as_xyz
  x,y,z
_cell_length_a	21.295419
_cell_length_b	21.295412
_cell_length_c	21.295417
_cell_angle_alpha	89.969332
_cell_angle_beta	90.045308
_cell_angle_gamma	89.976510
loop_
_atom_site_label
_atom_site_type_symbol
_atom_site_fract_x
_atom_site_fract_y
_atom_site_fract_z
Zn1	Zn	0.962349	-0.355911	-0.250376
Zn2	Zn	1.212349	-0.105911	-0.000376
Zn3	Zn	1.462349	0.144089	0.249624
Zn4	Zn	1.712349	0.394089	0.499624
Zn5	Zn	0.962253	-0.250637	-0.355645
Zn6	Zn	1.212253	-0.000637	-0.105645
Zn7	Zn	1.462253	0.249363	0.144355
Zn8	Zn	1.712253	0.499363	0.394355
Zn9	Zn	0.857074	-0.250656	-0.250421
Zn10	Zn	1.107074	-0.000656	-0.000421
Zn11	Zn	1.357074	0.249344	0.249579
Zn12	Zn	1.607074	0.499344	0.499579
Zn13	Zn	0.857042	-0.355868	-0.355639
Zn14	Zn	1.107042	-0.105868	-0.105639
Zn15	Zn	1.357042	0.144132	0.144361
Zn16	Zn	1.607042	0.394132	0.394361
O17	O	0.909680	-0.303268	-0.303020
O18	O	1.159680	-0.053268	-0.053020
O19	O	1.409680	0.196732	0.196980
O20	O	1.659680	0.446732	0.446980
O21	O	1.050426	-0.341956	-0.264324
O22	O	1.300426	-0.091956	-0.014324
O23	O	1.550426	0.158044	0.235676
O24	O	1.800426	0.408044	0.485676
O25	O	0.948275	-0.162550	-0.341708
O26	O	1.198275	0.087450	-0.091708
O27	O	1.448275	0.337450	0.158292
O28	O	1.698275	0.587450	0.408292
O29	O	0.871093	-0.264645	-0.162325
O30	O	1.121093	-0.014645	0.087675
O31	O	1.371093	0.235355	0.337675
O32	O	1.621093	0.485355	0.587675
O33	O	1.050355	-0.264611	-0.341665
O34	O	1.300355	-0.014611	-0.091665
O35	O	1.550355	0.235389	0.158335
O36	O	1.800355	0.485389	0.408335
O37	O	0.948438	-0.341975	-0.162293
O38	O	1.198438	-0.091975	0.087707
O39	O	1.448438	0.158025	0.337707
O40	O	1.698438	0.408025	0.587707
O41	O	0.871000	-0.162564	-0.264400
O42	O	1.121000	0.087436	-0.014400
O43	O	1.371000	0.337436	0.235600
O44	O	1.621000	0.587436	0.485600
O45	O	0.768980	-0.264603	-0.264394
O46	O	1.018980	-0.014603	-0.014394
O47	O	1.268980	0.235397	0.235606
O48	O	1.518980	0.485397	0.485606
O49	O	0.871037	-0.443963	-0.341654
O50	O	1.121037	-0.193963	-0.091654
O51	O	1.371037	0.056037	0.158346
O52	O	1.621037	0.306037	0.408346
O53	O	0.768957	-0.341902	-0.341697
O54	O	1.018957	-0.091902	-0.091697
O55	O	1.268957	0.158098	0.158303
O56	O	1.518957	0.408098	0.408303
O57	O	0.948406	-0.443995	-0.264319
O58	O	1.198406	-0.193995	-0.014319
O59	O	1.448406	0.056005	0.235681
O60	O	1.698406	0.306005	0.485681
O61	O	0.948243	-0.264570	-0.443733
O62	O	1.198243	-0.014570	-0.193733
O63	O	1.448243	0.235430	0.056267
O64	O	1.698243	0.485430	0.306267
O65	O	0.870945	-0.341883	-0.443729
O66	O	1.120945	-0.091883	-0.193729
O67	O	1.370945	0.158117	0.056271
O68	O	1.620945	0.408117	0.306271
C69	C	0.746128	-0.303250	-0.303050
C70	C	0.996128	-0.053250	-0.053050
C71	C	1.246128	0.196750	0.196950
C72	C	1.496128	0.446750	0.446950
C73	C	0.676160	-0.303258	-0.303078
C74	C	0.926160	-0.053258	-0.053078
C75	C	1.176160	0.196742	0.196922
C76	C	1.426160	0.446742	0.446922
C77	C	0.643352	-0.343593	-0.262873
C78	C	0.893352	-0.093593	-0.012873
C79	C	1.143352	0.156407	0.237127
C80	C	1.393352	0.406407	0.487127
C81	C	0.577610	-0.343596	-0.262856
C82	C	0.827610	-0.093596	-0.012856
C83	C	1.077610	0.156404	0.237144
C84	C	1.327610	0.406404	0.487144
C85	C	0.544677	-0.303269	-0.303056
C86	C	0.794677	-0.053269	-0.053056
C87	C	1.044677	0.196731	0.196944
C88	C	1.294677	0.446731	0.446944
C89	C	0.577493	-0.262926	-0.343264
C90	C	0.827493	-0.012926	-0.093264
C91	C	1.077493	0.237074	0.156736
C92	C	1.327493	0.487074	0.406736
C93	C	0.643234	-0.262920	-0.343275
C94	C	0.893234	-0.012920	-0.093275
C95	C	1.143234	0.237080	0.156725
C96	C	1.393234	0.487080	0.406725
N97	N	0.441402	-0.298349	-0.358134
N98	N	0.691402	-0.048349	-0.108134
N99	N	0.941402	0.201651	0.141866
N100	N	1.191402	0.451651	0.391866
N101	N	0.378951	-0.298359	-0.358121
N102	N	0.628951	-0.048359	-0.108121
N103	N	0.878951	0.201641	0.141879
N104	N	1.128951	0.451641	0.391879
C105	C	0.346603	-0.303283	-0.303023
C106	C	0.596603	-0.053283	-0.053023
C107	C	0.846603	0.196717	0.196977
C108	C	1.096603	0.446717	0.446977
N109	N	0.379065	-0.308210	-0.247937
N110	N	0.629065	-0.058210	0.002063
N111	N	0.879065	0.191790	0.252063
N112	N	1.129065	0.441790	0.502063
N113	N	0.441523	-0.308205	-0.247950
N114	N	0.691523	-0.058205	0.002050
N115	N	0.941523	0.191795	0.252050
N116	N	1.191523	0.441795	0.502050
C117	C	0.473392	-0.303271	-0.303048
C118	C	0.723392	-0.053271	-0.053048
C119	C	0.973392	0.196729	0.196952
C120	C	1.223392	0.446729	0.446952
C121	C	0.242510	-0.343624	-0.262796
C122	C	0.492510	-0.093624	-0.012796
C123	C	0.742510	0.156376	0.237204
C124	C	0.992510	0.406376	0.487204
C125	C	0.176766	-0.343622	-0.262778
C126	C	0.426766	-0.093622	-0.012778
C127	C	0.676766	0.156378	0.237222
C128	C	0.926766	0.406378	0.487222
C129	C	0.176650	-0.262955	-0.343192
C130	C	0.426650	-0.012955	-0.093192
C131	C	0.676650	0.237045	0.156808
C132	C	0.926650	0.487045	0.406808
C133	C	0.242393	-0.262953	-0.343204
C134	C	0.492393	-0.012953	-0.093204
C135	C	0.742393	0.237047	0.156796
C136	C	0.992393	0.487047	0.406796
C137	C	0.275318	-0.303291	-0.303007
C138	C	0.525318	-0.053291	-0.053007
C139	C	0.775318	0.196709	0.196993
C140	C	1.025318	0.446709	0.446993
C141	C	0.909729	-0.467458	-0.302981
C142	C	1.159729	-0.217458	-0.052981
C143	C	1.409729	0.032542	0.197019
C144	C	1.659729	0.282542	0.447019
C145	C	0.909750	-0.537427	-0.302964
C146	C	1.159750	-0.287427	-0.052964
C147	C	1.409750	-0.037427	0.197036
C148	C	1.659750	0.212573	0.447036
C149	C	0.869524	-0.570291	-0.262706
C150	C	1.119524	-0.320291	-0.012706
C151	C	1.369524	-0.070291	0.237294
C152	C	1.619524	0.179709	0.487294
C153	C	0.869521	-0.636033	-0.262694
C154	C	1.119521	-0.386033	-0.012694
C155	C	1.369521	-0.136033	0.237306
C156	C	1.619521	0.113967	0.487306
C157	C	0.909757	-0.668909	-0.302934
C158	C	1.159757	-0.418909	-0.052934
C159	C	1.409757	-0.168909	0.197066
C160	C	1.659757	0.081091	0.447066
C161	C	0.949986	-0.636037	-0.343201
C162	C	1.199986	-0.386037	-0.093201
C163	C	1.449986	-0.136037	0.156799
C164	C	1.699986	0.113963	0.406799
C165	C	0.949982	-0.570296	-0.343216
C166	C	1.199982	-0.320296	-0.093216
C167	C	1.449982	-0.070296	0.156784
C168	C	1.699982	0.179704	0.406784
N169	N	0.964861	-0.772147	-0.307728
N170	N	1.214861	-0.522147	-0.057728
N171	N	1.464861	-0.272147	0.192272
N172	N	1.714861	-0.022147	0.442272
N173	N	0.964862	-0.834599	-0.307710
N174	N	1.214862	-0.584599	-0.057710
N175	N	1.464862	-0.334599	0.192290
N176	N	1.714862	-0.084599	0.442290
C177	C	0.909768	-0.866984	-0.302892
C178	C	1.159768	-0.616984	-0.052892
C179	C	1.409768	-0.366984	0.197108
C180	C	1.659768	-0.116984	0.447108
N181	N	0.854671	-0.834558	-0.298081
N182	N	1.104671	-0.584558	-0.048081
N183	N	1.354671	-0.334558	0.201919
N184	N	1.604671	-0.084558	0.451919
N185	N	0.854671	-0.772101	-0.298096
N186	N	1.104671	-0.522101	-0.048096
N187	N	1.354671	-0.272101	0.201904
N188	N	1.604671	-0.022101	0.451904
C189	C	0.909764	-0.740194	-0.302923
C190	C	1.159764	-0.490194	-0.052923
C191	C	1.409764	-0.240194	0.197077
C192	C	1.659764	0.009806	0.447077
C193	C	0.869536	-0.971134	-0.262619
C194	C	1.119536	-0.721134	-0.012619
C195	C	1.369536	-0.471134	0.237381
C196	C	1.619536	-0.221134	0.487381
C197	C	0.869533	-1.036878	-0.262611
C198	C	1.119533	-0.786878	-0.012611
C199	C	1.369533	-0.536878	0.237389
C200	C	1.619533	-0.286878	0.487389
C201	C	0.950003	-1.036880	-0.343115
C202	C	1.200003	-0.786880	-0.093115
C203	C	1.450003	-0.536880	0.156885
C204	C	1.700003	-0.286880	0.406885
C205	C	0.950000	-0.971137	-0.343126
C206	C	1.200000	-0.721137	-0.093126
C207	C	1.450000	-0.471137	0.156874
C208	C	1.700000	-0.221137	0.406874
C209	C	0.909768	-0.938268	-0.302874
C210	C	1.159768	-0.688268	-0.052874
C211	C	1.409768	-0.438268	0.197126
C212	C	1.659768	-0.188268	0.447126
C213	C	1.073870	-0.303286	-0.302990
C214	C	1.323870	-0.053286	-0.052990
C215	C	1.573870	0.196714	0.197010
C216	C	1.823870	0.446714	0.447010
C217	C	1.143838	-0.303294	-0.302977
C218	C	1.393838	-0.053294	-0.052977
C219	C	1.643838	0.196706	0.197023
C220	C	1.893838	0.446706	0.447023
C221	C	0.909597	-0.303233	-0.466572
C222	C	1.159597	-0.053233	-0.216572
C223	C	1.409597	0.196767	0.033428
C224	C	1.659597	0.446767	0.283428
C225	C	0.909619	-0.303239	-0.536540
C226	C	1.159619	-0.053239	-0.286540
C227	C	1.409619	0.196761	-0.036540
C228	C	1.659619	0.446761	0.213460
C229	C	0.909667	-0.139716	-0.303014
C230	C	1.159667	0.110284	-0.053014
C231	C	1.409667	0.360284	0.196986
C232	C	1.659667	0.610284	0.446986
C233	C	0.909768	-0.069749	-0.302853
C234	C	1.159768	0.180251	-0.052853
C235	C	1.409768	0.430251	0.197147
C236	C	1.659768	0.680251	0.447147
C237	C	0.949904	-0.263024	-0.569388
C238	C	1.199904	-0.013024	-0.319388
C239	C	1.449904	0.236976	-0.069388
C240	C	1.699904	0.486976	0.180612
C241	C	0.949934	-0.263038	-0.635130
C242	C	1.199934	-0.013038	-0.385130
C243	C	1.449934	0.236962	-0.135130
C244	C	1.699934	0.486962	0.114870
C245	C	0.909667	-0.303261	-0.668022
C246	C	1.159667	-0.053261	-0.418022
C247	C	1.409667	0.196739	-0.168022
C248	C	1.659667	0.446739	0.081978
C249	C	0.869379	-0.343485	-0.635166
C250	C	1.119379	-0.093485	-0.385166
C251	C	1.369379	0.156515	-0.135166
C252	C	1.619379	0.406515	0.114834
C253	C	0.869355	-0.343474	-0.569425
C254	C	1.119355	-0.093474	-0.319425
C255	C	1.369355	0.156526	-0.069425
C256	C	1.619355	0.406526	0.180575
N257	N	0.854600	-0.308054	-0.771302
N258	N	1.104600	-0.058054	-0.521302
N259	N	1.354600	0.191946	-0.271302
N260	N	1.604600	0.441946	-0.021302
N261	N	0.854624	-0.308061	-0.833754
N262	N	1.104624	-0.058061	-0.583754
N263	N	1.354624	0.191939	-0.333754
N264	N	1.604624	0.441939	-0.083754
C265	C	0.909738	-0.303297	-0.866097
C266	C	1.159738	-0.053297	-0.616097
C267	C	1.409738	0.196703	-0.366097
C268	C	1.659738	0.446703	-0.116097
N269	N	0.964827	-0.298514	-0.833629
N270	N	1.214827	-0.048514	-0.583629
N271	N	1.464827	0.201486	-0.333629
N272	N	1.714827	0.451486	-0.083629
N273	N	0.964801	-0.298505	-0.771172
N274	N	1.214801	-0.048505	-0.521172
N275	N	1.464801	0.201495	-0.271172
N276	N	1.714801	0.451495	-0.021172
C277	C	0.909689	-0.303278	-0.739308
C278	C	1.159689	-0.053278	-0.489308
C279	C	1.409689	0.196722	-0.239308
C280	C	1.659689	0.446722	0.010692
C281	C	0.950058	-0.263095	-0.970230
C282	C	1.200058	-0.013095	-0.720230
C283	C	1.450058	0.236905	-0.470230
C284	C	1.700058	0.486905	-0.220230
C285	C	0.950089	-0.263113	-1.035974
C286	C	1.200089	-0.013113	-0.785974
C287	C	1.450089	0.236887	-0.535974
C288	C	1.700089	0.486887	-0.285974
C289	C	0.869528	-0.343557	-1.036009
C290	C	1.119528	-0.093557	-0.786009
C291	C	1.369528	0.156443	-0.536009
C292	C	1.619528	0.406443	-0.286009
C293	C	0.869503	-0.343541	-0.970267
C294	C	1.119503	-0.093541	-0.720267
C295	C	1.369503	0.156459	-0.470267
C296	C	1.619503	0.406459	-0.220267
C297	C	0.909767	-0.303307	-0.937381
C298	C	1.159767	-0.053307	-0.687381
C299	C	1.409767	0.196693	-0.437381
C300	C	1.659767	0.446693	-0.187381
C301	C	0.909780	-0.303317	-0.138830
C302	C	1.159780	-0.053317	0.111170
C303	C	1.409780	0.196683	0.361170
C304	C	1.659780	0.446683	0.611170
C305	C	0.909822	-0.303338	-0.068862
C306	C	1.159822	-0.053338	0.181138
C307	C	1.409822	0.196662	0.431138
C308	C	1.659822	0.446662	0.681138
H309	H	0.550675	-0.230091	-0.375994
H310	H	0.800675	0.019909	-0.125994
H311	H	1.050675	0.269909	0.124006
H312	H	1.300675	0.519909	0.374006
H313	H	0.982759	-0.944379	-0.375907
H314	H	1.232759	-0.694379	-0.125907
H315	H	1.482759	-0.444379	0.124093
H316	H	1.732759	-0.194379	0.374093
H317	H	0.982764	-1.063647	-0.375878
H318	H	1.232764	-0.813647	-0.125878
H319	H	1.482764	-0.563647	0.124122
H320	H	1.732764	-0.313647	0.374122
O321	O	0.993547	-0.219741	-1.071408
O322	O	1.243547	0.030259	-0.821408
O323	O	1.493547	0.280259	-0.571408
O324	O	1.743547	0.530259	-0.321408
H325	H	0.965401	-0.187701	-1.101424
H326	H	1.215401	0.062299	-0.851424
H327	H	1.465401	0.312299	-0.601424
H328	H	1.715401	0.562299	-0.351424
O329	O	0.826142	-0.671482	-0.219253
O330	O	1.076142	-0.421482	0.030747
O331	O	1.326142	-0.171482	0.280747
O332	O	1.576142	0.078518	0.530747
H333	H	0.854354	-0.701448	-0.187224
H334	H	1.104354	-0.451448	0.062776
H335	H	1.354354	-0.201448	0.312776
H336	H	1.604354	0.048552	0.562776
O337	O	0.826137	-0.534837	-0.219289
O338	O	1.076137	-0.284837	0.030711
O339	O	1.326137	-0.034837	0.280711
O340	O	1.576137	0.215163	0.530711
H341	H	0.798164	-0.568739	-0.191293
H342	H	1.048164	-0.318739	0.058707
H343	H	1.298164	-0.068739	0.308707
H344	H	1.548164	0.181261	0.558707
O345	O	0.825892	-0.386839	-0.533990
O346	O	1.075892	-0.136839	-0.283990
O347	O	1.325892	0.113161	-0.033990
O348	O	1.575892	0.363161	0.216010
H349	H	0.797890	-0.414808	-0.567903
H350	H	1.047890	-0.164808	-0.317903
H351	H	1.297890	0.085192	-0.067903
H352	H	1.547890	0.335192	0.182097
H353	H	0.836771	-1.063635	-0.229830
H354	H	1.086771	-0.813635	0.020170
H355	H	1.336771	-0.563635	0.270170
H356	H	1.586771	-0.313635	0.520170
H357	H	0.836697	-0.376286	-0.943520
H358	H	1.086697	-0.126286	-0.693520
H359	H	1.336697	0.123714	-0.443520
H360	H	1.586697	0.373714	-0.193520
H361	H	0.836595	-0.376236	-0.661951
H362	H	1.086595	-0.126236	-0.411951
H363	H	1.336595	0.123764	-0.161951
H364	H	1.586595	0.373764	0.088049
H365	H	0.982691	-0.230264	-0.542615
H366	H	1.232691	0.019736	-0.292615
H367	H	1.482691	0.269736	-0.042615
H368	H	1.732691	0.519736	0.207385
O369	O	0.993380	-0.219656	-0.670572
O370	O	1.243380	0.030344	-0.420572
O371	O	1.493380	0.280344	-0.170572
O372	O	1.743380	0.530344	0.079428
H373	H	1.021370	-0.191673	-0.636660
H374	H	1.271370	0.058327	-0.386660
H375	H	1.521370	0.308327	-0.136660
H376	H	1.771370	0.558327	0.113340
O377	O	0.993380	-0.534843	-0.386629
O378	O	1.243380	-0.284843	-0.136629
O379	O	1.493380	-0.034843	0.113371
O380	O	1.743380	0.215157	0.363371
H381	H	1.021364	-0.568745	-0.414606
H382	H	1.271364	-0.318745	-0.164606
H383	H	1.521364	-0.068745	0.085394
H384	H	1.771364	0.181255	0.335394
H385	H	0.269319	-0.376465	-0.230062
H386	H	0.519319	-0.126465	0.019938
H387	H	0.769319	0.123535	0.269938
H388	H	1.019319	0.373535	0.519938
O389	O	0.826143	-0.935674	-0.219212
O390	O	1.076143	-0.685674	0.030788
O391	O	1.326143	-0.435674	0.280788
O392	O	1.576143	-0.185674	0.530788
H393	H	0.776731	-0.948262	-0.230019
H394	H	1.026731	-0.698262	0.019981
H395	H	1.276731	-0.448262	0.269981
H396	H	1.526731	-0.198262	0.519981
O397	O	0.993491	-0.219710	-0.934754
O398	O	1.243491	0.030290	-0.684754
O399	O	1.493491	0.280290	-0.434754
O400	O	1.743491	0.530290	-0.184754
H401	H	1.021518	-0.191755	-0.968643
H402	H	1.271518	0.058245	-0.718643
H403	H	1.521518	0.308245	-0.468643
H404	H	1.771518	0.558245	-0.218643
H405	H	0.550893	-0.376441	-0.230113
H406	H	0.800893	-0.126441	0.019887
H407	H	1.050893	0.123559	0.269887
H408	H	1.300893	0.373559	0.519887
O409	O	0.678626	-0.219415	-0.386642
O410	O	0.928626	0.030585	-0.136642
O411	O	1.178626	0.280585	0.113358
O412	O	1.428626	0.530585	0.363358
H413	H	0.644684	-0.191373	-0.414595
H414	H	0.894684	0.058627	-0.164595
H415	H	1.144684	0.308627	0.085405
H416	H	1.394684	0.558627	0.335405
H417	H	0.836745	-0.376310	-1.062789
H418	H	1.086745	-0.126310	-0.812789
H419	H	1.336745	0.123690	-0.562789
H420	H	1.586745	0.373690	-0.312789
O421	O	0.678867	-0.387095	-0.219517
O422	O	0.928867	-0.137095	0.030483
O423	O	1.178867	0.112905	0.280483
O424	O	1.428867	0.362905	0.530483
H425	H	0.708838	-0.358975	-0.187462
H426	H	0.958838	-0.108975	0.062538
H427	H	1.208838	0.141025	0.312538
H428	H	1.458838	0.391025	0.562538
H429	H	0.150055	-0.376467	-0.230035
H430	H	0.400055	-0.126467	0.019965
H431	H	0.650055	0.123533	0.269965
H432	H	0.900055	0.373533	0.519965
O433	O	0.141141	-0.219457	-0.386552
O434	O	0.391141	0.030543	-0.136552
O435	O	0.641141	0.280543	0.113448
O436	O	0.891141	0.530543	0.363448
H437	H	0.089915	-0.226239	-0.379793
H438	H	0.339915	0.023761	-0.129793
H439	H	0.589915	0.273761	0.120207
H440	H	0.839915	0.523761	0.370207
H441	H	0.982745	-0.662809	-0.375965
H442	H	1.232745	-0.412809	-0.125965
H443	H	1.482745	-0.162809	0.124035
H444	H	1.732745	0.087191	0.374035
O445	O	0.277785	-0.219451	-0.386571
O446	O	0.527785	0.030549	-0.136571
O447	O	0.777785	0.280549	0.113429
O448	O	1.027785	0.530549	0.363429
H449	H	0.243842	-0.191411	-0.414524
H450	H	0.493842	0.058589	-0.164524
H451	H	0.743842	0.308589	0.085476
H452	H	0.993842	0.558589	0.335476
