data_functionalizedCrystal
_audit_creation_method	'MofGen! by Chris Wilmer'
_symmetry_space_group_name_H-M	'P1'
_symmetry_Int_Tables_number	1
_symmetry_cell_setting	triclinic
loop_
_symmetry_equiv_pos_as_xyz
  x,y,z
_cell_length_a	18.101398
_cell_length_b	16.625546
_cell_length_c	16.625539
_cell_angle_alpha	90.028532
_cell_angle_beta	89.977600
_cell_angle_gamma	89.982266
loop_
_atom_site_label
_atom_site_type_symbol
_atom_site_fract_x
_atom_site_fract_y
_atom_site_fract_z
Zn1	Zn	1.132151	0.321117	-0.456013
Zn2	Zn	1.465485	0.654450	-0.122679
Zn3	Zn	1.798818	0.987783	0.210654
Zn4	Zn	1.132070	0.455956	-0.321175
Zn5	Zn	1.465403	0.789289	0.012159
Zn6	Zn	1.798737	1.122622	0.345492
Zn7	Zn	1.008314	0.321129	-0.321180
Zn8	Zn	1.341648	0.654463	0.012153
Zn9	Zn	1.674981	0.987796	0.345486
Zn10	Zn	1.008280	0.455900	-0.455952
Zn11	Zn	1.341613	0.789233	-0.122619
Zn12	Zn	1.674946	1.122567	0.210715
O13	O	1.070204	0.388525	-0.388580
O14	O	1.403537	0.721859	-0.055247
O15	O	1.736871	1.055192	0.278087
O16	O	1.235773	0.339021	-0.438149
O17	O	1.569107	0.672355	-0.104816
O18	O	1.902440	1.005688	0.228518
O19	O	1.115634	0.438099	-0.208343
O20	O	1.448967	0.771432	0.124990
O21	O	1.782301	1.104766	0.458324
O22	O	1.024790	0.208295	-0.339094
O23	O	1.358124	0.541629	-0.005761
O24	O	1.691457	0.874962	0.327573
O25	O	1.235714	0.438087	-0.339084
O26	O	1.569047	0.771420	-0.005751
O27	O	1.902380	1.104753	0.327582
O28	O	1.115773	0.208286	-0.438154
O29	O	1.449106	0.541619	-0.104821
O30	O	1.782439	0.874953	0.228512
O31	O	1.024711	0.339043	-0.208347
O32	O	1.358045	0.672376	0.124986
O33	O	1.691378	1.005710	0.458319
O34	O	0.904677	0.338989	-0.339035
O35	O	1.238010	0.672322	-0.005702
O36	O	1.571344	1.005656	0.327631
O37	O	1.024731	0.437992	-0.568793
O38	O	1.358064	0.771325	-0.235459
O39	O	1.691398	1.104659	0.097874
O40	O	0.904651	0.438004	-0.438051
O41	O	1.237985	0.771338	-0.104718
O42	O	1.571318	1.104671	0.228615
O43	O	1.115739	0.338968	-0.568837
O44	O	1.449072	0.672301	-0.235504
O45	O	1.782406	1.005634	0.097830
O46	O	1.115600	0.568781	-0.339026
O47	O	1.448934	0.902114	-0.005692
O48	O	1.782267	1.235447	0.327641
O49	O	1.024652	0.568740	-0.438046
O50	O	1.357986	0.902073	-0.104713
O51	O	1.691319	1.235406	0.228621
C52	C	0.877793	0.388493	-0.388538
C53	C	1.211127	0.721826	-0.055205
C54	C	1.544460	1.055159	0.278129
C55	C	0.795479	0.388498	-0.388539
C56	C	1.128813	0.721831	-0.055206
C57	C	1.462146	1.055165	0.278128
C58	C	1.070134	0.598016	-0.388546
C59	C	1.403467	0.931350	-0.055213
C60	C	1.736800	1.264683	0.278120
C61	C	1.070172	0.687637	-0.388559
C62	C	1.403505	1.020971	-0.055225
C63	C	1.736838	1.354304	0.278108
C64	C	1.070240	0.388472	-0.598889
C65	C	1.403574	0.721806	-0.265556
C66	C	1.736907	1.055139	0.067778
C67	C	1.070256	0.388450	-0.688510
C68	C	1.403589	0.721783	-0.355177
C69	C	1.736922	1.055116	-0.021843
C70	C	0.496388	0.388548	-0.388607
C71	C	0.829722	0.721882	-0.055273
C72	C	1.163055	1.055215	0.278060
C73	C	0.527705	0.325939	-0.326612
C74	C	0.861038	0.659273	0.006721
C75	C	1.194372	0.992606	0.340054
C76	C	0.613323	0.326107	-0.326348
C77	C	0.946656	0.659441	0.006985
C78	C	1.279990	0.992774	0.340319
C79	C	0.644771	0.388523	-0.388573
C80	C	0.978104	0.721856	-0.055240
C81	C	1.311438	1.055189	0.278094
C82	C	0.613665	0.473459	-0.365354
C83	C	0.946999	0.806792	-0.032021
C84	C	1.280332	1.140126	0.301313
C85	C	0.528020	0.473111	-0.364923
C86	C	0.861353	0.806445	-0.031590
C87	C	1.194687	1.139778	0.301744
C88	C	0.527997	0.366960	-0.473966
C89	C	0.861331	0.700293	-0.140633
C90	C	1.194664	1.033626	0.192700
C91	C	0.613648	0.365068	-0.473500
C92	C	0.946981	0.698402	-0.140167
C93	C	1.280315	1.031735	0.193166
C94	C	0.728630	0.388514	-0.388556
C95	C	1.061964	0.721847	-0.055222
C96	C	1.395297	1.055180	0.278111
C97	C	0.412529	0.388563	-0.388622
C98	C	0.745862	0.721897	-0.055289
C99	C	1.079196	1.055230	0.278044
C100	C	1.263366	0.388559	-0.388623
C101	C	1.596699	0.721892	-0.055289
C102	C	1.930032	1.055226	0.278044
C103	C	1.345680	0.388573	-0.388641
C104	C	1.679013	0.721906	-0.055308
C105	C	2.012347	1.055240	0.278026
C106	C	1.070294	0.178217	-0.388632
C107	C	1.403628	0.511550	-0.055298
C108	C	1.736961	0.844883	0.278035
C109	C	1.070333	0.088595	-0.388654
C110	C	1.403666	0.421929	-0.055320
C111	C	1.737000	0.755262	0.278013
C112	C	1.070301	1.015813	-0.388643
C113	C	1.403634	1.349146	-0.055309
C114	C	1.736967	1.682480	0.278024
C115	C	1.070262	0.924505	-0.388622
C116	C	1.403596	1.257838	-0.055288
C117	C	1.736929	1.591171	0.278045
C118	C	1.070236	0.851728	-0.388600
C119	C	1.403569	1.185061	-0.055267
C120	C	1.736902	1.518395	0.278066
C121	C	1.070198	0.760414	-0.388580
C122	C	1.403532	1.093747	-0.055247
C123	C	1.736865	1.427081	0.278087
C124	C	1.070268	0.388432	-0.761293
C125	C	1.403601	0.721765	-0.427959
C126	C	1.736934	1.055098	-0.094626
C127	C	1.070285	0.388402	-0.852601
C128	C	1.403618	0.721735	-0.519268
C129	C	1.736952	1.055068	-0.185935
C130	C	1.070302	0.388373	-0.925378
C131	C	1.403636	0.721707	-0.592044
C132	C	1.736969	1.055040	-0.258711
C133	C	1.070321	0.388344	-1.016692
C134	C	1.403654	0.721678	-0.683359
C135	C	1.736988	1.055011	-0.350025
C136	C	1.070210	0.388520	-0.179089
C137	C	1.403544	0.721854	0.154244
C138	C	1.736877	1.055187	0.487577
C139	C	1.070338	0.388316	-0.089469
C140	C	1.403672	0.721649	0.243865
C141	C	1.737005	1.054983	0.577198
H142	H	0.634354	0.263123	-0.340902
H143	H	0.967688	0.596457	-0.007569
H144	H	1.301021	0.929790	0.325764
O145	O	0.640426	0.345015	-0.242567
O146	O	0.973759	0.678348	0.090767
O147	O	1.307092	1.011682	0.424100
H148	H	0.701742	0.345193	-0.242083
H149	H	1.035075	0.678526	0.091251
H150	H	1.368408	1.011860	0.424584
H151	H	0.506416	0.306102	-0.495077
H152	H	0.839750	0.639436	-0.161743
H153	H	1.173083	0.972769	0.171590
H154	H	0.635057	0.407346	-0.522166
H155	H	0.968391	0.740680	-0.188833
H156	H	1.301724	1.074013	0.144501
H157	H	0.634035	0.521357	-0.409094
H158	H	0.967368	0.854691	-0.075761
H159	H	1.300702	1.188024	0.257572
H160	H	0.507125	0.262763	-0.341007
H161	H	0.840459	0.596096	-0.007673
H162	H	1.173792	0.929430	0.325660
H163	H	0.506159	0.340050	-0.263730
H164	H	0.839493	0.673383	0.069603
H165	H	1.172826	1.006717	0.402937
O166	O	0.501508	0.497350	-0.282264
O167	O	0.834841	0.830684	0.051069
O168	O	1.168175	1.164017	0.384402
H169	H	0.549859	0.509207	-0.242974
H170	H	0.883192	0.842540	0.090359
H171	H	1.216526	1.175873	0.423692
O172	O	0.500568	0.536986	-0.422128
O173	O	0.833902	0.870320	-0.088794
O174	O	1.167235	1.203653	0.244539
H175	H	0.548467	0.567994	-0.449970
H176	H	0.881801	0.901327	-0.116637
H177	H	1.215134	1.234660	0.216697
O178	O	0.642024	0.498137	-0.283584
O179	O	0.975357	0.831470	0.049749
O180	O	1.308690	1.164804	0.383082
H181	H	0.678263	0.450050	-0.259351
H182	H	1.011596	0.783384	0.073983
H183	H	1.344929	1.116717	0.407316
H184	H	0.633983	0.302565	-0.491008
H185	H	0.967316	0.635898	-0.157675
H186	H	1.300649	0.969231	0.175658
O187	O	0.501169	0.427354	-0.535161
O188	O	0.834502	0.760687	-0.201827
O189	O	1.167836	1.094020	0.131506
H190	H	0.465496	0.472530	-0.504979
H191	H	0.798829	0.805864	-0.171645
H192	H	1.132162	1.139197	0.161688
