data_functionalizedCrystal
_audit_creation_method	'MofGen! by Chris Wilmer'
_symmetry_space_group_name_H-M	'P1'
_symmetry_Int_Tables_number	1
_symmetry_cell_setting	triclinic
loop_
_symmetry_equiv_pos_as_xyz
  x,y,z
_cell_length_a	12.811453
_cell_length_b	9.130313
_cell_length_c	10.654550
_cell_angle_alpha	89.999890
_cell_angle_beta	84.264362
_cell_angle_gamma	84.567994
loop_
_atom_site_label
_atom_site_type_symbol
_atom_site_fract_x
_atom_site_fract_y
_atom_site_fract_z
O1	O	-1.393891	0.306939	-0.169181
O2	O	-1.088442	0.266371	-0.187568
O3	O	-1.248189	0.287582	0.004401
O4	O	-1.234144	0.285728	-0.361150
O5	O	-1.248187	0.043983	0.004396
O6	O	-1.088440	0.022772	-0.187573
O7	O	-1.393889	0.063340	-0.169187
Cu8	Cu	-1.241164	0.020813	-0.178380
Cu9	Cu	-1.241167	0.308897	-0.178374
O10	O	-1.234142	0.042129	-0.361155
C11	C	-1.049330	0.139376	-0.186539
C12	C	-0.932790	0.123898	-0.183450
N13	N	-1.241170	-0.181809	-0.178384
C14	C	-0.713798	0.360411	-0.177664
C15	C	-0.604298	0.345874	-0.174762
C16	C	-0.604290	0.080288	-0.174753
C17	C	-0.713789	0.094825	-0.177655
C18	C	-0.768539	0.234891	-0.179108
C19	C	-0.878042	0.249427	-0.182001
C20	C	-0.878030	-0.016158	-0.182002
C21	C	-0.768530	-0.030695	-0.179100
C22	C	-1.311925	-0.249065	-0.093409
C23	C	-1.311922	-0.402403	-0.093394
C24	C	-1.170407	-0.421213	-0.263340
C25	C	-1.170406	-0.267879	-0.263348
C26	C	-1.393630	-0.238206	0.004704
C27	C	-1.393627	-0.391544	0.004719
C28	C	-0.433001	0.190336	-0.170216
C29	C	-0.549541	0.205817	-0.173305
C30	C	-1.247157	0.165648	0.051191
C31	C	-1.244072	0.165243	0.190618
N32	N	-1.241169	0.511520	-0.178361
C33	C	-1.235174	0.164067	-0.407945
C34	C	-1.238259	0.164481	-0.547373
C35	C	-1.338128	0.177731	0.270591
C36	C	-1.335223	0.177355	0.401596
C37	C	-1.144196	0.151996	0.372645
C38	C	-1.147102	0.152383	0.241641
C39	C	-1.448416	0.192365	0.287307
C40	C	-1.445510	0.191989	0.418313
H41	H	-0.922618	0.363476	-0.183184
C42	C	-0.774026	0.514483	-0.179256
N43	N	-0.819388	0.630533	-0.180458
H44	H	-0.559732	0.448086	-0.173588
H45	H	-0.723937	-0.144733	-0.177921
H46	H	-1.474287	-0.422447	-0.016382
H47	H	-0.559692	-0.033747	-0.173582
H48	H	-0.922612	-0.118365	-0.183176
C49	C	-1.495860	0.056573	0.239413
N50	N	-1.531593	-0.045708	0.203338
C51	C	-1.496584	-0.160275	-0.036078
N52	N	-1.574129	-0.101575	-0.066795
H53	H	-1.112783	-0.213122	-0.332530
H54	H	-1.112792	-0.491308	-0.332514
H55	H	-1.375709	-0.198969	0.101144
H56	H	-1.368126	-0.442480	0.095810
C57	C	-1.043633	0.138677	0.153675
N58	N	-0.965696	0.128359	0.087419
C59	C	-1.501637	0.061719	0.475020
N60	N	-1.543908	-0.036400	0.517731
H61	H	-1.065247	0.141527	0.414204
C62	C	-1.506687	0.337821	0.247943
N63	N	-1.550574	0.447377	0.218294
H64	H	-1.478842	0.301596	0.464130
