data_functionalizedCrystal
_audit_creation_method	'MofGen! by Chris Wilmer'
_symmetry_space_group_name_H-M	'P1'
_symmetry_Int_Tables_number	1
_symmetry_cell_setting	triclinic
loop_
_symmetry_equiv_pos_as_xyz
  x,y,z
_cell_length_a	11.169417
_cell_length_b	25.639239
_cell_length_c	11.169417
_cell_angle_alpha	90.014562
_cell_angle_beta	90.000863
_cell_angle_gamma	90.039565
loop_
_atom_site_label
_atom_site_type_symbol
_atom_site_fract_x
_atom_site_fract_y
_atom_site_fract_z
Zn1	Zn	1.834501	-0.208224	0.678484
Zn2	Zn	2.167835	0.125110	1.011817
Zn3	Zn	2.501168	0.458443	1.345151
Zn4	Zn	1.834358	-0.295636	0.477777
Zn5	Zn	2.167691	0.037697	0.811110
Zn6	Zn	2.501024	0.371030	1.144444
Zn7	Zn	1.633854	-0.208218	0.477819
Zn8	Zn	1.967187	0.125115	0.811152
Zn9	Zn	2.300520	0.458449	1.144485
Zn10	Zn	1.633695	-0.295631	0.678422
Zn11	Zn	1.967029	0.037702	1.011755
Zn12	Zn	2.300362	0.371035	1.345088
O13	O	1.734102	-0.251927	0.578125
O14	O	2.067435	0.081406	0.911459
O15	O	2.400769	0.414739	1.244792
O16	O	2.002432	-0.219824	0.651869
O17	O	2.335765	0.113510	0.985202
O18	O	2.669099	0.446843	1.318535
O19	O	1.807767	-0.284040	0.309833
O20	O	2.141100	0.049294	0.643166
O21	O	2.474433	0.382627	0.976499
O22	O	1.660596	-0.135053	0.504481
O23	O	1.993929	0.198280	0.837814
O24	O	2.327263	0.531613	1.171148
O25	O	2.002326	-0.284045	0.504410
O26	O	2.335660	0.049288	0.837743
O27	O	2.668993	0.382621	1.171076
O28	O	1.808011	-0.135058	0.651909
O29	O	2.141344	0.198276	0.985242
O30	O	2.474678	0.531609	1.318576
O31	O	1.660457	-0.219814	0.309863
O32	O	1.993790	0.113520	0.643197
O33	O	2.327124	0.446853	0.976530
O34	O	1.465883	-0.219809	0.504420
O35	O	1.799216	0.113524	0.837754
O36	O	2.132550	0.446858	1.171087
O37	O	1.660327	-0.284037	0.846380
O38	O	1.993660	0.049296	1.179713
O39	O	2.326993	0.382630	1.513046
O40	O	1.465767	-0.284031	0.651802
O41	O	1.799100	0.049302	0.985136
O42	O	2.132433	0.382635	1.318469
O43	O	1.807858	-0.219819	0.846425
O44	O	2.141191	0.113514	1.179759
O45	O	2.474524	0.446848	1.513092
O46	O	1.807613	-0.368801	0.504349
O47	O	2.140947	-0.035467	0.837682
O48	O	2.474280	0.297866	1.171016
O49	O	1.660187	-0.368797	0.651762
O50	O	1.993521	-0.035464	0.985095
O51	O	2.326854	0.297869	1.318429
C52	C	1.422277	-0.251919	0.578110
C53	C	1.755611	0.081414	0.911443
C54	C	2.088944	0.414747	1.244777
C55	C	1.288877	-0.251929	0.578132
C56	C	1.622211	0.081405	0.911465
C57	C	1.955544	0.414738	1.244798
C58	C	1.733900	-0.387770	0.578070
C59	C	2.067233	-0.054437	0.911404
C60	C	2.400567	0.278897	1.244737
C61	C	1.733924	-0.445884	0.578087
C62	C	2.067257	-0.112551	0.911420
C63	C	2.400590	0.220783	1.244754
C64	C	1.811067	-0.806236	0.501498
C65	C	2.144400	-0.472903	0.834832
C66	C	2.477733	-0.139570	1.168165
C67	C	1.811113	-0.860841	0.501514
C68	C	2.144447	-0.527507	0.834848
C69	C	2.477780	-0.194174	1.168181
O70	O	1.876494	-0.889068	0.436336
O71	O	2.209827	-0.555735	0.769669
O72	O	2.543161	-0.222401	1.103002
N73	N	1.734313	-0.888166	0.578205
N74	N	2.067646	-0.554833	0.911538
N75	N	2.400980	-0.221500	1.244871
C76	C	1.657470	-0.860885	0.654893
C77	C	1.990803	-0.527552	0.988226
C78	C	2.324136	-0.194218	1.321560
O79	O	1.592150	-0.889142	0.720126
O80	O	1.925483	-0.555808	1.053460
O81	O	2.258817	-0.222475	1.386793
C82	C	1.657430	-0.806282	0.654882
C83	C	1.990763	-0.472948	0.988215
C84	C	2.324097	-0.139615	1.321549
C85	C	1.734227	-0.778959	0.578178
C86	C	2.067560	-0.445625	0.911511
C87	C	2.400894	-0.112292	1.244845
C88	C	1.887858	-0.778913	0.424801
C89	C	2.221192	-0.445580	0.758135
C90	C	2.554525	-0.112247	1.091468
C91	C	1.887810	-0.724313	0.424784
C92	C	2.221143	-0.390979	0.758117
C93	C	2.554477	-0.057646	1.091451
C94	C	1.810970	-0.697035	0.501464
C95	C	2.144303	-0.363702	0.834797
C96	C	2.477637	-0.030369	1.168130
C97	C	1.734178	-0.724358	0.578161
C98	C	2.067512	-0.391025	0.911494
C99	C	2.400845	-0.057692	1.244827
C100	C	1.580594	-0.779001	0.731575
C101	C	1.913927	-0.445668	1.064909
C102	C	2.247260	-0.112335	1.398242
C103	C	1.580561	-0.724394	0.731558
C104	C	1.913895	-0.391061	1.064892
C105	C	2.247228	-0.057728	1.398225
C106	C	1.657358	-0.697071	0.654854
C107	C	1.990691	-0.363738	0.988188
C108	C	2.324025	-0.030405	1.321521
C109	C	1.657290	-0.642480	0.654823
C110	C	1.990623	-0.309147	0.988156
C111	C	2.323957	0.024186	1.321490
N112	N	1.734090	-0.615154	0.578132
N113	N	2.067424	-0.281821	0.911466
N114	N	2.400757	0.051512	1.244799
C115	C	1.810930	-0.642432	0.501453
C116	C	2.144264	-0.309099	0.834786
C117	C	2.477597	0.024235	1.168119
C118	C	1.657560	-0.975556	0.654911
C119	C	1.990893	-0.642222	0.988245
C120	C	2.324227	-0.308889	1.321578
C121	C	1.657593	-1.030158	0.654917
C122	C	1.990926	-0.696825	0.988250
C123	C	2.324259	-0.363491	1.321584
C124	C	1.811238	-1.030110	0.501540
C125	C	2.144572	-0.696776	0.834873
C126	C	2.477905	-0.363443	1.168206
C127	C	1.811199	-0.975506	0.501529
C128	C	2.144532	-0.642173	0.834862
C129	C	2.477865	-0.308840	1.168196
C130	C	1.734360	-0.948230	0.578221
C131	C	2.067694	-0.614896	0.911554
C132	C	2.401027	-0.281563	1.244888
C133	C	1.810822	-0.527767	0.501421
C134	C	2.144156	-0.194433	0.834755
C135	C	2.477489	0.138900	1.168088
C136	C	1.810764	-0.473161	0.501407
C137	C	2.144097	-0.139828	0.834741
C138	C	2.477430	0.193505	1.168074
C139	C	1.657123	-0.473214	0.654789
C140	C	1.990456	-0.139881	0.988122
C141	C	2.323790	0.193452	1.321455
C142	C	1.657177	-0.527815	0.654799
C143	C	1.990510	-0.194482	0.988132
C144	C	2.323843	0.138852	1.321465
C145	C	1.734036	-0.555090	0.578111
C146	C	2.067369	-0.221757	0.911444
C147	C	2.400703	0.111577	1.244778
O148	O	1.591946	-0.614218	0.719972
O149	O	1.925280	-0.280885	1.053305
O150	O	2.258613	0.052449	1.386638
O151	O	1.876250	-0.614169	0.436241
O152	O	2.209584	-0.280835	0.769575
O153	O	2.542917	0.052498	1.102908
C154	C	2.047144	-0.251936	0.578141
C155	C	2.380478	0.081398	0.911475
C156	C	2.713811	0.414731	1.244808
C157	C	2.180544	-0.251939	0.578148
C158	C	2.513878	0.081394	0.911482
C159	C	2.847211	0.414727	1.244815
C160	C	1.734090	-0.251928	0.891168
C161	C	2.067424	0.081405	1.224501
C162	C	2.400757	0.414739	1.557834
C163	C	1.734086	-0.251928	1.024568
C164	C	2.067419	0.081405	1.357901
C165	C	2.400752	0.414738	1.691234
C166	C	1.734337	-0.115554	0.578207
C167	C	2.067671	0.217779	0.911540
C168	C	2.401004	0.551112	1.244873
C169	C	1.734438	-0.057440	0.578241
C170	C	2.067771	0.275893	0.911575
C171	C	2.401104	0.609226	1.244908
C172	C	1.734099	-0.251936	1.266301
C173	C	2.067433	0.081397	1.599634
C174	C	2.400766	0.414731	1.932967
C175	C	1.734089	-0.251929	1.132901
C176	C	2.067422	0.081404	1.466234
C177	C	2.400755	0.414737	1.799567
H178	H	1.873301	-0.450917	0.438941
H179	H	2.206634	-0.117583	0.772275
H180	H	2.539967	0.215750	1.105608
Cl181	Cl	1.907748	-0.941163	0.405099
Cl182	Cl	2.241082	-0.607830	0.738433
Cl183	Cl	2.574415	-0.274497	1.071766
H184	H	1.518051	-0.801238	0.794030
H185	H	1.851385	-0.467905	1.127364
H186	H	2.184718	-0.134572	1.460697
Cl187	Cl	1.483960	-0.690107	0.827979
Cl188	Cl	1.817293	-0.356774	1.161313
Cl189	Cl	2.150626	-0.023441	1.494646
Cl190	Cl	1.560607	-0.562165	0.751203
Cl191	Cl	1.893940	-0.228832	1.084536
Cl192	Cl	2.227273	0.104502	1.417870
H193	H	1.873810	-1.052329	0.439107
H194	H	2.207143	-0.718996	0.772440
H195	H	2.540476	-0.385662	1.105774
H196	H	1.950437	-0.801117	0.362359
H197	H	2.283771	-0.467783	0.695692
H198	H	2.617104	-0.134450	1.029026
H199	H	1.873411	-0.549968	0.438978
H200	H	2.206744	-0.216634	0.772311
H201	H	2.540078	0.116699	1.105644
H202	H	1.595046	-1.052400	0.717366
H203	H	1.928379	-0.719066	1.050699
H204	H	2.261712	-0.385733	1.384033
H205	H	1.950348	-0.702069	0.362329
H206	H	2.283681	-0.368736	0.695662
H207	H	2.617015	-0.035403	1.028995
Cl208	Cl	1.560943	-0.941271	0.751324
Cl209	Cl	1.894276	-0.607937	1.084658
Cl210	Cl	2.227610	-0.274604	1.417991
Cl211	Cl	1.560536	-0.438913	0.751187
Cl212	Cl	1.893869	-0.105579	1.084520
Cl213	Cl	2.227202	0.227754	1.417854
