data_functionalizedCrystal
_audit_creation_method	'MofGen! by Chris Wilmer'
_symmetry_space_group_name_H-M	'P1'
_symmetry_Int_Tables_number	1
_symmetry_cell_setting	triclinic
loop_
_symmetry_equiv_pos_as_xyz
  x,y,z
_cell_length_a	18.215405
_cell_length_b	18.215407
_cell_length_c	12.827885
_cell_angle_alpha	89.978600
_cell_angle_beta	89.966321
_cell_angle_gamma	90.023180
loop_
_atom_site_label
_atom_site_type_symbol
_atom_site_fract_x
_atom_site_fract_y
_atom_site_fract_z
Zn1	Zn	-0.292938	1.125094	-0.590881
Zn2	Zn	-0.416023	1.125004	-0.416130
Zn3	Zn	-0.292976	1.002024	-0.416148
Zn4	Zn	-0.415969	1.001997	-0.590824
O5	O	-0.354476	1.063530	-0.503496
O6	O	-0.309273	1.228067	-0.567716
O7	O	-0.399739	1.108664	-0.269896
O8	O	-0.189986	1.018398	-0.439359
O9	O	-0.399703	1.228000	-0.439328
O10	O	-0.189959	1.108818	-0.567734
O11	O	-0.309336	1.018310	-0.269910
O12	O	-0.309284	0.899036	-0.439303
O13	O	-0.399610	1.018353	-0.737067
O14	O	-0.399646	0.899017	-0.567636
O15	O	-0.309220	1.108792	-0.737110
O16	O	-0.519000	1.108638	-0.439272
O17	O	-0.518960	1.018266	-0.567618
C18	C	-0.354464	0.872324	-0.503466
C19	C	-0.354476	0.790525	-0.503478
C20	C	-0.545683	1.063459	-0.503460
C21	C	-0.627482	1.063496	-0.503479
C22	C	-0.401602	0.602340	-0.570217
C23	C	-0.401604	0.525481	-0.570230
C24	C	-0.307364	0.525472	-0.436797
C25	C	-0.307359	0.602329	-0.436790
C26	C	-0.354482	0.640761	-0.503499
C27	C	-0.354490	0.487045	-0.503519
C28	C	-0.354492	0.403711	-0.503532
C29	C	-0.354479	0.724100	-0.503487
C30	C	-0.815600	1.110600	-0.570415
C31	C	-0.892459	1.110627	-0.570434
C32	C	-0.892601	1.016550	-0.436641
C33	C	-0.815743	1.016520	-0.436628
C34	C	-0.777245	1.063550	-0.503513
C35	C	-0.930961	1.063606	-0.503546
C36	C	-1.014295	1.063635	-0.503567
C37	C	-0.693906	1.063520	-0.503494
C38	C	-0.162523	1.063621	-0.503555
C39	C	-0.080725	1.063659	-0.503580
C40	C	-0.354405	1.063580	-0.776066
C41	C	-0.354375	1.063601	-0.892219
C42	C	-0.354490	1.255483	-0.503526
C43	C	-0.354495	1.337282	-0.503540
C44	C	-0.399090	1.108316	-0.943997
C45	C	-0.399060	1.108339	-1.064048
C46	C	-0.354494	1.063522	-0.231986
C47	C	-0.354317	1.063644	-0.115833
H48	H	-0.439971	0.633629	-0.624538
Cl49	Cl	-0.941003	0.957431	-0.352563
Cl50	Cl	-0.767522	0.957360	-0.352524
Cl51	Cl	-0.458227	1.167403	-0.875228
H52	H	-0.437344	1.146620	-1.108576
Cl53	Cl	-0.295211	1.004530	-1.047098
H54	H	-0.316066	1.025340	-0.936767
H55	H	-0.269000	0.494171	-0.382484
Cl56	Cl	-0.248112	0.650634	-0.352916
Cl57	Cl	-0.460842	0.477184	-0.654111
Cl58	Cl	-0.767205	1.169720	-0.654503
H59	H	-0.923684	1.148939	-0.624915
