data_functionalizedCrystal
_audit_creation_method	'MofGen! by Chris Wilmer'
_symmetry_space_group_name_H-M	'P1'
_symmetry_Int_Tables_number	1
_symmetry_cell_setting	triclinic
loop_
_symmetry_equiv_pos_as_xyz
  x,y,z
_cell_length_a	10.654562
_cell_length_b	15.944499
_cell_length_c	9.130313
_cell_angle_alpha	90.001998
_cell_angle_beta	89.996930
_cell_angle_gamma	83.983857
loop_
_atom_site_label
_atom_site_type_symbol
_atom_site_fract_x
_atom_site_fract_y
_atom_site_fract_z
O1	O	1.666265	0.118026	-0.121884
O2	O	1.300640	0.129255	-0.121865
O3	O	1.493471	0.001421	-0.121877
O4	O	1.473434	0.245860	-0.121871
O5	O	1.493468	0.001425	0.121722
O6	O	1.300638	0.129259	0.121734
O7	O	1.666263	0.118030	0.121715
Cu8	Cu	1.483450	0.123644	0.143967
Cu9	Cu	1.483453	0.123640	-0.144117
O10	O	1.473432	0.245864	0.121727
C11	C	1.253852	0.128430	-0.000063
C12	C	1.114442	0.125957	-0.000056
C13	C	1.048926	0.124805	0.132718
C14	C	0.917934	0.122488	0.132694
C15	C	0.917987	0.122478	-0.132891
C16	C	1.048977	0.124789	-0.132865
C17	C	1.048893	0.124814	0.286052
C18	C	0.917902	0.122497	0.286027
C19	C	1.492649	-0.029877	-0.000082
C20	C	1.490190	-0.123139	-0.000093
C21	C	1.602220	-0.414023	-0.000090
C22	C	1.543982	-0.353335	0.120025
C23	C	1.481255	-0.458828	-0.000075
C24	C	1.543952	-0.353345	-0.120144
C25	C	1.485652	-0.293893	-0.000086
C26	C	1.422984	-0.399368	0.120139
C27	C	1.422971	-0.399384	-0.120138
C28	C	1.364646	-0.338714	0.000007
C29	C	1.478726	-0.553842	-0.000067
C30	C	1.488171	-0.198880	-0.000083
C31	C	1.713051	0.118855	-0.000090
C32	C	1.852460	0.121328	-0.000107
C33	C	1.474253	0.277161	-0.000072
C34	C	1.476713	0.370424	-0.000070
N35	N	1.483457	0.123647	0.346590
N36	N	1.483456	0.123631	-0.346740
C37	C	1.568864	0.067061	0.423236
C38	C	1.568861	0.067051	0.576573
C39	C	1.398039	0.180220	0.576603
C40	C	1.398038	0.180225	0.423269
C41	C	1.667490	0.001727	0.423220
C42	C	1.667487	0.001717	0.576556
H43	H	1.702608	-0.446769	0.000019
H44	H	1.328482	0.226294	0.360865
O45	O	1.305925	0.241255	0.659299
H46	H	1.244901	0.205519	0.729166
O47	O	1.640279	-0.083805	0.368080
H48	H	1.640333	-0.083753	0.246513
H49	H	1.095920	0.066766	0.344933
O50	O	1.787919	0.028810	0.360195
H51	H	1.851770	0.043163	0.450785
H52	H	1.637781	-0.059296	0.624104
H53	H	1.763808	0.016112	0.618168
H54	H	1.371861	-0.419646	0.221794
H55	H	1.264171	-0.306116	0.000082
O56	O	1.119650	0.126023	-0.276069
H57	H	1.052116	0.124830	-0.368418
H58	H	0.870848	0.180549	0.344894
O59	O	1.611746	-0.326311	0.254520
H60	H	1.710333	-0.356744	0.254265
H61	H	0.864669	0.121527	-0.241020
H62	H	1.595138	-0.332968	-0.221683
O63	O	1.087018	0.205946	0.349117
H64	H	1.001296	0.247090	0.382533
O65	O	1.355289	-0.426472	-0.254635
H66	H	1.405710	-0.408256	-0.354198
H67	H	0.889123	0.061238	0.333605
