data_functionalizedCrystal
_audit_creation_method	'MofGen! by Chris Wilmer'
_symmetry_space_group_name_H-M	'P1'
_symmetry_Int_Tables_number	1
_symmetry_cell_setting	triclinic
loop_
_symmetry_equiv_pos_as_xyz
  x,y,z
_cell_length_a	14.853567
_cell_length_b	19.288865
_cell_length_c	17.766277
_cell_angle_alpha	90.011603
_cell_angle_beta	89.993613
_cell_angle_gamma	96.614411
loop_
_atom_site_label
_atom_site_type_symbol
_atom_site_fract_x
_atom_site_fract_y
_atom_site_fract_z
O1	O	1.195855	-0.090685	-0.062551
O2	O	1.695855	0.409315	0.437449
O3	O	0.933334	-0.101488	-0.062565
O4	O	1.433334	0.398512	0.437435
O5	O	1.072180	0.005018	-0.062543
O6	O	1.572180	0.505018	0.437457
O7	O	1.057009	-0.197191	-0.062574
O8	O	1.557009	0.302809	0.437426
O9	O	1.072156	0.005024	0.062646
O10	O	1.572156	0.505024	0.562646
O11	O	0.933310	-0.101482	0.062623
O12	O	1.433310	0.398518	0.562623
O13	O	1.195831	-0.090680	0.062637
O14	O	1.695831	0.409320	0.562637
Cu15	Cu	1.064568	-0.096080	0.074061
Cu16	Cu	1.564568	0.403920	0.574061
Cu17	Cu	1.064597	-0.096087	-0.073989
Cu18	Cu	1.564597	0.403913	0.426011
O19	O	1.056985	-0.197186	0.062615
O20	O	1.556985	0.302814	0.562615
C21	C	0.899736	-0.100996	0.000027
C22	C	1.399736	0.399004	0.500027
C23	C	0.799661	-0.099529	0.000023
C24	C	1.299661	0.400471	0.500023
C25	C	0.387522	-0.030061	0.000050
C26	C	0.887522	0.469939	0.500050
C27	C	0.365522	-0.156593	0.000030
C28	C	0.865522	0.343407	0.500030
C29	C	0.459547	-0.157972	0.000028
C30	C	0.959547	0.342028	0.500028
C31	C	0.517565	-0.095395	0.000035
C32	C	1.017565	0.404605	0.500035
C33	C	0.481557	-0.031439	0.000045
C34	C	0.981557	0.468561	0.500045
C35	C	0.495563	-0.221927	0.000010
C36	C	0.995563	0.278073	0.500010
C37	C	0.589594	-0.223309	0.000006
C38	C	1.089594	0.276691	0.500006
C39	C	0.647614	-0.160731	0.000019
C40	C	1.147614	0.339269	0.500019
C41	C	0.611600	-0.096772	0.000030
C42	C	1.111600	0.403228	0.500030
C43	C	0.669618	-0.034195	0.000038
C44	C	1.169618	0.465805	0.500038
C45	C	0.633606	0.029764	0.000054
C46	C	1.133606	0.529764	0.500054
C47	C	0.539577	0.031139	0.000058
C48	C	1.039577	0.531139	0.500058
C49	C	0.741643	-0.162106	0.000015
C50	C	1.241643	0.337894	0.500015
C51	C	0.763653	-0.035572	0.000033
C52	C	1.263653	0.464428	0.500033
C53	C	1.071680	0.030899	0.000053
C54	C	1.571680	0.530899	0.500053
C55	C	1.070215	0.108008	0.000060
C56	C	1.570215	0.608008	0.500060
C57	C	1.229429	-0.091172	0.000043
C58	C	1.729429	0.408828	0.500043
C59	C	1.329504	-0.092639	0.000043
C60	C	1.829504	0.407361	0.500043
C61	C	1.057485	-0.223067	0.000017
C62	C	1.557485	0.276933	0.500017
C63	C	1.058951	-0.300175	0.000005
C64	C	1.558951	0.199825	0.500005
N65	N	1.064555	-0.096076	0.178191
N66	N	1.564555	0.403924	0.678191
C67	C	1.151683	0.152429	0.000068
C68	C	1.651683	0.652429	0.500068
C69	C	1.150307	0.224881	0.000056
C70	C	1.650307	0.724881	0.500056
C71	C	1.067457	0.252908	0.000051
C72	C	1.567457	0.752908	0.500051
C73	C	0.985977	0.208477	0.000039
C74	C	1.485977	0.708477	0.500039
C75	C	0.987356	0.136027	0.000043
C76	C	1.487356	0.636027	0.500043
C77	C	1.002318	0.361417	0.043899
C78	C	1.502318	0.861417	0.543899
C79	C	1.000943	0.433866	0.043899
C80	C	1.500943	0.933866	0.543899
C81	C	1.063200	0.476368	0.000034
C82	C	1.563200	0.976368	0.500034
C83	C	1.126848	0.446413	-0.043821
C84	C	1.626848	0.946413	0.456179
C85	C	1.128227	0.373963	-0.043817
C86	C	1.628227	0.873963	0.456183
C87	C	1.065952	0.331467	0.000046
C88	C	1.565952	0.831467	0.500046
C89	C	1.143181	0.599350	0.000028
C90	C	1.643181	1.099350	0.500028
C91	C	1.141801	0.671803	0.000011
C92	C	1.641801	1.171803	0.500011
C93	C	0.977470	0.655397	0.000002
C94	C	1.477470	1.155397	0.500002
C95	C	0.978852	0.582946	0.000011
C96	C	1.478852	1.082946	0.500011
C97	C	1.061710	0.554927	0.000028
C98	C	1.561710	1.054927	0.500028
N99	N	1.064618	-0.096086	-0.178119
N100	N	1.564618	0.403914	0.321881
C101	C	1.126055	-0.048938	0.217588
C102	C	1.626055	0.451062	0.717588
C103	C	1.126061	-0.048935	0.296390
C104	C	1.626061	0.451065	0.796390
C105	C	1.064574	-0.096081	0.335792
C106	C	1.564574	0.403919	0.835792
C107	C	1.003061	-0.143222	0.296386
C108	C	1.503061	0.356778	0.796386
C109	C	1.003052	-0.143220	0.217585
C110	C	1.503052	0.356780	0.717585
C111	C	1.052504	-0.159328	0.460620
C112	C	1.552504	0.340672	0.960620
C113	C	1.052520	-0.159332	0.539419
C114	C	1.552520	0.340668	1.039419
C115	C	1.064598	-0.096090	0.578838
C116	C	1.564598	0.403910	1.078838
C117	C	1.076679	-0.032841	0.539449
C118	C	1.576679	0.467159	1.039449
C119	C	1.076669	-0.032838	0.460649
C120	C	1.576669	0.467162	0.960649
C121	C	1.064577	-0.096089	0.421238
C122	C	1.564577	0.403911	0.921238
C123	C	1.126108	-0.048944	0.703681
C124	C	1.626108	0.451056	1.203681
C125	C	1.126107	-0.048940	0.782484
C126	C	1.626107	0.451060	1.282484
C127	C	1.003111	-0.143234	0.782478
C128	C	1.503111	0.356766	1.282478
C129	C	1.003108	-0.143232	0.703677
C130	C	1.503108	0.356768	1.203677
C131	C	1.064611	-0.096088	0.664283
C132	C	1.564611	0.403912	1.164283
H133	H	0.318279	-0.207540	0.000018
H134	H	0.818279	0.292460	0.500018
H135	H	0.953044	-0.181619	0.814559
H136	H	1.453044	0.318381	1.314559
N137	N	1.039485	-0.227545	0.418109
N138	N	1.539485	0.272455	0.918109
H139	H	1.041310	-0.217947	0.362213
H140	H	1.541310	0.282053	0.862213
H141	H	0.978940	-0.253787	0.431886
H142	H	1.478940	0.246213	0.931886
H143	H	1.216650	0.261055	0.000060
H144	H	1.716650	0.761055	0.500060
N145	N	0.780490	-0.231080	-0.000000
N146	N	1.280490	0.268920	0.500000
H147	H	0.819017	-0.234470	-0.046409
H148	H	1.319017	0.265530	0.453591
H149	H	0.729420	-0.270473	0.000021
H150	H	1.229420	0.229527	0.500021
H151	H	1.177543	0.481017	-0.079540
H152	H	1.677543	0.981017	0.420460
H153	H	0.949113	0.458249	0.079604
H154	H	1.449113	0.958249	0.579604
H155	H	0.810886	0.015386	0.000042
H156	H	1.310886	0.515386	0.500042
H157	H	1.180050	0.349577	-0.079526
H158	H	1.680050	0.849577	0.420474
H159	H	1.219153	0.129621	0.000079
H160	H	1.719153	0.629621	0.500079
N161	N	1.232544	0.569122	0.000043
N162	N	1.732544	1.069122	0.500043
H163	H	1.283947	0.608260	0.000040
H164	H	1.783947	1.108260	0.500040
H165	H	1.236704	0.539406	-0.046362
H166	H	1.736704	1.039406	0.453638
N167	N	1.229675	0.719719	0.000017
N168	N	1.729675	1.219719	0.500017
H169	H	1.282371	0.690972	0.000031
H170	H	1.782371	1.190972	0.500031
H171	H	1.232665	0.750147	0.046423
H172	H	1.732665	1.250147	0.546423
H173	H	0.618906	-0.275389	-0.000007
H174	H	1.118906	0.224611	0.499993
N175	N	0.890984	0.535027	0.000018
N176	N	1.390984	1.035027	0.500018
H177	H	0.887901	0.504590	-0.046387
H178	H	1.387901	1.004590	0.453613
H179	H	0.838337	0.563820	0.000043
H180	H	1.338337	1.063820	0.500043
H181	H	0.358197	0.022013	0.000066
H182	H	0.858197	0.522013	0.500066
H183	H	0.680856	0.080715	0.000055
H184	H	1.180856	0.580715	0.500055
N185	N	1.089723	0.035372	0.581961
N186	N	1.589723	0.535372	1.081961
H187	H	1.150282	0.061631	0.568244
H188	H	1.650282	0.561631	1.068244
H189	H	1.087853	0.025710	0.637841
H190	H	1.587853	0.525710	1.137841
H191	H	0.951619	0.326817	0.079622
H192	H	1.451619	0.826817	0.579622
H193	H	1.176184	-0.010555	0.671605
H194	H	1.676184	0.489445	1.171605
H195	H	1.086503	0.018661	0.428581
H196	H	1.586503	0.518661	0.928581
N197	N	1.192458	0.001892	0.824981
N198	N	1.692458	0.501892	1.324981
H199	H	1.231423	0.031749	0.788064
H200	H	1.731423	0.531749	1.288064
H201	H	1.232190	-0.024777	0.857654
H202	H	1.732190	0.475223	1.357654
H203	H	1.176132	-0.010549	0.185516
H204	H	1.676132	0.489451	0.685516
N205	N	0.936774	-0.194073	0.661178
N206	N	1.436774	0.305927	1.161178
H207	H	0.897821	-0.223940	0.698094
H208	H	1.397821	0.276060	1.198094
H209	H	0.971152	-0.224830	0.628467
H210	H	1.471152	0.275170	1.128467
H211	H	0.910012	0.678216	-0.000006
H212	H	1.410012	1.178216	0.499994
H213	H	0.952969	-0.181605	0.185508
H214	H	1.452969	0.318395	0.685508
N215	N	0.896617	0.238701	0.000030
N216	N	1.396617	0.738701	0.500030
H217	H	0.908104	0.291339	0.000030
H218	H	1.408104	0.791339	0.500030
H219	H	0.860967	0.222464	0.046436
H220	H	1.360967	0.722464	0.546436
N221	N	0.500736	0.100119	0.000081
N222	N	1.000736	0.600119	0.500081
H223	H	0.432366	0.091494	0.000082
H224	H	0.932366	0.591494	0.500082
H225	H	0.521978	0.127508	-0.046322
H226	H	1.021978	0.627508	0.453678
N227	N	0.899484	0.088109	0.000034
N228	N	1.399484	0.588109	0.500034
H229	H	0.846787	0.116855	0.000027
H230	H	1.346787	0.616855	0.500027
H231	H	0.896467	0.057704	0.046446
H232	H	1.396467	0.557704	0.546446
H233	H	1.042689	-0.210832	0.571483
H234	H	1.542689	0.289168	1.071483
N235	N	1.192394	0.001910	0.338895
N236	N	1.692394	0.501910	0.838895
H237	H	1.231352	0.031776	0.301982
H238	H	1.731352	0.531776	0.801982
H239	H	1.232136	-0.024745	0.371575
H240	H	1.732136	0.475255	0.871575
H241	H	0.448319	-0.272874	-0.000004
H242	H	0.948319	0.227126	0.499996
H243	H	0.952996	-0.181609	0.328471
H244	H	1.452996	0.318391	0.828471
