data_functionalizedCrystal
_audit_creation_method	'MofGen! by Chris Wilmer'
_symmetry_space_group_name_H-M	'P1'
_symmetry_Int_Tables_number	1
_symmetry_cell_setting	triclinic
loop_
_symmetry_equiv_pos_as_xyz
  x,y,z
_cell_length_a	6.817900
_cell_length_b	10.992421
_cell_length_c	16.305550
_cell_angle_alpha	93.823954
_cell_angle_beta	103.455250
_cell_angle_gamma	108.764763
loop_
_atom_site_label
_atom_site_type_symbol
_atom_site_fract_x
_atom_site_fract_y
_atom_site_fract_z
V1	V	-4.053422	-0.178845	-0.263020
O2	O	-4.012705	0.007478	-0.258025
O3	O	-4.031419	-0.353546	-0.261209
O4	O	-4.004484	-0.176583	-0.377737
O5	O	-4.039826	-0.170709	-0.140690
V6	V	-4.533699	-0.156501	-0.248389
O7	O	-4.321800	-0.227859	-0.295112
O8	O	-4.715518	-0.107487	-0.216297
O9	O	-4.332495	0.018201	-0.250200
O10	O	-4.691813	-0.342824	-0.253384
O11	O	-4.664691	-0.164636	-0.370719
O12	O	-4.359430	-0.158762	-0.133672
C13	C	-3.882859	-0.396119	-0.257057
C14	C	-3.946153	-0.538943	-0.256341
C15	C	-3.815151	-0.734207	-0.250572
C16	C	-3.748974	-0.585564	-0.250982
C17	C	-4.034956	-0.577254	-0.177670
C18	C	-4.099384	-0.725794	-0.176836
C19	C	-4.193593	-0.765041	-0.338109
C20	C	-4.124145	-0.616534	-0.339816
C21	C	-3.848500	-0.170384	-0.405698
C22	C	-3.889946	-0.169691	-0.499480
C23	C	-4.040625	-0.167006	-0.840226
C24	C	-3.803366	-0.159034	-0.799298
C25	C	-3.760362	-0.160286	-0.701803
C26	C	-3.965870	-0.168337	-0.671178
C27	C	-4.152184	-0.295225	-0.721796
C28	C	-4.193938	-0.294507	-0.819346
C29	C	-4.077465	-0.049105	-0.794390
C30	C	-4.029383	-0.048101	-0.696548
C31	C	-3.923635	-0.169094	-0.575640
C32	C	-4.082870	-0.166258	-0.935765
C33	C	-4.144398	0.060767	-0.254350
C34	C	-4.060343	0.203590	-0.255071
C35	C	-4.178757	-0.164966	-0.105706
C36	C	-4.116548	-0.165652	-0.011924
H37	H	-3.614154	-0.532875	-0.191048
Cl38	Cl	-4.391113	-0.311411	-0.692601
Cl39	Cl	-4.371480	-0.788920	-0.176644
Cl40	Cl	-4.256406	-0.045652	-0.663583
Cl41	Cl	-3.640682	-0.546136	-0.337766
Cl42	Cl	-3.820475	0.096806	-0.643486
H43	H	-4.061684	-0.592878	-0.398021
H44	H	-3.971454	0.047037	-0.807764
H45	H	-4.369466	-0.305635	-0.847337
Cl46	Cl	-4.344218	-0.056373	-0.835794
H47	H	-4.173488	-0.814803	-0.397638
H48	H	-3.776409	-0.780857	-0.306437
Cl49	Cl	-4.352272	-0.569961	-0.353382
Cl50	Cl	-4.469790	-0.828532	-0.344471
H51	H	-3.620002	-0.069055	-0.666785
Cl52	Cl	-3.950624	-0.752444	-0.080398
Cl53	Cl	-3.677927	-0.292585	-0.676633
H54	H	-3.771147	-0.243741	-0.830804
H55	H	-3.713207	-0.754520	-0.190688
Cl56	Cl	-4.087555	-0.433068	-0.695832
Cl57	Cl	-4.259474	-0.530578	-0.179064
H58	H	-4.171356	-0.383761	-0.849721
Cl59	Cl	-3.839968	-0.493128	-0.082255
Cl60	Cl	-3.617976	-0.017386	-0.818252
