data_functionalizedCrystal
_audit_creation_method	'MofGen! by Chris Wilmer'
_symmetry_space_group_name_H-M	'P1'
_symmetry_Int_Tables_number	1
_symmetry_cell_setting	triclinic
loop_
_symmetry_equiv_pos_as_xyz
  x,y,z
_cell_length_a	17.699083
_cell_length_b	13.339070
_cell_length_c	16.776229
_cell_angle_alpha	89.996888
_cell_angle_beta	89.998886
_cell_angle_gamma	99.456154
loop_
_atom_site_label
_atom_site_type_symbol
_atom_site_fract_x
_atom_site_fract_y
_atom_site_fract_z
O1	O	1.031106	0.127864	-0.066171
O2	O	0.814244	0.144499	-0.066196
O3	O	0.897786	-0.011021	-0.066184
O4	O	0.947563	0.283384	-0.066183
O5	O	0.897768	-0.011031	0.066392
O6	O	0.814226	0.144489	0.066380
O7	O	1.031088	0.127854	0.066406
Zn8	Zn	0.922654	0.136170	0.087442
Zn9	Zn	0.922677	0.136183	-0.087233
O10	O	0.947546	0.283374	0.066394
C11	C	0.785912	0.143898	0.000089
C12	C	0.701516	0.142110	0.000079
C13	C	0.672191	0.233397	0.000079
C14	C	0.592891	0.231710	0.000090
C15	C	0.542918	0.138736	0.000094
C16	C	0.572248	0.047442	0.000096
C17	C	0.651546	0.049129	0.000091
C18	C	0.252446	0.040635	0.000115
C19	C	0.173143	0.038955	0.000117
C20	C	0.193791	0.223216	0.000114
C21	C	0.273089	0.224904	0.000109
C22	C	0.302412	0.133610	0.000115
C23	C	0.388398	0.135440	0.000106
C24	C	0.456933	0.136906	0.000098
C25	C	0.889369	-0.048694	0.000102
C26	C	0.864305	-0.160935	0.000096
C27	C	1.059185	-0.526207	0.000119
C28	C	1.082736	-0.420752	0.000129
C29	C	1.028130	-0.355792	0.000121
C30	C	0.949970	-0.396298	0.000102
C31	C	0.926417	-0.501763	0.000098
C32	C	0.895362	-0.331349	0.000100
C33	C	0.817202	-0.371855	0.000082
C34	C	0.793652	-0.477310	0.000077
C35	C	0.848258	-0.542269	0.000086
C36	C	0.918915	-0.225884	0.000104
C37	C	0.786147	-0.201441	0.000083
C38	C	0.762596	-0.306895	0.000073
C39	C	1.059420	0.128455	0.000119
C40	C	1.143816	0.130243	0.000124
C41	C	0.955963	0.321047	0.000106
C42	C	0.981027	0.433288	0.000107
N43	N	0.922644	0.136161	0.206654
N44	N	0.922692	0.136184	-0.206444
C45	C	0.959658	0.067325	0.248376
C46	C	0.959662	0.067324	0.331828
C47	C	0.922656	0.136165	0.373556
C48	C	0.885638	0.205004	0.331828
C49	C	0.885629	0.204999	0.248378
C50	C	0.885669	0.205024	0.668375
C51	C	0.885682	0.205026	0.751832
C52	C	0.959702	0.067349	0.751826
C53	C	0.959694	0.067344	0.668375
C54	C	0.922672	0.136179	0.626654
C55	C	0.922667	0.136178	0.536166
C56	C	0.922666	0.136172	0.464043
H57	H	0.675420	-0.025206	0.000090
H58	H	0.989797	0.011271	0.214406
C59	C	1.000401	-0.008388	0.622479
N60	N	1.031059	-0.065436	0.587911
H61	H	0.989801	0.011272	0.365798
H62	H	0.989845	0.011296	0.785804
C63	C	0.284690	-0.059791	0.000117
N64	N	0.308979	-0.135436	0.000117
H65	H	0.132455	-0.036760	0.000122
C66	C	0.328056	0.327182	0.000110
N67	N	0.369456	0.404221	0.000116
C68	C	0.844965	0.280753	0.797731
N69	N	0.814297	0.337787	0.832303
H70	H	0.855526	0.261074	0.634413
H71	H	0.855502	0.261052	0.365808
H72	H	0.730009	-0.510286	0.000068
C73	C	0.844919	0.280733	0.202483
N74	N	0.814254	0.337778	0.167917
H75	H	0.829087	-0.628140	0.000074
H76	H	0.531553	-0.028259	0.000110
H77	H	0.169907	0.297552	0.000113
H78	H	1.103637	-0.579105	0.000133
H79	H	0.712875	0.309107	0.000075
H80	H	0.982554	-0.192915	0.000119
H81	H	1.047310	-0.269927	0.000129
H82	H	1.146374	-0.387780	0.000146
C83	C	0.676621	-0.351466	0.000064
N84	N	0.611864	-0.385038	0.000060
C85	C	0.560638	0.332134	0.000104
N86	N	0.536346	0.407777	0.000122
H87	H	0.741682	-0.148550	0.000080
