data_functionalizedCrystal
_audit_creation_method	'MofGen! by Chris Wilmer'
_symmetry_space_group_name_H-M	'P1'
_symmetry_Int_Tables_number	1
_symmetry_cell_setting	triclinic
loop_
_symmetry_equiv_pos_as_xyz
  x,y,z
_cell_length_a	17.699097
_cell_length_b	15.944499
_cell_length_c	16.776229
_cell_angle_alpha	89.996595
_cell_angle_beta	89.989262
_cell_angle_gamma	83.383020
loop_
_atom_site_label
_atom_site_type_symbol
_atom_site_fract_x
_atom_site_fract_y
_atom_site_fract_z
O1	O	1.004236	0.106278	-0.066349
O2	O	0.783880	0.120086	-0.066335
O3	O	0.900096	-0.009108	-0.066344
O4	O	0.888020	0.235472	-0.066340
O5	O	0.900080	-0.009116	0.066233
O6	O	0.783865	0.120078	0.066241
O7	O	1.004220	0.106270	0.066228
Zn8	Zn	0.894040	0.113173	0.087284
Zn9	Zn	0.894060	0.113183	-0.087391
O10	O	0.888005	0.235464	0.066236
C11	C	0.755675	0.119585	-0.000045
C12	C	0.671655	0.118095	-0.000040
C13	C	0.155931	0.108966	-0.072340
C14	C	0.234877	0.110361	-0.072336
C15	C	0.274336	0.111055	-0.000065
C16	C	0.234845	0.110346	0.072206
C17	C	0.155901	0.108946	0.072201
C18	C	0.553218	0.115992	0.072227
C19	C	0.632167	0.117395	0.072227
C20	C	0.632194	0.117407	-0.072310
C21	C	0.553250	0.116007	-0.072315
C22	C	0.513767	0.115294	-0.000044
C23	C	0.428165	0.113780	-0.000049
C24	C	0.359936	0.112574	-0.000059
C25	C	0.899594	-0.040406	-0.000057
C26	C	0.898112	-0.133651	-0.000063
C27	C	0.965630	-0.425326	-0.000063
C28	C	0.930524	-0.364233	0.065309
C29	C	0.892727	-0.469277	-0.000054
C30	C	0.930520	-0.364231	-0.065401
C31	C	0.895376	-0.304374	-0.000060
C32	C	0.857601	-0.409412	0.065373
C33	C	0.857607	-0.409416	-0.065396
C34	C	0.822449	-0.348341	-0.000008
C35	C	0.891202	-0.564274	-0.000049
C36	C	0.896895	-0.209378	-0.000058
C37	C	1.032426	0.106770	-0.000064
C38	C	1.116446	0.108260	-0.000074
C39	C	0.888507	0.266762	-0.000052
C40	C	0.889989	0.360007	-0.000051
N41	N	0.894032	0.113165	0.206495
N42	N	0.894075	0.113184	-0.206602
C43	C	0.945508	0.055981	0.248209
C44	C	0.945512	0.055980	0.331661
C45	C	0.894043	0.113168	0.373398
C46	C	0.842562	0.170355	0.331679
C47	C	0.842555	0.170351	0.248228
C48	C	0.842589	0.170371	0.668226
C49	C	0.842602	0.170372	0.751683
C50	C	0.945547	0.056001	0.751659
C51	C	0.945539	0.055997	0.668208
C52	C	0.894056	0.113180	0.626496
C53	C	0.894051	0.113179	0.536008
C54	C	0.894051	0.113174	0.463885
H55	H	0.521082	0.115399	0.131075
H56	H	0.987427	0.009416	0.365623
C57	C	0.972163	-0.337184	0.139968
H58	H	0.938425	-0.299436	0.170751
H59	H	1.014711	-0.309828	0.124265
H60	H	0.989030	-0.385610	0.170958
H61	H	0.800671	0.216933	0.634271
H62	H	0.800687	0.216943	0.785664
H63	H	0.800637	0.216915	0.214266
C64	C	0.278308	0.111142	-0.151828
H65	H	0.243500	0.110539	-0.194870
H66	H	0.314881	0.062724	-0.154838
H67	H	0.303326	0.160659	-0.154826
H68	H	0.123752	0.108380	0.131048
C69	C	0.509850	0.115240	-0.151812
H70	H	0.544675	0.115852	-0.194852
H71	H	0.473275	0.163656	-0.154820
H72	H	0.484835	0.065722	-0.154815
C73	C	1.002171	-0.006909	0.797544
H74	H	0.994801	0.001274	0.853222
H75	H	1.052678	0.002146	0.783852
H76	H	0.993955	-0.062962	0.783872
C77	C	0.278247	0.111086	0.151705
H78	H	0.243424	0.110451	0.194743
H79	H	0.303273	0.160590	0.154727
H80	H	0.314813	0.062656	0.154695
C81	C	0.815974	-0.436318	0.140114
H82	H	0.815293	-0.495808	0.139674
H83	H	0.765266	-0.409263	0.140307
H84	H	0.841698	-0.420494	0.186476
H85	H	0.664351	0.117984	-0.131157
C86	C	1.002152	-0.006912	0.622301
H87	H	1.032806	-0.040975	0.659097
H88	H	1.033649	0.023258	0.589731
H89	H	0.974922	-0.041845	0.589762
H90	H	0.664292	0.117960	0.131082
H91	H	1.026132	-0.458780	-0.000004
C92	C	0.740650	-0.303337	0.000048
H93	H	0.714874	-0.318791	0.046525
H94	H	0.714565	-0.319490	-0.045944
H95	H	0.742050	-0.243955	-0.000385
C96	C	0.785949	0.233262	0.377588
H97	H	0.793330	0.225081	0.433263
H98	H	0.735438	0.224208	0.363930
H99	H	0.794163	0.289313	0.363900
C100	C	0.815994	-0.436503	-0.140051
H101	H	0.841974	-0.421216	-0.186455
H102	H	0.765416	-0.409081	-0.140514
H103	H	0.814935	-0.495932	-0.139251
H104	H	0.987423	0.009416	0.214231
C105	C	0.112533	0.108210	-0.151839
H106	H	0.147359	0.108825	-0.194877
H107	H	0.075962	0.156629	-0.154843
H108	H	0.087514	0.058695	-0.154850
H109	H	0.961375	-0.344211	-0.120663
