data_functionalizedCrystal
_audit_creation_method	'MofGen! by Chris Wilmer'
_symmetry_space_group_name_H-M	'P1'
_symmetry_Int_Tables_number	1
_symmetry_cell_setting	triclinic
loop_
_symmetry_equiv_pos_as_xyz
  x,y,z
_cell_length_a	21.395362
_cell_length_b	15.297327
_cell_length_c	21.395355
_cell_angle_alpha	80.340321
_cell_angle_beta	90.043940
_cell_angle_gamma	99.725883
loop_
_atom_site_label
_atom_site_type_symbol
_atom_site_fract_x
_atom_site_fract_y
_atom_site_fract_z
Zn1	Zn	0.914743	-0.358918	0.397693
Zn2	Zn	1.414743	0.141082	0.897693
Zn3	Zn	0.896524	-0.509774	0.311034
Zn4	Zn	1.396524	-0.009774	0.811034
Zn5	Zn	0.809953	-0.358960	0.292899
Zn6	Zn	1.309953	0.141040	0.792899
Zn7	Zn	0.791803	-0.509792	0.415741
Zn8	Zn	1.291803	-0.009792	0.915741
O9	O	0.853256	-0.434361	0.354342
O10	O	1.353256	0.065639	0.854342
O11	O	1.000007	-0.378904	0.386234
O12	O	1.500007	0.121096	0.886234
O13	O	0.885011	-0.489778	0.220951
O14	O	1.385011	0.010222	0.720951
O15	O	0.839075	-0.232697	0.291658
O16	O	1.339075	0.267303	0.791658
O17	O	0.986621	-0.489737	0.322566
O18	O	1.486621	0.010263	0.822566
O19	O	0.916063	-0.232666	0.368649
O20	O	1.416063	0.267334	0.868649
O21	O	0.821408	-0.378975	0.207628
O22	O	1.321408	0.121025	0.707628
O23	O	0.719864	-0.378993	0.309158
O24	O	1.219864	0.121007	0.809158
O25	O	0.808140	-0.489769	0.501023
O26	O	1.308140	0.010231	1.001023
O27	O	0.706530	-0.489810	0.399409
O28	O	1.206530	0.010190	0.899409
O29	O	0.898464	-0.378922	0.487764
O30	O	1.398464	0.121078	0.987764
O31	O	0.867411	-0.636034	0.340066
O32	O	1.367411	-0.136034	0.840066
O33	O	0.790473	-0.636048	0.416993
O34	O	1.290473	-0.136048	0.916993
C35	C	0.690462	-0.434409	0.354275
C36	C	1.190462	0.065591	0.854275
C37	C	0.620816	-0.434451	0.354263
C38	C	1.120816	0.065549	0.854263
C39	C	0.825013	-0.668778	0.382470
C40	C	1.325013	-0.168778	0.882470
C41	C	0.812988	-0.769063	0.394524
C42	C	1.312988	-0.269063	0.894524
C43	C	0.581167	-0.492229	0.401206
C44	C	1.081167	0.007771	0.901206
C45	C	0.515734	-0.492207	0.401232
C46	C	1.015734	0.007793	0.901232
C47	C	0.489952	-0.434416	0.354304
C48	C	0.989952	0.065584	0.854304
C49	C	0.529610	-0.376627	0.307357
C50	C	1.029610	0.123373	0.807357
C51	C	0.595042	-0.376644	0.307337
C52	C	1.095042	0.123356	0.807337
C53	C	0.387100	-0.427148	0.297026
C54	C	0.887100	0.072852	0.797026
C55	C	0.321669	-0.427137	0.297046
C56	C	0.821669	0.072863	0.797046
C57	C	0.288138	-0.434357	0.354366
C58	C	0.788138	0.065643	0.854366
C59	C	0.320045	-0.441608	0.411670
C60	C	0.820045	0.058392	0.911670
C61	C	0.385477	-0.441625	0.411650
C62	C	0.885477	0.058375	0.911650
C63	C	0.419003	-0.434390	0.354321
C64	C	0.919003	0.065610	0.854321
C65	C	0.177539	-0.492115	0.401340
C66	C	0.677539	0.007885	0.901340
C67	C	0.112106	-0.492086	0.401366
C68	C	0.612106	0.007914	0.901366
C69	C	0.125983	-0.376510	0.307486
C70	C	0.625983	0.123490	0.807486
C71	C	0.191415	-0.376534	0.307465
C72	C	0.691415	0.123466	0.807465
C73	C	0.217189	-0.434341	0.354392
C74	C	0.717189	0.065659	0.854392
C75	C	0.939459	-1.051594	0.268402
C76	C	1.439459	-0.551594	0.768402
C77	C	0.950757	-0.957372	0.257073
C78	C	1.450757	-0.457372	0.757073
C79	C	0.916316	-0.910290	0.291435
C80	C	1.416316	-0.410290	0.791435
C81	C	0.870575	-0.957440	0.337127
C82	C	1.370575	-0.457440	0.837127
C83	C	0.859272	-1.051671	0.348454
C84	C	1.359272	-0.551671	0.848454
C85	C	0.836129	-0.910367	0.371487
C86	C	1.336129	-0.410367	0.871487
C87	C	0.790387	-0.957517	0.417179
C88	C	1.290387	-0.457517	0.917179
C89	C	0.779087	-1.051739	0.428503
C90	C	1.279087	-0.551739	0.928503
C91	C	0.813528	-1.098821	0.394142
C92	C	1.313528	-0.598821	0.894142
C93	C	0.847431	-0.816135	0.360160
C94	C	1.347431	-0.316135	0.860160
C95	C	0.767244	-0.816212	0.440212
C96	C	1.267244	-0.316212	0.940212
C97	C	0.755946	-0.910435	0.451540
C98	C	1.255946	-0.410435	0.951540
C99	C	1.016685	-0.434314	0.354409
C100	C	1.516685	0.065686	0.854409
C101	C	1.086328	-0.434294	0.354438
C102	C	1.586328	0.065706	0.854438
C103	C	0.853310	-0.434343	0.517763
C104	C	1.353310	0.065657	1.017763
C105	C	0.853333	-0.434335	0.587403
C106	C	1.353333	0.065665	1.087403
C107	C	0.881626	-0.199029	0.326118
C108	C	1.381626	0.300971	0.826118
C109	C	0.893716	-0.098744	0.314090
C110	C	1.393716	0.401256	0.814090
C111	C	0.853246	-0.434314	0.191548
C112	C	1.353246	0.065686	0.691548
C113	C	0.853374	-0.434068	0.121878
C114	C	1.353374	0.065932	0.621878
C115	C	0.900363	-0.376615	0.613213
C116	C	1.400363	0.123385	1.113213
C117	C	0.900367	-0.376576	0.678643
C118	C	1.400367	0.123424	1.178643
C119	C	0.853345	-0.434273	0.718264
C120	C	1.353345	0.065727	1.218264
C121	C	0.806307	-0.491998	0.692447
C122	C	1.306307	0.008002	1.192447
C123	C	0.806301	-0.492029	0.627017
C124	C	1.306301	0.007971	1.127017
C125	C	0.838610	-0.515514	0.831685
C126	C	1.338610	-0.015514	1.331685
C127	C	0.838620	-0.515485	0.897115
C128	C	1.338620	-0.015485	1.397115
C129	C	0.853361	-0.434178	0.920074
C130	C	1.353361	0.065822	1.420074
C131	C	0.868104	-0.352898	0.877594
C132	C	1.368104	0.147102	1.377594
C133	C	0.868098	-0.352928	0.812164
C134	C	1.368098	0.147072	1.312164
C135	C	0.853346	-0.434246	0.789213
C136	C	1.353346	0.065754	1.289213
C137	C	0.900398	-0.376411	1.016830
C138	C	1.400398	0.123589	1.516830
C139	C	0.900397	-0.376370	1.082262
C140	C	1.400397	0.123630	1.582262
C141	C	0.806339	-0.491801	1.096065
C142	C	1.306339	0.008199	1.596065
C143	C	0.806338	-0.491833	1.030634
C144	C	1.306338	0.008167	1.530634
C145	C	0.853370	-0.434139	0.991020
C146	C	1.353370	0.065861	1.491020
H147	H	0.602147	-0.539299	0.439419
H148	H	1.102147	-0.039299	0.939419
F149	F	0.801307	-1.199104	0.405997
F150	F	1.301307	-0.699104	0.905997
H151	H	0.987999	-0.918986	0.219871
H152	H	1.487999	-0.418986	0.719871
H153	H	0.768000	-0.539030	0.606004
H154	H	1.268000	-0.039030	1.106004
F155	F	0.950462	-0.314943	1.109731
F156	F	1.450462	0.185057	1.609731
F157	F	0.730402	-1.101917	0.477130
F158	F	1.230402	-0.601917	0.977130
F159	F	0.473528	-0.553705	0.451197
F160	F	0.973528	-0.053705	0.951197
H161	H	0.104993	-0.329452	0.269279
H162	H	0.604993	0.170548	0.769279
H163	H	0.718703	-0.948837	0.488743
H164	H	1.218703	-0.448837	0.988743
F165	F	0.730583	-0.766109	0.476781
F166	F	1.230583	-0.266109	0.976781
F167	F	0.233615	-0.315040	0.257500
F168	F	0.733615	0.184960	0.757500
F169	F	0.976107	-1.101707	0.231836
F170	F	1.476107	-0.601707	0.731836
F171	F	0.950450	-0.315005	0.974668
F172	F	1.450450	0.184995	1.474668
F173	F	0.287717	-0.419420	0.236058
F174	F	0.787717	0.080580	0.736058
H175	H	0.414396	-0.421264	0.250345
H176	H	0.914396	0.078736	0.750345
H177	H	0.627326	-0.329591	0.269110
H178	H	1.127326	0.170409	0.769110
H179	H	0.411453	-0.447526	0.458309
H180	H	0.911453	0.052474	0.958309
F181	F	0.928476	-0.810010	0.279511
F182	F	1.428476	-0.310010	0.779511
H183	H	0.768048	-0.538770	1.128323
H184	H	1.268048	-0.038770	1.628323
H185	H	0.826619	-0.581669	0.931697
H186	H	1.326619	-0.081669	1.431697
H187	H	0.768020	-0.538973	0.724710
H188	H	1.268020	-0.038973	1.224710
F189	F	0.284366	-0.449289	0.472680
F190	F	0.784366	0.050711	0.972680
F191	F	0.822934	-0.602060	0.807259
F192	F	1.322934	-0.102060	1.307259
F193	F	0.204972	-0.553633	0.451285
F194	F	0.704972	-0.053633	0.951285
H195	H	0.884674	-0.777754	0.322957
H196	H	1.384674	-0.277754	0.822957
F197	F	0.069908	-0.553581	0.451334
F198	F	0.569908	-0.053581	0.951334
F199	F	0.950417	-0.315208	0.571056
F200	F	1.450417	0.184792	1.071056
H201	H	0.938664	-0.329568	0.699661
H202	H	1.438664	0.170432	1.199661
F203	F	0.883785	-0.266427	0.766957
F204	F	1.383785	0.233573	1.266957
F205	F	0.883795	-0.266358	0.902022
F206	F	1.383795	0.233642	1.402022
F207	F	0.756283	-0.553271	1.003165
F208	F	1.256283	-0.053271	1.503165
F209	F	0.502171	-0.315118	0.257415
F210	F	1.002171	0.184882	0.757415
