data_functionalizedCrystal
_audit_creation_method	'MofGen! by Chris Wilmer'
_symmetry_space_group_name_H-M	'P1'
_symmetry_Int_Tables_number	1
_symmetry_cell_setting	triclinic
loop_
_symmetry_equiv_pos_as_xyz
  x,y,z
_cell_length_a	14.971486
_cell_length_b	16.109301
_cell_length_c	14.048226
_cell_angle_alpha	89.992144
_cell_angle_beta	89.998499
_cell_angle_gamma	83.537805
loop_
_atom_site_label
_atom_site_type_symbol
_atom_site_fract_x
_atom_site_fract_y
_atom_site_fract_z
O1	O	1.186791	0.108348	-0.079054
O2	O	0.926372	0.121323	-0.079081
O3	O	1.063735	-0.006187	-0.079057
O4	O	1.049427	0.235857	-0.079078
O5	O	1.063719	-0.006194	0.079264
O6	O	0.926355	0.121315	0.079241
O7	O	1.186774	0.108340	0.079267
Zn8	Zn	1.056562	0.114826	0.104391
Zn9	Zn	1.056584	0.114836	-0.104204
O10	O	1.049411	0.235850	0.079244
C11	C	0.893040	0.120739	0.000077
C12	C	0.793745	0.119000	0.000067
C13	C	1.063147	-0.037166	0.000104
C14	C	1.061410	-0.129464	0.000105
C15	C	0.736412	0.193908	0.000062
C16	C	0.643115	0.192269	0.000076
C17	C	0.607153	0.115721	0.000089
C18	C	0.664494	0.040807	0.000097
C19	C	0.757789	0.042447	0.000089
C20	C	0.470036	0.037395	0.000110
C21	C	0.376734	0.035755	0.000116
C22	C	0.355362	0.187217	0.000097
C23	C	0.448657	0.188857	0.000090
C24	C	0.505991	0.113942	0.000096
C25	C	1.138878	-0.351640	0.000098
C26	C	1.137239	-0.438362	0.000090
C27	C	0.974262	-0.418691	0.000077
C28	C	0.975902	-0.331970	0.000078
C29	C	1.058213	-0.298447	0.000094
C30	C	1.054933	-0.471890	0.000085
C31	C	1.053155	-0.565918	0.000076
C32	C	1.059992	-0.204413	0.000101
C33	C	1.220106	0.108924	0.000108
C34	C	1.319401	0.110663	0.000111
C35	C	1.049999	0.266829	0.000080
C36	C	1.051736	0.359127	0.000073
N37	N	1.056554	0.114819	0.246752
N38	N	1.056599	0.114837	-0.246565
C39	C	1.117397	0.058381	0.296580
C40	C	1.117403	0.058381	0.396238
C41	C	1.056570	0.114823	0.446065
C42	C	0.995719	0.171263	0.396230
C43	C	0.995710	0.171259	0.296574
C44	C	0.995745	0.171269	0.603944
C45	C	0.995756	0.171275	0.703607
C46	C	1.117439	0.058391	0.703608
C47	C	1.117429	0.058387	0.603952
C48	C	1.056580	0.114829	0.554123
H49	H	0.765684	0.256242	0.000051
Br50	Br	0.862559	-0.464192	0.000054
H51	H	1.202924	-0.481669	0.000092
H52	H	1.205901	-0.324348	0.000108
Br53	Br	0.866420	-0.259773	0.000060
Br54	Br	0.565308	0.293935	0.000066
Br55	Br	1.199969	-0.018217	0.228968
Br56	Br	1.199975	-0.018217	0.463865
H57	H	1.166969	0.012432	0.563383
H58	H	0.804470	-0.018551	0.000093
Br59	Br	1.200022	-0.018204	0.771235
Br60	Br	0.913158	0.247867	0.536322
Br61	Br	0.497463	0.292745	0.000058
H62	H	0.946183	0.217217	0.436805
H63	H	0.516716	-0.023609	0.000117
Br64	Br	0.277553	0.288887	0.000088
H65	H	0.946218	0.217235	0.744171
Br66	Br	0.327929	-0.068133	0.000165
H67	H	0.635206	-0.021520	0.000121
Br68	Br	0.913127	0.247852	0.228949
