data_functionalizedCrystal
_audit_creation_method	'MofGen! by Chris Wilmer'
_symmetry_space_group_name_H-M	'P1'
_symmetry_Int_Tables_number	1
_symmetry_cell_setting	triclinic
loop_
_symmetry_equiv_pos_as_xyz
  x,y,z
_cell_length_a	10.967953
_cell_length_b	10.723024
_cell_length_c	9.198806
_cell_angle_alpha	90.003648
_cell_angle_beta	102.127052
_cell_angle_gamma	95.409007
loop_
_atom_site_label
_atom_site_type_symbol
_atom_site_fract_x
_atom_site_fract_y
_atom_site_fract_z
O1	O	0.175022	-1.657183	-0.077032
O2	O	0.191775	-1.294030	-0.072839
O3	O	0.001825	-1.483988	-0.120419
O4	O	0.364972	-1.467225	-0.029452
O5	O	0.001824	-1.483973	0.121366
O6	O	0.191775	-1.294015	0.168946
O7	O	0.175022	-1.657168	0.164753
Cu8	Cu	0.183398	-1.475590	0.188926
Cu9	Cu	0.183399	-1.475608	-0.097012
O10	O	0.364972	-1.467210	0.212333
C11	C	0.190556	-1.247523	0.047747
C12	C	0.186908	-1.108969	0.046832
C13	C	-0.044674	-1.482763	-0.011177
C14	C	-0.183227	-1.479119	-0.045893
C15	C	0.176241	-1.703675	0.044164
C16	C	0.179889	-1.842229	0.045070
C17	C	-0.388200	-1.473714	0.028020
C18	C	-0.245000	-1.477484	0.063897
C19	C	0.411471	-1.468436	0.103088
C20	C	0.550024	-1.472080	0.137794
N21	N	0.183397	-1.475587	0.390040
C22	C	0.293194	-1.033984	0.073455
C23	C	0.289427	-0.890780	0.072509
N24	N	0.183390	-1.475621	-0.298128
C25	C	0.103291	-1.555345	0.442172
C26	C	0.103286	-1.555364	0.609583
H27	H	-0.441328	-1.472329	-0.092521
O28	O	0.265390	-1.394277	0.648429
C29	C	0.389044	-1.415915	0.716519
H30	H	0.390320	-1.515828	0.758753
H31	H	0.425315	-1.347080	0.813857
C32	C	0.471828	-1.274853	0.550483
C33	C	0.473397	-1.397572	0.602345
H34	H	0.523864	-1.263533	0.480059
H35	H	0.388521	-1.260271	0.504613
H36	H	0.502052	-1.217505	0.631610
H37	H	0.443160	-1.454917	0.521221
H38	H	0.556702	-1.412163	0.648199
O39	O	0.071294	-0.919031	0.017609
C40	C	0.001322	-0.895753	-0.125122
H41	H	0.066775	-0.851756	-0.196250
H42	H	-0.071567	-0.828957	-0.115068
C43	C	-0.145456	-1.074030	-0.111175
C44	C	-0.065064	-1.020001	-0.198539
H45	H	-0.186411	-1.150670	-0.156461
H46	H	-0.098318	-1.089711	-0.015012
H47	H	-0.206185	-1.018354	-0.102803
H48	H	-0.004327	-1.075670	-0.206894
H49	H	-0.112194	-1.004333	-0.294705
H50	H	-0.396850	-1.473478	0.258335
H51	H	-0.191878	-1.478883	0.184446
O52	O	-0.246612	-1.477238	-0.189683
C53	C	-0.308742	-1.367385	-0.213019
H54	H	-0.260205	-1.293004	-0.126123
H55	H	-0.410355	-1.389181	-0.202927
C56	C	-0.364524	-1.409776	-0.476250
C57	C	-0.304904	-1.318416	-0.369531
H58	H	-0.362163	-1.379572	-0.572796
H59	H	-0.322671	-1.483789	-0.460529
H60	H	-0.449196	-1.427932	-0.467821
H61	H	-0.220230	-1.300274	-0.377948
H62	H	-0.346743	-1.244399	-0.385257
O63	O	0.398101	-0.814099	0.099665
C64	C	0.500679	-0.887056	0.125401
H65	H	0.469952	-0.983963	0.071933
H66	H	0.535975	-0.896570	0.250240
C67	C	0.644299	-0.703970	0.122772
C68	C	0.606561	-0.822990	0.057091
H69	H	0.709615	-0.664449	0.080642
H70	H	0.575191	-0.654815	0.105439
H71	H	0.673704	-0.711914	0.226802
H72	H	0.577143	-0.815042	-0.046933
H73	H	0.675667	-0.872141	0.074405
O74	O	0.021468	-1.636648	0.347379
C75	C	-0.055875	-1.568894	0.239960
H76	H	-0.006834	-1.471734	0.229645
H77	H	-0.148218	-1.559488	0.275347
C78	C	-0.142099	-1.758170	0.101420
C79	C	-0.081861	-1.638840	0.088743
H80	H	-0.158135	-1.801317	0.008144
H81	H	-0.089996	-1.803818	0.173793
H82	H	-0.219045	-1.750315	0.130915
H83	H	-0.004911	-1.646697	0.059267
H84	H	-0.133953	-1.593195	0.016361
H85	H	0.251972	-1.407312	0.469345
H86	H	0.034708	-1.623653	0.654491
H87	H	0.386979	-1.075803	0.096956
H88	H	0.093124	-1.067149	0.023302
