data_functionalizedCrystal
_audit_creation_method	'MofGen! by Chris Wilmer'
_symmetry_space_group_name_H-M	'P1'
_symmetry_Int_Tables_number	1
_symmetry_cell_setting	triclinic
loop_
_symmetry_equiv_pos_as_xyz
  x,y,z
_cell_length_a	19.121063
_cell_length_b	17.077404
_cell_length_c	17.077396
_cell_angle_alpha	89.980499
_cell_angle_beta	87.591200
_cell_angle_gamma	87.530787
loop_
_atom_site_label
_atom_site_type_symbol
_atom_site_fract_x
_atom_site_fract_y
_atom_site_fract_z
Zn1	Zn	-0.279610	-1.186697	0.457152
Zn2	Zn	0.053724	-0.853364	0.790485
Zn3	Zn	0.387057	-0.520031	1.123818
Zn4	Zn	-0.397067	-1.180993	0.331476
Zn5	Zn	-0.063733	-0.847660	0.664810
Zn6	Zn	0.269600	-0.514327	0.998143
Zn7	Zn	-0.279634	-1.055428	0.325901
Zn8	Zn	0.053699	-0.722095	0.659234
Zn9	Zn	0.387032	-0.388761	0.992567
Zn10	Zn	-0.397025	-1.049788	0.462698
Zn11	Zn	-0.063692	-0.716455	0.796031
Zn12	Zn	0.269642	-0.383121	1.129365
O13	O	-0.338334	-1.118227	0.394307
O14	O	-0.005001	-0.784893	0.727640
O15	O	0.328333	-0.451560	1.060973
O16	O	-0.295198	-1.295787	0.440493
O17	O	0.038136	-0.962454	0.773826
O18	O	0.371469	-0.629121	1.107159
O19	O	-0.381517	-1.164310	0.220891
O20	O	-0.048184	-0.830977	0.554224
O21	O	0.285150	-0.497643	0.887558
O22	O	-0.181347	-1.077589	0.338657
O23	O	0.151987	-0.744255	0.671990
O24	O	0.485320	-0.410922	1.005324
O25	O	-0.381493	-1.291597	0.348160
O26	O	-0.048160	-0.958263	0.681493
O27	O	0.285174	-0.624930	1.014826
O28	O	-0.181328	-1.174032	0.435086
O29	O	0.152005	-0.840698	0.768420
O30	O	0.485338	-0.507365	1.101753
O31	O	-0.295240	-1.072058	0.216795
O32	O	0.038094	-0.738724	0.550128
O33	O	0.371427	-0.405391	0.883461
O34	O	-0.295199	-0.944833	0.344035
O35	O	0.038134	-0.611500	0.677368
O36	O	0.371467	-0.278167	1.010702
O37	O	-0.381422	-1.067976	0.571808
O38	O	-0.048089	-0.734643	0.905141
O39	O	0.285245	-0.401309	1.238475
O40	O	-0.381446	-0.940690	0.444539
O41	O	-0.048112	-0.607356	0.777873
O42	O	0.285221	-0.274023	1.111206
O43	O	-0.295157	-1.168563	0.567733
O44	O	0.038176	-0.835229	0.901066
O45	O	0.371509	-0.501896	1.234400
O46	O	-0.495346	-1.158841	0.353538
O47	O	-0.162012	-0.825508	0.686871
O48	O	0.171321	-0.492175	1.020204
O49	O	-0.495315	-1.062445	0.449946
O50	O	-0.161982	-0.729112	0.783279
O51	O	0.171351	-0.395779	1.116612
C52	C	-0.338321	-0.914279	0.394284
C53	C	-0.004988	-0.580946	0.727618
C54	C	0.328345	-0.247613	1.060951
C55	C	-0.338333	-0.827029	0.394294
C56	C	-0.004999	-0.493696	0.727628
C57	C	0.328334	-0.160362	1.060961
C58	C	-0.520815	-1.109434	0.402966
C59	C	-0.187481	-0.776100	0.736299
C60	C	0.145852	-0.442767	1.069632
C61	C	-0.598881	-1.105744	0.406696
C62	C	-0.265547	-0.772410	0.740030
C63	C	0.067786	-0.439077	1.073363
C64	C	-0.338282	-1.118277	0.599049
C65	C	-0.004949	-0.784943	0.932382
C66	C	0.328384	-0.451610	1.265715
C67	C	-0.338260	-1.118298	0.686297
C68	C	-0.004927	-0.784965	1.019631
C69	C	0.328406	-0.451631	1.352964
C70	C	-0.635549	-1.154237	0.358296
C71	C	-0.302215	-0.820904	0.691629
C72	C	0.031118	-0.487571	1.024963
C73	C	-0.708900	-1.150772	0.361809
C74	C	-0.375567	-0.817438	0.695143
C75	C	-0.042233	-0.484105	1.028476
C76	C	-0.745582	-1.098808	0.413719
C77	C	-0.412248	-0.765474	0.747053
C78	C	-0.078915	-0.432141	1.080386
C79	C	-0.708908	-1.050312	0.462125
C80	C	-0.375575	-0.716979	0.795458
C81	C	-0.042242	-0.383645	1.128792
C82	C	-0.635558	-1.053782	0.458615
C83	C	-0.302225	-0.720449	0.791948
C84	C	0.031108	-0.387116	1.125282
C85	C	-0.967052	-1.085821	0.426830
C86	C	-0.633718	-0.752487	0.760163
C87	C	-0.300385	-0.419154	1.093496
C88	C	-1.040407	-1.082353	0.430334
C89	C	-0.707073	-0.749019	0.763667
C90	C	-0.373740	-0.415686	1.097001
C91	C	-1.040393	-1.182814	0.330019
C92	C	-0.707060	-0.849480	0.663353
C93	C	-0.373726	-0.516147	0.996686
C94	C	-0.967042	-1.186276	0.326511
C95	C	-0.633708	-0.852943	0.659844
C96	C	-0.300375	-0.519609	0.993177
C97	C	-0.930375	-1.137783	0.374919
C98	C	-0.597042	-0.804450	0.708252
C99	C	-0.263708	-0.471117	1.041586
C100	C	-0.820559	-1.095262	0.417310
C101	C	-0.487225	-0.761929	0.750643
C102	C	-0.153892	-0.428596	1.083977
C103	C	-0.855399	-1.141333	0.371332
C104	C	-0.522066	-0.808000	0.704665
C105	C	-0.188733	-0.474667	1.037998
C106	C	-0.155141	-1.127075	0.385631
C107	C	0.178193	-0.793742	0.718964
C108	C	0.511526	-0.460409	1.052298
C109	C	-0.077075	-1.130846	0.381934
C110	C	0.256259	-0.797513	0.715267
C111	C	0.589592	-0.464180	1.048601
C112	C	-0.338347	-1.322970	0.394329
C113	C	-0.005014	-0.989637	0.727663
C114	C	0.328319	-0.656304	1.060996
C115	C	-0.338353	-1.410220	0.394339
C116	C	-0.005020	-1.076886	0.727673
C117	C	0.328314	-0.743553	1.061006
C118	C	-0.383309	-0.783899	0.446550
C119	C	-0.049976	-0.450565	0.779883
C120	C	0.283358	-0.117232	1.113216
C121	C	-0.383311	-0.701918	0.446562
C122	C	-0.049977	-0.368585	0.779896
C123	C	0.283356	-0.035251	1.113229
C124	C	-0.338339	-0.663069	0.394315
C125	C	-0.005005	-0.329736	0.727648
C126	C	0.328328	0.003597	1.060982
C127	C	-0.293358	-0.706206	0.342057
C128	C	0.039976	-0.372872	0.675391
C129	C	0.373309	-0.039539	1.008724
C130	C	-0.293353	-0.788185	0.342049
C131	C	0.039980	-0.454852	0.675382
C132	C	0.373314	-0.121518	1.008716
C133	C	-0.293371	-0.535335	0.342077
C134	C	0.039962	-0.202002	0.675410
C135	C	0.373295	0.131332	1.008744
C136	C	-0.293377	-0.453350	0.342084
C137	C	0.039957	-0.120017	0.675417
C138	C	0.373290	0.213316	1.008751
C139	C	-0.383329	-0.449068	0.446590
C140	C	-0.049996	-0.115735	0.779923
C141	C	0.283338	0.217598	1.113257
C142	C	-0.383324	-0.531047	0.446582
C143	C	-0.049991	-0.197714	0.779915
C144	C	0.283342	0.135619	1.113248
C145	C	-0.338344	-0.574178	0.394323
C146	C	-0.005011	-0.240845	0.727656
C147	C	0.328323	0.092489	1.060989
C148	C	-0.338335	-1.118224	0.190359
C149	C	-0.005001	-0.784891	0.523692
C150	C	0.328332	-0.451558	0.857026
C151	C	-0.338159	-1.118365	0.103101
C152	C	-0.004826	-0.785031	0.436434
C153	C	0.328508	-0.451698	0.769768
C154	C	-0.293338	-1.170675	0.725167
C155	C	0.039995	-0.837342	1.058500
C156	C	0.373328	-0.504009	1.391833
C157	C	-0.293315	-1.170686	0.807146
C158	C	0.040018	-0.837353	1.140480
C159	C	0.373352	-0.504019	1.473813
C160	C	-0.338217	-1.118322	0.850255
C161	C	-0.004884	-0.784989	1.183588
C162	C	0.328449	-0.451656	1.516921
C163	C	-0.383141	-1.065939	0.811380
C164	C	-0.049808	-0.732606	1.144713
C165	C	0.283526	-0.399272	1.478046
C166	C	-0.383160	-1.065925	0.729402
C167	C	-0.049827	-0.732592	1.062735
C168	C	0.283506	-0.399259	1.396068
C169	C	-0.383099	-1.065973	0.982248
C170	C	-0.049766	-0.732639	1.315581
C171	C	0.283568	-0.399306	1.648915
C172	C	-0.383081	-1.065987	1.064232
C173	C	-0.049747	-0.732654	1.397565
C174	C	0.283586	-0.399321	1.730898
C175	C	-0.293254	-1.170733	1.059992
C176	C	0.040080	-0.837400	1.393326
C177	C	0.373413	-0.504067	1.726659
C178	C	-0.293273	-1.170720	0.978014
C179	C	0.040060	-0.837386	1.311348
C180	C	0.373394	-0.504053	1.644681
C181	C	-0.338198	-1.118337	0.939145
C182	C	-0.004864	-0.785004	1.272478
C183	C	0.328469	-0.451671	1.605812
H184	H	-0.605687	-1.196548	0.316022
H185	H	-0.272354	-0.863215	0.649355
H186	H	0.060979	-0.529882	0.982689
H187	H	-1.070271	-1.040047	0.472619
H188	H	-0.736937	-0.706713	0.805953
H189	H	-0.403604	-0.373380	1.139286
H190	H	-0.256776	-1.213318	0.690074
H191	H	0.076557	-0.879985	1.023407
H192	H	0.409891	-0.546652	1.356740
H193	H	-0.937177	-1.228589	0.284241
H194	H	-0.603844	-0.895256	0.617575
H195	H	-0.270510	-0.561922	0.950908
H196	H	-0.256738	-0.674569	0.299520
H197	H	0.076596	-0.341235	0.632853
H198	H	0.409929	-0.007902	0.966187
H199	H	-1.070255	-1.222295	0.290609
H200	H	-0.736922	-0.888961	0.623942
H201	H	-0.403589	-0.555628	0.957276
H202	H	-0.419699	-1.023301	0.846485
H203	H	-0.086366	-0.689968	1.179819
H204	H	0.246968	-0.356634	1.513152
H205	H	-0.256725	-0.823301	0.299501
H206	H	0.076608	-0.489968	0.632835
H207	H	0.409942	-0.156634	0.966168
H208	H	-0.605704	-1.014295	0.498029
H209	H	-0.272371	-0.680961	0.831362
H210	H	0.060963	-0.347628	1.164695
H211	H	-0.256737	-1.213339	0.838790
H212	H	0.076596	-0.880005	1.172123
H213	H	0.409930	-0.546672	1.505457
H214	H	-0.825531	-1.183645	0.329069
H215	H	-0.492198	-0.850312	0.662403
H216	H	-0.158864	-0.516979	0.995736
H217	H	-0.419733	-1.023267	0.697755
H218	H	-0.086400	-0.689933	1.031088
H219	H	0.246933	-0.356600	1.364422
H220	H	-0.419935	-0.666805	0.489113
H221	H	-0.086602	-0.333471	0.822446
H222	H	0.246731	-0.000138	1.155780
H223	H	-0.256713	-1.213363	0.942917
H224	H	0.076620	-0.880030	1.276251
H225	H	0.409953	-0.546696	1.609584
H226	H	-0.419948	-0.562675	0.489122
H227	H	-0.086615	-0.229342	0.822455
H228	H	0.246718	0.103991	1.155788
H229	H	-0.256673	-1.213384	1.091644
H230	H	0.076660	-0.880050	1.424977
H231	H	0.409994	-0.546717	1.758310
H232	H	-0.419643	-1.023346	1.099329
H233	H	-0.086309	-0.690013	1.432662
H234	H	0.247024	-0.356680	1.765995
H235	H	-0.937203	-1.046335	0.466244
H236	H	-0.603870	-0.713001	0.799578
H237	H	-0.270536	-0.379668	1.132911
H238	H	-0.256737	-0.570450	0.299529
H239	H	0.076596	-0.237117	0.632862
H240	H	0.409929	0.096217	0.966195
H241	H	-0.419952	-0.413947	0.489143
H242	H	-0.086618	-0.080614	0.822477
H243	H	0.246715	0.252719	1.155810
H244	H	-0.738781	-1.008005	0.504395
H245	H	-0.405447	-0.674672	0.837728
H246	H	-0.072114	-0.341339	1.171061
H247	H	-0.738752	-1.190260	0.322396
H248	H	-0.405419	-0.856927	0.655729
H249	H	-0.072085	-0.523593	0.989063
H250	H	-0.850433	-1.052952	0.459574
H251	H	-0.517100	-0.719618	0.792907
H252	H	-0.183766	-0.386285	1.126240
H253	H	-0.256748	-0.421722	0.299549
H254	H	0.076585	-0.088389	0.632882
H255	H	0.409918	0.244944	0.966215
H256	H	-0.419933	-0.815523	0.489093
H257	H	-0.086599	-0.482190	0.822426
H258	H	0.246734	-0.148856	1.155759
H259	H	-0.419670	-1.023306	0.950603
H260	H	-0.086337	-0.689972	1.283936
H261	H	0.246996	-0.356639	1.617269
