data_functionalizedCrystal
_audit_creation_method	'MofGen! by Chris Wilmer'
_symmetry_space_group_name_H-M	'P1'
_symmetry_Int_Tables_number	1
_symmetry_cell_setting	triclinic
loop_
_symmetry_equiv_pos_as_xyz
  x,y,z
_cell_length_a	11.169417
_cell_length_b	16.625546
_cell_length_c	11.169409
_cell_angle_alpha	89.961635
_cell_angle_beta	89.979436
_cell_angle_gamma	90.023347
loop_
_atom_site_label
_atom_site_type_symbol
_atom_site_fract_x
_atom_site_fract_y
_atom_site_fract_z
Zn1	Zn	1.834870	-0.320918	-0.678492
Zn2	Zn	2.334870	0.179082	-0.178492
Zn3	Zn	1.834714	-0.455780	-0.477788
Zn4	Zn	2.334714	0.044220	0.022212
Zn5	Zn	1.634153	-0.320967	-0.477826
Zn6	Zn	2.134153	0.179033	0.022174
Zn7	Zn	1.634121	-0.455714	-0.678432
Zn8	Zn	2.134121	0.044286	-0.178432
O9	O	1.734465	-0.388345	-0.578135
O10	O	2.234465	0.111655	-0.078135
O11	O	2.002799	-0.338815	-0.651877
O12	O	2.502799	0.161185	-0.151877
O13	O	1.808058	-0.437944	-0.309843
O14	O	2.308058	0.062056	0.190157
O15	O	1.660857	-0.208128	-0.504486
O16	O	2.160857	0.291872	-0.004486
O17	O	2.002685	-0.437897	-0.504420
O18	O	2.502685	0.062103	-0.004420
O19	O	1.808323	-0.208092	-0.651914
O20	O	2.308323	0.291908	-0.151914
O21	O	1.660706	-0.338898	-0.309871
O22	O	2.160706	0.161102	0.190129
O23	O	1.466199	-0.338835	-0.504428
O24	O	1.966199	0.161165	-0.004428
O25	O	1.660802	-0.437785	-0.846390
O26	O	2.160802	0.062215	-0.346390
O27	O	1.466175	-0.437833	-0.651813
O28	O	1.966175	0.062167	-0.151813
O29	O	1.808292	-0.338751	-0.846434
O30	O	2.308292	0.161249	-0.346434
O31	O	1.808026	-0.568604	-0.504362
O32	O	2.308026	-0.068604	-0.004362
O33	O	1.660651	-0.568555	-0.651775
O34	O	2.160651	-0.068555	-0.151775
C35	C	1.422640	-0.388333	-0.578119
C36	C	1.922640	0.111667	-0.078119
C37	C	1.289240	-0.388347	-0.578141
C38	C	1.789240	0.111653	-0.078141
C39	C	1.734351	-0.597836	-0.578084
C40	C	2.234351	-0.097836	-0.078084
C41	C	1.734412	-0.687457	-0.578103
C42	C	2.234412	-0.187457	-0.078103
C43	C	1.734622	-1.015632	-0.578228
C44	C	2.234622	-0.515632	-0.078228
C45	C	1.734559	-0.924324	-0.578197
C46	C	2.234559	-0.424324	-0.078197
C47	C	1.734516	-0.851547	-0.578165
C48	C	2.234516	-0.351547	-0.078165
C49	C	1.734456	-0.760233	-0.578135
C50	C	2.234456	-0.260233	-0.078135
C51	C	2.047507	-0.388358	-0.578151
C52	C	2.547507	0.111642	-0.078151
C53	C	2.180907	-0.388363	-0.578158
C54	C	2.680907	0.111637	-0.078158
C55	C	1.734561	-0.388255	-0.891177
C56	C	2.234561	0.111745	-0.391177
C57	C	1.734602	-0.388217	-1.024577
C58	C	2.234602	0.111783	-0.524577
C59	C	1.734611	-0.178036	-0.578211
C60	C	2.234611	0.321964	-0.078211
C61	C	1.734674	-0.088415	-0.578244
C62	C	2.234674	0.411585	-0.078244
C63	C	1.734438	-0.388376	-0.266310
C64	C	2.234438	0.111624	0.233690
C65	C	1.734629	-0.388186	-0.132910
C66	C	2.234629	0.111814	0.367090
