data_functionalizedCrystal
_audit_creation_method	'MofGen! by Chris Wilmer'
_symmetry_space_group_name_H-M	'P1'
_symmetry_Int_Tables_number	1
_symmetry_cell_setting	triclinic
loop_
_symmetry_equiv_pos_as_xyz
  x,y,z
_cell_length_a	16.992694
_cell_length_b	15.995350
_cell_length_c	15.455313
_cell_angle_alpha	92.667328
_cell_angle_beta	87.142206
_cell_angle_gamma	87.080299
loop_
_atom_site_label
_atom_site_type_symbol
_atom_site_fract_x
_atom_site_fract_y
_atom_site_fract_z
O1	O	1.043823	0.174116	-0.072015
O2	O	0.815539	0.172167	-0.072041
O3	O	0.935921	0.051671	-0.072026
O4	O	0.923440	0.294611	-0.072029
O5	O	0.929037	0.058531	0.072235
O6	O	0.808655	0.179027	0.072221
O7	O	1.036939	0.180976	0.072246
Cu8	Cu	0.922168	0.180628	0.085406
Cu9	Cu	0.930309	0.172515	-0.085200
O10	O	0.916556	0.301471	0.072232
C11	C	0.782884	0.173091	0.000087
C12	C	0.695840	0.165614	0.000077
C13	C	0.645600	0.237750	0.000077
C14	C	0.563813	0.230720	0.000089
C15	C	0.532268	0.151555	0.000095
C16	C	0.582515	0.079414	0.000098
C17	C	0.664300	0.086445	0.000092
C18	C	0.288669	0.122418	0.000118
C19	C	0.206878	0.115393	0.000122
C20	C	0.188181	0.266700	0.000114
C21	C	0.269969	0.273723	0.000103
C22	C	0.320208	0.201582	0.000111
N23	N	0.448669	0.144368	0.000104
N24	N	0.403806	0.208770	0.000107
C25	C	0.931963	0.023872	0.000103
C26	C	0.930416	-0.069182	0.000098
C27	C	0.924861	-0.407301	0.000100
C28	C	0.839142	-0.365620	-0.000233
C29	C	0.840674	-0.268811	0.000092
C30	C	0.927617	-0.239556	0.000098
C31	C	0.965973	-0.273887	0.082482
C32	C	0.963816	-0.370663	0.082550
C33	C	0.973415	-0.378704	-0.081501
C34	C	0.973447	-0.281812	-0.082590
C35	C	0.929178	-0.144754	0.000100
C36	C	0.923301	-0.502103	0.000104
C37	C	1.069593	0.180052	0.000117
C38	C	1.156637	0.187528	0.000121
C39	C	0.920514	0.329271	0.000101
C40	C	0.922061	0.422324	0.000101
N41	N	0.916448	0.186334	0.205401
N42	N	0.936036	0.166802	-0.205195
C43	C	0.967608	0.135164	0.250801
C44	C	0.963289	0.139488	0.341608
C45	C	0.907813	0.194986	0.387014
C46	C	0.856647	0.246157	0.341607
C47	C	0.860963	0.241829	0.250801
C48	C	0.889185	0.213646	0.658593
C49	C	0.884875	0.217972	0.749405
C50	C	0.991517	0.111301	0.749400
C51	C	0.995831	0.106981	0.658592
C52	C	0.944662	0.158150	0.613194
N53	N	0.903399	0.199408	0.479833
N54	N	0.949073	0.153722	0.520376
H55	H	0.522910	0.289461	0.000087
Br56	Br	0.539705	-0.028026	0.000114
H57	H	0.839698	0.263168	0.786370
Br58	Br	0.791523	0.311271	0.189187
H59	H	0.329565	0.063675	0.000125
H60	H	0.804387	-0.240372	0.059241
Br61	Br	0.119996	0.364599	0.000105
Br62	Br	1.032719	0.070040	0.403226
Br63	Br	0.312775	0.381165	0.000085
H64	H	0.807694	-0.389254	-0.059312
H65	H	0.181198	0.050923	0.000126
Br66	Br	0.819746	0.283088	0.596985
Br67	Br	0.907520	-0.399730	0.185183
Br68	Br	0.688403	0.345193	0.000059
Br69	Br	0.732485	-0.011457	0.000100
Br70	Br	0.789969	-0.229822	-0.098339
Br71	Br	1.071123	0.031666	0.596969
H72	H	0.802224	-0.384703	0.058509
H73	H	1.012786	0.089976	0.213838
H74	H	1.026582	-0.398522	0.086293
Br75	Br	1.072192	-0.242981	0.087601
Br76	Br	0.912147	-0.225003	0.184660
H77	H	0.948364	-0.404089	-0.143943
H78	H	0.945437	-0.259530	-0.143535
Br79	Br	1.060955	0.041860	0.811015
H80	H	1.037086	-0.262444	-0.087560
H81	H	1.036653	-0.406261	-0.082051
Br82	Br	0.781351	0.321471	0.403225
