data_functionalizedCrystal
_audit_creation_method	'MofGen! by Chris Wilmer'
_symmetry_space_group_name_H-M	'P1'
_symmetry_Int_Tables_number	1
_symmetry_cell_setting	triclinic
loop_
_symmetry_equiv_pos_as_xyz
  x,y,z
_cell_length_a	12.811415
_cell_length_b	17.699083
_cell_length_c	16.176319
_cell_angle_alpha	90.001389
_cell_angle_beta	84.562354
_cell_angle_gamma	96.334510
loop_
_atom_site_label
_atom_site_type_symbol
_atom_site_fract_x
_atom_site_fract_y
_atom_site_fract_z
O1	O	0.132732	-1.004674	-0.078580
O2	O	0.632732	-0.504674	0.421420
O3	O	0.150001	-0.784373	-0.079901
O4	O	0.650001	-0.284373	0.420099
O5	O	-0.011441	-0.900065	-0.067780
O6	O	0.488559	-0.400065	0.432220
O7	O	0.294174	-0.888982	-0.090701
O8	O	0.794174	-0.388982	0.409299
O9	O	-0.011451	-0.900049	0.069713
O10	O	0.488549	-0.400049	0.569713
O11	O	0.149991	-0.784357	0.057593
O12	O	0.649991	-0.284357	0.557593
O13	O	0.132722	-1.004658	0.058914
O14	O	0.632722	-0.504658	0.558914
Cu15	Cu	0.141355	-0.894506	0.070808
Cu16	Cu	0.641355	-0.394506	0.570808
Cu17	Cu	0.141368	-0.894525	-0.091795
Cu18	Cu	0.641368	-0.394525	0.408205
O19	O	0.294164	-0.888966	0.046793
O20	O	0.794164	-0.388966	0.546793
C21	C	0.149377	-0.756165	-0.011111
C22	C	0.649377	-0.256165	0.488889
C23	C	0.147521	-0.672138	-0.010982
C24	C	0.647521	-0.172138	0.489018
C25	C	-0.050549	-0.899435	0.003897
C26	C	0.449451	-0.399435	0.503897
C27	C	-0.167062	-0.897574	0.012629
C28	C	0.332938	-0.397574	0.512629
C29	C	0.133346	-1.032865	-0.009878
C30	C	0.633346	-0.532865	0.490122
C31	C	0.135202	-1.116892	-0.010012
C32	C	0.635202	-0.616892	0.489988
C33	C	-0.385982	-0.894082	-0.120875
C34	C	0.114018	-0.394082	0.379125
C35	C	-0.495457	-0.892333	-0.112674
C36	C	0.004543	-0.392333	0.387326
C37	C	-0.495489	-0.892324	0.037231
C38	C	0.004511	-0.392324	0.537231
C39	C	-0.386014	-0.894072	0.029030
C40	C	0.113986	-0.394072	0.529030
C41	C	-0.331264	-0.894952	-0.050025
C42	C	0.168736	-0.394952	0.449975
C43	C	-0.221788	-0.896706	-0.058225
C44	C	0.278212	-0.396706	0.441775
C45	C	-0.221821	-0.896691	0.091679
C46	C	0.278179	-0.396691	0.591679
C47	C	-0.331296	-0.894943	0.099880
C48	C	0.168704	-0.394943	0.599880
C49	C	0.333272	-0.889595	-0.024886
C50	C	0.833272	-0.389595	0.475114
C51	C	0.449785	-0.891456	-0.033624
C52	C	0.949785	-0.391456	0.466376
N53	N	0.141346	-0.894498	0.185174
N54	N	0.641346	-0.394498	0.685174
C55	C	0.242284	-0.623942	-0.018089
C56	C	0.742284	-0.123942	0.481911
C57	C	0.240533	-0.544991	-0.017947
C58	C	0.740533	-0.044991	0.482053
C59	C	0.144019	-0.514238	-0.010704
C60	C	0.644019	-0.014238	0.489296
C61	C	0.049249	-0.562440	-0.003595
C62	C	0.549249	-0.062440	0.496405
C63	C	0.051000	-0.641390	-0.003731
C64	C	0.551000	-0.141390	0.496269
C65	C	0.042183	-0.244045	-0.003044
C66	C	0.542183	0.255955	0.496956
C67	C	0.040438	-0.165090	-0.002911
C68	C	0.540438	0.334910	0.497089
C69	C	0.231716	-0.147647	-0.017261
C70	C	0.731716	0.352353	0.482739
C71	C	0.233467	-0.226596	-0.017397
C72	C	0.733467	0.273404	0.482603
C73	C	0.138698	-0.274792	-0.010283
C74	C	0.638698	0.225208	0.489717
C75	C	0.140597	-0.360399	-0.010435
C76	C	0.640597	0.139601	0.489565
C77	C	0.142118	-0.428631	-0.010558
C78	C	0.642118	0.071369	0.489442
N79	N	0.141368	-0.894538	-0.206160
N80	N	0.641368	-0.394538	0.293840
C81	C	0.069889	-0.945742	0.233803
C82	C	0.569889	-0.445742	0.733803
C83	C	0.069888	-0.945746	0.320350
C84	C	0.569888	-0.445746	0.820350
C85	C	0.141350	-0.894508	0.358266
C86	C	0.641350	-0.394508	0.858266
C87	C	0.212810	-0.843259	0.309630
C88	C	0.712810	-0.343259	0.809630
C89	C	0.212806	-0.843252	0.223085
C90	C	0.712806	-0.343252	0.723085
C91	C	0.212830	-0.843285	0.658657
C92	C	0.712830	-0.343285	1.158657
C93	C	0.212831	-0.843297	0.745209
C94	C	0.712831	-0.343297	1.245209
C95	C	0.069912	-0.945778	0.755922
C96	C	0.569912	-0.445778	1.255922
C97	C	0.069908	-0.945772	0.669377
C98	C	0.569908	-0.445772	1.169377
C99	C	0.141364	-0.894520	0.620749
C100	C	0.641364	-0.394520	1.120749
C101	C	0.141363	-0.894515	0.526905
C102	C	0.641363	-0.394515	1.026905
C103	C	0.141357	-0.894516	0.452108
C104	C	0.641357	-0.394516	0.952108
H105	H	-0.177213	-0.897425	-0.122596
H106	H	0.322787	-0.397425	0.377404
Br107	Br	0.364455	-0.268329	-0.027234
Br108	Br	0.864455	0.231671	0.472766
H109	H	0.011725	-0.987508	0.795524
H110	H	0.511725	-0.487508	1.295524
H111	H	0.308881	-0.108396	-0.023049
H112	H	0.808881	0.391604	0.476951
H113	H	0.270992	-0.801523	0.183492
H114	H	0.770992	-0.301523	0.683492
Br115	Br	-0.027073	-1.015313	0.617921
Br116	Br	0.472927	-0.515313	1.117921
H117	H	-0.375888	-0.894223	0.164244
H118	H	0.124112	-0.394223	0.664244
Br119	Br	0.309823	-0.773757	0.796666
Br120	Br	0.809823	-0.273757	1.296666
H121	H	0.011701	-0.987468	0.202937
H122	H	0.511701	-0.487468	0.702937
Br123	Br	0.369146	-0.479584	-0.027595
Br124	Br	0.869146	0.020416	0.472405
Br125	Br	-0.027095	-1.015289	0.386350
Br126	Br	0.472905	-0.515289	0.886350
Br127	Br	-0.147558	-0.897884	0.187838
Br128	Br	0.352442	-0.397884	0.687838
H129	H	0.271014	-0.801555	0.619071
H130	H	0.771014	-0.301555	1.119071
Br131	Br	-0.081737	-0.520705	0.006243
Br132	Br	0.418263	-0.020705	0.506243
Br133	Br	0.309790	-0.773715	0.361085
Br134	Br	0.809790	-0.273715	0.861085
H135	H	-0.341405	-0.894805	-0.185245
H136	H	0.158595	-0.394805	0.314755
Br137	Br	-0.569713	-0.891147	-0.208831
Br138	Br	-0.069713	-0.391147	0.291169
Br139	Br	-0.090555	-0.123354	0.006917
Br140	Br	0.409445	0.376646	0.506917
Br141	Br	-0.569805	-0.891103	0.144511
Br142	Br	-0.069805	-0.391103	0.644511
Br143	Br	-0.086434	-0.309444	0.006613
Br144	Br	0.413566	0.190556	0.506613
Br145	Br	0.373275	-0.665670	-0.027928
Br146	Br	0.873275	-0.165670	0.472072
Br147	Br	-0.077612	-0.706801	0.005922
Br148	Br	0.422388	-0.206801	0.505922
