data_functionalizedCrystal
_audit_creation_method	'MofGen! by Chris Wilmer'
_symmetry_space_group_name_H-M	'P1'
_symmetry_Int_Tables_number	1
_symmetry_cell_setting	triclinic
loop_
_symmetry_equiv_pos_as_xyz
  x,y,z
_cell_length_a	14.044191
_cell_length_b	15.021413
_cell_length_c	14.044209
_cell_angle_alpha	89.997840
_cell_angle_beta	86.810135
_cell_angle_gamma	89.991171
loop_
_atom_site_label
_atom_site_type_symbol
_atom_site_fract_x
_atom_site_fract_y
_atom_site_fract_z
O1	O	1.277155	0.073999	-0.230192
O2	O	1.527155	0.323999	0.019808
O3	O	1.777155	0.573999	0.269808
O4	O	2.027155	0.823999	0.519808
O5	O	1.000483	0.074010	-0.221879
O6	O	1.250483	0.324010	0.028121
O7	O	1.500483	0.574010	0.278121
O8	O	1.750483	0.824010	0.528121
O9	O	1.134667	0.073992	-0.087700
O10	O	1.384667	0.323992	0.162300
O11	O	1.634667	0.573992	0.412300
O12	O	1.884667	0.823992	0.662300
O13	O	1.142971	0.074017	-0.364371
O14	O	1.392971	0.324017	-0.114371
O15	O	1.642971	0.574017	0.135629
O16	O	1.892971	0.824017	0.385629
O17	O	1.134685	-0.074072	-0.087710
O18	O	1.384685	0.175928	0.162290
O19	O	1.634685	0.425928	0.412290
O20	O	1.884685	0.675928	0.662290
O21	O	1.000501	-0.074054	-0.221890
O22	O	1.250501	0.175946	0.028110
O23	O	1.500501	0.425946	0.278110
O24	O	1.750501	0.675946	0.528110
O25	O	1.277173	-0.074065	-0.230202
O26	O	1.527173	0.175935	0.019798
O27	O	1.777173	0.425935	0.269798
O28	O	2.027173	0.675935	0.519798
Zn29	Zn	1.138840	-0.097568	-0.226048
Zn30	Zn	1.388840	0.152432	0.023952
Zn31	Zn	1.638840	0.402432	0.273952
Zn32	Zn	1.888840	0.652432	0.523952
Zn33	Zn	1.138816	0.097513	-0.226034
Zn34	Zn	1.388816	0.347513	0.023966
Zn35	Zn	1.638816	0.597513	0.273966
Zn36	Zn	1.888816	0.847513	0.523966
O37	O	1.142989	-0.074047	-0.364382
O38	O	1.392989	0.175953	-0.114382
O39	O	1.642989	0.425953	0.135618
O40	O	1.892989	0.675953	0.385618
C41	C	0.964870	-0.000021	-0.218248
C42	C	1.214870	0.249979	0.031752
C43	C	1.464870	0.499979	0.281752
C44	C	1.714870	0.749979	0.531752
C45	C	0.858727	-0.000017	-0.207401
C46	C	1.108727	0.249983	0.042599
C47	C	1.358727	0.499983	0.292599
C48	C	1.608727	0.749983	0.542599
C49	C	0.613268	-0.000021	-0.264501
C50	C	0.863268	0.249979	-0.014501
C51	C	1.113268	0.499979	0.235499
C52	C	1.363268	0.749979	0.485499
C53	C	0.664394	-0.000026	-0.187585
C54	C	0.914394	0.249974	0.062415
C55	C	1.164394	0.499974	0.312415
C56	C	1.414394	0.749974	0.562415
C57	C	0.772531	-0.000021	-0.198613
C58	C	1.022531	0.249979	0.051387
C59	C	1.272531	0.499979	0.301387
C60	C	1.522531	0.749979	0.551387
C61	C	0.505121	-0.000026	-0.253474
C62	C	0.755121	0.249974	-0.003474
C63	C	1.005121	0.499974	0.246526
C64	C	1.255121	0.749974	0.496526
N65	N	1.138863	-0.230705	-0.226057
N66	N	1.388863	0.019295	0.023943
N67	N	1.638863	0.269295	0.273943
N68	N	1.888863	0.519295	0.523943
C69	C	1.200922	-0.470373	-0.163998
C70	C	1.450922	-0.220373	0.086002
C71	C	1.700922	0.029627	0.336002
C72	C	1.950922	0.279627	0.586002
C73	C	1.113087	-0.529701	-0.138160
C74	C	1.363087	-0.279701	0.111840
C75	C	1.613087	-0.029701	0.361840
C76	C	1.863087	0.220299	0.611840
C77	C	1.138839	-0.412312	-0.226043
C78	C	1.388839	-0.162312	0.023957
C79	C	1.638839	0.087688	0.273957
C80	C	1.888839	0.337688	0.523957
C81	C	1.226648	-0.529726	-0.251823
C82	C	1.476648	-0.279726	-0.001823
C83	C	1.726648	-0.029726	0.248177
C84	C	1.976648	0.220274	0.498177
C85	C	1.138825	-0.587736	-0.226028
C86	C	1.388825	-0.337736	0.023972
C87	C	1.638825	-0.087736	0.273972
C88	C	1.888825	0.162264	0.523972
C89	C	1.050958	-0.470333	-0.200159
C90	C	1.300958	-0.220333	0.049841
C91	C	1.550958	0.029667	0.299841
C92	C	1.800958	0.279667	0.549841
C93	C	1.164579	-0.470354	-0.313864
C94	C	1.414579	-0.220354	-0.063864
C95	C	1.664579	0.029646	0.186136
C96	C	1.914579	0.279646	0.436136
C97	C	1.076685	-0.529655	-0.288058
C98	C	1.326685	-0.279655	-0.038058
C99	C	1.576685	-0.029655	0.211942
C100	C	1.826685	0.220345	0.461942
C101	C	1.138849	-0.311255	-0.226050
C102	C	1.388849	-0.061255	0.023950
C103	C	1.638849	0.188745	0.273950
C104	C	1.888849	0.438745	0.523950
C105	C	1.138805	-0.688792	-0.226022
C106	C	1.388805	-0.438792	0.023978
C107	C	1.638805	-0.188792	0.273978
C108	C	1.888805	0.061208	0.523978
C109	C	1.312786	-0.000032	-0.233834
C110	C	1.562786	0.249968	0.016166
C111	C	1.812786	0.499968	0.266166
C112	C	2.062786	0.749968	0.516166
C113	C	1.418929	-0.000030	-0.244681
C114	C	1.668929	0.249970	0.005319
C115	C	1.918929	0.499970	0.255319
C116	C	2.168929	0.749970	0.505319
C117	C	1.131041	-0.000041	-0.052083
C118	C	1.381041	0.249959	0.197917
C119	C	1.631041	0.499959	0.447917
C120	C	1.881041	0.749959	0.697917
C121	C	1.120197	-0.000045	0.054060
C122	C	1.370197	0.249955	0.304060
C123	C	1.620197	0.499955	0.554060
C124	C	1.870197	0.749955	0.804060
N125	N	1.138800	0.230651	-0.226017
N126	N	1.388800	0.480651	0.023983
N127	N	1.638800	0.730651	0.273983
N128	N	1.888800	0.980651	0.523983
C129	C	1.100372	-0.000036	0.248398
C130	C	1.350372	0.249964	0.498398
C131	C	1.600372	0.499964	0.748398
C132	C	1.850372	0.749964	0.998398
C133	C	1.177287	-0.000038	0.299526
C134	C	1.427287	0.249962	0.549526
C135	C	1.677287	0.499962	0.799526
C136	C	1.927287	0.749962	1.049526
C137	C	1.166257	-0.000034	0.407663
C138	C	1.416257	0.249966	0.657663
C139	C	1.666257	0.499966	0.907663
C140	C	1.916257	0.749966	1.157663
C141	C	1.111402	-0.000041	0.140252
C142	C	1.361402	0.249959	0.390252
C143	C	1.611402	0.499959	0.640252
C144	C	1.861402	0.749959	0.890252
C145	C	1.146617	-0.000019	0.600001
C146	C	1.396617	0.249981	0.850001
C147	C	1.646617	0.499981	1.100001
C148	C	1.896617	0.749981	1.350001
C149	C	1.157467	-0.000030	0.493859
C150	C	1.407467	0.249970	0.743859
C151	C	1.657467	0.499970	0.993859
C152	C	1.907467	0.749970	1.243859
H153	H	0.626951	0.000030	-0.113452
H154	H	0.876951	0.250030	0.136548
H155	H	1.126951	0.500030	0.386548
H156	H	1.376951	0.750030	0.636548
H157	H	1.186387	-0.444266	-0.388119
H158	H	1.436387	-0.194266	-0.138119
H159	H	1.686387	0.055734	0.111881
H160	H	1.936387	0.305734	0.361881
H161	H	1.300913	-0.555815	-0.273634
H162	H	1.550913	-0.305815	-0.023634
H163	H	1.800913	-0.055815	0.226366
H164	H	2.050913	0.194185	0.476366
C165	C	1.083674	-0.564941	-0.037824
C166	C	1.333674	-0.314941	0.212176
C167	C	1.583674	-0.064941	0.462176
C168	C	1.833674	0.185059	0.712176
N169	N	1.061532	-0.591489	0.037749
N170	N	1.311532	-0.341489	0.287749
N171	N	1.561532	-0.091489	0.537749
N172	N	1.811532	0.158511	0.787749
H173	H	1.024115	-0.555520	-0.340519
H174	H	1.274115	-0.305520	-0.090519
H175	H	1.524115	-0.055520	0.159481
H176	H	1.774115	0.194480	0.409481
C177	C	1.277439	-0.000053	0.248947
C178	C	1.527439	0.249947	0.498947
C179	C	1.777439	0.499947	0.748947
C180	C	2.027439	0.749947	0.998947
N181	N	1.352871	-0.000070	0.210847
N182	N	1.602871	0.249930	0.460847
N183	N	1.852871	0.499930	0.710847
N184	N	2.102871	0.749930	0.960847
H185	H	0.650708	-0.000011	-0.338628
H186	H	0.900708	0.249989	-0.088628
H187	H	1.150708	0.499989	0.161372
H188	H	1.400708	0.749989	0.411372
H189	H	0.976669	-0.444354	-0.178265
H190	H	1.226669	-0.194354	0.071735
H191	H	1.476669	0.055646	0.321735
H192	H	1.726669	0.305646	0.571735
H193	H	1.253360	-0.444343	-0.111492
H194	H	1.503360	-0.194343	0.138508
H195	H	1.753360	0.055657	0.388508
H196	H	2.003360	0.305657	0.638508
H197	H	1.026245	-0.000032	0.285837
H198	H	1.276245	0.249968	0.535837
H199	H	1.526245	0.499968	0.785837
H200	H	1.776245	0.749968	1.035837
