data_functionalizedCrystal
_audit_creation_method	'MofGen! by Chris Wilmer'
_symmetry_space_group_name_H-M	'P1'
_symmetry_Int_Tables_number	1
_symmetry_cell_setting	triclinic
loop_
_symmetry_equiv_pos_as_xyz
  x,y,z
_cell_length_a	10.654550
_cell_length_b	13.339070
_cell_length_c	9.730223
_cell_angle_alpha	89.998050
_cell_angle_beta	89.999957
_cell_angle_gamma	100.057112
loop_
_atom_site_label
_atom_site_type_symbol
_atom_site_fract_x
_atom_site_fract_y
_atom_site_fract_z
O1	O	1.715933	0.142434	-0.114179
O2	O	1.355036	0.156005	-0.114204
O3	O	1.494065	0.001665	-0.114190
O4	O	1.576904	0.296774	-0.114193
O5	O	1.494051	0.001661	0.114390
O6	O	1.355022	0.156000	0.114376
O7	O	1.715919	0.142430	0.114401
Zn8	Zn	1.535468	0.149215	0.150680
Zn9	Zn	1.535487	0.149220	-0.150483
O10	O	1.576890	0.296769	0.114387
C11	C	1.307895	0.155006	0.000083
C12	C	1.167445	0.152025	0.000073
C13	C	1.118643	0.242897	0.000077
C14	C	0.986674	0.240090	0.000101
C15	C	0.952320	0.055530	0.000112
C16	C	1.084286	0.058338	0.000098
C17	C	1.480065	-0.036124	0.000097
C18	C	1.438355	-0.148719	0.000089
C19	C	1.762670	-0.511236	0.000111
C20	C	1.801862	-0.405448	0.000127
C21	C	1.710989	-0.341261	0.000117
C22	C	1.580916	-0.382871	0.000092
C23	C	1.541720	-0.488669	0.000087
C24	C	1.490039	-0.318694	0.000093
C25	C	1.359966	-0.360304	0.000068
C26	C	1.320776	-0.466092	0.000062
C27	C	1.411650	-0.530280	0.000072
C28	C	1.529235	-0.212896	0.000098
C29	C	1.308285	-0.190329	0.000074
C30	C	1.269093	-0.296117	0.000058
C31	C	1.763060	0.143429	0.000111
C32	C	1.903510	0.146410	0.000111
C33	C	1.590890	0.334559	0.000097
C34	C	1.632600	0.447153	0.000096
N35	N	1.535465	0.149210	0.356217
N36	N	1.535497	0.149217	-0.356020
C37	C	1.597066	0.080898	0.428149
C38	C	1.597079	0.080898	0.572032
C39	C	1.473888	0.217532	0.572038
C40	C	1.473869	0.217526	0.428158
H41	H	0.946947	0.314088	0.000106
H42	H	1.647219	0.025269	0.369578
H43	H	1.379745	-0.616422	0.000055
H44	H	1.423700	0.273155	0.369587
H45	H	0.884597	-0.020746	0.000141
H46	H	1.163185	-0.330011	0.000039
H47	H	1.647238	0.025271	0.630595
C48	C	1.406153	0.292683	0.651177
H49	H	1.414998	0.282911	0.747170
H50	H	1.318285	0.281042	0.627616
H51	H	1.443413	0.360468	0.627581
H52	H	1.124020	-0.015666	0.000100
C53	C	1.210113	0.345947	0.000064
H54	H	1.162142	0.399665	0.000081
H55	H	1.262302	0.350883	-0.079652
H56	H	1.262311	0.350877	0.079780
H57	H	1.635141	-0.179028	0.000118
C58	C	1.754099	-0.224897	0.000116
H59	H	1.844579	-0.209308	0.000118
H60	H	1.722155	-0.196791	0.079816
H61	H	1.722177	-0.196802	-0.079616
C62	C	1.944928	-0.359683	0.000139
H63	H	1.993436	-0.413060	0.000129
H64	H	1.964809	-0.318885	0.079850
H65	H	1.964811	-0.318882	-0.079582
C66	C	1.862613	-0.581840	0.000127
H67	H	1.820638	-0.650804	0.000115
H68	H	1.914420	-0.569144	0.079843
H69	H	1.914434	-0.569142	-0.079588
H70	H	1.214863	-0.499968	0.000053
C71	C	1.208318	-0.119734	0.000051
H72	H	1.250290	-0.050769	0.000041
H73	H	1.156492	-0.132433	0.079754
H74	H	1.156517	-0.132434	-0.079678
