data_functionalizedCrystal
_audit_creation_method	'MofGen! by Chris Wilmer'
_symmetry_space_group_name_H-M	'P1'
_symmetry_Int_Tables_number	1
_symmetry_cell_setting	triclinic
loop_
_symmetry_equiv_pos_as_xyz
  x,y,z
_cell_length_a	25.639242
_cell_length_b	25.639239
_cell_length_c	19.805399
_cell_angle_alpha	89.971274
_cell_angle_beta	89.980422
_cell_angle_gamma	90.030990
loop_
_atom_site_label
_atom_site_type_symbol
_atom_site_fract_x
_atom_site_fract_y
_atom_site_fract_z
Zn1	Zn	0.799252	-0.208270	-0.382714
Zn2	Zn	0.799167	-0.295704	-0.269524
Zn3	Zn	0.711820	-0.208273	-0.269539
Zn4	Zn	0.711773	-0.295665	-0.382670
O5	O	0.755503	-0.251978	-0.326112
O6	O	0.872406	-0.219884	-0.367711
O7	O	0.787565	-0.284124	-0.174809
O8	O	0.723473	-0.135107	-0.284576
O9	O	0.872344	-0.284121	-0.284551
O10	O	0.787709	-0.135105	-0.367726
O11	O	0.723391	-0.219889	-0.174820
O12	O	0.638649	-0.219850	-0.284534
O13	O	0.723393	-0.284054	-0.477393
O14	O	0.638614	-0.284057	-0.367651
O15	O	0.787664	-0.219846	-0.477425
O16	O	0.787519	-0.368864	-0.284508
O17	O	0.723311	-0.368835	-0.367637
C18	C	0.619661	-0.251950	-0.326090
C19	C	0.561547	-0.251950	-0.326097
C20	C	0.755415	-0.387821	-0.326081
C21	C	0.755426	-0.445935	-0.326090
C22	C	0.310394	-0.218589	-0.369493
C23	C	0.364998	-0.218584	-0.369489
O24	O	0.393269	-0.190196	-0.406381
N25	N	0.392273	-0.251972	-0.326120
C26	C	0.364941	-0.285371	-0.282756
O27	O	0.393154	-0.313770	-0.245868
C28	C	0.310337	-0.285379	-0.282764
C29	C	0.283065	-0.251985	-0.326131
C30	C	0.283122	-0.185198	-0.412857
C31	C	0.228521	-0.185203	-0.412859
C32	C	0.201193	-0.218598	-0.369498
C33	C	0.228465	-0.251989	-0.326134
C34	C	0.283006	-0.318780	-0.239405
C35	C	0.228399	-0.318785	-0.239417
C36	C	0.201127	-0.285391	-0.282784
C37	C	0.146536	-0.285389	-0.282775
N38	N	0.119261	-0.252001	-0.326145
C39	C	0.146589	-0.218606	-0.369506
C40	C	0.479611	-0.285354	-0.282744
C41	C	0.534214	-0.285344	-0.282732
C42	C	0.534267	-0.218557	-0.369466
C43	C	0.479664	-0.218565	-0.369474
C44	C	0.452336	-0.251966	-0.326113
C45	C	0.031924	-0.218618	-0.369508
C46	C	-0.022681	-0.218624	-0.369505
C47	C	-0.022730	-0.285412	-0.282774
C48	C	0.031870	-0.285404	-0.282775
C49	C	0.059196	-0.252005	-0.326147
O50	O	0.118230	-0.313764	-0.245904
O51	O	0.118369	-0.190216	-0.406395
C52	C	0.789024	-0.806300	-0.282901
C53	C	0.789044	-0.860905	-0.282910
O54	O	0.817519	-0.889143	-0.246154
N55	N	0.755595	-0.888217	-0.326157
C56	C	0.722128	-0.860922	-0.369402
O57	O	0.693679	-0.889168	-0.406189
C58	C	0.722111	-0.806319	-0.369396
C59	C	0.755558	-0.779009	-0.326141
C60	C	0.822469	-0.778990	-0.239650
C61	C	0.822447	-0.724390	-0.239640
C62	C	0.788981	-0.697099	-0.282881
C63	C	0.755537	-0.724409	-0.326132
C64	C	0.688646	-0.779026	-0.412645
C65	C	0.688632	-0.724419	-0.412635
C66	C	0.722079	-0.697109	-0.369381
C67	C	0.722050	-0.642518	-0.369363
N68	N	0.755498	-0.615205	-0.326116
C69	C	0.788964	-0.642496	-0.282875
C70	C	0.722167	-0.975593	-0.369413
C71	C	0.722181	-1.030195	-0.369416
C72	C	0.789098	-1.030174	-0.282924
C73	C	0.789081	-0.975570	-0.282918
C74	C	0.755616	-0.948281	-0.326166
C75	C	0.788917	-0.527831	-0.282857
C76	C	0.788892	-0.473225	-0.282849
C77	C	0.721977	-0.473252	-0.369343
C78	C	0.722000	-0.527853	-0.369349
C79	C	0.755475	-0.555141	-0.326104
O80	O	0.693591	-0.614244	-0.406101
O81	O	0.817413	-0.614244	-0.246101
C82	C	0.891876	-0.252007	-0.326134
C83	C	0.949990	-0.252019	-0.326144
C84	C	0.755533	-0.251945	-0.502655
C85	C	0.755545	-0.251931	-0.577887
C86	C	0.755606	-0.115605	-0.326158
C87	C	0.755650	-0.057491	-0.326177
C88	C	0.789011	-0.218496	-0.613249
C89	C	0.789017	-0.218481	-0.683937
C90	C	0.755558	-0.251904	-0.719262
C91	C	0.722088	-0.285340	-0.683895
C92	C	0.722081	-0.285352	-0.613208
C93	C	0.722118	-0.285291	-0.968969
C94	C	0.722129	-0.285278	-1.039661
C95	C	0.789054	-0.218420	-1.039698
C96	C	0.789046	-0.218432	-0.969011
C97	C	0.755575	-0.251866	-0.933650
C98	C	0.755569	-0.251882	-0.857001
C99	C	0.755567	-0.251891	-0.795909
C100	C	0.755504	-0.251973	-0.150256
C101	C	0.755593	-0.251840	-0.075024
H102	H	-0.044884	-0.191428	-0.404820
C103	C	0.061871	-0.322137	-0.235066
N104	N	0.084463	-0.349809	-0.199136
C105	C	0.825867	-0.181635	-1.078601
N106	N	0.853594	-0.153929	-1.107902
C107	C	0.825877	-0.945535	-0.235337
N108	N	0.853594	-0.922915	-0.199498
H109	H	0.694824	-0.312573	-0.584417
C110	C	0.685296	-0.322069	-0.930081
N111	N	0.657560	-0.349770	-0.900789
C112	C	0.198529	-0.148471	-0.460574
N113	N	0.175942	-0.120805	-0.496517
C114	C	0.825819	-0.181727	-0.574397
N115	N	0.853541	-0.154030	-0.545137
C116	C	0.825851	-0.181663	-0.930157
N117	N	0.853571	-0.153964	-0.900893
C118	C	0.061975	-0.181874	-0.417216
N119	N	0.084608	-0.154195	-0.453145
H120	H	0.661407	-0.801252	-0.447864
C121	C	0.685168	-0.443222	-0.416909
N122	N	0.657447	-0.420601	-0.452740
H123	H	0.305367	-0.158003	-0.448170
H124	H	0.457364	-0.312552	-0.247429
C125	C	0.685278	-0.322101	-0.722756
N126	N	0.657552	-0.349789	-0.752025
H127	H	0.556528	-0.191365	-0.404773
C128	C	0.449670	-0.181833	-0.417185
N129	N	0.427081	-0.154166	-0.453125
H130	H	0.849723	-0.801205	-0.204438
H131	H	0.694911	-0.953376	-0.404628
C132	C	0.685317	-0.322044	-1.078517
N133	N	0.657591	-0.349734	-1.107784
C134	C	0.825833	-0.181701	-0.722832
N135	N	0.853565	-0.153996	-0.752127
C136	C	0.825738	-0.557840	-0.235281
N137	N	0.853468	-0.580442	-0.199443
C138	C	0.198342	-0.355528	-0.191713
N139	N	0.175704	-0.383201	-0.155780
C140	C	-0.052802	-0.322146	-0.235080
N141	N	-0.075454	-0.349817	-0.199160
C142	C	0.564207	-0.322075	-0.235019
N143	N	0.586796	-0.349745	-0.199082
C144	C	0.825685	-0.443188	-0.235261
N145	N	0.853397	-0.420566	-0.199417
C146	C	0.651817	-0.694403	-0.460213
N147	N	0.624087	-0.671797	-0.496047
H148	H	0.305202	-0.345973	-0.204091
H149	H	0.849684	-0.702158	-0.204421
C150	C	0.685205	-0.557894	-0.416929
N151	N	0.657494	-0.580518	-0.452772
H152	H	0.816350	-1.052404	-0.247717
H153	H	0.694940	-1.052426	-0.404632
