data_functionalizedCrystal
_audit_creation_method	'MofGen! by Chris Wilmer'
_symmetry_space_group_name_H-M	'P1'
_symmetry_Int_Tables_number	1
_symmetry_cell_setting	triclinic
loop_
_symmetry_equiv_pos_as_xyz
  x,y,z
_cell_length_a	15.995350
_cell_length_b	10.654550
_cell_length_c	9.730223
_cell_angle_alpha	90.000193
_cell_angle_beta	89.996557
_cell_angle_gamma	83.988639
loop_
_atom_site_label
_atom_site_type_symbol
_atom_site_fract_x
_atom_site_fract_y
_atom_site_fract_z
O1	O	-1.111921	-0.161868	-0.114170
O2	O	-0.868261	-0.181857	-0.114198
O3	O	-0.995693	0.010950	-0.114178
O4	O	-0.984489	-0.354675	-0.114190
O5	O	-0.995692	0.010945	0.114402
O6	O	-0.868260	-0.181862	0.114382
O7	O	-1.111919	-0.161872	0.114410
Zn8	Zn	-0.990089	-0.171868	0.150688
Zn9	Zn	-0.990091	-0.171861	-0.150476
O10	O	-0.984487	-0.354680	0.114390
C11	C	-0.837061	-0.181033	0.000089
C12	C	-0.744096	-0.178555	0.000078
C13	C	-0.994870	0.057735	0.000110
C14	C	-0.992409	0.197146	0.000105
C15	C	-1.143119	-0.162696	0.000121
C16	C	-1.236084	-0.165174	0.000122
C17	C	-0.406297	-0.169658	0.000107
C18	C	-0.452934	-0.032344	0.000621
C19	C	-0.549639	-0.034822	0.000096
C20	C	-0.573883	-0.174071	0.000093
C21	C	-0.533190	-0.241796	-0.130434
C22	C	-0.436535	-0.238347	-0.130533
C23	C	-0.436211	-0.241189	0.129405
C24	C	-0.533156	-0.241157	0.131120
C25	C	-0.668595	-0.176573	0.000081
C26	C	-0.311585	-0.167161	0.000110
C27	C	-0.985311	-0.401464	0.000099
C28	C	-0.987772	-0.540875	0.000095
N29	N	-0.990094	-0.171871	0.356225
C30	C	-1.067438	0.277612	0.000118
C31	C	-1.065121	0.408603	0.000108
C32	C	-0.912737	0.378648	0.000078
C33	C	-0.915055	0.247660	0.000078
C34	C	-1.155416	0.294907	0.000141
C35	C	-1.153098	0.425897	0.000131
N36	N	-0.990093	-0.171848	-0.356012
C37	C	-1.046536	-0.086525	0.428159
C38	C	-1.046533	-0.086510	0.572042
C39	C	-0.933646	-0.257198	0.572043
C40	C	-0.933644	-0.257206	0.428163
C41	C	-1.111713	0.012017	0.428160
C42	C	-1.111711	0.012032	0.572043
H43	H	-0.577758	0.018413	0.093664
H44	H	-0.849758	0.419794	0.000056
H45	H	-0.405037	-0.342430	0.130285
H46	H	-0.561292	-0.194753	-0.227572
H47	H	-1.186246	0.468089	0.095793
H48	H	-0.415414	-0.196300	0.228341
H49	H	-0.417940	-0.188955	-0.228103
H50	H	-1.179687	0.471890	-0.098560
H51	H	-0.560185	-0.191718	0.227684
H52	H	-1.189828	0.266000	-0.095509
H53	H	-1.183431	0.259644	0.098840
H54	H	-0.887678	-0.326691	0.369595
H55	H	-0.887685	-0.326675	0.630631
H56	H	-0.549111	-0.342702	0.139002
H57	H	-0.434093	0.022541	0.094227
H58	H	-1.097417	0.108363	0.389107
H59	H	-1.172504	-0.017777	0.383540
H60	H	-0.853959	0.182149	0.000049
H61	H	-1.091368	0.102989	0.616659
H62	H	-1.176054	-0.008646	0.611100
H63	H	-0.577186	0.018777	-0.093631
H64	H	-0.433024	0.022292	-0.092466
H65	H	-0.404872	-0.339160	-0.136459
H66	H	-0.547909	-0.344099	-0.135289
