data_functionalizedCrystal
_audit_creation_method	'MofGen! by Chris Wilmer'
_symmetry_space_group_name_H-M	'P1'
_symmetry_Int_Tables_number	1
_symmetry_cell_setting	triclinic
loop_
_symmetry_equiv_pos_as_xyz
  x,y,z
_cell_length_a	11.026660
_cell_length_b	14.044190
_cell_length_c	10.065875
_cell_angle_alpha	99.589132
_cell_angle_beta	79.302288
_cell_angle_gamma	100.888306
loop_
_atom_site_label
_atom_site_type_symbol
_atom_site_fract_x
_atom_site_fract_y
_atom_site_fract_z
O1	O	1.670502	0.393269	-0.113557
O2	O	2.170502	0.893269	0.386443
O3	O	1.312211	0.347224	-0.113551
O4	O	1.812211	0.847224	0.386449
O5	O	1.485970	0.231346	-0.113527
O6	O	1.985970	0.731346	0.386473
O7	O	1.496743	0.509147	-0.113581
O8	O	1.996743	1.009147	0.386419
O9	O	1.452849	0.253556	0.113457
O10	O	1.952849	0.753556	0.613457
O11	O	1.279090	0.369434	0.113433
O12	O	1.779090	0.869434	0.613433
O13	O	1.637381	0.415479	0.113427
O14	O	2.137381	0.915479	0.613427
Zn15	Zn	1.452976	0.395983	0.149468
Zn16	Zn	1.952976	0.895983	0.649468
Zn17	Zn	1.496615	0.366720	-0.149593
Zn18	Zn	1.996615	0.866720	0.350407
O19	O	1.463622	0.531357	0.113403
O20	O	1.963622	1.031357	0.613403
C21	C	1.249520	0.349834	-0.000058
C22	C	1.749520	0.849834	0.499942
C23	C	1.112064	0.324511	-0.000055
C24	C	1.612064	0.824511	0.499945
C25	C	0.903764	0.368269	-0.000067
C26	C	1.403764	0.868269	0.499933
C27	C	1.045832	0.394443	-0.000069
C28	C	1.545832	0.894443	0.499931
C29	C	1.464699	0.206333	-0.000031
C30	C	1.964699	0.706333	0.499969
C31	C	1.450650	0.098712	-0.000019
C32	C	1.950650	0.598712	0.499981
C33	C	1.524603	-0.138963	-0.000074
C34	C	2.024603	0.361037	0.499926
C35	C	1.424995	-0.098329	-0.000063
C36	C	1.924995	0.401671	0.499937
C37	C	1.439273	0.011315	-0.000038
C38	C	1.939273	0.511315	0.499962
C39	C	1.510327	-0.248616	-0.000098
C40	C	2.010327	0.251384	0.499902
C41	C	1.700072	0.412868	-0.000070
C42	C	2.200072	0.912868	0.499930
C43	C	1.837529	0.438190	-0.000082
C44	C	2.337529	0.938190	0.499918
C45	C	1.484893	0.556369	-0.000096
C46	C	1.984893	1.056369	0.499904
C47	C	1.498943	0.663990	-0.000117
C48	C	1.998943	1.163990	0.499883
N49	N	1.423203	0.415954	0.353570
N50	N	1.923203	0.915954	0.853570
N51	N	1.526397	0.346742	-0.353694
N52	N	2.026397	0.846742	0.146306
C53	C	1.486248	0.373662	0.421357
C54	C	1.986248	0.873662	0.921357
C55	C	1.463344	0.389041	0.578522
C56	C	1.963344	0.889041	1.078522
H57	H	0.855291	0.289030	-0.000032
H58	H	1.355291	0.789030	0.499968
H59	H	1.094296	0.473689	-0.000076
H60	H	1.594296	0.973689	0.499924
Br61	Br	1.684602	-0.059703	-0.000058
Br62	Br	2.184602	0.440297	0.499942
Br63	Br	1.264985	-0.177586	-0.000066
Br64	Br	1.764985	0.322414	0.499934
H65	H	1.557174	0.326062	0.363043
H66	H	2.057174	0.826062	0.863043
Br67	Br	1.345101	0.468366	0.675702
Br68	Br	1.845101	0.968366	1.175702
Br69	Br	1.644945	0.267684	0.549130
Br70	Br	2.144945	0.767684	1.049130
Br71	Br	1.304965	0.495275	0.450755
Br72	Br	1.804965	0.995275	0.950755
H73	H	0.885998	0.517431	-0.000089
H74	H	1.385998	1.017431	0.499911
Br75	Br	1.031297	0.192429	-0.000013
Br76	Br	1.531297	0.692429	0.499987
