data_functionalizedCrystal
_audit_creation_method	'MofGen! by Chris Wilmer'
_symmetry_space_group_name_H-M	'P1'
_symmetry_Int_Tables_number	1
_symmetry_cell_setting	triclinic
loop_
_symmetry_equiv_pos_as_xyz
  x,y,z
_cell_length_a	21.395364
_cell_length_b	12.645330
_cell_length_c	21.395355
_cell_angle_alpha	89.987670
_cell_angle_beta	89.975448
_cell_angle_gamma	90.032643
loop_
_atom_site_label
_atom_site_type_symbol
_atom_site_fract_x
_atom_site_fract_y
_atom_site_fract_z
Zn1	Zn	0.957916	-0.421739	-0.354288
Zn2	Zn	0.957842	-0.598988	-0.249522
Zn3	Zn	0.853131	-0.421786	-0.249525
Zn4	Zn	0.853124	-0.599007	-0.354262
O5	O	0.905503	-0.510380	-0.301900
O6	O	1.045584	-0.445224	-0.340401
O7	O	0.943924	-0.575494	-0.161845
O8	O	0.867065	-0.273432	-0.263434
O9	O	1.045530	-0.575449	-0.263429
O10	O	0.944050	-0.273398	-0.340403
O11	O	0.866993	-0.445304	-0.161847
O12	O	0.765452	-0.445322	-0.263409
O13	O	0.867053	-0.575481	-0.441944
O14	O	0.765447	-0.575526	-0.340359
O15	O	0.944043	-0.445243	-0.441963
O16	O	0.943917	-0.747338	-0.263404
O17	O	0.866981	-0.747352	-0.340356
C18	C	0.742716	-0.510432	-0.301882
C19	C	0.673074	-0.510479	-0.301889
C20	C	0.640412	-0.442783	-0.342030
C21	C	0.574976	-0.442754	-0.342033
C22	C	0.542206	-0.510442	-0.301901
C23	C	0.574876	-0.578143	-0.261752
C24	C	0.640311	-0.578162	-0.261746
C25	C	0.438494	-0.605910	-0.296869
C26	C	0.373061	-0.605893	-0.296879
C27	C	0.340385	-0.510384	-0.301915
C28	C	0.373150	-0.414888	-0.306953
C29	C	0.438584	-0.414907	-0.306947
C30	C	0.471254	-0.510429	-0.301902
C31	C	0.236770	-0.442650	-0.342060
C32	C	0.171334	-0.442621	-0.342058
C33	C	0.171235	-0.578019	-0.261781
C34	C	0.236670	-0.578039	-0.261780
C35	C	0.269434	-0.510357	-0.301923
C36	C	0.905457	-0.785810	-0.301891
C37	C	0.905495	-0.903640	-0.301908
C38	C	0.857294	-1.071257	-0.350468
C39	C	0.857048	-0.948697	-0.350312
C40	C	0.887617	-0.948217	-0.235877
C41	C	0.887323	-1.070816	-0.236172
C42	C	0.971869	-1.070706	-0.318844
C43	C	0.971463	-0.948100	-0.320288
C44	C	1.068926	-0.510329	-0.301918
C45	C	1.138568	-0.510307	-0.301925
C46	C	0.905555	-0.510359	-0.465323
C47	C	0.905577	-0.510350	-0.534964
C48	C	0.905566	-0.233875	-0.301922
C49	C	0.905593	-0.116045	-0.301932
C50	C	0.945664	-0.442532	-0.567688
C51	C	0.945664	-0.442486	-0.633124
C52	C	0.905582	-0.510277	-0.665833
C53	C	0.865487	-0.578100	-0.633101
C54	C	0.865485	-0.578136	-0.567666
C55	C	0.900619	-0.605732	-0.769504
C56	C	0.900626	-0.605697	-0.834937
C57	C	0.905586	-0.510165	-0.867653
C58	C	0.910553	-0.414664	-0.834929
C59	C	0.910550	-0.414701	-0.769494
C60	C	0.905580	-0.510245	-0.736785
C61	C	0.945674	-0.442292	-0.971330
C62	C	0.945669	-0.442245	-1.036767
C63	C	0.865496	-0.577868	-1.036742
C64	C	0.865498	-0.577906	-0.971307
C65	C	0.905591	-0.510120	-0.938605
C66	C	0.905487	-0.510325	-0.139112
C67	C	0.905587	-0.510036	-0.069471
H68	H	0.144741	-0.387487	-0.374745
N69	N	0.135897	-0.651028	-0.218497
H70	H	0.166521	-0.693921	-0.193068
H71	H	0.108754	-0.607793	-0.189547
H72	H	0.465259	-0.337151	-0.311048
N73	N	0.988913	-0.369192	-0.936047
H74	H	0.979205	-0.293438	-0.947414
H75	H	0.982808	-0.379615	-0.889642
H76	H	0.465094	-0.683691	-0.292768
N77	N	0.824112	-0.907695	-0.216549
H78	H	0.806833	-0.860474	-0.250465
H79	H	0.794929	-0.969448	-0.209767
H80	H	0.914592	-0.336941	-0.742853
N81	N	0.337923	-0.311858	-0.312384
H82	H	0.310791	-0.313368	-0.350992
H83	H	0.310799	-0.301864	-0.274197
H84	H	0.921680	-0.919030	-0.198725
H85	H	0.548377	-0.387622	-0.374719
H86	H	0.263264	-0.633170	-0.229095
N87	N	0.272118	-0.369660	-0.385354
H88	H	0.260769	-0.293883	-0.375703
H89	H	0.318514	-0.380051	-0.379239
N90	N	0.993483	-1.111600	-0.381529
H91	H	1.036092	-1.081539	-0.391455
H92	H	0.995966	-1.191322	-0.380166
N93	N	0.337725	-0.708885	-0.291445
H94	H	0.368352	-0.769391	-0.288245
H95	H	0.310557	-0.707244	-0.252844
N96	N	0.895274	-0.708696	-0.870231
H97	H	0.892124	-0.769219	-0.839578
H98	H	0.856671	-0.707162	-0.897366
N99	N	0.871966	-1.110236	-0.415538
H100	H	0.910063	-1.157308	-0.414189
H101	H	0.835182	-1.151617	-0.432192
H102	H	0.978306	-0.387255	-0.659773
H103	H	0.838874	-1.099524	-0.221845
N104	N	0.539536	-0.651142	-0.218461
H105	H	0.493127	-0.640860	-0.224556
H106	H	0.550945	-0.726882	-0.228133
N107	N	1.021639	-0.907459	-0.276871
H108	H	1.011920	-0.930115	-0.232651
H109	H	1.063436	-0.937334	-0.289869
N110	N	0.822262	-0.650978	-1.072016
H111	H	0.847713	-0.700082	-1.099180
H112	H	0.796875	-0.693880	-1.041316
N113	N	0.989329	-0.909507	-0.384656
H114	H	0.954841	-0.863413	-0.401844
H115	H	1.029287	-0.867195	-0.381963
N116	N	0.915896	-0.311611	-0.870200
H117	H	0.956453	-0.275531	-0.858828
H118	H	0.915112	-0.326150	-0.916607
H119	H	0.978312	-0.387013	-1.063410
N120	N	0.822251	-0.651051	-0.936018
H121	H	0.831957	-0.726788	-0.947413
H122	H	0.828341	-0.640703	-0.889613
H123	H	1.007853	-1.099665	-0.283493
N124	N	0.895277	-0.708778	-0.734220
H125	H	0.892141	-0.769270	-0.764878
H126	H	0.933454	-0.718609	-0.707092
N127	N	0.822246	-0.651202	-0.668375
H128	H	0.828329	-0.640887	-0.714793
H129	H	0.831970	-0.726921	-0.656949
N130	N	0.675544	-0.651178	-0.218448
H131	H	0.644858	-0.694052	-0.193022
H132	H	0.702684	-0.700311	-0.243901
N133	N	0.988904	-0.369421	-0.532417
H134	H	1.014299	-0.326450	-0.563081
H135	H	0.963411	-0.320381	-0.505255
H136	H	0.832838	-0.633360	-0.541023
H137	H	0.667084	-0.387669	-0.374717
N138	N	0.871860	-0.908761	-0.415166
H139	H	0.878609	-0.970798	-0.444113
H140	H	0.835870	-0.864574	-0.430963
H141	H	0.808467	-1.102175	-0.339407
N142	N	0.791967	-0.909983	-0.335466
H143	H	0.763328	-0.972559	-0.328994
H144	H	0.793082	-0.865802	-0.296163
H145	H	0.920975	-1.100445	-0.198775
