data_functionalizedCrystal
_audit_creation_method	'MofGen! by Chris Wilmer'
_symmetry_space_group_name_H-M	'P1'
_symmetry_Int_Tables_number	1
_symmetry_cell_setting	triclinic
loop_
_symmetry_equiv_pos_as_xyz
  x,y,z
_cell_length_a	18.215407
_cell_length_b	18.215405
_cell_length_c	18.215407
_cell_angle_alpha	90.011538
_cell_angle_beta	90.009795
_cell_angle_gamma	90.025333
loop_
_atom_site_label
_atom_site_type_symbol
_atom_site_fract_x
_atom_site_fract_y
_atom_site_fract_z
Zn1	Zn	1.124999	-0.293121	0.416102
Zn2	Zn	1.624999	0.206879	0.916102
Zn3	Zn	1.124929	-0.416152	0.293030
Zn4	Zn	1.624929	0.083848	0.793030
Zn5	Zn	1.001953	-0.293104	0.293050
Zn6	Zn	1.501953	0.206896	0.793050
Zn7	Zn	1.001897	-0.416151	0.416055
Zn8	Zn	1.501897	0.083849	0.916055
O9	O	1.063445	-0.354632	0.354559
O10	O	1.563445	0.145368	0.854559
O11	O	1.227974	-0.309448	0.399788
O12	O	1.727974	0.190552	0.899788
O13	O	1.108610	-0.399822	0.190049
O14	O	1.608610	0.100178	0.690049
O15	O	1.018328	-0.190122	0.309401
O16	O	1.518328	0.309878	0.809401
O17	O	1.227923	-0.399838	0.309368
O18	O	1.727923	0.100162	0.809368
O19	O	1.108729	-0.190135	0.399807
O20	O	1.608729	0.309865	0.899807
O21	O	1.018260	-0.309420	0.190063
O22	O	1.518260	0.190580	0.690063
O23	O	0.898961	-0.309420	0.309355
O24	O	1.398961	0.190580	0.809355
O25	O	1.018233	-0.399838	0.519046
O26	O	1.518233	0.100162	1.019046
O27	O	0.898921	-0.399822	0.399727
O28	O	1.398921	0.100178	0.899727
O29	O	1.108675	-0.309448	0.519080
O30	O	1.608675	0.190552	1.019080
O31	O	1.108556	-0.519136	0.309322
O32	O	1.608556	-0.019136	0.809322
O33	O	1.018165	-0.519136	0.399708
O34	O	1.518165	-0.019136	0.899708
C35	C	0.872238	-0.354620	0.354538
C36	C	1.372238	0.145380	0.854538
C37	C	0.790439	-0.354632	0.354547
C38	C	1.290439	0.145368	0.854547
C39	C	0.602244	-0.401778	0.401544
C40	C	1.102244	0.098222	0.901544
C41	C	0.525385	-0.401781	0.401553
C42	C	1.025385	0.098219	0.901553
C43	C	0.525398	-0.307499	0.307591
C44	C	1.025398	0.192501	0.807591
C45	C	0.602255	-0.307494	0.307586
C46	C	1.102255	0.192506	0.807586
C47	C	0.640676	-0.354638	0.354561
C48	C	1.140676	0.145362	0.854561
C49	C	0.486960	-0.354645	0.354576
C50	C	0.986960	0.145355	0.854576
C51	C	0.403626	-0.354647	0.354585
C52	C	0.903626	0.145353	0.854585
C53	C	0.724015	-0.354635	0.354553
C54	C	1.224015	0.145365	0.854553
C55	C	1.063367	-0.545838	0.354524
C56	C	1.563367	-0.045838	0.854524
C57	C	1.063401	-0.627637	0.354534
C58	C	1.563401	-0.127637	0.854534
C59	C	1.110578	-0.815807	0.307556
C60	C	1.610578	-0.315807	0.807556
C61	C	1.110611	-0.892666	0.307574
C62	C	1.610611	-0.392666	0.807574
C63	C	1.016405	-0.892705	0.401616
C64	C	1.516405	-0.392705	0.901616
C65	C	1.016377	-0.815848	0.401601
C66	C	1.516377	-0.315848	0.901601
C67	C	1.063462	-0.777401	0.354567
C68	C	1.563462	-0.277401	0.854567
C69	C	1.063524	-0.931117	0.354600
C70	C	1.563524	-0.431117	0.854600
C71	C	1.063559	-1.014450	0.354619
C72	C	1.563559	-0.514450	0.854619
C73	C	1.063428	-0.694062	0.354548
C74	C	1.563428	-0.194062	0.854548
C75	C	1.255398	-0.354645	0.354581
C76	C	1.755398	0.145355	0.854581
C77	C	1.337196	-0.354651	0.354590
C78	C	1.837196	0.145349	0.854590
C79	C	1.063456	-0.354645	0.546512
C80	C	1.563456	0.145355	1.046512
C81	C	1.063461	-0.354651	0.628311
C82	C	1.563461	0.145349	1.128311
C83	C	1.063543	-0.162679	0.354611
C84	C	1.563543	0.337321	0.854611
C85	C	1.063584	-0.080880	0.354633
C86	C	1.563584	0.419120	0.854633
C87	C	1.110495	-0.401708	0.893366
C88	C	1.610495	0.098292	1.393366
C89	C	1.110496	-0.401712	0.816507
C90	C	1.610496	0.098288	1.316507
C91	C	1.016406	-0.307581	0.816505
C92	C	1.516406	0.192419	1.316505
C93	C	1.016401	-0.307582	0.893362
C94	C	1.516401	0.192418	1.393362
C95	C	1.063449	-0.354645	0.931791
C96	C	1.563449	0.145355	1.431791
C97	C	1.063456	-0.354647	0.778075
C98	C	1.563456	0.145353	1.278075
C99	C	1.063458	-0.354650	0.694741
C100	C	1.563458	0.145350	1.194741
C101	C	1.063447	-0.354642	1.015130
C102	C	1.563447	0.145358	1.515130
C103	C	1.063433	-0.354638	1.163353
C104	C	1.563433	0.145362	1.663353
C105	C	1.063445	-0.354641	1.081554
C106	C	1.563445	0.145359	1.581554
H107	H	0.494106	-0.269118	0.269344
H108	H	0.994106	0.230882	0.769344
H109	H	0.494096	-0.440166	0.439813
H110	H	0.994096	0.059834	0.939813
O111	O	0.639534	-0.447487	0.447285
O112	O	1.139534	0.052513	0.947285
C113	C	0.663029	-0.483430	0.572404
C114	C	1.163029	0.016570	1.072404
C115	C	0.620769	-0.431609	0.520683
C116	C	1.120769	0.068391	1.020683
H117	H	0.647862	-0.470621	0.631755
H118	H	1.147862	0.029379	1.131755
H119	H	0.724572	-0.475328	0.564395
H120	H	1.224572	0.024672	1.064395
H121	H	0.647900	-0.542748	0.559340
H122	H	1.147900	-0.042748	1.059340
H123	H	0.635836	-0.372271	0.533714
H124	H	1.135836	0.127729	1.033714
H125	H	0.559236	-0.439774	0.528701
H126	H	1.059236	0.060226	1.028701
H127	H	0.978101	-0.269264	0.785207
H128	H	1.478101	0.230736	1.285207
O129	O	0.970536	-0.778649	0.447294
O130	O	1.470536	-0.278649	0.947294
C131	C	0.877133	-0.786793	0.540605
C132	C	1.377133	-0.286793	1.040605
C133	C	0.928991	-0.829012	0.488884
C134	C	1.428991	-0.329012	0.988884
H135	H	0.843542	-0.827492	0.574255
H136	H	1.343542	-0.327492	1.074255
H137	H	0.838617	-0.750873	0.506809
H138	H	1.338617	-0.250873	1.006809
H139	H	0.910892	-0.750749	0.579078
H140	H	1.410892	-0.250749	1.079078
H141	H	0.895291	-0.865096	0.450401
H142	H	1.395291	-0.365096	0.950401
H143	H	0.967509	-0.864885	0.522726
H144	H	1.467509	-0.364885	1.022726
H145	H	1.148804	-0.440031	0.924652
H146	H	1.648804	0.059969	1.424652
H147	H	0.633548	-0.269102	0.269327
H148	H	1.133548	0.230898	0.769327
O149	O	1.156387	-0.778572	0.261849
O150	O	1.656387	-0.278572	0.761849
C151	C	1.249798	-0.786649	0.168545
C152	C	1.749798	-0.286649	0.668545
C153	C	1.197967	-0.828905	0.220282
C154	C	1.697967	-0.328905	0.720282
H155	H	1.283419	-0.827324	0.134913
H156	H	1.783419	-0.327324	0.634913
H157	H	1.288288	-0.750640	0.202326
H158	H	1.788288	-0.250640	0.702326
H159	H	1.216016	-0.750690	0.130055
H160	H	1.716016	-0.250690	0.630055
H161	H	1.231691	-0.864903	0.258783
H162	H	1.731691	-0.364903	0.758783
H163	H	1.159475	-0.864867	0.186456
H164	H	1.659475	-0.364867	0.686456
O165	O	0.970675	-0.261791	0.930580
O166	O	1.470675	0.238209	1.430580
C167	C	0.877318	-0.168458	0.922473
C168	C	1.377318	0.331542	1.422473
C169	C	0.929076	-0.220260	0.880234
C170	C	1.429076	0.279740	1.380234
H171	H	0.843660	-0.134878	0.881787
H172	H	1.343660	0.365122	1.381787
H173	H	0.911085	-0.129930	0.958454
H174	H	1.411085	0.370070	1.458454
H175	H	0.838853	-0.202262	0.958459
H176	H	1.338853	0.297738	1.458459
H177	H	0.967551	-0.186516	0.844208
H178	H	1.467551	0.313484	1.344208
H179	H	0.895263	-0.258790	0.844300
H180	H	1.395263	0.241210	1.344300
O181	O	1.156396	-0.930087	0.262017
O182	O	1.656396	-0.430087	0.762017
C183	C	1.198262	-1.048470	0.220428
C184	C	1.698262	-0.548470	0.720428
C185	C	1.146355	-1.006183	0.272044
C186	C	1.646355	-0.506183	0.772044
H187	H	1.190151	-1.110001	0.228505
H188	H	1.690151	-0.610001	0.728505
H189	H	1.257583	-1.033324	0.233462
H190	H	1.757583	-0.533324	0.733462
H191	H	1.185443	-1.033381	0.161059
H192	H	1.685443	-0.533381	0.661059
H193	H	1.159108	-1.021249	0.331430
H194	H	1.659108	-0.521249	0.831430
H195	H	1.087050	-1.021332	0.258946
H196	H	1.587050	-0.521332	0.758946
O197	O	0.970688	-0.930168	0.447227
O198	O	1.470688	-0.430168	0.947227
C199	C	0.929007	-1.048588	0.488956
C200	C	1.429007	-0.548588	0.988956
C201	C	0.980811	-1.006256	0.437252
C202	C	1.480811	-0.506256	0.937252
H203	H	0.937184	-1.110112	0.480920
H204	H	1.437184	-0.610112	0.980920
H205	H	0.869655	-1.033583	0.475969
H206	H	1.369655	-0.533583	0.975969
H207	H	0.941868	-1.033401	0.548299
H208	H	1.441868	-0.533401	1.048299
H209	H	0.968016	-1.021421	0.377891
H210	H	1.468016	-0.521421	0.877891
H211	H	1.040147	-1.021265	0.450302
H212	H	1.540147	-0.521265	0.950302
O213	O	1.156267	-0.447452	0.779295
O214	O	1.656267	0.052548	1.279295
C215	C	1.249562	-0.540845	0.787413
C216	C	1.749562	-0.040845	1.287413
C217	C	1.197776	-0.489067	0.829646
C218	C	1.697776	0.010933	1.329646
H219	H	1.283125	-0.574516	0.828104
H220	H	1.783125	-0.074516	1.328104
H221	H	1.288108	-0.507094	0.751465
H222	H	1.788108	-0.007094	1.251465
H223	H	1.215749	-0.579297	0.751397
H224	H	1.715749	-0.079297	1.251397
H225	H	1.231530	-0.450605	0.865702
H226	H	1.731530	0.049395	1.365702
H227	H	1.159228	-0.522865	0.865549
H228	H	1.659228	-0.022865	1.365549
