data_functionalizedCrystal
_audit_creation_method	'MofGen! by Chris Wilmer'
_symmetry_space_group_name_H-M	'P1'
_symmetry_Int_Tables_number	1
_symmetry_cell_setting	triclinic
loop_
_symmetry_equiv_pos_as_xyz
  x,y,z
_cell_length_a	10.723024
_cell_length_b	10.723023
_cell_length_c	9.798715
_cell_angle_alpha	89.997861
_cell_angle_beta	89.996609
_cell_angle_gamma	84.467709
loop_
_atom_site_label
_atom_site_type_symbol
_atom_site_fract_x
_atom_site_fract_y
_atom_site_fract_z
O1	O	1.657187	0.175025	-0.113479
O2	O	1.294034	0.191778	-0.113483
O3	O	1.483988	0.001825	-0.113475
O4	O	1.467233	0.364977	-0.113487
O5	O	1.483974	0.001824	0.113507
O6	O	1.294020	0.191777	0.113499
O7	O	1.657173	0.175024	0.113503
Zn8	Zn	1.475594	0.183401	0.149539
Zn9	Zn	1.475613	0.183401	-0.149519
O10	O	1.467219	0.364977	0.113495
C11	C	1.247528	0.190558	0.000007
C12	C	1.108973	0.186911	0.000006
C13	C	0.917217	0.073603	0.000007
C14	C	1.060420	0.077371	0.000008
C15	C	1.482762	-0.044675	0.000014
C16	C	1.479114	-0.183229	0.000010
C17	C	1.477496	-0.244995	-0.117576
C18	C	1.473726	-0.388198	-0.117583
C19	C	1.703679	0.176243	0.000010
C20	C	1.842234	0.179891	0.000002
C21	C	1.468445	0.411477	0.000003
C22	C	1.472093	0.550031	-0.000002
N23	N	1.475590	0.183399	0.353639
N24	N	1.475626	0.183393	-0.353619
C25	C	1.555347	0.103292	0.421419
C26	C	1.555367	0.103288	0.578582
H27	H	0.875395	-0.020182	0.000030
H28	H	1.623611	0.034707	0.363099
O29	O	1.477259	-0.246721	0.120024
C30	C	1.365394	-0.380586	0.263465
C31	C	1.367358	-0.308773	0.127481
H32	H	1.276536	-0.430752	0.269551
H33	H	1.450902	-0.452298	0.269597
H34	H	1.367258	-0.311788	0.351971
H35	H	1.365452	-0.377476	0.038897
H36	H	1.281858	-0.237044	0.121468
H37	H	1.623654	0.034709	0.636870
O38	O	1.479112	-0.181800	-0.237796
C39	C	1.478853	-0.195246	-0.483271
C40	C	1.476990	-0.266960	-0.347216
H41	H	1.477165	-0.264071	-0.571772
H42	H	1.393256	-0.123650	-0.489465
H43	H	1.567618	-0.144924	-0.489290
H44	H	1.388282	-0.317357	-0.341105
H45	H	1.562647	-0.338485	-0.341079
H46	H	1.124853	-0.013619	0.000003
O47	O	1.473966	-0.386705	0.120146
C48	C	1.582870	-0.359909	0.331652
C49	C	1.580923	-0.431641	0.195621
H50	H	1.669323	-0.396230	0.392725
H51	H	1.585693	-0.255699	0.310346
H52	H	1.494970	-0.374752	0.392634
H53	H	1.668805	-0.416901	0.134571
H54	H	1.578035	-0.535826	0.217024
H55	H	0.884055	0.273677	0.000008
H56	H	1.407318	0.251975	0.411961
O57	O	1.031996	0.295390	-0.000183
C58	C	0.868801	0.423175	-0.117829
C59	C	0.955896	0.300263	-0.117768
H60	H	0.807270	0.427167	-0.212901
H61	H	0.807064	0.427187	-0.022904
H62	H	0.927665	0.506213	-0.117764
H63	H	0.897130	0.217156	-0.117882
H64	H	1.017638	0.296361	-0.212684
O65	O	1.394284	0.265394	0.576925
C66	C	1.323577	0.481821	0.533018
C67	C	1.415787	0.389094	0.611749
H68	H	1.340912	0.581852	0.561166
H69	H	1.338074	0.467358	0.418639
H70	H	1.223407	0.464887	0.561036
H71	H	1.515992	0.405971	0.583845
H72	H	1.401180	0.403579	0.726109
H73	H	1.472340	-0.441315	-0.218252
