data_functionalizedCrystal
_audit_creation_method	'MofGen! by Chris Wilmer'
_symmetry_space_group_name_H-M	'P1'
_symmetry_Int_Tables_number	1
_symmetry_cell_setting	triclinic
loop_
_symmetry_equiv_pos_as_xyz
  x,y,z
_cell_length_a	21.395364
_cell_length_b	21.395361
_cell_length_c	21.395355
_cell_angle_alpha	90.021511
_cell_angle_beta	90.025600
_cell_angle_gamma	90.028209
loop_
_atom_site_label
_atom_site_type_symbol
_atom_site_fract_x
_atom_site_fract_y
_atom_site_fract_z
Zn1	Zn	-0.957859	0.249553	-0.354266
Zn2	Zn	-0.957762	0.354313	-0.249483
Zn3	Zn	-0.853074	0.249548	-0.249501
Zn4	Zn	-0.853043	0.354292	-0.354221
O5	O	-0.905434	0.301926	-0.301868
O6	O	-1.045524	0.263460	-0.340377
O7	O	-0.943847	0.340422	-0.161807
O8	O	-0.867028	0.161871	-0.263424
O9	O	-1.045452	0.340427	-0.263394
O10	O	-0.944013	0.161874	-0.340395
O11	O	-0.866933	0.263452	-0.161820
O12	O	-0.765392	0.263432	-0.263381
O13	O	-0.866975	0.340391	-0.441905
O14	O	-0.765369	0.340387	-0.340319
O15	O	-0.943983	0.263440	-0.441938
O16	O	-0.943817	0.441988	-0.263351
O17	O	-0.866881	0.441973	-0.340301
C18	C	-0.742647	0.301907	-0.301847
C19	C	-0.673006	0.301914	-0.301853
C20	C	-0.171214	0.342060	-0.341879
C21	C	-0.236649	0.342061	-0.341874
C22	C	-0.269367	0.301931	-0.301878
C23	C	-0.236644	0.261809	-0.261873
C24	C	-0.171210	0.261813	-0.261876
C25	C	-0.373056	0.245467	-0.297031
C26	C	-0.438489	0.245462	-0.297033
C27	C	-0.471188	0.301917	-0.301867
C28	C	-0.438446	0.358380	-0.306712
C29	C	-0.373012	0.358385	-0.306714
C30	C	-0.340320	0.301922	-0.301871
C31	C	-0.574856	0.342041	-0.341860
C32	C	-0.640292	0.342044	-0.341850
C33	C	-0.640286	0.261786	-0.261853
C34	C	-0.574850	0.261790	-0.261860
C35	C	-0.542139	0.301916	-0.301867
C36	C	-0.905486	0.301914	-0.465291
C37	C	-0.905509	0.301908	-0.534932
C38	C	-0.905352	0.464714	-0.301833
C39	C	-0.905374	0.534355	-0.301839
C40	C	-0.068858	0.301942	-0.301885
C41	C	-0.138499	0.301940	-0.301882
C42	C	-0.905535	0.138503	-0.301916
C43	C	-0.905577	0.068862	-0.301937
C44	C	-0.945470	0.567056	-0.261812
C45	C	-0.945499	0.632491	-0.261826
C46	C	-0.905421	0.665224	-0.301860
C47	C	-0.865322	0.632516	-0.341895
C48	C	-0.865298	0.567081	-0.341885
C49	C	-0.849006	0.768936	-0.306769
C50	C	-0.849029	0.834369	-0.306776
C51	C	-0.905494	0.867044	-0.301897
C52	C	-0.961938	0.834278	-0.296999
C53	C	-0.961915	0.768844	-0.296988
C54	C	-0.905442	0.736176	-0.301877
C55	C	-0.945625	0.970697	-0.261883
C56	C	-0.945655	1.036134	-0.261901
C57	C	-0.865472	1.036157	-0.341968
C58	C	-0.865448	0.970722	-0.341953
C59	C	-0.905523	0.937996	-0.301907
C60	C	-0.945605	0.261838	-0.567664
C61	C	-0.945604	0.261811	-0.633099
C62	C	-0.905513	0.301866	-0.665801
C63	C	-0.865409	0.341939	-0.633062
C64	C	-0.865407	0.341960	-0.567627
C65	C	-0.900538	0.358281	-0.769463
C66	C	-0.900544	0.358261	-0.834896
C67	C	-0.905517	0.301800	-0.867622
C68	C	-0.910497	0.245357	-0.834906
C69	C	-0.910494	0.245378	-0.769472
C70	C	-0.905511	0.301847	-0.736753
C71	C	-0.945615	0.261697	-0.971305
C72	C	-0.945610	0.261669	-1.036742
C73	C	-0.865418	0.341802	-1.036703
C74	C	-0.865420	0.341824	-0.971268
C75	C	-0.905522	0.301773	-0.938573
C76	C	-0.905419	0.301894	-0.139080
C77	C	-0.905518	0.301723	-0.069439
H78	H	-0.465143	0.199486	-0.293095
H79	H	-0.978254	0.229178	-0.659754
H80	H	-0.263291	0.374731	-0.374446
F81	F	-0.988176	0.667300	-0.219221
H82	H	-0.832766	0.374549	-0.659691
H83	H	-0.896320	0.404246	-0.742824
F84	F	-0.988282	0.219209	-0.532871
F85	F	-0.988291	0.219068	-0.936507
H86	H	-0.978260	0.229035	-1.063391
H87	H	-0.803068	0.861042	-0.310758
F88	F	-0.988275	0.935866	-0.219263
H89	H	-0.832770	0.374409	-1.063328
F90	F	-0.822769	0.935918	-0.384553
H91	H	-0.978310	1.062757	-0.229308
F92	F	-0.271466	0.219102	-0.219305
F93	F	-0.822821	1.070989	-0.384580
H94	H	-0.666924	0.229114	-0.229286
H95	H	-0.803022	0.742339	-0.310744
H96	H	-0.548221	0.374716	-0.374435
F97	F	-0.136404	0.384769	-0.384455
F98	F	-0.540031	0.219084	-0.219293
H99	H	-0.144574	0.229141	-0.229305
F100	F	-0.675110	0.384751	-0.384419
H101	H	-0.832773	0.374458	-0.944618
H102	H	-0.346438	0.199492	-0.293084
H103	H	-0.978103	0.540412	-0.229206
F104	F	-0.822670	0.667353	-0.384505
F105	F	-0.822620	0.532278	-0.384489
H106	H	-0.914547	0.199421	-0.742837
H107	H	-0.832753	0.374589	-0.540978
F108	F	-0.895250	0.418331	-0.869709
F109	F	-0.915792	0.185262	-0.869729
H110	H	-0.346356	0.404359	-0.310658
F111	F	-0.473241	0.418470	-0.311856
H112	H	-1.007918	0.860881	-0.293027
F113	F	-1.021985	0.733975	-0.291780
