data_functionalizedCrystal
_audit_creation_method	'MofGen! by Chris Wilmer'
_symmetry_space_group_name_H-M	'P1'
_symmetry_Int_Tables_number	1
_symmetry_cell_setting	triclinic
loop_
_symmetry_equiv_pos_as_xyz
  x,y,z
_cell_length_a	15.995350
_cell_length_b	14.853567
_cell_length_c	13.330367
_cell_angle_alpha	90.000844
_cell_angle_beta	89.996093
_cell_angle_gamma	96.436348
loop_
_atom_site_label
_atom_site_type_symbol
_atom_site_fract_x
_atom_site_fract_y
_atom_site_fract_z
O1	O	1.111124	-0.116206	-0.083330
O2	O	1.611124	0.383794	0.416670
O3	O	0.867366	-0.130556	-0.083350
O4	O	1.367366	0.369444	0.416650
O5	O	0.995756	0.007858	-0.083342
O6	O	1.495756	0.507858	0.416658
O7	O	0.982734	-0.254619	-0.083337
O8	O	1.482734	0.245381	0.416663
O9	O	0.995738	0.007861	0.083505
O10	O	1.495738	0.507861	0.583505
O11	O	0.867347	-0.130553	0.083498
O12	O	1.367347	0.369447	0.583498
O13	O	1.111106	-0.116203	0.083517
O14	O	1.611106	0.383797	0.583517
Cu15	Cu	0.989225	-0.123377	0.098742
Cu16	Cu	1.489225	0.376623	0.598742
Cu17	Cu	0.989247	-0.123381	-0.098574
Cu18	Cu	1.489247	0.376619	0.401426
O19	O	0.982715	-0.254616	0.083510
O20	O	1.482715	0.245384	0.583510
C21	C	0.836161	-0.129961	0.000071
C22	C	1.336161	0.370039	0.500071
C23	C	0.743209	-0.128182	0.000064
C24	C	1.243209	0.371818	0.500064
C25	C	0.995157	0.041447	0.000078
C26	C	1.495157	0.541447	0.500078
C27	C	0.993389	0.141528	0.000069
C28	C	1.493389	0.641528	0.500069
N29	N	0.989215	-0.123374	0.237523
N30	N	1.489215	0.376626	0.737523
C31	C	0.405454	-0.121795	0.000084
C32	C	0.905454	0.378205	0.500084
C33	C	0.452773	-0.023220	0.000455
C34	C	0.952773	0.476780	0.500455
C35	C	0.549465	-0.024999	0.000072
C36	C	1.049465	0.475001	0.500072
C37	C	0.573018	-0.124963	0.000075
C38	C	1.073018	0.375037	0.500075
C39	C	0.531998	-0.173586	-0.095198
C40	C	1.031998	0.326414	0.404802
C41	C	0.435359	-0.171110	-0.095271
C42	C	0.935359	0.328890	0.404729
C43	C	0.435002	-0.173143	0.094465
C44	C	0.935002	0.326857	0.594465
C45	C	0.531947	-0.173119	0.095717
C46	C	1.031947	0.326881	0.595717
C47	C	0.667717	-0.126759	0.000066
C48	C	1.167717	0.373241	0.500066
C49	C	0.310754	-0.120002	0.000086
C50	C	0.810754	0.379998	0.500086
C51	C	1.142311	-0.116798	0.000094
C52	C	1.642311	0.383202	0.500094
C53	C	1.235263	-0.118576	0.000095
C54	C	1.735263	0.381424	0.500095
C55	C	0.983315	-0.288206	0.000087
C56	C	1.483315	0.211794	0.500087
C57	C	0.985083	-0.388287	0.000089
C58	C	1.485083	0.111713	0.500089
C59	C	0.909648	0.553949	0.000082
C60	C	1.409648	1.053949	0.500082
C61	C	1.062178	0.575436	0.000094
C62	C	1.562178	1.075436	0.500094
C63	C	1.063841	0.481405	0.000088
C64	C	1.563841	0.981405	0.500088
C65	C	0.988406	0.423641	0.000081
C66	C	1.488406	0.923641	0.500081
C67	C	0.911308	0.459909	0.000079
C68	C	1.411308	0.959909	0.500079
C69	C	1.140937	0.445129	0.000100
C70	C	1.640937	0.945129	0.500100
C71	C	1.142603	0.351093	0.000096
C72	C	1.642603	0.851093	0.500096
C73	C	1.067167	0.293327	0.000081
C74	C	1.567167	0.793327	0.500081
C75	C	0.990066	0.329600	0.000078
C76	C	1.490066	0.829600	0.500078
C77	C	0.914631	0.271837	0.000071
C78	C	1.414631	0.771837	0.500071
C79	C	0.837529	0.308108	0.000061
C80	C	1.337529	0.808108	0.500061
C81	C	0.835872	0.402144	0.000064
C82	C	1.335872	0.902144	0.500064
C83	C	1.068824	0.199292	0.000077
C84	C	1.568824	0.699292	0.500077
C85	C	0.916291	0.177796	0.000068
C86	C	1.416291	0.677796	0.500068
N87	N	0.989263	-0.123377	-0.237356
N88	N	1.489263	0.376623	0.262644
C89	C	0.932393	-0.184646	0.710143
C90	C	1.432393	0.315354	1.210143
C91	C	1.046123	-0.062109	0.710117
C92	C	1.546123	0.437891	1.210117
C93	C	1.046114	-0.062106	0.605099
C94	C	1.546114	0.437894	1.105099
C95	C	0.989244	-0.123375	0.552598
C96	C	1.489244	0.376625	1.052598
C97	C	0.932384	-0.184647	0.605115
C98	C	1.432384	0.315353	1.105115
C99	C	1.102979	-0.000841	0.552574
C100	C	1.602979	0.499159	1.052574
C101	C	1.102972	-0.000836	0.447549
C102	C	1.602972	0.499164	0.947549
C103	C	1.046098	-0.062102	0.395046
C104	C	1.546098	0.437898	0.895046
C105	C	0.989234	-0.123376	0.447570
C106	C	1.489234	0.376624	0.947570
C107	C	0.932365	-0.184646	0.395068
C108	C	1.432365	0.315354	0.895068
C109	C	0.875497	-0.245916	0.447590
C110	C	1.375497	0.254084	0.947590
C111	C	0.875509	-0.245913	0.552612
C112	C	1.375509	0.254087	1.052612
C113	C	1.046085	-0.062105	0.290025
C114	C	1.546085	0.437895	0.790025
C115	C	0.932355	-0.184647	0.290040
C116	C	1.432355	0.315353	0.790040
H117	H	0.577842	0.013221	0.068367
H118	H	1.077842	0.513221	0.568367
H119	H	0.829196	-0.295806	0.404832
H120	H	1.329196	0.204194	0.904832
Br121	Br	0.404784	-0.112017	-0.213977
Br122	Br	0.904784	0.387983	0.286023
H123	H	1.123594	0.622472	0.000108
H124	H	1.623594	1.122472	0.500108
Br125	Br	0.381746	-0.291731	-0.102474
Br126	Br	0.881746	0.208269	0.397526
Br127	Br	0.400704	-0.119425	0.214830
Br128	Br	0.900704	0.380575	0.714830
H129	H	0.846873	0.583486	0.000070
H130	H	1.346873	1.083486	0.500070
H131	H	0.773099	0.431685	0.000057
H132	H	1.273099	0.931685	0.500057
H133	H	1.202353	0.492167	0.000116
H134	H	1.702353	0.992167	0.500116
H135	H	1.149276	0.049054	0.404793
H136	H	1.649276	0.549054	0.904793
H137	H	0.546209	-0.247028	-0.098739
H138	H	1.046209	0.252972	0.401261
Br139	Br	0.577277	-0.113859	0.213194
Br140	Br	1.077277	0.386141	0.713194
Br141	Br	1.247238	0.301875	0.000094
Br142	Br	1.747238	0.801875	0.500094
H143	H	0.547396	-0.246017	0.101474
H144	H	1.047396	0.253983	0.601474
Br145	Br	1.173453	0.150069	0.000114
Br146	Br	1.673453	0.650069	0.500114
Br147	Br	1.123309	0.021032	0.781365
Br148	Br	1.623309	0.521032	1.281365
Br149	Br	1.123264	0.021033	0.218752
Br150	Br	1.623264	0.521033	0.718752
Br151	Br	0.855164	-0.267795	0.218797
Br152	Br	1.355164	0.232205	0.718797
H153	H	0.829210	-0.295798	0.595381
H154	H	1.329210	0.204202	1.095381
H155	H	0.886090	-0.234530	0.752909
H156	H	1.386090	0.265470	1.252909
Br157	Br	1.180165	0.082300	0.623822
Br158	Br	1.680165	0.582300	1.123822
H159	H	0.776110	0.261065	0.000061
H160	H	1.276110	0.761065	0.500061
H161	H	0.433141	0.016001	-0.067494
H162	H	0.933141	0.516001	0.432506
Br163	Br	0.421809	0.042459	0.114334
Br164	Br	0.921809	0.542459	0.614334
Br165	Br	0.813909	0.099409	0.000046
Br166	Br	1.313909	0.599409	0.500046
H167	H	0.560341	-0.139817	-0.166105
H168	H	1.060341	0.360183	0.333895
Br169	Br	0.595808	0.038843	-0.114160
Br170	Br	1.095808	0.538843	0.385840
H171	H	0.403325	-0.245822	0.095112
H172	H	0.903325	0.254178	0.595112
