data_functionalizedCrystal
_audit_creation_method	'MofGen! by Chris Wilmer'
_symmetry_space_group_name_H-M	'P1'
_symmetry_Int_Tables_number	1
_symmetry_cell_setting	triclinic
loop_
_symmetry_equiv_pos_as_xyz
  x,y,z
_cell_length_a	14.971486
_cell_length_b	9.130313
_cell_length_c	10.654550
_cell_angle_alpha	89.995631
_cell_angle_beta	84.049530
_cell_angle_gamma	90.001434
loop_
_atom_site_label
_atom_site_type_symbol
_atom_site_fract_x
_atom_site_fract_y
_atom_site_fract_z
O1	O	1.187834	-0.121630	0.163656
O2	O	0.927541	-0.121670	0.183254
O3	O	1.063672	-0.121640	-0.009348
O4	O	1.051703	-0.121660	0.356259
O5	O	1.063662	0.121959	-0.009354
O6	O	0.927531	0.121929	0.183249
O7	O	1.187825	0.121968	0.163651
Cu8	Cu	1.057677	0.144191	0.173449
Cu9	Cu	1.057688	-0.143893	0.173456
O10	O	1.051693	0.121938	0.356253
C11	C	0.894206	0.000124	0.182375
C12	C	0.794895	0.000109	0.179749
N13	N	1.057676	0.346814	0.173444
N14	N	1.057696	-0.346515	0.173451
C15	C	0.738285	0.000105	0.292898
C16	C	0.644972	0.000127	0.290422
C17	C	0.608271	0.000143	0.174797
C18	C	0.664888	0.000151	0.061639
C19	C	0.758199	0.000140	0.064116
C20	C	0.470397	0.000172	0.056485
C21	C	0.377080	0.000180	0.054007
C22	C	0.357171	0.000159	0.282791
C23	C	0.450482	0.000147	0.285268
C24	C	0.507092	0.000153	0.172110
C25	C	1.221159	0.000171	0.164530
C26	C	1.320470	0.000176	0.167156
C27	C	1.062788	0.000158	-0.056139
C28	C	1.060159	0.000156	-0.195555
C29	C	1.117975	0.423479	0.088195
C30	C	1.117984	0.576816	0.088195
C31	C	0.997390	0.576809	0.258704
C32	C	0.997378	0.423475	0.258697
C33	C	1.140311	0.000167	-0.275900
C34	C	1.137835	0.000149	-0.406894
C35	C	0.975048	0.000114	-0.377185
C36	C	0.977525	0.000121	-0.246193
C37	C	1.052577	0.000137	0.403044
C38	C	1.055206	0.000130	0.542460
H39	H	0.768160	0.000091	0.387053
H40	H	0.912251	0.000107	-0.180772
H41	H	0.948299	0.639241	0.328117
H42	H	0.598884	0.000122	0.382559
H43	H	0.480361	0.000121	0.379420
Br44	Br	0.915531	0.319417	0.374390
H45	H	0.347201	0.000195	-0.040145
H46	H	1.167084	0.639232	0.018777
Br47	Br	0.280344	0.000149	0.436363
H48	H	0.804290	0.000142	-0.028022
Br49	Br	0.547226	0.000187	-0.097088
H50	H	0.907770	0.000089	-0.418431
Br51	Br	1.252456	0.000215	-0.207180
H52	H	0.634998	0.000185	-0.032505
H53	H	1.203103	0.000156	-0.472307
Br54	Br	1.199805	0.319444	-0.027507
