data_functionalizedCrystal
_audit_creation_method	'MofGen! by Chris Wilmer'
_symmetry_space_group_name_H-M	'P1'
_symmetry_Int_Tables_number	1
_symmetry_cell_setting	triclinic
loop_
_symmetry_equiv_pos_as_xyz
  x,y,z
_cell_length_a	23.096457
_cell_length_b	23.096457
_cell_length_c	23.096457
_cell_angle_alpha	90.011518
_cell_angle_beta	60.007119
_cell_angle_gamma	60.004020
loop_
_atom_site_label
_atom_site_type_symbol
_atom_site_fract_x
_atom_site_fract_y
_atom_site_fract_z
Zr1	Zr	0.633718	0.557810	-0.075980
O2	O	0.754500	0.465352	-0.168422
O3	O	0.512937	0.586145	-0.047644
O4	O	0.633720	0.586129	-0.168431
O5	O	0.633715	0.465391	0.047646
O6	O	0.633722	0.681409	-0.168434
O7	O	0.633716	0.465368	-0.047636
O8	O	0.417662	0.681439	0.047631
O9	O	0.849775	0.465361	-0.168419
O10	O	0.562617	0.669347	-0.035559
O11	O	0.562615	0.598257	0.035552
O12	O	0.704822	0.598237	-0.106659
O13	O	0.704820	0.527148	-0.035548
Zr14	Zr	0.633718	0.709808	0.075978
Zr15	Zr	0.633721	0.709771	-0.075985
Zr16	Zr	0.633716	0.557846	0.075984
Zr17	Zr	0.785670	0.557825	-0.075975
Zr18	Zr	0.481766	0.709792	0.075973
O19	O	0.754500	0.681472	0.047643
O20	O	0.754504	0.681421	-0.168430
O21	O	0.754496	0.465403	0.047651
O22	O	0.512937	0.802266	0.168421
O23	O	0.512940	0.802214	-0.047652
O24	O	0.512933	0.586197	0.168429
O25	O	0.633722	0.802227	-0.047648
O26	O	0.633716	0.681489	0.168429
O27	O	0.633715	0.586209	0.168433
O28	O	0.633720	0.802249	0.047634
O29	O	0.849777	0.586150	-0.168423
O30	O	0.417660	0.681467	0.168422
O31	O	0.417662	0.802256	0.168417
O32	O	0.417664	0.802228	0.047626
O33	O	0.849773	0.465390	-0.047628
O34	O	0.849775	0.586179	-0.047632
O35	O	0.562615	0.669380	0.106657
O36	O	0.562617	0.740470	0.035547
O37	O	0.704822	0.669361	-0.035554
O38	O	0.704820	0.598271	0.035557
C39	C	0.443649	0.633790	-0.000008
C40	C	0.379142	0.633783	-0.000010
C41	C	0.296356	0.686287	0.052475
C42	C	0.235734	0.686292	0.052482
C43	C	0.257903	0.633798	-0.000007
C44	C	0.340703	0.581285	-0.052497
C45	C	0.401322	0.581278	-0.052498
N46	N	0.201794	0.617905	-0.062253
N47	N	0.144205	0.617917	-0.062250
C48	C	0.075264	0.633817	-0.000006
N49	N	0.066080	0.649719	0.062237
N50	N	0.123673	0.649711	0.062233
C51	C	0.192178	0.633800	-0.000012
C52	C	-0.073258	0.686329	0.052490
C53	C	-0.133879	0.686329	0.052497
C54	C	-0.028908	0.581325	-0.052487
C55	C	0.031710	0.581322	-0.052489
C56	C	0.009530	0.633828	-0.000000
C57	C	0.633715	0.443729	0.000006
C58	C	0.633714	0.379217	0.000009
C59	C	0.559487	0.386030	0.037115
C60	C	0.559486	0.325414	0.037118
C61	C	0.633716	0.257986	0.000001
C62	C	0.707953	0.251176	-0.037108
C63	C	0.707952	0.311792	-0.037104
N64	N	0.688970	0.135182	-0.060408
N65	N	0.688966	0.077602	-0.060411
C66	C	0.633723	0.075354	-0.000012
N67	N	0.578472	0.132866	0.060389
N68	N	0.578474	0.190452	0.060390
C69	C	0.633725	0.192255	-0.000007
C70	C	0.559490	0.016443	0.037102
C71	C	0.559491	-0.044175	0.037107
C72	C	0.707961	-0.118413	-0.037126
C73	C	0.707957	-0.057795	-0.037124
C74	C	0.633719	0.009630	-0.000012
C75	C	0.823787	0.633828	0.000006
C76	C	0.888295	0.633834	0.000008
C77	C	0.633721	0.633764	-0.190084
C78	C	0.633723	0.633748	-0.254597
C79	C	0.633721	0.823889	-0.000008
C80	C	0.633723	0.888401	-0.000010
C81	C	0.707950	0.596634	-0.322014
C82	C	0.707951	0.596652	-0.382631
C83	C	0.633721	0.633775	-0.375826
C84	C	0.559484	0.670898	-0.308396
C85	C	0.559485	0.670885	-0.247782
N86	N	0.578466	0.628647	-0.443383
N87	N	0.578471	0.628656	-0.500967
C88	C	0.633713	0.633818	-0.558451
N89	N	0.688964	0.638958	-0.556183
N90	N	0.688962	0.638946	-0.498595
C91	C	0.633711	0.633794	-0.441548
C92	C	0.707947	0.596722	-0.691598
C93	C	0.707945	0.596745	-0.752214
C94	C	0.559476	0.670986	-0.677978
C95	C	0.559480	0.670968	-0.617364
C96	C	0.633718	0.633832	-0.624179
C97	C	0.633715	0.633854	0.190083
C98	C	0.633714	0.633869	0.254595
C99	C	0.443652	0.823870	-0.000014
C100	C	0.379146	0.888375	-0.000019
C101	C	0.443646	0.633835	0.190076
C102	C	0.379137	0.633844	0.254586
C103	C	0.443649	0.823915	0.190069
C104	C	0.379142	0.888436	0.254577
C105	C	0.823787	0.443702	-0.190071
C106	C	0.888295	0.379182	-0.254579
C107	C	0.823784	0.443748	0.000013
C108	C	0.888291	0.379243	0.000018
C109	C	0.823790	0.633783	-0.190078
C110	C	0.888299	0.633774	-0.254588
C111	C	0.348853	0.881542	-0.037144
C112	C	0.288250	0.942145	-0.037162
C113	C	0.257938	1.009581	-0.000052
C114	C	0.288237	1.016414	0.037074
C115	C	0.348842	0.955811	0.037088
C116	C	0.348843	0.670974	0.322004
C117	C	0.288239	0.670979	0.382624
C118	C	0.257926	0.633859	0.375825
C119	C	0.288225	0.596724	0.308401
C120	C	0.348833	0.596715	0.247782
C121	C	0.348849	0.955850	0.247752
C122	C	0.288246	1.016479	0.308358
C123	C	0.257932	1.009693	0.375789
C124	C	0.288230	0.942272	0.382613
C125	C	0.348836	0.881644	0.322007
C126	C	0.918595	0.311768	-0.247753
C127	C	0.979217	0.251139	-0.308360
C128	C	1.009534	0.257925	-0.375790
C129	C	0.979232	0.325346	-0.382614
C130	C	0.918615	0.385974	-0.322009
C131	C	0.918590	0.386076	0.037136
C132	C	0.979209	0.325473	0.037138
C133	C	1.009524	0.258036	0.000025
C134	C	0.979222	0.251204	-0.037098
C135	C	0.918608	0.311807	-0.037104
C136	C	0.918593	0.670902	-0.247766
C137	C	0.979198	0.670907	-0.308375
C138	C	1.009512	0.633780	-0.375804
C139	C	0.979212	0.596651	-0.382624
C140	C	0.918604	0.596651	-0.322017
H141	H	0.358749	0.538544	-0.095234
C142	C	1.012583	0.332803	-0.456792
C143	C	1.079254	0.266108	-0.523449
C144	C	1.112603	0.273564	-0.597628
C145	C	1.079281	0.347714	-0.605150
C146	C	1.012607	0.414413	-0.538490
C147	C	0.979258	0.406958	-0.464311
H148	H	1.103924	0.211213	-0.517883
H149	H	1.161960	0.224187	-0.646974
H150	H	1.103968	0.353232	-0.660061
H151	H	0.987937	0.469308	-0.544056
H152	H	0.929900	0.456334	-0.414965
H153	H	0.893946	0.440863	-0.327575
H154	H	0.768392	0.196272	-0.067329
C155	C	1.012524	0.333000	0.077983
C156	C	1.054168	0.371977	0.058615
C157	C	1.087479	0.379506	0.099461
C158	C	1.079147	0.348058	0.159677
C159	C	1.037501	0.309079	0.179048
C160	C	1.004190	0.301549	0.138202
H161	H	1.060338	0.395259	0.014037
H162	H	1.118308	0.408362	0.085121
H163	H	1.103806	0.353632	0.189914
H164	H	1.031331	0.285797	0.223626
H165	H	0.973361	0.272694	0.152542
C166	C	0.885257	0.460251	0.077959
C167	C	0.918605	0.467753	0.118778
C168	C	0.885281	0.541926	0.159599
C169	C	0.818610	0.608597	0.159602
C170	C	0.785258	0.601098	0.118782
C171	C	0.818582	0.526925	0.077960
H172	H	0.967962	0.418397	0.118777
H173	H	0.909970	0.547477	0.189817
H174	H	0.793941	0.663504	0.189821
H175	H	0.735901	0.650454	0.118783
H176	H	0.793893	0.521374	0.047743
H177	H	-0.010856	0.538583	-0.095224
C178	C	1.012533	0.176982	-0.300842
C179	C	1.054173	0.154721	-0.261860
C180	C	1.087485	0.080567	-0.254340
C181	C	1.079158	0.028674	-0.285802
C182	C	1.037516	0.050934	-0.324786
C183	C	1.004204	0.125088	-0.332306
H184	H	1.060339	0.193136	-0.238567
H185	H	1.118311	0.064089	-0.225480
H186	H	1.103818	-0.026219	-0.280235
H187	H	1.031350	0.012519	-0.348079
H188	H	0.973378	0.141566	-0.361166
H189	H	0.499036	0.440927	0.067331
H190	H	0.373518	0.701202	0.327553
C191	C	1.012569	0.555809	-0.456801
C192	C	1.004248	0.595594	-0.508685
C193	C	1.037613	0.554748	-0.582863
C194	C	1.079298	0.474117	-0.605159
C195	C	1.087621	0.434328	-0.553274
C196	C	1.054256	0.475174	-0.479095
H197	H	0.973388	0.655285	-0.492182
H198	H	1.031451	0.584203	-0.621272
H199	H	1.103997	0.443881	-0.660070
H200	H	1.118481	0.374637	-0.569777
H201	H	1.060418	0.445719	-0.440687
C202	C	0.254911	0.711836	0.456784
C203	C	0.188247	0.711853	0.523471
C204	C	0.154920	0.752711	0.597629
C205	C	0.188256	0.793552	0.605100
C206	C	0.254924	0.793537	0.538412
C207	C	0.288251	0.752679	0.464254
H208	H	0.163566	0.681618	0.517942
H209	H	0.105568	0.752722	0.646996
H210	H	0.163586	0.823798	0.659997
H211	H	0.279605	0.823772	0.543941
H212	H	0.337603	0.752669	0.414886
H213	H	1.058879	0.208695	0.000035
C214	C	0.477828	0.711787	-0.543199
C215	C	0.457416	0.671980	-0.491341
C216	C	0.375761	0.712803	-0.417174
C217	C	0.314518	0.793432	-0.394864
C218	C	0.334928	0.833243	-0.446723
C219	C	0.416583	0.792421	-0.520890
H220	H	0.502753	0.612289	-0.507855
H221	H	0.360652	0.683331	-0.378785
H222	H	0.254072	0.823651	-0.339961
H223	H	0.289591	0.892934	-0.430209
H224	H	0.431692	0.821892	-0.559279
H225	H	0.768401	-0.063346	-0.067346
C226	C	0.254874	0.555895	0.300929
C227	C	0.188204	0.555916	0.367613
C228	C	0.154848	0.515090	0.360144
C229	C	0.188161	0.474243	0.285990
C230	C	0.254835	0.474221	0.219301
C231	C	0.288191	0.515047	0.226770
H232	H	0.163540	0.586154	0.422511
H233	H	0.105492	0.515106	0.409512
H234	H	0.163469	0.444021	0.280461
H235	H	0.279499	0.443983	0.164403
H236	H	0.337547	0.515030	0.177402
C237	C	0.477834	0.332895	0.077925
C238	C	0.416613	0.371833	0.058519
C239	C	0.334963	0.379314	0.099319
C240	C	0.314535	0.347856	0.159527
C241	C	0.375758	0.308916	0.178936
C242	C	0.457408	0.301435	0.138135
H243	H	0.431733	0.395122	0.013947
H244	H	0.289642	0.408140	0.084951
H245	H	0.254094	0.353394	0.189730
H246	H	0.360638	0.285627	0.223508
H247	H	0.502729	0.272609	0.152504
H248	H	0.263583	1.071371	0.302789
H249	H	1.003913	0.196289	-0.067314
C250	C	0.885272	0.304283	-0.077927
C251	C	0.918617	0.230102	-0.118740
C252	C	0.885283	0.222571	-0.159565
C253	C	0.818606	0.289223	-0.159576
C254	C	0.785257	0.363409	-0.118760
C255	C	0.818590	0.370939	-0.077936
H256	H	0.967979	0.180758	-0.118734
H257	H	0.909970	0.167653	-0.189779
H258	H	0.793930	0.283648	-0.189796
H259	H	0.735895	0.412753	-0.118767
H260	H	0.793903	0.425858	-0.047722
C261	C	0.885250	0.711752	-0.173599
C262	C	0.918576	0.752597	-0.166111
C263	C	0.885233	0.793454	-0.091945
C264	C	0.818563	0.793466	-0.025269
C265	C	0.785234	0.752620	-0.032755
C266	C	0.818577	0.711762	-0.106920
H267	H	0.967932	0.752589	-0.215471
H268	H	0.909906	0.823691	-0.086404
H269	H	0.793881	0.823712	0.029633
H270	H	0.735878	0.752628	0.016605
H271	H	0.793904	0.681525	-0.112462
H272	H	0.278289	0.729041	0.095216
C273	C	1.012526	0.711745	-0.300861
C274	C	0.954183	0.792371	-0.261888
C275	C	0.987509	0.833208	-0.254372
C276	C	1.079178	0.793419	-0.285829
C277	C	1.137526	0.712788	-0.324804
C278	C	1.104200	0.671951	-0.332320
H279	H	0.886319	0.821830	-0.238600
H280	H	0.944315	0.892897	-0.225520
H281	H	1.103847	0.823648	-0.280265
H282	H	1.205390	0.683329	-0.348093
H283	H	1.147394	0.612263	-0.361173
H284	H	0.099120	0.538572	-0.095231
H285	H	0.168318	0.729048	0.095223
H286	H	1.058863	0.633787	-0.425149
C287	C	0.254865	0.934819	0.456792
C288	C	0.263180	0.966307	0.508679
C289	C	0.229805	0.958857	0.582861
C290	C	0.188115	0.919920	0.605155
C291	C	0.179798	0.888430	0.553266
C292	C	0.213173	0.895879	0.479085
H293	H	0.294044	0.995132	0.492177
H294	H	0.235962	0.982169	0.621272
H295	H	0.163408	0.914406	0.660068
H296	H	0.148935	0.859604	0.569769
H297	H	0.207016	0.872567	0.440674
H298	H	0.468733	0.538520	-0.095237
H299	H	0.893945	0.566414	-0.327581
H300	H	-0.201289	0.729084	0.095241
C301	C	-0.097649	0.744078	0.110229
C302	C	-0.188717	0.801828	0.167971
C303	C	-0.213110	0.859577	0.225709
C304	C	-0.146434	0.859577	0.225707
C305	C	-0.055360	0.801824	0.167963
C306	C	-0.030967	0.744075	0.110224
H307	H	-0.238080	0.801831	0.167975
H308	H	-0.280529	0.902330	0.268455
H309	H	-0.164491	0.902326	0.268448
H310	H	-0.005997	0.801822	0.167959
H311	H	0.036453	0.701323	0.067479
H312	H	0.768399	0.306239	-0.067319
H313	H	0.373533	0.826637	-0.067373
H314	H	0.768392	0.566524	-0.807110
H315	H	0.499041	0.071344	0.067336
C316	C	0.789602	0.555818	-0.456804
C317	C	0.850860	0.575181	-0.479088
C318	C	0.932510	0.534346	-0.553259
C319	C	0.952901	0.474148	-0.605147
C320	C	0.891641	0.454782	-0.582863
C321	C	0.809992	0.495617	-0.508692
H322	H	0.835767	0.619745	-0.440677
H323	H	0.977858	0.548682	-0.569755
H324	H	1.013343	0.443920	-0.660053
H325	H	0.906735	0.410218	-0.621274
H326	H	0.764644	0.481281	-0.492197
H327	H	0.208575	0.633872	0.425190
C328	C	0.477829	0.711730	-0.300907
C329	C	0.477824	0.711740	-0.367578
C330	C	0.396166	0.752575	-0.360087
C331	C	0.314513	0.793400	-0.285924
C332	C	0.314515	0.793391	-0.219247
C333	C	0.396173	0.752556	-0.226739
H334	H	0.538271	0.681518	-0.422483
H335	H	0.396165	0.752582	-0.409446
H336	H	0.254065	0.823629	-0.280378
H337	H	0.254068	0.823614	-0.164343
H338	H	0.396174	0.752550	-0.177380
H339	H	0.499044	-0.038622	0.067329
C340	C	0.789604	0.555882	-0.699086
C341	C	0.810016	0.595668	-0.667596
C342	C	0.891672	0.554830	-0.675084
C343	C	0.952916	0.474205	-0.714063
C344	C	0.932506	0.434414	-0.745556
C345	C	0.850849	0.475252	-0.738067
H346	H	0.764678	0.655356	-0.638739
H347	H	0.906781	0.584286	-0.651771
H348	H	1.013363	0.443973	-0.719607
H349	H	0.977844	0.374726	-0.774413
H350	H	0.835740	0.445796	-0.761381
C351	C	0.254923	0.934618	-0.077996
C352	C	0.313266	0.895627	-0.158616
C353	C	0.279940	0.888098	-0.199448
C354	C	0.188271	0.919559	-0.159659
C355	C	0.129922	0.958553	-0.079034
C356	C	0.163248	0.966082	-0.038202
H357	H	0.381131	0.872335	-0.188075
H358	H	0.323134	0.859232	-0.259132
H359	H	0.163601	0.913986	-0.189885
H360	H	0.062058	0.981845	-0.049576
H361	H	0.120054	0.994948	0.021482
C362	C	0.254878	1.090597	0.077904
C363	C	0.188204	1.157252	0.077893
C364	C	0.154837	1.231436	0.118729
C365	C	0.188143	1.238967	0.159577
C366	C	0.254821	1.172310	0.159590
C367	C	0.288188	1.098125	0.118753
H368	H	0.163546	1.151679	0.047653
H369	H	0.105478	1.280780	0.118719
H370	H	0.163442	1.293883	0.189806
H371	H	0.279479	1.177883	0.189829
H372	H	0.337547	1.048782	0.118763
H373	H	0.373499	0.961385	0.067324
H374	H	0.373522	0.961388	0.192851
H375	H	0.373493	0.826755	0.327574
H376	H	0.768401	-0.173313	-0.067349
H377	H	0.499038	0.701109	-0.192886
H378	H	0.499036	0.701214	-0.672436
H379	H	0.768400	0.566397	-0.327570
H380	H	0.208588	1.058922	-0.000068
H381	H	0.373490	0.566482	0.192890
H382	H	0.893913	0.306229	-0.192853
H383	H	0.208582	1.059066	0.425132
H384	H	1.058892	0.208551	-0.425134
