data_functionalizedCrystal
_audit_creation_method	'MofGen! by Chris Wilmer'
_symmetry_space_group_name_H-M	'P1'
_symmetry_Int_Tables_number	1
_symmetry_cell_setting	triclinic
loop_
_symmetry_equiv_pos_as_xyz
  x,y,z
_cell_length_a	11.169416
_cell_length_b	17.077404
_cell_length_c	17.077396
_cell_angle_alpha	90.017244
_cell_angle_beta	89.976500
_cell_angle_gamma	89.989435
loop_
_atom_site_label
_atom_site_type_symbol
_atom_site_fract_x
_atom_site_fract_y
_atom_site_fract_z
Zn1	Zn	-0.477790	-1.200106	-0.443874
Zn2	Zn	-0.678505	-1.200047	-0.312622
Zn3	Zn	-0.477835	-1.068843	-0.312622
Zn4	Zn	-0.678431	-1.068834	-0.443845
O5	O	-0.578140	-1.134457	-0.378241
O6	O	-0.504427	-1.309945	-0.426475
O7	O	-0.651935	-1.182621	-0.202775
O8	O	-0.309879	-1.086283	-0.330046
O9	O	-0.651892	-1.309901	-0.330045
O10	O	-0.309846	-1.182721	-0.426476
O11	O	-0.504504	-1.086226	-0.202775
O12	O	-0.504432	-0.958995	-0.330017
O13	O	-0.651765	-1.086269	-0.553696
O14	O	-0.651809	-0.958988	-0.426426
O15	O	-0.504356	-1.182713	-0.553718
O16	O	-0.846445	-1.182613	-0.330016
O17	O	-0.846390	-1.086211	-0.426426
C18	C	-0.578118	-0.930509	-0.378219
C19	C	-0.578138	-0.843260	-0.378229
C20	C	-0.889965	-1.134426	-0.378235
C21	C	-1.023365	-1.134485	-0.378259
C22	C	-0.578047	-1.134497	-0.582985
C23	C	-0.578008	-1.134513	-0.670235
C24	C	-0.265098	-1.134510	-0.378264
C25	C	-0.131698	-1.134532	-0.378274
C26	C	-0.578163	-1.339201	-0.378263
C27	C	-0.578172	-1.426451	-0.378273
C28	C	-0.654993	-0.802287	-0.428348
C29	C	-0.654995	-0.720306	-0.428361
C30	C	-0.578148	-0.679300	-0.378249
C31	C	-0.501285	-0.720279	-0.328127
C32	C	-0.501277	-0.802258	-0.328119
C33	C	-0.501309	-0.549409	-0.328146
C34	C	-0.501318	-0.467424	-0.328153
C35	C	-0.655027	-0.467457	-0.428388
C36	C	-0.655019	-0.549436	-0.428380
C37	C	-0.578157	-0.590409	-0.378257
C38	C	-0.501231	-1.084336	-0.711225
C39	C	-0.501204	-1.084349	-0.793206
C40	C	-0.577948	-1.134544	-0.834195
C41	C	-0.654733	-1.184723	-0.793199
C42	C	-0.654765	-1.184706	-0.711220
C43	C	-0.654658	-1.184757	-0.964069
C44	C	-0.654624	-1.184776	-1.046054
C45	C	-0.501096	-1.084400	-1.046055
C46	C	-0.501129	-1.084383	-0.964076
C47	C	-0.577912	-1.134564	-0.923086
C48	C	-0.578146	-1.134463	-0.174293
C49	C	-0.577848	-1.134598	-0.087044
H50	H	-0.717575	-0.835668	-0.469153
C51	C	-0.739145	-1.239943	-0.838281
H52	H	-0.784880	-1.269821	-0.802126
H53	H	-0.693219	-1.274159	-0.870266
H54	H	-0.791428	-1.209913	-0.870256
C55	C	-0.739046	-1.239982	-1.091145
H56	H	-0.728017	-1.232810	-1.145838
H57	H	-0.819688	-1.228473	-1.077704
H58	H	-0.721496	-1.292729	-1.077717
H59	H	-0.717173	-1.225627	-0.930698
H60	H	-0.717276	-1.225572	-0.677847
H61	H	-0.717579	-0.686950	-0.469173
H62	H	-0.717601	-0.582821	-0.469181
H63	H	-0.717607	-0.434093	-0.469202
C64	C	-0.416776	-0.422318	-0.273040
H65	H	-0.370985	-0.458460	-0.243196
H66	H	-0.462616	-0.390320	-0.238788
H67	H	-0.364550	-0.390356	-0.303141
H68	H	-0.438709	-0.582766	-0.287338
H69	H	-0.438575	-1.043542	-1.079433
H70	H	-0.438688	-0.835617	-0.287311
C71	C	-0.416750	-0.675178	-0.273006
H72	H	-0.370969	-0.711323	-0.243161
H73	H	-0.462595	-0.643180	-0.238756
H74	H	-0.364514	-0.643215	-0.303100
H75	H	-0.438730	-1.043466	-0.677857
H76	H	-0.438689	-1.043486	-0.826576
H77	H	-0.438631	-1.043513	-0.930704
