data_functionalizedCrystal
_audit_creation_method	'MofGen! by Chris Wilmer'
_symmetry_space_group_name_H-M	'P1'
_symmetry_Int_Tables_number	1
_symmetry_cell_setting	triclinic
loop_
_symmetry_equiv_pos_as_xyz
  x,y,z
_cell_length_a	12.759401
_cell_length_b	12.759394
_cell_length_c	12.759393
_cell_angle_alpha	89.968755
_cell_angle_beta	89.981287
_cell_angle_gamma	90.016362
loop_
_atom_site_label
_atom_site_type_symbol
_atom_site_fract_x
_atom_site_fract_y
_atom_site_fract_z
Zn1	Zn	1.606242	-0.418173	-0.594015
Zn2	Zn	1.606140	-0.593888	-0.418333
Zn3	Zn	1.430548	-0.418229	-0.418350
Zn4	Zn	1.430532	-0.593815	-0.593970
O5	O	1.518366	-0.506026	-0.506167
O6	O	1.753250	-0.441489	-0.570722
O7	O	1.582811	-0.570641	-0.271314
O8	O	1.453903	-0.271200	-0.441678
O9	O	1.753174	-0.570587	-0.441649
O10	O	1.582985	-0.271159	-0.570739
O11	O	1.453804	-0.441584	-0.271327
O12	O	1.283525	-0.441513	-0.441635
O13	O	1.453877	-0.570461	-0.740997
O14	O	1.283514	-0.570516	-0.570662
O15	O	1.582970	-0.441418	-0.741030
O16	O	1.582796	-0.740900	-0.441605
O17	O	1.453778	-0.740846	-0.570645
C18	C	1.245398	-0.506013	-0.506146
C19	C	1.128622	-0.506033	-0.506162
C20	C	1.518303	-0.778994	-0.506141
C21	C	1.518372	-0.895770	-0.506166
C22	C	1.073781	-0.573307	-0.573241
C23	C	0.964057	-0.573311	-0.573262
C24	C	0.964023	-0.438764	-0.439116
C25	C	1.073746	-0.438756	-0.439101
C26	C	0.814156	-0.611009	-0.697122
C27	C	0.759312	-0.678300	-0.764191
C28	C	0.794909	-0.780831	-0.780138
C29	C	0.885348	-0.816092	-0.728999
C30	C	0.940187	-0.748807	-0.661922
C31	C	0.904591	-0.646262	-0.645996
C32	C	1.223648	-0.401068	-0.315240
C33	C	1.278489	-0.333788	-0.248156
C34	C	1.242894	-0.231255	-0.232199
C35	C	1.152451	-0.195998	-0.283319
C36	C	1.097611	-0.263278	-0.350402
C37	C	1.133213	-0.365809	-0.366361
C38	C	1.652819	-0.895773	-0.371897
C39	C	1.720070	-0.950635	-0.304775
C40	C	1.720131	-1.060357	-0.304804
C41	C	1.652937	-1.115219	-0.371964
C42	C	1.585686	-1.060357	-0.439086
C43	C	1.585630	-0.950633	-0.439048
C44	C	1.451246	-1.060354	-0.573358
C45	C	1.451177	-0.950632	-0.573326
C46	C	1.384051	-1.115216	-0.640518
C47	C	1.316793	-1.060353	-0.707636
C48	C	1.316734	-0.950625	-0.707604
C49	C	1.383926	-0.895770	-0.640448
C50	C	1.792399	-0.506040	-0.506188
C51	C	1.909175	-0.506046	-0.506198
C52	C	1.518434	-0.505925	-0.780200
C53	C	1.518463	-0.505882	-0.896977
C54	C	1.518458	-0.231993	-0.506215
C55	C	1.518497	-0.115216	-0.506236
C56	C	1.451266	-0.573044	-0.951824
C57	C	1.451304	-0.573005	-1.061548
C58	C	1.585737	-0.438633	-1.061569
C59	C	1.585704	-0.438679	-0.951847
C60	C	1.413767	-0.696846	-1.211480
C61	C	1.346554	-0.763998	-1.266331
C62	C	1.244023	-0.780136	-1.230715
C63	C	1.208684	-0.729107	-1.140251
C64	C	1.275892	-0.661946	-1.085406
C65	C	1.378437	-0.645828	-1.121020
C66	C	1.623230	-0.314836	-0.801912
C67	C	1.690432	-0.247670	-0.747066
C68	C	1.792965	-0.231521	-0.782680
C69	C	1.828300	-0.282532	-0.873147
C70	C	1.761097	-0.349698	-0.927994
C71	C	1.658566	-0.365849	-0.892373
C72	C	1.518358	-0.506051	-0.233200
C73	C	1.518533	-0.505798	-0.116423
H74	H	1.118458	-0.628086	-0.627849
O75	O	1.512633	-0.332254	-0.763505
H76	H	1.499347	-0.285483	-0.691395
O77	O	1.865449	-0.159070	-0.723528
H78	H	1.935236	-0.203536	-0.696729
H79	H	1.013820	-0.777517	-0.620286
O80	O	1.524343	-0.679430	-1.249935
H81	H	1.566810	-0.755327	-1.251166
H82	H	1.653002	-1.204560	-0.371990
O83	O	1.792546	-0.891451	-0.232356
H84	H	1.774593	-0.912589	-0.149886
O85	O	0.661777	-0.640272	-0.819358
H86	H	0.646247	-0.557660	-0.797022
O87	O	1.792689	-1.119532	-0.232430
H88	H	1.781451	-1.205044	-0.243751
H89	H	0.914318	-0.899588	-0.741980
O90	O	1.384103	-1.233558	-0.640547
H91	H	1.442143	-1.262493	-0.582581
H92	H	1.911788	-0.269377	-0.902150
O93	O	1.244187	-0.891452	-0.779990
H94	H	1.197470	-0.948038	-0.826681
O95	O	1.383843	-0.777427	-0.640420
H96	H	1.463055	-0.748403	-0.661715
O97	O	1.262044	-0.511662	-0.332453
H98	H	1.200486	-0.567883	-0.307521
H99	H	1.262094	-1.105031	-0.762317
O100	O	1.652746	-0.777430	-0.371865
H101	H	1.710770	-0.748499	-0.313896
O102	O	0.735766	-0.853410	-0.852481
H103	H	0.666905	-0.811666	-0.885363
O104	O	1.376043	-0.371810	-0.193020
H105	H	1.356167	-0.440046	-0.142807
H106	H	1.247118	-0.620396	-1.011754
O107	O	0.775744	-0.500428	-0.679892
H108	H	0.703628	-0.487231	-0.726694
O109	O	0.904838	-0.366237	-0.366753
H110	H	0.819327	-0.377561	-0.378013
H111	H	1.396508	-0.627759	-0.907152
O112	O	1.098112	-0.746555	-1.101801
H113	H	1.057326	-0.801854	-1.155117
H114	H	1.189298	-0.834813	-1.275382
H115	H	1.375337	-0.805546	-1.339987
H116	H	1.640480	-0.383917	-1.106258
H117	H	1.287550	-0.176480	-0.177565
O118	O	1.799204	-0.404729	-1.025568
H119	H	1.881795	-0.382224	-1.041119
O120	O	1.000066	-0.225253	-0.405553
H121	H	0.984528	-0.142648	-0.383197
H122	H	1.661650	-0.206126	-0.673408
H123	H	1.123457	-0.112514	-0.270310
