data_functionalizedCrystal
_audit_creation_method	'MofGen! by Chris Wilmer'
_symmetry_space_group_name_H-M	'P1'
_symmetry_Int_Tables_number	1
_symmetry_cell_setting	triclinic
loop_
_symmetry_equiv_pos_as_xyz
  x,y,z
_cell_length_a	15.995350
_cell_length_b	17.038272
_cell_length_c	15.072220
_cell_angle_alpha	89.999202
_cell_angle_beta	89.991149
_cell_angle_gamma	87.301966
loop_
_atom_site_label
_atom_site_type_symbol
_atom_site_fract_x
_atom_site_fract_y
_atom_site_fract_z
O1	O	1.118174	0.100774	-0.073708
O2	O	0.875285	0.113219	-0.073726
O3	O	0.995286	-0.006819	-0.073710
O4	O	0.998173	0.220812	-0.073724
O5	O	0.995255	-0.006813	0.073855
O6	O	0.875254	0.113226	0.073839
O7	O	1.118143	0.100781	0.073857
Zn8	Zn	0.996694	0.107004	0.097277
Zn9	Zn	0.996735	0.106995	-0.097146
O10	O	0.998142	0.220819	0.073841
C11	C	0.844038	0.112708	0.000054
C12	C	0.750978	0.111165	0.000047
C13	C	0.412836	0.105626	0.000066
C14	C	0.454180	0.020137	0.000400
C15	C	0.550981	0.021680	0.000062
C16	C	0.580592	0.108374	0.000057
C17	C	0.542527	0.150536	-0.084209
C18	C	0.445738	0.148388	-0.084273
C19	C	0.445489	0.150162	0.083536
C20	C	0.542433	0.150142	0.084644
C21	C	0.675401	0.109931	0.000049
C22	C	0.318027	0.104071	0.000068
C23	C	0.992645	-0.035945	0.000072
C24	C	0.984810	-0.122740	0.000071
C25	C	1.056739	-0.172836	0.000078
C26	C	1.049373	-0.254389	0.000069
C27	C	0.970077	-0.285843	0.000060
C28	C	0.898143	-0.235740	0.000051
C29	C	0.905510	-0.154189	0.000053
C30	C	0.944051	-0.531607	0.000046
C31	C	0.936689	-0.613164	0.000046
C32	C	1.087920	-0.631807	0.000062
C33	C	1.095280	-0.550254	0.000070
C34	C	1.023346	-0.500158	0.000056
C35	C	0.962546	-0.369202	0.000053
C36	C	1.030878	-0.416801	0.000056
C37	C	1.149390	0.101292	0.000075
C38	C	1.242450	0.102834	0.000076
C39	C	1.000784	0.249944	0.000057
C40	C	1.008618	0.336739	0.000052
N41	N	0.996671	0.107010	0.229966
N42	N	0.996763	0.106984	-0.229835
C43	C	0.996733	0.106992	0.589168
C44	C	0.932276	0.171007	0.551552
C45	C	0.932451	0.171241	0.448726
C46	C	0.996702	0.107001	0.410963
C47	C	1.085336	0.124819	0.448260
C48	C	1.084981	0.125274	0.551118
C49	C	0.973321	0.024970	0.551271
C50	C	0.971355	0.025517	0.448408
C51	C	0.996689	0.107004	0.310250
C52	C	0.996751	0.106991	0.689881
H53	H	0.568828	0.121246	-0.146918
H54	H	0.947652	0.231532	0.577388
N55	N	0.851160	-0.647092	0.000035
H56	H	0.806707	-0.602983	0.000024
H57	H	0.844830	-0.680524	-0.054670
N58	N	0.408917	0.231515	-0.089351
H59	H	0.373022	0.242998	-0.035334
H60	H	0.455615	0.269353	-0.091570
H61	H	1.134752	0.080487	0.575999
H62	H	0.866755	0.160625	0.423511
H63	H	0.846938	-0.113400	0.000048
H64	H	1.020258	-0.022668	0.575596
N65	N	1.180812	-0.516343	0.000078
H66	H	1.212596	-0.534614	-0.054624
H67	H	1.174504	-0.457084	0.000113
H68	H	1.014806	-0.024351	0.422706
H69	H	1.104725	0.185092	0.575097
N70	N	0.426401	-0.025138	0.080436
H71	H	0.476839	-0.041865	0.117347
H72	H	0.386727	0.009362	0.117197
N73	N	0.844990	0.157183	0.584345
H74	H	0.823060	0.204504	0.619052
H75	H	0.807114	0.148470	0.532006
N76	N	0.425017	-0.024939	-0.079179
H77	H	0.385141	0.009777	-0.115447
H78	H	0.474906	-0.041999	-0.116752
N79	N	0.866468	-0.477582	0.000036
H80	H	0.832142	-0.487705	-0.054668
H81	H	0.832184	-0.487727	0.054773
H82	H	0.576474	-0.011692	-0.060445
N83	N	1.150713	0.064704	0.415868
H84	H	1.123439	0.025248	0.376609
H85	H	1.194805	0.091943	0.380979
N86	N	1.111923	0.203149	0.414126
H87	H	1.066690	0.227199	0.374513
H88	H	1.121354	0.239332	0.465876
N89	N	0.567252	0.234900	-0.088380
H90	H	0.603454	0.246628	-0.035559
H91	H	0.599529	0.243562	-0.144859
N92	N	0.889139	0.002282	0.585664
H93	H	0.865324	0.044948	0.626165
H94	H	0.849864	-0.004642	0.534087
N95	N	1.142267	-0.138917	0.000090
H96	H	1.136022	-0.079652	0.000095
H97	H	1.173981	-0.157248	0.054798
H98	H	1.146484	-0.672604	0.000071
N99	N	0.952835	0.251922	0.416108
H100	H	0.961770	0.287466	0.468547
H101	H	1.005403	0.247913	0.378937
H102	H	0.906125	0.011995	0.424032
N103	N	0.418594	0.107653	-0.167703
H104	H	0.469491	0.091257	-0.204092
H105	H	0.387223	0.059667	-0.151294
H106	H	1.095440	-0.391187	0.000044
H107	H	0.577036	-0.011462	0.060467
H108	H	0.422949	0.122217	0.147408
H109	H	1.107945	-0.295174	0.000076
H110	H	0.567544	0.119364	0.146983
H111	H	0.562300	0.213362	0.089730
H112	H	0.418217	0.213193	0.084103
H113	H	0.833579	-0.261356	0.000038
H114	H	0.897983	-0.394821	0.000048
