data_functionalizedCrystal
_audit_creation_method	'MofGen! by Chris Wilmer'
_symmetry_space_group_name_H-M	'P1'
_symmetry_Int_Tables_number	1
_symmetry_cell_setting	triclinic
loop_
_symmetry_equiv_pos_as_xyz
  x,y,z
_cell_length_a	12.759401
_cell_length_b	16.625546
_cell_length_c	12.759393
_cell_angle_alpha	90.036194
_cell_angle_beta	90.018567
_cell_angle_gamma	90.021512
loop_
_atom_site_label
_atom_site_type_symbol
_atom_site_fract_x
_atom_site_fract_y
_atom_site_fract_z
Zn1	Zn	1.606199	-0.320975	0.593950
Zn2	Zn	2.106199	0.179025	1.093950
Zn3	Zn	1.606069	-0.455831	0.418255
Zn4	Zn	2.106069	0.044169	0.918255
Zn5	Zn	1.430501	-0.321014	0.418289
Zn6	Zn	1.930501	0.178986	0.918289
Zn7	Zn	1.430465	-0.455767	0.593897
Zn8	Zn	1.930465	0.044233	1.093897
O9	O	1.518308	-0.388397	0.506098
O10	O	2.018308	0.111603	1.006098
O11	O	1.753202	-0.338874	0.570651
O12	O	2.253202	0.161126	1.070651
O13	O	1.582740	-0.437991	0.271239
O14	O	2.082740	0.062009	0.771239
O15	O	1.453876	-0.208177	0.441627
O16	O	1.953876	0.291823	0.941627
O17	O	1.753107	-0.437953	0.441570
O18	O	2.253107	0.062047	0.941570
O19	O	1.582961	-0.208147	0.570684
O20	O	2.082961	0.291853	1.070684
O21	O	1.453751	-0.338942	0.271263
O22	O	1.953751	0.161058	0.771263
O23	O	1.283475	-0.338879	0.441575
O24	O	1.783475	0.161121	0.941575
O25	O	1.453816	-0.437843	0.740925
O26	O	1.953816	0.062157	1.240925
O27	O	1.283449	-0.437881	0.570594
O28	O	1.783449	0.062119	1.070594
O29	O	1.582927	-0.338811	0.740964
O30	O	2.082927	0.161189	1.240964
O31	O	1.582706	-0.568655	0.441519
O32	O	2.082706	-0.068655	0.941519
O33	O	1.453691	-0.568608	0.570561
O34	O	1.953691	-0.068608	1.070561
C35	C	1.245341	-0.388378	0.506083
C36	C	1.745341	0.111622	1.006083
C37	C	1.128564	-0.388389	0.506102
C38	C	1.628564	0.111611	1.006102
C39	C	1.073745	-0.336896	0.573419
C40	C	1.573745	0.163104	1.073419
C41	C	0.964021	-0.336912	0.573425
C42	C	1.464021	0.163088	1.073425
C43	C	0.963945	-0.439920	0.438795
C44	C	1.463945	0.060080	0.938795
C45	C	1.073668	-0.439900	0.438784
C46	C	1.573668	0.060100	0.938784
C47	C	1.128642	-0.285386	0.640736
C48	C	1.628642	0.214614	1.140736
C49	C	1.073822	-0.233889	0.708060
C50	C	1.573822	0.266111	1.208060
C51	C	0.964098	-0.233905	0.708066
C52	C	1.464098	0.266095	1.208066
C53	C	0.909194	-0.285416	0.640750
C54	C	1.409194	0.214584	1.140750
C55	C	1.518209	-0.597888	0.506054
C56	C	2.018209	-0.097888	1.006054
C57	C	1.518263	-0.687509	0.506070
C58	C	2.018263	-0.187509	1.006070
C59	C	1.518446	-1.015684	0.506179
C60	C	2.018446	-0.515684	1.006179
C61	C	1.518392	-0.924376	0.506152
C62	C	2.018392	-0.424376	1.006152
C63	C	1.518353	-0.851599	0.506124
C64	C	2.018353	-0.351599	1.006124
C65	C	1.518301	-0.760285	0.506098
C66	C	2.018301	-0.260285	1.006098
C67	C	1.792342	-0.388416	0.506113
C68	C	2.292342	0.111584	1.006113
C69	C	1.909118	-0.388425	0.506119
C70	C	2.409118	0.111575	1.006119
C71	C	1.518382	-0.388315	0.780131
C72	C	2.018382	0.111685	1.280131
C73	C	1.518413	-0.388281	0.896908
C74	C	2.018413	0.111719	1.396908
C75	C	1.518437	-0.178088	0.506165
C76	C	2.018437	0.321912	1.006165
C77	C	1.518492	-0.088467	0.506193
C78	C	2.018492	0.411533	1.006193
C79	C	1.518296	-0.388420	0.233130
C80	C	2.018296	0.111580	0.733130
C81	C	1.518468	-0.388227	0.116354
C82	C	2.018468	0.111773	0.616354
C83	C	1.585650	-0.336710	0.951792
C84	C	2.085650	0.163290	1.451792
C85	C	1.585675	-0.336681	1.061516
C86	C	2.085675	0.163319	1.561516
C87	C	1.451223	-0.439800	1.061462
C88	C	1.951223	0.060200	1.561462
C89	C	1.451194	-0.439824	0.951740
C90	C	1.951194	0.060176	1.451740
C91	C	1.652870	-0.285167	0.896959
C92	C	2.152870	0.214833	1.396959
C93	C	1.720113	-0.233593	0.951843
C94	C	2.220113	0.266407	1.451843
C95	C	1.720138	-0.233564	1.061567
C96	C	2.220138	0.266436	1.561567
C97	C	1.652920	-0.285108	1.116408
C98	C	2.152920	0.214892	1.616408
H99	H	1.118303	-0.481830	0.383969
H100	H	1.618303	0.018170	0.883969
H101	H	1.217985	-0.285367	0.640738
H102	H	1.717985	0.214633	1.140738
O103	O	1.792649	-0.177938	1.120777
O104	O	2.292649	0.322062	1.620777
H105	H	1.875094	-0.191785	1.099731
H106	H	2.375094	0.308215	1.599731
H107	H	1.396427	-0.481805	0.907053
H108	H	1.896427	0.018195	1.407053
O109	O	1.792606	-0.177997	0.892701
O110	O	2.292606	0.322003	1.392701
H111	H	1.875057	-0.191825	0.913773
H112	H	2.375057	0.308175	1.413773
H113	H	0.919234	-0.481860	0.383991
H114	H	1.419234	0.018140	0.883991
H115	H	1.396497	-0.481765	1.106122
H116	H	1.896497	0.018235	1.606122
O117	O	0.790847	-0.285435	0.640750
O118	O	1.290847	0.214565	1.140750
H119	H	0.761948	-0.240976	0.698872
H120	H	1.261948	0.259024	1.198872
O121	O	1.652838	-0.285205	0.778615
O122	O	2.152838	0.214795	1.278615
H123	H	1.631635	-0.224398	0.749697
H124	H	2.131635	0.275602	1.249697
H125	H	1.118533	-0.191945	0.762860
H126	H	1.618533	0.308055	1.262860
H127	H	0.919467	-0.191968	0.762876
H128	H	1.419467	0.308032	1.262876
H129	H	1.652934	-0.285071	1.205752
H130	H	2.152934	0.214929	1.705752
