data_functionalizedCrystal
_audit_creation_method	'MofGen! by Chris Wilmer'
_symmetry_space_group_name_H-M	'P1'
_symmetry_Int_Tables_number	1
_symmetry_cell_setting	triclinic
loop_
_symmetry_equiv_pos_as_xyz
  x,y,z
_cell_length_a	15.712078
_cell_length_b	10.489741
_cell_length_c	14.750779
_cell_angle_alpha	77.226586
_cell_angle_beta	106.492891
_cell_angle_gamma	102.060161
loop_
_atom_site_label
_atom_site_type_symbol
_atom_site_fract_x
_atom_site_fract_y
_atom_site_fract_z
O1	O	1.132568	0.720510	-0.080050
O2	O	0.880318	0.623119	-0.080002
O3	O	1.012184	0.488816	-0.080022
O4	O	1.000702	0.854814	-0.080031
O5	O	1.049461	0.450856	0.079623
O6	O	0.917595	0.585159	0.079643
O7	O	1.169845	0.682551	0.079594
Zn8	Zn	1.049639	0.627828	0.104966
Zn9	Zn	1.000524	0.677842	-0.105373
O10	O	1.037979	0.816854	0.079614
C11	C	0.866656	0.588229	-0.000174
C12	C	0.770410	0.540807	-0.000155
C13	C	0.405801	0.943413	-0.000231
C14	C	0.315357	0.898833	-0.000254
C15	C	0.334583	0.675425	-0.000251
C16	C	0.425030	0.719988	-0.000232
C17	C	0.460632	0.853983	-0.000222
C18	C	0.479861	0.630557	-0.000223
C19	C	0.570301	0.675116	-0.000200
C20	C	0.605910	0.809105	-0.000186
C21	C	0.551072	0.898541	-0.000199
C22	C	0.444258	0.496561	-0.000227
C23	C	0.499089	0.407130	-0.000217
C24	C	0.589529	0.451690	-0.000201
C25	C	0.625139	0.585679	-0.000188
C26	C	0.644368	0.362253	-0.000189
C27	C	0.734808	0.406812	-0.000166
C28	C	0.715579	0.630238	-0.000165
C29	C	1.029955	0.421912	-0.000200
C30	C	1.027361	0.279108	-0.000201
C31	C	0.943458	0.172957	-0.000192
C32	C	1.001472	0.080075	0.078514
C33	C	0.964739	0.117535	-0.078884
C34	C	1.085425	0.188091	0.078570
C35	C	1.048664	0.225572	-0.078898
C36	C	1.106744	0.132741	-0.000174
C37	C	1.183507	0.717441	-0.000236
C38	C	1.279751	0.764865	-0.000261
C39	C	1.020207	0.883758	-0.000210
C40	C	1.022800	1.026564	-0.000215
N41	N	1.083164	0.593697	0.248516
N42	N	0.967006	0.711966	-0.248924
C43	C	0.873374	0.807232	0.600366
C44	C	0.896873	0.783326	0.700861
C45	C	1.013665	0.664476	0.700807
C46	C	0.990173	0.688366	0.600309
C47	C	0.920027	0.759746	0.550096
C48	C	1.036827	0.640880	0.550040
C49	C	1.013339	0.664774	0.449551
C50	C	0.943198	0.736154	0.399331
C51	C	0.896540	0.783640	0.449607
C52	C	1.106976	0.569509	0.600254
C53	C	1.153630	0.522023	0.549985
C54	C	1.130139	0.545909	0.449494
C55	C	1.059998	0.617289	0.399275
C56	C	1.176797	0.498423	0.399218
C57	C	1.153310	0.522318	0.298729
C58	C	1.036510	0.641183	0.298786
H59	H	0.434790	1.052525	-0.000221
F60	F	0.847211	0.833879	0.754355
F61	F	0.588964	1.041158	-0.000199
H62	H	0.270716	0.971668	-0.000257
F63	F	0.296684	0.532821	-0.000259
F64	F	0.348004	0.449138	-0.000243
H65	H	0.470092	0.298028	-0.000215
F66	F	1.251457	0.422473	0.452669
H67	H	0.981509	0.017156	0.145067
F68	F	0.702174	0.856520	-0.000127
H69	H	0.615369	0.253151	-0.000185
H70	H	0.779452	0.333989	-0.000161
H71	H	0.874493	0.191335	-0.000099
F72	F	0.918205	0.761591	0.292381
F73	F	1.074717	0.307841	-0.165893
F74	F	1.197003	0.109010	-0.000137
H75	H	1.191301	0.483651	0.257799
F76	F	0.821874	0.859596	0.396165
H77	H	0.913688	0.086307	-0.145429
H78	H	0.744568	0.739349	-0.000154
H79	H	1.136451	0.219152	0.145183
F80	F	0.961844	0.717139	0.245343
H81	H	0.816248	0.865344	0.559480
F82	F	1.088320	0.588515	0.754255
H83	H	1.126099	0.550063	0.682079
H84	H	1.210745	0.463909	0.590880
