data_functionalizedCrystal
_audit_creation_method	'MofGen! by Chris Wilmer'
_symmetry_space_group_name_H-M	'P1'
_symmetry_Int_Tables_number	1
_symmetry_cell_setting	triclinic
loop_
_symmetry_equiv_pos_as_xyz
  x,y,z
_cell_length_a	13.897449
_cell_length_b	19.805405
_cell_length_c	19.805399
_cell_angle_alpha	90.029301
_cell_angle_beta	89.982528
_cell_angle_gamma	89.972310
loop_
_atom_site_label
_atom_site_type_symbol
_atom_site_fract_x
_atom_site_fract_y
_atom_site_fract_z
Zn1	Zn	1.474613	0.269456	-0.382674
Zn2	Zn	1.474492	0.382644	-0.269482
Zn3	Zn	1.313311	0.269477	-0.269502
Zn4	Zn	1.313259	0.382611	-0.382633
O5	O	1.393919	0.326047	-0.326073
O6	O	1.609579	0.284476	-0.367667
O7	O	1.453082	0.367655	-0.174768
O8	O	1.334781	0.174758	-0.284540
O9	O	1.609489	0.367635	-0.284506
O10	O	1.453289	0.174742	-0.367687
O11	O	1.334663	0.284512	-0.174783
O12	O	1.178323	0.284479	-0.284501
O13	O	1.334692	0.367578	-0.477355
O14	O	1.178285	0.367598	-0.367617
O15	O	1.453238	0.284443	-0.477385
O16	O	1.453031	0.477356	-0.284466
O17	O	1.334575	0.477332	-0.367598
C18	C	1.393810	0.501903	-0.326040
C19	C	1.393852	0.577135	-0.326049
C20	C	1.143305	0.326038	-0.326057
C21	C	1.036091	0.326050	-0.326067
C22	C	1.393973	0.326004	-0.502615
C23	C	1.393996	0.325986	-0.577848
C24	C	0.839796	0.326053	-0.326084
C25	C	0.949028	0.326049	-0.326073
C26	C	1.645512	0.326056	-0.326089
C27	C	1.752726	0.326061	-0.326095
C28	C	1.394054	0.149504	-0.326120
C29	C	1.394112	0.074272	-0.326141
C30	C	1.455592	0.612469	-0.282807
C31	C	1.455633	0.683158	-0.282822
C32	C	1.393929	0.718510	-0.326076
C33	C	1.332186	0.683171	-0.369322
C34	C	1.332150	0.612484	-0.369310
C35	C	1.332328	0.968244	-0.369372
C36	C	1.332366	1.038936	-0.369379
C37	C	1.455811	1.038918	-0.282885
C38	C	1.455776	0.968231	-0.282872
C39	C	1.394037	0.932898	-0.326121
C40	C	1.393994	0.856249	-0.326105
C41	C	1.393965	0.795158	-0.326089
C42	C	1.455724	0.282696	-0.613208
C43	C	1.455734	0.282676	-0.683897
C44	C	1.394020	0.325951	-0.719223
C45	C	1.332285	0.369243	-0.683857
C46	C	1.332271	0.369259	-0.613170
C47	C	1.332339	0.369180	-0.968931
C48	C	1.332360	0.369162	-1.039623
C49	C	1.455803	0.282597	-1.039657
C50	C	1.455789	0.282613	-0.968970
C51	C	1.394051	0.325902	-0.933611
C52	C	1.394039	0.325922	-0.856962
C53	C	1.394035	0.325935	-0.795870
C54	C	1.393921	0.326041	-0.150217
C55	C	1.394084	0.325868	-0.074985
H56	H	1.505835	0.583690	-0.247583
H57	H	1.282033	0.404475	-0.712626
O58	O	1.515802	0.717356	-0.240852
C59	C	1.679987	0.738773	-0.208184
C60	C	1.611910	0.700024	-0.255746
H61	H	1.757706	0.724785	-0.220218
H62	H	1.663188	0.724887	-0.153585
H63	H	1.669461	0.795378	-0.215568
H64	H	1.622398	0.643410	-0.248423
H65	H	1.628726	0.713966	-0.310328
H66	H	1.281996	0.404503	-0.584380
O67	O	1.515808	0.933995	-0.240835
C68	C	1.638222	0.941439	-0.155018
C69	C	1.570297	0.980294	-0.202600
H70	H	1.682280	0.978855	-0.124082
H71	H	1.688679	0.908314	-0.186089
H72	H	1.593936	0.908376	-0.119622
H73	H	1.614506	1.013394	-0.238005
H74	H	1.519838	1.013377	-0.171487
H75	H	1.506086	1.067695	-0.247672
H76	H	1.282119	1.067719	-0.404606
O77	O	1.272252	0.934032	-0.411393
C78	C	1.149828	0.941516	-0.497200
C79	C	1.217808	0.980349	-0.449636
H80	H	1.105807	0.978946	-0.528142
H81	H	1.099340	0.908495	-0.466113
H82	H	1.194069	0.908351	-0.532590
H83	H	1.173646	1.013551	-0.414236
H84	H	1.268299	1.013328	-0.480765
H85	H	1.281948	0.711961	-0.404542
H86	H	1.506046	0.247377	-0.940211
H87	H	1.281876	0.583715	-0.404522
H88	H	1.505982	0.247459	-0.584451
H89	H	1.506002	0.247427	-0.712685
O90	O	1.515678	0.240560	-1.074112
C91	C	1.570453	0.202190	-1.183023
C92	C	1.502581	0.249817	-1.144091
H93	H	1.559902	0.209668	-1.239608
H94	H	1.553553	0.147601	-1.169185
H95	H	1.648209	0.214077	-1.169090
H96	H	1.424802	0.237991	-1.158003
H97	H	1.519563	0.304392	-1.157933
O98	O	1.272502	0.411267	-0.934521
C99	C	1.259410	0.502706	-0.854732
C100	C	1.327291	0.455070	-0.893645
H101	H	1.303680	0.538142	-0.821685
H102	H	1.208997	0.471676	-0.821599
H103	H	1.215294	0.533596	-0.892146
H104	H	1.371470	0.424170	-0.856280
H105	H	1.377641	0.486138	-0.926788
O106	O	1.272312	0.411220	-1.073836
C107	C	1.149897	0.497107	-1.066346
C108	C	1.217830	0.449503	-1.027516
H109	H	1.105846	0.528082	-1.028914
H110	H	1.099435	0.466050	-1.099427
H111	H	1.194177	0.532466	-1.099452
H112	H	1.173628	0.414135	-0.994374
H113	H	1.268295	0.480602	-0.994478
