data_functionalizedCrystal
_audit_creation_method	'MofGen! by Chris Wilmer'
_symmetry_space_group_name_H-M	'P1'
_symmetry_Int_Tables_number	1
_symmetry_cell_setting	triclinic
loop_
_symmetry_equiv_pos_as_xyz
  x,y,z
_cell_length_a	17.638785
_cell_length_b	12.759400
_cell_length_c	12.759393
_cell_angle_alpha	90.031564
_cell_angle_beta	101.216238
_cell_angle_gamma	78.780959
loop_
_atom_site_label
_atom_site_type_symbol
_atom_site_fract_x
_atom_site_fract_y
_atom_site_fract_z
Zn1	Zn	-1.208530	0.743487	-0.918254
Zn2	Zn	-1.208450	0.919185	-0.742552
Zn3	Zn	-1.076336	0.707961	-0.707123
Zn4	Zn	-1.076328	0.883542	-0.882743
O5	O	-1.142411	0.813544	-0.812668
O6	O	-1.319136	0.796578	-0.924635
O7	O	-1.190895	0.891214	-0.590823
O8	O	-1.093909	0.565663	-0.735164
O9	O	-1.319078	0.925663	-0.795548
O10	O	-1.191031	0.591764	-0.890281
O11	O	-1.093832	0.736029	-0.564794
O12	O	-0.965718	0.701468	-0.700730
O13	O	-1.093894	0.864914	-1.034482
O14	O	-0.965712	0.830466	-0.829758
O15	O	-1.191022	0.762017	-1.060572
O16	O	-1.190887	1.061468	-0.761115
O17	O	-1.093817	1.035281	-0.864112
C18	C	-0.937033	0.758245	-0.757547
C19	C	-0.849172	0.734613	-0.733991
C20	C	-0.560300	0.993260	-0.991877
C21	C	-0.477741	0.971045	-0.969716
C22	C	-0.477714	0.836510	-0.835568
C23	C	-0.560275	0.858717	-0.857714
C24	C	-0.601561	0.937092	-0.935871
C25	C	-0.601536	0.802550	-0.801708
C26	C	-0.684090	0.824752	-0.823856
C27	C	-0.725382	0.903121	-0.902011
C28	C	-0.684115	0.959294	-0.958019
C29	C	-0.560248	0.724170	-0.723557
C30	C	-0.601509	0.668003	-0.667551
C31	C	-0.684064	0.690210	-0.689694
C32	C	-0.725357	0.768579	-0.767849
C33	C	-0.725331	0.634036	-0.633686
C34	C	-0.807885	0.656238	-0.655834
C35	C	-0.807910	0.790781	-0.789997
C36	C	-1.142364	1.086499	-0.812633
C37	C	-1.142416	1.203289	-0.812673
C38	C	-1.142466	0.813453	-1.086716
C39	C	-1.142490	0.813414	-1.203499
C40	C	-0.348591	0.869051	-0.868003
C41	C	-0.436452	0.892684	-0.891579
C42	C	-1.142480	0.539529	-0.812731
C43	C	-1.142509	0.422760	-0.812758
C44	C	-1.193017	1.271767	-0.759132
C45	C	-1.193065	1.381504	-0.759177
C46	C	-1.091906	1.354274	-0.866306
C47	C	-1.091862	1.244540	-0.866267
C48	C	-1.243571	1.230516	-0.705538
C49	C	-1.294174	1.298994	-0.651991
C50	C	-1.294223	1.408731	-0.652037
C51	C	-1.243668	1.449990	-0.705629
C52	C	-1.193072	0.759831	-1.271950
C53	C	-1.193090	0.759798	-1.381679
C54	C	-1.091944	0.866940	-1.354497
C55	C	-1.091922	0.866966	-1.244769
C56	C	-1.243640	0.706279	-1.230680
C57	C	-1.294226	0.652692	-1.299132
C58	C	-1.294245	0.652659	-1.408861
C59	C	-1.243677	0.706213	-1.450139
C60	C	-1.142401	0.813571	-0.539698
C61	C	-1.142531	0.813355	-0.422957
H62	H	-0.792603	0.921191	-0.920049
H63	H	-1.050721	0.910578	-1.189031
H64	H	-1.335429	0.609017	-1.464591
C65	C	-1.243700	0.706178	-1.570839
H66	H	-1.281070	0.666599	-1.605697
H67	H	-1.192700	0.674272	-1.581980
H68	H	-1.257363	0.777652	-1.599307
C69	C	-1.349884	1.484055	-0.593141
H70	H	-1.379979	1.443765	-0.561213
H71	H	-1.384331	1.536060	-0.642618
H72	H	-1.319674	1.518794	-0.539234
C73	C	-0.556090	0.581802	-0.581579
H74	H	-0.501014	0.576628	-0.576403
H75	H	-0.569628	0.514868	-0.600696
H76	H	-0.569600	0.600747	-0.514586
C77	C	-1.036204	1.169207	-0.925158
H78	H	-1.043425	1.097948	-0.917467
H79	H	-0.983104	1.172960	-0.895484
H80	H	-1.047759	1.190229	-0.998870
H81	H	-1.335391	0.609083	-1.265515
C82	C	-0.729535	1.045510	-1.043986
H83	H	-0.693140	1.075783	-1.074175
H84	H	-0.761728	1.099892	-1.012353
H85	H	-0.761752	1.014029	-1.098479
C86	C	-1.036334	0.925856	-1.399903
H87	H	-1.043598	0.918176	-1.475059
H88	H	-0.983221	0.896190	-1.367675
H89	H	-1.047889	0.999566	-1.385002
C90	C	-0.432352	1.032833	-1.031324
H91	H	-0.377272	1.008382	-1.006948
H92	H	-0.445872	1.107043	-1.019461
H93	H	-0.445901	1.021171	-1.105579
C94	C	-0.679910	0.547828	-0.547723
H95	H	-0.624835	0.542652	-0.542552
H96	H	-0.693451	0.480897	-0.566847
H97	H	-0.693416	0.566764	-0.480725
C98	C	-0.432294	0.750310	-0.749597
H99	H	-0.377218	0.745135	-0.744420
H100	H	-0.445832	0.683376	-0.768714
H101	H	-0.445805	0.769254	-0.682603
H102	H	-0.841528	0.854607	-0.853634
H103	H	-0.593918	1.057086	-1.055514
H104	H	-0.493027	0.706091	-0.705532
C105	C	-0.853276	0.594452	-0.594235
H106	H	-0.816864	0.544601	-0.544511
H107	H	-0.885491	0.557389	-0.643152
H108	H	-0.885467	0.643249	-0.557022
C109	C	-1.243619	0.706308	-1.109982
H110	H	-1.280974	0.666735	-1.095204
H111	H	-1.257260	0.777789	-1.088805
H112	H	-1.192606	0.674398	-1.071475
H113	H	-1.243718	1.539348	-0.705672
C114	C	-1.243522	1.109811	-0.705490
H115	H	-1.280880	1.095049	-0.665912
H116	H	-1.192507	1.071328	-0.673577
H117	H	-1.257164	1.088592	-0.776961
C118	C	-1.036296	1.399651	-0.925248
H119	H	-1.006158	1.343152	-0.957138
H120	H	-1.001888	1.433262	-0.875799
H121	H	-1.066540	1.450523	-0.979187
C122	C	-1.349778	1.253613	-0.593041
H123	H	-1.342497	1.178450	-0.600671
H124	H	-1.402893	1.285816	-0.622725
H125	H	-1.338234	1.268565	-0.519344
