data_functionalizedCrystal
_audit_creation_method	'MofGen! by Chris Wilmer'
_symmetry_space_group_name_H-M	'P1'
_symmetry_Int_Tables_number	1
_symmetry_cell_setting	triclinic
loop_
_symmetry_equiv_pos_as_xyz
  x,y,z
_cell_length_a	15.297475
_cell_length_b	29.839131
_cell_length_c	15.296720
_cell_angle_alpha	80.362437
_cell_angle_beta	88.382886
_cell_angle_gamma	80.343089
loop_
_atom_site_label
_atom_site_type_symbol
_atom_site_fract_x
_atom_site_fract_y
_atom_site_fract_z
Zn1	Zn	1.253182	-0.349614	0.726505
Zn2	Zn	1.753182	0.150386	1.226505
Zn3	Zn	1.278404	-0.414299	0.580004
Zn4	Zn	1.778404	0.085701	1.080004
Zn5	Zn	1.132076	-0.324378	0.554753
Zn6	Zn	1.632076	0.175622	1.054753
Zn7	Zn	1.106633	-0.409883	0.701134
Zn8	Zn	1.606633	0.090117	1.201134
O9	O	1.192574	-0.374544	0.640599
O10	O	1.692574	0.125456	1.140599
O11	O	1.379098	-0.370604	0.728258
O12	O	1.879098	0.129396	1.228258
O13	O	1.280197	-0.393657	0.454082
O14	O	1.780197	0.106343	0.954082
O15	O	1.148233	-0.264871	0.577587
O16	O	1.648233	0.235129	1.077587
O17	O	1.397629	-0.418128	0.620623
O18	O	1.897629	0.081872	1.120623
O19	O	1.237209	-0.283412	0.703773
O20	O	1.737209	0.216588	1.203773
O21	O	1.172690	-0.327593	0.435530
O22	O	1.672690	0.172407	0.935530
O23	O	1.006131	-0.323311	0.552985
O24	O	1.506131	0.176689	1.052985
O25	O	1.104870	-0.410602	0.827071
O26	O	1.604870	0.089398	1.327071
O27	O	0.987438	-0.386132	0.660530
O28	O	1.487438	0.113868	1.160530
O29	O	1.212539	-0.366323	0.845712
O30	O	1.712539	0.133677	1.345712
O31	O	1.255527	-0.476568	0.596021
O32	O	1.755527	0.023432	1.096021
O33	O	1.129327	-0.473324	0.685015
O34	O	1.629327	0.026676	1.185015
C35	C	0.965003	-0.351504	0.601265
C36	C	1.465003	0.148496	1.101265
C37	C	0.867644	-0.341660	0.584458
C38	C	1.367644	0.158340	1.084458
C39	C	1.192423	-0.491247	0.640528
C40	C	1.692423	0.008753	1.140528
C41	C	1.192434	-0.541184	0.640541
C42	C	1.692434	-0.041184	1.140541
C43	C	0.554433	-0.444905	0.760721
C44	C	1.054433	0.055095	1.260721
C45	C	0.645908	-0.454157	0.776509
C46	C	1.145908	0.045843	1.276509
C47	C	0.701346	-0.426033	0.728498
C48	C	1.201346	0.073967	1.228498
C49	C	0.665301	-0.388656	0.664695
C50	C	1.165301	0.111344	1.164695
C51	C	0.573819	-0.379405	0.648901
C52	C	1.073819	0.120595	1.148901
C53	C	0.720732	-0.360534	0.616678
C54	C	1.220732	0.139466	1.116678
C55	C	0.684687	-0.323157	0.552875
C56	C	1.184687	0.176843	1.052875
C57	C	0.593213	-0.313908	0.537084
C58	C	1.093213	0.186092	1.037084
C59	C	0.537775	-0.342031	0.585095
C60	C	1.037775	0.157969	1.085095
C61	C	0.812214	-0.369785	0.632472
C62	C	1.312214	0.130215	1.132472
C63	C	0.831600	-0.304286	0.520652
C64	C	1.331600	0.195714	1.020652
C65	C	0.740125	-0.295034	0.504864
C66	C	1.240125	0.204966	1.004864
C67	C	1.258374	-0.852537	0.594359
C68	C	1.758374	-0.352537	1.094359
C69	C	1.258476	-1.040223	0.594412
C70	C	1.758476	-0.540223	1.094412
O71	O	1.314421	-1.065927	0.555092
O72	O	1.814421	-0.565927	1.055092
N73	N	1.192744	-1.062009	0.640696
N74	N	1.692744	-0.562009	1.140696
C75	C	1.126986	-1.036871	0.686975
C76	C	1.626986	-0.536871	1.186975
O77	O	1.071084	-1.059708	0.726352
O78	O	1.571084	-0.559708	1.226352
C79	C	1.126888	-0.849186	0.686927
C80	C	1.626888	-0.349186	1.186927
C81	C	1.192619	-0.827402	0.640633
C82	C	1.692619	-0.327402	1.140633
C83	C	1.324100	-0.830753	0.548069
C84	C	1.824100	-0.330753	1.048069
C85	C	1.324071	-0.783833	0.548053
C86	C	1.824071	-0.283833	1.048053
C87	C	1.258316	-0.758698	0.594326
C88	C	1.758316	-0.258698	1.094326
C89	C	1.192590	-0.780482	0.640616
C90	C	1.692590	-0.280482	1.140616
C91	C	1.061134	-0.824049	0.733211
C92	C	1.561134	-0.324049	1.233211
C93	C	1.061116	-0.777125	0.733197
C94	C	1.561116	-0.277125	1.233197
C95	C	1.126847	-0.755341	0.686902
C96	C	1.626847	-0.255341	1.186902
C97	C	1.126806	-0.708428	0.686873
C98	C	1.626806	-0.208428	1.186873
N99	N	1.192537	-0.686642	0.640589
N100	N	1.692537	-0.186642	1.140589
C101	C	1.258292	-0.711777	0.594315
C102	C	1.758292	-0.211777	1.094315
C103	C	1.127041	-1.135408	0.686996
C104	C	1.627041	-0.635408	1.186996
C105	C	1.127064	-1.182328	0.687007
C106	C	1.627064	-0.682328	1.187007
C107	C	1.258556	-1.185678	0.594445
C108	C	1.758556	-0.685678	1.094445
C109	C	1.258528	-1.138756	0.594429
C110	C	1.758528	-0.638756	1.094429
C111	C	1.192772	-1.113622	0.640712
C112	C	1.692772	-0.613622	1.140712
C113	C	1.258226	-0.613243	0.594283
C114	C	1.758226	-0.113243	1.094283
C115	C	1.258189	-0.566319	0.594268
C116	C	1.758189	-0.066319	1.094268
C117	C	1.126701	-0.562974	0.686833
C118	C	1.626701	-0.062974	1.186833
C119	C	1.126734	-0.609893	0.686845
C120	C	1.626734	-0.109893	1.186845
C121	C	1.192505	-0.635027	0.640569
C122	C	1.692505	-0.135027	1.140569
O123	O	1.070896	-0.682697	0.726181
O124	O	1.570896	-0.182697	1.226181
O125	O	1.314197	-0.688934	0.554961
O126	O	1.814197	-0.188934	1.054961
C127	C	1.258403	-0.899456	0.594376
C128	C	1.758403	-0.399456	1.094376
C129	C	1.192677	-0.921240	0.640666
C130	C	1.692677	-0.421240	1.140666
C131	C	1.126922	-0.896105	0.686939
C132	C	1.626922	-0.396105	1.186939
C133	C	1.192700	-0.968161	0.640677
C134	C	1.692700	-0.468161	1.140677
C135	C	1.258455	-0.993296	0.594404
C136	C	1.758455	-0.493296	1.094404
C137	C	1.324187	-0.971511	0.548119
C138	C	1.824187	-0.471511	1.048119
C139	C	1.324158	-0.924591	0.548103
C140	C	1.824158	-0.424591	1.048103
C141	C	1.061190	-0.917891	0.733224
C142	C	1.561190	-0.417891	1.233224
C143	C	1.061224	-0.964810	0.733236
C144	C	1.561224	-0.464810	1.233236
C145	C	1.126979	-0.989946	0.686962
C146	C	1.626979	-0.489946	1.186962
C147	C	1.421033	-0.397674	0.680087
C148	C	1.921033	0.102326	1.180087
C149	C	1.518389	-0.407530	0.696915
C150	C	2.018389	0.092470	1.196915
C151	C	1.153053	-0.390785	0.869062
C152	C	1.653053	0.109215	1.369062
C153	C	1.136212	-0.397706	0.966419
C154	C	1.636212	0.102294	1.466419
C155	C	1.192746	-0.257388	0.640693
C156	C	1.692746	0.242612	1.140693
C157	C	1.192819	-0.207464	0.640733
C158	C	1.692819	0.292536	1.140733
C159	C	1.231992	-0.358339	0.413033
C160	C	1.731992	0.141661	0.913033
C161	C	1.249003	-0.351308	0.315706
C162	C	1.749003	0.148692	0.815706
C163	C	1.312975	-0.325003	1.279676
C164	C	1.812975	0.174997	1.779676
C165	C	1.328804	-0.318502	1.188205
C166	C	1.828804	0.181498	1.688205
C167	C	1.280657	-0.338302	1.132754
C168	C	1.780657	0.161698	1.632754
C169	C	1.216679	-0.364605	1.168783
C170	C	1.716679	0.135395	1.668783
C171	C	1.200853	-0.371110	1.260264
C172	C	1.700853	0.128890	1.760264
C173	C	1.168535	-0.384409	1.113342
C174	C	1.668535	0.115591	1.613342
C175	C	1.104557	-0.410712	1.149371
C176	C	1.604557	0.089288	1.649371
C177	C	1.088734	-0.417215	1.240843
C178	C	1.588734	0.082785	1.740843
C179	C	1.136881	-0.397415	1.296294
C180	C	1.636881	0.102585	1.796294
C181	C	1.184361	-0.377904	1.021861
C182	C	1.684361	0.122096	1.521861
C183	C	1.072239	-0.424011	1.002450
C184	C	1.572239	0.075989	1.502450
C185	C	1.056410	-0.430512	1.093921
C186	C	1.556410	0.069488	1.593921
H187	H	0.841552	-0.400218	0.684422
H188	H	1.341552	0.099782	1.184422
H189	H	0.675249	-0.484590	0.828455
H190	H	1.175249	0.015410	1.328455
C191	C	1.396375	-0.759876	0.497116
C192	C	1.896375	-0.259876	0.997116
N193	N	1.450836	-0.741834	0.458745
N194	N	1.950836	-0.241834	0.958745
C195	C	0.801973	-0.436219	0.745853
C196	C	1.301973	0.063781	1.245853
N197	N	0.877769	-0.443894	0.758924
N198	N	1.377769	0.056106	1.258924
C199	C	1.018360	-0.446151	1.280473
C200	C	1.518360	0.053849	1.780473
N201	N	0.965352	-0.467946	1.310321
N202	N	1.465352	0.032054	1.810321
C203	C	1.019272	-0.445791	0.941457
C204	C	1.519272	0.054209	1.441457
N205	N	0.979381	-0.462195	0.895512
N206	N	1.479381	0.037805	1.395512
H207	H	0.509289	-0.467801	0.799799
H208	H	1.009289	0.032199	1.299799
C209	C	0.553567	-0.272792	0.466898
C210	C	1.053567	0.227208	0.966898
N211	N	0.523707	-0.241823	0.414035
N212	N	1.023707	0.258177	0.914035
H213	H	0.876738	-0.281386	0.481556
H214	H	1.376738	0.218614	0.981556
C215	C	0.437144	-0.331850	0.567744
C216	C	0.937144	0.168150	1.067744
N217	N	0.361346	-0.324180	0.554682
N218	N	0.861346	0.175820	1.054682
C219	C	0.700464	-0.253921	0.434680
C220	C	1.200464	0.246079	0.934680
N221	N	0.670591	-0.222955	0.381816
N222	N	1.170591	0.277045	0.881816
H223	H	1.380897	-0.297088	1.158877
H224	H	1.880897	0.202912	1.658877
H225	H	1.073161	-0.542501	0.724506
H226	H	1.573161	-0.042501	1.224506
C227	C	1.254730	-0.348968	0.982239
C228	C	1.754730	0.151032	1.482239
N229	N	1.307734	-0.327170	0.952396
N230	N	1.807734	0.172830	1.452396
C231	C	0.988778	-0.749481	0.784113
C232	C	1.488778	-0.249481	1.284113
N233	N	0.934292	-0.728660	0.822462
N234	N	1.434292	-0.228660	1.322462
H235	H	1.311715	-0.548584	0.556566
H236	H	1.811715	-0.048584	1.056566
H237	H	1.007645	-0.897429	0.770906
H238	H	1.507645	-0.397429	1.270906
C239	C	1.330572	-0.640883	0.543370
C240	C	1.830572	-0.140883	1.043370
N241	N	1.385060	-0.661700	0.505017
N242	N	1.885060	-0.161700	1.005017
C243	C	1.365925	-0.303224	1.340675
C244	C	1.865925	0.196776	1.840675
N245	N	1.405808	-0.286817	1.386622
N246	N	1.905808	0.213183	1.886622
C247	C	1.396517	-0.999168	0.497217
C248	C	1.896517	-0.499168	0.997217
N249	N	1.450995	-1.020003	0.458884
N250	N	1.950995	-0.520003	0.958884
C251	C	1.396438	-0.858393	0.497155
C252	C	1.896438	-0.358393	0.997155
N253	N	1.450923	-0.879208	0.458796
N254	N	1.950923	-0.379208	0.958796
H255	H	1.377682	-0.906858	0.510406
H256	H	1.877682	-0.406858	1.010406
H257	H	1.004318	-0.451928	1.123269
H258	H	1.504318	0.048072	1.623269
C259	C	1.330838	-1.114798	0.543505
C260	C	1.830838	-0.614798	1.043505
N261	N	1.385307	-1.096756	0.505149
N262	N	1.885307	-0.596756	1.005149
H263	H	1.073532	-1.200060	0.724695
H264	H	1.573532	-0.700060	1.224695
C265	C	1.330891	-1.213336	0.543549
C266	C	1.830891	-0.713336	1.043549
N267	N	1.385375	-1.234171	0.505223
N268	N	1.885375	-0.734171	1.005223
H269	H	1.123997	-0.402707	1.370778
H270	H	1.623997	0.097293	1.870778
C271	C	1.054719	-1.107770	0.737941
C272	C	1.554719	-0.607770	1.237941
N273	N	1.000251	-1.086957	0.776321
N274	N	1.500251	-0.586957	1.276321
C275	C	0.988825	-0.848002	0.784143
C276	C	1.488825	-0.348002	1.284143
N277	N	0.934359	-0.866042	0.822510
N278	N	1.434359	-0.366042	1.322510
C279	C	0.988908	-0.988767	0.784166
C280	C	1.488908	-0.488767	1.284166
N281	N	0.934446	-1.006811	0.822531
N282	N	1.434446	-0.506811	1.322531
C283	C	1.054425	-0.633856	0.737768
C284	C	1.554425	-0.133856	1.237768
N285	N	0.999966	-0.651903	0.776132
N286	N	1.499966	-0.151903	1.276132
H287	H	1.293549	-0.333007	1.058275
H288	H	1.793549	0.166993	1.558275
