data_functionalizedCrystal
_audit_creation_method	'MofGen! by Chris Wilmer'
_symmetry_space_group_name_H-M	'P1'
_symmetry_Int_Tables_number	1
_symmetry_cell_setting	triclinic
loop_
_symmetry_equiv_pos_as_xyz
  x,y,z
_cell_length_a	11.169417
_cell_length_b	11.169416
_cell_length_c	11.169406
_cell_angle_alpha	89.954551
_cell_angle_beta	89.967219
_cell_angle_gamma	90.002460
loop_
_atom_site_label
_atom_site_type_symbol
_atom_site_fract_x
_atom_site_fract_y
_atom_site_fract_z
Zn1	Zn	-1.835145	0.477578	0.678625
Zn2	Zn	-1.585145	0.727578	0.928625
Zn3	Zn	-1.335145	0.977578	1.178625
Zn4	Zn	-1.085145	1.227578	1.428625
Zn5	Zn	-1.835017	0.678374	0.477952
Zn6	Zn	-1.585017	0.928374	0.727952
Zn7	Zn	-1.335017	1.178374	0.977952
Zn8	Zn	-1.085017	1.428374	1.227952
Zn9	Zn	-1.634392	0.477698	0.477953
Zn10	Zn	-1.384392	0.727698	0.727953
Zn11	Zn	-1.134392	0.977698	0.977953
Zn12	Zn	-0.884392	1.227698	1.227953
Zn13	Zn	-1.634460	0.678212	0.678590
Zn14	Zn	-1.384460	0.928212	0.928590
Zn15	Zn	-1.134460	1.178212	1.178590
Zn16	Zn	-0.884460	1.428212	1.428590
O17	O	-1.734753	0.577965	0.578280
O18	O	-1.484753	0.827965	0.828280
O19	O	-1.234753	1.077965	1.078280
O20	O	-0.984753	1.327965	1.328280
O21	O	-2.003078	0.504232	0.652019
O22	O	-1.753078	0.754232	0.902019
O23	O	-1.503078	1.004232	1.152019
O24	O	-1.253078	1.254232	1.402019
O25	O	-1.808321	0.651872	0.310002
O26	O	-1.558321	0.901872	0.560002
O27	O	-1.308321	1.151872	0.810002
O28	O	-1.058321	1.401872	1.060002
O29	O	-1.661048	0.309732	0.504588
O30	O	-1.411048	0.559732	0.754588
O31	O	-1.161048	0.809732	1.004588
O32	O	-0.911048	1.059732	1.254588
O33	O	-2.002984	0.651756	0.504586
O34	O	-1.752984	0.901756	0.754586
O35	O	-1.502984	1.151756	1.004586
O36	O	-1.252984	1.401756	1.254586
O37	O	-1.808540	0.309644	0.652020
O38	O	-1.558540	0.559644	0.902020
O39	O	-1.308540	0.809644	1.152020
O40	O	-1.058540	1.059644	1.402020
O41	O	-1.660923	0.504436	0.310003
O42	O	-1.410923	0.754436	0.560003
O43	O	-1.160923	1.004436	0.810003
O44	O	-0.910923	1.254436	1.060003
O45	O	-1.466451	0.504278	0.504554
O46	O	-1.216451	0.754278	0.754554
O47	O	-0.966451	1.004278	1.004554
O48	O	-0.716451	1.254278	1.254554
O49	O	-1.661163	0.651479	0.846545
O50	O	-1.411163	0.901479	1.096545
O51	O	-1.161163	1.151479	1.346545
O52	O	-0.911163	1.401479	1.596545
O53	O	-1.466501	0.651595	0.651961
O54	O	-1.216501	0.901595	0.901961
O55	O	-0.966501	1.151595	1.151961
O56	O	-0.716501	1.401595	1.401961
O57	O	-1.808606	0.504074	0.846570
O58	O	-1.558606	0.754074	1.096570
O59	O	-1.308606	1.004074	1.346570
O60	O	-1.058606	1.254074	1.596570
O61	O	-1.808387	0.846303	0.504552
O62	O	-1.558387	1.096303	0.754552
O63	O	-1.308387	1.346303	1.004552
O64	O	-1.058387	1.596303	1.254552
O65	O	-1.661039	0.846183	0.651960
O66	O	-1.411039	1.096183	0.901960
O67	O	-1.161039	1.346183	1.151960
O68	O	-0.911039	1.596183	1.401960
C69	C	-1.422929	0.577933	0.578255
C70	C	-1.172929	0.827933	0.828255
C71	C	-0.922929	1.077933	1.078255
C72	C	-0.672929	1.327933	1.328255
C73	C	-1.289529	0.577948	0.578272
C74	C	-1.039529	0.827948	0.828272
C75	C	-0.789529	1.077948	1.078272
C76	C	-0.539529	1.327948	1.328272
C77	C	-1.734801	0.264923	0.578308
C78	C	-1.484801	0.514923	0.828308
C79	C	-1.234801	0.764923	1.078308
C80	C	-0.984801	1.014923	1.328308
C81	C	-1.734821	0.131523	0.578320
C82	C	-1.484821	0.381523	0.828320
C83	C	-1.234821	0.631523	1.078320
C84	C	-0.984821	0.881523	1.328320
C85	C	-1.047796	0.577987	0.578298
C86	C	-0.797796	0.827987	0.828298
C87	C	-0.547796	1.077987	1.078298
C88	C	-0.297796	1.327987	1.328298
C89	C	-1.181196	0.577967	0.578285
C90	C	-0.931196	0.827967	0.828285
C91	C	-0.681196	1.077967	1.078285
C92	C	-0.431196	1.327967	1.328285
C93	C	-1.734739	0.889790	0.578278
C94	C	-1.484739	1.139790	0.828278
C95	C	-1.234739	1.389790	1.078278
C96	C	-0.984739	1.639790	1.328278
C97	C	-1.734843	1.023190	0.578318
C98	C	-1.484843	1.273190	0.828318
C99	C	-1.234843	1.523190	1.078318
C100	C	-0.984843	1.773190	1.328318
C101	C	-1.734670	0.578098	0.266455
C102	C	-1.484670	0.828098	0.516455
C103	C	-1.234670	1.078098	0.766455
C104	C	-0.984670	1.328098	1.016455
C105	C	-1.734837	0.577854	0.133056
C106	C	-1.484837	0.827854	0.383056
C107	C	-1.234837	1.077854	0.633056
C108	C	-0.984837	1.327854	0.883056
C109	C	-1.734906	0.577745	0.891323
C110	C	-1.484906	0.827745	1.141323
C111	C	-1.234906	1.077745	1.391323
C112	C	-0.984906	1.327745	1.641323
C113	C	-1.734972	0.577651	1.024723
C114	C	-1.484972	0.827651	1.274723
C115	C	-1.234972	1.077651	1.524723
C116	C	-0.984972	1.327651	1.774723
