data_functionalizedCrystal
_audit_creation_method	'MofGen! by Chris Wilmer'
_symmetry_space_group_name_H-M	'P1'
_symmetry_Int_Tables_number	1
_symmetry_cell_setting	triclinic
loop_
_symmetry_equiv_pos_as_xyz
  x,y,z
_cell_length_a	19.188933
_cell_length_b	19.188928
_cell_length_c	7.088929
_cell_angle_alpha	96.209846
_cell_angle_beta	96.183987
_cell_angle_gamma	96.855309
loop_
_atom_site_label
_atom_site_type_symbol
_atom_site_fract_x
_atom_site_fract_y
_atom_site_fract_z
O1	O	0.918955	-0.094372	-0.158959
O2	O	0.715643	-0.106106	-0.158981
O3	O	0.823169	0.001419	-0.158921
O4	O	0.811429	-0.201897	-0.159019
O5	O	0.837539	0.015821	0.159063
O6	O	0.730013	-0.091704	0.159003
O7	O	0.933325	-0.079970	0.159025
Cu8	Cu	0.832981	-0.084522	0.188048
Cu9	Cu	0.815987	-0.101554	-0.188004
O10	O	0.825799	-0.187495	0.158965
C11	C	0.696817	-0.098525	0.000009
C12	C	0.619312	-0.097384	0.000003
C13	C	0.058225	-0.097088	-0.173305
C14	C	0.131049	-0.098156	-0.173313
C15	C	0.175299	-0.090843	0.000019
C16	C	0.146722	-0.082443	0.173371
C17	C	0.073900	-0.081368	0.173374
N18	N	0.290148	-0.126419	0.129017
N19	N	0.359325	-0.127443	0.129003
C20	C	0.394707	-0.094081	0.000020
N21	N	0.358297	-0.059667	-0.128977
N22	N	0.289113	-0.058647	-0.128968
C23	C	0.254263	-0.092008	0.000035
C24	C	0.502241	-0.103634	-0.173330
C25	C	0.575067	-0.104698	-0.173331
C26	C	0.590738	-0.088992	0.173359
C27	C	0.517914	-0.087921	0.173354
C28	C	0.473669	-0.095246	0.000005
C29	C	0.829975	0.034631	0.000079
C30	C	0.828836	0.112137	0.000104
C31	C	0.891928	0.157062	0.000125
C32	C	0.890856	0.229885	0.000102
C33	C	0.826690	0.257781	0.000097
C34	C	0.763589	0.212847	0.000066
C35	C	0.764662	0.140024	0.000069
N36	N	0.782534	0.370688	0.108319
N37	N	0.781519	0.439867	0.108320
C38	C	0.823453	0.477190	0.000082
N39	N	0.866451	0.442722	-0.108133
N40	N	0.867469	0.373538	-0.108125
C41	C	0.825519	0.336744	0.000092
C42	C	0.885387	0.601077	0.000075
C43	C	0.884311	0.673901	0.000040
C44	C	0.757044	0.656862	0.000023
C45	C	0.758120	0.584039	0.000039
C46	C	0.822294	0.556152	0.000073
C47	C	0.952151	-0.087551	0.000031
C48	C	1.029655	-0.088693	0.000024
C49	C	0.818996	0.779294	-0.000012
C50	C	0.820145	0.701792	0.000032
N51	N	0.844939	-0.072542	0.452543
N52	N	0.804035	-0.113528	-0.452499
H53	H	0.494652	-0.081087	0.314498
Cl54	Cl	0.676376	0.691925	0.000006
Cl55	Cl	0.910402	-0.006968	0.578639
Cl56	Cl	0.738582	-0.179106	0.421412
H57	H	0.154314	-0.104997	-0.314464
H58	H	0.022205	-0.103050	-0.314460
H59	H	0.182755	-0.076487	0.314499
Cl60	Cl	0.037982	-0.070816	0.391293
Cl61	Cl	0.446616	-0.112837	-0.391250
H62	H	0.706744	0.547461	0.000033
Cl63	Cl	0.610984	-0.115246	-0.391252
H64	H	0.626766	-0.083034	0.314489
Cl65	Cl	0.972601	0.122005	0.000114
H66	H	0.935690	0.710478	0.000046
H67	H	0.942234	0.266469	0.000111
H68	H	0.711344	0.235565	0.000057
Cl69	Cl	0.966061	0.566016	0.000130
Cl70	Cl	0.685339	0.083545	0.000045
