data_functionalizedCrystal
_audit_creation_method	'MofGen! by Chris Wilmer'
_symmetry_space_group_name_H-M	'P1'
_symmetry_Int_Tables_number	1
_symmetry_cell_setting	triclinic
loop_
_symmetry_equiv_pos_as_xyz
  x,y,z
_cell_length_a	19.288864
_cell_length_b	13.339070
_cell_length_c	17.766277
_cell_angle_alpha	89.997794
_cell_angle_beta	89.976791
_cell_angle_gamma	99.382770
loop_
_atom_site_label
_atom_site_type_symbol
_atom_site_fract_x
_atom_site_fract_y
_atom_site_fract_z
O1	O	0.945924	0.126087	-0.062840
O2	O	0.746977	0.143096	-0.062789
O3	O	0.823618	-0.012568	-0.062806
O4	O	0.869283	0.281751	-0.062822
O5	O	0.823598	-0.012576	0.062383
O6	O	0.746957	0.143088	0.062400
O7	O	0.945903	0.126079	0.062349
Cu8	Cu	0.846428	0.134583	0.073805
Cu9	Cu	0.846452	0.134592	-0.074245
O10	O	0.869263	0.281743	0.062366
C11	C	0.720984	0.142544	-0.000188
C12	C	0.643560	0.140901	-0.000168
C13	C	0.616663	0.232238	-0.000185
C14	C	0.543915	0.230694	-0.000193
C15	C	0.498067	0.137809	-0.000200
C16	C	0.524972	0.046461	-0.000178
C17	C	0.597719	0.048007	-0.000163
C18	C	0.375583	0.064794	-0.044080
C19	C	0.302838	0.063252	-0.044100
C20	C	0.273691	0.133037	-0.000245
C21	C	0.317301	0.204382	0.043621
C22	C	0.390047	0.205928	0.043637
C23	C	0.419184	0.136123	-0.000216
C24	C	0.167913	0.222706	-0.000270
C25	C	0.095163	0.221159	-0.000273
C26	C	0.076222	0.036923	-0.000266
C27	C	0.148970	0.038473	-0.000255
C28	C	0.194812	0.131367	-0.000260
C29	C	0.815894	-0.050226	-0.000211
C30	C	0.792901	-0.162423	-0.000208
C31	C	0.971681	-0.528031	-0.000253
C32	C	0.993286	-0.422617	-0.000252
C33	C	0.943192	-0.357563	-0.000241
C34	C	0.871489	-0.397934	-0.000231
C35	C	0.849881	-0.503359	-0.000227
C36	C	0.821392	-0.332891	-0.000215
C37	C	0.749689	-0.373262	-0.000205
C38	C	0.728085	-0.478677	-0.000201
C39	C	0.778180	-0.543730	-0.000212
C40	C	0.842999	-0.227467	-0.000219
C41	C	0.721199	-0.202795	-0.000193
C42	C	0.699594	-0.308209	-0.000195
C43	C	0.971897	0.126630	-0.000254
C44	C	1.049320	0.128273	-0.000278
C45	C	0.876987	0.319401	-0.000231
C46	C	0.899980	0.431598	-0.000238
N47	N	0.846416	0.134575	0.177935
N48	N	0.846468	0.134591	-0.178375
C49	C	0.880375	0.065681	0.217315
C50	C	0.880378	0.065676	0.296116
C51	C	0.846433	0.134583	0.335536
C52	C	0.812467	0.203483	0.296147
C53	C	0.812459	0.203479	0.217347
C54	C	0.855080	0.226676	0.460370
C55	C	0.855093	0.226682	0.539169
C56	C	0.846454	0.134595	0.578582
C57	C	0.837815	0.042500	0.539187
C58	C	0.837807	0.042496	0.460387
C59	C	0.846437	0.134595	0.420982
C60	C	0.880417	0.065690	0.703408
C61	C	0.880415	0.065684	0.782211
C62	C	0.812509	0.203500	0.782240
C63	C	0.812506	0.203497	0.703438
C64	C	0.846463	0.134593	0.664027
H65	H	0.399307	0.007964	-0.079797
Cl66	Cl	1.083423	-0.371872	-0.000281
Cl67	Cl	0.826958	-0.073274	0.588726
Cl68	Cl	0.933137	-0.176727	-0.000232
Cl69	Cl	1.034648	-0.609815	-0.000253
Cl70	Cl	0.769818	0.290116	0.653928
H71	H	0.760592	-0.629568	-0.000216
Cl72	Cl	0.637944	-0.529426	-0.000178
H73	H	0.784866	0.259601	0.814335
H74	H	0.641212	-0.341094	-0.000186
H75	H	0.680408	-0.149828	-0.000180
Cl76	Cl	0.769766	0.290097	0.167838
H77	H	0.862132	0.301671	0.571239
H78	H	0.908023	0.009573	0.185228
Cl79	Cl	0.923102	-0.020936	0.653860
Cl80	Cl	0.510092	0.345526	-0.000212
H81	H	0.425551	0.264016	0.079357
H82	H	0.908064	0.009577	0.814274
H83	H	0.862104	0.301669	0.428287
H84	H	0.908031	0.009572	0.328185
H85	H	0.784827	0.259587	0.328247
H86	H	0.293572	0.261207	0.079333
Cl87	Cl	0.674289	0.349019	-0.000188
H88	H	0.830771	-0.032491	0.428314
H89	H	0.205239	0.298346	-0.000263
Cl90	Cl	0.182786	-0.076358	-0.000238
Cl91	Cl	0.248024	-0.026428	-0.099253
Cl92	Cl	0.467336	-0.070309	-0.000182
Cl93	Cl	0.631534	-0.066826	-0.000142
Cl94	Cl	0.970354	-0.225041	-0.000243
Cl95	Cl	0.018591	-0.079849	-0.000265
H96	H	0.073266	0.295539	-0.000282
