data_functionalizedCrystal
_audit_creation_method	'MofGen! by Chris Wilmer'
_symmetry_space_group_name_H-M	'P1'
_symmetry_Int_Tables_number	1
_symmetry_cell_setting	triclinic
loop_
_symmetry_equiv_pos_as_xyz
  x,y,z
_cell_length_a	12.811457
_cell_length_b	11.792241
_cell_length_c	11.295483
_cell_angle_alpha	94.123059
_cell_angle_beta	91.289320
_cell_angle_gamma	84.118185
loop_
_atom_site_label
_atom_site_type_symbol
_atom_site_fract_x
_atom_site_fract_y
_atom_site_fract_z
O1	O	1.389904	0.156789	0.051074
O2	O	1.086741	0.170898	0.018332
O3	O	1.245679	-0.001280	0.035506
O4	O	1.230966	0.328966	0.033900
O5	O	1.231719	0.013819	0.232048
O6	O	1.072781	0.185997	0.214875
O7	O	1.375944	0.171888	0.247616
Cu8	Cu	1.223088	0.180321	0.249191
Cu9	Cu	1.239597	0.162465	0.016757
O10	O	1.217006	0.344066	0.230443
C11	C	1.040950	0.177194	0.112412
C12	C	0.925304	0.173446	0.099922
C13	C	0.692772	0.182844	0.290747
C14	C	0.584112	0.179323	0.279018
C15	C	0.599322	0.162873	0.064736
C16	C	0.707982	0.166395	0.076465
C17	C	0.754703	0.176382	0.189474
C18	C	0.863364	0.179912	0.201202
C19	C	0.878573	0.163454	-0.013079
C20	C	0.769913	0.159932	-0.024808
C21	C	1.237775	-0.036027	0.133677
C22	C	1.235009	-0.162059	0.133377
C23	C	1.229923	-0.392804	0.132808
C24	C	1.232749	-0.264401	0.133124
C25	C	1.421736	0.165591	0.153534
C26	C	1.537383	0.169339	0.166016
C27	C	1.224911	0.378813	0.132269
C28	C	1.227678	0.504843	0.132561
N29	N	1.211484	0.192880	0.412674
N30	N	1.251210	0.149897	-0.146724
C31	C	1.334743	0.059429	0.675282
C32	C	1.325981	0.068928	0.798999
C33	C	1.185194	0.221370	0.783826
C34	C	1.193956	0.211871	0.660109
C35	C	1.268734	0.130899	0.605842
C36	C	1.277500	0.121407	0.482123
C37	C	1.136709	0.273843	0.466953
C38	C	1.127947	0.283342	0.590669
H39	H	0.561265	0.154722	-0.027271
H40	H	0.731858	0.151795	-0.116817
O41	O	0.743168	0.193626	0.412630
H42	H	0.783453	0.272824	0.422135
H43	H	0.929008	0.158199	-0.095543
H44	H	1.338390	0.055478	0.437940
O45	O	0.913760	0.190684	0.323086
H46	H	0.954044	0.269883	0.332602
H47	H	0.533691	0.184591	0.361485
H48	H	1.082963	0.332042	0.410400
O49	O	1.415390	-0.027898	0.616737
H50	H	1.459818	-0.076005	0.685809
H51	H	1.124305	0.287288	0.828027
O52	O	1.397186	-0.008144	0.873902
H53	H	1.450660	-0.066032	0.815377
H54	H	1.067061	0.349265	0.634868
