data_functionalizedCrystal
_audit_creation_method	'MofGen! by Chris Wilmer'
_symmetry_space_group_name_H-M	'P1'
_symmetry_Int_Tables_number	1
_symmetry_cell_setting	triclinic
loop_
_symmetry_equiv_pos_as_xyz
  x,y,z
_cell_length_a	17.699097
_cell_length_b	17.699083
_cell_length_c	9.130313
_cell_angle_alpha	90.003710
_cell_angle_beta	90.008334
_cell_angle_gamma	83.285722
loop_
_atom_site_label
_atom_site_type_symbol
_atom_site_fract_x
_atom_site_fract_y
_atom_site_fract_z
O1	O	1.004070	0.095757	0.121924
O2	O	1.504070	0.595757	0.621924
O3	O	0.783693	0.108199	0.121900
O4	O	1.283693	0.608199	0.621900
O5	O	0.900108	-0.008211	0.121900
O6	O	1.400108	0.491789	0.621900
O7	O	0.887655	0.212167	0.121924
O8	O	1.387655	0.712167	0.621924
O9	O	0.900097	-0.008210	-0.121699
O10	O	1.400097	0.491790	0.378301
O11	O	0.783682	0.108200	-0.121698
O12	O	1.283682	0.608200	0.378302
O13	O	1.004059	0.095758	-0.121675
O14	O	1.504059	0.595758	0.378325
Cu15	Cu	0.893869	0.101979	-0.143929
Cu16	Cu	1.393869	0.601979	0.356071
Cu17	Cu	0.893883	0.101978	0.144155
Cu18	Cu	1.393883	0.601978	0.644155
O19	O	0.887644	0.212167	-0.121674
O20	O	1.387644	0.712167	0.378326
C21	C	0.755491	0.107752	0.000098
C22	C	1.255491	0.607752	0.500098
C23	C	0.671473	0.106409	0.000089
C24	C	1.171473	0.606409	0.500089
C25	C	0.155761	0.098179	0.132933
C26	C	0.655761	0.598179	0.632933
C27	C	0.234705	0.099436	0.132925
C28	C	0.734705	0.599436	0.632925
C29	C	0.274165	0.100065	0.000134
C30	C	0.774165	0.600065	0.500134
C31	C	0.234678	0.099431	-0.132659
C32	C	0.734678	0.599431	0.367341
C33	C	0.155736	0.098169	-0.132651
C34	C	0.655736	0.598169	0.367349
C35	C	0.553042	0.104518	-0.132697
C36	C	1.053042	0.604518	0.367303
C37	C	0.631989	0.105783	-0.132696
C38	C	1.131989	0.605783	0.367304
C39	C	0.632011	0.105785	0.132879
C40	C	1.132011	0.605785	0.632879
C41	C	0.553069	0.104523	0.132887
C42	C	1.053069	0.604523	0.632887
C43	C	0.513589	0.103885	0.000095
C44	C	1.013589	0.603885	0.500095
C45	C	0.427989	0.102521	0.000105
C46	C	0.927989	0.602521	0.500105
C47	C	0.359763	0.101434	0.000123
C48	C	0.859763	0.601434	0.500123
C49	C	0.899656	-0.036408	0.000100
C50	C	1.399656	0.463592	0.500100
C51	C	0.898317	-0.120426	0.000099
C52	C	1.398317	0.379574	0.500099
C53	C	0.966650	-0.169044	0.000105
C54	C	1.466650	0.330956	0.500105
C55	C	0.965388	-0.247987	0.000117
C56	C	1.465388	0.252013	0.500117
C57	C	0.895792	-0.278311	0.000115
C58	C	1.395792	0.221689	0.500115
C59	C	0.827454	-0.229687	0.000114
C60	C	1.327454	0.270313	0.500114
C61	C	0.828717	-0.150745	0.000112
C62	C	1.328717	0.349255	0.500112
C63	C	0.822359	-0.548050	0.000125
C64	C	1.322359	-0.048050	0.500125
C65	C	0.821101	-0.626998	0.000123
C66	C	1.321101	-0.126998	0.500123
C67	C	0.959030	-0.645292	0.000131
C68	C	1.459030	-0.145292	0.500131
C69	C	0.960293	-0.566350	0.000129
C70	C	1.460293	-0.066350	0.500129
C71	C	0.891955	-0.517733	0.000136
C72	C	1.391955	-0.017733	0.500136
C73	C	0.893325	-0.432134	0.000125
C74	C	1.393325	0.067866	0.500125
C75	C	0.894422	-0.363909	0.000115
C76	C	1.394422	0.136091	0.500115
C77	C	1.032261	0.096205	0.000131
C78	C	1.532261	0.596205	0.500131
C79	C	1.116279	0.097547	0.000150
C80	C	1.616279	0.597547	0.500150
C81	C	0.888096	0.240364	0.000128
C82	C	1.388096	0.740364	0.500128
C83	C	0.889435	0.324382	0.000139
C84	C	1.389435	0.824382	0.500139
N85	N	0.893866	0.101979	-0.346552
N86	N	1.393866	0.601979	0.153448
C87	C	0.842311	0.153502	-0.423241
C88	C	1.342311	0.653502	0.076759
C89	C	0.842325	0.153501	-0.576578
C90	C	1.342325	0.653501	-0.076578
C91	C	0.945453	0.050445	-0.576523
C92	C	1.445453	0.550445	-0.076523
C93	C	0.945441	0.050451	-0.423189
C94	C	1.445441	0.550451	0.076811
C95	C	0.782769	0.212999	-0.423274
C96	C	1.282769	0.712999	0.076726
C97	C	0.782783	0.212997	-0.576611
C98	C	1.282783	0.712997	-0.076611
N99	N	0.893892	0.101972	0.346777
N100	N	1.393892	0.601972	0.846777
H101	H	0.520944	0.104014	0.241020
H102	H	1.020944	0.604014	0.741020
C103	C	0.753545	-0.097266	0.000102
C104	C	1.253545	0.402734	0.500102
N105	N	0.696923	-0.056985	0.000099
N106	N	1.196923	0.443015	0.500099
H107	H	0.800599	0.267779	-0.624155
H108	H	1.300599	0.767779	-0.124155
H109	H	0.724756	0.200640	-0.618260
H110	H	1.224756	0.700640	-0.118260
C111	C	0.747185	-0.494582	0.000141
C112	C	1.247185	0.005418	0.500141
N113	N	0.690560	-0.454306	0.000157
N114	N	1.190560	0.045694	0.500157
C115	C	0.112362	0.097485	0.279017
C116	C	0.612362	0.597485	0.779017
N117	N	0.079677	0.096959	0.389052
N118	N	0.579677	0.596959	0.889052
C119	C	0.708783	0.188882	-0.359057
C120	C	1.208783	0.688882	0.140943
N121	N	0.653056	0.170716	-0.310688
N122	N	1.153056	0.670716	0.189312
C123	C	0.278133	0.100121	0.278997
C124	C	0.778133	0.600121	0.778997
N125	N	0.310843	0.100632	0.389026
N126	N	0.810843	0.600632	0.889026
C127	C	0.799399	0.291414	-0.367042
C128	C	1.299399	0.791414	0.132958
N129	N	0.811928	0.350474	-0.324688
N130	N	1.311928	0.850474	0.175312
H131	H	0.664165	0.106301	0.241005
H132	H	1.164165	0.606301	0.741005
H133	H	1.016965	-0.541665	0.000124
H134	H	1.516965	-0.041665	0.500124
H135	H	0.664115	0.106295	-0.240837
H136	H	1.164115	0.606295	0.259163
H137	H	0.987444	0.008494	-0.638937
H138	H	1.487444	0.508494	-0.138937
C139	C	0.509621	0.103840	-0.278773
C140	C	1.009621	0.603840	0.221227
N141	N	0.476913	0.103336	-0.388804
N142	N	0.976913	0.603336	0.111196
H143	H	0.770787	-0.254383	0.000121
H144	H	1.270787	0.245617	0.500121
H145	H	0.123589	0.097663	-0.240776
H146	H	0.623589	0.597663	0.259224
C147	C	0.278082	0.100156	-0.278732
C148	C	0.778082	0.600156	0.221268
N149	N	0.310772	0.100716	-0.388757
N150	N	0.810772	0.600716	0.111243
H151	H	0.987428	0.008503	-0.360750
H152	H	1.487428	0.508503	0.139250
C153	C	1.040560	-0.301464	0.000099
C154	C	1.540560	0.198536	0.500099
N155	N	1.097183	-0.341742	0.000079
N156	N	1.597183	0.158258	0.500079
H157	H	1.014674	-0.684886	0.000133
H158	H	1.514674	-0.184886	0.500133
H159	H	1.023323	-0.144360	0.000098
H160	H	1.523323	0.355640	0.500098
C161	C	0.744536	-0.660352	0.000132
C162	C	1.244536	-0.160352	0.500132
N163	N	0.686871	-0.685475	0.000140
N164	N	1.186871	-0.185475	0.500140
