data_functionalizedCrystal
_audit_creation_method	'MofGen! by Chris Wilmer'
_symmetry_space_group_name_H-M	'P1'
_symmetry_Int_Tables_number	1
_symmetry_cell_setting	triclinic
loop_
_symmetry_equiv_pos_as_xyz
  x,y,z
_cell_length_a	15.995350
_cell_length_b	17.038272
_cell_length_c	15.072220
_cell_angle_alpha	89.999202
_cell_angle_beta	89.991149
_cell_angle_gamma	87.301966
loop_
_atom_site_label
_atom_site_type_symbol
_atom_site_fract_x
_atom_site_fract_y
_atom_site_fract_z
O1	O	1.118174	0.100774	-0.073708
O2	O	0.875285	0.113219	-0.073726
O3	O	0.995286	-0.006819	-0.073710
O4	O	0.998173	0.220812	-0.073724
O5	O	0.995255	-0.006813	0.073855
O6	O	0.875254	0.113226	0.073839
O7	O	1.118143	0.100781	0.073857
Zn8	Zn	0.996694	0.107004	0.097277
Zn9	Zn	0.996735	0.106995	-0.097146
O10	O	0.998142	0.220819	0.073841
C11	C	0.844038	0.112708	0.000054
C12	C	0.750978	0.111165	0.000047
C13	C	0.412836	0.105626	0.000066
C14	C	0.454180	0.020137	0.000400
C15	C	0.550981	0.021680	0.000062
C16	C	0.580592	0.108374	0.000057
C17	C	0.542527	0.150536	-0.084209
C18	C	0.445738	0.148388	-0.084273
C19	C	0.445489	0.150162	0.083536
C20	C	0.542433	0.150142	0.084644
C21	C	0.675401	0.109931	0.000049
C22	C	0.318027	0.104071	0.000068
C23	C	0.992645	-0.035945	0.000072
C24	C	0.984810	-0.122740	0.000071
C25	C	1.056739	-0.172836	0.000078
C26	C	1.049373	-0.254389	0.000069
C27	C	0.970077	-0.285843	0.000060
C28	C	0.898143	-0.235740	0.000051
C29	C	0.905510	-0.154189	0.000053
C30	C	0.944051	-0.531607	0.000046
C31	C	0.936689	-0.613164	0.000046
C32	C	1.087920	-0.631807	0.000062
C33	C	1.095280	-0.550254	0.000070
C34	C	1.023346	-0.500158	0.000056
C35	C	0.962546	-0.369202	0.000053
C36	C	1.030878	-0.416801	0.000056
C37	C	1.149390	0.101292	0.000075
C38	C	1.242450	0.102834	0.000076
C39	C	1.000784	0.249944	0.000057
C40	C	1.008618	0.336739	0.000052
N41	N	0.996671	0.107010	0.229966
N42	N	0.996763	0.106984	-0.229835
C43	C	0.996733	0.106992	0.589168
C44	C	0.932276	0.171007	0.551552
C45	C	0.932451	0.171241	0.448726
C46	C	0.996702	0.107001	0.410963
C47	C	1.085336	0.124819	0.448260
C48	C	1.084981	0.125274	0.551118
C49	C	0.973321	0.024970	0.551271
C50	C	0.971355	0.025517	0.448408
C51	C	0.996689	0.107004	0.310250
C52	C	0.996751	0.106991	0.689881
H53	H	0.562300	0.213362	0.089730
H54	H	0.567544	0.119364	0.146983
H55	H	0.872114	-0.638770	0.000053
H56	H	0.866755	0.160625	0.423511
O57	O	0.866469	-0.477579	0.000053
H58	H	0.810095	-0.513155	0.000063
O59	O	0.425027	-0.024934	-0.079189
H60	H	0.443195	0.005597	-0.140816
H61	H	0.833579	-0.261356	0.000038
H62	H	1.014806	-0.024351	0.422706
O63	O	0.585504	-0.022210	0.080079
H64	H	0.533051	-0.044735	0.119364
O65	O	1.116404	-0.382883	0.000062
H66	H	1.123362	-0.346179	0.060212
O67	O	1.142269	-0.138918	0.000088
H68	H	1.135311	-0.073794	0.000097
O69	O	0.844993	0.157181	0.584355
H70	H	0.803367	0.147631	0.526827
H71	H	0.433211	-0.014032	0.060831
O72	O	0.418591	0.107651	-0.167702
H73	H	0.384141	0.054904	-0.149645
O74	O	0.584762	-0.022516	-0.080089
H75	H	0.531942	-0.045068	-0.118763
O76	O	1.126952	-0.308424	0.000090
H77	H	1.183328	-0.272852	0.000113
O78	O	0.877023	-0.403133	0.000063
H79	H	0.870063	-0.439848	-0.060078
O80	O	0.952639	0.251185	0.585761
H81	H	1.008469	0.245640	0.629436
O82	O	0.577356	0.111739	-0.167279
H83	H	0.525310	0.088914	-0.206925
O84	O	0.953059	0.251865	0.416114
H85	H	0.900461	0.276639	0.375255
H86	H	0.417961	0.211153	-0.088100
H87	H	0.561189	0.214228	-0.087345
H88	H	1.020258	-0.022668	0.575596
H89	H	0.906125	0.011995	0.424032
H90	H	0.422949	0.122217	0.147408
H91	H	0.846938	-0.113400	0.000048
O92	O	0.409359	0.233650	0.084304
H93	H	0.368342	0.243416	0.025560
H94	H	1.159850	-0.524651	0.000077
H95	H	1.146484	-0.672604	0.000071
O96	O	1.111132	0.204507	0.582893
H97	H	1.123908	0.242140	0.524794
H98	H	1.134687	0.079434	0.423797
O99	O	1.150823	0.065872	0.584088
H100	H	1.182781	0.036953	0.526563
O101	O	1.111913	0.203158	0.414139
H102	H	1.114576	0.201704	0.340567
O103	O	0.889133	0.002284	0.585654
H104	H	0.863037	0.049224	0.630141
