data_functionalizedCrystal
_audit_creation_method	'MofGen! by Chris Wilmer'
_symmetry_space_group_name_H-M	'P1'
_symmetry_Int_Tables_number	1
_symmetry_cell_setting	triclinic
loop_
_symmetry_equiv_pos_as_xyz
  x,y,z
_cell_length_a	13.339070
_cell_length_b	15.944551
_cell_length_c	12.376457
_cell_angle_alpha	101.276265
_cell_angle_beta	75.589755
_cell_angle_gamma	99.564016
loop_
_atom_site_label
_atom_site_type_symbol
_atom_site_fract_x
_atom_site_fract_y
_atom_site_fract_z
O1	O	1.361721	0.409519	-0.094056
O2	O	1.067189	0.354248	-0.094048
O3	O	1.222496	0.261484	-0.094042
O4	O	1.206414	0.502283	-0.094062
O5	O	1.183683	0.284634	0.093969
O6	O	1.028376	0.377398	0.093963
O7	O	1.322908	0.432670	0.093955
Zn8	Zn	1.169480	0.408710	0.123810
Zn9	Zn	1.220618	0.378208	-0.123903
O10	O	1.167601	0.525433	0.093949
C11	C	1.010092	0.356487	-0.000041
C12	C	0.897788	0.328657	-0.000038
C13	C	0.533017	0.545045	-0.000074
C14	C	0.638533	0.571195	-0.000081
C15	C	0.703352	0.510563	-0.000069
C16	C	0.662645	0.423776	-0.000053
C17	C	0.557120	0.397623	-0.000055
C18	C	0.727455	0.363140	-0.000050
C19	C	0.686748	0.276354	-0.000033
C20	C	0.581233	0.250205	-0.000035
C21	C	0.516415	0.310837	-0.000046
C22	C	0.832979	0.389294	-0.000048
C23	C	0.857082	0.241871	-0.000029
C24	C	0.751566	0.215722	-0.000022
C25	C	1.202422	0.241610	-0.000036
C26	C	1.200420	0.147897	-0.000036
C27	C	1.099369	-0.090507	-0.000048
C28	C	1.127158	-0.129176	0.092651
C29	C	1.196799	-0.023674	-0.000044
C30	C	1.165448	-0.151979	-0.092713
C31	C	1.193296	-0.189405	-0.000057
C32	C	1.224599	-0.061099	0.092732
C33	C	1.262892	-0.083908	-0.092715
C34	C	1.290747	-0.122540	0.000007
C35	C	1.198814	0.071800	-0.000036
C36	C	1.191287	-0.284874	-0.000058
C37	C	1.380005	0.430431	-0.000054
C38	C	1.492311	0.458260	-0.000065
C39	C	1.187676	0.545308	-0.000059
C40	C	1.189680	0.639019	-0.000067
N41	N	1.134587	0.429527	0.292867
N42	N	1.255518	0.357386	-0.292960
C43	C	1.336516	0.309045	0.647859
C44	C	1.360931	0.294473	0.529520
C45	C	1.304347	0.328235	0.470351
C46	C	1.223343	0.376572	0.529532
C47	C	1.198930	0.391151	0.647883
C48	C	1.166762	0.410341	0.470375
C49	C	1.085758	0.458678	0.529556
C50	C	1.061349	0.473254	0.647895
C51	C	1.117933	0.439492	0.707064
C52	C	1.191175	0.395762	0.352024
C53	C	1.053590	0.477868	0.352048
C54	C	1.029174	0.492440	0.470387
H55	H	1.018478	-0.076032	0.000046
O56	O	1.331185	-0.059871	-0.186244
C57	C	1.277760	-0.026100	-0.249771
H58	H	1.203504	-0.002304	-0.192309
H59	H	1.329896	0.029874	-0.288041
H60	H	1.256681	-0.078559	-0.320330
H61	H	1.140405	-0.191311	-0.171088
H62	H	1.257129	0.356407	0.303849
O63	O	0.919902	0.182849	-0.000066
C64	C	0.861344	0.100644	-0.000033
H65	H	0.789942	0.099226	-0.035633
H66	H	0.911536	0.049929	-0.054611
H67	H	0.835204	0.086305	0.090167
H68	H	0.671671	0.641855	-0.000103
H69	H	1.007515	0.505362	0.303873
O70	O	1.387272	-0.139533	0.000261
C71	C	1.418055	-0.092475	0.098110
H72	H	1.345937	-0.075729	0.166115
H73	H	1.463576	-0.133018	0.130463
H74	H	1.469542	-0.030626	0.076877
O75	O	1.328163	0.313964	0.355398
C76	C	1.411807	0.264079	0.315850
H77	H	1.415390	0.226567	0.384053
H78	H	1.399640	0.217064	0.236691
H79	H	1.488026	0.308264	0.294826
H80	H	1.069769	-0.149237	0.171023
H81	H	0.866111	0.459956	-0.000057
H82	H	0.548096	0.179536	-0.000034
H83	H	1.382585	0.281565	0.696043
O84	O	1.439610	0.247469	0.472211
C85	C	1.484335	0.220812	0.549807
H86	H	1.425457	0.220567	0.634176
H87	H	1.506823	0.153124	0.515617
H88	H	1.556888	0.267186	0.562373
H89	H	0.718409	0.145057	-0.000018
H90	H	1.249577	-0.021853	0.171188
H91	H	1.098051	0.451353	0.803425
O92	O	0.982540	0.520092	0.705332
C93	C	0.888366	0.479501	0.676419
H94	H	0.894581	0.408128	0.643898
H95	H	0.821542	0.486896	0.754258
H96	H	0.872824	0.510657	0.607725
O97	O	0.805814	0.536114	-0.000018
C98	C	0.827850	0.625711	-0.000062
H99	H	0.752866	0.656763	0.035518
H100	H	0.886436	0.654409	0.054526
H101	H	0.862067	0.638410	-0.090264
O102	O	0.469901	0.603830	-0.000037
C103	C	0.368048	0.562130	-0.000069
H104	H	0.356650	0.499595	0.035534
H105	H	0.308970	0.605983	0.054505
H106	H	0.356161	0.547092	-0.090270
O107	O	0.413962	0.285314	-0.000195
C108	C	0.405420	0.224175	-0.097579
H109	H	0.479966	0.192203	-0.130040
H110	H	0.336227	0.173143	-0.075677
H111	H	0.393159	0.257738	-0.165765
O112	O	0.950363	0.539273	0.527832
C113	C	0.856189	0.498681	0.498922
H114	H	0.862409	0.427310	0.466388
H115	H	0.789368	0.506066	0.576764
H116	H	0.840638	0.529842	0.430238
