data_functionalizedCrystal
_audit_creation_method	'MofGen! by Chris Wilmer'
_symmetry_space_group_name_H-M	'P1'
_symmetry_Int_Tables_number	1
_symmetry_cell_setting	triclinic
loop_
_symmetry_equiv_pos_as_xyz
  x,y,z
_cell_length_a	19.805407
_cell_length_b	15.297510
_cell_length_c	19.805399
_cell_angle_alpha	99.651501
_cell_angle_beta	90.019573
_cell_angle_gamma	80.291109
loop_
_atom_site_label
_atom_site_type_symbol
_atom_site_fract_x
_atom_site_fract_y
_atom_site_fract_z
Zn1	Zn	0.988089	0.359189	0.429347
Zn2	Zn	0.968410	0.510058	0.335743
Zn3	Zn	0.874900	0.359214	0.316175
Zn4	Zn	0.855280	0.510010	0.448884
O5	O	0.921670	0.434618	0.382537
O6	O	1.080194	0.379212	0.416943
O7	O	0.955982	0.490079	0.238435
O8	O	0.906361	0.232963	0.314821
O9	O	1.065736	0.490055	0.348173
O10	O	0.989520	0.232945	0.397968
O11	O	0.887280	0.379254	0.224058
O12	O	0.777582	0.379208	0.333765
O13	O	0.872922	0.489973	0.541005
O14	O	0.763167	0.489997	0.431266
O15	O	0.970496	0.379166	0.526651
O16	O	0.936957	0.636300	0.367117
O17	O	0.853841	0.636265	0.450241
C18	C	0.745816	0.434601	0.382513
C19	C	0.670582	0.434615	0.382521
C20	C	0.627739	0.492390	0.433231
C21	C	0.557050	0.492392	0.433241
C22	C	0.529206	0.434622	0.382537
C23	C	0.572055	0.376841	0.331825
C24	C	0.642743	0.376835	0.331819
C25	C	0.286979	0.376861	0.331850
C26	C	0.216285	0.376873	0.331859
C27	C	0.201286	0.492417	0.433272
C28	C	0.271974	0.492412	0.433266
C29	C	0.314818	0.434627	0.382556
C30	C	0.391466	0.434625	0.382547
C31	C	0.452558	0.434628	0.382543
C32	C	0.891153	0.669017	0.412937
C33	C	0.878159	0.769294	0.425965
C34	C	1.014781	1.051906	0.289694
C35	C	1.026988	0.957691	0.277450
C36	C	0.989782	0.910587	0.314578
C37	C	0.940366	0.957708	0.363951
C38	C	0.928154	1.051932	0.376193
C39	C	0.903155	0.910613	0.401077
C40	C	0.853739	0.957734	0.450451
C41	C	0.841529	1.051949	0.462690
C42	C	0.878735	1.099053	0.425562
C43	C	0.915368	0.816389	0.388835
C44	C	0.828741	0.816415	0.475335
C45	C	0.816533	0.910630	0.487579
C46	C	1.098210	0.434636	0.382562
C47	C	1.173441	0.434644	0.382572
C48	C	0.921715	0.434561	0.559072
C49	C	0.921734	0.434537	0.634301
C50	C	0.952318	1.199304	0.352040
C51	C	0.965362	1.099027	0.339063
C52	C	0.921672	0.434610	0.206680
C53	C	0.921817	0.434380	0.131418
C54	C	0.972543	0.376837	0.662172
C55	C	0.972553	0.376810	0.732857
C56	C	0.921757	0.434490	0.775671
C57	C	0.870944	0.492193	0.747795
C58	C	0.870932	0.492214	0.677111
C59	C	0.870993	0.492109	1.032858
C60	C	0.871011	0.492085	1.103547
C61	C	0.972615	0.376705	1.088604
C62	C	0.972602	0.376726	1.017920
C63	C	0.921787	0.434426	0.990050
C64	C	0.921776	0.434452	0.913405
C65	C	0.921771	0.434469	0.852315
H66	H	0.955603	0.778031	0.348635
O67	O	0.821747	0.548213	1.145179
C68	C	0.796793	0.669958	1.240795
C69	C	0.852646	0.606466	1.193688
H70	H	0.821754	0.717058	1.280035
H71	H	0.760475	0.711265	1.208772
H72	H	0.766797	0.628503	1.268482
H73	H	0.882691	0.647851	1.165991
H74	H	0.888916	0.565155	1.225747
H75	H	0.868800	1.175770	0.435530
O76	O	0.299040	0.548622	0.482436
C77	C	0.363038	0.670391	0.507187
C78	C	0.332407	0.606808	0.451431
H79	H	0.390035	0.717438	0.482140
H80	H	0.320297	0.711751	0.543433
H81	H	0.401503	0.629004	0.537270
H82	H	0.293951	0.648125	0.421298
H83	H	0.375186	0.565446	0.415232
O84	O	1.022057	0.320743	1.115660
C85	C	1.142901	0.276920	1.131598
C86	C	1.086978	0.340363	1.100939
H87	H	1.195403	0.292748	1.119695
H88	H	1.134245	0.286810	1.189480
H89	H	1.140456	0.204184	1.108273
H90	H	1.089391	0.413124	1.124210
H91	H	1.095653	0.330396	1.043056
O92	O	1.050856	1.097801	0.253693
C93	C	1.070349	1.242947	0.234141
C94	C	1.029466	1.191083	0.274990
H95	H	1.053060	1.318374	0.251334
H96	H	1.127344	1.224447	0.243645
H97	H	1.060877	1.224405	0.177161
H98	H	1.038881	1.209597	0.331982
H99	H	0.972485	1.209587	0.265428
H100	H	0.522169	0.539439	0.474534
O101	O	1.021894	0.320633	0.759835
C102	C	1.074724	0.167163	0.761589
C103	C	1.018825	0.230689	0.730974
H104	H	1.072253	0.094429	0.738278
H105	H	1.127253	0.182947	0.749732
H106	H	1.066019	0.177089	0.819465
H107	H	1.027465	0.220798	0.673094
H108	H	0.966315	0.214889	0.742885
H109	H	0.166395	0.539464	0.474565
H110	H	0.677626	0.329784	0.290528
H111	H	0.193618	0.329824	0.290569
O112	O	0.821640	0.548400	0.650079
C113	C	0.768778	0.701867	0.648359
C114	C	0.824640	0.638338	0.679017
H115	H	0.771175	0.774594	0.671753
H116	H	0.777492	0.692049	0.590488
H117	H	0.716274	0.685977	0.660172
H118	H	0.877167	0.654189	0.667255
H119	H	0.815866	0.648168	0.736880
H120	H	0.829584	0.539153	0.782659
O121	O	0.821595	0.548230	1.005905
C122	C	0.720771	0.662601	1.028183
C123	C	0.776693	0.599111	1.058803
H124	H	0.684445	0.703741	1.070935
H125	H	0.745634	0.709856	1.001229
H126	H	0.690807	0.621152	0.989702
H127	H	0.806676	0.640487	1.097312
H128	H	0.751788	0.551853	1.085715
H129	H	0.321853	0.329816	0.290554
H130	H	0.999724	0.833873	0.304605
O131	O	0.793606	1.097820	0.510695
C132	C	0.770682	1.204085	0.615906
C133	C	0.825020	1.152212	0.561581
H134	H	0.796061	1.248059	0.657068
H135	H	0.729584	1.248321	0.590585
H136	H	0.746177	1.154219	0.640306
H137	H	0.849577	1.202013	0.537161
H138	H	0.866075	1.107962	0.586938
H139	H	0.776298	0.949009	0.527779
H140	H	0.798443	0.778063	0.505566
H141	H	0.549379	0.329800	0.290544
O142	O	1.075037	0.912061	0.229493
C143	C	1.159645	0.921984	0.144966
C144	C	1.105256	0.973773	0.199269
H145	H	1.184083	0.971855	0.120505
H146	H	1.200785	0.877834	0.170307
H147	H	1.134294	0.877910	0.103848
H148	H	1.130547	1.017895	0.240403
H149	H	1.064122	1.017865	0.173878
H150	H	1.013967	0.329761	0.983064
H151	H	0.650403	0.539436	0.474518
H152	H	1.013908	0.329870	0.627318
