data_functionalizedCrystal
_audit_creation_method	'MofGen! by Chris Wilmer'
_symmetry_space_group_name_H-M	'P1'
_symmetry_Int_Tables_number	1
_symmetry_cell_setting	triclinic
loop_
_symmetry_equiv_pos_as_xyz
  x,y,z
_cell_length_a	19.188930
_cell_length_b	14.044220
_cell_length_c	12.503572
_cell_angle_alpha	93.843168
_cell_angle_beta	86.479840
_cell_angle_gamma	88.166828
loop_
_atom_site_label
_atom_site_type_symbol
_atom_site_fract_x
_atom_site_fract_y
_atom_site_fract_z
O1	O	0.937478	0.112788	-0.089673
O2	O	1.437478	0.612788	0.410327
O3	O	0.735191	0.128718	-0.089600
O4	O	1.235191	0.628718	0.410400
O5	O	0.833298	-0.017218	-0.089625
O6	O	1.333298	0.482782	0.410375
O7	O	0.839371	0.258724	-0.089648
O8	O	1.339371	0.758724	0.410352
O9	O	0.825920	-0.006225	0.089019
O10	O	1.325920	0.493775	0.589019
O11	O	0.727814	0.139712	0.089044
O12	O	1.227814	0.639712	0.589044
O13	O	0.930100	0.123781	0.088971
O14	O	1.430100	0.623781	0.588971
Cu15	Cu	0.828284	0.132750	0.105319
Cu16	Cu	1.328284	0.632750	0.605319
Cu17	Cu	0.837008	0.119749	-0.105948
Cu18	Cu	1.337008	0.619749	0.394052
O19	O	0.831994	0.269718	0.088996
O20	O	1.331994	0.769718	0.588996
C21	C	0.826951	-0.047025	-0.000302
C22	C	1.326951	0.452975	0.499698
C23	C	0.819022	-0.152218	-0.000297
C24	C	1.319022	0.347782	0.499703
C25	C	0.705458	0.133700	-0.000269
C26	C	1.205458	0.633700	0.499731
C27	C	0.627852	0.132153	-0.000240
C28	C	1.127852	0.632153	0.499760
C29	C	0.804527	-0.344819	-0.000308
C30	C	1.304527	0.155181	0.499692
C31	C	0.860762	-0.402687	-0.000331
C32	C	1.360762	0.097313	0.499669
C33	C	0.852697	-0.509858	-0.000337
C34	C	1.352697	-0.009858	0.499663
C35	C	0.812591	-0.237639	-0.000302
C36	C	1.312591	0.262361	0.499698
C37	C	0.588455	0.217782	-0.000265
C38	C	1.088455	0.717782	0.499735
C39	C	0.515538	0.216327	-0.000276
C40	C	1.015538	0.716327	0.499724
C41	C	0.482022	0.129237	-0.000285
C42	C	0.982022	0.629237	0.499715
C43	C	0.521428	0.043597	-0.000255
C44	C	1.021428	0.543597	0.499745
C45	C	0.594343	0.045056	-0.000233
C46	C	1.094343	0.545056	0.499767
N47	N	0.372258	0.058924	-0.061123
N48	N	0.872258	0.558924	0.438877
N49	N	0.302991	0.057544	-0.061147
N50	N	0.802991	0.557544	0.438853
C51	C	0.262332	0.124838	-0.000351
C52	C	0.762332	0.624838	0.499649
N53	N	0.293556	0.193577	0.060457
N54	N	0.793556	0.693577	0.560457
N55	N	0.362829	0.194959	0.060475
N56	N	0.862829	0.694959	0.560475
C57	C	0.402958	0.127646	-0.000309
C58	C	0.902958	0.627646	0.499691
C59	C	0.143870	0.208894	-0.000386
C60	C	0.643870	0.708894	0.499614
C61	C	0.070951	0.207436	-0.000391
C62	C	0.570951	0.707436	0.499609
C63	C	0.076843	0.034704	-0.000381
C64	C	0.576843	0.534704	0.499619
C65	C	0.149759	0.036165	-0.000365
C66	C	0.649759	0.536165	0.499635
C67	C	0.183269	0.123263	-0.000373
C68	C	0.683269	0.623263	0.499627
C69	C	0.959834	0.118799	-0.000363
C70	C	1.459834	0.618799	0.499637
C71	C	1.037440	0.120345	-0.000398
C72	C	1.537440	0.620345	0.499602
C73	C	0.838341	0.299524	-0.000330
C74	C	1.338341	0.799524	0.499670
C75	C	0.846270	0.404716	-0.000341
C76	C	1.346270	0.904716	0.499659
N77	N	0.822152	0.141894	0.253913
N78	N	1.322152	0.641894	0.753913
N79	N	0.843144	0.110598	-0.254542
N80	N	1.343144	0.610598	0.245458
C81	C	0.813134	0.155352	0.473030
C82	C	1.313134	0.655352	0.973030
C83	C	0.852161	0.097143	0.526347
C84	C	1.352161	0.597143	1.026347
C85	C	0.847142	0.104631	0.648272
C86	C	1.347142	0.604631	1.148272
C87	C	0.818151	0.147865	0.351095
C88	C	1.318151	0.647865	0.851095
H89	H	0.914967	-0.371747	-0.000423
H90	H	1.414967	0.128253	0.499577
H91	H	0.171153	0.279816	-0.000376
H92	H	0.671153	0.779816	0.499624
H93	H	0.750329	-0.375763	-0.000291
H94	H	1.250329	0.124237	0.499709
N95	N	0.763894	0.228815	0.533857
N96	N	1.263894	0.728815	1.033857
H97	H	0.776999	0.294832	0.514345
H98	H	1.276999	0.794832	1.014345
H99	H	0.714462	0.216933	0.514367
H100	H	1.214462	0.716933	1.014367
N101	N	0.624597	0.311718	-0.000281
N102	N	1.124597	0.811718	0.499719
H103	H	0.588570	0.365743	-0.000300
H104	H	1.088570	0.865743	0.499700
H105	H	0.651970	0.320171	0.065951
H106	H	1.151970	0.820171	0.565951
H107	H	0.483454	0.286058	-0.000293
H108	H	0.983454	0.786058	0.499707
H109	H	0.494135	-0.027313	-0.000277
H110	H	0.994135	0.472687	0.499723
H111	H	0.626420	-0.024676	-0.000214
H112	H	1.126420	0.475324	0.499786
H113	H	0.038874	0.277168	-0.000404
H114	H	0.538874	0.777168	0.499596
H115	H	0.049557	-0.036211	-0.000455
H116	H	0.549557	0.463789	0.499545
N117	N	0.192258	-0.056192	-0.000339
N118	N	0.692258	0.443808	0.499661
H119	H	0.159963	-0.111586	-0.000345
H120	H	0.659963	0.388414	0.499655
H121	H	0.225394	-0.063427	-0.066553
H122	H	0.725394	0.436573	0.433447
N123	N	0.901413	0.023679	0.465530
N124	N	1.401413	0.523679	0.965530
H125	H	0.898065	0.028674	0.385790
H126	H	1.398065	0.528674	0.885790
H127	H	0.950834	0.035532	0.485094
H128	H	1.450834	0.535532	0.985094
