data_functionalizedCrystal
_audit_creation_method	'MofGen! by Chris Wilmer'
_symmetry_space_group_name_H-M	'P1'
_symmetry_Int_Tables_number	1
_symmetry_cell_setting	triclinic
loop_
_symmetry_equiv_pos_as_xyz
  x,y,z
_cell_length_a	13.032831
_cell_length_b	17.638516
_cell_length_c	13.032268
_cell_angle_alpha	73.350529
_cell_angle_beta	89.113023
_cell_angle_gamma	95.492986
loop_
_atom_site_label
_atom_site_type_symbol
_atom_site_fract_x
_atom_site_fract_y
_atom_site_fract_z
Zn1	Zn	1.341099	-0.530358	0.902480
Zn2	Zn	1.328120	-0.647365	0.757336
Zn3	Zn	1.200692	-0.497552	0.701196
Zn4	Zn	1.135628	-0.643119	0.906488
O5	O	1.251385	-0.579598	0.816875
O6	O	1.478696	-0.561386	0.905044
O7	O	1.333014	-0.615539	0.603231
O8	O	1.251978	-0.392016	0.702724
O9	O	1.469161	-0.647350	0.798408
O10	O	1.355135	-0.416119	0.850606
O11	O	1.239394	-0.505472	0.561985
O12	O	1.052742	-0.501355	0.706611
O13	O	1.141086	-0.640113	1.052614
O14	O	1.004940	-0.608302	0.857438
O15	O	1.292045	-0.557269	1.049669
O16	O	1.269925	-0.756689	0.802294
O17	O	1.128502	-0.753569	0.911875
C18	C	0.992717	-0.550809	0.776368
C19	C	0.882048	-0.538513	0.759068
C20	C	0.809076	-0.586016	0.825904
C21	C	0.694694	-0.573309	0.808025
C22	C	1.190768	-0.783627	0.863639
C23	C	1.164922	-0.870924	0.883694
C24	C	1.448322	-1.166070	0.664692
C25	C	1.424016	-1.248098	0.683551
C26	C	1.276661	-1.244874	0.797535
C27	C	1.300952	-1.162843	0.778681
C28	C	1.386785	-1.123447	0.712260
C29	C	1.239414	-1.120220	0.826249
C30	C	1.263707	-1.038197	0.807401
C31	C	1.349537	-0.998796	0.740985
C32	C	1.411077	-1.041424	0.693412
C33	C	1.153587	-1.159618	0.892676
C34	C	1.092049	-1.116996	0.940244
C35	C	1.116337	-1.034970	0.921390
C36	C	1.202167	-0.995569	0.854974
C37	C	1.054797	-0.992342	0.968963
C38	C	1.079089	-0.910319	0.950115
C39	C	1.226460	-0.913546	0.836126
C40	C	1.511062	-0.608501	0.857541
C41	C	1.621722	-0.620818	0.874870
C42	C	1.210756	-0.601877	1.090232
C43	C	1.193442	-0.611371	1.206720
C44	C	1.312262	-0.374778	0.769956
C45	C	1.338204	-0.287496	0.749962
C46	C	1.291930	-0.557356	0.544577
C47	C	1.309502	-0.547663	0.428069
C48	C	1.260414	-0.574614	1.257198
C49	C	1.242521	-0.584425	1.377595
H50	H	0.643921	-0.670893	0.945337
H51	H	0.859842	-0.488435	0.688615
C52	C	0.997635	-1.160336	1.013302
C53	C	0.889065	-1.135839	0.984349
C54	C	0.794648	-1.179177	1.057405
C55	C	0.808801	-1.247013	1.159415
C56	C	0.917375	-1.271515	1.188373
C57	C	1.011792	-1.228176	1.115317
H58	H	0.878584	-1.085619	0.908831
H59	H	0.714274	-1.161040	1.035968
H60	H	0.738908	-1.279095	1.213495
H61	H	0.927856	-1.321734	1.263891
H62	H	1.092166	-1.246314	1.136754
C63	C	1.011400	-0.863425	1.002432
C64	C	0.956724	-0.794698	0.931767
C65	C	0.889037	-0.747803	0.984088
C66	C	0.876026	-0.769635	1.107074
C67	C	0.930703	-0.838365	1.177747
C68	C	0.998390	-0.885261	1.125426
H69	H	0.966354	-0.778533	0.840718
H70	H	0.848561	-0.696924	0.931771
H71	H	0.825920	-0.734920	1.145805
H72	H	0.921073	-0.854530	1.268795
H73	H	1.038866	-0.936140	1.177743
C74	C	0.664713	-0.505653	0.712834
C75	C	0.704127	-0.418669	0.703323
C76	C	0.674144	-0.351015	0.608134
C77	C	0.604748	-0.370345	0.522456
C78	C	0.565330	-0.457334	0.531964
C79	C	0.595313	-0.524988	0.627153
H80	H	0.755502	-0.404356	0.766750
H81	H	0.703324	-0.286621	0.601097
H82	H	0.582553	-0.320264	0.451991
H83	H	0.513955	-0.471647	0.468537
H84	H	0.566133	-0.589382	0.634190
H85	H	1.171927	-0.623155	1.423506
H86	H	1.296347	-0.881468	0.782030
C87	C	1.376278	-0.908569	0.720225
C88	C	1.400254	-0.874436	0.814557
C89	C	1.427001	-0.784209	0.793786
C90	C	1.429772	-0.728114	0.678684
C91	C	1.405794	-0.762245	0.584345
C92	C	1.379047	-0.852473	0.605116
H93	H	1.398204	-0.915962	0.899769
H94	H	1.444751	-0.758943	0.863622
H95	H	1.449571	-0.661322	0.663309
H96	H	1.407844	-0.720720	0.499133
H97	H	1.361298	-0.877739	0.535279
H98	H	1.480965	-1.009346	0.639316
C99	C	1.182246	-1.288210	0.870594
C100	C	1.175914	-1.287489	0.988397
C101	C	1.081496	-1.330822	1.061455
C102	C	0.993408	-1.374875	1.016710
C103	C	0.999737	-1.375598	0.898901
C104	C	1.094156	-1.332266	0.825843
H105	H	1.241125	-1.254876	1.021525
H106	H	1.076811	-1.330286	1.148665
H107	H	0.923514	-1.406953	1.070791
H108	H	0.934527	-1.408211	0.865773
H109	H	1.098840	-1.332801	0.738633
H110	H	0.831283	-0.636089	0.896363
H111	H	1.474137	-1.282799	0.644815
H112	H	1.518210	-1.133991	0.610596
H113	H	1.330995	-0.535878	1.211279
C114	C	0.960389	-1.035686	1.042029
C115	C	0.851814	-1.011196	1.013089
C116	C	0.757406	-1.054539	1.086157
C117	C	0.771574	-1.122372	1.188166
C118	C	0.880154	-1.146865	1.217111
C119	C	0.974562	-1.103522	1.144043
H120	H	0.841322	-0.960979	0.937572
H121	H	0.677028	-1.036407	1.064729
H122	H	0.701687	-1.154457	1.242255
H123	H	0.890646	-1.197082	1.292628
H124	H	1.054940	-1.121654	1.165471
C125	C	1.404866	-0.495330	1.366056
C126	C	1.391158	-0.422785	1.269903
C127	C	1.486520	-0.370452	1.207891
C128	C	1.595589	-0.390664	1.242032
C129	C	1.609301	-0.463213	1.338190
C130	C	1.513940	-0.515546	1.400202
H131	H	1.310415	-0.407819	1.244625
H132	H	1.476368	-0.316746	1.136708
H133	H	1.666181	-0.351924	1.196127
H134	H	1.690045	-0.478179	1.363468
H135	H	1.524091	-0.569251	1.471385
C136	C	1.098083	-0.663699	1.268741
C137	C	1.081879	-0.752663	1.275516
C138	C	0.986518	-0.804993	1.337534
C139	C	0.907361	-0.768357	1.392776
C140	C	0.923562	-0.679388	1.386003
C141	C	1.018923	-0.627058	1.323985
H142	H	1.140479	-0.779787	1.234621
H143	H	0.974525	-0.870854	1.342548
H144	H	0.836769	-0.807094	1.438685
H145	H	0.864963	-0.652263	1.426898
H146	H	1.030916	-0.561197	1.318972
H147	H	1.133814	-1.226408	0.908025
