data_functionalizedCrystal
_audit_creation_method	'MofGen! by Chris Wilmer'
_symmetry_space_group_name_H-M	'P1'
_symmetry_Int_Tables_number	1
_symmetry_cell_setting	triclinic
loop_
_symmetry_equiv_pos_as_xyz
  x,y,z
_cell_length_a	11.169417
_cell_length_b	18.050589
_cell_length_c	11.169409
_cell_angle_alpha	90.032792
_cell_angle_beta	90.020564
_cell_angle_gamma	90.029099
loop_
_atom_site_label
_atom_site_type_symbol
_atom_site_fract_x
_atom_site_fract_y
_atom_site_fract_z
Zn1	Zn	1.834822	-0.295582	0.678538
Zn2	Zn	1.834646	-0.419797	0.477854
Zn3	Zn	1.634105	-0.295627	0.477873
Zn4	Zn	1.634053	-0.419737	0.678498
O5	O	1.734407	-0.357686	0.578191
O6	O	2.002748	-0.312066	0.651926
O7	O	1.807992	-0.403370	0.309906
O8	O	1.660826	-0.191697	0.504516
O9	O	2.002619	-0.403326	0.504483
O10	O	1.808292	-0.191664	0.651945
O11	O	1.660656	-0.312143	0.309920
O12	O	1.466149	-0.312085	0.504478
O13	O	1.660737	-0.403223	0.846454
O14	O	1.466110	-0.403267	0.651876
O15	O	1.808241	-0.312008	0.846483
O16	O	1.807941	-0.523714	0.504445
O17	O	1.660566	-0.523670	0.651858
C18	C	1.422582	-0.357675	0.578175
C19	C	1.289182	-0.357688	0.578197
C20	C	1.734262	-0.550638	0.578171
C21	C	1.734309	-0.633184	0.578202
C22	C	1.654246	-0.832637	0.658338
C23	C	1.624981	-0.882089	0.548822
C24	C	1.734427	-0.784314	0.578218
C25	C	1.763751	-0.881944	0.687746
C26	C	1.734539	-0.930299	0.578243
C27	C	1.705105	-0.832679	0.468645
C28	C	1.843926	-0.832530	0.607642
C29	C	1.814703	-0.881959	0.498052
C30	C	1.734360	-0.700216	0.578205
C31	C	1.734607	-1.014396	0.578243
C32	C	2.047449	-0.357698	0.578207
C33	C	2.180849	-0.357703	0.578214
C34	C	1.734503	-0.357604	0.891233
C35	C	1.734544	-0.357569	1.024633
C36	C	1.734585	-0.163980	0.578237
C37	C	1.734661	-0.081435	0.578257
C38	C	1.734380	-0.357714	0.266366
C39	C	1.734571	-0.357540	0.132967
H40	H	1.532434	-0.903874	0.523958
H41	H	1.882558	-0.903479	0.430230
H42	H	1.586339	-0.810980	0.725996
H43	H	1.680241	-0.811127	0.376003
O44	O	1.793506	-0.907726	0.798199
C45	C	1.908087	-0.881376	0.829843
H46	H	1.960110	-0.866753	0.745298
H47	H	1.958189	-0.926140	0.881492
H48	H	1.898618	-0.829930	0.888326
O49	O	1.954364	-0.806661	0.637436
C50	C	2.031653	-0.866880	0.659372
H51	H	1.976554	-0.917786	0.684157
H52	H	2.094652	-0.852481	0.736274
H53	H	2.086250	-0.879068	0.575428
