data_functionalizedCrystal
_audit_creation_method	'MofGen! by Chris Wilmer'
_symmetry_space_group_name_H-M	'P1'
_symmetry_Int_Tables_number	1
_symmetry_cell_setting	triclinic
loop_
_symmetry_equiv_pos_as_xyz
  x,y,z
_cell_length_a	12.759395
_cell_length_b	15.297327
_cell_length_c	15.299447
_cell_angle_alpha	88.407023
_cell_angle_beta	99.694320
_cell_angle_gamma	99.708038
loop_
_atom_site_label
_atom_site_type_symbol
_atom_site_fract_x
_atom_site_fract_y
_atom_site_fract_z
Zn1	Zn	1.665186	-0.262954	0.555547
Zn2	Zn	1.605987	-0.434801	0.434405
Zn3	Zn	1.454843	-0.288343	0.409094
Zn4	Zn	1.465025	-0.409401	0.580835
O5	O	1.547760	-0.348875	0.494970
O6	O	1.804355	-0.285755	0.539486
O7	O	1.556901	-0.436629	0.308475
O8	O	1.503259	-0.162394	0.407345
O9	O	1.760862	-0.412010	0.450484
O10	O	1.657797	-0.143741	0.514943
O11	O	1.445857	-0.329027	0.289879
O12	O	1.309172	-0.304397	0.431866
O13	O	1.520613	-0.368719	0.700054
O14	O	1.316653	-0.393338	0.558044
O15	O	1.667671	-0.261125	0.681474
O16	O	1.566774	-0.554014	0.475006
O17	O	1.463211	-0.535352	0.582588
C18	C	1.274791	-0.348867	0.494953
C19	C	1.158015	-0.348881	0.494970
C20	C	1.165770	-0.441708	0.626210
C21	C	1.114787	-0.488127	0.691833
C22	C	1.005066	-0.488136	0.691846
C23	C	0.946326	-0.441718	0.626229
C24	C	0.997310	-0.395298	0.560606
C25	C	1.107033	-0.395297	0.560599
C26	C	0.989557	-0.302468	0.429372
C27	C	1.099276	-0.302463	0.429354
C28	C	0.930817	-0.256050	0.363756
C29	C	0.981799	-0.209634	0.298127
C30	C	1.091527	-0.209628	0.298117
C31	C	1.150260	-0.256043	0.363731
C32	C	1.509707	-0.576464	0.534307
C33	C	1.493530	-0.673822	0.551164
C34	C	1.663880	-0.986971	0.374786
C35	C	1.679078	-0.895499	0.358943
C36	C	1.632692	-0.840075	0.406997
C37	C	1.571107	-0.876133	0.470896
C38	C	1.555901	-0.967615	0.486736
C39	C	1.524713	-0.820719	0.518947
C40	C	1.463127	-0.856776	0.582847
C41	C	1.447925	-0.948249	0.598684
C42	C	1.494310	-1.003673	0.550630
C43	C	1.539919	-0.729237	0.503107
C44	C	1.431939	-0.709880	0.615058
C45	C	1.416742	-0.801353	0.630901
C46	C	1.821796	-0.348884	0.494988
C47	C	1.938573	-0.348887	0.494995
C48	C	1.601881	-0.309257	0.723434
C49	C	1.624944	-0.292374	0.820792
C50	C	1.585996	-0.120394	0.455499
C51	C	1.602290	-0.023030	0.438679
C52	C	1.493921	-0.388276	0.267384
C53	C	1.471103	-0.404912	0.169984
C54	C	1.383698	-0.468860	1.133921
C55	C	1.362020	-0.484718	1.042448
C56	C	1.427749	-0.436634	0.987030
C57	C	1.515160	-0.372688	1.023093
C58	C	1.536836	-0.356824	1.114575
C59	C	1.580887	-0.324598	0.967683
C60	C	1.668298	-0.260652	1.003746
C61	C	1.689970	-0.244791	1.095219
C62	C	1.624241	-0.292876	1.150637
C63	C	1.559211	-0.340462	0.876202
C64	C	1.712349	-0.228426	0.856855
C65	C	1.734028	-0.212568	0.948328
H66	H	1.133033	-0.171820	0.244683
H67	H	1.590062	-0.699887	0.451080
H68	H	1.410094	-0.449550	0.912549
O69	O	1.709086	-1.040718	0.328138
C70	C	1.873131	-1.076046	0.290604
C71	C	1.822084	-1.015091	0.343466
H72	H	1.964499	-1.055362	0.302993
H73	H	1.841073	-1.070341	0.216839
H74	H	1.851605	-1.147612	0.312896
H75	H	1.843589	-0.943501	0.321250
H76	H	1.854142	-1.020873	0.417222
H77	H	1.290856	-0.536789	1.013093
H78	H	1.729219	-0.866145	0.306916
H79	H	0.933967	-0.171839	0.244711
H80	H	1.394166	-0.664755	0.654186
H81	H	1.481943	-1.078158	0.563528
O82	O	1.819057	-0.150549	0.983341
C83	C	2.011511	-0.103153	1.003955
C84	C	1.915318	-0.173463	0.964276
H85	H	2.089359	-0.121644	0.988539
H86	H	2.015800	-0.100080	1.078864
H87	H	2.000570	-0.035639	0.973781
H88	H	1.926191	-0.241013	0.994381
H89	H	1.911057	-0.176459	0.889365
H90	H	1.641890	-0.279971	1.225124
H91	H	1.765869	-0.189269	0.811732
H92	H	1.397763	-0.977606	0.650705
H93	H	0.963557	-0.525930	0.745285
O94	O	1.171993	-0.533204	0.755481
C95	C	1.344474	-0.574299	0.813659
C96	C	1.279816	-0.523232	0.741514
H97	H	1.431666	-0.566239	0.802402
H98	H	1.307494	-0.647615	0.810360
H99	H	1.342138	-0.546795	0.881670
H100	H	1.282127	-0.550661	0.673468
H101	H	1.316815	-0.449921	0.744891
O102	O	1.356906	-0.836534	0.692908
C103	C	1.285692	-0.968879	0.766956
C104	C	1.353458	-0.929155	0.696694
H105	H	1.282901	-1.043766	0.770053
H106	H	1.200274	-0.953706	0.748423
H107	H	1.323799	-0.938554	0.834459
H108	H	1.315446	-0.959457	0.629166
H109	H	1.438871	-0.944320	0.715303
H110	H	1.488034	-0.392521	0.846847
H111	H	0.856989	-0.441720	0.626252
O112	O	1.647605	-0.751233	0.391530
C113	C	1.728618	-0.630589	0.307338
C114	C	1.711828	-0.731219	0.324779
H115	H	1.780524	-0.614379	0.253357
H116	H	1.770631	-0.593907	0.370844
H117	H	1.647053	-0.608990	0.284862
H118	H	1.793346	-0.752900	0.347230
H119	H	1.669764	-0.767843	0.261255
H120	H	1.330187	-0.508001	1.179050
H121	H	1.255109	-0.441713	0.626201
H122	H	0.841479	-0.256056	0.363774
H123	H	1.239599	-0.256046	0.363727
O124	O	1.774947	-0.182667	1.130112
C125	C	1.924513	-0.073181	1.101259
C126	C	1.828329	-0.143524	1.061632
H127	H	1.967686	-0.041500	1.045910
H128	H	1.982935	-0.105937	1.151005
H129	H	1.894074	-0.019981	1.136202
H130	H	1.858670	-0.196744	1.026644
H131	H	1.769927	-0.110703	1.011932
