data_functionalizedCrystal
_audit_creation_method	'MofGen! by Chris Wilmer'
_symmetry_space_group_name_H-M	'P1'
_symmetry_Int_Tables_number	1
_symmetry_cell_setting	triclinic
loop_
_symmetry_equiv_pos_as_xyz
  x,y,z
_cell_length_a	12.759393
_cell_length_b	13.032831
_cell_length_c	13.032721
_cell_angle_alpha	90.902885
_cell_angle_beta	82.851972
_cell_angle_gamma	97.193671
loop_
_atom_site_label
_atom_site_type_symbol
_atom_site_fract_x
_atom_site_fract_y
_atom_site_fract_z
Zn1	Zn	-0.865594	-1.520295	0.609321
Zn2	Zn	-0.365594	-1.020295	1.109321
Zn3	Zn	-0.709061	-1.498327	0.781309
Zn4	Zn	-0.209061	-0.998327	1.281309
Zn5	Zn	-0.665218	-1.348301	0.587502
Zn6	Zn	-0.165218	-0.848301	1.087502
Zn7	Zn	-0.859985	-1.326443	0.759369
Zn8	Zn	-0.359985	-0.826443	1.259369
O9	O	-0.774964	-1.423341	0.684375
O10	O	-0.274964	-0.923341	1.184375
O11	O	-0.865525	-1.661295	0.650450
O12	O	-0.365525	-1.161295	1.150450
O13	O	-0.556224	-1.478380	0.755651
O14	O	-0.056224	-0.978380	1.255651
O15	O	-0.675797	-1.389457	0.446492
O16	O	-0.175797	-0.889457	0.946492
O17	O	-0.750521	-1.645156	0.776809
O18	O	-0.250521	-1.145156	1.276809
O19	O	-0.823013	-1.515821	0.462522
O20	O	-0.323013	-1.015821	0.962522
O21	O	-0.524013	-1.368156	0.613262
O22	O	-0.024013	-0.868156	1.113262
O23	O	-0.670358	-1.201487	0.591987
O24	O	-0.170358	-0.701487	1.091987
O25	O	-1.007749	-1.352203	0.739414
O26	O	-0.507749	-0.852203	1.239414
O27	O	-0.813453	-1.185428	0.718256
O28	O	-0.313453	-0.685428	1.218256
O29	O	-1.011870	-1.494626	0.629175
O30	O	-0.511870	-0.994626	1.129175
O31	O	-0.745082	-1.457185	0.922303
O32	O	-0.245082	-0.957185	1.422303
O33	O	-0.855965	-1.330902	0.906184
O34	O	-0.355965	-0.830902	1.406184
C35	C	-0.736540	-1.156142	0.650374
C36	C	-0.236540	-0.656142	1.150374
C37	C	-0.720129	-1.041829	0.635852
C38	C	-0.220129	-0.541829	1.135852
C39	C	-0.804699	-1.389316	0.951560
C40	C	-0.304699	-0.889316	1.451560
C41	C	-0.817469	-1.374854	1.065875
C42	C	-0.317469	-0.874854	1.565875
C43	C	-1.048996	-1.423427	0.684281
C44	C	-0.548996	-0.923427	1.184281
C45	C	-1.165773	-1.423463	0.684240
C46	C	-0.665773	-0.923463	1.184240
C47	C	-1.222783	-1.497632	0.626834
C48	C	-0.722783	-0.997632	1.126834
C49	C	-1.332506	-1.497661	0.626800
C50	C	-0.832506	-0.997661	1.126800
C51	C	-1.328200	-1.349348	0.741587
C52	C	-0.828200	-0.849348	1.241587
C53	C	-1.218478	-1.349315	0.741615
C54	C	-0.718478	-0.849315	1.241615
C55	C	-1.170078	-1.571780	0.569459
C56	C	-0.670078	-1.071780	1.069459
C57	C	-1.227089	-1.645956	0.512049
C58	C	-0.727089	-1.145956	1.012049
C59	C	-1.336812	-1.645985	0.512015
C60	C	-0.836812	-1.145985	1.012015
C61	C	-1.389525	-1.571838	0.569391
C62	C	-0.889525	-1.071838	1.069391
C63	C	-0.501998	-1.423325	0.684403
C64	C	-0.001998	-0.923325	1.184403
C65	C	-0.385219	-1.423525	0.684179
C66	C	0.114781	-0.923525	1.184179
C67	C	-0.813539	-1.691584	0.718511
C68	C	-0.313539	-1.191584	1.218511
C69	C	-0.829978	-1.805893	0.733057
C70	C	-0.329978	-1.305893	1.233057
C71	C	-0.783529	-0.982934	0.691954
C72	C	-0.283529	-0.482934	1.191954
C73	C	-0.766569	-0.864787	0.676947
C74	C	-0.266569	-0.364787	1.176947
C75	C	-0.745140	-1.457528	0.416151
C76	C	-0.245140	-0.957528	0.916151
C77	C	-0.732431	-1.472096	0.301850
C78	C	-0.232431	-0.972096	0.801850
C79	C	-0.768355	-1.430944	1.124788
C80	C	-0.268355	-0.930944	1.624788
C81	C	-0.781551	-1.415998	1.242938
C82	C	-0.281551	-0.915998	1.742938
H83	H	-1.080736	-1.571766	0.569483
H84	H	-0.580736	-1.071766	1.069483
C85	C	-0.662420	-1.551925	1.251833
C86	C	-0.162420	-1.051925	1.751833
N87	N	-0.609687	-1.612049	1.214159
N88	N	-0.109687	-1.112049	1.714159
C89	C	-1.169101	-1.727508	0.448933
C90	C	-0.669101	-1.227508	0.948933
N91	N	-1.125426	-1.788935	0.401393
N92	N	-0.625426	-1.288935	0.901393
C93	C	-0.873820	-1.032977	0.771856
C94	C	-0.373820	-0.532977	1.271856
N95	N	-0.941827	-1.070667	0.832042
N96	N	-0.441827	-0.570667	1.332042
C97	C	-1.510224	-1.571870	0.569345
C98	C	-1.010224	-1.071870	1.069345
N99	N	-1.601133	-1.571898	0.569312
N100	N	-1.101133	-1.071898	1.069312
H101	H	-1.172055	-1.288906	0.788343
H102	H	-0.672055	-0.788906	1.288343
H103	H	-0.869292	-1.315772	1.102907
H104	H	-0.369292	-0.815772	1.602907
C105	C	-0.920276	-0.855929	0.812961
C106	C	-0.420276	-0.355929	1.312961
N107	N	-0.988287	-0.893617	0.873145
N108	N	-0.488287	-0.393617	1.373145
C109	C	-0.629837	-0.991787	0.555952
C110	C	-0.129837	-0.491787	1.055952
N111	N	-0.561826	-0.954097	0.495770
N112	N	-0.061826	-0.454097	0.995770
H113	H	-0.833378	-1.356912	1.279966
H114	H	-0.333378	-0.856912	1.779966
H115	H	-0.699734	-0.827745	0.617798
H116	H	-0.199734	-0.327745	1.117798
H117	H	-1.383225	-1.706376	0.465260
H118	H	-0.883225	-1.206376	0.965260
H119	H	-1.371128	-1.288981	0.788300
H120	H	-0.871128	-0.788981	1.288300
C121	C	-0.698348	-1.510767	1.074764
C122	C	-0.198348	-1.010767	1.574764
N123	N	-0.645615	-1.570890	1.037088
N124	N	-0.145615	-1.070890	1.537088
