data_functionalizedCrystal
_audit_creation_method	'MofGen! by Chris Wilmer'
_symmetry_space_group_name_H-M	'P1'
_symmetry_Int_Tables_number	1
_symmetry_cell_setting	triclinic
loop_
_symmetry_equiv_pos_as_xyz
  x,y,z
_cell_length_a	14.809436
_cell_length_b	14.809384
_cell_length_c	23.196401
_cell_angle_alpha	114.583380
_cell_angle_beta	90.013383
_cell_angle_gamma	122.468576
loop_
_atom_site_label
_atom_site_type_symbol
_atom_site_fract_x
_atom_site_fract_y
_atom_site_fract_z
Zr1	Zr	1.106512	-0.651449	0.066800
O2	O	0.975886	-0.841342	-0.015563
O3	O	1.126965	-0.482762	0.079696
O4	O	1.155167	-0.642087	-0.022764
O5	O	0.947723	-0.682006	0.181771
O6	O	1.318872	-0.610582	-0.014394
O7	O	0.947684	-0.682016	0.086897
O8	O	1.268423	-0.325577	0.168889
O9	O	0.998171	-0.967011	-0.001512
O10	O	1.281528	-0.520780	0.106367
O11	O	1.159386	-0.544285	0.170923
O12	O	1.192590	-0.731870	0.050289
O13	O	1.070448	-0.755376	0.114845
Zr14	Zr	1.367664	-0.601186	0.231461
Zr15	Zr	1.367602	-0.601201	0.080149
Zr16	Zr	1.106574	-0.651434	0.218111
Zr17	Zr	1.142054	-0.851878	0.089209
Zr18	Zr	1.332122	-0.400758	0.209052
O19	O	1.347211	-0.769874	0.218565
O20	O	1.347123	-0.769895	0.003419
O21	O	0.975974	-0.841320	0.199583
O22	O	1.498290	-0.411294	0.313824
O23	O	1.498201	-0.411316	0.098678
O24	O	1.127053	-0.482740	0.294842
O25	O	1.526453	-0.570629	0.116490
O26	O	1.319009	-0.610548	0.321025
O27	O	1.155304	-0.642054	0.312655
O28	O	1.526492	-0.570620	0.211363
O29	O	1.205703	-0.927071	0.009099
O30	O	1.268472	-0.325565	0.289162
O31	O	1.476004	-0.285625	0.299773
O32	O	1.475955	-0.285637	0.179501
O33	O	0.998221	-0.966999	0.118760
O34	O	1.205752	-0.927059	0.129372
O35	O	1.281586	-0.520765	0.247972
O36	O	1.403728	-0.497260	0.183416
O37	O	1.314790	-0.708351	0.127338
O38	O	1.192648	-0.731856	0.191894
C39	C	1.192630	-0.375613	0.121100
C40	C	1.177541	-0.290526	0.111587
C41	C	0.910504	-0.689170	0.132432
C42	C	0.799664	-0.710502	0.126765
C43	C	0.679812	-0.637336	0.146204
C44	C	0.794372	-0.615287	0.152060
C45	C	1.244876	-0.170296	0.154043
C46	C	1.229283	-0.082353	0.144211
C47	C	1.563672	-0.563465	0.165829
C48	C	1.674512	-0.542134	0.171496
C49	C	1.237010	-0.626337	-0.040138
C50	C	1.236984	-0.626343	-0.104373
C51	C	1.281544	0.122976	0.177161
C52	C	1.296626	0.037884	0.186673
C53	C	1.190565	-0.736526	-0.163818
C54	C	1.190596	-0.736522	-0.224172
C55	C	1.237029	-0.626332	-0.225078
C56	C	1.283460	-0.516133	-0.165621
C57	C	1.283437	-0.516139	-0.105269
C58	C	1.214668	-0.553061	-0.301245
C59	C	1.214682	-0.553061	-0.361598
C60	C	1.237105	-0.626309	-0.411222
C61	C	1.259491	-0.699579	-0.400493
C62	C	1.259469	-0.699585	-0.340141
C63	C	1.237059	-0.626313	-0.290516
C64	C	1.190717	-0.736494	-0.536112
C65	C	1.190757	-0.736484	-0.596465
C66	C	1.283612	-0.516094	-0.537912
C67	C	1.283581	-0.516106	-0.477561
C68	C	1.237128	-0.626310	-0.476665
C69	C	1.237165	-0.626299	0.338398
C70	C	1.237192	-0.626293	0.402634
C71	C	1.519214	-0.312760	0.137798
C72	C	1.614965	-0.206342	0.133953
C73	C	1.192707	-0.375594	0.310368
C74	C	1.177645	-0.290500	0.365090
C75	C	1.519292	-0.312741	0.327066
C76	C	1.615069	-0.206316	0.387456
C77	C	0.954884	-0.939894	-0.028806
C78	C	0.859107	-1.046319	-0.089195
C79	C	0.954962	-0.939875	0.160462
C80	C	0.859211	-1.046294	0.164308
C81	C	1.281468	-0.877042	-0.012107
C82	C	1.296531	-0.962135	-0.066830
C83	C	1.234359	-0.238263	0.431014
C84	C	1.220204	-0.158321	0.482439
C85	C	1.149340	-0.130611	0.467938
C86	C	1.092620	-0.182858	0.402007
C87	C	1.106770	-0.262805	0.350585
C88	C	1.723815	-0.144066	0.382119
C89	C	1.813820	-0.044078	0.438858
C90	C	1.795075	-0.006336	0.500932
C91	C	1.686319	-0.068596	0.506269
C92	C	1.596317	-0.168588	0.449531
C93	C	0.750363	-1.108579	-0.083857
C94	C	0.660362	-1.208592	-0.140593
C95	C	0.679107	-1.246338	-0.202667
C96	C	0.787863	-1.184073	-0.208004
C97	C	0.877862	-1.084067	-0.151268
C98	C	1.367402	-0.989817	-0.052308
C99	C	1.381576	-1.069757	-0.103720
C100	C	1.324873	-1.122019	-0.169652
C101	C	1.253998	-1.094329	-0.184173
C102	C	1.239831	-1.014385	-0.132762
C103	C	1.647674	-0.087118	0.176674
C104	C	1.737630	0.012883	0.173061
C105	C	1.794880	-0.006342	0.126729
C106	C	1.762164	-0.125579	0.084003
C107	C	1.672204	-0.225578	0.087613
C108	C	0.801987	-1.027029	0.210647
C109	C	0.712028	-1.127008	0.214275
C110	C	0.679288	-1.246251	0.171559
C111	C	0.736520	-1.265514	0.125218
C112	C	0.826483	-1.165535	0.121594
H113	H	0.599538	-0.735166	0.120219
H114	H	0.874645	-0.517449	0.178054
Br115	Br	0.808300	-0.379069	0.214821
H116	H	1.207834	-1.136894	-0.237862
Br117	Br	1.411955	0.100957	0.259398
Br118	Br	0.846397	-0.865211	0.268626
H119	H	1.314064	-0.132472	0.197671
H120	H	1.108348	-0.328352	0.067961
Br121	Br	1.127490	-0.886094	-0.162607
Br122	Br	1.330543	-0.275843	0.450712
Br123	Br	0.665878	-0.873575	0.083450
H124	H	1.413580	-0.947276	0.001374
Br125	Br	1.113940	-0.145424	0.071495
Br126	Br	1.448734	-0.253055	0.456786
Br127	Br	1.782013	0.174689	0.231052
Br128	Br	1.346434	-0.366594	-0.024588
Br129	Br	1.660899	-0.017360	0.590518
Br130	Br	0.724892	-1.057373	0.000379
H131	H	1.645585	-0.322651	0.052825
H132	H	1.152794	-0.826249	-0.272581
Br133	Br	1.916967	0.129387	0.121838
H134	H	1.182116	-0.991857	-0.144595
H135	H	1.439287	-1.092292	-0.091884
Br136	Br	1.289848	-0.799019	-0.325580
H137	H	0.605814	-1.327771	-0.248860
H138	H	0.606031	-1.327649	0.174516
Br139	Br	1.839870	-0.151649	0.021126
H140	H	1.277744	-0.759229	-0.440899
Br141	Br	1.749285	-0.195269	0.297883
H142	H	0.571816	-1.259274	-0.136235
H143	H	0.803113	-1.214819	-0.258551
H144	H	0.966404	-1.033376	-0.155623
H145	H	1.336418	-1.187114	-0.211508
Br146	Br	1.127705	-0.886047	-0.534890
H147	H	1.060588	-0.305327	0.296907
H148	H	0.665438	-1.111300	0.252010
H149	H	1.902366	0.006605	0.434501
H150	H	1.137829	-0.065511	0.509816
H151	H	1.601071	-0.071441	0.214404
H152	H	0.709850	-1.362614	0.090442
Br153	Br	0.904128	-1.191704	0.058696
H154	H	1.321420	-0.426375	-0.538648
Br155	Br	1.346557	-0.366568	-0.396881
Br156	Br	1.184285	-0.453638	-0.376157
Br157	Br	1.127764	-0.886030	-0.677145
Br158	Br	1.184339	-0.453556	-0.233877
Br159	Br	1.297192	-0.087428	0.571908
Br160	Br	1.346485	-0.366586	-0.166848
Br161	Br	1.917234	0.129371	0.577928
Br162	Br	0.996452	-0.145238	0.382339
