data_functionalizedCrystal
_audit_creation_method	'MofGen! by Chris Wilmer'
_symmetry_space_group_name_H-M	'P1'
_symmetry_Int_Tables_number	1
_symmetry_cell_setting	triclinic
loop_
_symmetry_equiv_pos_as_xyz
  x,y,z
_cell_length_a	42.795305
_cell_length_b	42.779610
_cell_length_c	42.795305
_cell_angle_alpha	90.008886
_cell_angle_beta	120.002430
_cell_angle_gamma	59.987999
loop_
_atom_site_label
_atom_site_type_symbol
_atom_site_fract_x
_atom_site_fract_y
_atom_site_fract_z
O1	O	-0.275577	-0.214463	-0.009298
O2	O	-0.211600	-0.169001	0.009250
O3	O	-0.275586	-0.169000	-0.054737
O4	O	-0.211591	-0.214464	0.054690
O5	O	-0.223602	-0.220997	-0.054737
O6	O	-0.159616	-0.220998	0.009251
O7	O	-0.223592	-0.266460	-0.009297
Cu8	Cu	-0.186858	-0.248477	-0.000023
Cu9	Cu	-0.248335	-0.186984	-0.000024
O10	O	-0.159606	-0.266461	0.054690
C11	C	-0.051002	-0.022784	0.028106
C12	C	-0.013128	-0.041771	0.028369
C13	C	-0.050987	-0.079398	0.028109
C14	C	-0.013112	-0.098299	0.028372
C15	C	0.005596	-0.079396	0.028105
C16	C	-0.069624	-0.041772	0.028372
C17	C	-0.152938	0.113736	0.017859
C18	C	-0.173780	0.152398	0.014962
C19	C	-0.155905	0.171792	0.013505
C20	C	-0.178507	0.213714	0.010357
C21	C	-0.117185	0.152523	0.014950
C22	C	-0.096342	0.113863	0.017853
C23	C	-0.114221	0.094470	0.019307
C24	C	0.131809	-0.113965	0.017855
C25	C	0.167558	-0.131783	0.014957
C26	C	0.185498	-0.169066	0.013503
C27	C	0.224255	-0.188387	0.010355
C28	C	0.167689	-0.188532	0.014951
C29	C	0.131947	-0.170717	0.017855
C30	C	0.114007	-0.133429	0.019305
C31	C	-0.152874	-0.113970	0.017873
C32	C	-0.173704	-0.131788	0.014973
C33	C	-0.155813	-0.169073	0.013520
C34	C	-0.178398	-0.188394	0.010375
C35	C	-0.117096	-0.188536	0.014963
C36	C	-0.096269	-0.170716	0.017861
C37	C	-0.114160	-0.133434	0.019319
C38	C	-0.091619	0.052550	0.022451
C39	C	-0.073604	0.019136	0.024959
C40	C	-0.073571	-0.098717	0.024965
C41	C	-0.091573	-0.114116	0.022461
C42	C	0.044352	-0.098714	0.024958
C43	C	0.075247	-0.114113	0.022450
C44	C	-0.440631	-0.022792	-0.361521
C45	C	-0.421912	-0.041780	-0.323915
C46	C	-0.384032	-0.079405	-0.361520
C47	C	-0.365399	-0.098306	-0.323914
C48	C	-0.384033	-0.079404	-0.304936
C49	C	-0.421911	-0.041780	-0.380413
C50	C	-0.566872	0.113727	-0.453179
C51	C	-0.602627	0.152388	-0.471115
C52	C	-0.620563	0.171783	-0.451780
C53	C	-0.659327	0.213704	-0.471224
C54	C	-0.602744	0.152513	-0.414510
C55	C	-0.566996	0.113854	-0.396578
C56	C	-0.549060	0.094461	-0.415915
C57	C	-0.339229	-0.113972	-0.168482
C58	C	-0.318518	-0.131791	-0.129840
C59	C	-0.279789	-0.169073	-0.110453
C60	C	-0.257326	-0.188394	-0.068553
C61	C	-0.261774	-0.188539	-0.129713
C62	C	-0.282487	-0.170724	-0.168355
C63	C	-0.321217	-0.133437	-0.187738
C64	C	-0.339224	-0.113977	-0.453174
C65	C	-0.318509	-0.131795	-0.471108
C66	C	-0.279780	-0.169079	-0.451772
C67	C	-0.257316	-0.188399	-0.471214
C68	C	-0.261765	-0.188542	-0.414503
C69	C	-0.282480	-0.170723	-0.396571
C70	C	-0.321213	-0.133440	-0.415912
C71	C	-0.510293	0.052541	-0.396467
C72	C	-0.479394	0.019127	-0.380966
C73	C	-0.361571	-0.098724	-0.380964
C74	C	-0.343669	-0.114123	-0.396463
C75	C	-0.361573	-0.098722	-0.263037
C76	C	-0.343672	-0.114120	-0.229639
C77	C	-0.384210	-0.412666	-0.028186
C78	C	-0.365586	-0.393679	-0.028449
C79	C	-0.440809	-0.356054	-0.028187
C80	C	-0.422098	-0.337153	-0.028449
C81	C	-0.384222	-0.356054	-0.028184
C82	C	-0.422086	-0.393678	-0.028452
C83	C	-0.339383	-0.549185	-0.017947
C84	C	-0.318667	-0.587845	-0.015051
C85	C	-0.279942	-0.607240	-0.013596
C86	C	-0.257474	-0.649161	-0.010449
C87	C	-0.261935	-0.587970	-0.015040
C88	C	-0.282654	-0.549311	-0.017940
C89	C	-0.321379	-0.529918	-0.019394
C90	C	-0.282325	-0.321487	-0.017932
C91	C	-0.261496	-0.303668	-0.015033
C92	C	-0.279383	-0.266386	-0.013577
C93	C	-0.256799	-0.247065	-0.010428
C94	C	-0.318105	-0.246921	-0.015024
C95	C	-0.338937	-0.264736	-0.017929
C96	C	-0.321041	-0.302023	-0.019380
C97	C	-0.567030	-0.321482	-0.017948
C98	C	-0.602778	-0.303665	-0.015048
C99	C	-0.620717	-0.266381	-0.013593
C100	C	-0.659475	-0.247061	-0.010446
C101	C	-0.602905	-0.246918	-0.015035
C102	C	-0.567158	-0.264737	-0.017933
C103	C	-0.549225	-0.302019	-0.019393
C104	C	-0.343840	-0.487999	-0.022536
C105	C	-0.361746	-0.454585	-0.025041
C106	C	-0.479567	-0.336735	-0.025042
C107	C	-0.510463	-0.321336	-0.022536
C108	C	-0.361635	-0.336737	-0.025035
C109	C	-0.343631	-0.321339	-0.022527
O110	O	0.327840	-0.266454	-0.009320
O111	O	0.236950	-0.220990	0.009226
O112	O	0.236944	-0.220992	-0.054760
O113	O	0.327845	-0.266452	0.054667
O114	O	0.236930	-0.168995	-0.054763
O115	O	0.236935	-0.168993	0.009223
O116	O	0.327826	-0.214456	-0.009323
Cu117	Cu	0.282379	-0.186977	-0.000050
Cu118	Cu	0.282396	-0.248470	-0.000047
O119	O	0.327831	-0.214454	0.054663
O120	O	-0.223755	0.337017	-0.009321
O121	O	-0.159741	0.227538	0.009224
O122	O	-0.223746	0.291551	-0.054762
O123	O	-0.159751	0.273004	0.054665
O124	O	-0.275715	0.291549	-0.054758
O125	O	-0.211711	0.227537	0.009228
O126	O	-0.275724	0.337015	-0.009318
Cu127	Cu	-0.248463	0.282276	-0.000045
Cu128	Cu	-0.187003	0.282277	-0.000048
O129	O	-0.211720	0.273003	0.054669
O130	O	-0.211579	-0.214475	-0.548724
O131	O	-0.275578	-0.169008	-0.503287
O132	O	-0.211590	-0.169010	-0.503282
O133	O	-0.275567	-0.214472	-0.548729
O134	O	-0.159608	-0.221006	-0.451309
O135	O	-0.223595	-0.221003	-0.451314
O136	O	-0.159596	-0.266471	-0.496751
Cu137	Cu	-0.186849	-0.248485	-0.469287
Cu138	Cu	-0.248325	-0.186994	-0.530751
O139	O	-0.223584	-0.266468	-0.496756
O140	O	-0.762925	0.337006	-0.496764
O141	O	-0.672016	0.227527	-0.451323
O142	O	-0.672029	0.291541	-0.451320
O143	O	-0.762912	0.272992	-0.496767
O144	O	-0.672030	0.291542	-0.503291
O145	O	-0.672016	0.227528	-0.503295
O146	O	-0.762926	0.337006	-0.548735
Cu147	Cu	-0.717471	0.282267	-0.530761
Cu148	Cu	-0.717471	0.282266	-0.469298
O149	O	-0.762912	0.272992	-0.548739
C150	C	0.005447	-0.412678	0.361473
C151	C	-0.013271	-0.393691	0.380366
C152	C	-0.051152	-0.356064	0.304889
C153	C	-0.069784	-0.337164	0.323868
C154	C	-0.051151	-0.356066	0.361474
C155	C	-0.013272	-0.393689	0.323867
C156	C	0.131688	-0.549197	0.396023
C157	C	0.167443	-0.587858	0.413832
C158	C	0.185379	-0.607253	0.451098
C159	C	0.224142	-0.649174	0.470408
C160	C	0.167560	-0.587984	0.470555
C161	C	0.131812	-0.549324	0.452747
C162	C	0.113876	-0.529931	0.415480
C163	C	-0.095954	-0.321499	0.453132
C164	C	-0.116664	-0.303680	0.471069
C165	C	-0.155393	-0.266398	0.451735
C166	C	-0.177855	-0.247077	0.471177
C167	C	-0.173409	-0.246932	0.414465
C168	C	-0.152695	-0.264747	0.396532
C169	C	-0.113966	-0.302034	0.415870
C170	C	-0.095961	-0.321492	0.168434
C171	C	-0.116676	-0.303674	0.129790
C172	C	-0.155405	-0.266389	0.110406
C173	C	-0.177869	-0.247069	0.068505
C174	C	-0.173419	-0.246926	0.129666
C175	C	-0.152704	-0.264746	0.168308
C176	C	-0.113972	-0.302029	0.187691
C177	C	0.075109	-0.488011	0.396172
C178	C	0.044210	-0.454597	0.380781
C179	C	-0.073612	-0.336745	0.262990
C180	C	-0.091515	-0.321346	0.229592
C181	C	-0.073609	-0.336748	0.380919
C182	C	-0.091510	-0.321350	0.396420
C183	C	-0.051034	-0.022793	-0.361549
C184	C	-0.069658	-0.041782	-0.380440
C185	C	0.005568	-0.079404	-0.304962
C186	C	-0.013142	-0.098307	-0.323940
C187	C	-0.051019	-0.079406	-0.361546
C188	C	-0.013157	-0.041780	-0.323942
C189	C	-0.095868	0.113727	-0.396106
C190	C	-0.116586	0.152388	-0.413918
C191	C	-0.155313	0.171781	-0.451184
C192	C	-0.177782	0.213702	-0.470496
C193	C	-0.173319	0.152510	-0.470639
C194	C	-0.152598	0.113851	-0.452829
C195	C	-0.113871	0.094459	-0.415561
C196	C	-0.152916	-0.113979	-0.453200
C197	C	-0.173744	-0.131799	-0.471134
C198	C	-0.155855	-0.169081	-0.451799
C199	C	-0.178438	-0.188403	-0.471239
C200	C	-0.117132	-0.188545	-0.414528
C201	C	-0.096300	-0.170729	-0.396597
C202	C	-0.114198	-0.133442	-0.415937
C203	C	0.131794	-0.113970	-0.168509
C204	C	0.167543	-0.131786	-0.129864
C205	C	0.185485	-0.169070	-0.110478
C206	C	0.224245	-0.188388	-0.068577
C207	C	0.167674	-0.188534	-0.129736
C208	C	0.131924	-0.170716	-0.168379
C209	C	0.113989	-0.133434	-0.187764
C210	C	-0.091408	0.052540	-0.396251
C211	C	-0.073501	0.019126	-0.380859
C212	C	0.044329	-0.098721	-0.263063
C213	C	0.075226	-0.114119	-0.229665
C214	C	-0.073606	-0.098725	-0.380989
C215	C	-0.091609	-0.114124	-0.396489
C216	C	0.615795	-0.356288	0.361450
C217	C	0.634434	-0.393912	0.380343
C218	C	0.559207	-0.356289	0.304866
C219	C	0.577932	-0.393913	0.323845
C220	C	0.615809	-0.412900	0.361452
C221	C	0.577918	-0.337387	0.323843
C222	C	0.660571	-0.264585	0.395999
C223	C	0.681274	-0.246640	0.413808
C224	C	0.720001	-0.265984	0.451075
C225	C	0.742455	-0.246531	0.470384
C226	C	0.738022	-0.303273	0.470532
C227	C	0.717315	-0.321213	0.452724
C228	C	0.678588	-0.301867	0.415456
C229	C	0.717749	-0.549419	0.453111
C230	C	0.738592	-0.588080	0.471048
C231	C	0.720718	-0.607476	0.451715
C232	C	0.743316	-0.649395	0.471157
C233	C	0.681994	-0.588207	0.414444
C234	C	0.661148	-0.549546	0.396511
C235	C	0.679032	-0.530154	0.415848
C236	C	0.432967	-0.264591	0.168410
C237	C	0.397218	-0.246649	0.129765
C238	C	0.379291	-0.265994	0.110381
C239	C	0.340530	-0.246543	0.068480
C240	C	0.397116	-0.303281	0.129641
C241	C	0.432866	-0.321221	0.168284
C242	C	0.450786	-0.301871	0.187667
C243	C	0.656141	-0.321325	0.396148
C244	C	0.638246	-0.336833	0.380758
C245	C	0.520447	-0.336836	0.262966
C246	C	0.489550	-0.321329	0.229568
C247	C	0.638411	-0.454819	0.380897
C248	C	0.656427	-0.488233	0.396398
C249	C	-0.440729	0.310384	-0.361535
C250	C	-0.422016	0.310647	-0.380429
C251	C	-0.384146	0.310394	-0.304954
C252	C	-0.365519	0.310656	-0.323933
C253	C	-0.384147	0.310386	-0.361539
C254	C	-0.422016	0.310655	-0.323930
C255	C	-0.566930	0.300127	-0.396079
C256	C	-0.602673	0.297226	-0.413886
C257	C	-0.620603	0.295765	-0.451151
C258	C	-0.659354	0.292612	-0.470459
C259	C	-0.602789	0.297209	-0.470608
C260	C	-0.567052	0.300116	-0.452802
C261	C	-0.549123	0.301575	-0.415536
C262	C	-0.339348	0.300123	-0.453196
C263	C	-0.318641	0.297223	-0.471133
C264	C	-0.279922	0.295770	-0.451801
C265	C	-0.257464	0.292620	-0.471243
C266	C	-0.261913	0.297222	-0.414531
C267	C	-0.282623	0.300129	-0.396598
C268	C	-0.321342	0.301577	-0.415935
C269	C	-0.339346	0.300165	-0.168501
C270	C	-0.318636	0.297268	-0.129857
C271	C	-0.279917	0.295816	-0.110475
C272	C	-0.257458	0.292674	-0.068575
C273	C	-0.261908	0.297259	-0.129735
C274	C	-0.282619	0.300154	-0.168377
C275	C	-0.321341	0.301610	-0.187758
C276	C	-0.510369	0.304722	-0.396230
C277	C	-0.479479	0.307233	-0.380841
C278	C	-0.361691	0.307253	-0.263055
C279	C	-0.343793	0.304750	-0.229658
C280	C	-0.361692	0.307235	-0.380984
C281	C	-0.343794	0.304726	-0.396485
O282	O	-0.275526	0.337004	-0.548521
O283	O	-0.211506	0.227524	-0.503082
O284	O	-0.275501	0.291535	-0.503074
O285	O	-0.211530	0.272994	-0.548530
O286	O	-0.223525	0.291535	-0.451104
O287	O	-0.159529	0.227525	-0.451113
O288	O	-0.223550	0.337005	-0.496552
Cu289	Cu	-0.186794	0.282265	-0.469087
Cu290	Cu	-0.248262	0.282264	-0.530547
O291	O	-0.159554	0.272995	-0.496560
C292	C	-0.051074	0.254167	0.361445
C293	C	-0.013205	0.253907	0.380336
C294	C	-0.051075	0.254159	0.304861
C295	C	-0.013206	0.253899	0.323837
C296	C	0.005508	0.254169	0.361442
C297	C	-0.069702	0.253897	0.323840
C298	C	-0.152974	0.264419	0.396003
C299	C	-0.173806	0.267319	0.413814
C300	C	-0.155926	0.268780	0.451079
C301	C	-0.178516	0.271931	0.470390
C302	C	-0.117210	0.267337	0.470533
C303	C	-0.096378	0.264432	0.452723
C304	C	-0.114261	0.262973	0.415457
C305	C	0.131708	0.264436	0.453089
C306	C	0.167451	0.267337	0.471022
C307	C	0.185381	0.268792	0.451687
C308	C	0.224131	0.271943	0.471125
C309	C	0.167566	0.267339	0.414417
C310	C	0.131830	0.264431	0.396487
C311	C	0.113901	0.262982	0.415827
C312	C	-0.152976	0.264387	0.168411
C313	C	-0.173812	0.267284	0.129768
C314	C	-0.155932	0.268737	0.110382
C315	C	-0.178523	0.271880	0.068482
C316	C	-0.117220	0.267296	0.129639
C317	C	-0.096387	0.264400	0.168280
C318	C	-0.114267	0.262943	0.187665
C319	C	-0.091671	0.259827	0.396147
C320	C	-0.073665	0.257317	0.380755
C321	C	-0.073666	0.257301	0.262962
C322	C	-0.091673	0.259803	0.229565
C323	C	0.044258	0.257321	0.380883
C324	C	0.075147	0.259832	0.396381
H325	H	0.117206	-0.083605	0.019037
C326	C	-0.289179	0.304590	-0.227558
C327	C	-0.262826	0.301743	-0.189549
H328	H	-0.276957	0.305569	-0.240627
H329	H	-0.318232	0.327213	-0.239780
H330	H	-0.290214	0.282914	-0.228043
H331	H	-0.261794	0.323421	-0.189063
H332	H	-0.233765	0.279118	-0.177323
C333	C	-0.186388	-0.230388	-0.359772
C334	C	-0.219191	-0.229525	-0.393238
H335	H	-0.160105	-0.255687	-0.346643
H336	H	-0.196156	-0.222556	-0.343768
H337	H	-0.180654	-0.213510	-0.366209
H338	H	-0.224928	-0.246401	-0.386800
H339	H	-0.209421	-0.237362	-0.409244
H340	H	-0.064419	-0.351858	0.468881
H341	H	-0.370878	0.301353	-0.184280
C342	C	0.231572	-0.622617	0.412956
C343	C	0.187031	-0.609041	0.392450
H344	H	0.243664	-0.635693	0.399755
H345	H	0.247363	-0.639695	0.437695
H346	H	0.233894	-0.601666	0.415320
H347	H	0.184708	-0.629992	0.390089
H348	H	0.171235	-0.591962	0.367704
H349	H	-0.230390	0.296044	-0.398793
C350	C	0.222414	-0.647306	0.523037
C351	C	0.187274	-0.609303	0.511515
H352	H	0.234580	-0.660467	0.548324
H353	H	0.244520	-0.647747	0.522443
H354	H	0.211970	-0.659478	0.506161
H355	H	0.197718	-0.597129	0.528389
H356	H	0.165163	-0.608859	0.512112
H357	H	-0.552553	0.301293	-0.468647
H358	H	-0.205306	0.168084	0.013785
C359	C	-0.598964	0.297528	-0.356030
C360	C	-0.622250	0.295636	-0.392499
H361	H	-0.611049	0.296544	-0.342826
H362	H	-0.601308	0.320809	-0.358402
H363	H	-0.568744	0.276511	-0.342127
H364	H	-0.652470	0.316655	-0.406403
H365	H	-0.619910	0.272352	-0.390128
H366	H	-0.102633	0.168316	0.013767
C367	C	-0.042498	0.117870	0.017544
C368	C	-0.053786	0.092684	0.019437
H369	H	-0.016228	0.104796	0.018518
H370	H	-0.037796	0.127077	0.038552
H371	H	-0.065814	0.138817	-0.005727
H372	H	-0.030472	0.071739	0.042708
H373	H	-0.058486	0.083472	-0.001573
C374	C	-0.060295	0.078832	-0.331175
C375	C	-0.053299	0.092412	-0.355144
H376	H	-0.034015	0.065674	-0.305886
H377	H	-0.068051	0.061825	-0.340211
H378	H	-0.083559	0.099788	-0.331167
H379	H	-0.030036	0.071455	-0.355154
H380	H	-0.045537	0.109420	-0.346105
H381	H	-0.552658	-0.248887	-0.019108
H382	H	0.182054	-0.115931	0.013777
H383	H	-0.437767	-0.306239	-0.028871
C384	C	-0.141570	0.061795	-0.477701
C385	C	-0.172391	0.092671	-0.474213
H386	H	-0.153792	0.048723	-0.490905
H387	H	-0.115546	0.044716	-0.452961
H388	H	-0.134475	0.071010	-0.491609
H389	H	-0.179483	0.083456	-0.460303
H390	H	-0.198422	0.109754	-0.498958
H391	H	-0.370915	-0.533398	-0.019131
H392	H	-0.552336	0.301316	-0.365736
C393	C	-0.095331	-0.358561	0.512829
C394	C	-0.096870	-0.325077	0.512030
H395	H	-0.083114	-0.371769	0.538116
H396	H	-0.077450	-0.374506	0.504920
H397	H	-0.124387	-0.352113	0.495995
H398	H	-0.067813	-0.331525	0.528862
H399	H	-0.114750	-0.309129	0.519944
H400	H	-0.333329	-0.603532	-0.013874
C401	C	0.144592	-0.528549	0.354205
C402	C	0.111988	-0.527886	0.355063
H403	H	0.132431	-0.515391	0.328919
H404	H	0.168430	-0.554330	0.362032
H405	H	0.155022	-0.516368	0.371079
H406	H	0.101561	-0.540069	0.338192
H407	H	0.088143	-0.502100	0.347231
C408	C	-0.249109	0.300857	0.358958
C409	C	-0.216363	0.268911	0.392430
H410	H	-0.275383	0.301842	0.345758
H411	H	-0.239261	0.298916	0.343021
H412	H	-0.254897	0.323482	0.365398
H413	H	-0.210573	0.246286	0.385991
H414	H	-0.226213	0.270850	0.408370
H415	H	0.731990	-0.351573	0.468568
H416	H	-0.064420	-0.351847	0.184215
C417	C	-0.204431	-0.301552	-0.010587
C418	C	-0.218934	-0.325064	-0.013440
H419	H	-0.178156	-0.314761	-0.009605
H420	H	-0.198645	-0.295116	0.012027
H421	H	-0.226653	-0.278835	-0.032251
H422	H	-0.196713	-0.347781	0.008226
H423	H	-0.224718	-0.331506	-0.036056
H424	H	-0.064855	0.263255	0.468565
C425	C	-0.219860	-0.201604	-0.171495
C426	C	-0.262684	-0.192119	-0.189523
H427	H	-0.207634	-0.214811	-0.184564
H428	H	-0.201987	-0.217551	-0.145711
H429	H	-0.220918	-0.178882	-0.171989
H430	H	-0.261625	-0.214842	-0.189026
H431	H	-0.280561	-0.176172	-0.215313
C432	C	-0.619026	0.204714	-0.389846
C433	C	-0.622459	0.173834	-0.393259
H434	H	-0.631194	0.217875	-0.376724
H435	H	-0.634753	0.221717	-0.414606
H436	H	-0.588801	0.195490	-0.375887
H437	H	-0.652684	0.183058	-0.407221
H438	H	-0.606733	0.156828	-0.368495
H439	H	-0.100141	-0.026535	-0.411338
H440	H	-0.167538	0.263202	0.184192
C441	C	-0.502617	0.078831	-0.453864
C442	C	-0.547165	0.092413	-0.474439
H443	H	-0.490452	0.065675	-0.466990
H444	H	-0.486890	0.061823	-0.429107
H445	H	-0.500299	0.099787	-0.451548
H446	H	-0.549482	0.071458	-0.476752
H447	H	-0.562896	0.109423	-0.499203
C448	C	0.222541	-0.241043	0.010499
C449	C	0.187408	-0.229514	0.013354
H450	H	0.234711	-0.266343	0.009510
H451	H	0.244647	-0.240446	0.032163
H452	H	0.212090	-0.224162	-0.012115
H453	H	0.197860	-0.246394	0.035970
H454	H	0.165298	-0.230115	-0.008312
H455	H	-0.437678	0.311080	-0.308693
H456	H	0.117451	-0.186569	0.019036
C457	C	-0.042402	-0.228601	0.017567
C458	C	-0.053709	-0.192112	0.019452
H459	H	-0.016125	-0.241811	0.018552
H460	H	-0.065704	-0.226233	-0.005701
H461	H	-0.037700	-0.242509	0.038577
H462	H	-0.058413	-0.178204	-0.001560
H463	H	-0.030401	-0.194479	0.042723
H464	H	0.002530	-0.026526	0.028795
C465	C	-0.312075	0.292832	-0.070677
C466	C	-0.338431	0.295682	-0.108686
H467	H	-0.324297	0.291852	-0.057607
H468	H	-0.311037	0.314503	-0.070188
H469	H	-0.283020	0.270204	-0.058454
H470	H	-0.367485	0.318312	-0.120909
H471	H	-0.339474	0.274009	-0.109177
C472	C	-0.087071	-0.253505	-0.413853
C473	C	-0.097462	-0.229528	-0.393274
H474	H	-0.074931	-0.278805	-0.400731
H475	H	-0.066121	-0.253515	-0.416169
H476	H	-0.113115	-0.244460	-0.438613
H477	H	-0.071417	-0.238571	-0.368514
H478	H	-0.118413	-0.229520	-0.390952
H479	H	-0.064865	0.263225	0.183958
C480	C	-0.486680	-0.393948	-0.061916
C481	C	-0.443228	-0.414252	-0.029023
H482	H	-0.499732	-0.406648	-0.062264
H483	H	-0.486522	-0.392654	-0.083988
H484	H	-0.503257	-0.368774	-0.061798
H485	H	-0.426650	-0.439426	-0.029142
H486	H	-0.443384	-0.415551	-0.006945
H487	H	0.769552	-0.319019	0.500874
C488	C	-0.123880	-0.241054	0.010520
C489	C	-0.097427	-0.229521	0.013367
H490	H	-0.111735	-0.266356	0.009537
H491	H	-0.152923	-0.224179	-0.012090
H492	H	-0.124914	-0.240455	0.032188
H493	H	-0.096395	-0.230117	-0.008303
H494	H	-0.068375	-0.246401	0.035980
C495	C	-0.224470	0.299835	-0.342450
C496	C	-0.262828	0.301724	-0.355634
H497	H	-0.212248	0.300816	-0.317159
H498	H	-0.231581	0.320852	-0.358759
H499	H	-0.203564	0.276553	-0.342485
H500	H	-0.283735	0.325008	-0.355601
H501	H	-0.255719	0.280705	-0.339321
H502	H	0.182170	0.268517	0.398676
H503	H	-0.370760	-0.083619	-0.468924
C504	C	0.135192	0.264718	0.510847
C505	C	0.112007	0.262834	0.474349
H506	H	0.123029	0.263726	0.523971
H507	H	0.132852	0.287999	0.508525
H508	H	0.165417	0.243700	0.524799
H509	H	0.081782	0.283853	0.460395
H510	H	0.114342	0.239550	0.476669
H511	H	-0.370764	-0.083614	-0.184262
H512	H	-0.437682	0.311072	-0.411328
C513	C	-0.204975	0.292825	-0.070450
C514	C	-0.219350	0.295668	-0.108433
H515	H	-0.178704	0.291846	-0.057301
H516	H	-0.199221	0.270203	-0.058274
H517	H	-0.227248	0.314503	-0.070015
H518	H	-0.197077	0.273989	-0.108868
H519	H	-0.225101	0.318293	-0.120611
H520	H	-0.204849	0.168302	-0.500981
C521	C	-0.289687	0.278675	-0.301447
C522	C	-0.324383	0.311234	-0.303366
H523	H	-0.264292	0.279032	-0.288749
H524	H	-0.298156	0.278560	-0.326606
H525	H	-0.283079	0.256353	-0.287680
H526	H	-0.330993	0.333556	-0.317136
H527	H	-0.315913	0.311353	-0.278203
H528	H	-0.617392	0.296022	-0.500950
C529	C	-0.311737	-0.152678	-0.327935
C530	C	-0.324229	-0.140028	-0.303331
H531	H	-0.286316	-0.178432	-0.315225
H532	H	-0.305165	-0.136943	-0.335105
H533	H	-0.335258	-0.151244	-0.350160
H534	H	-0.300709	-0.141459	-0.281108
H535	H	-0.330800	-0.155768	-0.296156
H536	H	0.117308	-0.533637	0.468592
C537	C	-0.334177	-0.424818	-0.061912
C538	C	-0.324442	-0.414255	-0.029021
H539	H	-0.308776	-0.437521	-0.062263
H540	H	-0.357716	-0.402578	-0.083986
H541	H	-0.342633	-0.441523	-0.061789
H542	H	-0.315988	-0.397547	-0.029146
H543	H	-0.300895	-0.436497	-0.006942
H544	H	0.770121	-0.603766	0.501393
C545	C	-0.393346	0.299838	-0.510950
C546	C	-0.381910	0.301722	-0.474452
H547	H	-0.419623	0.300827	-0.524071
H548	H	-0.370082	0.276558	-0.508629
H549	H	-0.398095	0.320856	-0.524905
H550	H	-0.377158	0.280702	-0.460496
H551	H	-0.405180	0.325005	-0.476771
C552	C	-0.570699	0.117860	-0.342427
C553	C	-0.547409	0.092675	-0.355613
H554	H	-0.558603	0.104785	-0.317135
H555	H	-0.600911	0.127067	-0.358734
H556	H	-0.568369	0.138806	-0.342464
H557	H	-0.549741	0.071730	-0.355579
H558	H	-0.517189	0.083462	-0.339301
C559	C	-0.123303	0.253134	0.266189
C560	C	-0.110837	0.253318	0.303272
H561	H	-0.148699	0.252778	0.253491
H562	H	-0.099761	0.231046	0.267502
H563	H	-0.129912	0.275457	0.252423
H564	H	-0.104225	0.230993	0.317039
H565	H	-0.134385	0.275408	0.301961
H566	H	-0.437581	-0.026534	-0.308681
C567	C	-0.210867	-0.206862	0.164307
C568	C	-0.172502	-0.243350	0.189479
H569	H	-0.223087	-0.193652	0.177378
H570	H	-0.231768	-0.209230	0.143373
H571	H	-0.203762	-0.192954	0.155103
H572	H	-0.179607	-0.257259	0.198681
H573	H	-0.151597	-0.240983	0.210420
C574	C	-0.204985	-0.647291	-0.010588
C575	C	-0.219370	-0.609288	-0.013439
H576	H	-0.178704	-0.660451	-0.009597
H577	H	-0.227245	-0.647732	-0.032253
H578	H	-0.199242	-0.659465	0.012025
H579	H	-0.225115	-0.597114	-0.036054
H580	H	-0.197104	-0.608846	0.008228
C581	C	-0.348912	0.326604	-0.536137
C582	C	-0.338434	0.295623	-0.512095
H583	H	-0.361134	0.325616	-0.561425
H584	H	-0.322892	0.325322	-0.527190
H585	H	-0.369824	0.349884	-0.536104
H586	H	-0.317519	0.272343	-0.512125
H587	H	-0.364458	0.296901	-0.521044
C588	C	-0.042433	-0.228609	-0.342443
C589	C	-0.053739	-0.192122	-0.355631
H590	H	-0.016160	-0.241814	-0.317151
H591	H	-0.037729	-0.242520	-0.358749
H592	H	-0.065741	-0.226236	-0.342480
H593	H	-0.030433	-0.194495	-0.355597
H594	H	-0.058441	-0.178207	-0.339320
C595	C	-0.376680	-0.073904	-0.133842
C596	C	-0.338316	-0.110393	-0.108669
H597	H	-0.388900	-0.060693	-0.120771
H598	H	-0.397581	-0.076273	-0.154775
H599	H	-0.369574	-0.059998	-0.143048
H600	H	-0.345422	-0.124300	-0.099466
H601	H	-0.317410	-0.108026	-0.087730
H602	H	0.002453	0.253473	0.308597
H603	H	0.181952	0.268521	0.501366
C604	C	0.135649	-0.228602	-0.164374
C605	C	0.112351	-0.192114	-0.189548
H606	H	0.123566	-0.241812	-0.177444
H607	H	0.133314	-0.226231	-0.143441
H608	H	0.165866	-0.242509	-0.155169
H609	H	0.082134	-0.178205	-0.198750
H610	H	0.114682	-0.194482	-0.210488
H611	H	-0.437575	-0.026533	-0.411311
C612	C	-0.016519	0.253200	0.434687
C613	C	0.007926	0.253359	0.422040
H614	H	-0.003478	0.252870	0.460429
H615	H	-0.016654	0.231107	0.433249
H616	H	-0.046002	0.275519	0.418961
H617	H	0.037408	0.231038	0.437764
H618	H	0.008065	0.275454	0.423480
H619	H	-0.101922	0.168075	-0.398076
H620	H	-0.267991	-0.533624	-0.019116
H621	H	0.002500	-0.026533	-0.308707
H622	H	-0.617132	0.168075	-0.501460
H623	H	-0.333177	-0.115943	-0.501452
H624	H	-0.205335	0.268462	0.114090
C625	C	-0.249054	-0.076919	-0.512898
C626	C	-0.216310	-0.110404	-0.512097
H627	H	-0.275334	-0.063712	-0.538186
H628	H	-0.239210	-0.060974	-0.504990
H629	H	-0.254830	-0.083365	-0.496064
H630	H	-0.210532	-0.103958	-0.528928
H631	H	-0.226156	-0.126352	-0.520010
H632	H	-0.267753	-0.351845	-0.019116
C633	C	-0.183037	0.293795	0.331069
C634	C	-0.172631	0.262813	0.355042
H635	H	-0.195174	0.292805	0.305782
H636	H	-0.157002	0.292519	0.340104
H637	H	-0.203997	0.317074	0.331060
H638	H	-0.151669	0.239533	0.355053
H639	H	-0.198669	0.264086	0.346005
H640	H	0.002556	-0.129213	0.028798
C641	C	0.045276	-0.152693	-0.266284
C642	C	0.008013	-0.140039	-0.303372
H643	H	0.058336	-0.178456	-0.253589
H644	H	0.036722	-0.136978	-0.252522
H645	H	0.066046	-0.151230	-0.267591
H646	H	-0.012758	-0.141499	-0.302065
H647	H	0.016567	-0.155758	-0.317137
H648	H	-0.230242	-0.218898	-0.113928
H649	H	-0.102654	0.268524	0.500874
C650	C	0.544157	-0.272492	0.323568
C651	C	0.556756	-0.295653	0.303270
H652	H	0.531088	-0.246728	0.310864
H653	H	0.569440	-0.281077	0.348721
H654	H	0.523391	-0.273959	0.324877
H655	H	0.577524	-0.294188	0.301964
H656	H	0.531469	-0.287066	0.278110
C657	C	-0.261146	-0.225602	-0.354807
C658	C	-0.262686	-0.192118	-0.355608
H659	H	-0.248928	-0.238808	-0.329519
H660	H	-0.243264	-0.241548	-0.362715
H661	H	-0.290202	-0.219156	-0.371640
H662	H	-0.233629	-0.198564	-0.338777
H663	H	-0.280567	-0.176169	-0.347696
C664	C	0.135529	0.264727	0.342335
C665	C	0.112248	0.262837	0.355523
H666	H	0.123437	0.263747	0.317044
H667	H	0.165745	0.243711	0.358642
H668	H	0.133188	0.288010	0.342369
H669	H	0.114593	0.239553	0.355491
H670	H	0.082025	0.283855	0.339211
H671	H	-0.102662	0.268479	0.113852
C672	C	-0.230355	-0.194420	0.416821
C673	C	-0.215977	-0.205949	0.393212
H674	H	-0.256637	-0.169120	0.403699
H675	H	-0.208093	-0.195018	0.439523
H676	H	-0.236093	-0.211301	0.423247
H677	H	-0.210236	-0.189070	0.386788
H678	H	-0.238244	-0.205348	0.370503
H679	H	0.382714	-0.216292	0.114083
C680	C	-0.311311	-0.194410	-0.010570
C681	C	-0.337771	-0.205939	-0.013425
H682	H	-0.323450	-0.169111	-0.009579
H683	H	-0.310274	-0.195006	-0.032234
H684	H	-0.282265	-0.211292	0.012044
H685	H	-0.366816	-0.189058	-0.036041
H686	H	-0.338812	-0.205340	0.008241
H687	H	-0.617275	-0.319516	-0.013871
H688	H	-0.100100	-0.026528	0.028800
C689	C	-0.570492	-0.375788	-0.017665
C690	C	-0.547314	-0.362465	-0.019548
H691	H	-0.558316	-0.401089	-0.018650
H692	H	-0.600712	-0.359519	-0.038671
H693	H	-0.568159	-0.375797	0.005607
H694	H	-0.549650	-0.362453	-0.042822
H695	H	-0.517087	-0.378738	0.001460
C696	C	-0.372954	-0.233858	0.013824
C697	C	-0.381496	-0.243343	-0.019517
H698	H	-0.399227	-0.220654	0.012845
H699	H	-0.363115	-0.217910	0.015756
H700	H	-0.350731	-0.256581	0.035482
H701	H	-0.403717	-0.220620	-0.041175
H702	H	-0.391341	-0.259291	-0.021453
C703	C	-0.227561	-0.073910	0.015284
C704	C	-0.216259	-0.110395	0.013391
H705	H	-0.253831	-0.060705	0.014311
H706	H	-0.232270	-0.059997	-0.005725
H707	H	-0.204249	-0.076284	0.038553
H708	H	-0.239570	-0.108021	-0.009881
H709	H	-0.211553	-0.124311	0.034401
H710	H	-0.167445	-0.083612	0.019059
H711	H	0.664912	-0.409154	0.411243
C712	C	-0.657760	-0.194402	-0.010586
C713	C	-0.622621	-0.205935	-0.013434
H714	H	-0.669931	-0.169102	-0.009599
H715	H	-0.647315	-0.211280	0.012024
H716	H	-0.679867	-0.194999	-0.032255
H717	H	-0.600513	-0.205341	0.008236
H718	H	-0.633065	-0.189053	-0.036046
H719	H	-0.100266	-0.306250	0.308630
C720	C	0.051326	-0.424791	0.445224
C721	C	0.007882	-0.414247	0.422087
H722	H	0.064386	-0.437476	0.470982
H723	H	0.051152	-0.402546	0.443738
H724	H	0.067906	-0.441508	0.436647
H725	H	-0.008699	-0.397527	0.430663
H726	H	0.008054	-0.436495	0.423575
C727	C	-0.210968	0.117494	0.017590
C728	C	-0.172586	0.092419	0.019465
H729	H	-0.223094	0.104331	0.018584
H730	H	-0.231926	0.138441	-0.005680
H731	H	-0.203911	0.126709	0.038598
H732	H	-0.179643	0.083205	-0.001544
H733	H	-0.151624	0.071465	0.042738
C734	C	0.045142	-0.451371	0.327905
C735	C	0.007875	-0.414265	0.303296
H736	H	0.058197	-0.464071	0.315206
H737	H	0.036593	-0.465139	0.335059
H738	H	0.065914	-0.450066	0.350139
H739	H	-0.012899	-0.415570	0.281064
H740	H	0.016423	-0.400493	0.296137
C741	C	0.163828	-0.073905	-0.133873
C742	C	0.187120	-0.110390	-0.108697
H743	H	0.175917	-0.060698	-0.120805
H744	H	0.133614	-0.059994	-0.143076
H745	H	0.166162	-0.076281	-0.154809
H746	H	0.184783	-0.108014	-0.087762
H747	H	0.217341	-0.124304	-0.099488
H748	H	-0.167364	-0.248895	0.366187
C749	C	-0.230369	-0.194408	0.070377
C750	C	-0.215990	-0.205941	0.108361
H751	H	-0.256647	-0.169105	0.057227
H752	H	-0.236110	-0.211282	0.058204
H753	H	-0.208102	-0.195008	0.069940
H754	H	-0.238255	-0.205344	0.108798
H755	H	-0.210251	-0.189062	0.120537
C756	C	-0.058504	-0.361553	0.133795
C757	C	-0.096874	-0.325067	0.108621
H758	H	-0.046277	-0.374758	0.120727
H759	H	-0.065602	-0.375465	0.142997
H760	H	-0.037607	-0.359178	0.154732
H761	H	-0.117772	-0.327442	0.087685
H762	H	-0.089776	-0.311152	0.099413
C763	C	0.067522	-0.049013	-0.203396
C764	C	0.112073	-0.072987	-0.189818
H765	H	0.055346	-0.023713	-0.216554
H766	H	0.065199	-0.049002	-0.182454
H767	H	0.051807	-0.058062	-0.220393
H768	H	0.127789	-0.063940	-0.172818
H769	H	0.114400	-0.072996	-0.210762
C770	C	0.623109	-0.192469	0.355950
C771	C	0.661470	-0.205658	0.392420
H772	H	0.610886	-0.167169	0.342745
H773	H	0.602209	-0.192499	0.358319
H774	H	0.630220	-0.208791	0.342049
H775	H	0.654359	-0.189337	0.406322
H776	H	0.682375	-0.205624	0.390053
C777	C	-0.182985	-0.049017	-0.453883
C778	C	-0.172587	-0.072997	-0.474459
H779	H	-0.195132	-0.023716	-0.467009
H780	H	-0.156947	-0.058056	-0.429126
H781	H	-0.203936	-0.049012	-0.451567
H782	H	-0.151633	-0.073004	-0.476773
H783	H	-0.198629	-0.063955	-0.499223
C784	C	0.222536	-0.241050	-0.070446
C785	C	0.187395	-0.229519	-0.108430
H786	H	0.234711	-0.266352	-0.057294
H787	H	0.212093	-0.224175	-0.058274
H788	H	0.244639	-0.240450	-0.070009
H789	H	0.165290	-0.230116	-0.108866
H790	H	0.197837	-0.246399	-0.120604
C791	C	0.429479	-0.206809	0.164649
C792	C	0.452669	-0.243323	0.189714
H793	H	0.441646	-0.193683	0.177803
H794	H	0.399260	-0.192848	0.155439
H795	H	0.431810	-0.209134	0.143709
H796	H	0.450335	-0.240998	0.210653
H797	H	0.482895	-0.257287	0.198930
C798	C	0.519514	-0.389866	0.266198
C799	C	0.556785	-0.414490	0.303284
H800	H	0.506457	-0.402568	0.253508
H801	H	0.528061	-0.382714	0.252429
H802	H	0.498746	-0.367620	0.267506
H803	H	0.577555	-0.436734	0.301975
H804	H	0.548239	-0.421647	0.317056
C805	C	0.583722	-0.239908	0.355062
C806	C	0.618001	-0.243319	0.355037
H807	H	0.557443	-0.226782	0.329773
H808	H	0.578978	-0.225946	0.371324
H809	H	0.591497	-0.264684	0.364100
H810	H	0.610228	-0.218542	0.346001
H811	H	0.622744	-0.257281	0.338769
H812	H	0.732311	-0.533632	0.468860
H813	H	0.667437	-0.603998	0.398704
C814	C	0.607297	-0.553552	0.342359
C815	C	0.618587	-0.528367	0.355545
H816	H	0.581023	-0.540477	0.317067
H817	H	0.602599	-0.562759	0.358666
H818	H	0.630609	-0.574499	0.342397
H819	H	0.595276	-0.507422	0.355510
H820	H	0.623283	-0.519155	0.339233
C821	C	0.429177	-0.375399	0.164281
C822	C	0.452460	-0.362207	0.189454
H823	H	0.441274	-0.400702	0.177351
H824	H	0.431507	-0.375362	0.143346
H825	H	0.398959	-0.359082	0.155079
H826	H	0.482676	-0.378523	0.198654
H827	H	0.450133	-0.362247	0.210396
H828	H	0.382518	-0.319033	0.113857
