data_functionalizedCrystal
_audit_creation_method	'MofGen! by Chris Wilmer'
_symmetry_space_group_name_H-M	'P1'
_symmetry_Int_Tables_number	1
_symmetry_cell_setting	triclinic
loop_
_symmetry_equiv_pos_as_xyz
  x,y,z
_cell_length_a	19.077105
_cell_length_b	17.640280
_cell_length_c	19.076929
_cell_angle_alpha	98.511233
_cell_angle_beta	89.921700
_cell_angle_gamma	76.093206
loop_
_atom_site_label
_atom_site_type_symbol
_atom_site_fract_x
_atom_site_fract_y
_atom_site_fract_z
Zn1	Zn	1.129857	-0.382612	0.374498
Zn2	Zn	1.158302	-0.509790	0.235080
Zn3	Zn	1.015098	-0.372024	0.254116
Zn4	Zn	1.036029	-0.509306	0.347916
O5	O	1.084822	-0.443433	0.302902
O6	O	1.232829	-0.404116	0.359162
O7	O	1.142451	-0.487286	0.140003
O8	O	1.009657	-0.262751	0.289176
O9	O	1.253728	-0.497553	0.256733
O10	O	1.093970	-0.270530	0.377620
O11	O	1.037239	-0.386070	0.153988
O12	O	0.918676	-0.385601	0.263400
O13	O	1.045331	-0.496729	0.449045
O14	O	0.934054	-0.486462	0.332315
O15	O	1.114266	-0.403647	0.468574
O16	O	1.162747	-0.620403	0.230957
O17	O	1.072913	-0.620048	0.313857
C18	C	0.900644	-0.434831	0.297039
C19	C	0.821855	-0.431170	0.294544
C20	C	0.792881	-0.482037	0.329169
C21	C	0.718848	-0.478587	0.326829
C22	C	0.673792	-0.424274	0.289861
C23	C	0.702770	-0.373403	0.255235
C24	C	0.776800	-0.376849	0.257579
C25	C	0.451520	-0.408324	0.279016
C26	C	0.377485	-0.404884	0.276673
C27	C	0.393569	-0.510067	0.348268
C28	C	0.467601	-0.513512	0.350606
C29	C	0.496572	-0.462638	0.315983
N30	N	0.598118	-0.420749	0.287467
N31	N	0.572243	-0.466160	0.318382
C32	C	1.123207	-0.648924	0.267473
C33	C	1.139692	-0.736838	0.252341
C34	C	0.959868	-1.025169	0.418118
C35	C	0.975360	-1.107777	0.403877
C36	C	1.068957	-1.108088	0.317646
C37	C	1.053475	-1.025479	0.331881
C38	C	0.998929	-0.984026	0.382118
C39	C	1.092536	-0.984335	0.295881
C40	C	1.077052	-0.901733	0.310113
C41	C	1.022507	-0.860274	0.360346
C42	C	0.983445	-0.901424	0.396350
C43	C	1.147078	-1.025790	0.245642
C44	C	1.186140	-0.984646	0.209641
C45	C	1.170660	-0.902043	0.223877
C46	C	1.116115	-0.860584	0.274109
C47	C	1.209722	-0.860893	0.187873
C48	C	1.194238	-0.778291	0.202105
C49	C	1.100631	-0.777982	0.288342
C50	C	1.269719	-0.452070	0.308789
C51	C	1.348511	-0.455750	0.311298
C52	C	1.078960	-0.451315	0.484824
C53	C	1.076463	-0.454674	0.562348
C54	C	1.046306	-0.237141	0.338486
C55	C	1.029893	-0.149231	0.353650
C56	C	1.090690	-0.435526	0.121700
C57	C	1.093284	-0.431951	0.044219
C58	C	1.058564	-0.478829	0.997628
C59	C	1.060907	-0.475661	0.924788
C60	C	1.097973	-0.425619	0.898539
C61	C	1.132693	-0.378736	0.945135
C62	C	1.130346	-0.381900	1.017974
C63	C	1.108836	-0.410955	0.681784
C64	C	1.111182	-0.407796	0.608938
C65	C	1.039394	-0.504721	0.588597
C66	C	1.037055	-0.507884	0.661438
C67	C	1.071771	-0.460998	0.708028
N68	N	1.100369	-0.422381	0.824084
N69	N	1.069370	-0.464232	0.782482
H70	H	0.504282	-0.557741	0.380707
H71	H	1.028385	-0.519581	1.018994
H72	H	1.011129	-0.542891	0.550656
C73	C	1.173464	-0.323687	0.916259
N74	N	1.204175	-0.282225	0.894510
C75	C	1.168542	-0.330333	1.069224
N76	N	1.197311	-0.291489	1.107824
C77	C	1.151958	-0.352743	0.580067
N78	N	1.182670	-0.311280	0.558321
C79	C	1.246136	-1.030253	0.154380
N80	N	1.291327	-1.064604	0.112757
C81	C	0.361693	-0.566020	0.386357
N82	N	0.337683	-0.608163	0.415049
H83	H	1.159685	-1.093050	0.234057
H84	H	0.666078	-0.329177	0.225138
H85	H	0.800388	-0.335424	0.229388
H86	H	0.829562	-0.526266	0.359270
C87	C	1.005475	-0.769409	0.376002
N88	N	0.992648	-0.700969	0.387795
C89	C	0.686984	-0.534559	0.364903
N90	N	0.662986	-0.576724	0.393577
C91	C	0.996274	-0.562929	0.690307
N92	N	0.965557	-0.604390	0.712050
C93	C	1.128954	-1.153695	0.262384
N94	N	1.174144	-1.188046	0.220761
C95	C	1.147031	-0.359384	0.733023
N96	N	1.175803	-0.320539	0.771620
H97	H	1.226045	-0.744792	0.172789
H98	H	1.254128	-0.894656	0.146966
H99	H	0.475100	-0.366905	0.250818
C100	C	0.923432	-0.855820	0.451603
N101	N	0.878227	-0.821470	0.493212
C102	C	0.327923	-0.345132	0.236004
N103	N	0.290593	-0.300130	0.205373
H104	H	1.032644	-0.513842	0.886855
H105	H	1.056219	-0.744230	0.329254
H106	H	0.915456	-0.991417	0.459031
C107	C	0.932389	-1.153032	0.443488
N108	N	0.900023	-1.187118	0.473323
