data_functionalizedCrystal
_audit_creation_method	'MofGen! by Chris Wilmer'
_symmetry_space_group_name_H-M	'P1'
_symmetry_Int_Tables_number	1
_symmetry_cell_setting	triclinic
loop_
_symmetry_equiv_pos_as_xyz
  x,y,z
_cell_length_a	31.640172
_cell_length_b	14.395555
_cell_length_c	14.395555
_cell_angle_alpha	59.997451
_cell_angle_beta	89.993325
_cell_angle_gamma	59.990987
loop_
_atom_site_label
_atom_site_type_symbol
_atom_site_fract_x
_atom_site_fract_y
_atom_site_fract_z
Zr1	Zr	0.407151	1.016749	-0.121956
O2	O	0.339657	1.210577	-0.270284
O3	O	0.427845	0.822938	-0.076484
O4	O	0.427840	1.016754	-0.270290
O5	O	0.339663	1.016751	0.076397
O6	O	0.497396	1.016738	-0.270296
O7	O	0.339662	1.016761	-0.076478
O8	O	0.497406	0.670036	0.076387
O9	O	0.339653	1.363453	-0.270285
O10	O	0.488576	0.902637	-0.057097
O11	O	0.436667	0.902641	0.056997
O12	O	0.436661	1.130835	-0.171184
O13	O	0.384752	1.130839	-0.057090
Zr14	Zr	0.518086	1.016708	0.121853
Zr15	Zr	0.518085	1.016724	-0.121966
Zr16	Zr	0.407152	1.016733	0.121863
Zr17	Zr	0.407145	1.260568	-0.121959
Zr18	Zr	0.518092	0.772889	0.121856
O19	O	0.497392	1.210519	0.076381
O20	O	0.497391	1.210542	-0.270298
O21	O	0.339658	1.210555	0.076395
O22	O	0.585580	0.822880	0.270181
O23	O	0.585579	0.822902	-0.076498
O24	O	0.427846	0.822915	0.270195
O25	O	0.585574	1.016706	-0.076500
O26	O	0.497398	1.016703	0.270187
O27	O	0.427841	1.016719	0.270193
O28	O	0.585575	1.016696	0.076375
O29	O	0.427831	1.363433	-0.270293
O30	O	0.497406	0.670024	0.270190
O31	O	0.585584	0.670004	0.270183
O32	O	0.585584	0.670017	0.076379
O33	O	0.339654	1.363441	-0.076482
O34	O	0.427831	1.363421	-0.076490
O35	O	0.488577	0.902622	0.171081
O36	O	0.540485	0.902618	0.056988
O37	O	0.488570	1.130816	-0.057100
O38	O	0.436661	1.130820	0.056994
C39	C	0.462626	0.711748	-0.000048
C40	C	0.462629	0.608240	-0.000047
C41	C	0.490927	0.547660	-0.062267
C42	C	0.511439	0.409539	0.045005
C43	C	0.442120	0.561926	-0.107307
C44	C	0.483170	0.471420	0.107288
C45	C	0.413823	0.623881	-0.045102
C46	C	0.434323	0.485770	0.062234
C47	C	0.323857	1.016760	-0.000039
C48	C	0.276762	1.016771	-0.000035
C49	C	-0.015243	1.016710	-0.084270
C50	C	-0.192230	1.016694	-0.084278
O51	O	-0.215103	1.016640	-0.155877
N52	N	-0.214360	1.016691	-0.000059
C53	C	-0.192239	1.016684	0.084173
O54	O	-0.215121	1.016668	0.155813
C55	C	-0.015251	1.016691	0.084185
C56	C	0.006874	1.016707	-0.000046
C57	C	0.006882	1.016725	-0.168493
C58	C	0.051124	1.016736	-0.168494
C59	C	0.073241	1.016733	-0.084271
C60	C	0.051116	1.016718	-0.000047
C61	C	0.006871	1.016674	0.168420
C62	C	0.051121	1.016673	0.168418
C63	C	0.073246	1.016689	0.084186
C64	C	0.117475	1.016726	0.084176
N65	N	0.139606	1.016729	-0.000044
C66	C	0.117489	1.016732	-0.084267
C67	C	-0.285161	1.016683	0.084159
C68	C	-0.329408	1.016683	0.084155
C69	C	-0.329395	1.016691	-0.084295
C70	C	-0.285149	1.016700	-0.084294
C71	C	-0.263031	1.016685	-0.000060
C72	C	0.210401	1.016757	-0.084262
C73	C	0.254646	1.016774	-0.084258
C74	C	0.254630	1.016759	0.084195
C75	C	0.210387	1.016750	0.084188
C76	C	0.188275	1.016744	-0.000046
O77	O	0.140379	1.016765	0.155744
O78	O	0.140384	1.016719	-0.155882
C79	C	-0.059486	1.016699	-0.084269
C80	C	-0.081611	1.016684	-0.000045
C81	C	-0.059494	1.016681	0.084178
C82	C	-0.125858	1.016685	-0.000049
C83	C	-0.147975	1.016688	-0.084272
C84	C	-0.125845	1.016691	-0.168492
C85	C	-0.081603	1.016702	-0.168492
C86	C	-0.081625	1.016678	0.168397
C87	C	-0.125867	1.016669	0.168390
C88	C	-0.147984	1.016672	0.084167
C89	C	0.601380	1.016697	-0.000064
C90	C	0.648475	1.016687	-0.000068
C91	C	0.462618	1.016748	-0.305032
C92	C	0.462617	1.016755	-0.408539
C93	C	0.462611	1.321709	-0.000055
C94	C	0.462608	1.425217	-0.000056
C95	C	0.434311	1.141155	-0.593232
C96	C	0.413794	1.078995	-0.500199
C97	C	0.483110	1.078948	-0.500213
C98	C	0.442075	0.954540	-0.499894
C99	C	0.511418	0.954511	-0.499922
C100	C	0.490913	0.892260	-0.406871
C101	C	0.462620	1.016709	0.304929
C102	C	0.462620	1.016702	0.408436
C103	C	0.601388	0.711717	-0.000061
C104	C	0.648485	0.608199	-0.000064
C105	C	0.462627	0.711728	0.304932
C106	C	0.462630	0.608214	0.408441
C107	C	0.601389	0.711697	0.304920
C108	C	0.648486	0.608172	0.408424
C109	C	0.323848	1.321760	-0.305023
C110	C	0.276751	1.425285	-0.408527
C111	C	0.323849	1.321740	-0.000042
C112	C	0.276752	1.425259	-0.000039
C113	C	0.462610	1.321729	-0.305035
C114	C	0.462607	1.425243	-0.408543
C115	C	0.643506	0.559595	-0.059626
C116	C	0.687755	0.462342	-0.059652
C117	C	0.736982	0.413688	-0.000108
C118	C	0.741959	0.462301	0.059457
C119	C	0.697711	0.559559	0.059475
C120	C	0.697704	0.559554	0.397475
C121	C	0.741962	0.462295	0.494719
C122	C	0.737000	0.413649	0.602911
C123	C	0.687777	0.462277	0.613858
C124	C	0.643521	0.559541	0.516615
C125	C	0.227533	1.473915	-0.397578
C126	C	0.183276	1.571205	-0.494822
C127	C	0.188237	1.619855	-0.603014
C128	C	0.237460	1.571221	-0.613961
C129	C	0.281717	1.473940	-0.516718
C130	C	0.281731	1.473872	0.059513
C131	C	0.237483	1.571152	0.059512
C132	C	0.188256	1.619810	-0.000036
C133	C	0.183278	1.571192	-0.059596
C134	C	0.227526	1.473921	-0.059600
C135	C	0.434328	0.547633	0.406829
C136	C	0.483143	0.409510	0.499849
C137	C	0.413837	0.561864	0.499861
C138	C	0.511474	0.471391	0.500097
C139	C	0.442133	0.623819	0.500095
C140	C	0.490978	0.485705	0.593132
H141	H	0.514895	0.574739	-0.114792
H142	H	0.272658	1.016790	-0.152853
H143	H	0.773007	0.334493	-0.000131
H144	H	0.241546	1.610720	0.108017
H145	H	0.192369	1.016756	0.152767
H146	H	0.683691	0.422773	-0.108156
H147	H	-0.267137	1.016712	-0.152882
H148	H	0.603427	0.599209	-0.108128
H149	H	0.143200	1.610786	-0.485887
H150	H	0.782046	0.422672	0.107935
H151	H	0.192402	1.016750	-0.152852
H152	H	0.152230	1.699014	-0.000022
H153	H	0.223465	1.434343	-0.108092
H154	H	0.143191	1.610824	-0.108078
H155	H	0.701773	0.599119	0.107985
H156	H	0.372566	0.715546	-0.083236
H157	H	0.321810	1.434262	0.108012
H158	H	0.152197	1.699067	-0.682186
H159	H	0.241494	1.610844	-0.702062
H160	H	0.321791	1.434346	-0.525646
H161	H	-0.347411	1.016696	-0.152874
H162	H	0.410428	0.574729	0.327069
H163	H	0.500489	0.317881	0.500775
H164	H	0.424692	0.902000	-0.500693
H165	H	0.514847	0.786975	-0.327217
H166	H	0.552763	0.434005	0.499270
H167	H	0.372569	0.599048	0.500780
H168	H	0.552678	0.901950	-0.500879
H169	H	0.683744	0.422656	0.701961
H170	H	0.514951	0.458663	0.672763
H171	H	0.223483	1.434310	-0.309491
H172	H	0.424775	0.715481	0.499110
H173	H	0.701754	0.599146	0.309388
H174	H	0.552705	0.317897	0.083114
H175	H	0.782037	0.422711	0.485786
H176	H	0.500553	0.434021	0.198035
H177	H	0.424783	0.599135	-0.198012
H178	H	0.069137	1.016744	-0.237080
H179	H	0.410389	0.458745	0.114921
H180	H	-0.011121	1.016723	-0.237079
H181	H	-0.347424	1.016691	0.152734
H182	H	-0.267155	1.016672	0.152755
H183	H	0.500440	1.131564	-0.499335
H184	H	0.773040	0.334451	0.682083
H185	H	-0.011137	1.016660	0.237010
H186	H	0.069129	1.016657	0.237015
H187	H	0.272643	1.016762	0.152766
H188	H	-0.143861	1.016701	-0.237073
H189	H	-0.063591	1.016715	-0.237081
H190	H	-0.143881	1.016666	0.236981
H191	H	0.603447	0.599114	0.525546
H192	H	0.410344	1.246352	-0.673017
H193	H	-0.063620	1.016673	0.236983
H194	H	0.372525	1.131602	-0.499285
