data_functionalizedCrystal
_audit_creation_method	'MofGen! by Chris Wilmer'
_symmetry_space_group_name_H-M	'P1'
_symmetry_Int_Tables_number	1
_symmetry_cell_setting	triclinic
loop_
_symmetry_equiv_pos_as_xyz
  x,y,z
_cell_length_a	16.120490
_cell_length_b	16.120484
_cell_length_c	12.759393
_cell_angle_alpha	87.135992
_cell_angle_beta	92.918609
_cell_angle_gamma	90.164100
loop_
_atom_site_label
_atom_site_type_symbol
_atom_site_fract_x
_atom_site_fract_y
_atom_site_fract_z
Zn1	Zn	1.254506	-0.395627	0.699333
Zn2	Zn	1.587840	-0.062294	1.032666
Zn3	Zn	1.921173	0.271039	1.366000
Zn4	Zn	1.247342	-0.534698	0.532065
Zn5	Zn	1.580675	-0.201365	0.865398
Zn6	Zn	1.914009	0.131968	1.198732
Zn7	Zn	1.115437	-0.388600	0.514343
Zn8	Zn	1.448771	-0.055266	0.847676
Zn9	Zn	1.782104	0.278067	1.181009
Zn10	Zn	1.108358	-0.527572	0.698376
Zn11	Zn	1.441691	-0.194239	1.031709
Zn12	Zn	1.775025	0.139094	1.365042
O13	O	1.181411	-0.461624	0.611029
O14	O	1.514744	-0.128291	0.944362
O15	O	1.848078	0.205042	1.277696
O16	O	1.369922	-0.419999	0.684962
O17	O	1.703255	-0.086665	1.018296
O18	O	2.036589	0.246668	1.351629
O19	O	1.229809	-0.515359	0.382693
O20	O	1.563142	-0.182026	0.716027
O21	O	1.896476	0.151308	1.049360
O22	O	1.139846	-0.273169	0.531866
O23	O	1.473179	0.060164	0.865199
O24	O	1.806513	0.393497	1.198532
O25	O	1.364658	-0.522174	0.562071
O26	O	1.697992	-0.188840	0.895405
O27	O	2.031325	0.144493	1.228738
O28	O	1.242019	-0.278333	0.667777
O29	O	1.575353	0.055001	1.001111
O30	O	1.908686	0.388334	1.334444
O31	O	1.132899	-0.408021	0.369673
O32	O	1.466233	-0.074688	0.703006
O33	O	1.799566	0.258646	1.036339
O34	O	0.998132	-0.401111	0.530937
O35	O	1.331466	-0.067778	0.864271
O36	O	1.664799	0.265555	1.197604
O37	O	1.127781	-0.510028	0.845524
O38	O	1.461114	-0.176695	1.178857
O39	O	1.794447	0.156638	1.512190
O40	O	0.992931	-0.503214	0.666146
O41	O	1.326265	-0.169881	0.999479
O42	O	1.659598	0.163453	1.332812
O43	O	1.235155	-0.413089	0.846227
O44	O	1.568488	-0.079756	1.179560
O45	O	1.901822	0.253578	1.512894
O46	O	1.222945	-0.650115	0.561143
O47	O	1.556278	-0.316782	0.894476
O48	O	1.889611	0.016551	1.227810
O49	O	1.120834	-0.644880	0.683331
O50	O	1.454167	-0.311547	1.016664
O51	O	1.787500	0.021787	1.349997
C52	C	0.965359	-0.450627	0.596515
C53	C	1.298693	-0.117294	0.929849
C54	C	1.632026	0.216039	1.263182
C55	C	0.872930	-0.445943	0.590332
C56	C	1.206264	-0.112609	0.923666
C57	C	1.539597	0.220724	1.256999
C58	C	1.170366	-0.677670	0.624080
C59	C	1.503699	-0.344337	0.957414
C60	C	1.837033	-0.011004	1.290747
C61	C	1.165717	-0.770099	0.629704
C62	C	1.499050	-0.436766	0.963037
C63	C	1.832384	-0.103433	1.296371
C64	C	1.157234	-0.939329	0.639993
C65	C	1.490568	-0.605996	0.973327
C66	C	1.823901	-0.272663	1.306660
C67	C	1.205737	-0.983086	0.582092
C68	C	1.539070	-0.649753	0.915426
C69	C	1.872403	-0.316420	1.248759
C70	C	1.201017	-1.077252	0.587817
C71	C	1.534350	-0.743918	0.921151
C72	C	1.867683	-0.410585	1.254484
C73	C	1.161953	-0.845155	0.634270
C74	C	1.495286	-0.511822	0.967603
C75	C	1.828620	-0.178489	1.300936
C76	C	0.659963	-0.485917	0.643103
C77	C	0.993296	-0.152584	0.976436
C78	C	1.326630	0.180749	1.309769
C79	C	0.703707	-0.437398	0.579043
C80	C	1.037040	-0.104064	0.912376
C81	C	1.370373	0.229269	1.245709
C82	C	0.797871	-0.442154	0.585326
C83	C	1.131205	-0.108820	0.918659
C84	C	1.464538	0.224513	1.251993
C85	C	0.565790	-0.481162	0.636821
C86	C	0.899123	-0.147829	0.970154
C87	C	1.232456	0.185504	1.303487
C88	C	1.398306	-0.472665	0.625600
C89	C	1.731639	-0.139332	0.958934
C90	C	2.064973	0.194002	1.292267
C91	C	1.490734	-0.477370	0.631810
C92	C	1.824067	-0.144036	0.965143
C93	C	2.157401	0.189297	1.298476
C94	C	1.181477	-0.461548	0.885062
C95	C	1.514811	-0.128214	1.218395
C96	C	1.848144	0.205119	1.551729
C97	C	1.181505	-0.461515	1.001838
C98	C	1.514839	-0.128182	1.335172
C99	C	1.848172	0.205152	1.668505
C100	C	1.192522	-0.244736	0.597951
C101	C	1.525855	0.088597	0.931285
C102	C	1.859188	0.421931	1.264618
C103	C	1.197256	-0.152311	0.592378
C104	C	1.530590	0.181022	0.925712
C105	C	1.863923	0.514356	1.259045
C106	C	1.181396	-0.461643	0.338062
C107	C	1.514729	-0.128310	0.671395
C108	C	1.848062	0.205024	1.004729
C109	C	1.181541	-0.461450	0.221283
C110	C	1.514874	-0.128116	0.554616
C111	C	1.848207	0.205217	0.887949
C112	C	1.237420	-0.411030	1.057068
C113	C	1.570753	-0.077697	1.390401
C114	C	1.904086	0.255636	1.723735
C115	C	1.237436	-0.410995	1.166791
C116	C	1.570769	-0.077662	1.500124
C117	C	1.904102	0.255672	1.833458
C118	C	1.125620	-0.511936	1.166045
C119	C	1.458954	-0.178603	1.499379
C120	C	1.792287	0.154730	1.832712
C121	C	1.125601	-0.511967	1.056324
C122	C	1.458934	-0.178633	1.389657
C123	C	1.792268	0.154700	1.722990
H124	H	1.112168	-0.972586	0.693858
H125	H	1.445502	-0.639252	1.027192
H126	H	1.778835	-0.305919	1.360525
C127	C	0.704898	-0.546861	0.723557
C128	C	1.038231	-0.213527	1.056890
C129	C	1.371565	0.119806	1.390223
H130	H	0.665071	-0.576678	0.762930
H131	H	0.998405	-0.243345	1.096263
H132	H	1.331738	0.089988	1.429596
H133	H	0.736923	-0.584726	0.687687
H134	H	1.070256	-0.251392	1.021020
H135	H	1.403589	0.081941	1.354353
H136	H	0.740420	-0.516770	0.769702
H137	H	1.073754	-0.183437	1.103036
H138	H	1.407087	0.149897	1.436369
C139	C	1.266597	-0.938162	0.509286
C140	C	1.599931	-0.604828	0.842619
C141	C	1.933264	-0.271495	1.175953
H142	H	1.261812	-0.879847	0.514921
H143	H	1.595146	-0.546514	0.848254
H144	H	1.928479	-0.213181	1.181588
H145	H	1.321778	-0.955114	0.529282
H146	H	1.655111	-0.621780	0.862615
H147	H	1.988445	-0.288447	1.195949
H148	H	1.253727	-0.951797	0.438721
H149	H	1.587061	-0.618463	0.772055
H150	H	1.920394	-0.285130	1.105388
H151	H	1.080063	-0.553076	1.011354
H152	H	1.413397	-0.219743	1.344687
H153	H	1.746730	0.113590	1.678021
C154	C	1.298901	-0.355525	0.997136
C155	C	1.632235	-0.022192	1.330469
C156	C	1.965568	0.311141	1.663803
H157	H	1.332197	-0.325447	1.045747
H158	H	1.665531	0.007886	1.379080
H159	H	1.998864	0.341220	1.712413
H160	H	1.333499	-0.389184	0.958685
H161	H	1.666832	-0.055851	1.292019
H162	H	2.000166	0.277483	1.625352
H163	H	1.268931	-0.317684	0.950013
H164	H	1.602264	0.015649	1.283346
H165	H	1.935598	0.348982	1.616680
C166	C	1.298945	-0.355466	1.227540
C167	C	1.632278	-0.022133	1.560873
C168	C	1.965612	0.311201	1.894206
H169	H	1.332238	-0.325430	1.179373
H170	H	1.665572	0.007903	1.512706
H171	H	1.998905	0.341236	1.846040
H172	H	1.269004	-0.317601	1.266017
H173	H	1.602337	0.015733	1.599351
H174	H	1.935670	0.349066	1.932684
H175	H	1.333555	-0.389115	1.274697
H176	H	1.666888	-0.055782	1.608031
H177	H	2.000222	0.277551	1.941364
C178	C	0.658768	-0.376453	0.498583
C179	C	0.992101	-0.043120	0.831916
C180	C	1.325434	0.290214	1.165249
H181	H	0.600456	-0.381213	0.504858
H182	H	0.933789	-0.047880	0.838191
H183	H	1.267122	0.285454	1.171524
H184	H	0.675807	-0.321300	0.511628
H185	H	1.009140	0.012033	0.844961
H186	H	1.342474	0.345366	1.178295
H187	H	0.672304	-0.389261	0.429619
H188	H	1.005638	-0.055928	0.762952
H189	H	1.338971	0.277406	1.096285
H190	H	1.080107	-0.553014	1.210421
H191	H	1.413440	-0.219681	1.543754
H192	H	1.746773	0.113652	1.877087
