data_functionalizedCrystal
_audit_creation_method	'MofGen! by Chris Wilmer'
_symmetry_space_group_name_H-M	'P1'
_symmetry_Int_Tables_number	1
_symmetry_cell_setting	triclinic
loop_
_symmetry_equiv_pos_as_xyz
  x,y,z
_cell_length_a	10.654550
_cell_length_b	16.109301
_cell_length_c	14.586319
_cell_angle_alpha	89.999213
_cell_angle_beta	89.999536
_cell_angle_gamma	96.026795
loop_
_atom_site_label
_atom_site_type_symbol
_atom_site_fract_x
_atom_site_fract_y
_atom_site_fract_z
O1	O	-0.161419	1.104091	-0.076174
O2	O	-0.181507	0.862148	-0.076187
O3	O	0.011352	0.988682	-0.076184
O4	O	-0.354278	0.977557	-0.076177
O5	O	0.011354	0.988673	0.076297
O6	O	-0.181504	0.862139	0.076294
O7	O	-0.161416	1.104082	0.076307
Cu8	Cu	-0.171460	0.983110	0.090223
Cu9	Cu	-0.171463	0.983120	-0.090103
O10	O	-0.354275	0.977548	0.076304
C11	C	-0.180692	0.831164	0.000051
C12	C	-0.178253	0.738854	0.000046
C13	C	-0.287019	0.517228	0.000059
C14	C	-0.284717	0.430494	0.000064
C15	C	-0.055896	0.449008	0.000056
C16	C	-0.058199	0.535741	0.000057
C17	C	-0.173764	0.569848	0.000053
C18	C	-0.169159	0.396382	0.000059
C19	C	-0.166662	0.302341	0.000065
C20	C	-0.176262	0.663895	0.000049
C21	C	-0.401063	0.978369	0.000064
C22	C	-0.540473	0.980813	0.000067
C23	C	-0.620970	0.906312	0.000061
C24	C	-0.751959	0.908613	0.000046
C25	C	-0.721943	1.059924	0.000048
C26	C	-0.590956	1.057621	0.000056
C27	C	-0.948994	0.820872	-0.053389
C28	C	-1.029495	0.746367	-0.053380
C29	C	-1.000240	0.678822	0.000053
C30	C	-0.890486	0.685780	0.053498
C31	C	-0.809991	0.760287	0.053497
C32	C	-0.839245	0.827828	0.000043
C33	C	-0.393920	1.145357	0.053500
C34	C	-0.313423	1.219865	0.053505
C35	C	-0.342674	1.287416	0.000078
C36	C	-0.452430	1.280466	-0.053354
C37	C	-0.532928	1.205959	-0.053359
C38	C	-0.503668	1.138407	0.000066
C39	C	0.058140	0.987861	0.000054
C40	C	0.197550	0.985417	0.000045
C41	C	-0.162231	1.135066	0.000067
C42	C	-0.164671	1.227376	0.000066
N43	N	-0.171457	0.983108	0.217055
N44	N	-0.171457	0.983128	-0.216935
C45	C	-0.086088	1.039156	0.452063
C46	C	-0.086084	1.039159	0.548044
C47	C	-0.256830	0.927074	0.548051
C48	C	-0.256826	0.927068	0.452071
C49	C	-0.171456	0.983114	0.404080
C50	C	-0.171457	0.983122	0.596040
C51	C	-0.171455	0.983124	0.700108
C52	C	-0.171457	0.983111	0.300006
H53	H	0.034032	0.578586	0.000055
Cl54	Cl	-0.427100	0.364347	0.000072
H55	H	0.038193	0.421227	0.000065
Cl56	Cl	-0.557510	0.809753	0.000070
H57	H	-0.381119	0.544996	0.000063
H58	H	-0.720631	0.765951	0.097010
H59	H	-0.866685	0.630780	0.097015
H60	H	-1.065795	0.618159	0.000060
H61	H	-0.224050	1.225518	0.097013
H62	H	-0.277125	1.348085	0.000094
Cl63	Cl	-0.489217	1.365392	-0.120515
Cl64	Cl	-1.167465	0.737620	-0.120569
H65	H	-0.972803	0.875858	-0.096926
Cl66	Cl	-0.364152	0.856622	0.608387
H67	H	-0.016568	1.084792	0.587109
H68	H	-0.763063	1.122458	0.000049
Cl69	Cl	-0.670911	1.197223	-0.120531
H70	H	-0.370090	1.090353	0.097005
Cl71	Cl	0.021239	1.109611	0.391735
H72	H	-0.326344	0.881428	0.413001
