data_functionalizedCrystal
_audit_creation_method	'MofGen! by Chris Wilmer'
_symmetry_space_group_name_H-M	'P1'
_symmetry_Int_Tables_number	1
_symmetry_cell_setting	triclinic
loop_
_symmetry_equiv_pos_as_xyz
  x,y,z
_cell_length_a	11.169417
_cell_length_b	29.839131
_cell_length_c	11.169409
_cell_angle_alpha	89.952226
_cell_angle_beta	89.980487
_cell_angle_gamma	90.036478
loop_
_atom_site_label
_atom_site_type_symbol
_atom_site_fract_x
_atom_site_fract_y
_atom_site_fract_z
Zn1	Zn	1.834755	-0.178802	-0.678404
Zn2	Zn	2.168088	0.154531	-0.345071
Zn3	Zn	2.501421	0.487865	-0.011737
Zn4	Zn	1.834557	-0.253943	-0.477667
Zn5	Zn	2.167890	0.079390	-0.144333
Zn6	Zn	2.501224	0.412723	0.189000
Zn7	Zn	1.634041	-0.178830	-0.477739
Zn8	Zn	1.967374	0.154503	-0.144406
Zn9	Zn	2.300707	0.487837	0.188927
Zn10	Zn	1.633961	-0.253907	-0.678313
Zn11	Zn	1.967294	0.079426	-0.344979
Zn12	Zn	2.300628	0.412759	-0.011646
O13	O	1.734328	-0.216371	-0.578031
O14	O	2.067662	0.116963	-0.244697
O15	O	2.400995	0.450296	0.088636
O16	O	2.002678	-0.188773	-0.651784
O17	O	2.336012	0.144560	-0.318450
O18	O	2.669345	0.477894	0.014883
O19	O	1.807909	-0.244006	-0.309727
O20	O	2.141242	0.089327	0.023607
O21	O	2.474575	0.422660	0.356940
O22	O	1.660782	-0.115959	-0.504427
O23	O	1.994115	0.217374	-0.171093
O24	O	2.327449	0.550708	0.162240
O25	O	2.002533	-0.243979	-0.504303
O26	O	2.335866	0.089354	-0.170969
O27	O	2.669200	0.422687	0.162364
O28	O	1.808246	-0.115939	-0.651854
O29	O	2.141579	0.217395	-0.318521
O30	O	2.474912	0.550728	0.014813
O31	O	1.660590	-0.188821	-0.309780
O32	O	1.993923	0.144513	0.023553
O33	O	2.327257	0.477846	0.356887
O34	O	1.466080	-0.188786	-0.504338
O35	O	1.799414	0.144548	-0.171005
O36	O	2.132747	0.477881	0.162328
O37	O	1.660646	-0.243918	-0.846275
O38	O	1.993979	0.089416	-0.512941
O39	O	2.327313	0.422749	-0.179608
O40	O	1.466022	-0.243945	-0.651699
O41	O	1.799355	0.089389	-0.318365
O42	O	2.132689	0.422722	0.014968
O43	O	1.808168	-0.188738	-0.846342
O44	O	2.141502	0.144595	-0.513008
O45	O	2.474835	0.477929	-0.179675
O46	O	1.807831	-0.316806	-0.504214
O47	O	2.141165	0.016528	-0.170881
O48	O	2.474498	0.349861	0.162452
O49	O	1.660454	-0.316779	-0.651628
O50	O	1.993788	0.016554	-0.318295
O51	O	2.327121	0.349887	0.015039
C52	C	1.422504	-0.216365	-0.578017
C53	C	1.755837	0.116969	-0.244684
C54	C	2.089170	0.450302	0.088650
C55	C	1.289104	-0.216373	-0.578040
C56	C	1.622437	0.116960	-0.244706
C57	C	1.955770	0.450294	0.088627
C58	C	1.734145	-0.333093	-0.577930
C59	C	2.067479	0.000240	-0.244596
C60	C	2.400812	0.333573	0.088737
C61	C	1.734177	-0.383028	-0.577926
C62	C	2.067510	-0.049694	-0.244593
C63	C	2.400843	0.283639	0.088740
C64	C	1.811096	-0.692625	-0.654906
C65	C	2.144429	-0.359292	-0.321572
C66	C	2.477763	-0.025959	0.011761
C67	C	1.811226	-0.880299	-0.654978
C68	C	2.144560	-0.546965	-0.321644
C69	C	2.477893	-0.213632	0.011689
O70	O	1.876446	-0.904525	-0.720353
O71	O	2.209780	-0.571191	-0.387020
O72	O	2.543113	-0.237858	-0.053686
N73	N	1.734532	-0.903813	-0.578164
N74	N	2.067865	-0.570479	-0.244831
N75	N	2.401199	-0.237146	0.088503
C76	C	1.657794	-0.880406	-0.501332
C77	C	1.991128	-0.547072	-0.167999
C78	C	2.324461	-0.213739	0.165334
O79	O	1.592556	-0.904712	-0.436008
O80	O	1.925889	-0.571379	-0.102674
O81	O	2.259222	-0.238046	0.230659
C82	C	1.657659	-0.692734	-0.501267
C83	C	1.990992	-0.359400	-0.167934
C84	C	2.324326	-0.026067	0.165400
C85	C	1.734367	-0.669222	-0.578077
C86	C	2.067700	-0.335888	-0.244744
C87	C	2.401033	-0.002555	0.088589
C88	C	1.887797	-0.669114	-0.731710
C89	C	2.221130	-0.335780	-0.398377
C90	C	2.554463	-0.002447	-0.065044
C91	C	1.887768	-0.622198	-0.731687
C92	C	2.221101	-0.288865	-0.398354
C93	C	2.554434	0.044468	-0.065020
C94	C	1.811039	-0.598795	-0.654859
C95	C	2.144372	-0.265461	-0.321525
C96	C	2.477705	0.067872	0.011808
C97	C	1.734338	-0.622306	-0.578054
C98	C	2.067671	-0.288973	-0.244721
C99	C	2.401005	0.044360	0.088613
C100	C	1.580916	-0.669327	-0.424442
C101	C	1.914249	-0.335994	-0.091109
C102	C	2.247583	-0.002661	0.242224
C103	C	1.580887	-0.622406	-0.424435
C104	C	1.914220	-0.289073	-0.091102
C105	C	2.247554	0.044260	0.242232
C106	C	1.657595	-0.598895	-0.501245
C107	C	1.990928	-0.265561	-0.167912
C108	C	2.324261	0.067772	0.165421
C109	C	1.657580	-0.551987	-0.501202
C110	C	1.990913	-0.218654	-0.167869
C111	C	2.324247	0.114679	0.165464
N112	N	1.734274	-0.528473	-0.578016
N113	N	2.067607	-0.195140	-0.244683
N114	N	2.400941	0.138194	0.088651
C115	C	1.811003	-0.551877	-0.654844
C116	C	2.144337	-0.218543	-0.321511
C117	C	2.477670	0.114790	0.011822
C118	C	1.657873	-0.978936	-0.501370
C119	C	1.991206	-0.645603	-0.168037
C120	C	2.324539	-0.312270	0.165296
C121	C	1.657908	-1.025854	-0.501385
C122	C	1.991241	-0.692521	-0.168051
C123	C	2.324574	-0.359187	0.165282
C124	C	1.811338	-1.025744	-0.655032
C125	C	2.144672	-0.692410	-0.321699
C126	C	2.478005	-0.359077	0.011635
C127	C	1.811308	-0.978825	-0.655011
C128	C	2.144642	-0.645492	-0.321677
C129	C	2.477975	-0.312158	0.011656
C130	C	1.734567	-0.955422	-0.578184
C131	C	2.067900	-0.622089	-0.244851
C132	C	2.401233	-0.288755	0.088483
C133	C	1.810938	-0.453351	-0.654789
C134	C	2.144271	-0.120018	-0.321455
C135	C	2.477605	0.213316	0.011878
C136	C	1.810906	-0.406431	-0.654755
C137	C	2.144239	-0.073098	-0.321421
C138	C	2.477573	0.260235	0.011912
C139	C	1.657472	-0.406546	-0.501112
C140	C	1.990805	-0.073213	-0.167779
C141	C	2.324138	0.260121	0.165554
C142	C	1.657507	-0.453461	-0.501141
C143	C	1.990841	-0.120128	-0.167808
C144	C	2.324174	0.213205	0.165525
C145	C	1.734245	-0.476863	-0.577989
C146	C	2.067578	-0.143529	-0.244656
C147	C	2.400911	0.189804	0.088678
O148	O	1.592385	-0.527732	-0.435871
O149	O	1.925718	-0.194399	-0.102537
O150	O	2.259051	0.138934	0.230796
O151	O	1.876214	-0.527562	-0.720178
O152	O	2.209547	-0.194229	-0.386844
O153	O	2.542880	0.139105	-0.053511
C154	C	1.811125	-0.739541	-0.654929
C155	C	2.144458	-0.406208	-0.321596
C156	C	2.477791	-0.072874	0.011738
C157	C	1.734424	-0.763053	-0.578124
C158	C	2.067758	-0.429719	-0.244791
C159	C	2.401091	-0.096386	0.088543
C160	C	1.657695	-0.739649	-0.501296
C161	C	1.991028	-0.406316	-0.167962
C162	C	2.324362	-0.072982	0.165371
C163	C	1.734459	-0.809971	-0.578139
C164	C	2.067793	-0.476637	-0.244805
C165	C	2.401126	-0.143304	0.088528
C166	C	1.811189	-0.833374	-0.654967
C167	C	2.144522	-0.500041	-0.321634
C168	C	2.477855	-0.166708	0.011700
C169	C	1.887883	-0.809860	-0.731781
C170	C	2.221216	-0.476527	-0.398447
C171	C	2.554549	-0.143193	-0.065114
C172	C	1.887854	-0.762945	-0.731757
C173	C	2.221187	-0.429611	-0.398424
C174	C	2.554521	-0.096278	-0.065091
C175	C	1.581001	-0.763163	-0.424482
C176	C	1.914334	-0.429830	-0.091149
C177	C	2.247667	-0.096497	0.242185
C178	C	1.581037	-0.810079	-0.424511
C179	C	1.914370	-0.476745	-0.091177
C180	C	2.247703	-0.143412	0.242156
C181	C	1.657766	-0.833482	-0.501339
C182	C	1.991099	-0.500149	-0.168006
C183	C	2.324433	-0.166816	0.165328
C184	C	2.047371	-0.216377	-0.578045
C185	C	2.380704	0.116956	-0.244712
C186	C	2.714037	0.450290	0.088621
C187	C	2.180771	-0.216380	-0.578051
C188	C	2.514104	0.116954	-0.244718
C189	C	2.847437	0.450287	0.088615
C190	C	1.734421	-0.216321	-0.891073
C191	C	2.067754	0.117013	-0.557740
C192	C	2.401087	0.450346	-0.224407
C193	C	1.734460	-0.216300	-1.024474
C194	C	2.067793	0.117034	-0.691140
C195	C	2.401126	0.450367	-0.357807
C196	C	1.734545	-0.099192	-0.578159
C197	C	2.067878	0.234141	-0.244825
C198	C	2.401211	0.567474	0.088508
C199	C	1.734637	-0.049258	-0.578213
C200	C	2.067970	0.284076	-0.244880
C201	C	2.401304	0.617409	0.088454
C202	C	1.734306	-0.216388	-0.266206
C203	C	2.067639	0.116945	0.067127
C204	C	2.400972	0.450279	0.400461
C205	C	1.734499	-0.216283	-0.132807
C206	C	2.067832	0.117051	0.200527
C207	C	2.401166	0.450384	0.533860
H208	H	1.873375	-0.387289	-0.717303
H209	H	2.206708	-0.053956	-0.383969
H210	H	2.540042	0.279377	-0.050636
H211	H	1.595055	-0.472606	-0.438587
H212	H	1.928389	-0.139272	-0.105253
H213	H	2.261722	0.194061	0.228080
H214	H	1.950316	-0.743805	-0.794304
H215	H	2.283650	-0.410471	-0.460970
H216	H	2.616983	-0.077138	-0.127637
H217	H	1.950226	-0.603058	-0.794236
H218	H	2.283559	-0.269724	-0.460903
H219	H	2.616893	0.063609	-0.127569
H220	H	1.518574	-0.829218	-0.361951
H221	H	1.851907	-0.495885	-0.028618
H222	H	2.185241	-0.162551	0.304715
O223	O	1.893710	-0.478583	-0.737673
O224	O	2.227044	-0.145250	-0.404340
O225	O	2.560377	0.188083	-0.071007
H226	H	1.839985	-0.499950	-0.798717
H227	H	2.173318	-0.166616	-0.465383
H228	H	2.506652	0.166717	-0.132050
O229	O	1.574721	-0.381296	-0.418251
O230	O	1.908054	-0.047963	-0.084917
O231	O	2.241387	0.285371	0.248416
H232	H	1.521390	-0.405525	-0.364832
H233	H	1.854724	-0.072191	-0.031499
H234	H	2.188057	0.261142	0.301834
O235	O	1.575181	-1.051207	-0.418522
O236	O	1.908515	-0.717874	-0.085189
O237	O	2.241848	-0.384540	0.248145
H238	H	1.628943	-1.072582	-0.357500
H239	H	1.962276	-0.739249	-0.024167
H240	H	2.295610	-0.405915	0.309166
H241	H	1.950363	-0.828923	-0.794333
H242	H	2.283696	-0.495590	-0.461000
H243	H	2.617029	-0.162257	-0.127666
H244	H	1.873816	-1.044807	-0.717587
H245	H	2.207149	-0.711474	-0.384254
H246	H	2.540482	-0.378140	-0.050921
O247	O	1.970566	-0.694353	-0.814577
O248	O	2.303899	-0.361020	-0.481244
O249	O	2.637232	-0.027686	-0.147911
H250	H	2.023891	-0.670114	-0.867967
H251	H	2.357225	-0.336781	-0.534634
H252	H	2.690558	-0.003447	-0.201301
H253	H	1.518391	-0.603354	-0.361875
H254	H	1.851724	-0.270021	-0.028541
H255	H	2.185057	0.063313	0.304792
O256	O	1.575117	-0.953697	-0.418483
O257	O	1.908450	-0.620363	-0.085149
O258	O	2.241783	-0.287030	0.248184
H259	H	1.521813	-0.977934	-0.365066
H260	H	1.855147	-0.644601	-0.031733
H261	H	2.188480	-0.311267	0.301600
H262	H	1.873770	-0.959684	-0.717557
H263	H	2.207103	-0.626351	-0.384223
H264	H	2.540436	-0.293018	-0.050890
O265	O	1.498178	-0.694678	-0.341596
O266	O	1.831511	-0.361345	-0.008262
O267	O	2.164844	-0.028012	0.325071
H268	H	1.437106	-0.716056	-0.395269
H269	H	1.770439	-0.382723	-0.061936
H270	H	2.103773	-0.049390	0.271398
H271	H	1.518517	-0.744112	-0.361921
H272	H	1.851850	-0.410778	-0.028587
H273	H	2.185184	-0.077445	0.304746
