data_functionalizedCrystal
_audit_creation_method	'MofGen! by Chris Wilmer'
_symmetry_space_group_name_H-M	'P1'
_symmetry_Int_Tables_number	1
_symmetry_cell_setting	triclinic
loop_
_symmetry_equiv_pos_as_xyz
  x,y,z
_cell_length_a	16.959455
_cell_length_b	17.639999
_cell_length_c	16.959447
_cell_angle_alpha	101.227701
_cell_angle_beta	89.979626
_cell_angle_gamma	101.198227
loop_
_atom_site_label
_atom_site_type_symbol
_atom_site_fract_x
_atom_site_fract_y
_atom_site_fract_z
Zn1	Zn	1.272027	0.314717	-0.383489
Zn2	Zn	1.298681	0.446904	-0.224619
Zn3	Zn	1.139860	0.314742	-0.251307
Zn4	Zn	1.166540	0.446845	-0.356755
O5	O	1.219277	0.380802	-0.304042
O6	O	1.386176	0.332266	-0.362433
O7	O	1.277602	0.429407	-0.117541
O8	O	1.135073	0.204132	-0.291198
O9	O	1.405759	0.429383	-0.245712
O10	O	1.232175	0.204113	-0.388312
O11	O	1.160918	0.332308	-0.137149
O12	O	1.032786	0.332251	-0.265276
O13	O	1.180543	0.429283	-0.470919
O14	O	1.052387	0.429307	-0.342748
O15	O	1.258044	0.332209	-0.490560
O16	O	1.303472	0.557503	-0.219790
O17	O	1.206388	0.557459	-0.316870
C18	C	1.013905	0.380776	-0.304008
C19	C	0.926050	0.380784	-0.304008
C20	C	0.564754	0.431321	-0.243250
C21	C	0.544416	0.330348	-0.364918
C22	C	0.626959	0.330335	-0.364901
C23	C	0.678404	0.380817	-0.304059
C24	C	0.647306	0.431311	-0.243233
C25	C	0.658065	0.279848	-0.425730
C26	C	0.740613	0.279833	-0.425717
C27	C	0.792059	0.330311	-0.364870
C28	C	0.760956	0.380807	-0.304042
C29	C	0.812401	0.431288	-0.243199
C30	C	0.781298	0.481780	-0.182366
C31	C	0.698752	0.481789	-0.182387
C32	C	0.874605	0.330303	-0.364850
C33	C	0.894952	0.431278	-0.243182
C34	C	1.260739	0.586160	-0.262550
C35	C	1.278549	0.674013	-0.244826
C36	C	1.084177	0.962976	-0.438961
C37	C	1.100914	1.045528	-0.422281
C38	C	1.202070	1.045507	-0.321294
C39	C	1.185344	0.962954	-0.337968
C40	C	1.126397	0.921695	-0.396802
C41	C	1.227564	0.921673	-0.295809
C42	C	1.210836	0.839127	-0.312479
C43	C	1.151890	0.797862	-0.371308
C44	C	1.109669	0.839149	-0.413472
C45	C	1.286507	0.962934	-0.236971
C46	C	1.328727	0.921652	-0.194812
C47	C	1.312004	0.839105	-0.211486
C48	C	1.253057	0.797840	-0.270315
C49	C	1.354224	0.797818	-0.169322
C50	C	1.337497	0.715272	-0.185992
C51	C	1.236330	0.715294	-0.286985
C52	C	1.425450	0.380828	-0.304077
C53	C	1.513309	0.380839	-0.304092
C54	C	1.219297	0.380736	-0.510224
C55	C	1.219305	0.380708	-0.598086
C56	C	1.177650	1.174641	-0.345711
C57	C	1.159847	1.086788	-0.363458
C58	C	1.179031	0.431167	-0.959355
C59	C	1.259734	0.330083	-0.979802
C60	C	1.259716	0.330100	-0.897253
C61	C	1.219356	0.380652	-0.845751
C62	C	1.179014	0.431187	-0.876798
C63	C	1.300064	0.279571	-0.866199
C64	C	1.300049	0.279586	-0.783645
C65	C	1.259684	0.330135	-0.732141
C66	C	1.219340	0.380672	-0.763193
C67	C	1.178980	0.431224	-0.711691
C68	C	1.138630	0.481757	-0.742741
C69	C	1.138649	0.481736	-0.825294
C70	C	1.259665	0.330156	-0.649589
C71	C	1.178963	0.431244	-0.629133
C72	C	1.219291	0.380810	-0.098674
C73	C	1.219391	0.380615	-0.010858
H74	H	0.765929	0.238719	-0.475250
H75	H	1.300127	1.030148	-0.223403
H76	H	1.332904	0.238439	-0.758371
H77	H	1.250063	1.079112	-0.273389
H78	H	1.292520	0.289015	-0.624310
F79	F	0.907705	0.276573	-0.429591
H80	H	1.061674	0.805554	-0.461386
F81	F	1.173597	0.671379	-0.349610
F82	F	1.391462	0.965572	-0.132200
H83	H	1.332929	0.238419	-0.908137
F84	F	1.021445	0.919061	-0.501586
F85	F	1.136000	0.485045	-0.574327
H86	H	0.936834	0.472384	-0.193634
F87	F	1.095682	0.535560	-0.687919
H88	H	0.616174	0.238754	-0.475269
H89	H	1.105802	0.522880	-0.850583
H90	H	1.146177	0.472308	-0.984641
H91	H	1.292598	0.288930	-1.021739
F92	F	1.134229	0.710009	-0.389193
H93	H	1.066539	1.079136	-0.456627
H94	H	1.402214	0.831424	-0.121414
F95	F	1.382425	0.671335	-0.141115
H96	H	0.673420	0.522896	-0.132860
F97	F	0.531653	0.485052	-0.178508
F98	F	0.836060	0.535509	-0.117620
H99	H	0.502526	0.289253	-0.414456
