data_functionalizedCrystal
_audit_creation_method	'MofGen! by Chris Wilmer'
_symmetry_space_group_name_H-M	'P1'
_symmetry_Int_Tables_number	1
_symmetry_cell_setting	triclinic
loop_
_symmetry_equiv_pos_as_xyz
  x,y,z
_cell_length_a	18.426585
_cell_length_b	31.640172
_cell_length_c	31.640172
_cell_angle_alpha	90.009241
_cell_angle_beta	60.001429
_cell_angle_gamma	59.997286
loop_
_atom_site_label
_atom_site_type_symbol
_atom_site_fract_x
_atom_site_fract_y
_atom_site_fract_z
Zr1	Zr	0.794272	0.407172	-0.055396
O2	O	0.945698	0.339672	-0.122890
O3	O	0.642864	0.427864	-0.034707
O4	O	0.794280	0.427851	-0.122882
O5	O	0.794270	0.339695	0.034841
O6	O	0.794265	0.497408	-0.122873
O7	O	0.794283	0.339685	-0.034716
O8	O	0.523410	0.497432	0.034856
O9	O	1.065125	0.339671	-0.122888
O10	O	0.705122	0.488599	-0.025874
O11	O	0.705124	0.436697	0.026028
O12	O	0.883396	0.436681	-0.077786
O13	O	0.883398	0.384779	-0.025884
Zr14	Zr	0.794228	0.518123	0.055553
Zr15	Zr	0.794248	0.518107	-0.055381
Zr16	Zr	0.794252	0.407188	0.055539
Zr17	Zr	0.984743	0.407171	-0.055392
Zr18	Zr	0.603756	0.518124	0.055549
O19	O	0.945635	0.497430	0.034865
O20	O	0.945664	0.497408	-0.122869
O21	O	0.945669	0.339695	0.034844
O22	O	0.642801	0.585623	0.123048
O23	O	0.642830	0.585600	-0.034686
O24	O	0.642835	0.427887	0.123027
O25	O	0.794230	0.585600	-0.034683
O26	O	0.794220	0.497444	0.123040
O27	O	0.794235	0.427887	0.123030
O28	O	0.794217	0.585610	0.034873
O29	O	1.065106	0.427850	-0.122876
O30	O	0.523394	0.497444	0.123034
O31	O	0.523375	0.585623	0.123046
O32	O	0.523391	0.585611	0.034868
O33	O	1.065109	0.339684	-0.034710
O34	O	1.065090	0.427863	-0.034698
O35	O	0.705103	0.488614	0.077944
O36	O	0.705102	0.540516	0.026042
O37	O	0.883376	0.488598	-0.025870
O38	O	0.883377	0.436696	0.026032
C39	C	0.555999	0.462648	0.000074
C40	C	0.475139	0.462648	0.000072
C41	C	0.794280	0.323884	0.000060
C42	C	0.794290	0.276789	0.000054
C43	C	0.179029	0.462645	0.000087
C44	C	0.261416	0.462645	0.000084
C45	C	0.327082	0.462646	0.000079
C46	C	0.409473	0.462647	0.000077
C47	C	0.701183	0.011883	0.027187
C48	C	0.701165	-0.165102	0.027197
O49	O	0.622023	-0.164939	0.050262
N50	N	0.794222	-0.214332	0.000099
C51	C	0.887289	-0.219315	-0.027001
O52	O	0.966439	-0.265249	-0.050045
C53	C	0.887306	-0.042330	-0.027008
C54	C	0.794243	0.006899	0.000088
C55	C	0.608128	0.061111	0.054281
C56	C	0.608133	0.105354	0.054276
C57	C	0.701194	0.100370	0.027177
C58	C	0.794249	0.051143	0.000083
C59	C	0.980372	-0.047314	-0.054105
C60	C	0.980368	-0.003063	-0.054103
C61	C	0.887306	0.046167	-0.027007
C62	C	0.887315	0.090402	-0.027022
N63	N	0.794258	0.139632	0.000077
C64	C	0.701198	0.144616	0.027176
C65	C	0.887274	-0.312232	-0.026996
C66	C	0.887270	-0.356478	-0.026996
C67	C	0.701146	-0.302262	0.027204
C68	C	0.701151	-0.258015	0.027199
C69	C	0.794217	-0.263002	0.000102
C70	C	0.701216	0.237528	0.027163
C71	C	0.701230	0.281773	0.027153
C72	C	0.887353	0.227553	-0.027043
C73	C	0.887340	0.183312	-0.027037
C74	C	0.794263	0.188303	0.000070
O75	O	0.966415	0.090279	-0.050069
O76	O	0.622060	0.190555	0.050226
C77	C	0.701178	-0.032360	0.027192
C78	C	0.794233	-0.081587	0.000098
C79	C	0.887293	-0.086572	-0.027001
C80	C	0.794229	-0.125833	0.000099
C81	C	0.701168	-0.120849	0.027198
C82	C	0.608112	-0.071619	0.054296
C83	C	0.608117	-0.027376	0.054291
C84	C	0.980349	-0.135802	-0.054099
C85	C	0.980336	-0.180043	-0.054093
C86	C	0.887276	-0.175059	-0.026993
C87	C	1.032501	0.462647	0.000084
C88	C	1.113361	0.462646	0.000086
C89	C	0.794275	0.462627	-0.138683
C90	C	0.794284	0.462621	-0.185778
C91	C	0.794220	0.601411	0.000097
C92	C	0.794210	0.648506	0.000104
C93	C	0.794223	0.500977	-0.477778
C94	C	0.794210	0.500988	-0.654764
O95	O	0.794157	0.533591	-0.677632
N96	N	0.794220	0.462668	-0.676900
C97	C	0.794227	0.424344	-0.654784
O98	O	0.794225	0.391754	-0.677670
C99	C	0.794233	0.424335	-0.477797
C100	C	0.794233	0.462655	-0.455666
C101	C	0.794222	0.539294	-0.455647
C102	C	0.794231	0.539289	-0.411405
C103	C	0.794241	0.500967	-0.389293
C104	C	0.794242	0.462650	-0.411424
C105	C	0.794233	0.386014	-0.455680
C106	C	0.794232	0.386016	-0.411429
C107	C	0.794232	0.424336	-0.389299
C108	C	0.794261	0.424323	-0.345070
N109	N	0.794251	0.462643	-0.322934
C110	C	0.794241	0.500965	-0.345046
C111	C	0.794226	0.424351	-0.747706
C112	C	0.794226	0.424352	-0.791953
C113	C	0.794207	0.500997	-0.791929
C114	C	0.794214	0.500993	-0.747683
C115	C	0.794215	0.462671	-0.725570
C116	C	0.794261	0.500952	-0.252134
C117	C	0.794274	0.500942	-0.207889
C118	C	0.794287	0.424299	-0.207915
C119	C	0.794280	0.424307	-0.252158
C120	C	0.794263	0.462638	-0.274265
O121	O	0.794302	0.391740	-0.322171
O122	O	0.794220	0.533557	-0.322146
C123	C	0.794214	0.500982	-0.522020
C124	C	0.794215	0.462665	-0.544151
C125	C	0.794225	0.424343	-0.522039
C126	C	0.794215	0.462666	-0.588398
C127	C	0.794205	0.500988	-0.610510
C128	C	0.794195	0.539308	-0.588374
C129	C	0.794204	0.539303	-0.544131
C130	C	0.794235	0.386023	-0.544175
C131	C	0.794228	0.386030	-0.588418
C132	C	0.794218	0.424352	-0.610529
C133	C	0.794224	0.462667	0.138841
C134	C	0.794216	0.462674	0.185935
C135	C	0.555969	0.601411	0.000092
C136	C	0.475099	0.648507	0.000097
C137	C	0.555974	0.462668	0.138836
C138	C	0.475105	0.462675	0.185928
C139	C	0.555944	0.601431	0.138854
C140	C	0.475065	0.648533	0.185953
C141	C	1.032556	0.323863	-0.138696
C142	C	1.113435	0.276761	-0.185795
C143	C	1.032531	0.323883	0.000066
C144	C	1.113401	0.276788	0.000061
C145	C	1.032526	0.462627	-0.138678
C146	C	1.113395	0.462620	-0.185771
C147	C	0.437132	0.643523	-0.027005
C148	C	0.361156	0.687770	-0.027012
C149	C	0.323143	0.737000	0.000088
C150	C	0.361118	0.741982	0.027191
C151	C	0.437097	0.697736	0.027194
C152	C	0.437117	0.489779	0.235148
C153	C	0.361143	0.489783	0.279401
C154	C	0.323153	0.462687	0.274433
C155	C	0.361148	0.435580	0.225208
C156	C	0.437126	0.435573	0.180957
C157	C	0.437082	0.697750	0.180979
C158	C	0.361099	0.742012	0.225229
C159	C	0.323093	0.737056	0.274453
C160	C	0.361083	0.687834	0.279427
C161	C	0.437071	0.643573	0.235177
C162	C	1.151427	0.227545	-0.180821
C163	C	1.227434	0.183283	-0.225072
C164	C	1.265443	0.188239	-0.274296
C165	C	1.227448	0.237461	-0.279269
C166	C	1.151447	0.281722	-0.235019
C167	C	1.151376	0.281772	0.027159
C168	C	1.227372	0.237525	0.027153
C169	C	1.265388	0.188295	0.000052
C170	C	1.227410	0.183312	-0.027049
C171	C	1.151420	0.227559	-0.027046
C172	C	1.151361	0.489721	-0.180786
C173	C	1.227336	0.489725	-0.225031
C174	C	1.265348	0.462623	-0.274259
C175	C	1.227374	0.435521	-0.279242
C176	C	1.151396	0.435521	-0.234998
H177	H	0.625444	0.321858	0.049220
H178	H	0.330157	0.782071	0.049254
N179	N	0.794227	0.383022	-0.815820
H180	H	0.857510	0.362879	-0.852609
H181	H	0.794190	0.358784	-0.795055
N182	N	0.507738	-0.066247	0.083520
H183	H	0.521866	-0.101749	0.079407
H184	H	0.467090	-0.046671	0.121415
H185	H	0.330217	0.511859	0.319477
N186	N	0.794260	0.542281	-0.184021
H187	H	0.730976	0.562418	-0.147232
H188	H	0.857587	0.525528	-0.184131
N189	N	1.268442	0.242805	-0.332361
H190	H	1.344715	0.225648	-0.351927
H191	H	1.255158	0.225650	-0.351883
N192	N	0.600829	0.242915	0.056399
H193	H	0.541887	0.280817	0.073559
H194	H	0.596774	0.225732	0.031521
H195	H	1.120515	0.321795	-0.239075
N196	N	1.268383	0.130201	-0.219694
H197	H	1.255175	0.110630	-0.236850
H198	H	1.344641	0.110668	-0.236828
N199	N	0.794252	0.542290	-0.275977
H200	H	0.794258	0.566558	-0.255240
H201	H	0.857539	0.525528	-0.312766
H202	H	0.468000	0.701801	0.049266
N203	N	0.320131	0.795096	0.219859
H204	H	0.355734	0.791516	0.181960
H205	H	0.243855	0.814642	0.237040
H206	H	0.468041	0.511844	0.239203
N207	N	0.241203	0.462698	0.322164
H208	H	0.222906	0.483983	0.354097
H209	H	0.178205	0.478110	0.322143
H210	H	1.258374	0.143223	-0.049114
H211	H	0.330205	0.413519	0.221171
N212	N	0.794198	0.542330	-0.815783
H213	H	0.794198	0.536513	-0.847170
H214	H	0.730903	0.577494	-0.789614
H215	H	0.330129	0.683806	0.319511
H216	H	1.120429	0.321853	0.049231
H217	H	0.468046	0.413504	0.140881
H218	H	0.963051	-0.396560	-0.049066
H219	H	1.327264	0.152271	0.000053
H220	H	0.468015	0.701795	0.140902
N221	N	1.268323	0.242906	0.056385
H222	H	1.232697	0.280808	0.073556
H223	H	1.255106	0.225730	0.083622
H224	H	0.261219	0.773099	0.310480
N225	N	0.478012	0.590491	0.240548
H226	H	0.531914	0.563200	0.205050
H227	H	0.509471	0.586393	0.260118
H228	H	1.120484	0.223499	-0.140745
H229	H	0.330247	0.683702	-0.049082
H230	H	0.794210	0.570502	-0.473645
H231	H	1.120503	0.223493	-0.049111
N232	N	1.080748	-0.100405	-0.083327
H233	H	1.139692	-0.096839	-0.100487
H234	H	1.084791	-0.119933	-0.058442
H235	H	1.327327	0.152195	-0.310322
N236	N	1.110373	0.518953	-0.127694
H237	H	1.145959	0.536122	-0.131258
H238	H	1.034095	0.546195	-0.108152
N239	N	0.507758	0.158449	0.083499
H240	H	0.448813	0.154885	0.100665
H241	H	0.503692	0.177997	0.110741
H242	H	1.258246	0.511794	-0.220963
N243	N	0.987719	0.130215	-0.056263
H244	H	0.991860	0.110660	-0.031407
H245	H	0.991821	0.110678	-0.083529
H246	H	0.261275	0.773024	0.000082
H247	H	1.327215	0.462627	-0.310281
N248	N	1.268378	0.406292	-0.332340
H249	H	1.322273	0.410405	-0.359608
H250	H	1.299864	0.368396	-0.336447
N251	N	1.110452	0.406287	-0.240378
H252	H	1.146068	0.389120	-0.278279
H253	H	1.123686	0.379044	-0.223208
H254	H	0.532343	0.065178	0.076351
H255	H	0.625371	-0.217933	0.049268
H256	H	0.963064	-0.316301	-0.049066
N257	N	0.600776	-0.296894	0.056431
H258	H	0.596636	-0.314042	0.083695
H259	H	0.541873	-0.258986	0.073569
N260	N	1.080747	-0.008439	-0.083331
H261	H	1.121424	-0.027983	-0.069117
H262	H	1.121354	-0.027984	-0.121230
N263	N	0.987717	0.222188	-0.056271
H264	H	0.991849	0.239347	-0.031416
H265	H	1.046619	0.184280	-0.073437
N266	N	0.507736	0.025716	0.083522
H267	H	0.503575	0.045291	0.110791
H268	H	0.503641	0.045237	0.058638
N269	N	1.080718	-0.233140	-0.083321
H270	H	1.139667	-0.229578	-0.100486
H271	H	1.084762	-0.252668	-0.058437
H272	H	1.056132	-0.139868	-0.076168
H273	H	0.794294	0.393099	-0.270181
N274	N	0.794225	0.580621	-0.387537
H275	H	0.794214	0.604896	-0.408262
H276	H	0.730937	0.600722	-0.350747
H277	H	0.794228	0.393143	-0.729704
N278	N	0.794214	0.542323	-0.723816
H279	H	0.794210	0.566597	-0.744542
H280	H	0.730925	0.562425	-0.687027
H281	H	0.794232	0.354811	-0.473692
H282	H	0.794300	0.393097	-0.189906
N283	N	0.794226	0.344684	-0.387577
H284	H	0.794225	0.320412	-0.408313
H285	H	0.857515	0.324579	-0.387651
N286	N	0.794205	0.580634	-0.520265
H287	H	0.794196	0.604908	-0.540992
H288	H	0.730919	0.600736	-0.483476
H289	H	0.794192	0.570510	-0.606386
N290	N	0.794220	0.344700	-0.612283
H291	H	0.857502	0.309513	-0.623017
H292	H	0.730891	0.346430	-0.586126
N293	N	0.794238	0.344690	-0.520327
H294	H	0.794241	0.320419	-0.541067
H295	H	0.857528	0.324585	-0.520403
N296	N	0.478120	0.590428	-0.056235
H297	H	0.442534	0.593993	-0.073404
H298	H	0.554398	0.570884	-0.083475
