data_functionalizedCrystal
_audit_creation_method	'MofGen! by Chris Wilmer'
_symmetry_space_group_name_H-M	'P1'
_symmetry_Int_Tables_number	1
_symmetry_cell_setting	triclinic
loop_
_symmetry_equiv_pos_as_xyz
  x,y,z
_cell_length_a	31.640172
_cell_length_b	23.196402
_cell_length_c	23.196401
_cell_angle_alpha	60.007332
_cell_angle_beta	90.017286
_cell_angle_gamma	60.002544
loop_
_atom_site_label
_atom_site_type_symbol
_atom_site_fract_x
_atom_site_fract_y
_atom_site_fract_z
Zr1	Zr	0.407215	0.630908	-0.075557
O2	O	0.339718	0.751182	-0.167616
O3	O	0.427901	0.510642	-0.047339
O4	O	0.427888	0.630905	-0.167605
O5	O	0.339747	0.630917	0.047521
O6	O	0.497446	0.630893	-0.167592
O7	O	0.339731	0.630919	-0.047350
O8	O	0.497467	0.415765	0.047542
O9	O	0.339726	0.846046	-0.167613
O10	O	0.488640	0.560097	-0.035291
O11	O	0.436743	0.560105	0.035501
O12	O	0.436728	0.701699	-0.106097
O13	O	0.384831	0.701707	-0.035305
Zr14	Zr	0.518177	0.630886	0.075772
Zr15	Zr	0.518151	0.630888	-0.075537
Zr16	Zr	0.407242	0.630905	0.075752
Zr17	Zr	0.407227	0.782205	-0.075551
Zr18	Zr	0.518166	0.479589	0.075767
O19	O	0.497492	0.751151	0.047554
O20	O	0.497454	0.751155	-0.167588
O21	O	0.339756	0.751178	0.047526
O22	O	0.585674	0.510612	0.167832
O23	O	0.585637	0.510615	-0.047310
O24	O	0.427938	0.510639	0.167803
O25	O	0.585645	0.630876	-0.047306
O26	O	0.497504	0.630888	0.167820
O27	O	0.427947	0.630900	0.167807
O28	O	0.585662	0.630875	0.047566
O29	O	0.427904	0.846031	-0.167597
O30	O	0.497488	0.415763	0.167812
O31	O	0.585667	0.415748	0.167828
O32	O	0.585646	0.415750	0.047558
O33	O	0.339747	0.846044	-0.047342
O34	O	0.427925	0.846029	-0.047326
O35	O	0.488665	0.560095	0.106312
O36	O	0.540562	0.560087	0.035520
O37	O	0.488650	0.701689	-0.035286
O38	O	0.436753	0.701697	0.035506
C39	C	0.462682	0.441647	0.000101
C40	C	0.462678	0.377417	0.000098
C41	C	0.501007	0.294981	0.052366
C42	C	0.501010	0.234621	0.052372
C43	C	0.462689	0.256702	0.000100
C44	C	0.424353	0.339152	-0.052172
C45	C	0.424347	0.399509	-0.052173
C46	C	0.450746	0.201117	-0.063694
C47	C	0.450755	0.140758	-0.063693
C48	C	0.462702	0.070540	0.000103
C49	C	0.474652	0.060678	0.063903
C50	C	0.474647	0.121036	0.063902
C51	C	0.462690	0.191259	0.000096
C52	C	0.501038	-0.077350	0.052382
C53	C	0.501038	-0.137709	0.052389
C54	C	0.424382	-0.033176	-0.052161
C55	C	0.424380	0.027181	-0.052162
C56	C	0.462710	0.005089	0.000109
C57	C	0.323933	0.630921	0.000082
C58	C	0.276838	0.630929	0.000074
C59	C	0.011929	0.556974	0.037082
C60	C	-0.165056	0.556960	0.037096
O61	O	-0.164896	0.494098	0.068554
N62	N	-0.214283	0.630874	0.000135
C63	C	-0.219263	0.704797	-0.036828
O64	O	-0.265194	0.767666	-0.068259
C65	C	-0.042278	0.704811	-0.036837
C66	C	0.006948	0.630892	0.000120
C67	C	0.061154	0.483061	0.074037
C68	C	0.105397	0.483066	0.074030
C69	C	0.100416	0.556983	0.037068
C70	C	0.051192	0.630896	0.000113
C71	C	-0.047259	0.778733	-0.073796
C72	C	-0.003007	0.778730	-0.073794
C73	C	0.046219	0.704811	-0.036836
C74	C	0.090454	0.704818	-0.036856
N75	N	0.139681	0.630903	0.000105
C76	C	0.144662	0.556986	0.037067
C77	C	-0.312180	0.704785	-0.036822
C78	C	-0.356426	0.704782	-0.036820
C79	C	-0.302216	0.556945	0.037105
C80	C	-0.257970	0.556949	0.037099
C81	C	-0.262953	0.630871	0.000139
C82	C	0.237574	0.557001	0.037049
C83	C	0.281819	0.557011	0.037036
C84	C	0.227605	0.704848	-0.036886
C85	C	0.183364	0.704838	-0.036876
C86	C	0.188352	0.630908	0.000096
O87	O	0.090334	0.767647	-0.068292
O88	O	0.190598	0.494127	0.068506
C89	C	-0.032314	0.556970	0.037089
C90	C	-0.081538	0.630883	0.000134
C91	C	-0.086519	0.704800	-0.036828
C92	C	-0.125784	0.630880	0.000135
C93	C	-0.120803	0.556963	0.037097
C94	C	-0.071576	0.483048	0.074058
C95	C	-0.027333	0.483053	0.074051
C96	C	-0.135746	0.778715	-0.073789
C97	C	-0.179987	0.778704	-0.073779
C98	C	-0.175007	0.704787	-0.036818
C99	C	0.601460	0.630873	0.000133
C100	C	0.648555	0.630865	0.000141
C101	C	0.462663	0.630900	-0.189157
C102	C	0.462652	0.630901	-0.253391
C103	C	0.462710	0.820147	0.000115
C104	C	0.462715	0.884376	0.000117
C105	C	0.435557	0.704813	-0.320524
C106	C	0.435570	0.704814	-0.380879
C107	C	0.462671	0.630899	-0.374098
C108	C	0.489772	0.556976	-0.306953
C109	C	0.489762	0.556977	-0.246600
C110	C	0.458818	0.574273	-0.441418
C111	C	0.458824	0.574275	-0.501771
C112	C	0.462704	0.630892	-0.560245
C113	C	0.466568	0.687521	-0.558365
C114	C	0.466558	0.687522	-0.498012
C115	C	0.462685	0.630889	-0.439536
C116	C	0.435622	0.704811	-0.692825
C117	C	0.435639	0.704809	-0.753180
C118	C	0.489837	0.556969	-0.679251
C119	C	0.489824	0.556973	-0.618898
C120	C	0.462713	0.630897	-0.625690
C121	C	0.462730	0.630894	0.189372
C122	C	0.462741	0.630893	0.253607
C123	C	0.601446	0.441623	0.000126
C124	C	0.648536	0.377385	0.000132
C125	C	0.462716	0.441644	0.189365
C126	C	0.462722	0.377413	0.253597
C127	C	0.601479	0.441620	0.189390
C128	C	0.648580	0.377381	0.253631
C129	C	0.323914	0.820173	-0.189175
C130	C	0.276812	0.884412	-0.253416
C131	C	0.323947	0.820170	0.000090
C132	C	0.276857	0.884408	0.000083
C133	C	0.462677	0.820150	-0.189150
C134	C	0.462671	0.884380	-0.253382
C135	C	0.643547	0.347224	-0.036834
C136	C	0.687789	0.286874	-0.036842
C137	C	0.737020	0.256683	0.000120
C138	C	0.742007	0.286850	0.037087
C139	C	0.697766	0.347203	0.037091
C140	C	0.489828	0.347245	0.320730
C141	C	0.489832	0.286902	0.381089
C142	C	0.462733	0.256724	0.374313
C143	C	0.435624	0.286899	0.307173
C144	C	0.435617	0.347245	0.246816
C145	C	0.697794	0.347210	0.246846
C146	C	0.742055	0.286859	0.307202
C147	C	0.737102	0.256677	0.374341
C148	C	0.687883	0.286854	0.381124
C149	C	0.643623	0.347208	0.320769
C150	C	0.227599	0.914591	-0.246631
C151	C	0.183337	0.974960	-0.306986
C152	C	0.188291	1.005146	-0.374125
C153	C	0.237510	0.974965	-0.380909
C154	C	0.281770	0.914601	-0.320554
C155	C	0.281846	0.914576	0.037043
C156	C	0.237603	0.974943	0.037035
C157	C	0.188373	1.005136	0.000070
C158	C	0.183386	0.974966	-0.036894
C159	C	0.227627	0.914604	-0.036889
C160	C	0.489775	0.914539	-0.246583
C161	C	0.489779	0.974882	-0.306931
C162	C	0.462675	1.005070	-0.374076
C163	C	0.435570	0.974906	-0.380873
C164	C	0.435570	0.914559	-0.320526
H165	H	0.484377	0.003506	0.115852
H166	H	0.441012	0.258295	-0.115649
H167	H	0.321841	0.890030	-0.326087
N168	N	-0.066483	0.407535	0.111813
N169	N	-0.043406	0.358039	0.096146
H170	H	-0.039810	0.304709	0.122812
H171	H	0.143296	0.999559	-0.066989
N172	N	0.792297	0.256011	0.074835
N173	N	0.823030	0.262739	0.042669
H174	H	0.858549	0.240954	0.069332
N175	N	0.133070	1.005773	-0.300035
N176	N	0.128659	0.978803	-0.240083
H177	H	0.093159	1.000563	-0.235171
H178	H	0.603552	0.371766	0.326303
H179	H	0.223555	0.890017	-0.191968
H180	H	0.152248	1.054298	-0.423264
N181	N	0.407950	0.256067	0.300246
N182	N	0.383751	0.282999	0.240304
H183	H	0.364208	0.261220	0.235412
N184	N	0.385195	0.483718	-0.105578
N185	N	0.380482	0.511968	-0.169154
H186	H	0.352831	0.571442	-0.206874
N187	N	0.385226	-0.010608	-0.105545
N188	N	0.355727	-0.032624	-0.088625
H189	H	0.328069	-0.016685	-0.126327
N190	N	0.407944	0.780310	-0.699743
N191	N	0.407938	0.780302	-0.645853
H192	H	0.388391	0.833624	-0.650739
H193	H	-0.007071	0.838928	-0.103882
H194	H	0.241538	0.999550	-0.435580
H195	H	0.413546	0.371800	0.192155
N196	N	0.517447	0.481475	-0.178019
N197	N	0.565226	0.431982	-0.159986
H198	H	0.584780	0.378657	-0.111549
N199	N	0.332125	0.883748	0.074810
N200	N	0.336563	0.910704	0.107801
H201	H	0.372072	0.888938	0.134475
H202	H	0.241675	0.999497	0.067138
N203	N	0.702875	0.377999	0.074858
N204	N	0.746836	0.351028	0.107856
H205	H	0.750449	0.372775	0.134530
H206	H	0.413484	0.765007	-0.326061
H207	H	0.152353	1.054286	0.000073
N208	N	0.782320	0.195027	0.435981
N209	N	0.826257	0.168099	0.429905
H210	H	0.858195	0.124557	0.473436
H211	H	0.223558	0.890043	-0.066984
H212	H	0.012746	0.422860	0.104147
N213	N	0.242663	0.481492	0.074811
N214	N	0.224036	0.464984	0.123482
H215	H	0.227629	0.411657	0.150149
N216	N	0.517501	0.378082	0.327650
N217	N	0.517493	0.431966	0.273762
H218	H	0.537035	0.453746	0.278653
H219	H	0.484375	0.113004	0.115850
H220	H	0.773040	0.207539	0.000112
N221	N	0.702853	0.378052	0.178265
N222	N	0.663337	0.431943	0.124376
H223	H	0.666913	0.453727	0.075941
H224	H	0.511846	0.889969	-0.191916
N225	N	0.682818	0.256017	0.449702
N226	N	0.638876	0.282951	0.455760
H227	H	0.635299	0.261167	0.504194
N228	N	0.517470	1.005676	-0.299965
N229	N	0.541662	0.978718	-0.240008
H230	H	0.561219	1.000464	-0.235086
N231	N	0.407953	0.780306	-0.821764
N232	N	0.407962	0.780296	-0.875645
H233	H	0.388405	0.833617	-0.924085
N234	N	0.462686	1.066711	-0.435707
N235	N	0.486890	1.093627	-0.429619
H236	H	0.486898	1.137162	-0.473144
H237	H	0.603466	0.371805	-0.066942
H238	H	0.413496	0.890011	-0.326071
H239	H	0.413503	0.999495	-0.435550
H240	H	0.532218	0.276986	0.094930
H241	H	0.393150	0.357126	-0.094731
H242	H	0.145476	0.422873	0.104121
H243	H	0.532223	0.167489	0.094937
H244	H	0.469725	0.733627	-0.605978
N245	N	0.385223	0.111388	-0.105557
N246	N	0.351007	0.131096	-0.152222
H247	H	0.323348	0.190569	-0.189934
H248	H	0.532246	-0.095339	0.094948
N249	N	0.517536	0.256085	0.449659
N250	N	0.565314	0.222403	0.467658
H251	H	0.584882	0.200640	0.516084
N252	N	0.540201	-0.221915	0.105785
N253	N	0.586809	-0.250157	0.112199
H254	H	0.614471	-0.309629	0.149911
N255	N	0.438555	0.150841	-0.128865
N256	N	0.427883	0.213541	-0.185822
H257	H	0.419266	0.220665	-0.231852
N258	N	0.462757	0.195064	0.435971
N259	N	0.480297	0.127703	0.446419
H260	H	0.480318	0.084152	0.489968
N261	N	0.332100	0.481494	0.074788
N262	N	0.336536	0.415503	0.107786
H263	H	0.372044	0.362170	0.134448
N264	N	0.792323	0.256051	0.300250
N265	N	0.796734	0.283004	0.240298
H266	H	0.832234	0.261248	0.235386
N267	N	0.682678	0.256076	-0.074609
N268	N	0.638718	0.283036	-0.107598
H269	H	0.635106	0.261287	-0.134271
N270	N	0.066258	0.407542	0.111803
N271	N	0.110217	0.341561	0.144795
H272	H	0.113827	0.288220	0.171467
N273	N	0.517488	0.481479	-0.550314
N274	N	0.517474	0.481490	-0.496433
H275	H	0.537013	0.428170	-0.447993
N276	N	-0.207692	0.481435	0.074850
N277	N	-0.203259	0.415447	0.107842
H278	H	-0.167751	0.362112	0.134506
N279	N	0.517519	0.481457	-0.672302
N280	N	0.541706	0.415467	-0.612353
H281	H	0.561259	0.362133	-0.607445
H282	H	-0.396505	0.764975	-0.066924
N283	N	-0.317286	0.780308	-0.074579
N284	N	-0.361244	0.846291	-0.107574
H285	H	-0.364852	0.899631	-0.134243
H286	H	-0.298167	0.496758	0.067196
H287	H	0.143281	0.765029	-0.066979
N288	N	-0.097532	0.854248	-0.111552
N289	N	-0.101960	0.920233	-0.144542
H290	H	-0.137467	0.973571	-0.171209
N291	N	0.222532	0.780343	-0.074640
N292	N	0.262044	0.780326	-0.074633
H293	H	0.258463	0.833644	-0.101294
H294	H	-0.139810	0.838908	-0.103890
N295	N	-0.230270	0.854217	-0.111547
N296	N	-0.243487	0.903713	-0.176713
H297	H	-0.278998	0.957043	-0.203382
N298	N	0.407891	0.780325	-0.449459
N299	N	0.383691	0.846319	-0.455512
H300	H	0.364142	0.899650	-0.503945
N301	N	0.454867	0.516443	-0.503694
N302	N	0.416106	0.515269	-0.496391
H303	H	0.413311	0.474424	-0.497746
N304	N	0.470504	0.745368	-0.496101
N305	N	0.473966	0.795920	-0.548311
H306	H	0.476755	0.836773	-0.546961
H307	H	0.511838	0.496794	-0.301435
N308	N	0.454867	0.516417	-0.381688
N309	N	0.451420	0.465861	-0.383373
H310	H	0.448634	0.424996	-0.341189
