data_functionalizedCrystal
_audit_creation_method	'MofGen! by Chris Wilmer'
_symmetry_space_group_name_H-M	'P1'
_symmetry_Int_Tables_number	1
_symmetry_cell_setting	triclinic
loop_
_symmetry_equiv_pos_as_xyz
  x,y,z
_cell_length_a	12.645331
_cell_length_b	13.897448
_cell_length_c	13.897441
_cell_angle_alpha	90.029627
_cell_angle_beta	89.980056
_cell_angle_gamma	89.983329
loop_
_atom_site_label
_atom_site_type_symbol
_atom_site_fract_x
_atom_site_fract_y
_atom_site_fract_z
Zn1	Zn	1.620703	0.384020	-0.545416
Zn2	Zn	2.120703	0.884020	-0.045416
Zn3	Zn	1.620593	0.545339	-0.384117
Zn4	Zn	2.120593	1.045339	0.115883
Zn5	Zn	1.443426	0.384056	-0.384130
Zn6	Zn	1.943426	0.884056	0.115870
Zn7	Zn	1.443399	0.545272	-0.545366
Zn8	Zn	1.943399	1.045272	-0.045366
O9	O	1.532030	0.464672	-0.464757
O10	O	2.032030	0.964672	0.035243
O11	O	1.769035	0.405432	-0.524035
O12	O	2.269035	0.905432	-0.024035
O13	O	1.597056	0.523988	-0.249137
O14	O	2.097056	1.023988	0.250863
O15	O	1.466999	0.249070	-0.405552
O16	O	1.966999	0.749070	0.094448
O17	O	1.768955	0.523952	-0.405529
O18	O	2.268955	1.023952	0.094471
O19	O	1.597244	0.249043	-0.524047
O20	O	2.097244	0.749043	-0.024047
O21	O	1.466892	0.405494	-0.249147
O22	O	1.966892	0.905494	0.250853
O23	O	1.295075	0.405429	-0.405503
O24	O	1.795075	0.905429	0.094497
O25	O	1.466954	0.523838	-0.680354
O26	O	1.966954	1.023838	-0.180354
O27	O	1.295055	0.523873	-0.523962
O28	O	1.795055	1.023873	-0.023962
O29	O	1.597218	0.405367	-0.680391
O30	O	2.097218	0.905367	-0.180391
O31	O	1.597030	0.680311	-0.405481
O32	O	2.097030	1.180311	0.094519
O33	O	1.466847	0.680262	-0.523950
O34	O	1.966847	1.180262	-0.023950
C35	C	1.256600	0.464649	-0.464729
C36	C	1.756600	0.964649	0.035271
C37	C	1.138770	0.464662	-0.464740
C38	C	1.638770	0.964662	0.035260
C39	C	1.531953	0.715286	-0.464729
C40	C	2.031953	1.215286	0.035271
C41	C	1.532017	0.822500	-0.464750
C42	C	2.032017	1.322500	0.035250
C43	C	1.532095	0.464591	-0.716350
C44	C	2.032095	0.964591	-0.216350
C45	C	1.532123	0.464556	-0.823564
C46	C	2.032123	0.964556	-0.323564
C47	C	0.971183	0.389806	-0.390629
C48	C	1.471183	0.889806	0.109371
C49	C	1.093743	0.390000	-0.390302
C50	C	1.593743	0.890000	0.109698
C51	C	1.094251	0.566275	-0.436969
C52	C	1.594251	1.066275	0.063031
C53	C	0.971653	0.565866	-0.436463
C54	C	1.471653	1.065866	0.063537
C55	C	0.971616	0.438872	-0.566909
C56	C	1.471616	0.938872	-0.066909
C57	C	1.094221	0.436602	-0.566342
C58	C	1.594221	0.936602	-0.066342
C59	C	1.808535	0.464695	-0.464786
C60	C	2.308535	0.964695	0.035214
C61	C	1.926365	0.464705	-0.464798
C62	C	2.426365	0.964705	0.035202
C63	C	1.532137	0.213079	-0.464807
C64	C	2.032137	0.713079	0.035193
C65	C	1.532182	0.105865	-0.464827
C66	C	2.032182	0.605865	0.035173
C67	C	1.532128	1.018795	-0.464810
C68	C	2.032128	1.518795	0.035190
C69	C	1.532063	0.909562	-0.464780
C70	C	2.032063	1.409562	0.035220
C71	C	1.532144	0.464529	-0.910634
C72	C	2.032144	0.964529	-0.410634
C73	C	1.532175	0.464485	-1.019867
C74	C	2.032175	0.964485	-0.519867
C75	C	1.532026	0.464683	-0.214143
C76	C	2.032026	0.964683	0.285857
C77	C	1.532204	0.464445	-0.106930
C78	C	2.032204	0.964445	0.393070
H79	H	1.123843	0.314650	-0.407710
H80	H	1.623843	0.814650	0.092290
Cl81	Cl	1.139172	0.321162	-0.598688
Cl82	Cl	1.639172	0.821162	-0.098688
H83	H	1.123418	0.623572	-0.489295
H84	H	1.623418	1.123572	0.010705
Cl85	Cl	0.925692	0.273116	-0.417212
Cl86	Cl	1.425692	0.773116	0.082788
H87	H	0.942006	0.623561	-0.488129
H88	H	1.442006	1.123561	0.011871
Cl89	Cl	1.141540	0.514688	-0.656229
Cl90	Cl	1.641540	1.014688	-0.156229
Cl91	Cl	0.926869	0.523095	-0.652232
Cl92	Cl	1.426869	1.023095	-0.152232
Cl93	Cl	0.923543	0.415856	-0.274491
Cl94	Cl	1.423543	0.915856	0.225509
Cl95	Cl	1.138960	0.416357	-0.273474
Cl96	Cl	1.638960	0.916357	0.226526
Cl97	Cl	0.927427	0.599685	-0.321211
Cl98	Cl	1.427427	1.099685	0.178789
Cl99	Cl	0.923918	0.326467	-0.605901
Cl100	Cl	1.423918	0.826467	-0.105901
H101	H	1.124911	0.588559	-0.363122
H102	H	1.624911	1.088559	0.136878
