data_functionalizedCrystal
_audit_creation_method	'MofGen! by Chris Wilmer'
_symmetry_space_group_name_H-M	'P1'
_symmetry_Int_Tables_number	1
_symmetry_cell_setting	triclinic
loop_
_symmetry_equiv_pos_as_xyz
  x,y,z
_cell_length_a	11.169417
_cell_length_b	25.639240
_cell_length_c	11.169409
_cell_angle_alpha	90.046464
_cell_angle_beta	90.019824
_cell_angle_gamma	90.033637
loop_
_atom_site_label
_atom_site_type_symbol
_atom_site_fract_x
_atom_site_fract_y
_atom_site_fract_z
Zn1	Zn	1.834775	-0.208096	0.678425
Zn2	Zn	1.834586	-0.295546	0.477692
Zn3	Zn	1.634061	-0.208128	0.477759
Zn4	Zn	1.633990	-0.295504	0.678337
O5	O	1.734353	-0.251819	0.578053
O6	O	2.002700	-0.219701	0.651806
O7	O	1.807937	-0.283981	0.309751
O8	O	1.660795	-0.134959	0.504443
O9	O	2.002561	-0.283950	0.504329
O10	O	1.808259	-0.134935	0.651871
O11	O	1.660612	-0.219755	0.309801
O12	O	1.466102	-0.219714	0.504358
O13	O	1.660674	-0.283878	0.846299
O14	O	1.466050	-0.283909	0.651721
O15	O	1.808190	-0.219660	0.846363
O16	O	1.807868	-0.368706	0.504244
O17	O	1.660491	-0.368675	0.651656
C18	C	1.422529	-0.251811	0.578038
C19	C	1.289129	-0.251820	0.578060
C20	C	1.734184	-0.387661	0.577959
C21	C	1.734221	-0.445775	0.577959
C22	C	1.811176	-0.806088	0.654958
C23	C	1.811211	-0.860692	0.654982
O24	O	1.876439	-0.888886	0.720352
N25	N	1.734520	-0.888058	0.578169
C26	C	1.657779	-0.860816	0.501336
O27	O	1.592550	-0.889107	0.436004
C28	C	1.657739	-0.806213	0.501318
C29	C	1.734444	-0.778850	0.578128
C30	C	1.887874	-0.778725	0.731762
C31	C	1.887839	-0.724124	0.731735
C32	C	1.811108	-0.696887	0.654905
C33	C	1.734410	-0.724249	0.578101
C34	C	1.580993	-0.778973	0.424492
C35	C	1.580959	-0.724366	0.424482
C36	C	1.657664	-0.697003	0.501291
C37	C	1.657644	-0.642411	0.501245
N38	N	1.734335	-0.615046	0.578058
C39	C	1.811067	-0.642283	0.654888
C40	C	1.657869	-0.975487	0.501380
C41	C	1.657915	-1.030089	0.501390
C42	C	1.811345	-1.029961	0.655038
C43	C	1.811305	-0.975358	0.655021
C44	C	1.734560	-0.948121	0.578193
C45	C	1.810990	-0.527618	0.654826
C46	C	1.810953	-0.473013	0.654789
C47	C	1.657518	-0.473146	0.501146
C48	C	1.657560	-0.527746	0.501178
C49	C	1.734300	-0.554981	0.578028
O50	O	1.592445	-0.614183	0.435912
O51	O	1.876274	-0.613986	0.720220
C52	C	2.047396	-0.251827	0.578070
C53	C	2.180796	-0.251831	0.578077
C54	C	1.734445	-0.251761	0.891096
C55	C	1.734485	-0.251736	1.024496
C56	C	1.734556	-0.115446	0.578174
C57	C	1.734643	-0.057331	0.578225
C58	C	1.734330	-0.251839	0.266229
C59	C	1.734524	-0.251716	0.132829
H60	H	1.873419	-0.450736	0.717337
F61	F	1.575860	-0.444148	0.419381
H62	H	1.595110	-0.550026	0.438624
H63	H	1.873471	-0.549786	0.717413
H64	H	1.595378	-0.953313	0.438807
F65	F	1.969473	-0.695009	0.813494
F66	F	1.893010	-1.058959	0.736810
H67	H	1.595467	-1.052363	0.438832
F68	F	1.499349	-0.808083	0.342743
F69	F	1.969545	-0.807705	0.813547
F70	F	1.499274	-0.695382	0.342708
F71	F	1.892942	-0.946241	0.736772
