data_functionalizedCrystal
_audit_creation_method	'MofGen! by Chris Wilmer'
_symmetry_space_group_name_H-M	'P1'
_symmetry_Int_Tables_number	1
_symmetry_cell_setting	triclinic
loop_
_symmetry_equiv_pos_as_xyz
  x,y,z
_cell_length_a	16.974800
_cell_length_b	16.974813
_cell_length_c	13.448316
_cell_angle_alpha	86.338833
_cell_angle_beta	93.650053
_cell_angle_gamma	83.627081
loop_
_atom_site_label
_atom_site_type_symbol
_atom_site_fract_x
_atom_site_fract_y
_atom_site_fract_z
O1	O	1.049039	0.100721	-0.006342
O2	O	0.818819	0.113571	-0.025912
O3	O	0.940347	-0.007965	-0.006343
O4	O	0.927512	0.222257	-0.025912
O5	O	0.940332	-0.007972	0.159040
O6	O	0.818804	0.113563	0.139471
O7	O	1.049024	0.100714	0.159041
Cu8	Cu	0.933913	0.107138	0.164357
Cu9	Cu	0.933931	0.107147	-0.031228
O10	O	0.927496	0.222250	0.139471
C11	C	0.789354	0.113080	0.054447
C12	C	0.701579	0.111621	0.047497
C13	C	0.939851	-0.037427	0.078679
C14	C	0.938386	-0.125202	0.085622
C15	C	0.660338	0.110929	0.134385
C16	C	0.577866	0.109545	0.127859
C17	C	0.536635	0.108859	0.034444
C18	C	0.577881	0.109548	-0.052450
C19	C	0.660353	0.110926	-0.045923
C20	C	0.289983	0.104731	0.005256
C21	C	0.207505	0.103356	-0.001265
C22	C	0.207495	0.103351	0.179045
C23	C	0.289968	0.104734	0.185564
C24	C	0.331208	0.105419	0.098670
N25	N	0.452334	0.107446	0.027771
N26	N	0.415507	0.106826	0.105344
C27	C	0.937708	-0.166431	-0.001266
C28	C	0.936327	-0.248904	0.005260
C29	C	0.935629	-0.290148	0.098676
C30	C	0.936305	-0.248914	0.185570
C31	C	0.937680	-0.166441	0.179042
C32	C	0.931508	-0.536806	0.127865
C33	C	0.930135	-0.619285	0.134386
C34	C	0.930156	-0.619269	-0.045925
C35	C	0.931536	-0.536795	-0.052443
C36	C	0.932207	-0.495567	0.034450
N37	N	0.934219	-0.374450	0.105349
N38	N	0.933611	-0.411267	0.027776
C39	C	1.078489	0.101204	0.078680
C40	C	1.166264	0.102664	0.085623
C41	C	0.927992	0.251711	0.054447
C42	C	0.929457	0.339487	0.047498
N43	N	0.933906	0.107131	0.301921
N44	N	0.933944	0.107147	-0.168791
C45	C	0.987735	0.053337	0.362626
C46	C	0.987740	0.053337	0.466730
C47	C	0.933919	0.107134	0.510126
C48	C	0.880084	0.160931	0.449413
C49	C	0.880076	0.160927	0.345312
C50	C	0.880106	0.160936	0.666395
C51	C	0.880115	0.160941	0.770503
C52	C	0.987770	0.053346	0.787813
C53	C	0.987762	0.053342	0.683711
C54	C	0.933928	0.107140	0.623005
H55	H	0.544293	0.108969	0.198614
C56	C	1.094172	-0.053016	0.711272
C57	C	1.046921	-0.005793	0.636007
H58	H	1.130690	-0.089527	0.681819
H59	H	1.122579	-0.020118	0.751497
H60	H	1.061289	-0.081438	0.751534
H61	H	1.079803	0.022634	0.595750
H62	H	1.018512	-0.038695	0.595765
C63	C	1.007185	-0.082628	-0.107033
C64	C	0.938461	-0.121090	-0.103949
H65	H	1.007644	-0.054640	-0.170429
H66	H	1.007786	-0.046277	-0.056221
H67	H	1.052734	-0.120887	-0.096555
H68	H	0.892912	-0.082830	-0.114420
H69	H	0.937853	-0.157445	-0.154776
C70	C	0.862815	0.268550	0.539251
C71	C	0.820933	0.220071	0.599660
H72	H	0.826286	0.305053	0.498048
H73	H	0.895689	0.296974	0.580208
H74	H	0.894865	0.236498	0.498516
H75	H	0.788888	0.252122	0.640401
H76	H	0.788045	0.191644	0.558699
C77	C	0.773674	0.267269	0.742943
C78	C	0.820939	0.220061	0.818207
H79	H	0.737137	0.303760	0.772396
H80	H	0.806539	0.295707	0.702690
H81	H	0.745282	0.234354	0.702709
H82	H	0.849336	0.252976	0.858437
H83	H	0.788070	0.191621	0.858478
C84	C	0.123724	0.033873	-0.107017
C85	C	0.162184	0.102599	-0.103956
H86	H	0.095743	0.033411	-0.170410
H87	H	0.161977	-0.011671	-0.096526
H88	H	0.087361	0.033276	-0.056199
H89	H	0.198552	0.103192	-0.154770
H90	H	0.123927	0.148154	-0.114458
H91	H	0.323533	0.105290	0.261633
C92	C	1.000815	-0.452818	-0.158270
C93	C	0.932151	-0.491368	-0.155095
H94	H	1.001153	-0.424750	-0.221635
H95	H	1.001456	-0.416529	-0.107390
H96	H	1.046405	-0.491037	-0.147954
H97	H	0.886560	-0.453149	-0.165403
H98	H	0.931503	-0.527661	-0.205990
C99	C	0.930277	-0.610963	-0.224809
C100	C	0.929385	-0.664584	-0.141438
H101	H	0.929796	-0.638939	-0.283777
H102	H	0.884737	-0.572709	-0.227782
H103	H	0.976911	-0.584888	-0.219416
H104	H	0.882748	-0.690655	-0.146827
H105	H	0.974929	-0.702853	-0.138466
H106	H	0.836258	0.204731	0.484752
H107	H	0.929563	-0.652863	0.210459
C108	C	0.833491	0.297838	0.298470
C109	C	0.820909	0.220061	0.278578
H110	H	0.796964	0.334343	0.257266
H111	H	0.825790	0.305536	0.366670
H112	H	0.886250	0.306386	0.284946
H113	H	0.768151	0.211512	0.292108
H114	H	0.828604	0.212361	0.210361
C115	C	0.652038	0.110774	0.311957
C116	C	0.705656	0.111680	0.237072
H117	H	0.680016	0.111230	0.375353
H118	H	0.613792	0.156323	0.301465
H119	H	0.625952	0.064147	0.309849
H120	H	0.731738	0.158310	0.239176
H121	H	0.743916	0.066127	0.247568
H122	H	0.173909	0.102792	0.249789
H123	H	0.932071	-0.503250	0.198621
H124	H	0.323550	0.105287	-0.065499
H125	H	0.935732	-0.282501	0.261630
H126	H	0.938221	-0.132872	0.249795
H127	H	0.544305	0.108983	-0.128510
C128	C	0.676797	0.179304	-0.203786
C129	C	0.705690	0.111694	-0.141431
H130	H	0.704791	0.179777	-0.262746
H131	H	0.621788	0.178379	-0.221043
H132	H	0.684230	0.225609	-0.169860
H133	H	0.698251	0.065388	-0.175354
H134	H	0.760712	0.112612	-0.124175
C135	C	0.936555	-0.240614	-0.173615
C136	C	0.935625	-0.294228	-0.090246
H137	H	0.936137	-0.268599	-0.232576
H138	H	0.890996	-0.202379	-0.176646
H139	H	0.983170	-0.214513	-0.168167
H140	H	0.889007	-0.320325	-0.095690
H141	H	0.981189	-0.332477	-0.087215
H142	H	1.031565	0.009532	0.327301
H143	H	1.031603	0.009542	0.837246
H144	H	1.031571	0.009533	0.516156
