data_functionalizedCrystal
_audit_creation_method	'MofGen! by Chris Wilmer'
_symmetry_space_group_name_H-M	'P1'
_symmetry_Int_Tables_number	1
_symmetry_cell_setting	triclinic
loop_
_symmetry_equiv_pos_as_xyz
  x,y,z
_cell_length_a	10.540539
_cell_length_b	9.016244
_cell_length_c	10.540539
_cell_angle_alpha	89.999933
_cell_angle_beta	95.474508
_cell_angle_gamma	90.005301
loop_
_atom_site_label
_atom_site_type_symbol
_atom_site_fract_x
_atom_site_fract_y
_atom_site_fract_z
O1	O	1.685893	0.123263	-0.178895
O2	O	1.316480	0.123280	-0.195751
O3	O	1.509614	0.123269	-0.002617
O4	O	1.492759	0.123274	-0.372030
O5	O	1.509586	-0.123411	-0.002621
O6	O	1.316452	-0.123400	-0.195755
O7	O	1.685865	-0.123418	-0.178900
Cu8	Cu	1.501156	-0.145933	-0.187328
Cu9	Cu	1.501189	0.145795	-0.187323
O10	O	1.492730	-0.123407	-0.372034
C11	C	1.269163	-0.000058	-0.194489
C12	C	1.128215	-0.000051	-0.190707
C13	C	0.944788	-0.000628	-0.045790
C14	C	1.091406	-0.000057	-0.049624
C15	C	1.066558	0.140811	-0.258600
C16	C	0.920014	0.140914	-0.253785
C17	C	0.919493	-0.139608	-0.256660
C18	C	1.066475	-0.141455	-0.257960
N19	N	1.501141	-0.351119	-0.187331
C20	C	1.397510	-0.586146	-0.290298
C21	C	1.397739	-0.414255	-0.290684
C22	C	1.633864	-0.413464	-0.217464
C23	C	1.633298	-0.585409	-0.218193
C24	C	1.473367	-0.585663	-0.053892
C25	C	1.470322	-0.413709	-0.054757
C26	C	1.733182	-0.000077	-0.180161
C27	C	1.874130	-0.000074	-0.183943
C28	C	1.508336	-0.000068	0.044684
C29	C	1.504554	-0.000060	0.185632
N30	N	1.501213	0.350982	-0.187310
C31	C	1.494008	-0.000066	-0.419335
C32	C	1.497790	-0.000064	-0.560283
C33	C	1.359637	0.000500	0.369059
C34	C	1.363471	-0.000055	0.222441
C35	C	1.572434	-0.140930	0.247287
C36	C	1.567619	-0.141049	0.393832
C37	C	1.570520	0.139473	0.394355
C38	C	1.571820	0.141336	0.247373
H39	H	0.914592	0.099828	0.009712
H40	H	1.310059	0.100926	0.179839
H41	H	0.872266	-0.140559	-0.358564
H42	H	0.916191	-0.101649	0.009944
O43	O	1.501127	-0.280521	0.431185
H44	H	1.566851	-0.346261	0.497832
O45	O	1.573453	-0.639628	0.047665
H46	H	1.553121	-0.594460	0.141570
O47	O	1.285802	0.134288	0.406961
H48	H	1.346776	0.201811	0.476569
O49	O	0.882648	0.280367	-0.187289
H50	H	0.969211	0.347094	-0.158863
H51	H	1.712941	-0.626995	-0.146204
H52	H	0.872045	0.147309	-0.355250
O53	O	1.286101	-0.132568	0.409047
H54	H	1.279753	-0.128624	0.513500
H55	H	1.309661	-0.101200	0.180683
O56	O	1.702010	-0.149557	0.457388
H57	H	1.770149	-0.153580	0.383414
O58	O	1.120710	-0.279505	-0.192274
H59	H	1.191348	-0.247559	-0.112065
H60	H	1.372684	-0.372962	-0.031916
O61	O	1.146735	0.133931	0.021627
H62	H	1.068751	0.198580	0.058948
O63	O	1.708078	0.152596	0.215305
H64	H	1.721036	0.257667	0.163206
O65	O	1.098563	-0.152743	-0.394209
H66	H	1.159277	-0.057311	-0.416222
O67	O	1.709670	-0.147905	0.217671
H68	H	1.731001	-0.050812	0.158548
H69	H	0.887935	-0.246381	-0.211004
O70	O	1.738595	-0.359297	-0.120826
H71	H	1.697061	-0.287186	-0.050129
O72	O	1.122962	0.279682	-0.196116
H73	H	1.227324	0.281306	-0.203314
H74	H	1.134008	-0.101034	0.003797
H75	H	1.088912	0.146054	-0.362208
H76	H	1.540849	-0.370737	0.025564
H77	H	1.672424	0.140416	0.441581
O78	O	1.267103	-0.358412	-0.266704
H79	H	1.274527	-0.289803	-0.178875
H80	H	1.298584	-0.627535	-0.272446
H81	H	1.658762	-0.370386	-0.313702
O82	O	1.420904	-0.643337	-0.420681
H83	H	1.506072	-0.716344	-0.412451
O84	O	1.421456	-0.359729	-0.421793
H85	H	1.432819	-0.456174	-0.485165
O86	O	1.665557	-0.638531	-0.347123
H87	H	1.681406	-0.541410	-0.408367
H88	H	1.378630	-0.629106	-0.025213
O89	O	1.509958	-0.279797	0.190866
H90	H	1.430573	-0.248839	0.118931
H91	H	1.524871	0.246244	0.425910
O92	O	1.506136	0.279392	0.193154
H93	H	1.425919	0.247455	0.122520
