data_functionalizedCrystal
_audit_creation_method	'MofGen! by Chris Wilmer'
_symmetry_space_group_name_H-M	'P1'
_symmetry_Int_Tables_number	1
_symmetry_cell_setting	triclinic
loop_
_symmetry_equiv_pos_as_xyz
  x,y,z
_cell_length_a	21.295418
_cell_length_b	14.908520
_cell_length_c	21.295411
_cell_angle_alpha	86.727396
_cell_angle_beta	89.964378
_cell_angle_gamma	86.662388
loop_
_atom_site_label
_atom_site_type_symbol
_atom_site_fract_x
_atom_site_fract_y
_atom_site_fract_z
Zn1	Zn	0.947892	0.358826	-0.370691
Zn2	Zn	1.281225	0.692159	-0.037357
Zn3	Zn	1.614558	1.025492	0.295976
Zn4	Zn	0.941749	0.509689	-0.271494
Zn5	Zn	1.275082	0.843022	0.061839
Zn6	Zn	1.608416	1.176355	0.395172
Zn7	Zn	0.842627	0.358887	-0.265403
Zn8	Zn	1.175961	0.692220	0.067930
Zn9	Zn	1.509294	1.025553	0.401264
Zn10	Zn	0.836524	0.509688	-0.376691
Zn11	Zn	1.169858	0.843021	-0.043357
Zn12	Zn	1.503191	1.176355	0.289976
O13	O	0.892198	0.434272	-0.321070
O14	O	1.225531	0.767606	0.012264
O15	O	1.558865	1.100939	0.345597
O16	O	1.035167	0.378813	-0.357570
O17	O	1.368501	0.712146	-0.024237
O18	O	1.701834	1.045479	0.309096
O19	O	0.928584	0.489710	-0.182598
O20	O	1.261917	0.823044	0.150735
O21	O	1.595250	1.156377	0.484069
O22	O	0.861716	0.232631	-0.274309
O23	O	1.195049	0.565964	0.059024
O24	O	1.528382	0.899298	0.392357
O25	O	1.030654	0.489651	-0.284691
O26	O	1.363988	0.822984	0.048642
O27	O	1.697321	1.156318	0.381975
O28	O	0.939053	0.232586	-0.351664
O29	O	1.272386	0.565920	-0.018330
O30	O	1.605720	0.899253	0.315003
O31	O	0.855759	0.378917	-0.178123
O32	O	1.189093	0.712250	0.155211
O33	O	1.522426	1.045583	0.488544
O34	O	0.753727	0.378916	-0.280127
O35	O	1.087061	0.712249	0.053206
O36	O	1.420394	1.045583	0.386539
O37	O	0.851314	0.489650	-0.463983
O38	O	1.184647	0.822983	-0.130650
O39	O	1.517981	1.156317	0.202683
O40	O	0.749243	0.489709	-0.361890
O41	O	1.082577	0.823042	-0.028557
O42	O	1.415910	1.156376	0.304777
O43	O	0.933135	0.378812	-0.459575
O44	O	1.266468	0.712145	-0.126242
O45	O	1.599802	1.045479	0.207092
O46	O	0.922666	0.635936	-0.290509
O47	O	1.255999	0.969269	0.042824
O48	O	1.589332	1.302603	0.376157
O49	O	0.845358	0.635935	-0.367797
O50	O	1.178691	0.969269	-0.034463
O51	O	1.512024	1.302602	0.298870
C52	C	0.728644	0.434320	-0.320999
C53	C	1.061978	0.767653	0.012334
C54	C	1.395311	1.100986	0.345668
C55	C	0.658675	0.434362	-0.320985
C56	C	0.992008	0.767695	0.012349
C57	C	1.325341	1.101028	0.345682
C58	C	0.882700	0.668670	-0.330479
C59	C	1.216033	1.002004	0.002855
C60	C	1.549367	1.335337	0.336188
C61	C	0.878694	0.768947	-0.334525
C62	C	1.212028	1.102280	-0.001192
C63	C	1.545361	1.435613	0.332142
C64	C	0.892229	0.434224	-0.485258
C65	C	1.225562	0.767557	-0.151925
C66	C	1.558896	1.100891	0.181409
C67	C	0.892242	0.434204	-0.555225
C68	C	1.225575	0.767537	-0.221892
C69	C	1.558909	1.100870	0.111441
C70	C	0.623487	0.492128	-0.363502
C71	C	0.956820	0.825461	-0.030168
C72	C	1.290153	1.158795	0.303165
C73	C	0.557745	0.492106	-0.363529
C74	C	0.891078	0.825439	-0.030196
C75	C	1.224412	1.158772	0.303138
C76	C	0.527194	0.434327	-0.321029
C77	C	0.860527	0.767660	0.012305
C78	C	1.193860	1.100993	0.345638
C79	C	0.562390	0.376549	-0.278509
C80	C	0.895723	0.709882	0.054825
C81	C	1.229057	1.043216	0.388158
C82	C	0.628130	0.376567	-0.278487
C83	C	0.961464	0.709900	0.054847
C84	C	1.294797	1.043233	0.388180
N85	N	0.424209	0.427275	-0.265687
N86	N	0.757542	0.760608	0.067646
N87	N	1.090875	1.093942	0.400980
N88	N	0.361758	0.427264	-0.265710
N89	N	0.695091	0.760597	0.067624
N90	N	1.028424	1.093930	0.400957
C91	C	0.329121	0.434269	-0.321093
C92	C	0.662455	0.767602	0.012240
C93	C	0.995788	1.100936	0.345574
N94	N	0.361294	0.441304	-0.376455
N95	N	0.694628	0.774637	-0.043121
N96	N	1.027961	1.107971	0.290212
N97	N	0.423751	0.441320	-0.376431
N98	N	0.757084	0.774653	-0.043098
N99	N	1.090417	1.107987	0.290235
C100	C	0.455909	0.434301	-0.321048
C101	C	0.789243	0.767634	0.012285
C102	C	1.122576	1.100968	0.345619
C103	C	0.222649	0.492014	-0.363643
C104	C	0.555982	0.825348	-0.030310
C105	C	0.889315	1.158681	0.303024
C106	C	0.156906	0.491986	-0.363671
C107	C	0.490239	0.825319	-0.030338
C108	C	0.823573	1.158653	0.302995
C109	C	0.161552	0.376434	-0.278646
C110	C	0.494885	0.709767	0.054688
C111	C	0.828219	1.043101	0.388021
C112	C	0.227293	0.376458	-0.278623
C113	C	0.560627	0.709791	0.054711
C114	C	0.893960	1.043124	0.388044
C115	C	0.257838	0.434253	-0.321121
C116	C	0.591171	0.767586	0.012212
C117	C	0.924504	1.100920	0.345546
C118	C	1.056390	0.434225	-0.321141
C119	C	1.389724	0.767559	0.012192
C120	C	1.723057	1.100892	0.345526
C121	C	1.126359	0.434205	-0.321171
C122	C	1.459692	0.767539	0.012162
C123	C	1.793026	1.100872	0.345495
C124	C	0.901750	0.198959	-0.311638
C125	C	1.235084	0.532292	0.021696
C126	C	1.568417	0.865625	0.355029
C127	C	0.905821	0.098682	-0.307618
C128	C	1.239154	0.432016	0.025715
C129	C	1.572488	0.765349	0.359048
C130	C	0.951751	0.957316	-0.261714
C131	C	1.285084	1.290650	0.071619
C132	C	1.618417	1.623983	0.404953
C133	C	0.947989	1.051535	-0.265514
C134	C	1.281322	1.384868	0.067819
C135	C	1.614656	1.718202	0.401153
C136	C	0.867413	1.051604	-0.345927
C137	C	1.200746	1.384938	-0.012594
C138	C	1.534080	1.718271	0.320739
C139	C	0.871175	0.957386	-0.342127
C140	C	1.204508	1.290719	-0.008794
C141	C	1.537841	1.624052	0.324539
C142	C	0.913344	0.910245	-0.300019
C143	C	1.246678	1.243578	0.033315
C144	C	1.580011	1.576912	0.366648
C145	C	0.917102	0.816025	-0.296216
C146	C	1.250436	1.149358	0.037117
C147	C	1.583769	1.482691	0.370451
C148	C	0.836530	0.816096	-0.376632
C149	C	1.169863	1.149429	-0.043299
C150	C	1.503196	1.482762	0.290034
C151	C	0.832768	0.910314	-0.380432
C152	C	1.166101	1.243648	-0.047099
C153	C	1.499435	1.576981	0.286235
C154	C	0.930239	0.491707	-1.057007
C155	C	1.263573	0.825040	-0.723674
C156	C	1.596906	1.158373	-0.390340
C157	C	0.930227	0.491736	-0.991266
C158	C	1.263560	0.825069	-0.657932
C159	C	1.596894	1.158402	-0.324599
C160	C	0.892307	0.434063	-0.956059
C161	C	1.225641	0.767396	-0.622726
C162	C	1.558974	1.100730	-0.289393
C163	C	0.854385	0.376374	-0.986601
C164	C	1.187719	0.709707	-0.653267
C165	C	1.521052	1.043040	-0.319934
C166	C	0.854394	0.376353	-1.052341
C167	C	1.187727	0.709686	-0.719008
C168	C	1.521061	1.043019	-0.385674
N169	N	0.890670	0.355126	-0.849672
N170	N	1.224003	0.688460	-0.516339
N171	N	1.557336	1.021793	-0.183006
N172	N	0.890665	0.355149	-0.787222
N173	N	1.223998	0.688482	-0.453888
N174	N	1.557332	1.021815	-0.120555
C175	C	0.892277	0.434124	-0.757987
C176	C	1.225611	0.767457	-0.424654
C177	C	1.558944	1.100790	-0.091320
N178	N	0.893907	0.513077	-0.793562
N179	N	1.227240	0.846411	-0.460229
N180	N	1.560573	1.179744	-0.126896
N181	N	0.893915	0.513054	-0.856019
N182	N	1.227248	0.846387	-0.522685
N183	N	1.560582	1.179720	-0.189352
C184	C	0.892293	0.434080	-0.884775
C185	C	1.225626	0.767413	-0.551441
C186	C	1.558960	1.100746	-0.218108
C187	C	0.930180	0.491845	-0.656170
C188	C	1.263513	0.825179	-0.322836
C189	C	1.596847	1.158512	0.010497
C190	C	0.930163	0.491876	-0.590427
C191	C	1.263496	0.825209	-0.257094
C192	C	1.596830	1.158542	0.076240
C193	C	0.854325	0.376506	-0.585763
C194	C	1.187658	0.709839	-0.252430
C195	C	1.520992	1.043172	0.080904
C196	C	0.854338	0.376483	-0.651505
C197	C	1.187672	0.709817	-0.318171
C198	C	1.521005	1.043150	0.015162
C199	C	0.892269	0.434152	-0.686704
C200	C	1.225603	0.767485	-0.353371
C201	C	1.558936	1.100819	-0.020037
C202	C	0.892206	0.434255	-0.157517
C203	C	1.225539	0.767588	0.175816
C204	C	1.558873	1.100922	0.509149
C205	C	0.892325	0.434021	-0.087540
C206	C	1.225658	0.767355	0.245793
C207	C	1.558992	1.100688	0.579126
H208	H	0.648351	0.539188	-0.398108
H209	H	0.981685	0.872521	-0.064774
H210	H	1.315018	1.205855	0.268559
Br211	Br	0.275052	0.298056	-0.220918
Br212	Br	0.608385	0.631390	0.112415
Br213	Br	0.941719	0.964723	0.445749
Br214	Br	0.810198	1.115596	-0.403080
Br215	Br	1.143531	1.448930	-0.069747
Br216	Br	1.476865	1.782263	0.263586
Br217	Br	0.802929	0.298067	-1.093783
Br218	Br	1.136262	0.631400	-0.760449
Br219	Br	1.469595	0.964734	-0.427116
H220	H	0.798436	0.948709	-0.414717
H221	H	1.131770	1.282043	-0.081384
H222	H	1.465103	1.615376	0.251949
H223	H	0.961111	0.538700	-0.966400
H224	H	1.294444	0.872033	-0.633067
H225	H	1.627778	1.205366	-0.299733
Br226	Br	0.974327	0.752048	-0.239066
Br227	Br	1.307661	1.085381	0.094268
Br228	Br	1.640994	1.418715	0.427601
H229	H	0.823467	0.329506	-0.676365
H230	H	1.156800	0.662839	-0.343031
H231	H	1.490133	0.996173	-0.009698
H232	H	0.656781	0.329524	-0.243864
H233	H	0.990114	0.662857	0.089469
H234	H	1.323447	0.996190	0.422802
H235	H	0.986083	0.918934	-0.227423
H236	H	1.319416	1.252267	0.105910
H237	H	1.652749	1.585600	0.439244
H238	H	0.823448	0.329550	-0.557099
H239	H	1.156782	0.662883	-0.223765
H240	H	1.490115	0.996216	0.109568
Br241	Br	0.784392	0.752209	-0.428610
Br242	Br	1.117725	1.085542	-0.095276
Br243	Br	1.451059	1.418875	0.238057
Br244	Br	0.981618	0.570177	-0.548988
Br245	Br	1.314951	0.903510	-0.215654
Br246	Br	1.648285	1.236844	0.117679
Br247	Br	0.981710	0.569980	-1.104775
Br248	Br	1.315043	0.903313	-0.771442
Br249	Br	1.648377	1.236646	-0.438108
Br250	Br	0.981657	0.570107	-0.703944
Br251	Br	1.314990	0.903440	-0.370610
Br252	Br	1.648323	1.236773	-0.037277
H253	H	0.979265	1.089857	-0.234323
H254	H	1.312598	1.423190	0.099010
H255	H	1.645932	1.756523	0.432343
H256	H	0.529089	0.539146	-0.398153
H257	H	0.862423	0.872479	-0.064820
H258	H	1.195756	1.205812	0.268513
H259	H	0.247519	0.539070	-0.398251
H260	H	0.580852	0.872403	-0.064917
H261	H	0.914186	1.205737	0.268416
Br262	Br	0.520930	0.298127	-0.220834
Br263	Br	0.854263	0.631460	0.112499
Br264	Br	1.187596	0.964793	0.445833
Br265	Br	0.109149	0.570382	-0.421383
Br266	Br	0.442483	0.903716	-0.088050
Br267	Br	0.775816	1.237049	0.245284
H268	H	0.823510	0.329417	-0.957932
H269	H	1.156843	0.662751	-0.624598
H270	H	1.490177	0.996084	-0.291265
Br271	Br	0.120097	0.298009	-0.220971
Br272	Br	0.453430	0.631343	0.112362
Br273	Br	0.786764	0.964676	0.445696
