data_functionalizedCrystal
_audit_creation_method	'MofGen! by Chris Wilmer'
_symmetry_space_group_name_H-M	'P1'
_symmetry_Int_Tables_number	1
_symmetry_cell_setting	triclinic
loop_
_symmetry_equiv_pos_as_xyz
  x,y,z
_cell_length_a	15.297475
_cell_length_b	18.050590
_cell_length_c	15.296720
_cell_angle_alpha	80.356428
_cell_angle_beta	88.382886
_cell_angle_gamma	80.320920
loop_
_atom_site_label
_atom_site_type_symbol
_atom_site_fract_x
_atom_site_fract_y
_atom_site_fract_z
Zn1	Zn	1.253450	-0.577990	0.726578
Zn2	Zn	1.753450	-0.077990	1.226578
Zn3	Zn	1.278722	-0.684928	0.580090
Zn4	Zn	1.778722	-0.184928	1.080090
Zn5	Zn	1.132324	-0.536269	0.554820
Zn6	Zn	1.632324	-0.036269	1.054820
Zn7	Zn	1.106947	-0.677628	0.701219
Zn8	Zn	1.606947	-0.177628	1.201219
O9	O	1.192861	-0.619204	0.640677
O10	O	1.692861	-0.119204	1.140677
O11	O	1.379382	-0.612691	0.728334
O12	O	1.879382	-0.112691	1.228334
O13	O	1.280498	-0.650803	0.454164
O14	O	1.780498	-0.150803	0.954164
O15	O	1.148436	-0.437891	0.577642
O16	O	1.648436	0.062109	1.077642
O17	O	1.397949	-0.691258	0.620710
O18	O	1.897949	-0.191258	1.120710
O19	O	1.237426	-0.468543	0.703832
O20	O	1.737426	0.031457	1.203832
O21	O	1.172941	-0.541584	0.435598
O22	O	1.672941	-0.041584	0.935598
O23	O	1.006378	-0.534505	0.553052
O24	O	1.506378	-0.034505	1.053052
O25	O	1.105185	-0.678816	0.827157
O26	O	1.605185	-0.178816	1.327157
O27	O	0.987734	-0.638361	0.660610
O28	O	1.487734	-0.138361	1.160610
O29	O	1.212819	-0.605613	0.845788
O30	O	1.712819	-0.105613	1.345788
O31	O	1.255891	-0.787873	0.596120
O32	O	1.755891	-0.287873	1.096120
O33	O	1.129689	-0.782509	0.685113
O34	O	1.629689	-0.282509	1.185113
C35	C	0.965272	-0.581114	0.601338
C36	C	1.465272	-0.081114	1.101338
C37	C	0.867905	-0.564840	0.584529
C38	C	1.367905	-0.064840	1.084529
C39	C	0.554774	-0.735526	0.760813
C40	C	1.054774	-0.235526	1.260813
C41	C	0.646255	-0.750822	0.776603
C42	C	1.146255	-0.250822	1.276603
C43	C	0.701672	-0.704328	0.728586
C44	C	1.201672	-0.204328	1.228586
C45	C	0.665599	-0.642535	0.664776
C46	C	1.165599	-0.142535	1.164776
C47	C	0.574109	-0.627241	0.648979
C48	C	1.074109	-0.127241	1.148979
C49	C	0.721008	-0.596043	0.616753
C50	C	1.221008	-0.096043	1.116753
C51	C	0.684934	-0.534250	0.552942
C52	C	1.184934	-0.034250	1.052942
C53	C	0.593453	-0.518959	0.537149
C54	C	1.093453	-0.018959	1.037149
C55	C	0.538037	-0.565453	0.585166
C56	C	1.038037	-0.065453	1.085166
C57	C	0.812497	-0.611337	0.632549
C58	C	1.312497	-0.111337	1.132549
C59	C	0.831833	-0.503052	0.520715
C60	C	1.331833	-0.003052	1.020715
C61	C	0.740351	-0.487756	0.504925
C62	C	1.240351	0.012244	1.004925
C63	C	1.192799	-0.812141	0.640630
C64	C	1.692799	-0.312141	1.140630
C65	C	1.192848	-0.894697	0.640653
C66	C	1.692848	-0.394697	1.140653
C67	C	1.261584	-1.097067	0.592362
C68	C	1.761584	-0.597067	1.092362
C69	C	1.269139	-1.159389	0.675998
C70	C	1.769139	-0.659389	1.175998
C71	C	1.192892	-1.045840	0.640697
C72	C	1.692892	-0.545840	1.140697
C73	C	1.185420	-1.130619	0.557112
C74	C	1.685420	-0.630619	1.057112
C75	C	1.192937	-1.191836	0.640732
C76	C	1.692937	-0.691836	1.140732
C77	C	1.200481	-1.107086	0.724382
C78	C	1.700481	-0.607086	1.224382
C79	C	1.116734	-1.078299	0.605436
C80	C	1.616734	-0.578299	1.105436
C81	C	1.124248	-1.140600	0.689122
C82	C	1.624248	-0.640600	1.189122
C83	C	1.192868	-0.961735	0.640676
C84	C	1.692868	-0.461735	1.140676
C85	C	1.192959	-1.275940	0.640762
C86	C	1.692959	-0.775940	1.140762
C87	C	1.421338	-0.657443	0.680170
C88	C	1.921338	-0.157443	1.180170
C89	C	1.518701	-0.673738	0.697000
C90	C	2.018701	-0.173738	1.197000
C91	C	1.153352	-0.646054	0.869143
C92	C	1.653352	-0.146054	1.369143
C93	C	1.136516	-0.657496	0.966502
C94	C	1.636516	-0.157496	1.466502
C95	C	1.192943	-0.425520	0.640747
C96	C	1.692943	0.074480	1.140747
C97	C	1.192978	-0.342983	0.640776
C98	C	1.692978	0.157017	1.140776
C99	C	1.232266	-0.592413	0.413108
C100	C	1.732266	-0.092413	0.913108
C101	C	1.249272	-0.580791	0.315779
C102	C	1.749272	-0.080791	0.815779
C103	C	1.313224	-0.537303	1.279743
C104	C	1.813224	-0.037303	1.779743
C105	C	1.329048	-0.526555	1.188271
C106	C	1.829048	-0.026555	1.688271
C107	C	1.280916	-0.559289	1.132824
C108	C	1.780916	-0.059289	1.632824
C109	C	1.216958	-0.602773	1.168859
C110	C	1.716958	-0.102773	1.668859
C111	C	1.201138	-0.613527	1.260341
C112	C	1.701138	-0.113527	1.760341
C113	C	1.168830	-0.635513	1.113422
C114	C	1.668830	-0.135513	1.613422
C115	C	1.104872	-0.678998	1.149457
C116	C	1.604872	-0.178998	1.649457
C117	C	1.089053	-0.689749	1.240930
C118	C	1.589053	-0.189749	1.740930
C119	C	1.137185	-0.657015	1.296377
C120	C	1.637185	-0.157015	1.796377
C121	C	1.184650	-0.624759	1.021940
C122	C	1.684650	-0.124759	1.521940
C123	C	1.072564	-0.700984	1.002538
C124	C	1.572564	-0.200984	1.502538
C125	C	1.056740	-0.711732	1.094010
C126	C	1.556740	-0.211732	1.594010
H127	H	0.675620	-0.801135	0.828555
H128	H	1.175620	-0.301135	1.328555
N129	N	1.031435	-1.031780	0.565872
N130	N	1.531435	-0.531780	1.065872
H131	H	1.031824	-0.976003	0.566694
H132	H	1.531824	-0.476003	1.066694
H133	H	0.979544	-1.048269	0.601748
H134	H	1.479544	-0.548269	1.101748
H135	H	0.876954	-0.465193	0.481615
H136	H	1.376954	0.034807	0.981615
N137	N	1.047310	-1.165879	0.743345
N138	N	1.547310	-0.665879	1.243345
H139	H	0.989851	-1.135237	0.717262
H140	H	1.489851	-0.635237	1.217262
H141	H	1.053164	-1.157592	0.806452
H142	H	1.553164	-0.657592	1.306452
H143	H	0.509647	-0.773379	0.799896
H144	H	1.009647	-0.273379	1.299896
H145	H	0.841859	-0.661649	0.684505
H146	H	1.341859	-0.161649	1.184505
N147	N	1.177016	-1.144889	0.463463
N148	N	1.677016	-0.644889	0.963463
H149	H	1.228922	-1.129151	0.426999
H150	H	1.728922	-0.629151	0.926999
H151	H	1.119953	-1.114201	0.436509
H152	H	1.619953	-0.614201	0.936509
N153	N	0.439367	-0.548963	0.568121
N154	N	0.939367	-0.048963	1.068121
H155	H	0.409739	-0.587795	0.608221
H156	H	0.909739	-0.087795	1.108221
H157	H	0.427800	-0.551775	0.504178
H158	H	0.927800	-0.051775	1.004178
H159	H	1.206743	-1.096403	0.795131
H160	H	1.706743	-0.596403	1.295131
H161	H	0.710967	-0.437444	0.452970
H162	H	1.210967	0.062556	0.952970
H163	H	1.319683	-1.077874	0.551540
H164	H	1.819683	-0.577874	1.051540
H165	H	1.352411	-0.510660	1.324896
H166	H	1.852411	-0.010660	1.824896
N167	N	0.554544	-0.452321	0.468316
N168	N	1.054544	0.047679	0.968316
H169	H	0.603529	-0.425187	0.440294
H170	H	1.103529	0.074813	0.940294
H171	H	0.510422	-0.415856	0.497492
H172	H	1.010422	0.084144	0.997492
H173	H	1.004664	-0.747137	1.123363
H174	H	1.504664	-0.247137	1.623363
N175	N	1.354469	-1.205884	0.715533
N176	N	1.854469	-0.705884	1.215533
H177	H	1.406308	-1.190129	0.678968
H178	H	1.906308	-0.690129	1.178968
H179	H	1.353527	-1.261731	0.715784
H180	H	1.853527	-0.761731	1.215784
H181	H	1.236725	-0.589353	0.992609
H182	H	1.736725	-0.089353	1.492609
H183	H	1.293804	-0.550535	1.058344
H184	H	1.793804	-0.050535	1.558344
H185	H	1.033372	-0.727640	0.957393
H186	H	1.533372	-0.227640	1.457393
H187	H	1.381125	-0.491152	1.158938
H188	H	1.881125	0.008848	1.658938
H189	H	1.036982	-0.725165	1.270267
H190	H	1.536982	-0.225165	1.770267
N191	N	0.800342	-0.720823	0.745612
N192	N	1.300342	-0.220823	1.245612
H193	H	0.814786	-0.767023	0.793321
H194	H	1.314786	-0.267023	1.293321
H195	H	0.819526	-0.675452	0.765594
H196	H	1.319526	-0.175452	1.265594
N197	N	1.120093	-0.668586	1.395035
N198	N	1.620093	-0.168586	1.895035
H199	H	1.160280	-0.641239	1.424686
H200	H	1.660280	-0.141239	1.924686
H201	H	1.132336	-0.724818	1.419785
H202	H	1.632336	-0.224818	1.919785
