data_functionalizedCrystal
_audit_creation_method	'MofGen! by Chris Wilmer'
_symmetry_space_group_name_H-M	'P1'
_symmetry_Int_Tables_number	1
_symmetry_cell_setting	triclinic
loop_
_symmetry_equiv_pos_as_xyz
  x,y,z
_cell_length_a	19.805407
_cell_length_b	12.759394
_cell_length_c	19.805407
_cell_angle_alpha	90.008007
_cell_angle_beta	90.009221
_cell_angle_gamma	90.013856
loop_
_atom_site_label
_atom_site_type_symbol
_atom_site_fract_x
_atom_site_fract_y
_atom_site_fract_z
Zn1	Zn	1.034726	-0.418439	0.382744
Zn2	Zn	1.034686	-0.594088	0.269567
Zn3	Zn	0.921561	-0.418424	0.269569
Zn4	Zn	0.921529	-0.594076	0.382713
O5	O	0.978125	-0.506257	0.326148
O6	O	1.129437	-0.441750	0.367743
O7	O	1.019676	-0.570785	0.174850
O8	O	0.936602	-0.271405	0.284596
O9	O	1.129407	-0.570799	0.284592
O10	O	1.019744	-0.271416	0.367745
O11	O	0.936564	-0.441725	0.174852
O12	O	0.826840	-0.441713	0.284566
O13	O	0.936548	-0.570779	0.477434
O14	O	0.826816	-0.570764	0.367693
O15	O	1.019713	-0.441739	0.477457
O16	O	1.019645	-0.741108	0.284562
O17	O	0.936509	-0.741099	0.367690
C18	C	0.802269	-0.506237	0.326127
C19	C	0.727037	-0.506253	0.326133
C20	C	0.691698	-0.573551	0.369347
C21	C	0.621010	-0.573553	0.369357
C22	C	0.585662	-0.506262	0.326148
C23	C	0.621005	-0.438956	0.282932
C24	C	0.691692	-0.438950	0.282927
C25	C	0.335932	-0.438980	0.282955
C26	C	0.265240	-0.438993	0.282962
C27	C	0.265249	-0.573583	0.369385
C28	C	0.335937	-0.573577	0.369379
C29	C	0.371274	-0.506268	0.326166
C30	C	0.447923	-0.506265	0.326157
C31	C	0.509014	-0.506269	0.326153
C32	C	0.978087	-0.779224	0.326137
C33	C	0.978133	-0.896001	0.326155
C34	C	1.064644	-0.895854	0.412804
C35	C	1.107921	-0.950642	0.456133
C36	C	1.107961	-1.060363	0.456147
C37	C	1.064718	-1.115300	0.412830
C38	C	1.021442	-1.060513	0.369500
C39	C	1.021408	-0.950788	0.369489
C40	C	0.934929	-1.060659	0.282856
C41	C	0.934891	-0.950938	0.282837
C42	C	0.891686	-1.115596	0.239538
C43	C	0.848412	-1.060809	0.196204
C44	C	0.848374	-0.951081	0.196191
C45	C	0.891614	-0.896150	0.239508
C46	C	1.154668	-0.506278	0.326171
C47	C	1.229900	-0.506287	0.326180
C48	C	0.978131	-0.506259	0.502691
C49	C	0.978134	-0.506260	0.577923
C50	C	0.978181	-0.232223	0.326174
C51	C	0.978205	-0.115447	0.326186
C52	C	1.021433	-0.439079	0.613280
C53	C	1.021427	-0.439076	0.683969
C54	C	0.978125	-0.506260	0.719299
C55	C	0.934821	-0.573443	0.683937
C56	C	0.934824	-0.573441	0.613249
C57	C	0.934808	-0.573456	0.969010
C58	C	0.934810	-0.573456	1.039702
C59	C	1.021410	-0.439091	1.039729
C60	C	1.021413	-0.439088	0.969042
C61	C	0.978108	-0.506267	0.933686
C62	C	0.978114	-0.506269	0.857038
C63	C	0.978122	-0.506264	0.795946
C64	C	0.978113	-0.506276	1.150292
C65	C	0.978106	-0.506269	1.075060
H66	H	0.720474	-0.628352	0.404530
Br67	Br	1.080183	-0.347915	1.087716
H68	H	0.236461	-0.384190	0.247777
H69	H	0.236469	-0.628385	0.404573
H70	H	1.056687	-0.384373	0.712753
Br71	Br	1.166690	-1.134722	0.514955
Br72	Br	0.876040	-0.664642	1.087650
H73	H	0.592240	-0.628355	0.404545
Br74	Br	0.891841	-1.264505	0.239456
Br75	Br	0.383906	-0.664910	0.428017
H76	H	0.899559	-0.628136	0.584463
H77	H	0.891590	-0.806809	0.239498
Br78	Br	0.789724	-1.135369	0.137431
Br79	Br	1.080186	-0.347913	0.921097
H80	H	1.056696	-0.384373	0.584520
Br81	Br	0.876035	-0.664626	0.921036
H82	H	0.899562	-0.628142	0.712708
Br83	Br	0.383881	-0.347626	0.224312
H84	H	0.592219	-0.384162	0.247754
H85	H	0.720464	-0.384143	0.247741
Br86	Br	1.166596	-0.876082	0.514927
H87	H	1.064622	-0.806513	0.412790
Br88	Br	1.064880	-1.264209	0.412744
Br89	Br	0.789633	-0.876735	0.137389
