data_functionalizedCrystal
_audit_creation_method	'MofGen! by Chris Wilmer'
_symmetry_space_group_name_H-M	'P1'
_symmetry_Int_Tables_number	1
_symmetry_cell_setting	triclinic
loop_
_symmetry_equiv_pos_as_xyz
  x,y,z
_cell_length_a	15.944493
_cell_length_b	15.944493
_cell_length_c	15.021413
_cell_angle_alpha	90.009890
_cell_angle_beta	89.993251
_cell_angle_gamma	83.475044
loop_
_atom_site_label
_atom_site_type_symbol
_atom_site_fract_x
_atom_site_fract_y
_atom_site_fract_z
O1	O	1.114537	0.108092	-0.074008
O2	O	0.869978	0.121499	-0.074011
O3	O	0.998961	-0.007484	-0.074017
O4	O	0.985553	0.237075	-0.074003
O5	O	0.998940	-0.007466	0.074047
O6	O	0.869957	0.121518	0.074053
O7	O	1.114516	0.108110	0.074056
Zn8	Zn	0.992233	0.114817	0.097563
Zn9	Zn	0.992260	0.114793	-0.097518
O10	O	0.985533	0.237094	0.074062
C11	C	0.838673	0.120961	0.000020
C12	C	0.745424	0.119318	0.000018
C13	C	0.509649	0.195240	0.000022
C14	C	0.459089	0.154307	0.073027
C15	C	0.574704	0.116273	0.000020
C16	C	0.459114	0.154270	-0.072953
C17	C	0.409795	0.113339	0.000018
C18	C	0.525372	0.075362	0.073085
C19	C	0.525400	0.075337	-0.072960
C20	C	0.474873	0.034346	0.000062
C21	C	0.669704	0.117966	0.000022
C22	C	0.314798	0.111640	0.000022
C23	C	0.998403	-0.038769	0.000011
C24	C	0.996760	-0.132018	-0.000000
C25	C	1.072682	-0.367793	0.000017
C26	C	1.031750	-0.418362	-0.072986
C27	C	0.993716	-0.302738	0.000011
C28	C	1.031712	-0.418320	0.072994
C29	C	0.990781	-0.467647	0.000025
C30	C	0.952805	-0.352078	-0.073053
C31	C	0.952778	-0.352033	0.072992
C32	C	0.911788	-0.402569	-0.000029
C33	C	0.995408	-0.207739	0.000002
C34	C	0.989082	-0.562644	0.000028
C35	C	1.145821	0.108649	0.000022
C36	C	1.239069	0.110292	0.000018
C37	C	0.986091	0.268379	0.000031
C38	C	0.987734	0.361627	0.000037
N39	N	0.992221	0.114833	0.230700
N40	N	0.992279	0.114770	-0.230656
C41	C	0.932570	0.174447	0.470386
C42	C	1.008469	0.190739	0.529723
C43	C	0.992243	0.114812	0.412307
C44	C	0.916364	0.098539	0.529712
C45	C	0.992256	0.114794	0.587731
C46	C	1.068180	0.131141	0.470337
C47	C	0.976025	0.038909	0.470321
C48	C	1.051979	0.055168	0.529631
C49	C	0.992233	0.114825	0.311250
C50	C	0.992274	0.114780	0.688786
H51	H	0.459422	-0.033727	0.000100
H52	H	1.140702	-0.352179	-0.000055
O53	O	0.420730	0.198483	0.154787
H54	H	0.434349	0.265221	0.154641
O55	O	0.420789	0.198452	-0.154700
H56	H	0.351456	0.196288	-0.154272
H57	H	0.919449	-0.323058	0.134713
O58	O	0.563778	0.031184	-0.154718
H59	H	0.537109	0.064098	-0.215229
O60	O	0.530350	0.285333	0.000120
H61	H	0.470913	0.328944	0.000800
O62	O	1.153208	0.149470	0.435949
H63	H	1.152523	0.149367	0.362062
H64	H	0.962272	-0.025252	0.444210
H65	H	1.065107	-0.447322	-0.134705
H66	H	0.554198	0.042041	0.134866
O67	O	1.026672	0.275739	0.564310
H68	H	1.027117	0.274732	0.638192
H69	H	1.065068	-0.447250	0.134709
H70	H	0.852189	0.084784	0.555795
H71	H	1.102503	0.004726	0.555481
H72	H	0.919484	-0.323259	-0.134838
H73	H	0.843715	-0.418021	-0.000070
H74	H	0.882158	0.224919	0.444373
