data_functionalizedCrystal
_audit_creation_method	'MofGen! by Chris Wilmer'
_symmetry_space_group_name_H-M	'P1'
_symmetry_Int_Tables_number	1
_symmetry_cell_setting	triclinic
loop_
_symmetry_equiv_pos_as_xyz
  x,y,z
_cell_length_a	16.109302
_cell_length_b	14.519731
_cell_length_c	15.186229
_cell_angle_alpha	89.994737
_cell_angle_beta	89.994094
_cell_angle_gamma	83.575317
loop_
_atom_site_label
_atom_site_type_symbol
_atom_site_fract_x
_atom_site_fract_y
_atom_site_fract_z
O1	O	1.103344	0.118543	-0.073270
O2	O	1.603344	0.618543	0.426730
O3	O	0.861309	0.133294	-0.073263
O4	O	1.361309	0.633294	0.426737
O5	O	0.988735	-0.008333	-0.073259
O6	O	1.488735	0.491667	0.426741
O7	O	0.975919	0.260169	-0.073275
O8	O	1.475919	0.760169	0.426725
O9	O	0.988725	-0.008336	0.073198
O10	O	1.488725	0.491664	0.573198
O11	O	0.861299	0.133291	0.073194
O12	O	1.361299	0.633291	0.573194
O13	O	1.103334	0.118539	0.073187
O14	O	1.603334	0.618539	0.573187
Zn15	Zn	0.982315	0.125914	0.096444
Zn16	Zn	1.482315	0.625914	0.596444
Zn17	Zn	0.982328	0.125919	-0.096520
Zn18	Zn	1.482328	0.625919	0.403480
O19	O	0.975909	0.260166	0.073183
O20	O	1.475909	0.760166	0.573183
C21	C	0.830328	0.132695	-0.000034
C22	C	1.330328	0.632695	0.499966
C23	C	0.738030	0.130903	-0.000031
C24	C	1.238030	0.630903	0.499969
C25	C	0.525676	0.126758	0.079794
C26	C	1.025676	0.626758	0.579794
C27	C	0.438953	0.125064	0.079791
C28	C	0.938953	0.625064	0.579791
C29	C	0.438974	0.125073	-0.079884
C30	C	0.938974	0.625073	0.420116
C31	C	0.525696	0.126759	-0.079881
C32	C	1.025696	0.626759	0.420119
C33	C	0.569044	0.127607	-0.000039
C34	C	1.069044	0.627607	0.499961
C35	C	0.395599	0.124226	-0.000045
C36	C	0.895599	0.624226	0.499955
C37	C	0.301570	0.122390	-0.000049
C38	C	0.801570	0.622390	0.499951
C39	C	0.663080	0.129441	-0.000034
C40	C	1.163080	0.629441	0.499966
C41	C	0.988129	-0.042692	-0.000030
C42	C	1.488129	0.457308	0.499970
C43	C	0.986330	-0.145069	-0.000029
C44	C	1.486330	0.354931	0.499971
C45	C	0.984868	-0.228210	-0.000031
C46	C	1.484868	0.271790	0.499969
C47	C	0.983041	-0.332515	-0.000038
C48	C	1.483041	0.167485	0.499962
C49	C	0.981591	-0.415651	-0.000044
C50	C	1.481591	0.084349	0.499956
C51	C	0.979764	-0.519962	-0.000049
C52	C	1.479764	-0.019962	0.499951
C53	C	1.134315	0.119139	-0.000044
C54	C	1.634315	0.619139	0.499956
C55	C	1.226614	0.120930	-0.000053
C56	C	1.726614	0.620930	0.499947
C57	C	0.976514	0.294525	-0.000048
C58	C	1.476514	0.794525	0.499952
C59	C	0.978314	0.396902	-0.000054
C60	C	1.478314	0.896902	0.499946
N61	N	0.982312	0.125911	0.228136
N62	N	1.482312	0.625911	0.728136
N63	N	0.982338	0.125915	-0.228213
N64	N	1.482338	0.625915	0.271787
C65	C	1.038759	0.063220	0.546057
C66	C	1.538759	0.563220	1.046057
C67	C	1.038757	0.063220	0.453867
C68	C	1.538757	0.563220	0.953867
C69	C	0.925888	0.188613	0.453873
C70	C	1.425888	0.688613	0.953873
C71	C	0.925895	0.188616	0.546061
C72	C	1.425895	0.688616	1.046061
C73	C	0.982330	0.125914	0.592151
C74	C	1.482330	0.625914	1.092151
C75	C	0.982320	0.125911	0.407773
C76	C	1.482320	0.625911	0.907773
C77	C	0.982317	0.125912	0.307817
C78	C	1.482317	0.625912	0.807817
C79	C	0.982334	0.125914	0.692113
C80	C	1.482334	0.625914	1.192113
H81	H	0.561008	0.127448	-0.144894
H82	H	1.061008	0.627448	0.355106
O83	O	0.396948	0.124286	0.157420
O84	O	0.896948	0.624286	0.657420
C85	C	0.453811	0.125371	0.227886
C86	C	0.953811	0.625371	0.727886
H87	H	0.512234	0.155756	0.204480
H88	H	1.012234	0.655756	0.704480
H89	H	0.471644	0.051608	0.252438
H90	H	0.971644	0.551608	0.752438
C91	C	0.341162	0.147831	0.332057
C92	C	0.841162	0.647831	0.832057
C93	C	0.412915	0.185158	0.303312
C94	C	0.912915	0.685158	0.803312
H95	H	0.315935	0.184707	0.378586
H96	H	0.815935	0.684707	0.878586
H97	H	0.302852	0.147097	0.284584
H98	H	0.802852	0.647097	0.784584
H99	H	0.356033	0.086364	0.352511
H100	H	0.856033	0.586364	0.852511
H101	H	0.398042	0.246620	0.282848
H102	H	0.898042	0.746620	0.782848
H103	H	0.451222	0.185904	0.350784
H104	H	0.951222	0.685904	0.850784
O105	O	0.871188	0.249611	0.590882
O106	O	1.371188	0.749611	1.090882
C107	C	0.915807	0.306503	0.644208
C108	C	1.415807	0.806503	1.144208
H109	H	0.981370	0.308080	0.616409
H110	H	1.481370	0.808080	1.116409
H111	H	0.920128	0.277641	0.714077
H112	H	1.420128	0.777641	1.214077
C113	C	0.789618	0.403572	0.679769
C114	C	1.289618	0.903572	1.179769
C115	C	0.870142	0.405515	0.645622
C116	C	1.370142	0.905515	1.145622
H117	H	0.761449	0.464646	0.680645
H118	H	1.261449	0.964646	1.180645
H119	H	0.759557	0.365242	0.643845
H120	H	1.259557	0.865242	1.143845
H121	H	0.793230	0.379516	0.737990
H122	H	1.293230	0.879516	1.237990
H123	H	0.866528	0.429559	0.587398
H124	H	1.366528	0.929559	1.087398
H125	H	0.900202	0.443852	0.681536
H126	H	1.400202	0.943852	1.181536
H127	H	1.084713	0.012165	0.583581
H128	H	1.584713	0.512165	1.083581
H129	H	0.560967	0.127448	0.144807
H130	H	1.060967	0.627448	0.644807
H131	H	1.084708	0.012169	0.416340
H132	H	1.584708	0.512169	0.916340
O133	O	0.871179	0.249550	0.409002
O134	O	1.371179	0.749550	0.909002
C135	C	0.915784	0.306471	0.355674
C136	C	1.415784	0.806471	0.855674
H137	H	0.980781	0.269760	0.341855
H138	H	1.480781	0.769760	0.841855
H139	H	0.921540	0.374635	0.391190
H140	H	1.421540	0.874635	0.891190
C141	C	0.789102	0.371248	0.285085
C142	C	1.289102	0.871248	0.785085
C143	C	0.868931	0.326156	0.268106
C144	C	1.368931	0.826156	0.768106
H145	H	0.760200	0.383395	0.231070
H146	H	1.260200	0.883395	0.731070
H147	H	0.759050	0.332902	0.321015
H148	H	1.259050	0.832902	0.821015
H149	H	0.793910	0.428046	0.314683
H150	H	1.293910	0.928046	0.814683
H151	H	0.864122	0.269354	0.238518
H152	H	1.364122	0.769354	0.738518
H153	H	0.898982	0.364493	0.232168
H154	H	1.398982	0.864493	0.732168
O155	O	0.396730	0.124296	-0.157360
O156	O	0.896730	0.624296	0.342640
C157	C	0.310888	0.122605	-0.140247
C158	C	0.810888	0.622605	0.359753
H159	H	0.295638	0.151548	-0.071635
H160	H	0.795638	0.651548	0.428365
H161	H	0.294886	0.048185	-0.144032
H162	H	0.794886	0.548185	0.355968
C163	C	0.278068	0.146638	-0.293395
C164	C	0.778068	0.646638	0.206605
C165	C	0.259336	0.182195	-0.209127
C166	C	0.759336	0.682195	0.290873
H167	H	0.246267	0.183393	-0.335885
H168	H	0.746267	0.683393	0.164115
H169	H	0.335901	0.147774	-0.304925
H170	H	0.835901	0.647774	0.195075
H171	H	0.264733	0.084623	-0.296536
H172	H	0.764733	0.584623	0.203464
H173	H	0.272682	0.244205	-0.205983
H174	H	0.772682	0.744205	0.294017
H175	H	0.201504	0.181071	-0.197597
H176	H	0.701504	0.681071	0.302403
