data_functionalizedCrystal
_audit_creation_method	'MofGen! by Chris Wilmer'
_symmetry_space_group_name_H-M	'P1'
_symmetry_Int_Tables_number	1
_symmetry_cell_setting	triclinic
loop_
_symmetry_equiv_pos_as_xyz
  x,y,z
_cell_length_a	12.759395
_cell_length_b	12.759394
_cell_length_c	12.759387
_cell_angle_alpha	90.029697
_cell_angle_beta	90.019431
_cell_angle_gamma	90.014487
loop_
_atom_site_label
_atom_site_type_symbol
_atom_site_fract_x
_atom_site_fract_y
_atom_site_fract_z
Zn1	Zn	1.606269	-0.418215	0.593983
Zn2	Zn	1.606160	-0.593932	0.418307
Zn3	Zn	1.430567	-0.418268	0.418323
Zn4	Zn	1.430560	-0.593853	0.593949
O5	O	1.518389	-0.506067	0.506140
O6	O	1.753276	-0.441536	0.570686
O7	O	1.582825	-0.570685	0.271288
O8	O	1.453923	-0.271240	0.441646
O9	O	1.753195	-0.570635	0.441618
O10	O	1.583011	-0.271201	0.570702
O11	O	1.453817	-0.441625	0.271300
O12	O	1.283545	-0.441548	0.441613
O13	O	1.453911	-0.570499	0.740975
O14	O	1.283540	-0.570549	0.570645
O15	O	1.583003	-0.441459	0.741000
O16	O	1.582817	-0.740943	0.441585
O17	O	1.453805	-0.740884	0.570629
C18	C	1.518327	-0.779035	0.506124
C19	C	1.518396	-0.895811	0.506153
C20	C	1.245422	-0.506046	0.506128
C21	C	1.128645	-0.506063	0.506147
C22	C	1.652960	-1.115242	0.371924
C23	C	1.720156	-1.060374	0.304780
C24	C	1.720101	-0.950653	0.304759
C25	C	1.652842	-0.895797	0.371887
C26	C	1.585646	-0.950665	0.439030
C27	C	1.585710	-1.060389	0.439046
C28	C	1.451201	-0.950679	0.573296
C29	C	1.451259	-1.060401	0.573324
C30	C	1.383942	-0.895823	0.640424
C31	C	1.316750	-0.950691	0.707574
C32	C	1.316808	-1.060419	0.707593
C33	C	1.384064	-1.115269	0.640467
C34	C	1.128709	-0.371849	0.640763
C35	C	1.073880	-0.304756	0.708080
C36	C	0.964159	-0.304774	0.708093
C37	C	0.909263	-0.371892	0.640780
C38	C	0.964092	-0.438986	0.573463
C39	C	1.073816	-0.438962	0.573460
C40	C	0.964028	-0.573192	0.438843
C41	C	1.073749	-0.573180	0.438834
C42	C	0.909132	-0.640309	0.371530
C43	C	0.963961	-0.707410	0.304218
C44	C	1.073689	-0.707389	0.304208
C45	C	1.128578	-0.640274	0.371517
C46	C	1.792422	-0.506089	0.506154
C47	C	1.909199	-0.506098	0.506160
C48	C	1.518468	-0.505964	0.780174
C49	C	1.518502	-0.505920	0.896951
C50	C	1.518480	-0.232034	0.506180
C51	C	1.518519	-0.115257	0.506196
C52	C	1.518370	-0.506094	0.233173
C53	C	1.518540	-0.505842	0.116397
C54	C	1.652936	-0.371560	0.896996
C55	C	1.720167	-0.304364	0.951880
C56	C	1.720193	-0.304326	1.061602
C57	C	1.652977	-0.371488	1.116442
C58	C	1.585746	-0.438684	1.061559
C59	C	1.585730	-0.438717	0.951835
C60	C	1.451309	-0.573038	1.061513
C61	C	1.451287	-0.573083	0.951791
C62	C	1.384093	-0.640200	1.116354
C63	C	1.316866	-0.707403	1.061470
C64	C	1.316844	-0.707439	0.951742
C65	C	1.384055	-0.640279	0.896908
H66	H	1.653021	-1.204584	0.371944
C67	C	1.652777	-0.775106	0.371858
H68	H	1.702430	-0.750286	0.322258
H69	H	1.584973	-0.750352	0.353633
H70	H	1.670908	-0.750223	0.439669
C71	C	1.384118	-0.640165	1.237044
H72	H	1.334456	-0.689782	1.261842
H73	H	1.451913	-0.658339	1.261870
H74	H	1.365980	-0.572352	1.261879
H75	H	1.262090	-1.105086	0.762270
H76	H	1.652995	-0.371442	1.205784
H77	H	1.261987	-0.906020	0.762219
H78	H	0.919517	-0.250135	0.762902
C79	C	1.242941	-0.781273	1.121794
H80	H	1.252587	-0.771627	1.195000
H81	H	1.172353	-0.765899	1.103803
H82	H	1.258296	-0.851877	1.103808
C83	C	1.794095	-0.230484	0.891560
H84	H	1.834130	-0.190452	0.939962
H85	H	1.839847	-0.270689	0.848751
H86	H	1.753905	-0.184711	0.848765
C87	C	1.384130	-1.235959	0.640484
H88	H	1.433804	-1.260767	0.590884
H89	H	1.402274	-1.260726	0.708300
H90	H	1.316351	-1.260843	0.622251
H91	H	1.217919	-0.640245	0.371511
C92	C	1.249400	-0.371837	0.640763
H93	H	1.274240	-0.322256	0.690488
H94	H	1.274217	-0.439657	0.658805
H95	H	1.274200	-0.353570	0.572994
H96	H	1.774813	-0.905979	0.250082
C97	C	1.383891	-0.775133	0.640420
H98	H	1.334211	-0.750323	0.690012
H99	H	1.451670	-0.750260	0.658647
H100	H	1.365743	-0.750355	0.572603
H101	H	1.118588	-0.250108	0.762883
H102	H	1.774932	-0.249602	1.106288
C103	C	0.788573	-0.371906	0.640789
H104	H	0.763781	-0.322337	0.690522
H105	H	0.763725	-0.353660	0.573025
H106	H	0.763753	-0.439734	0.658848
C107	C	1.242907	-0.781375	0.891378
H108	H	1.202894	-0.821374	0.939757
H109	H	1.197134	-0.741212	0.848563
H110	H	1.283091	-0.827176	0.848587
C111	C	1.794141	-1.120717	0.230951
H112	H	1.784562	-1.193922	0.240585
H113	H	1.778798	-1.102798	0.160343
H114	H	1.864716	-1.102666	0.246396
C115	C	0.788442	-0.640336	0.371541
H116	H	0.763604	-0.689910	0.321808
H117	H	0.763649	-0.658597	0.439307
H118	H	0.763615	-0.572515	0.353492
C119	C	1.384029	-0.640317	0.776217
H120	H	1.334366	-0.689958	0.751381
H121	H	1.365889	-0.572522	0.751410
H122	H	1.451818	-0.658514	0.751402
C123	C	0.903577	-0.781230	0.230186
H124	H	0.830378	-0.771632	0.239836
H125	H	0.921531	-0.765769	0.159620
H126	H	0.921553	-0.851841	0.245445
C127	C	1.133993	-0.781199	0.230164
H128	H	1.085581	-0.821175	0.190087
H129	H	1.176785	-0.740951	0.184455
H130	H	1.176802	-0.827026	0.270277
H131	H	1.652931	-0.371594	0.807655
