data_functionalizedCrystal
_audit_creation_method	'MofGen! by Chris Wilmer'
_symmetry_space_group_name_H-M	'P1'
_symmetry_Int_Tables_number	1
_symmetry_cell_setting	triclinic
loop_
_symmetry_equiv_pos_as_xyz
  x,y,z
_cell_length_a	16.625548
_cell_length_b	18.050590
_cell_length_c	18.050582
_cell_angle_alpha	89.976663
_cell_angle_beta	89.985107
_cell_angle_gamma	90.019620
loop_
_atom_site_label
_atom_site_type_symbol
_atom_site_fract_x
_atom_site_fract_y
_atom_site_fract_z
Zn1	Zn	1.232657	-0.295685	-0.419908
Zn2	Zn	1.565991	0.037648	-0.086575
Zn3	Zn	1.899324	0.370981	0.246759
Zn4	Zn	1.232583	-0.419869	-0.295716
Zn5	Zn	1.565916	-0.086535	0.037617
Zn6	Zn	1.899250	0.246798	0.370950
Zn7	Zn	1.097832	-0.295699	-0.295732
Zn8	Zn	1.431166	0.037634	0.037601
Zn9	Zn	1.764499	0.370967	0.370934
Zn10	Zn	1.097799	-0.419840	-0.419865
Zn11	Zn	1.431132	-0.086507	-0.086532
Zn12	Zn	1.764465	0.246826	0.246802
O13	O	1.165218	-0.357774	-0.357805
O14	O	1.498551	-0.024440	-0.024472
O15	O	1.831884	0.308893	0.308861
O16	O	1.345480	-0.312165	-0.403445
O17	O	1.678813	0.021169	-0.070112
O18	O	2.012146	0.354502	0.263222
O19	O	1.214691	-0.403415	-0.191794
O20	O	1.548024	-0.070082	0.141540
O21	O	1.881358	0.263252	0.474873
O22	O	1.115762	-0.191773	-0.312229
O23	O	1.449096	0.141560	0.021104
O24	O	1.782429	0.474894	0.354438
O25	O	1.345425	-0.403402	-0.312202
O26	O	1.678759	-0.070068	0.021131
O27	O	2.012092	0.263265	0.354465
O28	O	1.214818	-0.191763	-0.403461
O29	O	1.548151	0.141571	-0.070127
O30	O	1.881484	0.474904	0.263206
O31	O	1.115690	-0.312188	-0.191805
O32	O	1.449024	0.021145	0.141528
O33	O	1.782357	0.354478	0.474861
O34	O	0.984996	-0.312161	-0.312187
O35	O	1.318329	0.021172	0.021146
O36	O	1.651662	0.354506	0.354479
O37	O	1.115705	-0.403353	-0.523795
O38	O	1.449038	-0.070020	-0.190462
O39	O	1.782372	0.263313	0.142871
O40	O	0.984971	-0.403367	-0.403387
O41	O	1.318304	-0.070034	-0.070054
O42	O	1.651637	0.263300	0.263280
O43	O	1.214785	-0.312137	-0.523827
O44	O	1.548118	0.021196	-0.190494
O45	O	1.881452	0.354529	0.142840
O46	O	1.214658	-0.523790	-0.312160
O47	O	1.547992	-0.190456	0.021173
O48	O	1.881325	0.142877	0.354506
O49	O	1.115633	-0.523769	-0.403372
O50	O	1.448966	-0.190435	-0.070038
O51	O	1.782300	0.142898	0.263295
C52	C	0.955727	-0.357763	-0.357785
C53	C	1.289060	-0.024430	-0.024451
C54	C	1.622394	0.308904	0.308882
C55	C	0.866106	-0.357776	-0.357793
C56	C	1.199439	-0.024443	-0.024460
C57	C	1.532773	0.308890	0.308873
C58	C	0.537930	-0.357781	-0.357825
C59	C	0.871264	-0.024448	-0.024492
C60	C	1.204597	0.308886	0.308842
C61	C	0.629239	-0.357778	-0.357814
C62	C	0.962572	-0.024444	-0.024481
C63	C	1.295905	0.308889	0.308853
C64	C	0.702015	-0.357779	-0.357809
C65	C	1.035348	-0.024446	-0.024475
C66	C	1.368682	0.308888	0.308858
C67	C	0.793329	-0.357775	-0.357799
C68	C	1.126663	-0.024442	-0.024465
C69	C	1.459996	0.308892	0.308868
C70	C	1.165156	-0.550726	-0.357776
C71	C	1.498489	-0.217392	-0.024442
C72	C	1.831822	0.115941	0.308891
C73	C	1.165203	-0.633271	-0.357788
C74	C	1.498536	-0.299938	-0.024455
C75	C	1.831870	0.033395	0.308879
C76	C	1.219165	-0.832706	-0.308256
C77	C	1.552498	-0.499373	0.025077
C78	C	1.885832	-0.166040	0.358410
C79	C	1.238855	-0.882045	-0.376037
C80	C	1.572188	-0.548711	-0.042703
C81	C	1.905522	-0.215378	0.290630
C82	C	1.165249	-0.784402	-0.357818
C83	C	1.498582	-0.451068	-0.024484
C84	C	1.831916	-0.117735	0.308849
C85	C	1.145641	-0.882145	-0.290068
C86	C	1.478974	-0.548812	0.043265
C87	C	1.812308	-0.215478	0.376599
C88	C	1.165295	-0.930387	-0.357840
C89	C	1.498628	-0.597054	-0.024507
C90	C	1.831961	-0.263720	0.308826
C91	C	1.184977	-0.832653	-0.425633
C92	C	1.518310	-0.499319	-0.092300
C93	C	1.851643	-0.165986	0.241033
C94	C	1.091728	-0.832749	-0.339619
C95	C	1.425062	-0.499416	-0.006286
C96	C	1.758395	-0.166082	0.327048
C97	C	1.111390	-0.882065	-0.407446
C98	C	1.444724	-0.548732	-0.074113
C99	C	1.778057	-0.215398	0.259221
C100	C	1.165225	-0.700303	-0.357804
C101	C	1.498558	-0.366970	-0.024470
C102	C	1.831891	-0.033637	0.308863
C103	C	1.165319	-1.014483	-0.357862
C104	C	1.498652	-0.681150	-0.024529
C105	C	1.831985	-0.347817	0.308805
C106	C	1.375527	-0.357785	-0.357827
C107	C	1.708860	-0.024451	-0.024493
C108	C	2.042193	0.308882	0.308840
C109	C	1.465148	-0.357789	-0.357836
C110	C	1.798481	-0.024456	-0.024502
C111	C	2.131814	0.308877	0.308831
C112	C	1.165249	-0.357741	-0.551511
C113	C	1.498583	-0.024407	-0.218178
C114	C	1.831916	0.308926	0.115156
C115	C	1.165263	-0.357727	-0.634057
C116	C	1.498596	-0.024393	-0.300724
C117	C	1.831930	0.308940	0.032610
C118	C	1.165302	-0.164068	-0.357851
C119	C	1.498635	0.169265	-0.024518
C120	C	1.831969	0.502599	0.308815
C121	C	1.165338	-0.081522	-0.357871
C122	C	1.498671	0.251811	-0.024538
C123	C	1.832005	0.585145	0.308796
C124	C	1.111424	-0.407262	-0.833490
C125	C	1.444758	-0.073929	-0.500157
C126	C	1.778091	0.259405	-0.166824
C127	C	1.184991	-0.425414	-0.882882
C128	C	1.518324	-0.092081	-0.549548
C129	C	1.851657	0.241252	-0.216215
C130	C	1.165303	-0.357670	-0.785187
C131	C	1.498636	-0.024337	-0.451854
C132	C	1.831969	0.308997	-0.118521
C133	C	1.091777	-0.339497	-0.882878
C134	C	1.425110	-0.006164	-0.549545
C135	C	1.758444	0.327170	-0.216211
C136	C	1.165335	-0.357617	-0.931173
C137	C	1.498668	-0.024283	-0.597839
C138	C	1.832001	0.309050	-0.264506
C139	C	1.238907	-0.375858	-0.833491
C140	C	1.572241	-0.042524	-0.500158
C141	C	1.905574	0.290809	-0.166825
C142	C	1.145644	-0.289909	-0.833483
C143	C	1.478977	0.043425	-0.500150
C144	C	1.812311	0.376758	-0.166817
C145	C	1.219261	-0.308035	-0.882852
C146	C	1.552594	0.025298	-0.549519
C147	C	1.885928	0.358631	-0.216185
C148	C	1.165283	-0.357702	-0.701089
C149	C	1.498616	-0.024369	-0.367756
C150	C	1.831950	0.308964	-0.034422
C151	C	1.165362	-0.357584	-1.015269
C152	C	1.498696	-0.024250	-0.681936
C153	C	1.832029	0.309083	-0.348602
C154	C	1.165233	-0.357753	-0.164853
C155	C	1.498566	-0.024419	0.168480
C156	C	1.831899	0.308914	0.501813
C157	C	1.165376	-0.357558	-0.082308
C158	C	1.498709	-0.024224	0.251025
C159	C	1.832042	0.309109	0.584359
H160	H	1.264776	-0.811033	-0.266387
H161	H	1.598109	-0.477700	0.066946
H162	H	1.931442	-0.144367	0.400279
H163	H	1.029584	-0.324149	-0.904572
H164	H	1.362917	0.009185	-0.571239
H165	H	1.696250	0.342518	-0.237906
H166	H	1.301050	-0.903700	-0.391444
H167	H	1.634383	-0.570367	-0.058110
H168	H	1.967716	-0.237033	0.275223
H169	H	1.065904	-0.449256	-0.811817
H170	H	1.399237	-0.115922	-0.478484
H171	H	1.732571	0.217411	-0.145151
N172	N	1.123568	-0.214059	-0.804707
N173	N	1.456901	0.119275	-0.471374
N174	N	1.790234	0.452608	-0.138041
H175	H	1.067974	-0.200396	-0.822637
H176	H	1.401307	0.132937	-0.489304
H177	H	1.734641	0.466270	-0.155970
H178	H	1.124288	-0.214591	-0.748762
H179	H	1.457621	0.118742	-0.415429
H180	H	1.790955	0.452076	-0.082096
H181	H	1.201518	-0.811005	-0.482987
H182	H	1.534851	-0.477672	-0.149654
H183	H	1.868185	-0.144339	0.183680
H184	H	1.301119	-0.391271	-0.811888
H185	H	1.634452	-0.057938	-0.478555
H186	H	1.967785	0.275396	-0.145222
N187	N	1.279696	-0.252456	-0.911395
N188	N	1.613029	0.080877	-0.578062
N189	N	1.946362	0.414211	-0.244729
H190	H	1.279041	-0.252438	-0.967346
H191	H	1.612374	0.080896	-0.634012
H192	H	1.945708	0.414229	-0.300679
H193	H	1.265298	-0.201470	-0.892580
H194	H	1.598631	0.131863	-0.559247
H195	H	1.931964	0.465197	-0.225914
N196	N	1.009373	-0.804034	-0.319178
N197	N	1.342706	-0.470701	0.014155
N198	N	1.676040	-0.137368	0.347488
H199	H	1.009848	-0.748085	-0.319800
H200	H	1.343181	-0.414752	0.013533
H201	H	1.676514	-0.081419	0.346867
H202	H	0.968545	-0.822822	-0.356093
H203	H	1.301879	-0.489489	-0.022760
H204	H	1.635212	-0.156155	0.310574
N205	N	1.051007	-0.910583	-0.463031
N206	N	1.384340	-0.577250	-0.129697
N207	N	1.717673	-0.243916	0.203636
H208	H	1.065935	-0.892476	-0.514170
H209	H	1.399268	-0.559142	-0.180836
H210	H	1.732602	-0.225809	0.152497
H211	H	1.051034	-0.966531	-0.462377
H212	H	1.384367	-0.633198	-0.129043
H213	H	1.717700	-0.299864	0.204290
N214	N	1.123643	-0.910945	-0.214166
N215	N	1.456976	-0.577612	0.119167
N216	N	1.790309	-0.244279	0.452501
H217	H	1.164393	-0.892990	-0.176765
H218	H	1.497726	-0.559657	0.156569
H219	H	1.831060	-0.226324	0.489902
H220	H	1.068474	-0.892237	-0.200091
H221	H	1.401807	-0.558904	0.133242
H222	H	1.735141	-0.225571	0.466576
N223	N	1.207049	-0.501286	-0.911625
N224	N	1.540382	-0.167953	-0.578292
N225	N	1.873715	0.165380	-0.244958
H226	H	1.166308	-0.538734	-0.893674
H227	H	1.499641	-0.205401	-0.560341
H228	H	1.832974	0.127933	-0.227007
H229	H	1.207424	-0.500514	-0.967571
H230	H	1.540757	-0.167181	-0.634237
H231	H	1.874091	0.166152	-0.300904
