data_functionalizedCrystal
_audit_creation_method	'MofGen! by Chris Wilmer'
_symmetry_space_group_name_H-M	'P1'
_symmetry_Int_Tables_number	1
_symmetry_cell_setting	triclinic
loop_
_symmetry_equiv_pos_as_xyz
  x,y,z
_cell_length_a	17.640280
_cell_length_b	18.050590
_cell_length_c	17.640968
_cell_angle_alpha	101.211534
_cell_angle_beta	114.317439
_cell_angle_gamma	78.792783
loop_
_atom_site_label
_atom_site_type_symbol
_atom_site_fract_x
_atom_site_fract_y
_atom_site_fract_z
Zn1	Zn	-0.234188	1.255744	0.399297
Zn2	Zn	0.099145	1.589077	0.732630
Zn3	Zn	0.432478	1.922410	1.065963
Zn4	Zn	-0.399857	1.255683	0.233658
Zn5	Zn	-0.066524	1.589016	0.566991
Zn6	Zn	0.266810	1.922350	0.900325
Zn7	Zn	-0.262037	1.110675	0.261544
Zn8	Zn	0.071297	1.444008	0.594878
Zn9	Zn	0.404630	1.777342	0.928211
Zn10	Zn	-0.371926	1.152423	0.371470
Zn11	Zn	-0.038593	1.485756	0.704804
Zn12	Zn	0.294740	1.819090	1.038137
O13	O	-0.317002	1.193631	0.316492
O14	O	0.016331	1.526965	0.649826
O15	O	0.349665	1.860298	0.983159
O16	O	-0.256199	1.359662	0.377299
O17	O	0.077134	1.692995	0.710633
O18	O	0.410468	2.026329	1.043966
O19	O	-0.404918	1.218950	0.122032
O20	O	-0.071585	1.552284	0.455366
O21	O	0.261748	1.885617	0.788699
O22	O	-0.143020	1.112473	0.303133
O23	O	0.190313	1.445806	0.636467
O24	O	0.523646	1.779139	0.969800
O25	O	-0.377915	1.359617	0.255605
O26	O	-0.044582	1.692951	0.588939
O27	O	0.288752	2.026284	0.922272
O28	O	-0.122560	1.219054	0.404340
O29	O	0.210773	1.552387	0.737673
O30	O	0.544106	1.885721	1.071006
O31	O	-0.303662	1.112414	0.142520
O32	O	0.029671	1.445747	0.475854
O33	O	0.363004	1.779080	0.809187
O34	O	-0.276579	1.012287	0.276151
O35	O	0.056754	1.345620	0.609485
O36	O	0.390087	1.678953	0.942818
O37	O	-0.330311	1.183626	0.490486
O38	O	0.003022	1.516959	0.823820
O39	O	0.336355	1.850292	1.157153
O40	O	-0.357315	1.042959	0.356914
O41	O	-0.023981	1.376292	0.690247
O42	O	0.309352	1.709625	1.023580
O43	O	-0.229116	1.259535	0.510930
O44	O	0.104218	1.592868	0.844264
O45	O	0.437551	1.926202	1.177597
O46	O	-0.511474	1.259431	0.228623
O47	O	-0.178141	1.592765	0.561957
O48	O	0.155193	1.926098	0.895290
O49	O	-0.490953	1.183567	0.329873
O50	O	-0.157620	1.516900	0.663207
O51	O	0.175713	1.850234	0.996540
C52	C	-0.316939	1.000676	0.316539
C53	C	0.016395	1.334009	0.649873
C54	C	0.349728	1.667343	0.983206
C55	C	-0.316927	0.918135	0.316575
C56	C	0.016406	1.251468	0.649908
C57	C	0.349739	1.584801	0.983242
C58	C	-0.531112	1.226046	0.273221
C59	C	-0.197778	1.559379	0.606554
C60	C	0.135555	1.892712	0.939887
C61	C	-0.622703	1.239985	0.254736
C62	C	-0.289370	1.573318	0.588070
C63	C	0.043963	1.906651	0.921403
C64	C	-0.361015	0.735389	0.360331
C65	C	-0.027682	1.068723	0.693664
C66	C	0.305651	1.402056	1.026997
C67	C	-0.281776	0.677662	0.395785
C68	C	0.051558	1.010995	0.729119
C69	C	0.384891	1.344329	1.062452
C70	C	-0.316981	0.767005	0.316525
C71	C	0.016352	1.100339	0.649859
C72	C	0.349685	1.433672	0.983192
C73	C	-0.396264	0.677657	0.281061
C74	C	-0.062931	1.010990	0.614395
C75	C	0.270403	1.344324	0.947728
C76	C	-0.317040	0.621022	0.316478
C77	C	0.016293	0.954356	0.649811
C78	C	0.349627	1.287689	0.983144
C79	C	-0.237694	0.710365	0.352027
C80	C	0.095639	1.043699	0.685361
C81	C	0.428973	1.377032	1.018694
C82	C	-0.352240	0.710367	0.237258
C83	C	-0.018907	1.043700	0.570591
C84	C	0.314426	1.377034	0.903925
C85	C	-0.272955	0.652650	0.272694
C86	C	0.060379	0.985983	0.606028
C87	C	0.393712	1.319317	0.939361
C88	C	-0.316948	0.851103	0.316555
C89	C	0.016385	1.184436	0.649888
C90	C	0.349718	1.517770	0.983221
C91	C	-0.317065	0.536925	0.316450
C92	C	0.016269	0.870259	0.649783
C93	C	0.349602	1.203592	0.983117
C94	C	-0.870716	1.088087	0.457215
C95	C	-0.537383	1.421420	0.790548
C96	C	-0.204049	1.754754	1.123882
C97	C	-0.956785	1.101183	0.439820
C98	C	-0.623452	1.434516	0.773153
C99	C	-0.290119	1.767849	1.106487
C100	C	-0.978067	1.180256	0.334495
C101	C	-0.644733	1.513589	0.667828
C102	C	-0.311400	1.846922	1.001162
C103	C	-0.891997	1.167170	0.351884
C104	C	-0.558663	1.500503	0.685217
C105	C	-0.225330	1.833836	1.018551
C106	C	-0.838328	1.121084	0.413244
C107	C	-0.504994	1.454418	0.746578
C108	C	-0.171661	1.787751	1.079911
C109	C	-0.859608	1.200167	0.307913
C110	C	-0.526275	1.533500	0.641246
C111	C	-0.192942	1.866833	0.974580
C112	C	-0.773546	1.187079	0.325298
C113	C	-0.440213	1.520412	0.658631
C114	C	-0.106880	1.853745	0.991965
C115	C	-0.719873	1.140993	0.386654
C116	C	-0.386539	1.474327	0.719987
C117	C	-0.053206	1.807660	1.053320
C118	C	-0.752266	1.107996	0.430629
C119	C	-0.418933	1.441329	0.763962
C120	C	-0.085599	1.774663	1.097296
C121	C	-0.913279	1.246248	0.246549
C122	C	-0.579946	1.579581	0.579882
C123	C	-0.246613	1.912914	0.913216
C124	C	-0.880891	1.279245	0.202578
C125	C	-0.547558	1.612578	0.535911
C126	C	-0.214225	1.945911	0.869245
C127	C	-0.794827	1.266161	0.219967
C128	C	-0.461494	1.599494	0.553300
C129	C	-0.128160	1.932828	0.886633
C130	C	-0.741153	1.220076	0.281322
C131	C	-0.407820	1.553409	0.614656
C132	C	-0.074487	1.886743	0.947989
C133	C	-0.762434	1.299159	0.175991
C134	C	-0.429101	1.632492	0.509325
C135	C	-0.095767	1.965825	0.842658
C136	C	-0.676372	1.286070	0.193376
C137	C	-0.343039	1.619404	0.526709
C138	C	-0.009705	1.952737	0.860043
C139	C	-0.655092	1.206988	0.298707
C140	C	-0.321758	1.540321	0.632041
C141	C	0.011575	1.873654	0.965374
C142	C	-0.102053	1.161113	0.359951
C143	C	0.231281	1.494447	0.693284
C144	C	0.564614	1.827780	1.026618
C145	C	-0.010454	1.147256	0.378471
C146	C	0.322879	1.480589	0.711804
C147	C	0.656213	1.813923	1.045137
C148	C	-0.273492	1.226244	0.531447
C149	C	0.059842	1.559577	0.864780
C150	C	0.393175	1.892911	1.198114
C151	C	-0.254950	1.240142	0.623048
C152	C	0.078383	1.573475	0.956381
C153	C	0.411717	1.906808	1.289714
C154	C	-0.317066	1.387340	0.316446
C155	C	0.016267	1.720673	0.649779
C156	C	0.349600	2.054007	0.983112
C157	C	-0.317094	1.469887	0.316426
C158	C	0.016240	1.803221	0.649759
C159	C	0.349573	2.136554	0.983092
C160	C	-0.360284	1.161179	0.102386
C161	C	-0.026950	1.494512	0.435719
C162	C	0.306383	1.827846	0.769053
C163	C	-0.378593	1.147390	0.010833
C164	C	-0.045260	1.480723	0.344166
C165	C	0.288074	1.814057	0.677499
C166	C	-0.457412	1.088269	0.871090
C167	C	-0.124079	1.421603	1.204423
C168	C	0.209255	1.754936	1.537756
C169	C	-0.439979	1.101342	0.957165
C170	C	-0.106645	1.434676	1.290498
C171	C	0.226688	1.768009	1.623831
C172	C	-0.334613	1.180380	0.978441
C173	C	-0.001280	1.513713	1.311774
C174	C	0.332054	1.847047	1.645107
C175	C	-0.352034	1.167310	0.892366
C176	C	-0.018701	1.500644	1.225700
C177	C	0.314632	1.833977	1.559033
C178	C	-0.413435	1.121255	0.838697
C179	C	-0.080102	1.454589	1.172030
C180	C	0.253231	1.787922	1.505364
C181	C	-0.308058	1.200296	0.859974
C182	C	0.025276	1.533630	1.193307
C183	C	0.358609	1.866963	1.526640
C184	C	-0.325481	1.187231	0.773906
C185	C	0.007852	1.520564	1.107239
C186	C	0.341186	1.853898	1.440573
C187	C	-0.386881	1.141180	0.720231
C188	C	-0.053548	1.474513	1.053565
C189	C	0.279786	1.807847	1.386898
C190	C	-0.430859	1.108190	0.752629
C191	C	-0.097525	1.441523	1.085963
C192	C	0.235808	1.774857	1.419296
C193	C	-0.246661	1.246356	0.913644
C194	C	0.086672	1.579689	1.246977
C195	C	0.420006	1.913023	1.580310
C196	C	-0.202685	1.279342	0.881251
C197	C	0.130649	1.612675	1.214584
C198	C	0.463982	1.946009	1.547918
C199	C	-0.220103	1.266272	0.795183
C200	C	0.113230	1.599606	1.128516
C201	C	0.446563	1.932939	1.461850
C202	C	-0.281503	1.220221	0.741508
C203	C	0.051830	1.553554	1.074841
C204	C	0.385163	1.886888	1.408175
C205	C	-0.176126	1.299262	0.762785
C206	C	0.157208	1.632596	1.096118
C207	C	0.490541	1.965929	1.429451
C208	C	-0.193549	1.286197	0.676717
C209	C	0.139784	1.619530	1.010050
C210	C	0.473118	1.952864	1.343384
C211	C	-0.298927	1.207156	0.655440
C212	C	0.034407	1.540489	0.988774
C213	C	0.367740	1.873822	1.322107
H214	H	-0.398161	0.771172	0.397444
H215	H	-0.064828	1.104505	0.730778
H216	H	0.268506	1.437839	1.064111
F217	F	-0.224247	0.606043	0.224261
F218	F	0.109086	0.939377	0.557594
F219	F	0.442420	1.272710	0.890927
H220	H	-0.232479	1.256994	0.983724
H221	H	0.100854	1.590327	1.317058
H222	H	0.434187	1.923661	1.650391
H223	H	-0.611390	1.169467	0.348679
H224	H	-0.278057	1.502800	0.682013
H225	H	0.055276	1.836133	1.015346
H226	H	-0.649797	1.130332	0.400801
H227	H	-0.316464	1.463665	0.734135
H228	H	0.016869	1.796998	1.067468
F229	F	-1.004870	1.260200	0.228070
F230	F	-0.671537	1.593534	0.561404
F231	F	-0.338204	1.926867	0.894737
F232	F	-0.364270	1.158131	0.598318
F233	F	-0.030937	1.491465	0.931651
F234	F	0.302396	1.824798	1.264984
F235	F	-0.150044	0.729389	0.391305
F236	F	0.183289	1.062723	0.724639
F237	F	0.516622	1.396056	1.057972
H238	H	-0.401069	1.130546	0.650149
H239	H	-0.067736	1.463880	0.983483
H240	H	0.265598	1.797213	1.316816
H241	H	-0.463287	0.663014	0.251090
H242	H	-0.129954	0.996347	0.584423
H243	H	0.203379	1.329681	0.917756
H244	H	-0.708565	1.070475	0.480601
H245	H	-0.375231	1.403808	0.813934
H246	H	-0.041898	1.737142	1.147268
F247	F	-0.486788	1.066228	0.991635
F248	F	-0.153455	1.399562	1.324969
F249	F	0.179879	1.732895	1.658302
H250	H	-0.507391	1.050746	0.827392
H251	H	-0.174058	1.384079	1.160726
H252	H	0.159276	1.717412	1.494059
F253	F	-0.269270	1.229396	1.035567
F254	F	0.064063	1.562730	1.368900
F255	F	0.397397	1.896063	1.702234
H256	H	-0.650002	1.312939	0.157569
H257	H	-0.316669	1.646273	0.490903
H258	H	0.016664	1.979606	0.824236
H259	H	-0.251975	0.663018	0.462801
H260	H	0.081358	0.996351	0.796135
H261	H	0.414691	1.329685	1.129468
H262	H	-0.480838	1.070666	0.708932
H263	H	-0.147504	1.404000	1.042266
H264	H	0.185829	1.737333	1.375599
H265	H	-0.924600	1.316765	0.152616
H266	H	-0.591267	1.650098	0.485949
H267	H	-0.257933	1.983432	0.819283
H268	H	-0.126139	1.336766	0.806493
H269	H	0.207194	1.670100	1.139827
H270	H	0.540528	2.003433	1.473160
H271	H	-0.152694	1.316842	0.924959
H272	H	0.180639	1.650176	1.258293
H273	H	0.513973	1.983509	1.591626
H274	H	-1.021775	1.217776	0.284533
H275	H	-0.688442	1.551109	0.617866
H276	H	-0.355109	1.884442	0.951200
H277	H	-0.806145	1.336675	0.126026
H278	H	-0.472811	1.670008	0.459359
H279	H	-0.139478	2.003342	0.792693
F280	F	-0.391206	0.729514	0.149671
F281	F	-0.057873	1.062847	0.483004
F282	F	0.275460	1.396180	0.816337
H283	H	-0.157738	1.313056	0.650343
H284	H	0.175596	1.646390	0.983677
H285	H	0.508929	1.979723	1.317010
H286	H	-0.827015	1.050566	0.507187
H287	H	-0.493681	1.383899	0.840520
H288	H	-0.160348	1.717233	1.173854
H289	H	-0.983149	1.074319	0.475641
H290	H	-0.649816	1.407653	0.808974
H291	H	-0.316482	1.740986	1.142308
