data_functionalizedCrystal
_audit_creation_method	'MofGen! by Chris Wilmer'
_symmetry_space_group_name_H-M	'P1'
_symmetry_Int_Tables_number	1
_symmetry_cell_setting	triclinic
loop_
_symmetry_equiv_pos_as_xyz
  x,y,z
_cell_length_a	23.532407
_cell_length_b	23.532357
_cell_length_c	15.500227
_cell_angle_alpha	92.804145
_cell_angle_beta	87.176055
_cell_angle_gamma	82.838519
loop_
_atom_site_label
_atom_site_type_symbol
_atom_site_fract_x
_atom_site_fract_y
_atom_site_fract_z
O1	O	0.757910	0.066480	-0.071899
O2	O	1.257910	0.566480	0.428101
O3	O	0.592045	0.076482	-0.071914
O4	O	1.092045	0.576482	0.428086
O5	O	0.679994	-0.011452	-0.071889
O6	O	1.179994	0.488548	0.428111
O7	O	0.669962	0.154414	-0.071925
O8	O	1.169962	0.654414	0.428075
O9	O	0.674657	-0.006137	0.071999
O10	O	1.174657	0.493863	0.571999
O11	O	0.586709	0.081798	0.071973
O12	O	1.086709	0.581798	0.571973
O13	O	0.752573	0.071795	0.071988
O14	O	1.252573	0.571795	0.571988
Cu15	Cu	0.669154	0.077282	0.085118
Cu16	Cu	1.169154	0.577282	0.585118
Cu17	Cu	0.675465	0.070996	-0.085045
Cu18	Cu	1.175465	0.570996	0.414955
O19	O	0.664625	0.159729	0.071962
O20	O	1.164625	0.659729	0.571962
C21	C	0.568161	0.078885	0.000027
C22	C	1.068161	0.578885	0.500027
C23	C	0.504944	0.078119	0.000023
C24	C	1.004944	0.578119	0.500023
C25	C	0.238786	0.022924	0.000058
C26	C	0.738786	0.522924	0.500058
C27	C	0.298186	0.023635	0.000058
C28	C	0.798186	0.523635	0.500058
O29	O	0.334937	-0.020150	0.000097
O30	O	0.834937	0.479850	0.500097
N31	N	0.320803	0.075912	0.000040
N32	N	0.820803	0.575912	0.500040
C33	C	0.284017	0.127481	0.000032
C34	C	0.784017	0.627481	0.500032
O35	O	0.308709	0.172012	0.000018
O36	O	0.808709	0.672012	0.500018
C37	C	0.224617	0.126769	0.000039
C38	C	0.724617	0.626769	0.500039
C39	C	0.202004	0.074489	0.000047
C40	C	0.702004	0.574489	0.500047
C41	C	0.216171	-0.029353	0.000068
C42	C	0.716171	0.470647	0.500068
C43	C	0.156775	-0.030064	0.000067
C44	C	0.656775	0.469936	0.500067
C45	C	0.119994	0.021501	0.000056
C46	C	0.619994	0.521501	0.500056
C47	C	0.142608	0.073778	0.000046
C48	C	0.642608	0.573778	0.500046
C49	C	0.187832	0.178338	0.000037
C50	C	0.687832	0.678338	0.500037
C51	C	0.128429	0.177622	0.000044
C52	C	0.628429	0.677622	0.500044
C53	C	0.105816	0.125341	0.000053
C54	C	0.605816	0.625341	0.500053
C55	C	0.046430	0.124631	0.000034
C56	C	0.546430	0.624631	0.500034
N57	N	0.023813	0.072354	0.000052
N58	N	0.523813	0.572354	0.500052
C59	C	0.060594	0.020789	0.000062
C60	C	0.560594	0.520789	0.500062
C61	C	0.408759	0.128972	0.000020
C62	C	0.908759	0.628972	0.500020
C63	C	0.468158	0.129684	0.000007
C64	C	0.968158	0.629684	0.500007
C65	C	0.482323	0.025838	0.000034
C66	C	0.982323	0.525838	0.500034
C67	C	0.422923	0.025126	0.000041
C68	C	0.922923	0.525126	0.500041
C69	C	0.386142	0.076695	0.000037
C70	C	0.886142	0.576695	0.500037
C71	C	-0.064142	0.019300	0.000059
C72	C	0.435858	0.519300	0.500059
C73	C	-0.123544	0.018593	0.000054
C74	C	0.376456	0.518593	0.500054
C75	C	-0.137704	0.122439	0.000032
C76	C	0.362296	0.622439	0.500032
C77	C	-0.078307	0.123146	0.000032
C78	C	0.421693	0.623146	0.500032
C79	C	-0.041527	0.071572	0.000048
C80	C	0.458473	0.571572	0.500048
O81	O	0.009644	0.168394	-0.000002
O82	O	0.509644	0.668394	0.499998
O83	O	0.035893	-0.023734	0.000088
O84	O	0.535893	0.476266	0.500088
C85	C	0.677074	-0.030011	0.000058
C86	C	1.177074	0.469989	0.500058
C87	C	0.676319	-0.093229	0.000066
C88	C	1.176319	0.406771	0.500066
C89	C	0.674493	-0.488140	-0.078414
C90	C	1.174493	0.011860	0.421586
C91	C	0.673776	-0.547539	-0.078419
C92	C	1.173776	-0.047539	0.421581
O93	O	0.675860	-0.580720	-0.145123
O94	O	1.175860	-0.080720	0.354877
N95	N	0.670512	-0.574353	0.000012
N96	N	1.170512	-0.074353	0.500012
C97	C	0.667958	-0.541763	0.078454
C98	C	1.167958	-0.041763	0.578454
O99	O	0.665115	-0.570025	0.145166
O100	O	1.165115	-0.070025	0.645166
C101	C	0.668671	-0.482364	0.078458
C102	C	1.168671	0.017636	0.578458
C103	C	0.671942	-0.455554	0.000022
C104	C	1.171942	0.044446	0.500022
C105	C	0.677763	-0.461329	-0.156845
C106	C	1.177763	0.038671	0.343155
C107	C	0.678481	-0.401934	-0.156839
C108	C	1.178481	0.098066	0.343161
C109	C	0.675930	-0.369349	-0.078404
C110	C	1.175930	0.130651	0.421596
C111	C	0.672660	-0.396159	0.000027
C112	C	1.172660	0.103841	0.500027
C113	C	0.666113	-0.449775	0.156899
C114	C	1.166113	0.050225	0.656899
C115	C	0.666826	-0.390372	0.156897
C116	C	1.166826	0.109628	0.656897
C117	C	0.670097	-0.363562	0.078460
C118	C	1.170097	0.136438	0.578460
C119	C	0.670826	-0.304178	0.078468
C120	C	1.170826	0.195822	0.578468
N121	N	0.674091	-0.277364	0.000036
N122	N	1.174091	0.222636	0.500036
C123	C	0.676643	-0.309950	-0.078400
C124	C	1.176643	0.190050	0.421600
C125	C	0.666460	-0.666505	0.078440
C126	C	1.166460	-0.166505	0.578440
C127	C	0.665751	-0.725904	0.078437
C128	C	1.165751	-0.225904	0.578437
C129	C	0.671568	-0.731676	-0.078437
C130	C	1.171568	-0.231676	0.421563
C131	C	0.672281	-0.672276	-0.078433
C132	C	1.172281	-0.172276	0.421567
C133	C	0.669725	-0.639691	0.000008
C134	C	1.169725	-0.139691	0.500008
C135	C	0.678151	-0.185215	-0.078382
C136	C	1.178151	0.314785	0.421618
C137	C	0.678871	-0.125814	-0.078370
C138	C	1.178871	0.374186	0.421630
C139	C	0.673051	-0.120047	0.078503
C140	C	1.173051	0.379953	0.578503
C141	C	0.672333	-0.179443	0.078492
C142	C	1.172333	0.320557	0.578492
C143	C	0.674882	-0.212025	0.000042
C144	C	1.174882	0.287975	0.500042
O145	O	0.668742	-0.270961	0.145138
O146	O	1.168742	0.229039	0.645138
O147	O	0.679478	-0.281679	-0.145100
O148	O	1.179478	0.218321	0.354900
C149	C	0.776458	0.069392	0.000044
C150	C	1.276458	0.569392	0.500044
C151	C	0.839675	0.070158	0.000043
C152	C	1.339675	0.570158	0.500043
C153	C	0.667545	0.178288	0.000014
C154	C	1.167545	0.678288	0.500014
C155	C	0.668300	0.241506	0.000000
C156	C	1.168300	0.741506	0.500000
N157	N	0.664719	0.081702	0.204802
N158	N	1.164719	0.581702	0.704802
N159	N	0.679904	0.066570	-0.204728
N160	N	1.179904	0.566570	0.295272
C161	C	0.701998	0.044455	0.250090
C162	C	1.201998	0.544455	0.750090
C163	C	0.698649	0.047804	0.340661
C164	C	1.198649	0.547804	0.840661
C165	C	0.658023	0.088403	0.385944
C166	C	1.158023	0.588403	0.885944
C167	C	0.620740	0.125652	0.340650
C168	C	1.120740	0.625652	0.840650
C169	C	0.624086	0.122300	0.250080
C170	C	1.124086	0.622300	0.750080
C171	C	0.645968	0.100468	0.659407
C172	C	1.145968	0.600468	1.159407
C173	C	0.642625	0.103818	0.749984
C174	C	1.142625	0.603818	1.249984
C175	C	0.720534	0.025969	0.749989
C176	C	1.220534	0.525969	1.249989
C177	C	0.723879	0.022623	0.659417
C178	C	1.223879	0.522623	1.159417
C179	C	0.686594	0.059870	0.614131
C180	C	1.186594	0.559870	1.114131
C181	C	0.654600	0.091828	0.478523
C182	C	1.154600	0.591828	0.978523
C183	C	0.690015	0.056442	0.521554
C184	C	1.190015	0.556442	1.021554
H185	H	0.512281	-0.016149	0.000043
H186	H	1.012281	0.483851	0.500043
C187	C	0.597930	0.148480	0.799793
C188	C	1.097930	0.648480	1.299793
N189	N	0.564267	0.182118	0.837309
N190	N	1.064267	0.682118	1.337309
H191	H	-0.034202	-0.022697	0.000072
H192	H	0.465798	0.477303	0.500072
H193	H	0.663096	-0.747728	0.142308
H194	H	1.163096	-0.247728	0.642308
C195	C	0.674369	-0.767530	-0.164719
C196	C	1.174369	-0.267530	0.335281
N197	N	0.676478	-0.794537	-0.229702
N198	N	1.176478	-0.294537	0.270298
H199	H	0.664380	-0.639978	0.142320
H200	H	1.164380	-0.139978	0.642320
H201	H	0.615609	0.130797	0.622543
H202	H	1.115609	0.630797	1.122543
H203	H	-0.141952	-0.023982	0.000059
H204	H	0.358048	0.476018	0.500059
H205	H	0.663451	-0.471593	0.220771
H206	H	1.163451	0.028407	0.720771
H207	H	0.587658	0.158707	0.377524
H208	H	1.087658	0.658707	0.877524
C209	C	0.664016	-0.354532	0.243191
C210	C	1.164016	0.145468	0.743191
N211	N	0.661901	-0.327539	0.308187
N212	N	1.161901	0.172461	0.808187
C213	C	0.131908	-0.087576	0.000097
C214	C	0.631908	0.412424	0.500097
N215	N	0.113182	-0.130898	0.000128
N216	N	0.613182	0.369102	0.500128
H217	H	0.593729	0.152630	0.213208
H218	H	1.093729	0.652630	0.713208
C219	C	0.761541	-0.015005	0.799811
C220	C	1.261541	0.484995	1.299811
N221	N	0.792426	-0.045870	0.837337
N222	N	1.292426	0.454130	1.337337
C223	C	0.734697	0.011779	0.471740
C224	C	1.234697	0.511779	0.971740
N225	N	0.768352	-0.021861	0.434213
N226	N	1.268352	0.478139	0.934213
C227	C	0.668741	-0.208936	0.164776
C228	C	1.168741	0.291064	0.664776
N229	N	0.666030	-0.231144	0.229766
N230	N	1.166030	0.268856	0.729766
C231	C	0.256623	-0.086084	0.000076
C232	C	0.756623	0.413916	0.500076
N233	N	0.287088	-0.128818	0.000075
N234	N	0.787088	0.371182	0.500075
H235	H	0.404516	-0.017445	0.000049
H236	H	0.904516	0.482555	0.500049
C237	C	0.493026	0.187197	-0.000009
C238	C	0.993026	0.687197	0.499991
N239	N	0.511754	0.230518	-0.000015
N240	N	1.011754	0.730518	0.499985
H241	H	0.621523	0.124885	0.515400
H242	H	1.121523	0.624885	1.015400
C243	C	0.368304	0.185706	0.000007
C244	C	0.868304	0.685706	0.500007
N245	N	0.337837	0.228438	-0.000002
N246	N	0.837837	0.728438	0.499998
H247	H	0.206233	0.220911	0.000026
H248	H	0.706233	0.720911	0.500026
C249	C	-0.053431	0.180656	0.000013
C250	C	0.446569	0.680656	0.500013
N251	N	-0.034699	0.223975	0.000006
N252	N	0.465301	0.723975	0.500006
C253	C	0.087973	0.234354	0.000037
C254	C	0.587973	0.734354	0.500037
N255	N	0.057502	0.277084	0.000029
N256	N	0.557502	0.777084	0.500029
C257	C	-0.178175	0.179158	0.000025
C258	C	0.321825	0.679158	0.500025
N259	N	-0.208660	0.221879	0.000029
N260	N	0.291340	0.721879	0.500029
C261	C	0.670238	-0.084192	0.164779
C262	C	1.170238	0.415808	0.664779
N263	N	0.668114	-0.057183	0.229762
N264	N	1.168114	0.442817	0.729762
C265	C	0.680964	-0.221048	-0.164681
C266	C	1.180964	0.278952	0.335319
N267	N	0.683089	-0.248038	-0.229682
N268	N	1.183089	0.251962	0.270318
H269	H	0.681536	-0.103989	-0.142246
H270	H	1.181536	0.396011	0.357754
H271	H	0.681142	-0.380111	-0.220711
H272	H	1.181142	0.119889	0.279289
H273	H	0.674944	-0.650452	-0.142304
H274	H	1.174944	-0.150452	0.357696
H275	H	0.735082	0.011397	0.213226
H276	H	1.235082	0.511397	0.713226
C277	C	0.680595	-0.497168	-0.243138
C278	C	1.180595	0.002832	0.256862
N279	N	0.682741	-0.524159	-0.308140
N280	N	1.182741	-0.024159	0.191860
H281	H	0.729005	0.017474	0.377534
H282	H	1.229005	0.517474	0.877534
C283	C	0.768568	-0.022042	0.609613
C284	C	1.268568	0.477958	1.109613
N285	N	0.802229	-0.055684	0.572100
N286	N	1.302229	0.444316	1.072100
