data_functionalizedCrystal
_audit_creation_method	'MofGen! by Chris Wilmer'
_symmetry_space_group_name_H-M	'P1'
_symmetry_Int_Tables_number	1
_symmetry_cell_setting	triclinic
loop_
_symmetry_equiv_pos_as_xyz
  x,y,z
_cell_length_a	11.792254
_cell_length_b	14.044190
_cell_length_c	10.868271
_cell_angle_alpha	89.990065
_cell_angle_beta	89.995741
_cell_angle_gamma	88.695187
loop_
_atom_site_label
_atom_site_type_symbol
_atom_site_fract_x
_atom_site_fract_y
_atom_site_fract_z
O1	O	1.519112	0.130045	-0.102336
O2	O	2.019112	0.630045	0.397664
O3	O	1.190030	0.143429	-0.102341
O4	O	1.690030	0.643429	0.397659
O5	O	1.349627	-0.001274	-0.102314
O6	O	1.849627	0.498726	0.397686
O7	O	1.359514	0.274747	-0.102363
O8	O	1.859514	0.774747	0.397637
O9	O	1.349612	-0.001279	0.102330
O10	O	1.849612	0.498721	0.602330
O11	O	1.190015	0.143423	0.102304
O12	O	1.690015	0.643423	0.602304
O13	O	1.519097	0.130039	0.102308
O14	O	2.019097	0.630039	0.602308
Zn15	Zn	1.354553	0.136730	0.134798
Zn16	Zn	1.854553	0.636730	0.634798
Zn17	Zn	1.354573	0.136738	-0.134830
Zn18	Zn	1.854573	0.636738	0.365170
O19	O	1.359500	0.274741	0.102282
O20	O	1.859500	0.774741	0.602282
C21	C	1.147652	0.142583	-0.000018
C22	C	1.647652	0.642583	0.499982
C23	C	1.021402	0.140059	-0.000019
C24	C	1.521402	0.640059	0.499981
C25	C	0.918873	0.138009	-0.000024
C26	C	1.418873	0.638009	0.499976
C27	C	0.790246	0.135445	-0.000024
C28	C	1.290246	0.635445	0.499976
C29	C	1.345294	-0.036613	0.000012
C30	C	1.845294	0.463387	0.500012
C31	C	1.332392	-0.141906	0.000022
C32	C	1.832392	0.358094	0.500022
C33	C	1.400309	-0.391841	-0.000025
C34	C	1.900309	0.108159	0.499975
C35	C	1.308822	-0.334686	-0.000018
C36	C	1.808822	0.165314	0.499982
C37	C	1.321940	-0.227413	0.000004
C38	C	1.821940	0.272587	0.500004
C39	C	1.387194	-0.499123	-0.000047
C40	C	1.887194	0.000877	0.499953
C41	C	1.561474	0.130885	-0.000016
C42	C	2.061474	0.630885	0.499984
C43	C	1.687724	0.133409	-0.000024
C44	C	2.187724	0.633409	0.499976
C45	C	1.363832	0.310081	-0.000046
C46	C	1.863832	0.810081	0.499954
C47	C	1.376735	0.415374	-0.000065
C48	C	1.876735	0.915374	0.499935
N49	N	1.354548	0.136725	0.318812
N50	N	1.854548	0.636725	0.818812
N51	N	1.354586	0.136736	-0.318844
N52	N	1.854586	0.636736	0.181156
C53	C	1.354567	0.136736	0.569818
C54	C	1.854567	0.636736	1.069818
C55	C	1.354553	0.136732	0.430141
C56	C	1.854553	0.636732	0.930141
H57	H	1.220647	-0.366317	-0.000026
H58	H	1.720647	0.133683	0.499974
H59	H	1.488478	-0.360211	-0.000011
H60	H	1.988478	0.139789	0.499989
