data_functionalizedCrystal
_audit_creation_method	'MofGen! by Chris Wilmer'
_symmetry_space_group_name_H-M	'P1'
_symmetry_Int_Tables_number	1
_symmetry_cell_setting	triclinic
loop_
_symmetry_equiv_pos_as_xyz
  x,y,z
_cell_length_a	10.540539
_cell_length_b	14.971486
_cell_length_c	13.448316
_cell_angle_alpha	89.993189
_cell_angle_beta	89.995318
_cell_angle_gamma	84.069810
loop_
_atom_site_label
_atom_site_type_symbol
_atom_site_fract_x
_atom_site_fract_y
_atom_site_fract_z
O1	O	1.684461	0.126055	-0.082646
O2	O	1.314913	0.137932	-0.082658
O3	O	1.509592	0.001850	-0.082644
O4	O	1.489782	0.262138	-0.082659
O5	O	1.509567	0.001841	0.082739
O6	O	1.314888	0.137924	0.082726
O7	O	1.684436	0.126047	0.082738
Cu8	Cu	1.499660	0.131984	0.097833
Cu9	Cu	1.499689	0.131995	-0.097753
O10	O	1.489757	0.262129	0.082725
C11	C	1.267608	0.137037	0.000032
C12	C	1.126690	0.134372	0.000028
C13	C	1.508693	-0.031484	0.000047
C14	C	1.506039	-0.130797	0.000046
C15	C	1.620407	-0.187377	0.000051
C16	C	1.617905	-0.280691	0.000041
C17	C	1.501033	-0.317422	0.000033
C18	C	1.386656	-0.260834	0.000026
C19	C	1.389159	-0.167522	0.000029
C20	C	1.381446	-0.455325	0.000022
C21	C	1.378942	-0.548644	0.000021
C22	C	1.610192	-0.568495	0.000034
C23	C	1.612695	-0.475183	0.000037
C24	C	1.498317	-0.418601	0.000031
C25	C	0.944422	0.032264	0.000420
C26	C	1.091009	0.034965	0.000037
C27	C	1.064488	0.182216	-0.094413
C28	C	0.917982	0.178824	-0.094482
C29	C	0.917443	0.180836	0.093590
C30	C	1.064415	0.181752	0.094828
C31	C	1.731741	0.126942	0.000046
C32	C	1.872659	0.129607	0.000044
C33	C	1.490656	0.295463	0.000031
C34	C	1.493310	0.394775	0.000025
N35	N	1.499649	0.131977	0.235397
N36	N	1.499710	0.131995	-0.235317
C37	C	1.585879	0.071745	0.287444
C38	C	1.585887	0.071744	0.391547
C39	C	1.499670	0.131980	0.443602
C40	C	1.413430	0.192215	0.391548
C41	C	1.413417	0.192211	0.287447
C42	C	1.413465	0.192222	0.608528
C43	C	1.413480	0.192227	0.712637
C44	C	1.585936	0.071754	0.712628
C45	C	1.585923	0.071750	0.608527
C46	C	1.499684	0.131987	0.556480
H47	H	1.715578	-0.157479	0.000063
F48	F	0.907622	-0.019072	0.088948
H49	H	1.086013	0.255219	-0.097931
H50	H	1.105763	0.146800	0.164696
H51	H	1.288307	-0.409258	0.000015
H52	H	0.869203	0.250316	-0.098772
H53	H	1.711035	-0.326756	0.000047
F54	F	1.677652	0.007635	0.232053
H55	H	1.656102	0.022698	0.433923
F56	F	0.854651	0.274685	0.094420
H57	H	1.656133	0.022705	0.566144
H58	H	1.087818	0.254226	0.100526
H59	H	0.890184	0.143470	-0.165074
F60	F	1.677717	0.007648	0.768024
F61	F	1.737083	-0.436093	0.000043
F62	F	1.321713	0.256339	0.768030
H63	H	1.343236	0.241270	0.566155
F64	F	1.262271	-0.299928	0.000006
H65	H	1.343224	0.241258	0.433937
H66	H	1.343198	0.241257	0.245072
F67	F	1.120657	0.138786	-0.186278
F68	F	1.731922	-0.628714	0.000036
F69	F	0.876680	0.138780	0.187159
F70	F	1.254554	-0.587733	0.000014
H71	H	1.296028	-0.121454	0.000025
H72	H	0.914668	-0.006838	-0.066928
F73	F	1.147258	-0.014241	0.088524
H74	H	1.133195	-0.002938	-0.067776
