data_functionalizedCrystal
_audit_creation_method	'MofGen! by Chris Wilmer'
_symmetry_space_group_name_H-M	'P1'
_symmetry_Int_Tables_number	1
_symmetry_cell_setting	triclinic
loop_
_symmetry_equiv_pos_as_xyz
  x,y,z
_cell_length_a	10.967926
_cell_length_b	14.971506
_cell_length_c	14.048226
_cell_angle_alpha	89.993237
_cell_angle_beta	102.133279
_cell_angle_gamma	95.821639
loop_
_atom_site_label
_atom_site_type_symbol
_atom_site_fract_x
_atom_site_fract_y
_atom_site_fract_z
O1	O	-0.162738	1.187812	-0.105859
O2	O	0.337262	1.687812	0.394141
O3	O	-0.182185	0.927519	-0.109049
O4	O	0.317815	1.427519	0.390951
O5	O	0.009178	1.063667	-0.077656
O6	O	0.509178	1.563667	0.422344
O7	O	-0.354101	1.051664	-0.137252
O8	O	0.145899	1.551664	0.362748
O9	O	0.009189	1.063650	0.080667
O10	O	0.509189	1.563650	0.580667
O11	O	-0.182174	0.927503	0.049274
O12	O	0.317826	1.427503	0.549274
O13	O	-0.162727	1.187796	0.052464
O14	O	0.337273	1.687796	0.552464
Zn15	Zn	-0.172448	1.057646	0.076007
Zn16	Zn	0.327552	1.557646	0.576007
Zn17	Zn	-0.172463	1.057668	-0.132591
Zn18	Zn	0.327537	1.557668	0.367409
O19	O	-0.354090	1.051648	0.021072
O20	O	0.145910	1.551648	0.521072
C21	C	-0.181305	0.894182	-0.029744
C22	C	0.318695	1.394182	0.470256
C23	C	-0.178685	0.794871	-0.029314
C24	C	0.321315	1.294871	0.470686
C25	C	-0.281110	0.357140	-0.046127
C26	C	0.218890	0.857140	0.453873
C27	C	-0.283562	0.450454	-0.046533
C28	C	0.216438	0.950454	0.453467
C29	C	-0.171129	0.507068	-0.028084
C30	C	0.328871	1.007068	0.471916
C31	C	-0.056236	0.470365	-0.009237
C32	C	0.443764	0.970365	0.490763
C33	C	-0.053785	0.377053	-0.008838
C34	C	0.446215	0.877053	0.491162
C35	C	-0.061352	0.664856	-0.010069
C36	C	0.438648	1.164856	0.489931
C37	C	-0.063802	0.758174	-0.010466
C38	C	0.436198	1.258174	0.489534
C39	C	-0.291128	0.738256	-0.047763
C40	C	0.208872	1.238256	0.452237
C41	C	-0.288678	0.644944	-0.047364
C42	C	0.211322	1.144944	0.452636
C43	C	-0.173785	0.608248	-0.028516
C44	C	0.326215	1.108248	0.471484
C45	C	-0.400587	1.052531	-0.065717
C46	C	0.099413	1.552531	0.434283
C47	C	-0.539115	1.055147	-0.088443
C48	C	-0.039115	1.555147	0.411557
C49	C	-0.600869	1.056305	-0.016558
C50	C	-0.100869	1.556305	0.483442
C51	C	-0.744046	1.059010	-0.040045
C52	C	-0.244046	1.559010	0.459955
C53	C	0.055675	1.062784	0.009130
C54	C	0.555675	1.562784	0.509130
C55	C	0.194203	1.060167	0.031850
C56	C	0.694203	1.560167	0.531850
C57	C	-0.163606	1.221133	-0.026843
C58	C	0.336394	1.721133	0.473157
C59	C	-0.166226	1.320443	-0.027279
C60	C	0.333774	1.820443	0.472721
N61	N	-0.172438	1.057638	0.218369
N62	N	0.327562	1.557638	0.718369
N63	N	-0.172464	1.057684	-0.274952
N64	N	0.327536	1.557684	0.225048
C65	C	-0.087737	1.117944	0.282082
C66	C	0.412263	1.617944	0.782082
C67	C	-0.087736	1.117950	0.381740
C68	C	0.412264	1.617950	0.881740
C69	C	-0.172443	1.057654	0.417682
C70	C	0.327557	1.557654	0.917682
C71	C	-0.257148	0.997342	0.353961
C72	C	0.242852	1.497342	0.853961
C73	C	-0.257142	0.997332	0.254306
C74	C	0.242858	1.497332	0.754306
C75	C	-0.257157	0.997368	0.561674
C76	C	0.242843	1.497368	1.061674
C77	C	-0.257165	0.997378	0.661335
C78	C	0.242835	1.497378	1.161335
C79	C	-0.087751	1.117985	0.689108
C80	C	0.412249	1.617985	1.189108
C81	C	-0.087745	1.117975	0.589453
C82	C	0.412255	1.617975	1.089453
C83	C	-0.172452	1.057664	0.525739
C84	C	0.327548	1.557664	1.025739
H85	H	0.035309	0.516468	0.005778
H86	H	0.535309	1.016468	0.505778
H87	H	-0.797169	1.060013	-0.118980
H88	H	-0.297169	1.560013	0.381020
H89	H	-0.018766	1.167054	0.433616
H90	H	0.481234	1.667054	0.933616
H91	H	0.039765	0.347177	0.006508
H92	H	0.539765	0.847177	0.506508
Cl93	Cl	-0.363623	0.921512	0.174210
Cl94	Cl	0.136377	1.421512	0.674210
Cl95	Cl	-0.621130	1.056701	-0.210309
Cl96	Cl	-0.121130	1.556701	0.289691
Cl97	Cl	0.018733	1.193805	0.769208
Cl98	Cl	0.518733	1.693805	1.269208
Cl99	Cl	-0.422464	0.285976	-0.069313
Cl100	Cl	0.077536	0.785976	0.430687
H101	H	-0.547743	1.055290	0.062372
H102	H	-0.047743	1.555290	0.562372
H103	H	-0.326130	0.948253	0.509800
H104	H	0.173870	1.448253	1.009800
Cl105	Cl	-0.723792	1.058605	0.153722
Cl106	Cl	-0.223792	1.558605	0.653722
H107	H	-0.018764	1.167047	0.252826
H108	H	0.481236	1.667047	0.752826
Cl109	Cl	-0.435565	0.784388	-0.071448
Cl110	Cl	0.064435	1.284388	0.428552
Cl111	Cl	0.083088	0.618725	0.013634
Cl112	Cl	0.583088	1.118725	0.513634
H113	H	-0.018777	1.167077	0.560189
H114	H	0.481223	1.667077	1.060189
Cl115	Cl	-0.363656	0.921572	0.706511
Cl116	Cl	0.136344	1.421572	1.206511
H117	H	-0.377112	0.480328	-0.061890
H118	H	0.122888	0.980328	0.438110
H119	H	-0.326114	0.948243	0.383231
H120	H	0.173886	1.448243	0.883231
H121	H	0.027752	0.804268	0.004549
H122	H	0.527752	1.304268	0.504549
H123	H	-0.380231	0.598851	-0.062381
H124	H	0.119769	1.098851	0.437619
