data_functionalizedCrystal
_audit_creation_method	'MofGen! by Chris Wilmer'
_symmetry_space_group_name_H-M	'P1'
_symmetry_Int_Tables_number	1
_symmetry_cell_setting	triclinic
loop_
_symmetry_equiv_pos_as_xyz
  x,y,z
_cell_length_a	10.654550
_cell_length_b	10.065875
_cell_length_c	10.967829
_cell_angle_alpha	93.078793
_cell_angle_beta	84.600697
_cell_angle_gamma	98.829657
loop_
_atom_site_label
_atom_site_type_symbol
_atom_site_fract_x
_atom_site_fract_y
_atom_site_fract_z
O1	O	1.691733	0.148995	0.151405
O2	O	1.326864	0.152804	0.167494
O3	O	1.511120	0.109740	-0.015533
O4	O	1.507478	0.192059	0.334432
O5	O	1.475991	-0.109003	0.019509
O6	O	1.291736	-0.065940	0.202536
O7	O	1.656605	-0.069748	0.186447
Zn8	Zn	1.468593	-0.102574	0.200055
Zn9	Zn	1.514876	0.185630	0.153886
O10	O	1.472349	-0.026685	0.369475
C11	C	1.262458	0.043157	0.183833
C12	C	1.122883	0.042335	0.180296
N13	N	1.437015	-0.299267	0.231564
C14	C	1.047451	0.067679	0.288062
C15	C	0.916301	0.066874	0.284736
C16	C	0.936030	0.015382	0.065870
C17	C	1.067175	0.016179	0.069198
C18	C	1.503881	-0.382744	0.164841
C19	C	1.479588	-0.534204	0.189100
C20	C	1.721012	0.039901	0.170108
C21	C	1.860588	0.040732	0.173643
C22	C	1.490636	-0.010169	-0.042824
C23	C	1.481923	-0.041568	-0.176351
N24	N	1.546464	0.382320	0.122368
C25	C	1.496237	0.057751	-0.254028
C26	C	1.487232	0.025302	-0.392034
C27	C	1.492833	0.093227	0.396765
C28	C	1.501548	0.124635	0.530290
H29	H	1.092802	0.088968	0.378526
C30	C	0.833327	0.094757	0.403281
C31	C	0.861442	0.229696	0.475813
C32	C	0.778468	0.257578	0.594364
C33	C	0.667379	0.150521	0.640383
C34	C	0.639258	0.015572	0.567849
C35	C	0.722232	-0.012310	0.449298
H36	H	0.943682	0.308955	0.441748
H37	H	0.799286	0.357477	0.648058
H38	H	0.605957	0.171160	0.728141
H39	H	0.557018	-0.063687	0.601914
H40	H	0.701415	-0.112208	0.395605
H41	H	1.579108	-0.342087	0.089752
C42	C	1.461669	-0.122036	-0.440199
C43	C	1.555369	-0.219411	-0.420053
C44	C	1.529807	-0.366745	-0.468219
C45	C	1.410545	-0.416704	-0.536531
C46	C	1.316838	-0.319327	-0.556680
C47	C	1.342400	-0.171993	-0.508514
H48	H	1.643661	-0.182430	-0.369481
H49	H	1.599176	-0.438830	-0.453303
H50	H	1.391623	-0.525770	-0.572186
H51	H	1.228546	-0.356308	-0.607251
H52	H	1.273030	-0.099908	-0.523430
H53	H	0.890655	-0.005922	-0.024581
H54	H	1.128595	-0.004465	-0.018562
H55	H	1.404347	-0.574858	0.264185
H56	H	1.621695	-0.577028	0.047274
H57	H	1.361779	-0.339928	0.306644
C58	C	1.521798	0.205080	-0.205854
C59	C	1.641059	0.255036	-0.137541
C60	C	1.666621	0.402369	-0.089371
C61	C	1.572922	0.499745	-0.109514
C62	C	1.453653	0.449791	-0.177830
C63	C	1.428091	0.302459	-0.226001
H64	H	1.710428	0.182951	-0.122627
H65	H	1.754913	0.439348	-0.038798
H66	H	1.591844	0.608810	-0.073855
H67	H	1.384284	0.521877	-0.192744
H68	H	1.339799	0.265480	-0.276573
H69	H	1.520455	0.233697	-0.434048
C70	C	1.456362	-0.188898	-0.224521
C71	C	1.337100	-0.238857	-0.292833
C72	C	1.311538	-0.386191	-0.340999
C73	C	1.405238	-0.483566	-0.320853
C74	C	1.524508	-0.433609	-0.252538
C75	C	1.550070	-0.286275	-0.204372
H76	H	1.267731	-0.166772	-0.307749
H77	H	1.223246	-0.423172	-0.391570
H78	H	1.386315	-0.592632	-0.356508
H79	H	1.593877	-0.505694	-0.237622
H80	H	1.638361	-0.249294	-0.153800
