data_functionalizedCrystal
_audit_creation_method	'MofGen! by Chris Wilmer'
_symmetry_space_group_name_H-M	'P1'
_symmetry_Int_Tables_number	1
_symmetry_cell_setting	triclinic
loop_
_symmetry_equiv_pos_as_xyz
  x,y,z
_cell_length_a	16.992695
_cell_length_b	10.654559
_cell_length_c	15.455313
_cell_angle_alpha	87.308787
_cell_angle_beta	87.138508
_cell_angle_gamma	92.421527
loop_
_atom_site_label
_atom_site_type_symbol
_atom_site_fract_x
_atom_site_fract_y
_atom_site_fract_z
O1	O	1.045253	-0.261283	-0.072096
O2	O	1.545253	0.238717	0.427904
O3	O	0.816952	-0.258359	-0.072105
O4	O	1.316952	0.241641	0.427895
O5	O	0.936347	-0.077536	-0.072095
O6	O	1.436347	0.422464	0.427905
O7	O	0.925857	-0.442106	-0.072106
O8	O	1.425857	0.057894	0.427894
O9	O	0.929520	-0.087831	0.072167
O10	O	1.429520	0.412169	0.572167
O11	O	0.810124	-0.268654	0.072156
O12	O	1.310124	0.231346	0.572156
O13	O	1.038425	-0.271577	0.072165
O14	O	1.538425	0.228423	0.572165
Cu15	Cu	0.923651	-0.271056	0.085333
Cu16	Cu	1.423651	0.228944	0.585333
Cu17	Cu	0.931726	-0.258881	-0.085273
Cu18	Cu	1.431726	0.241119	0.414727
O19	O	0.919030	-0.452400	0.072155
O20	O	1.419030	0.047600	0.572155
C21	C	0.784305	-0.259746	0.000024
C22	C	1.284305	0.240254	0.500024
C23	C	0.697200	-0.248527	0.000021
C24	C	1.197200	0.251473	0.500021
C25	C	0.932162	-0.035819	0.000035
C26	C	1.432162	0.464181	0.500035
C27	C	0.929853	0.103823	0.000034
C28	C	1.429853	0.603823	0.500034
C29	C	0.925044	0.163819	0.078670
C30	C	1.425044	0.663819	0.578670
C31	C	0.922882	0.295029	0.078668
C32	C	1.422882	0.795029	0.578668
C33	C	0.930333	0.306236	-0.078614
C34	C	1.430333	0.806236	0.421386
C35	C	0.932501	0.175029	-0.078611
C36	C	1.432501	0.675029	0.421389
C37	C	0.922396	0.092614	0.157315
C38	C	1.422396	0.592614	0.657315
C39	C	0.917587	0.152609	0.235958
C40	C	1.417587	0.652609	0.735958
C41	C	0.915424	0.283819	0.235955
C42	C	1.415424	0.783819	0.735955
C43	C	0.918070	0.355033	0.157310
C44	C	1.418070	0.855033	0.657310
C45	C	1.071072	-0.270190	0.000034
C46	C	1.571072	0.229810	0.500034
C47	C	1.158177	-0.281409	0.000032
C48	C	1.658177	0.218591	0.500032
C49	C	1.207827	-0.173159	0.000032
C50	C	1.707827	0.326841	0.500032
C51	C	1.289671	-0.183708	0.000035
C52	C	1.789671	0.316292	0.500035
C53	C	1.321864	-0.302509	0.000031
C54	C	1.821864	0.197491	0.500031
C55	C	1.272208	-0.410767	0.000033
C56	C	1.772208	0.089233	0.500033
C57	C	1.190366	-0.400217	0.000037
C58	C	1.690366	0.099783	0.500037
C59	C	1.565701	-0.346235	0.000026
C60	C	2.065701	0.153765	0.500026
C61	C	1.647550	-0.356777	0.000020
C62	C	2.147550	0.143223	0.500020
C63	C	1.665007	-0.129717	0.000024
C64	C	2.165007	0.370283	0.500024
C65	C	1.583162	-0.119177	0.000022
C66	C	2.083162	0.380823	0.500022
C67	C	1.533513	-0.227436	0.000029
C68	C	2.033513	0.272564	0.500029
N69	N	1.405522	-0.313294	0.000031
N70	N	1.905522	0.186706	0.500031
N71	N	1.449857	-0.216649	0.000035
N72	N	1.949857	0.283351	0.500035
C73	C	0.923214	0.505882	0.000025
C74	C	1.423214	1.005882	0.500025
C75	C	0.925521	0.366240	0.000028
C76	C	1.425521	0.866240	0.500028
N77	N	0.917978	-0.279618	0.205328
N78	N	1.417978	0.220382	0.705328
N79	N	0.937406	-0.250308	-0.205268
N80	N	1.437406	0.249692	0.294732
C81	C	0.968719	-0.202830	0.250727
C82	C	1.468719	0.297170	0.750727
C83	C	0.964435	-0.209319	0.341534
C84	C	1.464435	0.290681	0.841534
C85	C	0.909414	-0.292602	0.386941
C86	C	1.409414	0.207398	0.886941
C87	C	0.858667	-0.369393	0.341537
C88	C	1.358667	0.130607	0.841537
C89	C	0.862947	-0.362898	0.250731
C90	C	1.362947	0.137102	0.750731
C91	C	0.890939	-0.320604	0.658521
C92	C	1.390939	0.179396	1.158521
C93	C	0.886664	-0.327097	0.749334
C94	C	1.386664	0.172903	1.249334
C95	C	0.992432	-0.167020	0.749325
C96	C	1.492432	0.332980	1.249325
C97	C	0.996710	-0.160537	0.658517
C98	C	1.496710	0.339463	1.158517
C99	C	0.945961	-0.237323	0.613120
C100	C	1.445961	0.262677	1.113120
N101	N	0.905036	-0.299239	0.479761
N102	N	1.405036	0.200761	0.979761
N103	N	0.950336	-0.230679	0.520302
N104	N	1.450336	0.269321	1.020302
H105	H	0.924153	-0.014225	0.157326
H106	H	1.424153	0.485775	0.657326
C107	C	1.172423	-0.042468	0.000038
C108	C	1.672423	0.457532	0.500038
N109	N	1.145759	0.055972	0.000047
N110	N	1.645759	0.555972	0.500047
C111	C	1.547756	0.011512	0.000044
C112	C	2.047756	0.511512	0.500044
N113	N	1.521088	0.109948	0.000065
N114	N	2.021088	0.609948	0.500065
H115	H	0.911515	0.332664	0.299990
H116	H	1.411515	0.832664	0.799990
H117	H	1.005752	-0.146791	0.378497
H118	H	1.505752	0.353209	0.878497
C119	C	1.057234	-0.068912	0.608576
C120	C	1.557234	0.431088	1.108576
N121	N	1.102822	0.000101	0.570960
N122	N	1.602822	0.500101	1.070960
C123	C	1.048246	-0.082550	0.799269
C124	C	1.548246	0.417450	1.299269
N125	N	1.090285	-0.018919	0.836887
N126	N	1.590285	0.481081	1.336887
H127	H	0.916316	0.461873	0.157315
H128	H	1.416316	0.961873	0.657315
C129	C	0.807134	-0.447381	0.200793
C130	C	1.307134	0.052619	0.700793
N131	N	0.765094	-0.511018	0.163181
N132	N	1.265094	-0.011018	0.663181
C133	C	0.937786	0.109029	-0.165115
C134	C	1.437786	0.609029	0.334885
N135	N	0.941769	0.059319	-0.230272
N136	N	1.441769	0.559319	0.269728
C137	C	1.135751	-0.519302	0.000034
C138	C	1.635751	-0.019302	0.500034
N139	N	1.094616	-0.609000	0.000035
N140	N	1.594616	-0.109000	0.500035
H141	H	0.932486	0.364228	-0.142643
H142	H	1.432486	0.864228	0.357357
C143	C	0.914677	0.074271	0.322462
C144	C	1.414677	0.574271	0.822462
N145	N	0.912483	0.015269	0.387619
N146	N	1.412483	0.515269	0.887619
H147	H	1.330093	-0.095559	0.000039
H148	H	1.830093	0.404441	0.500039
C149	C	0.826131	-0.418715	0.799280
C150	C	1.326131	0.081285	1.299280
N151	N	0.780541	-0.487719	0.836899
N152	N	1.280541	0.012281	1.336899
H153	H	1.705440	-0.041579	0.000019
H154	H	2.205440	0.458421	0.500019
C155	C	1.682960	-0.487472	0.000017
C156	C	2.182960	0.012528	0.500017
N157	N	1.709631	-0.585907	0.000013
N158	N	2.209631	-0.085907	0.500013
C159	C	0.835215	-0.405246	0.608596
C160	C	1.335215	0.094754	1.108596
N161	N	0.793278	-0.469064	0.570990
N162	N	1.293278	0.030936	1.070990
H163	H	1.298426	-0.507498	0.000035
H164	H	1.798426	-0.007498	0.500035
H165	H	1.525286	-0.434388	0.000027
H166	H	2.025286	0.065612	0.500027
C167	C	1.029247	-0.111211	0.200787
C168	C	1.529247	0.388789	0.700787
N169	N	1.074836	-0.042196	0.163175
N170	N	1.574836	0.457804	0.663175
C171	C	0.798135	-0.460993	0.391488
C172	C	1.298135	0.039007	0.891488
N173	N	0.752541	-0.529988	0.429110
N174	N	1.252541	-0.029988	0.929110
