data_functionalizedCrystal
_audit_creation_method	'MofGen! by Chris Wilmer'
_symmetry_space_group_name_H-M	'P1'
_symmetry_Int_Tables_number	1
_symmetry_cell_setting	triclinic
loop_
_symmetry_equiv_pos_as_xyz
  x,y,z
_cell_length_a	6.817900
_cell_length_b	10.773890
_cell_length_c	10.943624
_cell_angle_alpha	95.382956
_cell_angle_beta	108.838799
_cell_angle_gamma	96.645716
loop_
_atom_site_label
_atom_site_type_symbol
_atom_site_fract_x
_atom_site_fract_y
_atom_site_fract_z
V1	V	-4.053411	-0.172562	-0.400448
O2	O	-4.076200	0.008326	-0.394990
O3	O	-3.970332	-0.342194	-0.395628
O4	O	-4.032334	-0.169893	-0.576047
O5	O	-4.013768	-0.165168	-0.213321
V6	V	-4.537992	-0.150927	-0.378319
O7	O	-4.312348	-0.220019	-0.448990
O8	O	-4.729252	-0.103470	-0.329777
O9	O	-4.397865	0.018704	-0.383140
O10	O	-4.632601	-0.331815	-0.383778
O11	O	-4.695032	-0.158322	-0.565446
O12	O	-4.335863	-0.153597	-0.202720
C13	C	-3.806012	-0.383547	-0.388774
C14	C	-3.819554	-0.522223	-0.386003
C15	C	-3.885101	-0.163758	-0.618915
C16	C	-3.948922	-0.162698	-0.762454
C17	C	-3.998378	-0.590085	-0.390818
C18	C	-4.012378	-0.733414	-0.387954
C19	C	-3.796320	-0.155561	-0.839689
C20	C	-3.947564	-0.261501	-0.944388
C21	C	-3.911419	-0.054882	-0.913519
C22	C	-4.099341	-0.268737	-0.865275
C23	C	-4.063150	-0.062025	-0.834384
C24	C	-4.214519	-0.167995	-0.939053
C25	C	-4.225525	0.060051	-0.389990
C26	C	-4.191223	0.198726	-0.392769
C27	C	-4.146436	-0.159735	-0.159846
C28	C	-4.061855	-0.160789	-0.016305
H29	H	-3.869635	-0.781421	-0.381719
C30	C	-3.882461	-0.375422	-1.009142
C31	C	-3.649408	-0.390779	-0.970764
C32	C	-3.584289	-0.504695	-1.035510
C33	C	-3.752223	-0.603253	-1.138635
C34	C	-3.985291	-0.587900	-1.177019
C35	C	-4.050410	-0.473984	-1.112272
H36	H	-3.525080	-0.317817	-0.894420
H37	H	-3.411755	-0.516060	-1.007096
H38	H	-3.704018	-0.687581	-1.186565
H39	H	-4.109620	-0.660861	-1.253363
H40	H	-4.222944	-0.462619	-1.140687
H41	H	-4.333973	-0.753271	-0.399017
C42	C	-4.205838	-0.390977	-0.836048
C43	C	-4.352406	-0.384154	-0.754865
C44	C	-4.458892	-0.506393	-0.725635
C45	C	-4.418812	-0.635455	-0.777589
C46	C	-4.272238	-0.642284	-0.858777
C47	C	-4.165751	-0.520044	-0.888006
H48	H	-4.382082	-0.288609	-0.716401
H49	H	-4.567396	-0.501337	-0.665534
H50	H	-4.497640	-0.725944	-0.755951
H51	H	-4.242562	-0.737828	-0.897240
H52	H	-4.057247	-0.525100	-0.948108
C53	C	-4.128145	0.051901	-0.769580
C54	C	-4.040266	0.186977	-0.780823
C55	C	-4.105236	0.300916	-0.716011
C56	C	-4.258084	0.279779	-0.639956
C57	C	-4.345972	0.144697	-0.628710
C58	C	-4.281002	0.030758	-0.693522
H59	H	-3.927110	0.202629	-0.837127
H60	H	-4.040175	0.400913	-0.724337
H61	H	-4.306179	0.364123	-0.591979
H62	H	-4.459128	0.129045	-0.572406
H63	H	-4.346063	-0.069239	-0.685196
H64	H	-3.832579	0.035477	-0.935382
H65	H	-4.141114	-0.542075	-0.397066
H66	H	-3.676824	-0.570235	-0.379769
H67	H	-3.618960	-0.150446	-0.796303
H68	H	-4.391933	-0.173277	-0.982233
