data_functionalizedCrystal
_audit_creation_method	'MofGen! by Chris Wilmer'
_symmetry_space_group_name_H-M	'P1'
_symmetry_Int_Tables_number	1
_symmetry_cell_setting	triclinic
loop_
_symmetry_equiv_pos_as_xyz
  x,y,z
_cell_length_a	14.395555
_cell_length_b	21.606444
_cell_length_c	21.606444
_cell_angle_alpha	59.992989
_cell_angle_beta	90.001685
_cell_angle_gamma	60.002563
loop_
_atom_site_label
_atom_site_type_symbol
_atom_site_fract_x
_atom_site_fract_y
_atom_site_fract_z
Zr1	Zr	0.894923	0.677479	-0.081301
O2	O	0.746597	0.806610	-0.180150
O3	O	0.940392	0.548349	-0.050983
O4	O	0.940397	0.677474	-0.180122
O5	O	0.746588	0.677490	0.050838
O6	O	1.093271	0.677469	-0.180116
O7	O	0.746591	0.677485	-0.051012
O8	O	1.093262	0.446489	0.050889
O9	O	0.746598	0.908470	-0.180167
O10	O	1.073873	0.601459	-0.038067
O11	O	0.959782	0.601465	0.037938
O12	O	0.959789	0.753493	-0.114106
O13	O	0.845698	0.753500	-0.038101
Zr14	Zr	1.138734	0.677479	0.081146
Zr15	Zr	1.138739	0.677472	-0.081292
Zr16	Zr	0.894917	0.677486	0.081138
Zr17	Zr	0.894924	0.839935	-0.081328
Zr18	Zr	1.138732	0.515024	0.081173
O19	O	1.093265	0.806609	0.050829
O20	O	1.093272	0.806599	-0.180138
O21	O	0.746589	0.806620	0.050816
O22	O	1.287060	0.548349	0.179996
O23	O	1.287067	0.548339	-0.050971
O24	O	0.940384	0.548359	0.179983
O25	O	1.287069	0.677469	-0.050993
O26	O	1.093259	0.677485	0.179967
O27	O	0.940385	0.677489	0.179962
O28	O	1.287065	0.677473	0.050857
O29	O	0.940399	0.908464	-0.180161
O30	O	1.093257	0.446494	0.180006
O31	O	1.287059	0.446488	0.180013
O32	O	1.287063	0.446483	0.050896
O33	O	0.746593	0.908475	-0.051050
O34	O	0.940395	0.908470	-0.051044
O35	O	1.073868	0.601465	0.113951
O36	O	1.187959	0.601459	0.037946
O37	O	1.073874	0.753493	-0.038093
O38	O	0.959783	0.753500	0.037913
C39	C	1.016826	0.474273	-0.000043
C40	C	1.016826	0.405306	-0.000032
C41	C	0.932605	0.429041	-0.056161
C42	C	0.932608	0.364252	-0.056176
C43	C	1.016828	0.275728	-0.000059
C44	C	1.101057	0.251993	0.056072
C45	C	1.101058	0.316782	0.056084
C46	C	1.101057	-0.009293	0.056025
C47	C	1.101048	-0.074082	0.056010
C48	C	0.932607	0.038176	-0.056236
C49	C	0.932607	0.102965	-0.056224
C50	C	1.016840	0.079225	-0.000095
C51	C	1.016837	0.149478	-0.000079
C52	C	1.016827	0.205476	-0.000071
C53	C	0.711851	0.677488	-0.000088
C54	C	0.608344	0.677491	-0.000092
C55	C	0.485552	0.760387	-0.041545
C56	C	0.454717	0.718945	-0.071570
C57	C	0.454756	0.718930	0.029927
C58	C	0.578873	0.636049	-0.030158
C59	C	0.578909	0.636046	0.071378
C60	C	0.548147	0.594543	0.041372
C61	C	1.321805	0.677470	-0.000066
C62	C	1.425312	0.677467	-0.000063
C63	C	1.016835	0.677470	-0.203263
C64	C	1.016837	0.677467	-0.272223
C65	C	1.016830	0.880686	-0.000111
C66	C	1.016830	0.949652	-0.000123
C67	C	0.957271	0.756851	-0.735224
C68	C	0.957269	0.756848	-0.670427
C69	C	1.016821	0.677485	-0.598338
C70	C	1.076370	0.598119	-0.591047
C71	C	1.076366	0.598123	-0.655844
C72	C	1.076389	0.598104	-0.329729
C73	C	1.076392	0.598107	-0.264931
C74	C	0.957292	0.756830	-0.344312
C75	C	0.957288	0.756833	-0.409109
C76	C	1.016832	0.677468	-0.401813
C77	C	1.016832	0.677471	-0.472074
C78	C	1.016828	0.677481	-0.528078
C79	C	1.016821	0.677488	0.203109
C80	C	1.016819	0.677491	0.272068
C81	C	1.321804	0.474263	-0.000033
C82	C	1.425310	0.405294	-0.000017
C83	C	1.016820	0.474281	0.203143
C84	C	1.016817	0.405318	0.272114
C85	C	1.321797	0.474272	0.203153
C86	C	1.425300	0.405305	0.272128
C87	C	0.711859	0.880686	-0.203308
C88	C	0.608356	0.949653	-0.272283
C89	C	0.711852	0.880695	-0.000122
C90	C	0.608347	0.949665	-0.000137
C91	C	1.016837	0.880677	-0.203297
C92	C	1.016840	0.949641	-0.272268
C93	C	1.414366	0.372905	-0.039695
C94	C	1.511611	0.308110	-0.039696
C95	C	1.619800	0.275700	-0.000014
C96	C	1.630741	0.308095	0.039665
C97	C	1.533497	0.372894	0.039661
C98	C	1.076367	0.372932	0.344188
C99	C	1.076360	0.308142	0.409000
C100	C	1.016808	0.275736	0.401735
C101	C	0.957251	0.308128	0.329653
C102	C	0.957252	0.372921	0.264843
C103	C	1.533471	0.372914	0.264845
C104	C	1.630733	0.308122	0.329648
C105	C	1.619822	0.275717	0.401733
C106	C	1.511640	0.308115	0.409014
C107	C	1.414380	0.372910	0.344212
C108	C	0.500185	0.982052	-0.265000
C109	C	0.402923	1.046864	-0.329803
C110	C	0.413834	1.079273	-0.401887
C111	C	0.522017	1.046871	-0.409169
C112	C	0.619276	0.982064	-0.344367
C113	C	0.619291	0.982060	0.039534
C114	C	0.522045	1.046873	0.039517
C115	C	0.413857	1.079285	-0.000167
C116	C	0.402915	1.046887	-0.039843
C117	C	0.500159	0.982080	-0.039830
C118	C	1.076402	0.982027	-0.264979
C119	C	1.076427	1.046817	-0.329779
C120	C	1.016882	1.079224	-0.401866
C121	C	0.957318	1.046831	-0.409153
C122	C	0.957300	0.982038	-0.344355
H123	H	0.864023	0.175044	-0.101917
Br124	Br	1.016916	1.167160	-0.489800
H125	H	1.326282	0.399292	-0.072018
H126	H	0.864024	0.057501	-0.101941
H127	H	0.491232	0.955705	-0.072133
H128	H	1.124891	0.955651	-0.206288
Br129	Br	1.496851	0.264128	0.506850
H130	H	1.124930	1.073184	-0.323831
Br131	Br	0.876437	0.264138	0.319807
H132	H	0.491279	0.955669	-0.206311
H133	H	0.632421	0.601043	0.131795
H134	H	1.502680	0.281741	-0.072007
Br135	Br	1.157195	0.264194	0.506815
Br136	Br	0.876430	0.416862	0.167030
Br137	Br	0.365520	0.777333	-0.172288
Br138	Br	1.751830	0.187779	0.489672
H139	H	0.632232	0.601037	-0.055604
H140	H	0.573803	0.524390	0.076431
Br141	Br	1.157218	0.490392	-0.167093
H142	H	0.864012	0.501119	-0.101850
H143	H	1.718841	0.281698	0.071972
Br144	Br	0.766106	0.938090	0.093395
Br145	Br	1.157197	0.490394	-0.319819
Br146	Br	1.157202	0.416893	0.354068
Br147	Br	0.876500	1.090829	-0.506992
Br148	Br	0.876446	0.938100	-0.354260
H149	H	1.698973	0.222936	-0.000016
H150	H	0.530887	1.073266	-0.467868
H151	H	1.542424	0.399256	0.071976
Br152	Br	1.548311	0.416883	0.167024
Br153	Br	1.157182	0.490410	-0.493213
H154	H	0.864027	0.383585	-0.101882
H155	H	0.401250	0.753983	0.055303
Br156	Br	1.157175	0.490416	-0.645946
Br157	Br	0.256078	1.090882	-0.093695
Br158	Br	1.777537	0.264166	0.319748
Br159	Br	0.256119	1.090822	-0.319903
H160	H	1.169634	-0.146166	0.101709
Br161	Br	1.215364	-0.041520	0.132205
Br162	Br	0.536922	1.090826	0.093369
Br163	Br	1.267580	0.416858	0.354110
H164	H	0.908782	0.821477	-0.793919
H165	H	0.908781	0.821471	-0.676371
H166	H	1.169635	0.179911	0.101760
Br167	Br	0.766076	0.938098	-0.354264
Br168	Br	0.281826	1.167226	-0.489827
Br169	Br	0.281892	1.167240	-0.000177
Br170	Br	0.443154	0.877216	-0.100057
Br171	Br	1.215370	0.284568	0.132257
Br172	Br	0.876470	0.864544	-0.506942
H173	H	0.908804	0.821453	-0.350247
H174	H	1.016817	0.222977	0.454514
