data_functionalizedCrystal
_audit_creation_method	'MofGen! by Chris Wilmer'
_symmetry_space_group_name_H-M	'P1'
_symmetry_Int_Tables_number	1
_symmetry_cell_setting	triclinic
loop_
_symmetry_equiv_pos_as_xyz
  x,y,z
_cell_length_a	17.640280
_cell_length_b	19.077142
_cell_length_c	19.076919
_cell_angle_alpha	89.925643
_cell_angle_beta	81.491119
_cell_angle_gamma	103.907983
loop_
_atom_site_label
_atom_site_type_symbol
_atom_site_fract_x
_atom_site_fract_y
_atom_site_fract_z
Zn1	Zn	-0.382654	-1.129878	-0.374529
Zn2	Zn	0.117346	-0.629878	0.125471
Zn3	Zn	-0.509824	-1.158316	-0.235113
Zn4	Zn	-0.009824	-0.658316	0.264887
Zn5	Zn	-0.372057	-1.015113	-0.254144
Zn6	Zn	0.127943	-0.515113	0.245856
Zn7	Zn	-0.509345	-1.036048	-0.347945
Zn8	Zn	-0.009345	-0.536048	0.152055
O9	O	-0.443470	-1.084839	-0.302933
O10	O	0.056530	-0.584839	0.197067
O11	O	-0.404159	-1.232850	-0.359196
O12	O	0.095841	-0.732850	0.140804
O13	O	-0.487315	-1.142460	-0.140036
O14	O	0.012685	-0.642460	0.359964
O15	O	-0.262786	-1.009674	-0.289204
O16	O	0.237214	-0.509674	0.210796
O17	O	-0.497590	-1.253743	-0.256768
O18	O	0.002410	-0.753743	0.243232
O19	O	-0.270572	-1.093991	-0.377650
O20	O	0.229428	-0.593991	0.122350
O21	O	-0.386097	-1.037249	-0.154018
O22	O	0.113903	-0.537249	0.345982
O23	O	-0.385633	-0.918691	-0.263426
O24	O	0.114367	-0.418691	0.236574
O25	O	-0.496774	-1.045355	-0.449073
O26	O	0.003226	-0.545355	0.050927
O27	O	-0.486498	-0.934072	-0.332341
O28	O	0.013502	-0.434072	0.167659
O29	O	-0.403694	-1.114291	-0.468604
O30	O	0.096306	-0.614291	0.031396
O31	O	-0.620437	-1.162760	-0.230991
O32	O	-0.120437	-0.662760	0.269009
O33	O	-0.620085	-1.072931	-0.313887
O34	O	-0.120085	-0.572931	0.186113
C35	C	-0.434864	-0.900660	-0.297064
C36	C	0.065136	-0.400660	0.202936
C37	C	-0.431202	-0.821871	-0.294566
C38	C	0.068798	-0.321871	0.205434
C39	C	-0.482070	-0.792899	-0.329190
C40	C	0.017930	-0.292899	0.170810
C41	C	-0.478619	-0.718866	-0.326848
C42	C	0.021381	-0.218866	0.173152
C43	C	-0.424303	-0.673807	-0.289879
C44	C	0.075697	-0.173807	0.210121
C45	C	-0.373430	-0.702784	-0.255254
C46	C	0.126570	-0.202784	0.244746
C47	C	-0.376878	-0.776814	-0.257601
C48	C	0.123122	-0.276814	0.242399
C49	C	-0.408349	-0.451534	-0.279028
C50	C	0.091651	0.048466	0.220972
C51	C	-0.404906	-0.377499	-0.276682
C52	C	0.095094	0.122501	0.223318
C53	C	-0.510095	-0.393587	-0.348278
C54	C	-0.010095	0.106413	0.151722
C55	C	-0.513541	-0.467619	-0.350617
C56	C	-0.013541	0.032381	0.149383
C57	C	-0.462665	-0.496588	-0.315996
C58	C	0.037335	0.003412	0.184004
N59	N	-0.420776	-0.598134	-0.287483
N60	N	0.079224	-0.098134	0.212517
N61	N	-0.466189	-0.572260	-0.318396
N62	N	0.033811	-0.072260	0.181604
C63	C	-0.648960	-1.123222	-0.267505
C64	C	-0.148960	-0.623222	0.232495
C65	C	-0.736873	-1.139707	-0.252374
C66	C	-0.236873	-0.639707	0.247626
C67	C	-1.025211	-0.959890	-0.418144
C68	C	-0.525211	-0.459890	0.081856
C69	C	-1.107818	-0.975382	-0.403904
C70	C	-0.607818	-0.475382	0.096096
C71	C	-1.108126	-1.068975	-0.317675
C72	C	-0.608126	-0.568975	0.182325
C73	C	-1.025517	-1.053493	-0.331911
C74	C	-0.525517	-0.553493	0.168089
C75	C	-0.984066	-0.998950	-0.382145
C76	C	-0.484066	-0.498950	0.117855
C77	C	-0.984372	-1.092553	-0.295912
C78	C	-0.484372	-0.592553	0.204088
C79	C	-0.901771	-1.077070	-0.310144
C80	C	-0.401771	-0.577070	0.189856
C81	C	-0.860314	-1.022527	-0.360374
C82	C	-0.360314	-0.522527	0.139626
C83	C	-0.901464	-0.983467	-0.396376
C84	C	-0.401464	-0.483467	0.103624
C85	C	-1.025824	-1.147093	-0.245674
C86	C	-0.525824	-0.647093	0.254326
C87	C	-0.984680	-1.186152	-0.209676
C88	C	-0.484680	-0.686152	0.290324
C89	C	-0.902077	-1.170673	-0.223911
C90	C	-0.402077	-0.670673	0.276089
C91	C	-0.860620	-1.116130	-0.274141
C92	C	-0.360620	-0.616130	0.225859
C93	C	-0.860926	-1.209733	-0.187908
C94	C	-0.360926	-0.709733	0.312092
C95	C	-0.778324	-1.194250	-0.202140
C96	C	-0.278324	-0.694250	0.297860
C97	C	-0.778018	-1.100647	-0.288373
C98	C	-0.278018	-0.600647	0.211627
C99	C	-0.237179	-1.046325	-0.338515
C100	C	0.262821	-0.546325	0.161485
C101	C	-0.149270	-1.029912	-0.353678
C102	C	0.350730	-0.529912	0.146322
C103	C	-0.451363	-1.078987	-0.484853
C104	C	0.048637	-0.578987	0.015147
C105	C	-0.454726	-1.076493	-0.562377
C106	C	0.045274	-0.576493	-0.062377
C107	C	-0.452106	-0.269736	-0.308817
C108	C	0.047894	0.230264	0.191183
C109	C	-0.455774	-0.348527	-0.311306
C110	C	0.044226	0.151473	0.188694
C111	C	-0.407847	-1.111210	-0.608967
C112	C	0.092153	-0.611210	-0.108967
C113	C	-0.411004	-1.108858	-0.681809
C114	C	0.088996	-0.608858	-0.181809
C115	C	-0.461044	-1.071791	-0.708058
C116	C	0.038956	-0.571791	-0.208058
C117	C	-0.507925	-1.037069	-0.661462
C118	C	-0.007925	-0.537069	-0.161462
C119	C	-0.504764	-1.039418	-0.588622
C120	C	-0.004764	-0.539418	-0.088622
C121	C	-0.475692	-1.060915	-0.924815
C122	C	0.024308	-0.560915	-0.424815
C123	C	-0.478852	-1.058570	-0.997661
C124	C	0.021148	-0.558570	-0.497661
C125	C	-0.381929	-1.130358	-1.018003
C126	C	0.118071	-0.630358	-0.518003
C127	C	-0.378776	-1.132707	-0.945160
C128	C	0.121224	-0.632707	-0.445160
C129	C	-0.425653	-1.097982	-0.898571
C130	C	0.074347	-0.597982	-0.398571
N131	N	-0.464274	-1.069388	-0.782514
N132	N	0.035726	-0.569388	-0.282514
N133	N	-0.422419	-1.100382	-0.824117
N134	N	0.077581	-0.600382	-0.324117
C135	C	-0.435553	-1.090699	-0.121732
C136	C	0.064447	-0.590699	0.378268
C137	C	-0.431973	-1.093288	-0.044251
C138	C	0.068027	-0.593288	0.455749
H139	H	-0.366928	-0.475113	-0.250830
H140	H	0.133072	0.024887	0.249170
N141	N	-0.324792	-1.172686	-0.916868
N142	N	0.175208	-0.672686	-0.416868
H143	H	-0.268322	-1.150711	-0.938948
H144	H	0.231678	-0.650711	-0.438948
H145	H	-0.329958	-1.168903	-0.863654
H146	H	0.170042	-0.668903	-0.363654
N147	N	-0.905636	-1.268548	-0.133717
N148	N	-0.405636	-0.768548	0.366283
H149	H	-0.964207	-1.272425	-0.130159
H150	H	-0.464207	-0.772425	0.369841
H151	H	-0.893995	-1.316106	-0.148715
H152	H	-0.393995	-0.816106	0.351285
N153	N	-1.114916	-1.163792	-0.230326
N154	N	-0.614916	-0.663792	0.269674
H155	H	-1.137594	-1.215718	-0.241311
H156	H	-0.637594	-0.715718	0.258689
H157	H	-1.132086	-1.156028	-0.178624
H158	H	-0.632086	-0.656028	0.321376
N159	N	-0.314861	-0.654187	-0.215367
N160	N	0.185139	-0.154187	0.284633
H161	H	-0.278060	-0.615716	-0.249090
H162	H	0.221940	-0.115716	0.250910
H163	H	-0.344189	-0.630563	-0.176497
H164	H	0.155811	-0.130563	0.323503
N165	N	-0.360426	-1.146286	-0.732063
N166	N	0.139574	-0.646286	-0.232063
H167	H	-0.328245	-1.170123	-0.704381
H168	H	0.171755	-0.670123	-0.204381
H169	H	-0.395451	-1.184127	-0.757791
H170	H	0.104549	-0.684127	-0.257791
H171	H	-0.744824	-1.226056	-0.172825
H172	H	-0.244824	-0.726056	0.327175
N173	N	-0.555324	-1.001965	-0.538375
N174	N	-0.055324	-0.501965	-0.038375
H175	H	-0.612899	-1.023112	-0.541652
H176	H	-0.112899	-0.523112	-0.041652
H177	H	-0.545663	-1.009080	-0.488272
H178	H	-0.045663	-0.509080	0.011728
N179	N	-0.540659	-0.841497	-0.369059
N180	N	-0.040659	-0.341497	0.130941
H181	H	-0.572358	-0.811906	-0.390638
H182	H	-0.072358	-0.311906	0.109362
H183	H	-0.511356	-0.865177	-0.407897
H184	H	-0.011356	-0.365177	0.092103
H185	H	-0.343763	-1.158629	-1.055943
H186	H	0.156237	-0.658629	-0.555943
N187	N	-0.572129	-0.516208	-0.390493
N188	N	-0.072129	-0.016208	0.109507
H189	H	-0.561496	-0.499452	-0.442039
H190	H	-0.061496	0.000548	0.057961
H191	H	-0.566573	-0.567489	-0.386672
H192	H	-0.066573	-0.067489	0.113328
N193	N	-0.771221	-1.005822	-0.375721
N194	N	-0.271221	-0.505822	0.124279
H195	H	-0.754101	-1.050285	-0.393569
H196	H	-0.254101	-0.550285	0.106431
H197	H	-0.751269	-0.965322	-0.412987
H198	H	-0.251269	-0.465322	0.087013
H199	H	-0.867714	-0.939057	-0.437288
H200	H	-0.367714	-0.439057	0.062712
H201	H	-0.991460	-0.915480	-0.459055
H202	H	-0.491460	-0.415480	0.040945
N203	N	-0.532813	-1.018563	-1.025960
N204	N	-0.032813	-0.518563	-0.525960
H205	H	-0.500433	-0.978741	-1.060673
H206	H	-0.000433	-0.478741	-0.560673
H207	H	-0.572127	-1.053272	-1.050743
H208	H	-0.072127	-0.553272	-0.550743
N209	N	-0.533492	-0.687621	-0.364185
N210	N	-0.033492	-0.187621	0.135815
H211	H	-0.523066	-0.633885	-0.357093
H212	H	-0.023066	-0.133885	0.142907
H213	H	-0.524040	-0.696688	-0.416533
H214	H	-0.024040	-0.196688	0.083467
H215	H	-0.513876	-1.032651	-0.886889
H216	H	-0.013876	-0.532651	-0.386889
H217	H	-1.018440	-1.230560	-0.168773
H218	H	-0.518440	-0.730560	0.331227
N219	N	-1.152198	-0.933255	-0.442736
N220	N	-0.652198	-0.433255	0.057264
H221	H	-1.183740	-0.907771	-0.407407
H222	H	-0.683740	-0.407771	0.092593
H223	H	-1.113355	-0.896392	-0.476717
H224	H	-0.613355	-0.396392	0.023283
H225	H	-0.548666	-1.006886	-0.682841
H226	H	-0.048666	-0.506886	-0.182841
N227	N	-0.353882	-1.151197	-0.580655
N228	N	0.146118	-0.651197	-0.080655
H229	H	-0.297406	-1.129231	-0.602723
H230	H	0.202594	-0.629231	-0.102723
H231	H	-0.359065	-1.147408	-0.527442
H232	H	0.140935	-0.647408	-0.027442
N233	N	-0.564965	-0.362341	-0.385618
N234	N	-0.064965	0.137659	0.114382
H235	H	-0.554542	-0.308606	-0.378523
H236	H	-0.054542	0.191394	0.121477
H237	H	-0.555508	-0.371407	-0.437965
H238	H	-0.055508	0.128593	0.062035
N239	N	-0.322008	-0.808066	-0.220263
N240	N	0.177992	-0.308066	0.279737
H241	H	-0.287076	-0.768289	-0.196486
H242	H	0.212924	-0.268289	0.303514
H243	H	-0.354169	-0.845821	-0.183371
H244	H	0.145831	-0.345821	0.316629
H245	H	-0.360667	-0.340812	-0.246583
H246	H	0.139333	0.159188	0.253417
H247	H	-0.744268	-1.056237	-0.329284
H248	H	-0.244268	-0.556237	0.170716
N249	N	-1.152834	-1.127794	-0.263488
N250	N	-0.652834	-0.627794	0.236512
H251	H	-1.211406	-1.131675	-0.259932
H252	H	-0.711406	-0.631675	0.240068
H253	H	-1.141189	-1.175349	-0.278492
H254	H	-0.641189	-0.675349	0.221508
