data_functionalizedCrystal
_audit_creation_method	'MofGen! by Chris Wilmer'
_symmetry_space_group_name_H-M	'P1'
_symmetry_Int_Tables_number	1
_symmetry_cell_setting	triclinic
loop_
_symmetry_equiv_pos_as_xyz
  x,y,z
_cell_length_a	18.101398
_cell_length_b	19.121063
_cell_length_c	18.101389
_cell_angle_alpha	92.419391
_cell_angle_beta	89.975673
_cell_angle_gamma	92.464489
loop_
_atom_site_label
_atom_site_type_symbol
_atom_site_fract_x
_atom_site_fract_y
_atom_site_fract_z
Zn1	Zn	1.119554	-0.279777	-0.431404
Zn2	Zn	1.619554	0.220223	0.068596
Zn3	Zn	1.114175	-0.397213	-0.312837
Zn4	Zn	1.614175	0.102787	0.187163
Zn5	Zn	0.995713	-0.279770	-0.307565
Zn6	Zn	1.495713	0.220230	0.192435
Zn7	Zn	0.990390	-0.397183	-0.436624
Zn8	Zn	1.490390	0.102817	0.063376
O9	O	1.054958	-0.338486	-0.372107
O10	O	1.554958	0.161514	0.127893
O11	O	1.222473	-0.295371	-0.415698
O12	O	1.722473	0.204629	0.084302
O13	O	1.098437	-0.381644	-0.208505
O14	O	1.598437	0.118356	0.291495
O15	O	1.016620	-0.181486	-0.319601
O16	O	1.516620	0.318514	0.180399
O17	O	1.218521	-0.381651	-0.328587
O18	O	1.718521	0.118349	0.171413
O19	O	1.107605	-0.181491	-0.410586
O20	O	1.607605	0.318509	0.089414
O21	O	1.011404	-0.295359	-0.204632
O22	O	1.511404	0.204641	0.295368
O23	O	0.891375	-0.295330	-0.324663
O24	O	1.391375	0.204670	0.175337
O25	O	1.007547	-0.381599	-0.539564
O26	O	1.507547	0.118401	-0.039564
O27	O	0.887464	-0.381592	-0.419482
O28	O	1.387464	0.118408	0.080518
O29	O	1.102443	-0.295342	-0.535729
O30	O	1.602443	0.204658	-0.035729
O31	O	1.093276	-0.495494	-0.333648
O32	O	1.593276	0.004506	0.166352
O33	O	1.002331	-0.495472	-0.424594
O34	O	1.502331	0.004528	0.075406
C35	C	0.862549	-0.338457	-0.372067
C36	C	1.362549	0.161543	0.127933
C37	C	0.780234	-0.338462	-0.372069
C38	C	1.280234	0.161538	0.127931
C39	C	0.481141	-0.338506	-0.372133
C40	C	0.981141	0.161494	0.127867
C41	C	0.514915	-0.283961	-0.312742
C42	C	1.014915	0.216039	0.187258
C43	C	0.600526	-0.284107	-0.312506
C44	C	1.100526	0.215893	0.187494
C45	C	0.629525	-0.338484	-0.372101
C46	C	1.129525	0.161516	0.127899
C47	C	0.595084	-0.412466	-0.354099
C48	C	1.095084	0.087534	0.145901
C49	C	0.509452	-0.412163	-0.353690
C50	C	1.009452	0.087837	0.146310
C51	C	0.513600	-0.319712	-0.449688
C52	C	1.013600	0.180288	0.050312
C53	C	0.599325	-0.318065	-0.449186
C54	C	1.099325	0.181935	0.050814
C55	C	0.713385	-0.338476	-0.372084
C56	C	1.213385	0.161524	0.127916
C57	C	0.397281	-0.338519	-0.372148
C58	C	0.897281	0.161481	0.127852
C59	C	1.046662	-0.520967	-0.380276
C60	C	1.546662	-0.020967	0.119724
C61	C	1.043181	-0.599034	-0.383795
C62	C	1.543181	-0.099034	0.116205
C63	C	1.088932	-0.635698	-0.338137
C64	C	1.588932	-0.135698	0.161863
C65	C	1.085662	-0.709049	-0.341451
C66	C	1.585662	-0.209049	0.158549
C67	C	1.036637	-0.745735	-0.390420
C68	C	1.536637	-0.245735	0.109580
C69	C	0.990884	-0.709066	-0.436083
C70	C	1.490884	-0.209066	0.063917
C71	C	0.994158	-0.635716	-0.432772
C72	C	1.494158	-0.135716	0.067228
C73	C	1.024385	-0.967206	-0.402788
C74	C	1.524385	-0.467206	0.097212
C75	C	1.021113	-1.040562	-0.406094
C76	C	1.521113	-0.540562	0.093906
C77	C	1.115892	-1.040539	-0.311462
C78	C	1.615892	-0.540539	0.188538
C79	C	1.119159	-0.967188	-0.308152
C80	C	1.619159	-0.467188	0.191848
C81	C	1.073408	-0.930525	-0.353818
C82	C	1.573408	-0.430525	0.146182
C83	C	1.033292	-0.820713	-0.393807
C84	C	1.533292	-0.320713	0.106193
C85	C	1.076758	-0.855549	-0.350434
C86	C	1.576758	-0.355549	0.149566
C87	C	1.248119	-0.338515	-0.372148
C88	C	1.748119	0.161485	0.127852
C89	C	1.330432	-0.338528	-0.372165
C90	C	1.830432	0.161472	0.127835
C91	C	1.055002	-0.338468	-0.565269
C92	C	1.555002	0.161532	-0.065269
C93	C	1.055020	-0.338461	-0.647582
C94	C	1.555020	0.161539	-0.147582
C95	C	1.063306	-0.155292	-0.363923
C96	C	1.563306	0.344708	0.136077
C97	C	1.066864	-0.077226	-0.360436
C98	C	1.566864	0.422774	0.139564
C99	C	1.055069	-0.338329	-0.946668
C100	C	1.555069	0.161671	-0.446668
C101	C	0.995174	-0.392427	-0.917747
C102	C	1.495174	0.107573	-0.417747
C103	C	0.995318	-0.392678	-0.832140
C104	C	1.495318	0.107322	-0.332140
C105	C	1.055044	-0.338394	-0.798288
C106	C	1.555044	0.161606	-0.298288
C107	C	1.132167	-0.358491	-0.830296
C108	C	1.632167	0.141509	-0.330296
C109	C	1.131831	-0.358846	-0.915957
C110	C	1.631831	0.141154	-0.415957
C111	C	1.038526	-0.264013	-0.911754
C112	C	1.538526	0.235987	-0.411754
C113	C	1.036771	-0.264443	-0.826122
C114	C	1.536771	0.235557	-0.326122
C115	C	1.055035	-0.338430	-0.714430
C116	C	1.555035	0.161570	-0.214430
C117	C	1.055084	-0.338295	-1.030526
C118	C	1.555084	0.161705	-0.530526
C119	C	1.054959	-0.338453	-0.179695
C120	C	1.554959	0.161547	0.320305
C121	C	1.055093	-0.338263	-0.097373
C122	C	1.555093	0.161737	0.402627
H123	H	0.624031	-0.229245	-0.323408
H124	H	1.124031	0.270755	0.176592
H125	H	1.005969	-0.447763	-0.814132
H126	H	1.505969	0.052237	-0.314132
C127	C	1.193927	-0.307943	-0.941694
C128	C	1.693927	0.192057	-0.441694
H129	H	1.219251	-0.287142	-0.899799
H130	H	1.719251	0.212858	-0.399799
H131	H	1.173168	-0.272411	-0.969251
H132	H	1.673168	0.227589	-0.469251
H133	H	1.227685	-0.332882	-0.971899
H134	H	1.727685	0.167118	-0.471899
H135	H	1.116677	-0.825677	-0.310566
H136	H	1.616677	-0.325677	0.189434
C137	C	0.490446	-0.209623	-0.327241
C138	C	0.990446	0.290377	0.172759
H139	H	0.459411	-0.211183	-0.369643
H140	H	0.959411	0.288817	0.130357
H141	H	0.532766	-0.179850	-0.335423
H142	H	1.032766	0.320150	0.164577
H143	H	0.464042	-0.191979	-0.285600
H144	H	0.964042	0.308021	0.214400
H145	H	0.613574	-0.454195	-0.396148
H146	H	1.113574	0.045805	0.103852
H147	H	0.937700	-0.379979	-0.937774
H148	H	1.437700	0.120021	-0.437774
C149	C	1.091765	-0.207100	-0.794668
C150	C	1.591765	0.292900	-0.294668
H151	H	1.126750	-0.227601	-0.764016
H152	H	1.626750	0.272399	-0.264016
H153	H	1.065714	-0.173211	-0.766388
H154	H	1.565714	0.326789	-0.266388
H155	H	1.116777	-0.185118	-0.834202
H156	H	1.616777	0.314882	-0.334202
C157	C	0.487680	-0.248104	-0.472669
C158	C	0.987680	0.251896	0.027331
H159	H	0.507884	-0.237762	-0.519611
H160	H	1.007884	0.262238	-0.019611
H161	H	0.503931	-0.212853	-0.437078
H162	H	1.003931	0.287147	0.062922
H163	H	0.435229	-0.249524	-0.475503
H164	H	0.935229	0.250476	0.024497
H165	H	0.983441	-0.245705	-0.932518
H166	H	1.483441	0.254295	-0.432518
H167	H	0.956904	-0.605865	-0.469953
H168	H	1.456904	-0.105865	0.030047
H169	H	0.622115	-0.263622	-0.462821
H170	H	1.122115	0.236378	0.037179
H171	H	1.128850	-0.605832	-0.298258
H172	H	1.628850	-0.105832	0.201742
H173	H	0.993375	-0.850591	-0.433677
H174	H	1.493375	-0.350591	0.066323
C175	C	0.917923	-0.375680	-0.802960
C176	C	1.417923	0.124320	-0.302960
H177	H	0.886109	-0.368562	-0.843439
H178	H	1.386109	0.131438	-0.343439
H179	H	0.921366	-0.334397	-0.771850
H180	H	1.421366	0.165603	-0.271850
H181	H	0.898539	-0.413603	-0.775599
H182	H	1.398539	0.086397	-0.275599
C183	C	1.166218	-1.080870	-0.261240
C184	C	1.666218	-0.580870	0.238760
H185	H	1.157253	-1.129809	-0.270228
H186	H	1.657253	-0.629809	0.229772
H187	H	1.155947	-1.068881	-0.210930
H188	H	1.655947	-0.568881	0.289070
H189	H	1.216510	-1.068807	-0.271592
H190	H	1.716510	-0.568807	0.228408
C191	C	1.097503	-0.209560	-0.936709
C192	C	1.597503	0.290440	-0.436709
H193	H	1.132045	-0.231968	-0.968250
H194	H	1.632045	0.268032	-0.468250
H195	H	1.122513	-0.188816	-0.894608
H196	H	1.622513	0.311184	-0.394608
H197	H	1.074334	-0.174310	-0.962684
H198	H	1.574334	0.325690	-0.462684
C199	C	0.936956	-0.749419	-0.489946
C200	C	1.436956	-0.249419	0.010054
H201	H	0.941552	-0.798356	-0.485374
H202	H	1.441552	-0.298356	0.014626
H203	H	0.948300	-0.737368	-0.539173
H204	H	1.448300	-0.237368	-0.039173
H205	H	0.887738	-0.737436	-0.478510
H206	H	1.387738	-0.237436	0.021490
C207	C	0.625990	-0.367831	-0.511806
C208	C	1.125990	0.132169	-0.011806
H209	H	0.656021	-0.401868	-0.491667
H210	H	1.156021	0.098132	0.008333
H211	H	0.653940	-0.341714	-0.546421
H212	H	1.153940	0.158286	-0.046421
H213	H	0.584451	-0.390632	-0.535953
H214	H	1.084451	0.109368	-0.035953
C215	C	1.009396	-0.466387	-0.950154
C216	C	1.509396	0.033613	-0.450154
H217	H	1.051680	-0.464441	-0.981228
H218	H	1.551680	0.035559	-0.481228
H219	H	0.967613	-0.483605	-0.978167
H220	H	1.467613	0.016395	-0.478167
H221	H	1.017683	-0.496741	-0.911056
H222	H	1.517683	0.003259	-0.411056
C223	C	0.623018	-0.434373	-0.278491
C224	C	1.123018	0.065627	0.221509
H225	H	0.655656	-0.398538	-0.257797
H226	H	1.155656	0.101462	0.242203
H227	H	0.648464	-0.476641	-0.284724
H228	H	1.148464	0.023359	0.215276
H229	H	0.582161	-0.441440	-0.246298
H230	H	1.082161	0.058560	0.253702
H231	H	0.491559	-0.359441	-0.493899
H232	H	0.991559	0.140559	0.006101
H233	H	1.122917	-0.738898	-0.304271
H234	H	1.622917	-0.238898	0.195729
C235	C	1.151295	-0.432235	-0.946253
C236	C	1.651295	0.067765	-0.446253
H237	H	1.159329	-0.461552	-0.906196
H238	H	1.659329	0.038448	-0.406196
H239	H	1.194884	-0.428672	-0.975335
H240	H	1.694884	0.071328	-0.475335
H241	H	1.111667	-0.451764	-0.975908
H242	H	1.611667	0.048236	-0.475908
H243	H	1.159079	-0.937319	-0.268278
H244	H	1.659079	-0.437319	0.231722
H245	H	0.486843	-0.454179	-0.395241
H246	H	0.986843	0.045821	0.104759
C247	C	0.967189	-1.080916	-0.459968
C248	C	1.467189	-0.580916	0.040032
H249	H	0.940416	-1.048576	-0.486697
H250	H	1.440416	-0.548576	0.013303
H251	H	0.933658	-1.109567	-0.432903
H252	H	1.433658	-0.609567	0.067097
H253	H	0.994235	-1.109493	-0.493551
H254	H	1.494235	-0.609493	0.006449
H255	H	1.177847	-0.320327	-0.808236
H256	H	1.677847	0.179673	-0.308236
C257	C	0.974049	-0.926887	-0.453005
C258	C	1.474049	-0.426887	0.046995
H259	H	0.944376	-0.959243	-0.482634
H260	H	1.444376	-0.459243	0.017366
H261	H	1.003627	-0.898233	-0.484013
H262	H	1.503627	-0.398233	0.015987
H263	H	0.943072	-0.898314	-0.423343
H264	H	1.443072	-0.398314	0.076657
C265	C	1.152068	-0.431103	-0.804601
C266	C	1.652068	0.068897	-0.304601
H267	H	1.113483	-0.449268	-0.774380
H268	H	1.613483	0.050732	-0.274380
H269	H	1.196820	-0.426930	-0.777070
H270	H	1.696820	0.073070	-0.277070
H271	H	1.158162	-0.461914	-0.846509
H272	H	1.658162	0.038086	-0.346509
H273	H	0.980032	-0.249287	-0.805110
H274	H	1.480032	0.250713	-0.305110
H275	H	0.620422	-0.296530	-0.254971
H276	H	1.120422	0.203470	0.245029
C277	C	0.485057	-0.300541	-0.235464
C278	C	0.985057	0.199459	0.264536
H279	H	0.505735	-0.267338	-0.199912
H280	H	1.005735	0.232662	0.300088
H281	H	0.498274	-0.346267	-0.223526
H282	H	0.998274	0.153733	0.276474
H283	H	0.432736	-0.298234	-0.235276
H284	H	0.932736	0.201766	0.264724
C285	C	0.481447	-0.433688	-0.277231
C286	C	0.981447	0.066312	0.222769
H287	H	0.522408	-0.442532	-0.246711
H288	H	1.022408	0.057468	0.253289
H289	H	0.450356	-0.474879	-0.282759
H290	H	0.950356	0.025121	0.217241
H291	H	0.454311	-0.396921	-0.255044
H292	H	0.954311	0.103079	0.244956
