data_functionalizedCrystal
_audit_creation_method	'MofGen! by Chris Wilmer'
_symmetry_space_group_name_H-M	'P1'
_symmetry_Int_Tables_number	1
_symmetry_cell_setting	triclinic
loop_
_symmetry_equiv_pos_as_xyz
  x,y,z
_cell_length_a	17.699104
_cell_length_b	11.026607
_cell_length_c	16.776229
_cell_angle_alpha	89.996140
_cell_angle_beta	89.991971
_cell_angle_gamma	95.938767
loop_
_atom_site_label
_atom_site_type_symbol
_atom_site_fract_x
_atom_site_fract_y
_atom_site_fract_z
O1	O	1.025161	0.153522	-0.066302
O2	O	0.807523	0.173453	-0.066300
O3	O	0.898305	-0.013115	-0.066298
O4	O	0.934380	0.340089	-0.066304
O5	O	0.898288	-0.013126	0.066278
O6	O	0.807506	0.173442	0.066276
O7	O	1.025144	0.153510	0.066274
Zn8	Zn	0.916323	0.163474	0.087324
Zn9	Zn	0.916345	0.163489	-0.087351
O10	O	0.934363	0.340078	0.066272
C11	C	0.779220	0.172729	-0.000012
C12	C	0.694906	0.170573	-0.000011
C13	C	0.183411	0.267929	-0.000021
C14	C	0.262632	0.269947	-0.000023
C15	C	0.296202	0.160425	-0.000021
C16	C	0.250547	0.048877	-0.000025
C17	C	0.171327	0.046860	-0.000028
C18	C	0.570030	0.057008	-0.000012
C19	C	0.649255	0.059033	-0.000007
C20	C	0.661335	0.280094	-0.000007
C21	C	0.582115	0.278078	-0.000011
C22	C	0.536467	0.166531	-0.000019
C23	C	0.450566	0.164344	-0.000018
C24	C	0.382101	0.162610	-0.000017
C25	C	0.891641	-0.058312	-0.000011
C26	C	0.871801	-0.192970	-0.000014
C27	C	0.926582	-0.266931	-0.000015
C28	C	0.906078	-0.406107	-0.000018
C29	C	1.053448	0.154234	-0.000016
C30	C	1.137762	0.156390	-0.000022
C31	C	0.941027	0.385276	-0.000017
C32	C	0.960866	0.519934	-0.000020
N33	N	0.916313	0.163463	0.206536
N34	N	0.916360	0.163491	-0.206562
C35	C	0.956531	0.080885	0.248254
C36	C	0.956535	0.080884	0.331706
C37	C	0.916325	0.163468	0.373439
C38	C	0.876102	0.246050	0.331715
C39	C	0.876094	0.246044	0.248264
C40	C	0.876132	0.246074	0.668262
C41	C	0.876145	0.246076	0.751718
C42	C	0.956574	0.080913	0.751704
C43	C	0.956566	0.080908	0.668253
C44	C	0.916340	0.163485	0.626537
C45	C	0.916335	0.163484	0.536048
C46	C	0.916334	0.163476	0.463925
H47	H	0.134160	-0.043966	-0.000031
Cl48	Cl	0.141217	0.405623	-0.000017
Cl49	Cl	0.512653	-0.083223	-0.000041
H50	H	1.022949	-0.440358	-0.000080
Cl51	Cl	1.022430	-0.205624	-0.000021
Cl52	Cl	0.775953	-0.254277	-0.000021
H53	H	0.843343	0.313287	0.214298
Cl54	Cl	0.718726	0.420328	-0.000003
H55	H	0.843399	0.313328	0.785696
H56	H	0.989325	0.013670	0.785678
H57	H	0.989279	0.013640	0.214280
H58	H	0.989283	0.013641	0.365672
Cl59	Cl	0.320017	0.410174	-0.000026
H60	H	0.554787	0.367262	-0.000008
Cl61	Cl	0.810226	-0.467408	-0.000025
H62	H	0.989312	0.013664	0.634277
Cl63	Cl	0.292749	-0.088809	-0.000024
H64	H	0.843380	0.313313	0.634303
H65	H	0.676585	-0.030159	-0.000007
H66	H	0.843357	0.313288	0.365698
