data_functionalizedCrystal
_audit_creation_method	'MofGen! by Chris Wilmer'
_symmetry_space_group_name_H-M	'P1'
_symmetry_Int_Tables_number	1
_symmetry_cell_setting	triclinic
loop_
_symmetry_equiv_pos_as_xyz
  x,y,z
_cell_length_a	27.440280
_cell_length_b	14.560438
_cell_length_c	14.560438
_cell_angle_alpha	59.997945
_cell_angle_beta	90.003620
_cell_angle_gamma	60.004255
loop_
_atom_site_label
_atom_site_type_symbol
_atom_site_fract_x
_atom_site_fract_y
_atom_site_fract_z
Zr1	Zr	0.469567	1.005113	-0.120395
O2	O	0.391760	1.196723	-0.267060
O3	O	0.493410	0.813518	-0.075437
O4	O	0.493422	1.005111	-0.267038
O5	O	0.391748	1.005127	0.075682
O6	O	0.573625	1.005093	-0.267019
O7	O	0.391748	1.005130	-0.075459
O8	O	0.573603	0.662368	0.075721
O9	O	0.391770	1.347852	-0.267058
O10	O	0.563444	0.892306	-0.056245
O11	O	0.503589	0.892317	0.056535
O12	O	0.503604	1.117893	-0.169051
O13	O	0.443750	1.117904	-0.056271
Zr14	Zr	0.597481	1.005081	0.120688
Zr15	Zr	0.597481	1.005085	-0.120364
Zr16	Zr	0.469567	1.005109	0.120657
Zr17	Zr	0.469583	1.246147	-0.120392
Zr18	Zr	0.597466	0.764047	0.120684
O19	O	0.573638	1.196676	0.075730
O20	O	0.573638	1.196682	-0.267016
O21	O	0.391760	1.196717	0.075685
O22	O	0.675288	0.813472	0.267353
O23	O	0.675288	0.813478	-0.075392
O24	O	0.493410	0.813512	0.267308
O25	O	0.675300	1.005067	-0.075389
O26	O	0.573626	1.005084	0.267331
O27	O	0.493423	1.005102	0.267311
O28	O	0.675300	1.005064	0.075751
O29	O	0.493445	1.347829	-0.267033
O30	O	0.573603	0.662365	0.267325
O31	O	0.675278	0.662343	0.267350
O32	O	0.675278	0.662346	0.075746
O33	O	0.391770	1.347848	-0.075453
O34	O	0.493445	1.347826	-0.075428
O35	O	0.563444	0.892302	0.169344
O36	O	0.623298	0.892290	0.056564
O37	O	0.563459	1.117877	-0.056242
O38	O	0.503604	1.117889	0.056538
C39	C	0.533504	0.703601	0.000142
C40	C	0.533498	0.601276	0.000140
C41	C	0.577692	0.469949	0.083416
C42	C	0.577718	0.373768	0.083425
C43	C	0.489351	0.540259	-0.083128
C44	C	0.489324	0.636436	-0.083132
C45	C	0.621866	0.434788	0.166688
C46	C	0.666065	0.303454	0.249970
C47	C	0.666090	0.207274	0.249979
C48	C	0.621917	0.242428	0.166706
C49	C	0.373523	1.005133	0.000107
C50	C	0.319220	1.005145	0.000094
C51	C	0.053290	1.122873	-0.058737
C52	C	0.104308	1.122880	-0.058744
O53	O	0.104131	1.223025	-0.108792
N54	N	0.161061	1.005127	0.000131
C55	C	0.166794	0.887359	0.059027
O56	O	0.219751	0.787202	0.109105
C57	C	0.115776	0.887354	0.059040
C58	C	0.059025	1.005114	0.000152
C59	C	-0.003459	1.240624	-0.117619
C60	C	-0.054474	1.240616	-0.117614
C61	C	-0.048740	1.122857	-0.058725
C62	C	0.008010	1.005106	0.000157
C63	C	0.121511	0.769587	0.117941
C64	C	0.070486	0.769592	0.117950
C65	C	0.013735	0.887352	0.059062
C66	C	-0.037270	0.887340	0.059051
N67	N	-0.094023	1.005093	0.000176
C68	C	-0.099758	1.122851	-0.058712
C69	C	0.273933	0.887381	0.058997
C70	C	0.324950	0.887385	0.058978
C71	C	0.262461	1.122906	-0.058792
C72	C	0.211443	1.122900	-0.058778
C73	C	0.217180	1.005134	0.000121
C74	C	-0.206890	1.122826	-0.058697
C75	C	-0.257906	1.122808	-0.058690
C76	C	-0.195413	0.887288	0.059084
C77	C	-0.144400	0.887305	0.059073
C78	C	-0.150143	1.005085	0.000180
O79	O	-0.037139	0.787246	0.109078
O80	O	-0.152716	1.222992	-0.108770
C81	C	0.693525	1.005062	0.000185
C82	C	0.747828	1.005050	0.000199
C83	C	0.533524	1.005102	-0.301373
C84	C	0.533524	1.005104	-0.403706
C85	C	0.533544	1.306593	0.000151
C86	C	0.533550	1.408918	0.000153
C87	C	0.502286	1.122856	-0.510666
C88	C	0.502287	1.122850	-0.606815
C89	C	0.564766	0.887329	-0.489030
C90	C	0.564768	0.887337	-0.392884
C91	C	0.471042	1.240623	-0.521488
C92	C	0.439800	1.358385	-0.628453
C93	C	0.439802	1.358379	-0.724601
C94	C	0.471045	1.240611	-0.713786
C95	C	0.533524	1.005092	0.301666
C96	C	0.533524	1.005090	0.403999
C97	C	0.693506	0.703566	0.000181
C98	C	0.747802	0.601228	0.000192
C99	C	0.533505	0.703596	0.301661
C100	C	0.533498	0.601269	0.403992
C101	C	0.693506	0.703560	0.301700
C102	C	0.747802	0.601222	0.404045
C103	C	0.373542	1.306634	-0.301408
C104	C	0.319246	1.408973	-0.403752
C105	C	0.373542	1.306629	0.000112
C106	C	0.319246	1.408966	0.000100
C107	C	0.533543	1.306598	-0.301368
C108	C	0.533550	1.408925	-0.403700
C109	C	0.742057	0.553178	-0.058698
C110	C	0.793069	0.457035	-0.058709
C111	C	0.849826	0.408937	0.000176
C112	C	0.855570	0.456997	0.059068
C113	C	0.804558	0.553145	0.059072
C114	C	0.804549	0.553156	0.393237
C115	C	0.855571	0.457011	0.489391
C116	C	0.849845	0.408927	0.596353
C117	C	0.793092	0.457002	0.607158
C118	C	0.742071	0.553152	0.511005
C119	C	0.262499	1.457050	-0.392944
C120	C	0.211477	1.553224	-0.489099
C121	C	0.217203	1.601314	-0.596060
C122	C	0.273956	1.553233	-0.606866
C123	C	0.324977	1.457066	-0.510712
C124	C	0.324991	1.457027	0.058980
C125	C	0.273979	1.553196	0.058965
C126	C	0.217222	1.601297	0.000076
C127	C	0.211478	1.553232	-0.058811
C128	C	0.262490	1.457071	-0.058802
C129	C	0.564739	0.553183	0.510953
C130	C	0.564728	0.457041	0.607100
C131	C	0.502234	0.457076	0.489312
C132	C	0.502242	0.553223	0.393168
C133	C	0.595995	0.601229	0.521778
C134	C	0.627240	0.553142	0.628744
C135	C	0.627229	0.457000	0.724891
C136	C	0.595973	0.408946	0.714073
H137	H	0.621938	0.164105	0.166727
H138	H	0.702026	0.274841	0.317773
H139	H	0.414369	1.454265	-0.811692
Cl140	Cl	0.462965	0.613681	0.258696
Cl141	Cl	0.621839	0.555695	0.166679
Cl142	Cl	0.721648	0.042173	0.354683
H143	H	0.414367	1.454267	-0.637250
Cl144	Cl	0.433825	0.584444	-0.187809
H145	H	0.471050	1.240615	-0.792081
H146	H	0.257825	1.417901	-0.305860
H147	H	0.652682	0.592282	0.637544
H148	H	0.788380	0.417916	-0.106666
H149	H	0.278668	1.592314	0.106922
H150	H	0.165271	1.592356	-0.480278
Cl151	Cl	0.255256	1.396655	-0.132822
Cl152	Cl	0.596012	0.722091	0.400912
H153	H	0.891358	0.330646	0.000165
H154	H	0.175654	1.679618	-0.674345
Cl155	Cl	0.926926	0.396512	0.133096
Cl156	Cl	0.433764	0.801540	-0.187823
Cl157	Cl	0.670734	0.613557	0.524612
Cl158	Cl	0.281144	1.613697	-0.741340
Cl159	Cl	0.396314	1.396629	-0.524319
Cl160	Cl	0.140122	1.613710	-0.132832
Cl161	Cl	0.153098	1.722185	0.000079
H162	H	0.371201	1.417870	0.106942
Cl163	Cl	0.604037	0.739290	-0.475440
H164	H	-0.100680	1.336509	-0.165562
H165	H	0.652665	0.417859	0.811983
H166	H	0.595962	0.330670	0.792367
Cl167	Cl	-0.329252	1.270861	-0.132727
Cl168	Cl	0.811792	0.613531	0.133123
H169	H	0.809223	0.592292	0.306152
H170	H	-0.098189	0.791415	0.107037
H171	H	-0.211575	1.218734	-0.106640
H172	H	0.695847	0.592338	-0.106663
Cl173	Cl	0.604053	0.739303	-0.258414
H174	H	0.476788	0.417941	0.480514
H175	H	0.891394	0.330636	0.674638
Cl176	Cl	-0.010683	1.388684	-0.191661
H177	H	0.165236	1.218792	-0.106730
H178	H	0.901777	0.417879	0.480573
H179	H	0.257799	1.218792	-0.106739
Cl180	Cl	0.281155	0.739315	0.133040
Cl181	Cl	0.192846	0.621535	0.191982
Cl182	Cl	0.396291	0.739337	0.132994
H183	H	0.788439	0.417838	0.694259
H184	H	-0.190754	0.791412	0.107027
Cl185	Cl	0.077705	0.621532	0.192001
H186	H	0.471035	1.240642	-0.443206
