data_functionalizedCrystal
_audit_creation_method	'MofGen! by Chris Wilmer'
_symmetry_space_group_name_H-M	'P1'
_symmetry_Int_Tables_number	1
_symmetry_cell_setting	triclinic
loop_
_symmetry_equiv_pos_as_xyz
  x,y,z
_cell_length_a	19.188930
_cell_length_b	17.666332
_cell_length_c	12.837942
_cell_angle_alpha	90.004116
_cell_angle_beta	88.986860
_cell_angle_gamma	90.023133
loop_
_atom_site_label
_atom_site_type_symbol
_atom_site_fract_x
_atom_site_fract_y
_atom_site_fract_z
O1	O	0.935024	0.063194	0.129378
O2	O	1.435024	0.563194	0.629378
O3	O	0.732907	0.063142	0.146795
O4	O	1.232907	0.563142	0.646795
O5	O	0.829484	0.063162	-0.012796
O6	O	1.329484	0.563162	0.487204
O7	O	0.838447	0.063174	0.288969
O8	O	1.338447	0.563174	0.788969
O9	O	0.829464	-0.062735	-0.012800
O10	O	1.329464	0.437265	0.487200
O11	O	0.732888	-0.062755	0.146790
O12	O	1.232888	0.437245	0.646790
O13	O	0.935004	-0.062703	0.129374
O14	O	1.435004	0.437297	0.629374
Cu15	Cu	0.833944	-0.074224	0.138082
Cu16	Cu	1.333944	0.425776	0.638082
Cu17	Cu	0.833967	0.074663	0.138087
Cu18	Cu	1.333967	0.574663	0.638087
O19	O	0.838428	-0.062723	0.288965
O20	O	1.338428	0.437277	0.788965
C21	C	0.706848	0.000187	0.146229
C22	C	1.206848	0.500187	0.646229
C23	C	0.629227	0.000167	0.144536
C24	C	1.129227	0.500167	0.644536
C25	C	0.590726	0.000183	0.238178
C26	C	1.090726	0.500183	0.738178
C27	C	0.517793	0.000191	0.236588
C28	C	1.017793	0.500191	0.736588
C29	C	0.483364	0.000199	0.141349
C30	C	0.983364	0.500199	0.641349
C31	C	0.521874	0.000179	0.047694
C32	C	1.021874	0.500179	0.547694
C33	C	0.594806	0.000163	0.049287
C34	C	1.094806	0.500163	0.549287
N35	N	0.370397	0.043075	0.068553
N36	N	0.870397	0.543075	0.568553
N37	N	0.301115	0.043091	0.067046
N38	N	0.801115	0.543091	0.567046
C39	C	0.263626	0.000245	0.136543
C40	C	0.763626	0.500245	0.636543
N41	N	0.298035	-0.042609	0.207620
N42	N	0.798035	0.457391	0.707620
N43	N	0.367323	-0.042623	0.209130
N44	N	0.867323	0.457377	0.709130
C45	C	0.404282	0.000215	0.139611
C46	C	0.904282	0.500215	0.639611
C47	C	0.146042	0.000268	0.228467
C48	C	0.646042	0.500268	0.728467
C49	C	0.073108	0.000272	0.226873
C50	C	0.573108	0.500272	0.726873
C51	C	0.077191	0.000268	0.037976
C52	C	0.577191	0.500268	0.537976
C53	C	0.150124	0.000256	0.039574
C54	C	0.650124	0.500256	0.539574
C55	C	0.184545	0.000260	0.134822
C56	C	0.684545	0.500260	0.634822
N57	N	0.833933	-0.178944	0.138077
N58	N	1.333933	0.321056	0.638077
C59	C	0.880443	-0.218533	0.200780
C60	C	1.380443	0.281467	0.700780
C61	C	0.880454	-0.297781	0.200777
C62	C	1.380454	0.202219	0.700777
C63	C	0.833943	-0.337436	0.138083
C64	C	1.333943	0.162564	0.638083
C65	C	0.787430	-0.297837	0.075368
C66	C	1.287430	0.202163	0.575368
C67	C	0.787425	-0.218591	0.075365
C68	C	1.287425	0.281409	0.575365
N69	N	0.772620	-0.461891	0.135530
N70	N	1.272620	0.038109	0.635530
N71	N	0.772626	-0.537172	0.135539
N72	N	1.272626	-0.037172	0.635539
C73	C	0.833956	-0.576200	0.138087
C74	C	1.333956	-0.076200	0.638087
N75	N	0.895281	-0.537104	0.140646
N76	N	1.395281	-0.037104	0.640646
N77	N	0.895273	-0.461816	0.140643
N78	N	1.395273	0.038184	0.640643
C79	C	0.833944	-0.423365	0.138079
C80	C	1.333944	0.076635	0.638079
C81	C	0.880481	-0.701719	0.200790
C82	C	1.380481	-0.201719	0.700790
C83	C	0.880493	-0.780968	0.200779
C84	C	1.380493	-0.280968	0.700779
C85	C	0.787463	-0.781022	0.075376
C86	C	1.287463	-0.281022	0.575376
C87	C	0.787457	-0.701775	0.075380
C88	C	1.287457	-0.201775	0.575380
C89	C	0.833966	-0.662128	0.138093
C90	C	1.333966	-0.162128	0.638093
C91	C	0.961064	0.000254	0.129940
C92	C	1.461064	0.500254	0.629940
C93	C	1.038684	0.000279	0.131633
C94	C	1.538684	0.500279	0.631633
C95	C	0.826446	0.000213	-0.051405
C96	C	1.326446	0.500213	0.448595
C97	C	0.817415	0.000212	-0.166441
C98	C	1.317415	0.500212	0.333559
N99	N	0.833983	0.179383	0.138083
N100	N	1.333983	0.679383	0.638083
C101	C	0.925983	0.000256	-0.407892
C102	C	1.425983	0.500256	0.092108
C103	C	0.917501	0.000255	-0.515979
C104	C	1.417501	0.500255	-0.015979
C105	C	0.791969	0.000215	-0.490705
C106	C	1.291969	0.500215	0.009295
C107	C	0.800451	0.000216	-0.382618
C108	C	1.300451	0.500216	0.117382
C109	C	0.867460	0.000235	-0.341215
C110	C	1.367460	0.500235	0.158785
C111	C	0.875942	0.000231	-0.233126
C112	C	1.375942	0.500231	0.266874
C113	C	0.750411	0.000196	-0.207854
C114	C	1.250411	0.500196	0.292146
C115	C	0.741929	0.000195	-0.315942
C116	C	1.241929	0.500195	0.184058
C117	C	0.841465	0.000227	0.327574
C118	C	1.341465	0.500227	0.827574
C119	C	0.850496	0.000233	0.442610
C120	C	1.350496	0.500233	0.942610
H121	H	0.174070	0.000260	0.306024
H122	H	0.674070	0.500260	0.806024
H123	H	0.687372	0.000182	-0.349667
H124	H	1.187372	0.500182	0.150333
N125	N	0.191655	0.000240	-0.061427
N126	N	0.691655	0.500240	0.438573
H127	H	0.158780	0.000245	-0.122004
H128	H	0.658780	0.500245	0.377996
H129	H	0.222032	0.046903	-0.064882
H130	H	0.722032	0.546903	0.435118
H131	H	0.980544	0.000264	-0.374181
H132	H	1.480544	0.500264	0.125819
H133	H	0.702758	0.000173	-0.153554
H134	H	1.202758	0.500173	0.346446
N135	N	0.930610	-0.175771	0.268405
N136	N	1.430610	0.324229	0.768405
H137	H	0.960079	-0.212881	0.308123
H138	H	1.460079	0.287119	0.808123
H139	H	0.961725	-0.142884	0.223086
H140	H	1.461725	0.357116	0.723086
H141	H	0.918328	-0.330021	0.251840
H142	H	1.418328	0.169979	0.751840
N143	N	0.484739	0.000181	-0.055024
N144	N	0.984739	0.500181	0.444976
H145	H	0.454597	0.046858	-0.059896
H146	H	0.954597	0.546858	0.440104
H147	H	0.520239	0.000139	-0.114050
H148	H	1.020239	0.500139	0.385950
H149	H	0.749561	-0.330129	0.024321
H150	H	1.249561	0.169871	0.524321
N151	N	0.636340	0.000156	-0.051714
N152	N	1.136340	0.500156	0.448286
H153	H	0.666667	-0.046519	-0.055262
H154	H	1.166667	0.453481	0.444738
H155	H	0.603424	0.000189	-0.112236
H156	H	1.103424	0.500189	0.387764
N157	N	0.476260	0.000216	0.337596
N158	N	0.976260	0.500216	0.837596
H159	H	0.445938	0.046894	0.341133
H160	H	0.945938	0.546894	0.841133
H161	H	0.445923	-0.046476	0.341092
H162	H	0.945923	0.453524	0.841092
H163	H	0.965156	0.000274	-0.570264
H164	H	1.465156	0.500274	-0.070264
N165	N	0.719701	0.000202	-0.535370
N166	N	1.219701	0.500202	-0.035370
H167	H	0.723211	0.000208	-0.613961
H168	H	1.223211	0.500208	-0.113961
H169	H	0.693768	-0.046478	-0.510973
H170	H	1.193768	0.453522	-0.010973
N171	N	0.930683	-0.823672	0.268373
N172	N	1.430683	-0.323672	0.768373
H173	H	0.960148	-0.786528	0.308089
H174	H	1.460148	-0.286528	0.808089
H175	H	0.903640	-0.856578	0.319151
H176	H	1.403640	-0.356578	0.819151
H177	H	0.618747	0.000187	0.315737
H178	H	1.118747	0.500187	0.815737
N179	N	0.737260	-0.175885	0.007731
N180	N	1.237260	0.324115	0.507731
H181	H	0.707798	-0.213028	-0.031991
H182	H	1.207798	0.286972	0.468009
H183	H	0.706140	-0.143020	0.053040
H184	H	1.206140	0.356980	0.553040
H185	H	0.918352	-0.669436	0.251853
H186	H	1.418352	-0.169436	0.751853
H187	H	0.041761	0.000280	0.303131
H188	H	0.541761	0.500280	0.803131
N189	N	0.737303	-0.823781	0.007743
N190	N	1.237303	-0.323781	0.507743
H191	H	0.706137	-0.856675	0.052978
H192	H	1.206137	-0.356675	0.552978
H193	H	0.707886	-0.786621	-0.031968
H194	H	1.207886	-0.286621	0.468032
N195	N	0.040068	0.000268	-0.064748
N196	N	0.540068	0.500268	0.435252
H197	H	-0.011977	0.000277	-0.051550
H198	H	0.488023	0.500277	0.448450
H199	H	0.053731	0.046935	-0.105713
H200	H	0.553731	0.546935	0.394287
N201	N	0.737292	-0.659068	0.007753
N202	N	1.237292	-0.159068	0.507753
H203	H	0.707828	-0.696212	-0.031966
H204	H	1.207828	-0.196212	0.468034
H205	H	0.706172	-0.626201	0.053061
H206	H	1.206172	-0.126201	0.553061
N207	N	0.948211	0.000247	-0.188465
N208	N	1.448211	0.500247	0.311535
H209	H	0.983997	0.000262	-0.247110
H210	H	1.483997	0.500262	0.252890
H211	H	0.954470	0.046919	-0.144162
H212	H	1.454470	0.546919	0.355838
