data_functionalizedCrystal
_audit_creation_method	'MofGen! by Chris Wilmer'
_symmetry_space_group_name_H-M	'P1'
_symmetry_Int_Tables_number	1
_symmetry_cell_setting	triclinic
loop_
_symmetry_equiv_pos_as_xyz
  x,y,z
_cell_length_a	18.215407
_cell_length_b	18.215405
_cell_length_c	18.215399
_cell_angle_alpha	90.030551
_cell_angle_beta	90.019833
_cell_angle_gamma	90.025333
loop_
_atom_site_label
_atom_site_type_symbol
_atom_site_fract_x
_atom_site_fract_y
_atom_site_fract_z
Zn1	Zn	1.125072	-0.292983	0.416103
Zn2	Zn	1.625072	0.207017	0.916103
Zn3	Zn	1.124980	-0.416054	0.293031
Zn4	Zn	1.624980	0.083946	0.793031
Zn5	Zn	1.002005	-0.293007	0.293050
Zn6	Zn	1.502005	0.206993	0.793050
Zn7	Zn	1.001970	-0.416013	0.416056
Zn8	Zn	1.501970	0.083987	0.916056
O9	O	1.063507	-0.354514	0.354560
O10	O	1.563507	0.145486	0.854560
O11	O	1.228044	-0.309316	0.399788
O12	O	1.728044	0.190684	0.899788
O13	O	1.108643	-0.399759	0.190049
O14	O	1.608643	0.100241	0.690049
O15	O	1.018382	-0.190020	0.309401
O16	O	1.518382	0.309980	0.809401
O17	O	1.227977	-0.399736	0.309368
O18	O	1.727977	0.100264	0.809368
O19	O	1.108799	-0.190002	0.399807
O20	O	1.608799	0.309998	0.899807
O21	O	1.018293	-0.309357	0.190063
O22	O	1.518293	0.190643	0.690063
O23	O	0.899016	-0.309317	0.309355
O24	O	1.399016	0.190683	0.809355
O25	O	1.018324	-0.399666	0.519046
O26	O	1.518324	0.100334	1.019046
O27	O	0.898991	-0.399689	0.399727
O28	O	1.398991	0.100311	0.899727
O29	O	1.108766	-0.309276	0.519081
O30	O	1.608766	0.190724	1.019081
O31	O	1.108610	-0.519033	0.309322
O32	O	1.608610	-0.019033	0.809322
O33	O	1.018235	-0.519003	0.399708
O34	O	1.518235	-0.019003	0.899708
C35	C	0.872301	-0.354502	0.354539
C36	C	1.372301	0.145498	0.854539
C37	C	0.790502	-0.354514	0.354547
C38	C	1.290502	0.145486	0.854547
C39	C	0.602314	-0.401645	0.401544
C40	C	1.102314	0.098355	0.901544
C41	C	0.525455	-0.401647	0.401554
C42	C	1.025455	0.098353	0.901554
C43	C	0.525452	-0.307397	0.307591
C44	C	1.025452	0.192603	0.807591
C45	C	0.602309	-0.307392	0.307586
C46	C	1.102309	0.192608	0.807586
C47	C	0.640738	-0.354520	0.354562
C48	C	1.140738	0.145480	0.854562
C49	C	0.487022	-0.354528	0.354576
C50	C	0.987022	0.145472	0.854576
C51	C	0.403688	-0.354530	0.354585
C52	C	0.903688	0.145470	0.854585
C53	C	0.724077	-0.354517	0.354553
C54	C	1.224077	0.145483	0.854553
C55	C	1.063429	-0.545721	0.354524
C56	C	1.563429	-0.045721	0.854524
C57	C	1.063463	-0.627520	0.354534
C58	C	1.563463	-0.127520	0.854534
C59	C	1.110632	-0.815705	0.307556
C60	C	1.610632	-0.315705	0.807556
C61	C	1.110665	-0.892563	0.307574
C62	C	1.610665	-0.392563	0.807574
C63	C	1.016476	-0.892572	0.401616
C64	C	1.516476	-0.392572	0.901616
C65	C	1.016447	-0.815715	0.401601
C66	C	1.516447	-0.315715	0.901601
C67	C	1.063524	-0.777283	0.354567
C68	C	1.563524	-0.277283	0.854567
C69	C	1.063586	-0.930999	0.354600
C70	C	1.563586	-0.430999	0.854600
C71	C	1.063621	-1.014333	0.354619
C72	C	1.563621	-0.514333	0.854619
C73	C	1.063490	-0.693944	0.354548
C74	C	1.563490	-0.193944	0.854548
C75	C	1.255460	-0.354528	0.354581
C76	C	1.755460	0.145472	0.854581
C77	C	1.337259	-0.354533	0.354591
C78	C	1.837259	0.145467	0.854591
C79	C	1.063552	-0.354464	0.546513
C80	C	1.563552	0.145536	1.046513
C81	C	1.063571	-0.354442	0.628312
C82	C	1.563571	0.145558	1.128312
C83	C	1.063605	-0.162561	0.354611
C84	C	1.563605	0.337439	0.854611
C85	C	1.063647	-0.080763	0.354633
C86	C	1.563647	0.419237	0.854633
C87	C	1.063504	-0.354512	0.163353
C88	C	1.563504	0.145488	0.663353
C89	C	1.063628	-0.354326	0.081555
C90	C	1.563628	0.145674	0.581555
C91	C	1.110681	-0.307332	0.816525
C92	C	1.610681	0.192668	1.316525
C93	C	1.110690	-0.307311	0.893384
C94	C	1.610690	0.192689	1.393384
C95	C	1.016513	-0.401438	0.893336
C96	C	1.516513	0.098562	1.393336
C97	C	1.016501	-0.401455	0.816479
C98	C	1.516501	0.098545	1.316479
C99	C	1.063589	-0.354403	0.778075
C100	C	1.563589	0.145597	1.278075
C101	C	1.063610	-0.354365	0.931791
C102	C	1.563610	0.145635	1.431791
C103	C	1.063619	-0.354342	1.015125
C104	C	1.563619	0.145658	1.515125
C105	C	1.063579	-0.354425	0.694736
C106	C	1.563579	0.145575	1.194736
H107	H	0.633595	-0.269012	0.269327
H108	H	1.133595	0.230988	0.769327
H109	H	0.978148	-0.439786	0.785173
H110	H	1.478148	0.060214	1.285173
H111	H	0.633601	-0.440018	0.439797
H112	H	1.133601	0.059982	0.939797
O113	O	1.156439	-0.261554	0.779333
O114	O	1.656439	0.238446	1.279333
C115	C	1.249877	-0.168217	0.787495
C116	C	1.749877	0.331783	1.287495
C117	C	1.198082	-0.220014	0.829703
C118	C	1.698082	0.279986	1.329703
H119	H	1.283570	-0.134629	0.828202
H120	H	1.783570	0.365371	1.328202
H121	H	1.216137	-0.129694	0.751538
H122	H	1.716137	0.370306	1.251538
H123	H	1.288307	-0.202023	0.751489
H124	H	1.788307	0.297977	1.251489
H125	H	1.159642	-0.186267	0.865749
H126	H	1.659642	0.313733	1.365749
H127	H	1.231869	-0.258539	0.865614
H128	H	1.731869	0.241461	1.365614
O129	O	1.156330	-0.261505	0.930764
O130	O	1.656330	0.238495	1.430764
C131	C	1.166290	-0.162146	1.017593
C132	C	1.666290	0.337854	1.517593
C133	C	1.114519	-0.213969	0.975295
C134	C	1.614519	0.286031	1.475295
H135	H	1.132507	-0.123710	1.053618
H136	H	1.632507	0.376290	1.553618
H137	H	1.199925	-0.128468	0.976971
H138	H	1.699925	0.371532	1.476971
H139	H	1.204775	-0.195938	1.053544
H140	H	1.704775	0.304062	1.553544
H141	H	1.075989	-0.180234	0.939343
H142	H	1.575989	0.319766	1.439343
H143	H	1.080935	-0.247649	1.015957
H144	H	1.580935	0.252351	1.515957
H145	H	0.978177	-0.439748	0.924614
H146	H	1.478177	0.060252	1.424614
H147	H	1.149026	-0.923843	0.269294
H148	H	1.649026	-0.423843	0.769294
O149	O	0.488244	-0.447496	0.447215
O150	O	0.988244	0.052504	0.947215
C151	C	0.496364	-0.540949	0.540441
C152	C	0.996364	-0.040949	1.040441
C153	C	0.538596	-0.489074	0.488752
C154	C	1.038596	0.010926	0.988752
H155	H	0.537054	-0.574568	0.574049
H156	H	1.037054	-0.074568	1.074049
H157	H	0.460370	-0.579438	0.506624
H158	H	0.960370	-0.079438	1.006624
H159	H	0.460392	-0.507200	0.578956
H160	H	0.960392	-0.007200	1.078956
H161	H	0.574607	-0.522764	0.450227
H162	H	1.074607	-0.022764	0.950227
H163	H	0.574542	-0.450583	0.522616
H164	H	1.074542	0.049417	1.022616
H165	H	0.494153	-0.269028	0.269344
H166	H	0.994153	0.230972	0.769344
H167	H	0.978146	-0.923873	0.439908
H168	H	1.478146	-0.423873	0.939908
H169	H	1.148966	-0.784415	0.269260
H170	H	1.648966	-0.284415	0.769260
O171	O	0.970614	-0.778501	0.447294
O172	O	1.470614	-0.278501	0.947294
C173	C	0.877228	-0.786613	0.540605
C174	C	1.377228	-0.286613	1.040605
C175	C	0.929077	-0.828849	0.488885
C176	C	1.429077	-0.328849	0.988885
H177	H	0.843642	-0.827302	0.574256
H178	H	1.343642	-0.327302	1.074256
H179	H	0.838706	-0.750705	0.506809
H180	H	1.338706	-0.250705	1.006809
H181	H	0.910994	-0.750557	0.579078
H182	H	1.410994	-0.250557	1.079078
H183	H	0.895370	-0.864946	0.450401
H184	H	1.395370	-0.364946	0.950401
H185	H	0.967600	-0.864711	0.522726
H186	H	1.467600	-0.364711	1.022726
