data_functionalizedCrystal
_audit_creation_method	'MofGen! by Chris Wilmer'
_symmetry_space_group_name_H-M	'P1'
_symmetry_Int_Tables_number	1
_symmetry_cell_setting	triclinic
loop_
_symmetry_equiv_pos_as_xyz
  x,y,z
_cell_length_a	14.908782
_cell_length_b	17.639929
_cell_length_c	14.908308
_cell_angle_alpha	82.662719
_cell_angle_beta	96.759680
_cell_angle_gamma	76.255949
loop_
_atom_site_label
_atom_site_type_symbol
_atom_site_fract_x
_atom_site_fract_y
_atom_site_fract_z
Zn1	Zn	1.453414	-0.404914	-0.332683
Zn2	Zn	1.492668	-0.529888	-0.150738
Zn3	Zn	1.307266	-0.390530	-0.193608
Zn4	Zn	1.332630	-0.529844	-0.310809
O5	O	1.396495	-0.463794	-0.246960
O6	O	1.586761	-0.427530	-0.299760
O7	O	1.473886	-0.505400	-0.031232
O8	O	1.299610	-0.281832	-0.239152
O9	O	1.615600	-0.519348	-0.166086
O10	O	1.406985	-0.292400	-0.341329
O11	O	1.337673	-0.403014	-0.062728
O12	O	1.182491	-0.402972	-0.217943
O13	O	1.342840	-0.519273	-0.438904
O14	O	1.201126	-0.505326	-0.304050
O15	O	1.431579	-0.427487	-0.454975
O16	O	1.498481	-0.640488	-0.144877
O17	O	1.380902	-0.640456	-0.262480
C18	C	1.158583	-0.452584	-0.263275
C19	C	1.056807	-0.447808	-0.270271
C20	C	0.895562	-0.534297	-0.144083
C21	C	0.799936	-0.529813	-0.150653
C22	C	0.769926	-0.434359	-0.289985
C23	C	0.865553	-0.438844	-0.283415
C24	C	0.928368	-0.488814	-0.210461
C25	C	1.023996	-0.493294	-0.203888
C26	C	0.993985	-0.397844	-0.343222
C27	C	0.898359	-0.393360	-0.349792
C28	C	1.446727	-0.669153	-0.196671
C29	C	1.468299	-0.757011	-0.175181
C30	C	1.559955	-0.880839	-0.083719
C31	C	1.539678	-0.798283	-0.103919
C32	C	1.417174	-0.798288	-0.226275
C33	C	1.437444	-0.880846	-0.206089
C34	C	1.508835	-0.922116	-0.134809
C35	C	1.386324	-0.922123	-0.257179
C36	C	1.406590	-1.004674	-0.236991
C37	C	1.477976	-1.045949	-0.165712
C38	C	1.529101	-1.004667	-0.114621
C39	C	1.314929	-0.880851	-0.328455
C40	C	1.263809	-0.922127	-0.379545
C41	C	1.284078	-1.004681	-0.359361
C42	C	1.355464	-1.045955	-0.288082
C43	C	1.232953	-1.045962	-0.410453
C44	C	1.253219	-1.128513	-0.390264
C45	C	1.375730	-1.128507	-0.267894
C46	C	1.635335	-0.475048	-0.230581
C47	C	1.737115	-0.479844	-0.223601
C48	C	1.385660	-0.474980	-0.480308
C49	C	1.381043	-0.479747	-0.579748
C50	C	1.346090	-0.257635	-0.297463
C51	C	1.324610	-0.169783	-0.318984
C52	C	1.464765	-0.393109	-0.783345
C53	C	1.460429	-0.397585	-0.876778
C54	C	1.368031	-0.493171	-0.860048
C55	C	1.372367	-0.488695	-0.766616
C56	C	1.420737	-0.438663	-0.728267
C57	C	1.425078	-0.434191	-0.634832
C58	C	1.332674	-0.529772	-0.618106
C59	C	1.328338	-0.534249	-0.711538
C60	C	1.407325	-0.452597	-0.014529
C61	C	1.412065	-0.447616	0.084867
H62	H	0.847203	-0.352678	-0.409191
H63	H	0.946707	-0.574980	-0.084677
H64	H	1.328650	-0.533904	-0.891289
H65	H	0.718768	-0.393683	-0.349387
H66	H	1.464464	-0.393454	-0.603610
H67	H	1.075139	-0.533980	-0.144483
H68	H	1.020704	-0.360804	-0.397269
O69	O	1.511622	-0.344467	-0.746005
C70	C	1.449512	-0.288358	-0.708058
H71	H	1.387580	-0.312292	-0.691998
H72	H	1.487270	-0.276381	-0.642389
H73	H	1.423464	-0.231034	-0.759101
H74	H	0.773231	-0.566852	-0.096603
H75	H	1.288955	-0.574981	-0.742775
O76	O	1.503287	-0.353309	-0.930142
C77	C	1.546885	-0.308176	-0.876259
H78	H	1.561064	-0.337509	-0.801510
H79	H	1.615717	-0.304433	-0.900371
H80	H	1.499132	-0.246093	-0.883326
O81	O	1.290039	-0.574067	-0.564490
C82	C	1.357168	-0.625000	-0.494381
H83	H	1.420394	-0.599720	-0.482447
H84	H	1.325509	-0.630695	-0.428644
H85	H	1.379883	-0.685770	-0.515359
H86	H	1.433872	-1.162111	-0.209859
H87	H	1.494475	-1.113167	-0.149277
H88	H	1.618097	-0.914444	-0.025684
O89	O	1.598545	-1.044701	-0.045434
C90	C	1.683937	-1.029737	-0.063736
H91	H	1.669527	-0.971516	-0.112643
H92	H	1.727350	-1.025778	0.002940
H93	H	1.723984	-1.079816	-0.096300
O94	O	1.194521	-0.881916	-0.448779
C95	C	1.187576	-0.800201	-0.455628
H96	H	1.256844	-0.790810	-0.424297
H97	H	1.170498	-0.771724	-0.530743
H98	H	1.129773	-0.771992	-0.417385
O99	O	1.589455	-0.758311	-0.054218
C100	C	1.656790	-0.812440	0.013040
H101	H	1.672679	-0.873173	-0.009007
H102	H	1.723515	-0.791479	0.021641
H103	H	1.628627	-0.816438	0.080871
H104	H	1.359044	-0.764676	-0.284310
O105	O	1.203504	-1.168495	-0.440011
C106	C	1.136135	-1.114368	-0.507241
H107	H	1.159037	-1.057407	-0.522194
H108	H	1.128897	-1.141120	-0.572565
H109	H	1.065998	-1.100807	-0.481329
H110	H	1.298423	-0.813632	-0.344881
H111	H	1.174820	-1.012349	-0.468483
