data_functionalizedCrystal
_audit_creation_method	'MofGen! by Chris Wilmer'
_symmetry_space_group_name_H-M	'P1'
_symmetry_Int_Tables_number	1
_symmetry_cell_setting	triclinic
loop_
_symmetry_equiv_pos_as_xyz
  x,y,z
_cell_length_a	10.540539
_cell_length_b	11.792241
_cell_length_c	10.868271
_cell_angle_alpha	90.005281
_cell_angle_beta	90.002250
_cell_angle_gamma	84.359454
loop_
_atom_site_label
_atom_site_type_symbol
_atom_site_fract_x
_atom_site_fract_y
_atom_site_fract_z
O1	O	-1.685366	-0.159957	-0.102265
O2	O	-1.315904	-0.175028	-0.102280
O3	O	-1.509601	-0.002345	-0.102263
O4	O	-1.491669	-0.332639	-0.102281
O5	O	-1.509585	-0.002338	0.102381
O6	O	-1.315888	-0.175021	0.102365
O7	O	-1.685350	-0.159950	0.102380
Zn8	Zn	-1.500616	-0.167484	0.134864
Zn9	Zn	-1.500637	-0.167493	-0.134764
O10	O	-1.491653	-0.332632	0.102363
C11	C	-1.268596	-0.173894	0.000040
C12	C	-1.127659	-0.170513	0.000035
C13	C	-1.508466	0.039952	0.000058
C14	C	-1.505095	0.165975	0.000057
C15	C	-1.732657	-0.161083	0.000057
C16	C	-1.873594	-0.164465	0.000054
C17	C	-0.944655	-0.040941	0.000520
C18	C	-1.091262	-0.044369	0.000045
C19	C	-1.065798	-0.231222	-0.116826
C20	C	-0.919268	-0.226917	-0.116911
C21	C	-0.918753	-0.229475	0.115808
C22	C	-1.065731	-0.230637	0.117340
C23	C	-1.492787	-0.374930	0.000039
C24	C	-1.496159	-0.500952	0.000032
N25	N	-1.500611	-0.167477	0.318878
C26	C	-1.498896	0.396703	0.000036
C27	C	-1.502340	0.268309	0.000048
N28	N	-1.500653	-0.167491	-0.318778
C29	C	-1.500631	-0.167491	0.569884
C30	C	-1.500616	-0.167487	0.430207
H31	H	-0.916225	0.008895	0.084328
H32	H	-0.887333	-0.188649	0.204388
H33	H	-0.914616	0.008679	-0.082816
H34	H	-0.891210	-0.182053	-0.204261
H35	H	-0.871004	-0.317637	-0.122220
O36	O	-0.861936	-0.338130	0.116577
C37	C	-0.781799	-0.355411	0.013021
H38	H	-0.753515	-0.269859	-0.020624
H39	H	-0.692536	-0.412786	0.039325
H40	H	-0.834541	-0.397562	-0.063374
H41	H	-1.133170	0.003730	-0.083865
H42	H	-1.087850	-0.323858	-0.121179
H43	H	-1.108531	-0.189055	-0.203792
H44	H	-1.106831	-0.186287	0.203793
O45	O	-1.094332	-0.340350	0.125539
C46	C	-1.171391	-0.365247	0.024946
H47	H	-1.156298	-0.304332	-0.053973
H48	H	-1.144347	-0.456674	-0.006454
H49	H	-1.275836	-0.354870	0.053923
H50	H	-1.134024	0.003399	0.083817
