data_functionalizedCrystal
_audit_creation_method	'MofGen! by Chris Wilmer'
_symmetry_space_group_name_H-M	'P1'
_symmetry_Int_Tables_number	1
_symmetry_cell_setting	triclinic
loop_
_symmetry_equiv_pos_as_xyz
  x,y,z
_cell_length_a	11.792241
_cell_length_b	11.792254
_cell_length_c	9.798715
_cell_angle_alpha	90.000223
_cell_angle_beta	90.006712
_cell_angle_gamma	84.196007
loop_
_atom_site_label
_atom_site_type_symbol
_atom_site_fract_x
_atom_site_fract_y
_atom_site_fract_z
O1	O	0.155640	1.506893	0.113490
O2	O	0.655640	2.006893	0.613490
O3	O	0.171658	1.176554	0.113493
O4	O	0.671658	1.676554	0.613493
O5	O	-0.001521	1.349740	0.113482
O6	O	0.498479	1.849740	0.613482
O7	O	0.328819	1.333707	0.113502
O8	O	0.828819	1.833707	0.613502
O9	O	-0.001534	1.349739	-0.113500
O10	O	0.498466	1.849739	0.386500
O11	O	0.171645	1.176553	-0.113489
O12	O	0.671645	1.676553	0.386511
O13	O	0.155627	1.506892	-0.113492
O14	O	0.655627	2.006892	0.386508
Zn15	Zn	0.163634	1.341723	-0.149529
Zn16	Zn	0.663634	1.841723	0.350471
Zn17	Zn	0.163651	1.341723	0.149530
Zn18	Zn	0.663651	1.841723	0.649530
O19	O	0.328806	1.333706	-0.113481
O20	O	0.828806	1.833706	0.386519
C21	C	0.170642	1.134263	0.000003
C22	C	0.670642	1.634263	0.500003
C23	C	0.167622	1.008250	0.000004
C24	C	0.667622	1.508250	0.500004
C25	C	0.165168	0.905913	0.000009
C26	C	0.665168	1.405913	0.500009
C27	C	0.162100	0.777527	0.000010
C28	C	0.662100	1.277527	0.500010
C29	C	-0.043819	1.348732	-0.000008
C30	C	0.456181	1.848732	0.499992
C31	C	-0.169832	1.345718	-0.000007
C32	C	0.330168	1.845718	0.499993
C33	C	-0.400545	1.340175	0.000016
C34	C	0.099455	1.840175	0.500016
C35	C	-0.272160	1.343255	0.000003
C36	C	0.227840	1.843255	0.500003
C37	C	0.371104	1.334714	0.000013
C38	C	0.871104	1.834714	0.500013
C39	C	0.497118	1.337728	0.000021
C40	C	0.997118	1.837728	0.500021
C41	C	0.156643	1.549183	0.000002
C42	C	0.656643	2.049183	0.500002
C43	C	0.159663	1.675196	0.000010
C44	C	0.659663	2.175196	0.500010
N45	N	0.163654	1.341724	0.353630
N46	N	0.663654	1.841724	0.853630
N47	N	0.163622	1.341731	-0.353628
N48	N	0.663622	1.841731	0.146372
C49	C	0.090779	1.414599	0.421402
C50	C	0.590779	1.914599	0.921402
C51	C	0.090761	1.414603	0.578565
C52	C	0.590761	1.914603	1.078565
H53	H	0.028365	1.476990	0.636846
H54	H	0.528365	1.976990	1.136846
N55	N	0.246266	1.259073	0.569188
N56	N	0.746266	1.759073	1.069188
H57	H	0.296763	1.302808	0.509914
H58	H	0.796763	1.802808	1.009914
H59	H	0.294808	1.210462	0.636125
H60	H	0.794808	1.710462	1.136125
N61	N	0.008154	1.497252	0.344156
N62	N	0.508154	1.997252	0.844156
H63	H	0.019881	1.485535	0.242833
H64	H	0.519881	1.985535	0.742833
H65	H	-0.072472	1.483647	0.369032
H66	H	0.427528	1.983647	0.869032
N67	N	0.246278	1.259080	0.430890
N68	N	0.746278	1.759080	0.930890
H69	H	0.232704	1.178423	0.406092
H70	H	0.732704	1.678423	0.906092
H71	H	0.326906	1.272741	0.406093
H72	H	0.826906	1.772741	0.906093
