data_functionalizedCrystal
_audit_creation_method	'MofGen! by Chris Wilmer'
_symmetry_space_group_name_H-M	'P1'
_symmetry_Int_Tables_number	1
_symmetry_cell_setting	triclinic
loop_
_symmetry_equiv_pos_as_xyz
  x,y,z
_cell_length_a	17.038272
_cell_length_b	17.019234
_cell_length_c	9.130313
_cell_angle_alpha	86.117456
_cell_angle_beta	90.005249
_cell_angle_gamma	87.240293
loop_
_atom_site_label
_atom_site_type_symbol
_atom_site_fract_x
_atom_site_fract_y
_atom_site_fract_z
O1	O	1.037203	0.171284	-0.143229
O2	O	1.537203	0.671284	0.356771
O3	O	0.809575	0.168564	-0.142928
O4	O	1.309575	0.668564	0.357072
O5	O	0.929748	0.055517	-0.128632
O6	O	1.429748	0.555517	0.371368
O7	O	0.917030	0.284331	-0.157525
O8	O	1.417030	0.784331	0.342475
O9	O	0.929746	0.055520	0.114966
O10	O	1.429746	0.555520	0.614966
O11	O	0.809573	0.168567	0.100670
O12	O	1.309573	0.668567	0.600670
O13	O	1.037201	0.171287	0.100370
O14	O	1.537201	0.671287	0.600370
Cu15	Cu	0.923387	0.169927	0.122762
Cu16	Cu	1.423387	0.669927	0.622762
Cu17	Cu	0.923389	0.169924	-0.165321
Cu18	Cu	1.423389	0.669924	0.334679
O19	O	0.917029	0.284334	0.086074
O20	O	1.417029	0.784334	0.586074
C21	C	0.780448	0.166092	-0.020823
C22	C	1.280448	0.666092	0.479177
C23	C	0.693662	0.158711	-0.019907
C24	C	1.193662	0.658711	0.480093
C25	C	0.929267	0.026097	-0.003121
C26	C	1.429267	0.526097	0.496879
C27	C	0.927829	-0.061571	0.007938
C28	C	1.427829	0.438429	0.507938
C29	C	0.919625	-0.557400	0.077086
C30	C	1.419625	-0.057400	0.577086
C31	C	0.920984	-0.475027	0.066702
C32	C	1.420984	0.024973	0.566702
C33	C	0.921670	-0.433834	-0.071280
C34	C	1.421670	0.066166	0.428720
C35	C	0.920989	-0.475017	-0.198884
C36	C	1.420989	0.024983	0.301116
C37	C	0.919625	-0.557388	-0.188499
C38	C	1.419625	-0.057388	0.311501
C39	C	0.925784	-0.185126	-0.109281
C40	C	1.425784	0.314874	0.390719
C41	C	0.927151	-0.102749	-0.119657
C42	C	1.427151	0.397251	0.380343
C43	C	0.927144	-0.102764	0.145930
C44	C	1.427144	0.397236	0.645930
C45	C	0.925784	-0.185137	0.156304
C46	C	1.425784	0.314863	0.656304
C47	C	0.925100	-0.226313	0.028699
C48	C	1.425100	0.273687	0.528699
C49	C	0.923061	-0.349636	-0.081897
C50	C	1.423061	0.150364	0.418103
C51	C	0.923703	-0.310510	0.039318
C52	C	1.423703	0.189490	0.539318
C53	C	0.643485	0.226472	-0.028463
C54	C	1.143485	0.726472	0.471537
C55	C	0.561941	0.219533	-0.027566
C56	C	1.061941	0.719533	0.472434
C57	C	0.530575	0.144832	-0.018125
C58	C	1.030575	0.644832	0.481875
C59	C	0.580759	0.077066	-0.009565
C60	C	1.080759	0.577066	0.490435
C61	C	0.662302	0.084006	-0.010451
C62	C	1.162302	0.584006	0.489549
C63	C	0.284840	0.120314	-0.014990
C64	C	0.784840	0.620314	0.485010
C65	C	0.203291	0.113379	-0.014109
C66	C	0.703291	0.613379	0.485891
C67	C	0.184479	0.255846	-0.032107
C68	C	0.684479	0.755846	0.467893
C69	C	0.266024	0.262780	-0.033001
C70	C	0.766024	0.762780	0.466999
C71	C	0.316200	0.195014	-0.024434
C72	C	0.816200	0.695014	0.475566
C73	C	0.447225	0.137737	-0.017213
C74	C	0.947225	0.637737	0.482787
C75	C	0.399549	0.202110	-0.025335
C76	C	0.899549	0.702110	0.474665
C77	C	1.066328	0.173759	-0.021739
C78	C	1.566328	0.673759	0.478261
C79	C	1.153114	0.181140	-0.022664
C80	C	1.653114	0.681140	0.477336
C81	C	0.917509	0.313755	-0.039440
C82	C	1.417509	0.813755	0.460560
C83	C	0.918947	0.401422	-0.050509
C84	C	1.418947	0.901422	0.449491
N85	N	0.923392	0.169930	0.325385
N86	N	1.423392	0.669930	0.825385
N87	N	0.923391	0.169915	-0.367943
N88	N	1.423391	0.669915	0.132057
C89	C	0.976618	0.119892	0.408365
C90	C	1.476618	0.619892	0.908365
C91	C	0.976616	0.119882	0.561703
C92	C	1.476616	0.619882	1.061703
C93	C	0.870159	0.219956	0.549067
C94	C	1.370159	0.719956	1.049067
C95	C	0.870158	0.219961	0.395732
C96	C	1.370158	0.719961	0.895732
C97	C	1.029851	0.069861	0.338018
C98	C	1.529851	0.569861	0.838018
C99	C	1.083082	0.019819	0.420998
C100	C	1.583082	0.519819	0.920998
C101	C	1.083080	0.019809	0.574336
C102	C	1.583080	0.519809	1.074336
C103	C	1.029847	0.069841	0.644694
C104	C	1.529847	0.569841	1.144694
H105	H	0.919070	-0.590933	0.189445
H106	H	1.419070	-0.090933	0.689445
F107	F	0.813510	0.273202	0.623950
F108	F	1.313510	0.773202	1.123950
H109	H	1.126419	-0.020921	0.363706
H110	H	1.626419	0.479079	0.863706
H111	H	0.291555	0.323609	-0.040706
H112	H	0.791555	0.823609	0.459294
F113	F	0.921732	-0.431175	-0.345735
F114	F	1.421732	0.068825	0.154265
H115	H	0.826816	0.260706	0.328169
H116	H	1.326816	0.760706	0.828169
H117	H	0.143617	0.311017	-0.039080
H118	H	0.643617	0.811017	0.460920
H119	H	0.325685	0.065134	-0.008012
H120	H	0.825685	0.565134	0.491988
H121	H	0.921547	-0.441504	0.170604
H122	H	1.421547	0.058496	0.670604
H123	H	1.029859	0.069865	0.213162
H124	H	1.529859	0.569865	0.713162
H125	H	0.923140	-0.344052	0.151661
H126	H	1.423140	0.155948	0.651661
F127	F	0.925052	-0.228972	0.303162
F128	F	1.425052	0.271028	0.803162
H129	H	0.927709	-0.069212	-0.232024
H130	H	1.427709	0.430788	0.267976
F131	F	0.927870	-0.058936	0.281726
F132	F	1.427870	0.441064	0.781726
F133	F	0.715704	0.011886	-0.001340
F134	F	1.215704	0.511886	0.498660
F135	F	0.918900	-0.601212	-0.324304
F136	F	1.418900	-0.101212	0.175696
H137	H	0.925234	-0.218642	-0.213186
H138	H	1.425234	0.281358	0.286814
F139	F	0.923823	-0.305790	-0.228743
F140	F	1.423823	0.194210	0.271257
H141	H	1.126418	-0.020942	0.641898
H142	H	1.626418	0.479058	1.141898
H143	H	0.669015	0.287301	-0.036152
H144	H	1.169015	0.787301	0.463848
H145	H	0.421678	0.076915	-0.009485
H146	H	0.921678	0.576915	0.490515
H147	H	0.177758	0.052546	-0.006422
H148	H	0.677758	0.552546	0.493578
F149	F	0.508541	0.291654	-0.036678
F150	F	1.008541	0.791654	0.463322
H151	H	0.555215	0.016243	-0.001857
H152	H	1.055215	0.516243	0.498143
H153	H	1.029845	0.069824	0.769553
H154	H	1.529845	0.569824	1.269553
H155	H	0.425091	0.262931	-0.033014
H156	H	0.925091	0.762931	0.466986
