data_functionalizedCrystal
_audit_creation_method	'MofGen! by Chris Wilmer'
_symmetry_space_group_name_H-M	'P1'
_symmetry_Int_Tables_number	1
_symmetry_cell_setting	triclinic
loop_
_symmetry_equiv_pos_as_xyz
  x,y,z
_cell_length_a	16.992694
_cell_length_b	9.065218
_cell_length_c	7.540329
_cell_angle_alpha	90.001757
_cell_angle_beta	89.997336
_cell_angle_gamma	87.842054
loop_
_atom_site_label
_atom_site_type_symbol
_atom_site_fract_x
_atom_site_fract_y
_atom_site_fract_z
O1	O	-1.042613	-0.313083	-0.147248
O2	O	-0.542613	0.186917	0.352752
O3	O	-0.814303	-0.309648	-0.147301
O4	O	-0.314303	0.190352	0.352699
O5	O	-0.933177	-0.097161	-0.147270
O6	O	-0.433177	0.402839	0.352730
O7	O	-0.923739	-0.525570	-0.147279
O8	O	-0.423739	-0.025570	0.352721
O9	O	-0.933170	-0.097157	0.147695
O10	O	-0.433170	0.402843	0.647695
O11	O	-0.814296	-0.309644	0.147664
O12	O	-0.314296	0.190356	0.647664
O13	O	-1.042606	-0.313079	0.147717
O14	O	-0.542606	0.186921	0.647717
Cu15	Cu	-0.928450	-0.311361	0.174623
Cu16	Cu	-0.428450	0.188639	0.674623
Cu17	Cu	-0.928459	-0.311365	-0.174207
Cu18	Cu	-0.428459	0.188635	0.325793
O19	O	-0.923732	-0.525566	0.147686
O20	O	-0.423732	-0.025566	0.647686
C21	C	-0.785056	-0.305227	0.000175
C22	C	-0.285056	0.194773	0.500175
C23	C	-0.697918	-0.292043	0.000155
C24	C	-0.197918	0.207957	0.500155
C25	C	-0.932267	-0.042088	0.000210
C26	C	-0.432267	0.457912	0.500210
C27	C	-0.929555	0.122007	0.000200
C28	C	-0.429555	0.622007	0.500200
C29	C	-1.071853	-0.317499	0.000237
C30	C	-0.571853	0.182501	0.500237
C31	C	-1.158991	-0.330683	0.000246
C32	C	-0.658991	0.169317	0.500246
C33	C	-0.648581	-0.419249	0.000153
C34	C	-0.148581	0.080751	0.500153
C35	C	-0.566706	-0.406853	0.000178
C36	C	-0.066706	0.093147	0.500178
C37	C	-0.534170	-0.267249	0.000192
C38	C	-0.034170	0.232751	0.500192
C39	C	-0.583514	-0.140034	0.000198
C40	C	-0.083514	0.359966	0.500198
C41	C	-0.665387	-0.152432	0.000186
C42	C	-0.165387	0.347568	0.500186
C43	C	-0.290208	-0.215866	0.000240
C44	C	0.209792	0.284134	0.500240
C45	C	-0.208328	-0.203477	0.000247
C46	C	0.291672	0.296523	0.500247
C47	C	-0.191526	-0.470298	0.000230
C48	C	0.308474	0.029702	0.500230
C49	C	-0.273402	-0.482683	0.000207
C50	C	0.226598	0.017317	0.500207
C51	C	-0.322738	-0.355468	0.000223
C52	C	0.177262	0.144532	0.500223
N53	N	-0.450482	-0.254575	0.000211
N54	N	0.049518	0.245425	0.500211
N55	N	-0.406425	-0.368144	0.000216
N56	N	0.093575	0.131856	0.500216
C57	C	-0.924643	-0.580639	0.000202
C58	C	-0.424643	-0.080639	0.500202
C59	C	-0.927355	-0.744733	0.000200
C60	C	-0.427355	-0.244733	0.500200
N61	N	-0.928450	-0.311358	0.419972
N62	N	-0.428450	0.188642	0.919972
N63	N	-0.928465	-0.311358	-0.419556
N64	N	-0.428465	0.188642	0.080444
H65	H	-0.675065	-0.532930	0.000141
H66	H	-0.175065	-0.032930	0.500141
H67	H	-0.330368	-0.112277	0.000255
H68	H	0.169632	0.387723	0.500255
C69	C	-0.547721	0.013532	0.000216
C70	C	-0.047721	0.513532	0.500216
N71	N	-0.520764	0.129201	0.000223
N72	N	-0.020764	0.629201	0.500223
H73	H	-0.151349	-0.573869	0.000221
H74	H	0.348651	-0.073869	0.500221
H75	H	-0.705557	-0.048847	0.000186
H76	H	-0.205557	0.451153	0.500186
H77	H	-0.526539	-0.510438	0.000175
H78	H	-0.026539	-0.010438	0.500175
H79	H	-0.299886	-0.596363	0.000176
H80	H	0.200114	-0.096363	0.500176
C81	C	-0.172541	-0.049896	0.000260
C82	C	0.327459	0.450104	0.500260
N83	N	-0.145586	0.065776	0.000265
N84	N	0.354414	0.565776	0.500265
