data_functionalizedCrystal
_audit_creation_method	'MofGen! by Chris Wilmer'
_symmetry_space_group_name_H-M	'P1'
_symmetry_Int_Tables_number	1
_symmetry_cell_setting	triclinic
loop_
_symmetry_equiv_pos_as_xyz
  x,y,z
_cell_length_a	12.594516
_cell_length_b	12.827893
_cell_length_c	12.827885
_cell_angle_alpha	90.019462
_cell_angle_beta	89.971946
_cell_angle_gamma	89.983977
loop_
_atom_site_label
_atom_site_type_symbol
_atom_site_fract_x
_atom_site_fract_y
_atom_site_fract_z
Zn1	Zn	-0.423691	-1.597667	-0.590861
Zn2	Zn	-0.601707	-1.597558	-0.416127
Zn3	Zn	-0.423743	-1.422908	-0.416135
Zn4	Zn	-0.601628	-1.422891	-0.590827
O5	O	-0.512693	-1.510256	-0.503487
O6	O	-0.447317	-1.743888	-0.567693
O7	O	-0.578155	-1.574352	-0.269892
O8	O	-0.274791	-1.446142	-0.439330
O9	O	-0.578105	-1.743809	-0.439317
O10	O	-0.274752	-1.574537	-0.567701
O11	O	-0.447405	-1.446037	-0.269898
O12	O	-0.447329	-1.276669	-0.439297
O13	O	-0.577970	-1.446114	-0.737067
O14	O	-0.578020	-1.276658	-0.567642
O15	O	-0.447240	-1.574521	-0.737093
O16	O	-0.750643	-1.574336	-0.439283
O17	O	-0.750584	-1.446009	-0.567635
C18	C	-0.512672	-1.238746	-0.503468
C19	C	-0.512689	-1.122593	-0.503484
C20	C	-0.789234	-1.510188	-0.503477
C21	C	-0.907539	-1.510254	-0.503508
C22	C	-0.512590	-1.510328	-0.776058
C23	C	-0.512547	-1.510359	-0.892211
C24	C	-0.976799	-1.440450	-0.573269
C25	C	-1.047668	-1.414988	-0.477914
C26	C	-1.047469	-1.535811	-0.598879
C27	C	-0.976849	-1.484741	-0.408102
C28	C	-0.976645	-1.605609	-0.529132
C29	C	-1.047481	-1.580183	-0.433711
C30	C	-0.235072	-1.510353	-0.503521
C31	C	-0.116766	-1.510395	-0.503535
C32	C	-0.512714	-1.782826	-0.503508
C33	C	-0.512723	-1.898979	-0.503517
C34	C	-0.577460	-1.070830	-0.566895
C35	C	-0.577479	-0.950780	-0.566914
C36	C	-0.447835	-1.446885	-0.943999
C37	C	-0.447789	-1.446915	-1.064049
C38	C	-0.512718	-1.510244	-0.231978
C39	C	-0.512461	-1.510416	-0.115825
H40	H	-1.078887	-1.334413	-0.456263
H41	H	-0.632935	-0.906265	-0.621199
O42	O	-0.381743	-1.381934	-1.117055
C43	C	-0.405003	-1.277742	-1.090467
H44	H	-0.445879	-1.275472	-1.011189
H45	H	-0.459755	-1.242597	-1.151866
C46	C	-0.251029	-1.217257	-1.182946
C47	C	-0.301226	-1.214469	-1.085572
H48	H	-0.187016	-1.178225	-1.179931
H49	H	-0.235360	-1.287453	-1.200863
H50	H	-0.296666	-1.187972	-1.234102
H51	H	-0.255594	-1.243766	-1.034421
H52	H	-0.316885	-1.144276	-1.067647
H53	H	-0.567915	-1.564722	-0.936750
O54	O	-0.578712	-1.575200	-1.062823
C55	C	-0.684808	-1.552334	-1.089384
H56	H	-0.687053	-1.512254	-1.168655
H57	H	-0.720617	-1.498522	-1.027968
C58	C	-0.746538	-1.703418	-0.996915
C59	C	-0.749296	-1.654198	-1.094281
H60	H	-0.786320	-1.766251	-0.999932
H61	H	-0.675060	-1.718822	-0.979017
H62	H	-0.776378	-1.658564	-0.945746
H63	H	-0.719445	-1.699047	-1.145446
H64	H	-0.820771	-1.638805	-1.112188
H65	H	-0.945763	-1.381314	-0.632178
O66	O	-0.381928	-1.381973	-0.890757
C67	C	-0.442607	-1.314481	-0.827630
H68	H	-0.523294	-1.351320	-0.811384
H69	H	-0.454238	-1.237006	-0.869622
C70	C	-0.285083	-1.250403	-0.743847
C71	C	-0.384181	-1.295653	-0.723887
H72	H	-0.249042	-1.238785	-0.679855
H73	H	-0.244201	-1.295871	-0.786379
H74	H	-0.294790	-1.185846	-0.778843
H75	H	-0.374473	-1.360215	-0.688903
H76	H	-0.425061	-1.250196	-0.681346
O77	O	-0.939826	-1.458876	-0.311941
C78	C	-0.827883	-1.459096	-0.313092
H79	H	-0.798541	-1.447409	-0.396353
H80	H	-0.797520	-1.536871	-0.282119
C81	C	-0.822295	-1.384415	-0.141454
C82	C	-0.786256	-1.370052	-0.243716
H83	H	-0.796615	-1.329492	-0.098657
H84	H	-0.897712	-1.384270	-0.140676
H85	H	-0.796989	-1.449230	-0.115657
H86	H	-0.811572	-1.305244	-0.269516
H87	H	-0.710841	-1.370183	-0.244497
H88	H	-0.457271	-0.943488	-0.449221
H89	H	-1.078321	-1.639274	-0.374660
H90	H	-0.945428	-1.686165	-0.550829
O91	O	-0.446599	-1.069563	-0.438580
C92	C	-0.469732	-1.096090	-0.334362
H93	H	-0.510565	-1.175356	-0.332053
H94	H	-0.524476	-1.034659	-0.299139
C95	C	-0.315739	-1.003620	-0.274058
C96	C	-0.365883	-1.100980	-0.271221
H97	H	-0.251681	-1.006632	-0.235107
H98	H	-0.300155	-0.985744	-0.344270
H99	H	-0.361370	-0.952437	-0.244706
H100	H	-0.320257	-1.152158	-0.300584
H101	H	-0.381456	-1.118864	-0.201012
H102	H	-1.078491	-1.557371	-0.679523
H103	H	-0.632895	-1.115391	-0.621174
