data_functionalizedCrystal
_audit_creation_method	'MofGen! by Chris Wilmer'
_symmetry_space_group_name_H-M	'P1'
_symmetry_Int_Tables_number	1
_symmetry_cell_setting	triclinic
loop_
_symmetry_equiv_pos_as_xyz
  x,y,z
_cell_length_a	16.625539
_cell_length_b	15.298073
_cell_length_c	15.297327
_cell_angle_alpha	69.205280
_cell_angle_beta	99.647259
_cell_angle_gamma	99.712339
loop_
_atom_site_label
_atom_site_type_symbol
_atom_site_fract_x
_atom_site_fract_y
_atom_site_fract_z
Zn1	Zn	-0.685599	-1.357806	-0.124516
Zn2	Zn	-0.570620	-1.330765	-0.280064
Zn3	Zn	-0.530833	-1.202263	-0.151428
Zn4	Zn	-0.685462	-1.175315	-0.306873
O5	O	-0.618129	-1.266537	-0.215720
O6	O	-0.687056	-1.484371	-0.122667
O7	O	-0.452511	-1.313680	-0.263043
O8	O	-0.534769	-1.245490	-0.017706
O9	O	-0.602581	-1.464504	-0.236947
O10	O	-0.648476	-1.359767	0.002066
O11	O	-0.423279	-1.219270	-0.168534
O12	O	-0.534636	-1.068536	-0.194530
O13	O	-0.798312	-1.199562	-0.282640
O14	O	-0.648241	-1.048738	-0.308735
O15	O	-0.798413	-1.333637	-0.148663
O16	O	-0.602448	-1.287550	-0.413772
O17	O	-0.686821	-1.173342	-0.433468
C18	C	-0.587106	-1.024890	-0.257463
C19	C	-0.573857	-0.921509	-0.275343
C20	C	-0.712811	-0.671405	-0.088118
C21	C	-0.725264	-0.768537	-0.071321
C22	C	-0.687413	-0.806785	-0.122325
C23	C	-0.637107	-0.747891	-0.190129
C24	C	-0.624658	-0.650749	-0.206932
C25	C	-0.599260	-0.786129	-0.241139
C26	C	-0.548954	-0.727235	-0.308943
C27	C	-0.536506	-0.630103	-0.325743
C28	C	-0.574357	-0.591855	-0.274739
C29	C	-0.611710	-0.883271	-0.224336
C30	C	-0.523557	-0.862614	-0.343150
C31	C	-0.511103	-0.765483	-0.359947
C32	C	-0.828436	-1.266610	-0.215640
C33	C	-0.918057	-1.266641	-0.215606
C34	C	-1.246225	-1.266702	-0.215495
C35	C	-1.154919	-1.266682	-0.215529
C36	C	-1.082144	-1.266672	-0.215551
C37	C	-0.990832	-1.266651	-0.215584
C38	C	-0.408637	-1.266530	-0.215723
C39	C	-0.319007	-1.266725	-0.215464
C40	C	-0.648958	-1.224613	-0.457363
C41	C	-0.662184	-1.206762	-0.560723
C42	C	-0.649264	-0.509129	-0.173807
C43	C	-0.662510	-0.612511	-0.155925
C44	C	-0.523919	-1.394500	-0.810900
C45	C	-0.511488	-1.411271	-0.713787
C46	C	-0.549161	-1.360146	-0.675516
C47	C	-0.599268	-1.292246	-0.734368
C48	C	-0.611695	-1.275468	-0.831491
C49	C	-0.636937	-1.241114	-0.696108
C50	C	-0.687043	-1.173214	-0.754959
C51	C	-0.699469	-1.156440	-0.852072
C52	C	-0.661796	-1.207565	-0.890343
C53	C	-0.624509	-1.257891	-0.598984
C54	C	-0.712285	-1.138859	-0.619576
C55	C	-0.724716	-1.122088	-0.716688
C56	C	-0.587200	-1.308651	0.026870
C57	C	-0.574020	-1.326597	0.130248
H58	H	-0.564226	-0.512762	-0.288418
H59	H	-0.671917	-1.193916	-0.969419
C60	C	-0.456554	-0.701373	-0.433559
C61	C	-0.453772	-0.608119	-0.437369
C62	C	-0.403539	-0.549035	-0.505178
H63	H	-0.402647	-0.719512	-0.417200
H64	H	-0.478284	-0.706401	-0.493342
H65	H	-0.432038	-0.603095	-0.377600
H66	H	-0.507666	-0.589952	-0.453740
H67	H	-0.425270	-0.554063	-0.564960
H68	H	-0.349636	-0.567182	-0.488812
H69	H	-0.401651	-0.485755	-0.507778
H70	H	-0.583712	-1.313176	-0.551076
H71	H	-0.539036	-1.373804	-0.596442
C72	C	-0.482915	-1.450064	-0.852278
C73	C	-0.436361	-1.513106	-0.779959
C74	C	-0.398563	-1.564301	-0.818042
H75	H	-0.523747	-1.484114	-0.883100
H76	H	-0.448006	-1.407972	-0.896339
H77	H	-0.471266	-1.555193	-0.735915
H78	H	-0.395515	-1.479081	-0.749131
H79	H	-0.363654	-1.522209	-0.862103
H80	H	-0.439400	-1.598346	-0.848864
H81	H	-0.366966	-1.607075	-0.768981
H82	H	-0.492740	-0.893754	-0.384686
H83	H	-0.740258	-1.101140	-0.899990
H84	H	-0.470691	-1.466554	-0.665874
C85	C	-0.779049	-1.048372	-0.780752
C86	C	-0.781850	-1.044611	-0.873994
C87	C	-0.831884	-0.976707	-0.933037
H88	H	-0.832974	-1.064628	-0.762562
H89	H	-0.757153	-0.988595	-0.775755
H90	H	-0.803749	-1.104375	-0.878988
H91	H	-0.727939	-1.028343	-0.892214
H92	H	-0.809987	-0.916930	-0.928040
H93	H	-0.885805	-0.992969	-0.914839
H94	H	-0.833785	-0.974140	-0.996309
H95	H	-0.742960	-1.097226	-0.588417
H96	H	-0.652668	-0.931213	-0.169128
H97	H	-0.495551	-0.582152	-0.380960
C98	C	-0.701035	-0.912213	-0.104261
C99	C	-0.736914	-0.929011	-0.187269
C100	C	-0.749484	-1.026125	-0.170655
H101	H	-0.649826	-0.937069	-0.084338
H102	H	-0.736449	-0.941839	-0.056612
H103	H	-0.701501	-0.899397	-0.234902
H104	H	-0.788129	-0.904178	-0.207204
H105	H	-0.784898	-1.055751	-0.123006
H106	H	-0.698272	-1.050972	-0.150731
H107	H	-0.773835	-1.037535	-0.226970
C108	C	-0.779995	-0.832345	0.002221
C109	C	-0.859313	-0.805211	-0.022213
C110	C	-0.909752	-0.863962	0.045525
H111	H	-0.782096	-0.895699	0.004988
H112	H	-0.758308	-0.827236	0.061983
H113	H	-0.880995	-0.810328	-0.081959
H114	H	-0.857239	-0.741867	-0.024972
H115	H	-0.888065	-0.858853	0.105287
H116	H	-0.911846	-0.927312	0.048286
H117	H	-0.963573	-0.845554	0.028960
C118	C	-0.753798	-0.629705	-0.032815
C119	C	-0.732112	-0.532035	-0.062031
C120	C	-0.769849	-0.493590	-0.011095
H121	H	-0.811755	-0.643176	-0.043708
H122	H	-0.736134	-0.656399	0.032455
H123	H	-0.749781	-0.505349	-0.127286
H124	H	-0.674161	-0.518536	-0.051136
H125	H	-0.752185	-0.520285	0.054176
H126	H	-0.827805	-0.507068	-0.021992
H127	H	-0.755135	-0.427319	-0.030904
