data_functionalizedCrystal
_audit_creation_method	'MofGen! by Chris Wilmer'
_symmetry_space_group_name_H-M	'P1'
_symmetry_Int_Tables_number	1
_symmetry_cell_setting	triclinic
loop_
_symmetry_equiv_pos_as_xyz
  x,y,z
_cell_length_a	28.938199
_cell_length_b	28.937346
_cell_length_c	28.934044
_cell_angle_alpha	60.005004
_cell_angle_beta	60.009897
_cell_angle_gamma	59.994060
loop_
_atom_site_label
_atom_site_type_symbol
_atom_site_fract_x
_atom_site_fract_y
_atom_site_fract_z
O1	O	0.064043	-0.675186	0.564597
O2	O	0.024124	-0.525682	0.454913
O3	O	0.118795	-0.620275	0.454833
O4	O	-0.030629	-0.580593	0.564678
O5	O	0.150204	-0.588870	0.486157
O6	O	0.055533	-0.494276	0.486238
O7	O	0.095452	-0.643780	0.595921
Cu8	Cu	0.078360	-0.566161	0.543940
Cu9	Cu	0.041215	-0.603301	0.506895
O10	O	0.000780	-0.549187	0.596002
N11	N	0.104487	-0.540042	0.569998
N12	N	0.015094	-0.629425	0.480837
C13	C	0.165467	-0.323909	0.630915
C14	C	0.165587	-0.479117	0.786068
C15	C	0.165481	-0.479095	0.630906
C16	C	0.320696	-0.479083	0.630835
C17	C	0.182557	-0.375118	0.647971
C18	C	0.182626	-0.462038	0.734858
C19	C	0.269485	-0.462018	0.647928
C20	C	0.182566	-0.462025	0.647966
C21	C	0.143714	-0.258726	0.609206
C22	C	0.143738	-0.500820	0.609192
C23	C	0.204309	-0.440300	0.669680
C24	C	0.415481	-0.462740	0.580919
C25	C	0.474732	-0.482485	0.561145
C26	C	0.474757	-0.578356	0.597704
C27	C	0.415508	-0.558609	0.617479
C28	C	0.157989	-0.229089	0.550957
C29	C	0.138212	-0.169834	0.531225
C30	C	0.089890	-0.169857	0.627992
C31	C	0.109667	-0.229112	0.647725
C32	C	0.085482	-0.486515	0.623535
C33	C	0.065722	-0.506265	0.603789
C34	C	0.162467	-0.554625	0.555370
C35	C	0.182230	-0.534875	0.575110
C36	C	0.085661	-0.486557	0.880902
C37	C	0.065952	-0.506323	0.940155
C38	C	0.162734	-0.554693	0.940102
C39	C	0.182441	-0.534928	0.880847
C40	C	0.143904	-0.500859	0.851249
C41	C	0.385871	-0.500801	0.609083
C42	C	-0.110907	-0.668480	0.441278
C43	C	-0.024049	-0.668588	0.441475
C44	C	-0.045729	-0.690282	0.419668
C45	C	-0.062146	-0.785032	0.469507
C46	C	-0.042446	-0.844287	0.489286
C47	C	0.053426	-0.844399	0.452899
C48	C	0.033725	-0.785144	0.433120
C49	C	-0.140617	-0.682751	0.499509
C50	C	-0.199867	-0.662928	0.519152
C51	C	-0.199694	-0.614571	0.422330
C52	C	-0.140443	-0.634393	0.402687
C53	C	-0.038320	-0.610337	0.427144
C54	C	-0.018610	-0.590621	0.446974
C55	C	0.029642	-0.687402	0.495454
C56	C	0.009933	-0.707121	0.475630
C57	C	-0.038148	-0.610347	0.324832
C58	C	-0.018301	-0.590634	0.265579
C59	C	0.030035	-0.687421	0.265643
C60	C	0.010190	-0.707133	0.324897
C61	C	-0.023903	-0.668595	0.354491
C62	C	-0.024062	-0.755463	0.441426
N63	N	0.503527	-0.540005	0.569810
O64	O	0.684453	-0.545211	0.434650
O65	O	0.684643	-0.655237	0.584005
O66	O	0.684567	-0.654986	0.489282
O67	O	0.684529	-0.545462	0.529373
O68	O	0.590438	-0.623674	0.520735
O69	O	0.590513	-0.623924	0.615457
O70	O	0.590323	-0.513899	0.466102
Cu71	Cu	0.581823	-0.566053	0.543652
Cu72	Cu	0.693143	-0.603083	0.506456
O73	O	0.590399	-0.514149	0.560825
N74	N	0.771439	-0.629131	0.480292
N75	N	0.104456	-0.141061	0.570015
O76	O	-0.030629	0.039964	0.564688
O77	O	0.118732	0.039984	0.454661
O78	O	0.023980	0.039958	0.454946
O79	O	0.064123	0.039990	0.564403
O80	O	0.055392	-0.054179	0.486321
O81	O	0.150144	-0.054153	0.486036
O82	O	0.000784	-0.054173	0.596063
Cu83	Cu	0.078332	-0.062759	0.543914
Cu84	Cu	0.041183	0.048570	0.506810
O85	O	0.095535	-0.054147	0.595778
N86	N	0.015053	0.126872	0.480710
N87	N	0.104760	-0.540096	0.968910
O88	O	0.099447	-0.675167	1.149923
O89	O	-0.010552	-0.525757	1.149951
O90	O	-0.010297	-0.620493	1.149918
O91	O	0.099192	-0.580431	1.149956
O92	O	0.021064	-0.589100	1.055785
O93	O	0.020809	-0.494365	1.055818
O94	O	0.130808	-0.643774	1.055790
Cu95	Cu	0.078672	-0.566203	1.047209
Cu96	Cu	0.041584	-0.603328	1.158532
O97	O	0.130553	-0.549038	1.055823
N98	N	0.015495	-0.629442	1.236831
C99	C	0.036087	-0.491140	0.455465
C100	C	0.153325	-0.608283	0.455364
C101	C	0.083488	-0.678322	0.595370
C102	C	-0.033750	-0.561180	0.595470
C103	C	0.637601	-0.654732	0.618548
C104	C	0.637509	-0.654422	0.501245
C105	C	0.637362	-0.514403	0.431560
C106	C	0.637458	-0.514713	0.548862
C107	C	0.153215	-0.006966	0.455158
C108	C	0.035916	-0.007114	0.455550
C109	C	-0.033739	-0.007106	0.595527
C110	C	0.083600	-0.007076	0.595174
C111	C	-0.010020	-0.491238	1.102888
C112	C	-0.009698	-0.608550	1.102828
C113	C	0.130276	-0.678293	1.102853
C114	C	0.129961	-0.560974	1.102892
H115	H	0.054276	-0.458811	0.856808
C116	C	0.637439	-0.468232	0.560448
H117	H	0.637474	-0.482067	0.597921
H118	H	0.670237	-0.457895	0.534320
H119	H	0.604583	-0.436058	0.556260
H120	H	0.196241	-0.616742	0.420869
C121	C	0.024573	-0.433127	0.408923
H122	H	0.057310	-0.432972	0.376005
H123	H	-0.006297	-0.426259	0.400100
H124	H	0.015614	-0.404357	0.421949
C125	C	-0.056148	-0.620103	1.102759
H126	H	-0.089089	-0.587378	1.102756
H127	H	-0.043054	-0.629076	1.069916
H128	H	-0.064967	-0.650979	1.135573
C129	C	0.637281	-0.467735	0.373618
H130	H	0.637273	-0.481410	0.349837
H131	H	0.604437	-0.435587	0.378604
H132	H	0.670091	-0.457425	0.356662
H133	H	-0.076669	-0.552723	0.629962
H134	H	-0.044554	-0.448327	1.102896
C135	C	0.024311	-0.007124	0.409092
H136	H	0.057015	-0.007117	0.376144
H137	H	0.015334	-0.039955	0.422173
H138	H	-0.006573	0.025704	0.400291
C139	C	0.095002	-0.736340	0.641907
H140	H	0.132470	-0.760046	0.628125
H141	H	0.090774	-0.731439	0.674079
H142	H	0.068867	-0.753333	0.652219
H143	H	0.092195	-0.007066	0.629560
H144	H	0.637649	-0.689271	0.661445
H145	H	0.196022	-0.006699	0.420530
C146	C	-0.091683	-0.007114	0.642192
H147	H	-0.115477	-0.007119	0.628532
H148	H	-0.086708	-0.039938	0.674356
H149	H	-0.108617	0.025721	0.652470
H150	H	0.164813	-0.721202	1.102837
C151	C	0.637526	-0.700903	0.489659
H152	H	0.637483	-0.687066	0.452189
H153	H	0.670375	-0.733079	0.493851
H154	H	0.604721	-0.711233	0.515788
H155	H	0.164358	-0.552401	1.102897
H156	H	0.064741	-0.761071	0.410254
C157	C	0.001883	-0.490578	0.972767
H158	H	-0.018242	-0.467452	0.946650
H159	H	-0.007821	-0.524083	0.995881
H160	H	-0.007815	-0.470478	0.995883
H161	H	0.194117	-0.582425	0.964198
H162	H	0.054136	-0.458786	0.651283
C163	C	0.246511	-0.550664	0.848229
H164	H	0.252731	-0.534020	0.808701
H165	H	0.263164	-0.537039	0.857929
H166	H	0.263161	-0.590647	0.857929
C167	C	0.001642	-0.490528	0.619554
H168	H	-0.004613	-0.507160	0.602906
H169	H	-0.014980	-0.504164	0.659533
H170	H	-0.015011	-0.450545	0.605937
C171	C	0.204811	-0.592125	0.517920
H172	H	0.184698	-0.601853	0.508229
H173	H	0.227928	-0.572048	0.484404
H174	H	0.227922	-0.625627	0.538041
C175	C	0.246311	-0.550606	0.559333
H176	H	0.266405	-0.573719	0.536209
H177	H	0.256008	-0.517097	0.539232
H178	H	0.256054	-0.570719	0.592826
H179	H	0.391402	-0.589605	0.640414
H180	H	0.498841	-0.451490	0.538213
C181	C	0.507356	-0.641942	0.606935
H182	H	0.481235	-0.661784	0.626545
H183	H	0.530451	-0.647435	0.571331
H184	H	0.530488	-0.655839	0.628635
H185	H	0.098041	-0.253238	0.695156
C186	C	-0.232186	-0.577082	0.379882
H187	H	-0.206006	-0.571426	0.342386
H188	H	-0.255305	-0.595139	0.385525
H189	H	-0.255287	-0.541546	0.385541
C190	C	0.382882	-0.399151	0.571687
H191	H	0.409006	-0.379313	0.552086
H192	H	0.359749	-0.385251	0.549990
H193	H	0.359787	-0.393658	0.607294
H194	H	0.185713	-0.253197	0.519589
H195	H	0.149834	-0.145702	0.483792
H196	H	0.062174	-0.145744	0.659359
H197	H	-0.029909	-0.543201	0.241439
H198	H	-0.065911	-0.578960	0.348925
H199	H	0.057785	-0.718806	0.241554
H200	H	-0.065985	-0.578958	0.399332
C201	C	0.025859	-0.771208	0.357518
H202	H	0.048998	-0.791335	0.331405
H203	H	0.045910	-0.780947	0.380696
H204	H	-0.007671	-0.780874	0.380570
H205	H	0.057315	-0.718782	0.523258
C206	C	-0.034730	-0.526548	0.431639
H207	H	-0.057915	-0.506423	0.408582
H208	H	-0.054912	-0.517191	0.465353
H209	H	-0.001430	-0.516501	0.411635
H210	H	0.021552	-0.754553	0.487300
H211	H	0.100481	-0.868567	0.446139
H212	H	-0.073458	-0.868361	0.512142
H213	H	-0.116569	-0.710512	0.530934
C214	C	-0.125709	-0.752384	0.478643
H215	H	-0.131991	-0.712858	0.462846
H216	H	-0.137934	-0.762079	0.460690
H217	H	-0.146417	-0.762067	0.518035
C218	C	-0.232550	-0.678625	0.583209
H219	H	-0.206473	-0.701769	0.603379
H220	H	-0.255664	-0.645106	0.592901
H221	H	-0.255670	-0.698695	0.592866
H222	H	-0.116252	-0.622767	0.355267
