data_functionalizedCrystal
_audit_creation_method	'MofGen! by Chris Wilmer'
_symmetry_space_group_name_H-M	'P1'
_symmetry_Int_Tables_number	1
_symmetry_cell_setting	triclinic
loop_
_symmetry_equiv_pos_as_xyz
  x,y,z
_cell_length_a	14.519709
_cell_length_b	16.992695
_cell_length_c	15.455313
_cell_angle_alpha	87.152573
_cell_angle_beta	92.680598
_cell_angle_gamma	87.174184
loop_
_atom_site_label
_atom_site_type_symbol
_atom_site_fract_x
_atom_site_fract_y
_atom_site_fract_z
O1	O	-1.235028	-0.099376	-0.072018
O2	O	-0.967421	-0.111480	-0.072044
O3	O	-1.100152	0.008716	-0.072024
O4	O	-1.102298	-0.219572	-0.072038
O5	O	-1.092559	0.001871	0.072237
O6	O	-0.959829	-0.118325	0.072217
O7	O	-1.227436	-0.106221	0.072243
Cu8	Cu	-1.092939	-0.112898	0.085402
Cu9	Cu	-1.101918	-0.104803	-0.085203
O10	O	-1.094706	-0.226417	0.072223
C11	C	-1.093595	0.034510	0.000106
C12	C	-1.085360	0.121566	0.000105
C13	C	-0.929225	-0.114338	0.000083
C14	C	-0.826723	-0.112647	0.000073
C15	C	-1.265632	-0.103363	0.000114
C16	C	-1.368134	-0.105053	0.000118
C17	C	-0.451378	-0.106425	0.000113
C18	C	-0.555811	-0.108153	0.000101
C19	C	-0.639047	-0.109536	0.000092
C20	C	-0.743487	-0.111264	0.000082
C21	C	-1.101262	-0.252211	0.000091
C22	C	-1.109498	-0.339266	0.000086
N23	N	-1.086631	-0.118591	0.205397
C24	C	-1.164819	0.171694	0.000114
C25	C	-1.157076	0.253492	0.000105
C26	C	-1.069873	0.285159	0.000093
C27	C	-0.990408	0.235025	0.000082
C28	C	-0.998152	0.153229	0.000084
C29	C	-1.037776	0.528803	0.000078
C30	C	-1.030038	0.610605	0.000078
C31	C	-1.196708	0.629067	0.000099
C32	C	-1.204444	0.547269	0.000107
C33	C	-1.124979	0.497141	0.000091
N34	N	-1.061956	0.368770	0.000087
N35	N	-1.132897	0.413533	0.000091
N36	N	-1.108233	-0.099104	-0.205198
C37	C	-1.143042	-0.067546	0.250799
C38	C	-1.138280	-0.071859	0.341606
C39	C	-1.077111	-0.127221	0.387009
C40	C	-1.020694	-0.178268	0.341600
C41	C	-1.025452	-0.173951	0.250795
C42	C	-1.056574	-0.145834	0.658588
C43	C	-1.051822	-0.150148	0.749400
C44	C	-1.169407	-0.043738	0.749399
C45	C	-1.174163	-0.039429	0.658592
C46	C	-1.117743	-0.090473	0.613191
N47	N	-1.072245	-0.131632	0.479829
N48	N	-1.122606	-0.086058	0.520373
H49	H	-1.221781	0.294304	0.000114
H50	H	-1.275454	0.521492	0.000117
C51	C	-0.954222	-0.238254	0.391006
C52	C	-0.891973	-0.198853	0.443171
C53	C	-0.830734	-0.254089	0.488703
H54	H	-0.921211	-0.268064	0.351060
H55	H	-0.987922	-0.272636	0.426468
H56	H	-0.858276	-0.164485	0.407712
H57	H	-0.924958	-0.169047	0.483133
H58	H	-0.864434	-0.288471	0.524165
H59	H	-0.797730	-0.283895	0.448751
H60	H	-0.788497	-0.227363	0.524108
C61	C	-0.895714	0.269369	-0.000112
C62	C	-0.851240	0.247438	-0.074349
C63	C	-0.764011	0.279069	-0.074561
H64	H	-0.859982	0.249811	0.050131
H65	H	-0.902445	0.325269	-0.000158
H66	H	-0.844504	0.191550	-0.074296
H67	H	-0.886944	0.266996	-0.124604
H68	H	-0.770742	0.334968	-0.074606
H69	H	-0.728288	0.259508	-0.024315
H70	H	-0.733828	0.264199	-0.124933
C71	C	-0.995282	-0.201351	0.609459
C72	C	-0.940718	-0.250773	0.668660
C73	C	-0.884252	-0.301936	0.623432
H74	H	-0.956583	-0.171479	0.574045
H75	H	-1.032697	-0.232419	0.574044
H76	H	-0.903307	-0.219708	0.704061
H77	H	-0.979393	-0.280663	0.704077
H78	H	-0.921666	-0.333003	0.588016
H79	H	-0.845558	-0.272056	0.588018
H80	H	-0.847230	-0.335479	0.663592
H81	H	-0.979515	-0.215516	0.213829
C82	C	-1.282957	0.683539	-0.000072
C83	C	-1.287298	0.734539	-0.074305
C84	C	-1.366748	0.784723	-0.074502
H85	H	-1.280843	0.713526	0.050174
H86	H	-1.336028	0.652994	-0.000114
H87	H	-1.234241	0.765081	-0.074256
H88	H	-1.289427	0.704574	-0.124563
H89	H	-1.419819	0.754177	-0.074543
H90	H	-1.364627	0.814704	-0.024253
H91	H	-1.369708	0.819327	-0.124871
H92	H	-0.959022	0.636384	0.000082
H93	H	-1.002009	-0.195234	0.786362
C94	C	-1.259585	0.137471	0.000079
C95	C	-1.327515	0.198884	0.000059
C96	C	-1.414827	0.167391	0.000011
H97	H	-1.263559	0.103574	0.050372
H98	H	-1.268765	0.108354	-0.050248
H99	H	-1.318339	0.227988	0.050381
H100	H	-1.323571	0.232786	-0.050231
H101	H	-1.424006	0.138275	-0.050316
H102	H	-1.418791	0.133495	0.050305
H103	H	-1.460928	0.209056	-0.000011
C104	C	-0.911922	0.098769	-0.000102
C105	C	-0.915398	0.054805	-0.074333
C106	C	-0.835972	0.004637	-0.074545
H107	H	-0.908749	0.064020	0.050145
H108	H	-0.858855	0.129317	-0.000155
H109	H	-0.968451	0.024260	-0.074272
H110	H	-0.918557	0.089533	-0.124593
H111	H	-0.782905	0.035185	-0.074598
H112	H	-0.832806	-0.030106	-0.024295
H113	H	-0.838316	-0.025193	-0.124913
H114	H	-0.973070	0.487998	0.000065
H115	H	-1.192855	-0.022468	0.213838
H116	H	-1.223972	0.005650	0.621627
C117	C	-1.199649	-0.016407	0.390744
C118	C	-1.254262	0.032979	0.331547
C119	C	-1.310821	0.084064	0.376780
H120	H	-1.162326	0.014698	0.426184
H121	H	-1.238308	-0.046362	0.426135
H122	H	-1.215607	0.062932	0.296170
H123	H	-1.291604	0.001897	0.296105
H124	H	-1.349480	0.054108	0.412171
H125	H	-1.273491	0.115163	0.412218
H126	H	-1.347888	0.117573	0.336621
H127	H	-1.215341	-0.002180	0.786373
