data_functionalizedCrystal
_audit_creation_method	'MofGen! by Chris Wilmer'
_symmetry_space_group_name_H-M	'P1'
_symmetry_Int_Tables_number	1
_symmetry_cell_setting	triclinic
loop_
_symmetry_equiv_pos_as_xyz
  x,y,z
_cell_length_a	13.897449
_cell_length_b	19.121063
_cell_length_c	13.897433
_cell_angle_alpha	92.365977
_cell_angle_beta	89.951491
_cell_angle_gamma	92.470221
loop_
_atom_site_label
_atom_site_type_symbol
_atom_site_fract_x
_atom_site_fract_y
_atom_site_fract_z
Zn1	Zn	1.458547	-0.279275	-0.561709
Zn2	Zn	1.451452	-0.396819	-0.407283
Zn3	Zn	1.297151	-0.279392	-0.400434
Zn4	Zn	1.290314	-0.396689	-0.568528
O5	O	1.374366	-0.338044	-0.484489
O6	O	1.592587	-0.294873	-0.541237
O7	O	1.430875	-0.381345	-0.271398
O8	O	1.324391	-0.181095	-0.416108
O9	O	1.587374	-0.381232	-0.427780
O10	O	1.442968	-0.181009	-0.534596
O11	O	1.317511	-0.295073	-0.266367
O12	O	1.161263	-0.294947	-0.422720
O13	O	1.312739	-0.381010	-0.702599
O14	O	1.156240	-0.381124	-0.546218
O15	O	1.436339	-0.294747	-0.697590
O16	O	1.424246	-0.495083	-0.434392
O17	O	1.305859	-0.494987	-0.552858
C18	C	1.123752	-0.338034	-0.484466
C19	C	1.016537	-0.338047	-0.484480
C20	C	1.363567	-0.520518	-0.495129
C21	C	1.359035	-0.598582	-0.499713
C22	C	0.820242	-0.338050	-0.484506
C23	C	0.929475	-0.338046	-0.484489
C24	C	1.418592	-0.635283	-0.440239
C25	C	1.414336	-0.708632	-0.444556
C26	C	1.350517	-0.745278	-0.508343
C27	C	1.290958	-0.708572	-0.567824
C28	C	1.295220	-0.635225	-0.563511
C29	C	1.334567	-0.966739	-0.524453
C30	C	1.330308	-1.040092	-0.528759
C31	C	1.453687	-1.040146	-0.405492
C32	C	1.457940	-0.966797	-0.401181
C33	C	1.398384	-0.930098	-0.460665
C34	C	1.346163	-0.820253	-0.512755
C35	C	1.402744	-0.855125	-0.456257
C36	C	1.625958	-0.338054	-0.484512
C37	C	1.733172	-0.338058	-0.484522
C38	C	1.374568	-0.337851	-0.736071
C39	C	1.374654	-0.337769	-0.843280
C40	C	1.385234	-0.154856	-0.473828
C41	C	1.389865	-0.076793	-0.469285
C42	C	1.374223	-0.338185	-0.233882
C43	C	1.374336	-0.338070	-0.126662
C44	C	1.374563	-0.337863	0.069645
C45	C	1.374439	-0.337980	-0.039594
H46	H	1.470555	-0.605450	-0.388292
C47	C	1.519197	-1.080521	-0.340067
N48	N	1.568543	-1.110932	-0.290788
H49	H	1.278351	-1.069928	-0.580719
H50	H	1.454709	-0.825285	-0.404325
C51	C	1.269103	-0.926379	-0.589937
N52	N	1.219811	-0.895978	-0.639282
H53	H	1.509906	-0.936961	-0.349240
H54	H	1.294200	-0.850099	-0.564689
H55	H	1.239000	-0.738416	-0.619765
H56	H	1.246724	-0.605344	-0.611942
H57	H	1.462832	-0.738510	-0.396125
