data_functionalizedCrystal
_audit_creation_method	'MofGen! by Chris Wilmer'
_symmetry_space_group_name_H-M	'P1'
_symmetry_Int_Tables_number	1
_symmetry_cell_setting	triclinic
loop_
_symmetry_equiv_pos_as_xyz
  x,y,z
_cell_length_a	23.532361
_cell_length_b	10.654541
_cell_length_c	9.730217
_cell_angle_alpha	90.003041
_cell_angle_beta	90.002878
_cell_angle_gamma	96.343202
loop_
_atom_site_label
_atom_site_type_symbol
_atom_site_fract_x
_atom_site_fract_y
_atom_site_fract_z
O1	O	0.756265	-0.152158	-0.114152
O2	O	0.590542	-0.174276	-0.114185
O3	O	0.677215	0.019645	-0.114159
O4	O	0.669592	-0.346078	-0.114177
O5	O	0.677212	0.019647	0.114421
O6	O	0.590539	-0.174274	0.114395
O7	O	0.756262	-0.152156	0.114428
Zn8	Zn	0.673400	-0.163215	0.150704
Zn9	Zn	0.673404	-0.163217	-0.150460
O10	O	0.669590	-0.346077	0.114403
C11	C	0.569320	-0.173721	0.000101
C12	C	0.506091	-0.172056	0.000089
C13	C	0.232801	-0.164773	-0.124501
C14	C	0.292211	-0.166349	-0.124505
O15	O	0.322944	-0.167122	-0.230469
N16	N	0.321921	-0.167144	0.000095
C17	C	0.292218	-0.166350	0.124706
O18	O	0.322943	-0.167171	0.230687
C19	C	0.232809	-0.164765	0.124708
C20	C	0.203102	-0.163983	0.000100
C21	C	0.203094	-0.163989	-0.249099
C22	C	0.143688	-0.162415	-0.249095
C23	C	0.113989	-0.161625	-0.124494
C24	C	0.143696	-0.162409	0.000104
C25	C	0.203108	-0.163962	0.249317
C26	C	0.143696	-0.162376	0.249309
C27	C	0.113989	-0.161593	0.124701
C28	C	0.054591	-0.160045	0.124709
N29	N	0.024882	-0.159249	0.000110
C30	C	0.054581	-0.160039	-0.124492
C31	C	0.416980	-0.169678	0.124692
C32	C	0.476387	-0.171272	0.124691
C33	C	0.476376	-0.171268	-0.124520
C34	C	0.416968	-0.169683	-0.124518
C35	C	0.387270	-0.168882	0.000092
C36	C	-0.070176	-0.156735	-0.124474
C37	C	-0.129588	-0.155166	-0.124459
C38	C	-0.129572	-0.155164	0.124751
C39	C	-0.070166	-0.156739	0.124737
C40	C	-0.040469	-0.157520	0.000114
O41	O	0.023822	-0.159266	0.230620
O42	O	0.023849	-0.159202	-0.230455
C43	C	0.676654	0.066426	0.000130
C44	C	0.674980	0.205816	0.000127
C45	C	0.777484	-0.152711	0.000139
C46	C	0.840713	-0.154376	0.000143
C47	C	0.670151	-0.392858	0.000111
C48	C	0.671824	-0.532248	0.000104
N49	N	0.673402	-0.163212	0.356240
C50	C	0.778621	0.237108	0.000165
C51	C	0.829653	0.318238	0.000187
C52	C	0.828077	0.449206	0.000182
C53	C	0.775463	0.499045	0.000152
C54	C	0.724432	0.417915	0.000130
C55	C	0.726013	0.286946	0.000139
C56	C	0.620792	0.386623	0.000083
C57	C	0.622367	0.255655	0.000097
C58	C	0.568179	0.436461	0.000052
C59	C	0.517146	0.355331	0.000041
C60	C	0.518724	0.224356	0.000047
C61	C	0.571335	0.174525	0.000076
N62	N	0.673407	-0.163209	-0.355997
C63	C	0.750182	0.008455	0.356254
C64	C	0.788576	0.094286	0.428200
C65	C	0.788582	0.094287	0.572080
C66	C	0.750189	0.008451	0.644017
C67	C	0.711795	-0.077380	0.572070
C68	C	0.711794	-0.077374	0.428187
C69	C	0.635013	-0.249040	0.572057
C70	C	0.635009	-0.249049	0.428177
C71	C	0.596619	-0.334876	0.643993
C72	C	0.558227	-0.420715	0.572047
C73	C	0.558223	-0.420713	0.428158
C74	C	0.596615	-0.334879	0.356230
H75	H	0.392803	-0.169042	0.226171
H76	H	0.119518	-0.161735	0.350784
H77	H	0.572625	0.067886	0.000089
O78	O	-0.041372	-0.157728	-0.245566
C79	C	-0.061933	-0.266105	-0.321370
H80	H	-0.082470	-0.341687	-0.248451
H81	H	-0.024893	-0.303662	-0.377905
H82	H	-0.095063	-0.240602	-0.399050
O83	O	0.773858	0.626243	0.000315
C84	C	0.744914	0.661442	0.118698
H85	H	0.715564	0.576840	0.158171
H86	H	0.718383	0.741363	0.092048
H87	H	0.777388	0.694587	0.201601
O88	O	0.469113	0.145677	-0.000160
C89	C	0.437218	0.168133	-0.118581
H90	H	0.450812	0.267668	-0.158048
H91	H	0.389756	0.158309	-0.091984
H92	H	0.445295	0.096583	-0.201468
H93	H	-0.045978	-0.157401	0.226203
H94	H	0.750186	0.008453	0.239099
O95	O	0.505155	-0.171988	0.245858
C96	C	0.466193	-0.170987	0.355825
H97	H	0.426047	-0.130103	0.319288
H98	H	0.486733	-0.110468	0.442981
H99	H	0.454294	-0.271578	0.394129
O100	O	0.825849	0.177835	0.641829
C101	C	0.816097	0.302045	0.606715
H102	H	0.794150	0.301648	0.502244
H103	H	0.858660	0.364382	0.601813
H104	H	0.787598	0.340544	0.687693
O105	O	0.825875	0.177486	0.358108
C106	C	0.817644	0.159078	0.215687
H107	H	0.796711	0.059021	0.196050
H108	H	0.860723	0.173437	0.161039
H109	H	0.788844	0.229887	0.174808
H110	H	0.227286	-0.164595	0.350786
H111	H	0.750191	0.008467	0.761171
O112	O	0.877610	0.528148	0.000385
C113	C	0.879796	0.604825	0.118786
H114	H	0.834565	0.610856	0.158235
H115	H	0.900617	0.703545	0.092167
H116	H	0.905975	0.562081	0.201694
H117	H	-0.153764	-0.154526	0.226199
H118	H	0.566900	0.543103	0.000040
O119	O	0.466092	0.403953	0.000069
C120	C	0.475644	0.536944	0.000019
H121	H	0.519963	0.568279	0.043309
H122	H	0.441948	0.576743	0.066361
H123	H	0.472746	0.573351	-0.109649
O124	O	0.520879	-0.504130	0.641710
C125	C	0.487002	-0.579916	0.547362
H126	H	0.486159	-0.528447	0.444795
H127	H	0.441600	-0.599581	0.588931
H128	H	0.505852	-0.672999	0.532069
O129	O	0.780255	0.109919	0.000123
C130	C	0.837632	0.083326	0.000197
H131	H	0.866071	0.167652	-0.043073
H132	H	0.841841	-0.003352	-0.066150
H133	H	0.851381	0.064174	0.109870
O134	O	0.596534	-0.334777	0.783757
C135	C	0.542378	-0.309895	0.831834
H136	H	0.519922	-0.258058	0.748926
H137	H	0.547815	-0.248752	0.928098
H138	H	0.515607	-0.402752	0.857354
O139	O	0.521005	-0.504143	0.358123
C140	C	0.551798	-0.581300	0.274921
H141	H	0.596164	-0.530783	0.253364
H142	H	0.528103	-0.601440	0.173745
H143	H	0.556028	-0.674066	0.330372
H144	H	-0.153773	-0.154533	-0.225934
H145	H	0.596617	-0.334875	0.239076
H146	H	0.872489	0.277645	0.000224
H147	H	0.119507	-0.161772	-0.350563
H148	H	0.392784	-0.169045	-0.225984
O149	O	0.231900	-0.164984	-0.370183
C150	C	0.211333	-0.273357	-0.445987
H151	H	0.190796	-0.348938	-0.373067
H152	H	0.248370	-0.310920	-0.502530
H153	H	0.178202	-0.247848	-0.523661
O154	O	0.505194	-0.172247	-0.245598
C155	C	0.484645	-0.280612	-0.321437
H156	H	0.464101	-0.356210	-0.248546
H157	H	0.521694	-0.318155	-0.377952
H158	H	0.451525	-0.255100	-0.399136
