data_functionalizedCrystal
_audit_creation_method	'MofGen! by Chris Wilmer'
_symmetry_space_group_name_H-M	'P1'
_symmetry_Int_Tables_number	1
_symmetry_cell_setting	triclinic
loop_
_symmetry_equiv_pos_as_xyz
  x,y,z
_cell_length_a	11.026607
_cell_length_b	12.503572
_cell_length_c	11.026607
_cell_angle_alpha	85.700805
_cell_angle_beta	108.586017
_cell_angle_gamma	94.293464
loop_
_atom_site_label
_atom_site_type_symbol
_atom_site_fract_x
_atom_site_fract_y
_atom_site_fract_z
O1	O	1.732471	0.089311	0.527857
O2	O	1.365891	0.089313	0.467094
O3	O	1.518799	0.089311	0.314186
O4	O	1.579563	0.089313	0.680765
O5	O	1.507305	-0.089331	0.325710
O6	O	1.354397	-0.089328	0.478618
O7	O	1.720976	-0.089331	0.539381
Cu8	Cu	1.536637	-0.105641	0.510052
Cu9	Cu	1.550230	0.105624	0.496423
O10	O	1.568068	-0.089328	0.692289
C11	C	1.312484	-0.000007	0.461646
C12	C	1.170470	-0.000006	0.428229
N13	N	1.527085	-0.254233	0.519638
C14	C	1.116821	-0.000005	0.520498
C15	C	0.970043	-0.000003	0.485963
C16	C	1.513037	-0.473348	0.533752
C17	C	1.573835	-0.526676	0.472719
C18	C	1.566018	-0.648599	0.480572
C19	C	1.520852	-0.351414	0.525900
C20	C	1.774383	-0.000008	0.544829
C21	C	1.916398	-0.000002	0.578246
N22	N	1.559790	0.254216	0.486829
C23	C	1.585025	-0.000007	0.734187
C24	C	1.618442	-0.000006	0.876201
C25	C	1.501842	-0.000008	0.272288
C26	C	1.468426	-0.000002	0.130274
C27	C	1.526173	-0.000005	0.929850
C28	C	1.560709	-0.000003	1.076629
H29	H	1.179554	-0.000010	0.625062
H30	H	0.907315	0.000023	0.381391
O31	O	1.743257	0.000043	0.950839
C32	C	1.822342	0.000014	0.872459
H33	H	1.769186	0.033830	0.772145
H34	H	1.848194	-0.085691	0.866976
C35	C	2.010902	0.028538	1.052967
C36	C	1.945618	0.070081	0.929761
H37	H	2.086947	0.071755	1.088314
H38	H	1.957622	0.028554	1.105774
H39	H	2.032433	-0.042881	1.048380
H40	H	1.924074	0.141494	0.934351
H41	H	1.998897	0.070079	0.876955
O42	O	1.444050	-0.528276	0.603119
C43	C	1.451496	-0.639544	0.595601
H44	H	1.541352	-0.654754	0.570934
H45	H	1.363290	-0.671472	0.518030
C46	C	1.347043	-0.678732	0.755788
C47	C	1.457410	-0.697414	0.725504
H48	H	1.350684	-0.714431	0.835916
H49	H	1.342021	-0.603769	0.760851
H50	H	1.273549	-0.705339	0.691137
H51	H	1.530900	-0.670795	0.790146
H52	H	1.462444	-0.772374	0.720455
O53	O	1.343617	-0.000145	1.055592
C54	C	1.276675	-0.092678	1.087860
H55	H	1.329441	-0.123525	1.189655
H56	H	1.270569	-0.157464	1.018378
C57	C	1.075716	-0.026687	0.954433
C58	C	1.140518	-0.064568	1.079464
H59	H	0.991726	-0.009350	0.949249
H60	H	1.120815	0.035653	0.932689
H61	H	1.070640	-0.080681	0.896545
H62	H	1.145607	-0.010570	1.137347
H63	H	1.095416	-0.126899	1.101217
O64	O	1.642649	-0.471747	0.403169
C65	C	1.635005	-0.360477	0.410477
H66	H	1.610990	-0.345182	0.500662
H67	H	1.556933	-0.328746	0.322566
C68	C	1.794057	-0.321241	0.304621
C69	C	1.764571	-0.302455	0.415394
H70	H	1.873977	-0.285449	0.307648
H71	H	1.799204	-0.396206	0.299693
H72	H	1.728987	-0.294799	0.231373
H73	H	1.829632	-0.328910	0.488638
H74	H	1.759439	-0.227494	0.420335
H75	H	0.979125	-0.000008	0.682816
H76	H	1.107739	0.000021	0.323664
H77	H	1.421610	0.000002	0.867117
H78	H	1.665281	0.000035	1.139355
