data_functionalizedCrystal
_audit_creation_method	'MofGen! by Chris Wilmer'
_symmetry_space_group_name_H-M	'P1'
_symmetry_Int_Tables_number	1
_symmetry_cell_setting	triclinic
loop_
_symmetry_equiv_pos_as_xyz
  x,y,z
_cell_length_a	13.032831
_cell_length_b	16.959454
_cell_length_c	13.032268
_cell_angle_alpha	97.150351
_cell_angle_beta	90.886977
_cell_angle_gamma	82.825094
loop_
_atom_site_label
_atom_site_type_symbol
_atom_site_fract_x
_atom_site_fract_y
_atom_site_fract_z
Zn1	Zn	1.498450	-0.533808	-0.780847
Zn2	Zn	1.520186	-0.651576	-0.608869
Zn3	Zn	1.348310	-0.500789	-0.587087
Zn4	Zn	1.326434	-0.647302	-0.758994
O5	O	1.423345	-0.583369	-0.683949
O6	O	1.645253	-0.565038	-0.776295
O7	O	1.515638	-0.619543	-0.462063
O8	O	1.368285	-0.394566	-0.612819
O9	O	1.661222	-0.651561	-0.649944
O10	O	1.478592	-0.418826	-0.755173
O11	O	1.389361	-0.508760	-0.446059
O12	O	1.201488	-0.504616	-0.591629
O13	O	1.331000	-0.644277	-0.905810
O14	O	1.185416	-0.612259	-0.717929
O15	O	1.457380	-0.560894	-0.921865
O16	O	1.494425	-0.761611	-0.628754
O17	O	1.352077	-0.758471	-0.739051
C18	C	1.156135	-0.554392	-0.650045
C19	C	1.041819	-0.542016	-0.635565
C20	C	0.982940	-0.589828	-0.691506
C21	C	0.864788	-0.577038	-0.676542
C22	C	1.423261	-0.788724	-0.683921
C23	C	1.423315	-0.876589	-0.683955
C24	C	1.349320	-1.246472	-0.741386
C25	C	1.497643	-1.249702	-0.626654
C26	C	1.497608	-1.167152	-0.626640
C27	C	1.423427	-1.124257	-0.683998
C28	C	1.349281	-1.163913	-0.741371
C29	C	1.571746	-1.127488	-0.569260
C30	C	1.571713	-1.044932	-0.569243
C31	C	1.497536	-1.002037	-0.626608
C32	C	1.423388	-1.041698	-0.683984
C33	C	1.349208	-0.998804	-0.741342
C34	C	1.275063	-1.038465	-0.798724
C35	C	1.275104	-1.121018	-0.798736
C36	C	1.497495	-0.919484	-0.626597
C37	C	1.349169	-0.916245	-0.741327
C38	C	1.691598	-0.612460	-0.717986
C39	C	1.805911	-0.624856	-0.732491
C40	C	1.389325	-0.605792	-0.952197
C41	C	1.374828	-0.615348	-1.066508
C42	C	1.423454	-0.377216	-0.684004
C43	C	1.423501	-0.289366	-0.684027
C44	C	1.430895	-0.578351	-1.125415
C45	C	1.415913	-0.588227	-1.243562
C46	C	1.457291	-0.560982	-0.416753
C47	C	1.471987	-0.551225	-0.302467
H48	H	0.842968	-0.675257	-0.791474
O49	O	1.345270	-0.634636	-1.287667
C50	C	1.166154	-0.656809	-1.298491
C51	C	1.246041	-0.604174	-1.248480
H52	H	1.085913	-0.632210	-1.266812
H53	H	1.166543	-0.656474	-1.385907
H54	H	1.186887	-0.720753	-1.279726
H55	H	1.225364	-0.540206	-1.267164
H56	H	1.245637	-0.604577	-1.161077
O57	O	1.277391	-1.284983	-0.797285
C58	C	1.205119	-1.319382	-0.965831
C59	C	1.286643	-1.275752	-0.902653
H60	H	1.212557	-1.311920	-1.051030
H61	H	1.217880	-1.385772	-0.956086
H62	H	1.124509	-1.292706	-0.937128
H63	H	1.367287	-1.302361	-0.931315
H64	H	1.273791	-1.209364	-0.912401
O65	O	1.203038	-1.159426	-0.854560
C66	C	1.055878	-1.147505	-0.968309
C67	C	1.137448	-1.103909	-0.905157
H68	H	1.002813	-1.102636	-1.009216
H69	H	1.096187	-1.195711	-1.028175
H70	H	1.008199	-1.176441	-0.914222
H71	H	1.185151	-1.074926	-0.959163
H72	H	1.097075	-1.055746	-0.845280
O73	O	0.820750	-0.516844	-0.606169
C74	C	0.848372	-0.406745	-0.477264
C75	C	0.898378	-0.474869	-0.556939
H76	H	0.911113	-0.372800	-0.437425
H77	H	0.792131	-0.363967	-0.518205
H78	H	0.804847	-0.433076	-0.417124
H79	H	0.941957	-0.448610	-0.617101
H80	H	0.954563	-0.517637	-0.515927
H81	H	1.004755	-0.491612	-0.576597
H82	H	1.288765	-0.881326	-0.788040
O83	O	1.643710	-1.169054	-0.513342
C84	C	1.715953	-1.184977	-0.344757
C85	C	1.634382	-1.137872	-0.407985
H86	H	1.708453	-1.159773	-0.259567
H87	H	1.703302	-1.250804	-0.354486
H88	H	1.796549	-1.179192	-0.373433
H89	H	1.553752	-1.143591	-0.379351
H90	H	1.647124	-1.072064	-0.398254
O91	O	1.203106	-0.996679	-0.854419
C92	C	1.137281	-0.868049	-0.905172
C93	C	1.218842	-0.915281	-0.842076
H94	H	1.149962	-0.802227	-0.895197
H95	H	1.144762	-0.893073	-0.990426
H96	H	1.056681	-0.873878	-0.876545
H97	H	1.299478	-0.909471	-0.870614
H98	H	1.211270	-0.890245	-0.756832
H99	H	1.558032	-1.284630	-0.579948
H100	H	1.489984	-0.539364	-1.088380
H101	H	1.315729	-0.654327	-1.103542
O102	O	1.643606	-1.006351	-0.513382
C103	C	1.675130	-0.903037	-0.376342
C104	C	1.593603	-0.946675	-0.439505
H105	H	1.634733	-0.854768	-0.316612
H106	H	1.728144	-0.947834	-0.335272
H107	H	1.722876	-0.874168	-0.430442
H108	H	1.545785	-0.975545	-0.385477
H109	H	1.540661	-0.901844	-0.480587
H110	H	1.531079	-0.512233	-1.265438
O111	O	1.569374	-0.880895	-0.570734
C112	C	1.600872	-0.777574	-0.433692
C113	C	1.519357	-0.821220	-0.496863
H114	H	1.560464	-0.729307	-0.373968
H115	H	1.653886	-0.822366	-0.392615
H116	H	1.648620	-0.748702	-0.487787
H117	H	1.471537	-0.850093	-0.442840
H118	H	1.466415	-0.776394	-0.537953
H119	H	1.020003	-0.640227	-0.750482
