data_functionalizedCrystal
_audit_creation_method	'MofGen! by Chris Wilmer'
_symmetry_space_group_name_H-M	'P1'
_symmetry_Int_Tables_number	1
_symmetry_cell_setting	triclinic
loop_
_symmetry_equiv_pos_as_xyz
  x,y,z
_cell_length_a	18.101398
_cell_length_b	18.050589
_cell_length_c	18.101389
_cell_angle_alpha	89.985984
_cell_angle_beta	89.990255
_cell_angle_gamma	90.023777
loop_
_atom_site_label
_atom_site_type_symbol
_atom_site_fract_x
_atom_site_fract_y
_atom_site_fract_z
Zn1	Zn	1.132136	-0.295825	-0.418573
Zn2	Zn	1.632136	0.204175	0.081427
Zn3	Zn	1.132038	-0.420000	-0.294741
Zn4	Zn	1.632038	0.080000	0.205259
Zn5	Zn	1.008295	-0.295818	-0.294766
Zn6	Zn	1.508295	0.204182	0.205234
Zn7	Zn	1.008252	-0.419968	-0.418561
Zn8	Zn	1.508252	0.080032	0.081439
O9	O	1.070180	-0.357903	-0.356660
O10	O	1.570180	0.142097	0.143340
O11	O	1.235756	-0.312313	-0.402141
O12	O	1.735756	0.187687	0.097859
O13	O	1.115600	-0.403537	-0.191112
O14	O	1.615600	0.096463	0.308888
O15	O	1.024781	-0.191895	-0.311205
O16	O	1.524781	0.308105	0.188795
O17	O	1.235684	-0.403544	-0.311163
O18	O	1.735684	0.096456	0.188837
O19	O	1.115767	-0.191900	-0.402165
O20	O	1.615767	0.308100	0.097835
O21	O	1.024687	-0.312301	-0.191130
O22	O	1.524687	0.187699	0.308870
O23	O	0.904656	-0.312271	-0.311193
O24	O	1.404656	0.187729	0.188807
O25	O	1.024708	-0.403491	-0.522196
O26	O	1.524708	0.096509	-0.022196
O27	O	0.904624	-0.403484	-0.402145
O28	O	1.404624	0.096516	0.097855
O29	O	1.115725	-0.312283	-0.522205
O30	O	1.615725	0.187717	-0.022205
O31	O	1.115558	-0.523920	-0.311151
O32	O	1.615558	-0.023920	0.188849
O33	O	1.024613	-0.523897	-0.402121
O34	O	1.524613	-0.023897	0.097879
C35	C	0.877769	-0.357874	-0.356671
C36	C	1.377769	0.142126	0.143329
C37	C	0.795455	-0.357879	-0.356693
C38	C	1.295455	0.142121	0.143307
C39	C	0.496364	-0.357923	-0.356662
C40	C	0.996364	0.142077	0.143338
C41	C	0.527694	-0.415589	-0.413604
C42	C	1.027694	0.084411	0.086396
C43	C	0.613313	-0.415408	-0.413838
C44	C	1.113313	0.084592	0.086162
C45	C	0.644747	-0.357902	-0.356677
C46	C	1.144747	0.142098	0.143323
C47	C	0.613689	-0.279684	-0.377999
C48	C	1.113689	0.220316	0.122001
C49	C	0.528044	-0.280030	-0.378404
C50	C	1.028044	0.219970	0.121596
C51	C	0.527913	-0.377786	-0.278261
C52	C	1.027913	0.122214	0.221739
C53	C	0.613563	-0.379502	-0.278680
C54	C	1.113563	0.120498	0.221320
C55	C	0.728606	-0.357885	-0.356685
C56	C	1.228606	0.142115	0.143315
C57	C	0.412505	-0.357934	-0.356656
C58	C	0.912505	0.142066	0.143344
C59	C	1.070091	-0.550855	-0.356648
C60	C	1.570091	-0.050855	0.143352
C61	C	1.070120	-0.633401	-0.356668
C62	C	1.570120	-0.133401	0.143332
C63	C	1.020713	-0.832866	-0.406120
C64	C	1.520713	-0.332866	0.093880
C65	C	1.002661	-0.882294	-0.338546
C66	C	1.502661	-0.382294	0.161454
C67	C	1.070193	-0.784531	-0.356677
C68	C	1.570193	-0.284531	0.143323
C69	C	1.088281	-0.882185	-0.424259
C70	C	1.588281	-0.382185	0.075741
C71	C	1.070262	-0.930516	-0.356693
C72	C	1.570262	-0.430516	0.143307
C73	C	1.052105	-0.832872	-0.289067
C74	C	1.552105	-0.332872	0.210933
C75	C	1.137757	-0.832759	-0.374826
C76	C	1.637757	-0.332759	0.125174
C77	C	1.119731	-0.882164	-0.307206
C78	C	1.619731	-0.382164	0.192794
C79	C	1.070151	-0.700433	-0.356669
C80	C	1.570151	-0.200433	0.143331
C81	C	1.070303	-1.014613	-0.356693
C82	C	1.570303	-0.514613	0.143307
C83	C	1.263342	-0.357933	-0.356651
C84	C	1.763342	0.142067	0.143349
C85	C	1.345656	-0.357946	-0.356646
C86	C	1.845656	0.142054	0.143354
C87	C	1.070223	-0.357884	-0.549822
C88	C	1.570223	0.142116	-0.049822
C89	C	1.070241	-0.357876	-0.632137
C90	C	1.570241	0.142124	-0.132137
C91	C	1.070290	-0.164197	-0.356689
C92	C	1.570290	0.335803	0.143311
C93	C	1.070337	-0.081652	-0.356701
C94	C	1.570337	0.418348	0.143299
C95	C	1.070284	-0.357737	-0.931228
C96	C	1.570284	0.142263	-0.431228
C97	C	1.012821	-0.414940	-0.899897
C98	C	1.512821	0.085060	-0.399897
C99	C	1.012977	-0.415205	-0.814279
C100	C	1.512977	0.084795	-0.314279
C101	C	1.070262	-0.357806	-0.782845
C102	C	1.570262	0.142194	-0.282845
C103	C	1.148289	-0.379056	-0.813933
C104	C	1.648289	0.120944	-0.313933
C105	C	1.147968	-0.379431	-0.899578
C106	C	1.647968	0.120569	-0.399578
C107	C	1.050399	-0.279157	-0.899651
C108	C	1.550399	0.220843	-0.399651
C109	C	1.048663	-0.279611	-0.814000
C110	C	1.548663	0.220389	-0.314000
C111	C	1.070254	-0.357844	-0.698986
C112	C	1.570254	0.142156	-0.198986
C113	C	1.070297	-0.357701	-1.015087
C114	C	1.570297	0.142299	-0.515087
C115	C	1.070180	-0.357868	-0.164250
C116	C	1.570180	0.142132	0.335750
C117	C	1.070305	-0.357667	-0.081936
C118	C	1.570305	0.142333	0.418064
H119	H	0.633870	-0.437059	-0.262599
H120	H	1.133870	0.062941	0.237401
H121	H	1.103553	-0.903847	-0.481406
H122	H	1.603553	-0.403847	0.018594
H123	H	0.994491	-0.259798	-0.921250
H124	H	1.494491	0.240202	-0.421250
H125	H	1.161604	-0.903674	-0.265352
H126	H	1.661604	-0.403674	0.234648
H127	H	0.508081	-0.263181	-0.435718
H128	H	1.008081	0.236819	0.064282
N129	N	0.499204	-0.398401	-0.490106
N130	N	0.999204	0.101599	0.009894
H131	H	0.515468	-0.346992	-0.504998
H132	H	1.015468	0.153008	-0.004998
H133	H	0.519597	-0.435741	-0.526296
H134	H	1.019597	0.064259	-0.026296
N135	N	0.965214	-0.804174	-0.461424
N136	N	1.465214	-0.304174	0.038576
H137	H	0.978326	-0.822881	-0.512345
H138	H	1.478326	-0.322881	-0.012345
H139	H	0.914235	-0.822198	-0.447558
H140	H	1.414235	-0.322198	0.052442
N141	N	1.206520	-0.325596	-0.786969
N142	N	1.706520	0.174404	-0.286969
H143	H	1.208483	-0.326814	-0.731220
H144	H	1.708483	0.173186	-0.231220
H145	H	1.256194	-0.340341	-0.807678
H146	H	1.756194	0.159659	-0.307678
N147	N	1.171007	-0.454336	-0.785532
N148	N	1.671007	0.045664	-0.285532
H149	H	1.133772	-0.492631	-0.801939
H150	H	1.633772	0.007369	-0.301939
H151	H	1.221294	-0.467449	-0.805851
H152	H	1.721294	0.032551	-0.305851
N153	N	0.641135	-0.492237	-0.396136
N154	N	1.141135	0.007763	0.103864
H155	H	0.597763	-0.526527	-0.388112
H156	H	1.097763	-0.026527	0.111888
H157	H	0.672053	-0.511070	-0.438609
H158	H	1.172053	-0.011070	0.061391
H159	H	1.036768	-0.811300	-0.231905
H160	H	1.536768	-0.311300	0.268095
N161	N	0.927023	-0.911126	-0.318207
N162	N	1.427023	-0.411126	0.181793
H163	H	0.913003	-0.892415	-0.267531
H164	H	1.413003	-0.392415	0.232469
H165	H	0.889701	-0.893195	-0.355620
H166	H	1.389701	-0.393195	0.144380
N167	N	1.213383	-0.803916	-0.395178
N168	N	1.713383	-0.303916	0.104822
H169	H	1.226977	-0.821821	-0.446259
H170	H	1.726977	-0.321821	0.053741
H171	H	1.212856	-0.747971	-0.394499
H172	H	1.712856	-0.247971	0.105501
H173	H	0.955117	-0.401907	-0.793260
H174	H	1.455117	0.098093	-0.293260
H175	H	1.092252	-0.236538	-0.919913
H176	H	1.592252	0.263462	-0.419913
H177	H	1.026106	-0.473451	-0.793797
H178	H	1.526106	0.026549	-0.293797
H179	H	1.164826	-0.436874	-0.919561
H180	H	1.664826	0.063126	-0.419561
N181	N	0.935942	-0.397499	-0.927161
N182	N	1.435942	0.102501	-0.427161
H183	H	0.937613	-0.352350	-0.960090
H184	H	1.437613	0.147650	-0.460090
H185	H	0.916188	-0.441089	-0.956028
H186	H	1.416188	0.058911	-0.456028
N187	N	1.030050	-0.491629	-0.928383
N188	N	1.530050	0.008371	-0.428383
H189	H	1.074912	-0.489478	-0.961498
H190	H	1.574912	0.010522	-0.461498
H191	H	1.040274	-0.525705	-0.885324
H192	H	1.540274	-0.025705	-0.385324
H193	H	1.192234	-0.339576	-0.920304
H194	H	1.692234	0.160424	-0.420304
H195	H	0.507652	-0.335782	-0.235834
H196	H	1.007652	0.164218	0.264166
H197	H	0.991242	-0.263587	-0.793682
H198	H	1.491242	0.236413	-0.293682
N199	N	1.100053	-0.220154	-0.785663
N200	N	1.600053	0.279846	-0.285663
H201	H	1.138237	-0.243167	-0.752080
H202	H	1.638237	0.256833	-0.252080
H203	H	1.125552	-0.195438	-0.828753
H204	H	1.625552	0.304562	-0.328753
H205	H	0.507082	-0.473782	-0.400391
H206	H	1.007082	0.026218	0.099609
H207	H	0.633815	-0.402267	-0.471928
H208	H	1.133815	0.097733	0.028072
N209	N	0.500573	-0.221198	-0.325865
N210	N	1.000573	0.278802	0.174135
H211	H	0.519320	-0.171116	-0.342263
H212	H	1.019320	0.328884	0.157737
H213	H	0.444779	-0.221043	-0.325748
H214	H	0.944779	0.278957	0.174252
N215	N	0.640656	-0.221223	-0.324781
N216	N	1.140656	0.278777	0.175219
H217	H	0.673345	-0.244937	-0.286247
H218	H	1.173345	0.255063	0.213753
H219	H	0.669706	-0.182489	-0.352690
H220	H	1.169706	0.317511	0.147310
H221	H	0.506302	-0.433846	-0.258883
H222	H	1.006302	0.066154	0.241117
N223	N	0.642107	-0.256954	-0.453095
N224	N	1.142107	0.243046	0.046905
H225	H	0.697851	-0.254751	-0.452049
H226	H	1.197851	0.245249	0.047951
H227	H	0.625646	-0.294349	-0.491188
H228	H	1.125646	0.205651	0.008812
N229	N	0.641902	-0.327908	-0.219458
N230	N	1.141902	0.172092	0.280542
H231	H	0.675504	-0.289628	-0.242453
H232	H	1.175504	0.210372	0.257547
H233	H	0.598814	-0.302327	-0.194864
H234	H	1.098814	0.197673	0.305136
