data_functionalizedCrystal
_audit_creation_method	'MofGen! by Chris Wilmer'
_symmetry_space_group_name_H-M	'P1'
_symmetry_Int_Tables_number	1
_symmetry_cell_setting	triclinic
loop_
_symmetry_equiv_pos_as_xyz
  x,y,z
_cell_length_a	12.759401
_cell_length_b	12.759399
_cell_length_c	21.395355
_cell_angle_alpha	90.012690
_cell_angle_beta	90.021478
_cell_angle_gamma	90.016172
loop_
_atom_site_label
_atom_site_type_symbol
_atom_site_fract_x
_atom_site_fract_y
_atom_site_fract_z
Zn1	Zn	1.606277	-0.418376	0.354235
Zn2	Zn	2.106277	0.081624	0.854235
Zn3	Zn	1.606160	-0.594041	0.249469
Zn4	Zn	2.106160	-0.094041	0.749469
Zn5	Zn	1.430571	-0.418378	0.249478
Zn6	Zn	1.930571	0.081622	0.749478
Zn7	Zn	1.430565	-0.594015	0.354214
Zn8	Zn	1.930565	-0.094015	0.854214
O9	O	1.518393	-0.506202	0.301849
O10	O	2.018393	-0.006202	0.801849
O11	O	1.753283	-0.441688	0.340343
O12	O	2.253283	0.058312	0.840343
O13	O	1.582821	-0.570750	0.161792
O14	O	2.082821	-0.070750	0.661792
O15	O	1.453930	-0.271356	0.263387
O16	O	1.953930	0.228644	0.763387
O17	O	1.753196	-0.570748	0.263371
O18	O	2.253196	-0.070748	0.763371
O19	O	1.583021	-0.271355	0.340352
O20	O	2.083021	0.228645	0.840352
O21	O	1.453816	-0.441691	0.161799
O22	O	1.953816	0.058309	0.661799
O23	O	1.283549	-0.441666	0.263366
O24	O	1.783549	0.058334	0.763366
O25	O	1.453920	-0.570705	0.441895
O26	O	1.953920	-0.070705	0.941895
O27	O	1.283545	-0.570706	0.340316
O28	O	1.783545	-0.070706	0.840316
O29	O	1.583015	-0.441664	0.441911
O30	O	2.083015	0.058336	0.941911
O31	O	1.582815	-0.741058	0.263351
O32	O	2.082815	-0.241058	0.763351
O33	O	1.453806	-0.741039	0.340307
O34	O	1.953806	-0.241039	0.840307
C35	C	1.245426	-0.506184	0.301840
C36	C	1.745426	-0.006184	0.801840
C37	C	1.128649	-0.506202	0.301851
C38	C	1.628649	-0.006202	0.801851
C39	C	1.073833	-0.439122	0.341992
C40	C	1.573833	0.060878	0.841992
C41	C	0.964109	-0.439132	0.341996
C42	C	1.464109	0.060868	0.841996
C43	C	0.964027	-0.573312	0.261717
C44	C	1.464027	-0.073312	0.761717
C45	C	1.073749	-0.573295	0.261710
C46	C	1.573749	-0.073295	0.761710
C47	C	0.814193	-0.315306	0.364519
C48	C	1.314193	0.184694	0.864519
C49	C	0.759373	-0.248235	0.404669
C50	C	1.259373	0.251765	0.904669
C51	C	0.795035	-0.232252	0.465819
C52	C	1.295035	0.267748	0.965819
C53	C	0.885515	-0.283356	0.486831
C54	C	1.385515	0.216644	0.986831
C55	C	0.940329	-0.350434	0.446683
C56	C	1.440329	0.149566	0.946683
C57	C	0.904669	-0.366397	0.385525
C58	C	1.404669	0.133603	0.885525
C59	C	1.223667	-0.697123	0.239194
C60	C	1.723667	-0.197123	0.739194
C61	C	1.278484	-0.764208	0.199050
C62	C	1.778484	-0.264208	0.699050
C63	C	1.242824	-0.780202	0.137899
C64	C	1.742824	-0.280202	0.637899
C65	C	1.152340	-0.729117	0.116889
C66	C	1.652340	-0.229117	0.616889
C67	C	1.097523	-0.662032	0.157034
C68	C	1.597523	-0.162032	0.657034
C69	C	1.133191	-0.646037	0.218184
C70	C	1.633191	-0.146037	0.718184
C71	C	1.518326	-0.779170	0.301839
C72	C	2.018326	-0.279170	0.801839
C73	C	1.518393	-0.895946	0.301856
C74	C	2.018393	-0.395946	0.801856
C75	C	1.451208	-0.950837	0.341898
C76	C	1.951208	-0.450837	0.841898
C77	C	1.451274	-1.060561	0.341910
C78	C	1.951274	-0.560561	0.841910
C79	C	1.585718	-1.060494	0.261836
C80	C	2.085718	-0.560494	0.761836
C81	C	1.585647	-0.950772	0.261821
C82	C	2.085647	-0.450772	0.761821
C83	C	1.327448	-1.210610	0.364253
C84	C	1.827448	-0.710610	0.864253
C85	C	1.260272	-1.265504	0.404305
C86	C	1.760272	-0.765504	0.904305
C87	C	1.244070	-1.229863	0.465428
C88	C	1.744070	-0.729863	0.965428
C89	C	1.295058	-1.139329	0.486511
C90	C	1.795058	-0.639329	0.986511
C91	C	1.362242	-1.084441	0.446463
C92	C	1.862242	-0.584441	0.946463
C93	C	1.378424	-1.120081	0.385331
C94	C	1.878424	-0.620081	0.885331
C95	C	1.709473	-0.800721	0.239485
C96	C	2.209473	-0.300721	0.739485
C97	C	1.776663	-0.745831	0.199439
C98	C	2.276663	-0.245831	0.699439
C99	C	1.792877	-0.781470	0.138315
C100	C	2.292877	-0.281470	0.638315
C101	C	1.741907	-0.872007	0.117234
C102	C	2.241907	-0.372007	0.617234
C103	C	1.674717	-0.926897	0.157280
C104	C	2.174717	-0.426897	0.657280
C105	C	1.658502	-0.891250	0.218403
C106	C	2.158502	-0.391250	0.718403
C107	C	1.792426	-0.506221	0.301858
C108	C	2.292426	-0.006221	0.801858
C109	C	1.909203	-0.506229	0.301862
C110	C	2.409203	-0.006229	0.801862
C111	C	1.518480	-0.506181	0.465272
C112	C	2.018480	-0.006181	0.965272
C113	C	1.518517	-0.506172	0.534914
C114	C	2.018517	-0.006172	1.034914
C115	C	1.518489	-0.232169	0.301873
C116	C	2.018489	0.267831	0.801873
C117	C	1.518530	-0.115392	0.301883
C118	C	2.018530	0.384608	0.801883
C119	C	1.518367	-0.506148	0.139061
C120	C	2.018367	-0.006148	0.639061
C121	C	1.518533	-0.505861	0.069421
C122	C	2.018533	-0.005861	0.569421
C123	C	1.585734	-0.438977	0.567636
C124	C	2.085734	0.061023	1.067636
C125	C	1.585733	-0.438932	0.633071
C126	C	2.085733	0.061068	1.133071
C127	C	1.518526	-0.506100	0.665782
C128	C	2.018526	-0.006100	1.165782
C129	C	1.451296	-0.573300	0.633052
C130	C	1.951296	-0.073300	1.133052
C131	C	1.451291	-0.573335	0.567618
C132	C	1.951291	-0.073335	1.067618
C133	C	1.510207	-0.600699	0.769454
C134	C	2.010207	-0.100699	1.269454
C135	C	1.510218	-0.600665	0.834887
C136	C	2.010218	-0.100665	1.334887
C137	C	1.518532	-0.505989	0.867603
C138	C	2.018532	-0.005989	1.367603
C139	C	1.526857	-0.411344	0.834878
C140	C	2.026857	0.088656	1.334878
C141	C	1.526853	-0.411380	0.769444
C142	C	2.026853	0.088620	1.269444
C143	C	1.518522	-0.506069	0.736734
C144	C	2.018522	-0.006069	1.236734
C145	C	1.585751	-0.438740	0.971278
C146	C	2.085751	0.061260	1.471278
C147	C	1.585742	-0.438693	1.036714
C148	C	2.085742	0.061307	1.536714
C149	C	1.451310	-0.573070	1.036694
C150	C	1.951310	-0.073070	1.536694
C151	C	1.451314	-0.573107	0.971258
C152	C	1.951314	-0.073107	1.471258
C153	C	1.518540	-0.505944	0.938554
C154	C	2.018540	-0.005944	1.438554
H155	H	0.785155	-0.328302	0.314723
H156	H	1.285155	0.171698	0.814723
F157	F	1.657297	-1.118853	0.219235
F158	F	2.157297	-0.618853	0.719235
H159	H	1.023846	-0.620437	0.139923
H160	H	1.523846	-0.120437	0.639923
H161	H	1.396578	-0.627749	1.063326
H162	H	1.896578	-0.127749	1.563326
F163	F	0.736684	-0.160874	0.508551
F164	F	1.236684	0.339126	1.008551
H165	H	0.919314	-0.627939	0.229036
H166	H	1.419314	-0.127939	0.729036
F167	F	1.620474	-1.023259	0.134843
F168	F	2.120474	-0.523259	0.634843
H169	H	1.755113	-0.901029	0.067463
H170	H	2.255113	-0.401029	0.567463
H171	H	1.281870	-1.110324	0.536286
H172	H	1.781870	-0.610324	1.036286
H173	H	1.396584	-0.627831	0.944616
H174	H	1.896584	-0.127831	1.444616
H175	H	1.252716	-0.684098	0.288987
H176	H	1.752716	-0.184098	0.788987
F177	F	0.923453	-0.266355	0.551920
F178	F	1.423453	0.233645	1.051920
F179	F	1.114378	-0.746146	0.051807
F180	F	1.614378	-0.246146	0.551807
F181	F	1.535707	-0.310655	0.734618
F182	F	2.035707	0.189345	1.234618
F183	F	1.416506	-0.988095	0.468898
F184	F	1.916506	-0.488095	0.968898
H185	H	1.287445	-0.834858	0.105220
H186	H	1.787445	-0.334858	0.605220
F187	F	1.864398	-0.723052	0.095698
F188	F	2.364398	-0.223052	0.595698
F189	F	1.379765	-0.644781	0.667866
F190	F	1.879765	-0.144781	1.167866
H191	H	1.189373	-1.274565	0.498038
H192	H	1.689373	-0.774565	0.998038
H193	H	1.218758	-1.339217	0.387133
H194	H	1.718758	-0.839217	0.887133
F195	F	1.344664	-1.248533	0.299193
F196	F	1.844664	-0.748533	0.799193
H197	H	1.533629	-0.334250	0.861514
H198	H	2.033629	0.165750	1.361514
H199	H	1.014000	-0.392036	0.463789
H200	H	1.514000	0.107964	0.963789
H201	H	1.640477	-0.383969	1.063356
H202	H	2.140477	0.116031	1.563356
F203	F	1.830917	-0.649476	0.221879
F204	F	2.330917	-0.149476	0.721879
H205	H	1.696260	-0.771682	0.289253
H206	H	2.196260	-0.271682	0.789253
F207	F	1.657294	-0.367256	0.936469
F208	F	2.157294	0.132744	1.436469
F209	F	1.379747	-0.644856	0.532791
F210	F	1.879747	-0.144856	1.032791
H211	H	1.503446	-0.677731	0.861526
H212	H	2.003446	-0.177731	1.361526
H213	H	1.352171	-0.805790	0.216157
H214	H	1.852171	-0.305790	0.716157
F215	F	1.132258	-0.367712	0.384712
F216	F	1.632258	0.132288	0.884712
F217	F	0.663069	-0.193864	0.382309
F218	F	1.163069	0.306136	0.882309
F219	F	1.379628	-0.892490	0.384505
F220	F	1.879628	-0.392490	0.884505
F221	F	1.501381	-0.701476	0.734641
F222	F	2.001381	-0.201476	1.234641
H223	H	1.640474	-0.384286	0.541012
H224	H	2.140474	0.115714	1.041012
H225	H	1.640467	-0.384209	0.659719
H226	H	2.140467	0.115791	1.159719
