data_functionalizedCrystal
_audit_creation_method	'MofGen! by Chris Wilmer'
_symmetry_space_group_name_H-M	'P1'
_symmetry_Int_Tables_number	1
_symmetry_cell_setting	triclinic
loop_
_symmetry_equiv_pos_as_xyz
  x,y,z
_cell_length_a	15.944499
_cell_length_b	15.944551
_cell_length_c	9.482900
_cell_angle_alpha	80.665803
_cell_angle_beta	99.290781
_cell_angle_gamma	83.488174
loop_
_atom_site_label
_atom_site_type_symbol
_atom_site_fract_x
_atom_site_fract_y
_atom_site_fract_z
O1	O	1.127652	0.094962	0.120986
O2	O	0.883095	0.108365	0.120970
O3	O	1.012051	-0.020611	0.120965
O4	O	0.998697	0.223938	0.120991
O5	O	0.985857	0.005692	-0.120826
O6	O	0.856901	0.134668	-0.120821
O7	O	1.101459	0.121265	-0.120806
Cu8	Cu	0.976788	0.130368	-0.142891
Cu9	Cu	1.007765	0.099262	0.143056
O10	O	0.972503	0.250241	-0.120801
C11	C	0.838703	0.120968	0.000072
C12	C	0.745454	0.119324	0.000066
C13	C	0.453921	0.194253	0.000095
C14	C	0.527865	0.142333	0.119310
C15	C	0.409821	0.113344	0.000099
C16	C	0.502026	0.168244	-0.119078
C17	C	0.574728	0.116287	0.000080
C18	C	0.482548	0.061391	0.119412
C19	C	0.456691	0.087325	-0.119083
C20	C	0.530620	0.035342	0.000161
C21	C	0.314822	0.111651	0.000111
C22	C	0.669727	0.117973	0.000079
C23	C	0.998399	-0.038753	0.000069
C24	C	0.996737	-0.131999	0.000068
C25	C	0.912832	-0.346842	0.000083
C26	C	0.938880	-0.394897	-0.119132
C27	C	0.993731	-0.302726	0.000079
C28	C	0.964724	-0.420814	0.119255
C29	C	0.990822	-0.467640	0.000096
C30	C	1.019791	-0.349542	-0.119234
C31	C	1.045635	-0.375464	0.119260
C32	C	1.071739	-0.423499	0.000016
C33	C	0.995404	-0.207722	0.000068
C34	C	0.989153	-0.562640	0.000097
C35	C	1.145851	0.108662	0.000096
C36	C	1.239101	0.110305	0.000112
C37	C	0.986155	0.268383	0.000098
C38	C	0.987818	0.361628	0.000109
N39	N	0.955007	0.152246	-0.344010
C40	C	1.001335	0.105710	-0.416211
C41	C	0.983218	0.123920	-0.583628
N42	N	1.029554	0.077377	0.344175
H43	H	0.420605	0.261386	0.000218
N44	N	0.882273	-0.406384	-0.245572
N45	N	0.910590	-0.446496	-0.334809
H46	H	0.870607	-0.454608	-0.424103
N47	N	1.067873	0.038745	-0.338376
N48	N	1.143736	0.041431	-0.355224
H49	H	1.190710	-0.005896	-0.300290
H50	H	0.563803	-0.031870	0.000217
H51	H	0.901928	0.205566	-0.406138
H52	H	1.043048	-0.318582	-0.220132
H53	H	0.558882	0.165593	0.220097
N54	N	0.916620	0.190814	-0.661526
N55	N	0.840772	0.188019	-0.644667
H56	H	0.793736	0.235262	-0.699682
H57	H	0.473499	0.016225	0.220311
H58	H	1.090742	-0.366305	0.220057
H59	H	1.138941	-0.456663	-0.000047
N60	N	0.513498	0.224947	-0.245515
N61	N	0.449547	0.264620	-0.335208
H62	H	0.457644	0.304672	-0.424501
N63	N	0.935479	-0.459774	0.245675
N64	N	0.869711	-0.495781	0.232422
H65	H	0.849051	-0.523295	0.321699
N66	N	0.417760	0.058190	-0.245540
N67	N	0.418627	0.099221	-0.369235
H68	H	0.391130	0.078652	-0.458558
N69	N	0.828574	-0.305032	-0.000075
N70	N	0.768541	-0.305761	-0.102286
H71	H	0.709034	-0.276232	-0.102404
N72	N	1.096132	0.010476	-0.577885
N73	N	1.110754	-0.004226	-0.441997
H74	H	1.157774	-0.051475	-0.386949
