data_functionalizedCrystal
_audit_creation_method	'MofGen! by Chris Wilmer'
_symmetry_space_group_name_H-M	'P1'
_symmetry_Int_Tables_number	1
_symmetry_cell_setting	triclinic
loop_
_symmetry_equiv_pos_as_xyz
  x,y,z
_cell_length_a	6.817900
_cell_length_b	11.102188
_cell_length_c	14.125465
_cell_angle_alpha	94.635546
_cell_angle_beta	100.398878
_cell_angle_gamma	108.603886
loop_
_atom_site_label
_atom_site_type_symbol
_atom_site_fract_x
_atom_site_fract_y
_atom_site_fract_z
V1	V	-4.017258	-0.174747	-0.299977
V2	V	-3.517258	0.325253	0.200023
O3	O	-3.978095	0.009521	-0.294266
O4	O	-3.478095	0.509521	0.205734
O5	O	-3.994671	-0.347575	-0.297925
O6	O	-3.494671	0.152425	0.202075
O7	O	-3.952928	-0.171566	-0.430807
O8	O	-3.452928	0.328434	0.069193
O9	O	-4.020126	-0.167706	-0.160465
O10	O	-3.520126	0.332294	0.339535
V11	V	-4.499605	-0.152765	-0.283290
V12	V	-3.999605	0.347235	0.216710
O13	O	-4.281095	-0.222967	-0.336581
O14	O	-3.781095	0.277033	0.163419
O15	O	-4.685966	-0.104545	-0.246686
O16	O	-4.185966	0.395455	0.253314
O17	O	-4.298986	0.020063	-0.285341
O18	O	-3.798986	0.520063	0.214659
O19	O	-4.656166	-0.337033	-0.289001
O20	O	-4.156166	0.162967	0.210999
O21	O	-4.614134	-0.159806	-0.422802
O22	O	-4.114134	0.340194	0.077198
O23	O	-4.340729	-0.155946	-0.152460
O24	O	-3.840729	0.344054	0.347540
C25	C	-3.846466	-0.389722	-0.293193
C26	C	-3.346466	0.110278	0.206807
C27	C	-3.909179	-0.531007	-0.292388
C28	C	-3.409179	-0.031007	0.207612
C29	C	-3.965116	-0.712317	-0.203151
C30	C	-3.465116	-0.212317	0.296849
C31	C	-3.906168	-0.579562	-0.203903
C32	C	-3.406168	-0.079562	0.296097
C33	C	-3.971123	-0.615214	-0.380126
C34	C	-3.471123	-0.115214	0.119874
C35	C	-4.030055	-0.747965	-0.379372
C36	C	-3.530055	-0.247965	0.120628
C37	C	-3.962120	-0.760864	-0.114661
C38	C	-3.462120	-0.260864	0.385339
C39	C	-3.900176	-0.676667	-0.026922
C40	C	-3.400176	-0.176667	0.473078
C41	C	-3.841228	-0.543912	-0.027674
C42	C	-3.341228	-0.043912	0.472326
C43	C	-3.844224	-0.495356	-0.116165
C44	C	-3.344224	0.004644	0.383835
C45	C	-3.793218	-0.165204	-0.462695
C46	C	-3.293218	0.334796	0.037305
C47	C	-3.822076	-0.163747	-0.569650
C48	C	-3.322076	0.336253	-0.069650
C49	C	-3.874969	-0.161074	-0.765473
C50	C	-3.374969	0.338926	-0.265473
C51	C	-4.061263	-0.166435	-0.817794
C52	C	-3.561263	0.333565	-0.317794
C53	C	-4.090695	-0.164948	-0.926757
C54	C	-3.590695	0.335052	-0.426757
C55	C	-3.845529	-0.162561	-0.656500
C56	C	-3.345529	0.337439	-0.156500
C57	C	-4.110534	0.062203	-0.290071
C58	C	-3.610534	0.562203	0.209929
C59	C	-4.027059	0.203487	-0.290882
C60	C	-3.527059	0.703487	0.209118
C61	C	-4.163782	-0.162312	-0.120566
C62	C	-3.663782	0.337688	0.379434
C63	C	-4.114162	-0.163763	-0.013611
C64	C	-3.614162	0.336237	0.486389
H65	H	-3.973559	-0.575668	-0.452171
H66	H	-3.473559	-0.075668	0.047829
Cl67	Cl	-3.662875	-0.152280	-0.822658
Cl68	Cl	-3.162875	0.347720	-0.322658
H69	H	-4.010119	-0.868958	-0.114038
H70	H	-3.510119	-0.368958	0.385962
H71	H	-4.198655	-0.172154	-0.780756
H72	H	-3.698655	0.327846	-0.280756
H73	H	-3.796164	-0.387255	-0.116769
H74	H	-3.296164	0.112745	0.383231
H75	H	-4.080486	-0.816520	-0.450811
H76	H	-3.580486	-0.316520	0.049189
H77	H	-3.897724	-0.716210	0.045124
H78	H	-3.397724	-0.216210	0.545124
Cl79	Cl	-3.763335	-0.438067	0.082623
Cl80	Cl	-3.263335	0.061933	0.582623
