data_functionalizedCrystal
_audit_creation_method	'MofGen! by Chris Wilmer'
_symmetry_space_group_name_H-M	'P1'
_symmetry_Int_Tables_number	1
_symmetry_cell_setting	triclinic
loop_
_symmetry_equiv_pos_as_xyz
  x,y,z
_cell_length_a	19.188925
_cell_length_b	19.188930
_cell_length_c	18.266242
_cell_angle_alpha	90.011475
_cell_angle_beta	89.990012
_cell_angle_gamma	96.856335
loop_
_atom_site_label
_atom_site_type_symbol
_atom_site_fract_x
_atom_site_fract_y
_atom_site_fract_z
O1	O	0.926152	-0.087151	-0.060905
O2	O	0.722840	-0.098889	-0.060904
O3	O	0.830363	0.008636	-0.060890
O4	O	0.818629	-0.194675	-0.060919
O5	O	0.830345	0.008642	0.060872
O6	O	0.722822	-0.098883	0.060858
O7	O	0.926133	-0.087145	0.060857
Zn8	Zn	0.824475	-0.093013	0.080190
Zn9	Zn	0.824499	-0.093021	-0.080237
O10	O	0.818610	-0.194670	0.060843
C11	C	0.696820	-0.098507	-0.000023
C12	C	0.619315	-0.097367	-0.000022
C13	C	0.057545	-0.152831	-0.000031
C14	C	0.130368	-0.153908	-0.000035
C15	C	0.175302	-0.090816	-0.000025
C16	C	0.147408	-0.026642	-0.000030
C17	C	0.074586	-0.025568	-0.000033
N18	N	0.295973	-0.045138	0.041430
N19	N	0.365151	-0.046163	0.041435
C20	C	0.394712	-0.094050	-0.000017
N21	N	0.352480	-0.140883	-0.041464
N22	N	0.283296	-0.139860	-0.041465
C23	C	0.254267	-0.091974	-0.000022
C24	C	0.501561	-0.159386	-0.000022
C25	C	0.574385	-0.160460	-0.000031
C26	C	0.591425	-0.033193	-0.000018
C27	C	0.518601	-0.032121	-0.000016
C28	C	0.473673	-0.095220	-0.000015
C29	C	0.829974	0.034650	-0.000007
C30	C	0.828833	0.112154	-0.000001
C31	C	0.952154	-0.087527	-0.000026
C32	C	1.029658	-0.088666	-0.000032
C33	C	0.819000	-0.220684	-0.000041
C34	C	0.820140	-0.298188	-0.000053
N35	N	0.824463	-0.093008	0.189677
C36	C	0.891924	0.157079	0.000002
C37	C	0.890852	0.229903	-0.000009
C38	C	0.826686	0.257799	-0.000010
C39	C	0.763587	0.212864	-0.000017
C40	C	0.764660	0.140041	-0.000012
N41	N	0.777633	0.365805	0.041429
N42	N	0.776617	0.434983	0.041426
C43	C	0.823448	0.477207	-0.000024
N44	N	0.871343	0.447641	-0.041463
N45	N	0.872361	0.378456	-0.041457
C46	C	0.825515	0.336761	-0.000015
C47	C	0.885381	0.601097	-0.000035
C48	C	0.884307	0.673922	-0.000051
C49	C	0.757040	0.656880	-0.000051
C50	C	0.758116	0.584057	-0.000042
C51	C	0.822289	0.556170	-0.000031
N52	N	0.824515	-0.093020	-0.189724
C53	C	0.872090	-0.045419	0.227992
C54	C	0.872095	-0.045416	0.304637
C55	C	0.824479	-0.093013	0.342964
C56	C	0.776843	-0.140606	0.304639
C57	C	0.776836	-0.140603	0.227996
N58	N	0.815403	-0.154821	0.463287
N59	N	0.815415	-0.154821	0.536096
C60	C	0.824499	-0.093024	0.573886
N61	N	0.833584	-0.031223	0.536118
N62	N	0.833576	-0.031223	0.463303
C63	C	0.824482	-0.093021	0.426071
C64	C	0.872133	-0.045427	0.695308
C65	C	0.872132	-0.045423	0.771955
C66	C	0.776884	-0.140619	0.771956
C67	C	0.776881	-0.140617	0.695311
C68	C	0.824509	-0.093022	0.656992
H69	H	0.051883	0.026685	-0.000033
C70	C	0.735462	-0.261577	0.204381
C71	C	0.724486	-0.192922	0.185875
H72	H	0.703146	-0.293876	0.178373
H73	H	0.728646	-0.268384	0.255505
H74	H	0.782035	-0.269034	0.191804
H75	H	0.677914	-0.185463	0.198457
H76	H	0.731296	-0.186112	0.134740
H77	H	0.910870	-0.006663	0.196795
C78	C	1.010211	0.683447	-0.000030
C79	C	0.953663	0.723307	-0.000046
H80	H	1.053028	0.713937	-0.000022
H81	H	1.007995	0.654680	-0.042486
H82	H	1.007966	0.654697	0.042437
H83	H	0.955905	0.752053	-0.042515
H84	H	0.955880	0.752086	0.042415
H85	H	0.711342	0.235581	-0.000019
H86	H	0.464978	-0.210765	-0.000022
C87	C	0.156937	0.099260	-0.000025
C88	C	0.196797	0.042711	-0.000021
H89	H	0.187429	0.142077	-0.000028
H90	H	0.128174	0.097040	0.042432
H91	H	0.128186	0.097021	-0.042491
H92	H	0.225545	0.044947	0.042447
H93	H	0.225573	0.044933	-0.042483
C94	C	0.692030	0.048276	0.062584
C95	C	0.695307	0.090652	-0.000012
H96	H	0.649216	0.017782	0.062581
H97	H	0.694244	0.077050	0.105034
H98	H	0.730404	0.021248	0.062581
H99	H	0.656935	0.117684	-0.000006
H100	H	0.693087	0.061874	-0.042473
C101	C	0.682736	-0.234712	0.764254
C102	C	0.724541	-0.192939	0.814075
H103	H	0.650417	-0.267008	0.790261
H104	H	0.711717	-0.259754	0.734349
H105	H	0.657713	-0.205702	0.734372
H106	H	0.749568	-0.221949	0.843954
H107	H	0.695557	-0.167895	0.843993
H108	H	0.153078	-0.206160	-0.000028
H109	H	0.944179	0.134379	0.000009
H110	H	0.738073	-0.179359	0.335849
H111	H	0.942230	0.266488	-0.000010
C112	C	0.960421	0.529061	-0.062619
C113	C	0.955915	0.570432	-0.000032
H114	H	1.003964	0.510129	-0.062615
H115	H	0.957367	0.557105	-0.105076
H116	H	0.922993	0.491885	-0.062606
H117	H	0.993341	0.607612	-0.000049
H118	H	0.958976	0.542387	0.042435
C119	C	0.761436	-0.235676	0.609101
C120	C	0.724537	-0.192938	0.653190
H121	H	0.729117	-0.267975	0.583096
H122	H	0.790417	-0.260715	0.638988
H123	H	0.789790	-0.207321	0.575310
H124	H	0.696186	-0.221293	0.686985
H125	H	0.695544	-0.167897	0.623301
H126	H	0.704794	0.679592	-0.000055
H127	H	0.628010	0.018178	-0.000015
C128	C	0.966247	0.048677	0.296945
C129	C	0.924447	0.006900	0.346764
H130	H	0.998567	0.080972	0.322953
H131	H	0.937262	0.073721	0.267067
H132	H	0.991267	0.019670	0.267036
H133	H	0.899423	0.035906	0.376670
H134	H	0.953435	-0.018146	0.376655
H135	H	0.597088	-0.212713	-0.000036
H136	H	0.020968	-0.204211	-0.000034
H137	H	0.495896	0.020129	-0.000012
C138	C	0.966275	0.048675	0.703002
C139	C	0.924476	0.006895	0.653182
H140	H	0.998586	0.080979	0.676995
H141	H	0.991301	0.019675	0.732881
H142	H	0.937284	0.073714	0.732911
H143	H	0.953466	-0.018148	0.623276
H144	H	0.899448	0.035899	0.623291
H145	H	0.706740	0.547478	-0.000041
C146	C	0.887597	0.049643	0.858156
C147	C	0.924488	0.006893	0.814071
H148	H	0.919921	0.081944	0.884153
H149	H	0.859243	0.021301	0.891947
H150	H	0.858616	0.074686	0.828261
H151	H	0.953465	-0.018154	0.843967
H152	H	0.952854	0.035239	0.780276
