data_functionalizedCrystal
_audit_creation_method	'MofGen! by Chris Wilmer'
_symmetry_space_group_name_H-M	'P1'
_symmetry_Int_Tables_number	1
_symmetry_cell_setting	triclinic
loop_
_symmetry_equiv_pos_as_xyz
  x,y,z
_cell_length_a	19.805407
_cell_length_b	25.639240
_cell_length_c	19.805399
_cell_angle_alpha	89.969206
_cell_angle_beta	90.019573
_cell_angle_gamma	89.956837
loop_
_atom_site_label
_atom_site_type_symbol
_atom_site_fract_x
_atom_site_fract_y
_atom_site_fract_z
Zn1	Zn	1.034657	0.208163	0.382705
Zn2	Zn	1.367990	0.541496	0.716038
Zn3	Zn	1.701324	0.874830	1.049371
Zn4	Zn	1.034539	0.295597	0.269510
Zn5	Zn	1.367872	0.628930	0.602843
Zn6	Zn	1.701205	0.962264	0.936177
Zn7	Zn	0.921472	0.208177	0.269529
Zn8	Zn	1.254805	0.541511	0.602862
Zn9	Zn	1.588138	0.874844	0.936196
Zn10	Zn	0.921402	0.295569	0.382657
Zn11	Zn	1.254735	0.628902	0.715990
Zn12	Zn	1.588069	0.962236	1.049323
O13	O	0.978017	0.251877	0.326100
O14	O	1.311351	0.585210	0.659433
O15	O	1.644684	0.918543	0.992767
O16	O	1.129358	0.219767	0.367701
O17	O	1.462691	0.553100	0.701034
O18	O	1.796024	0.886433	1.034368
O19	O	1.019520	0.284018	0.174796
O20	O	1.352853	0.617352	0.508129
O21	O	1.686186	0.950685	0.841462
O22	O	0.936564	0.135010	0.284570
O23	O	1.269898	0.468344	0.617903
O24	O	1.603231	0.801677	0.951237
O25	O	1.129271	0.284004	0.284537
O26	O	1.462604	0.617338	0.617871
O27	O	1.795938	0.950671	0.951204
O28	O	1.019721	0.135000	0.367720
O29	O	1.353055	0.468333	0.701053
O30	O	1.686388	0.801666	1.034386
O31	O	0.936450	0.219791	0.174810
O32	O	1.269783	0.553125	0.508143
O33	O	1.603116	0.886458	0.841477
O34	O	0.826746	0.219764	0.284524
O35	O	1.160079	0.553098	0.617857
O36	O	1.493412	0.886431	0.951190
O37	O	0.936446	0.283957	0.477380
O38	O	1.269779	0.617290	0.810713
O39	O	1.603113	0.950624	1.144046
O40	O	0.826695	0.283971	0.367638
O41	O	1.160028	0.617304	0.700971
O42	O	1.493361	0.950638	1.034305
O43	O	1.019654	0.219740	0.477415
O44	O	1.352987	0.553073	0.810748
O45	O	1.686320	0.886407	1.144081
O46	O	1.019452	0.368758	0.284491
O47	O	1.352786	0.702092	0.617824
O48	O	1.686119	1.035425	0.951158
O49	O	0.936331	0.368738	0.367619
O50	O	1.269664	0.702071	0.700953
O51	O	1.602998	1.035405	1.034286
C52	C	0.802161	0.251867	0.326078
C53	C	1.135495	0.585200	0.659411
C54	C	1.468828	0.918533	0.992745
C55	C	0.726929	0.251875	0.326085
C56	C	1.060263	0.585208	0.659418
C57	C	1.393596	0.918542	0.992752
C58	C	0.691576	0.285357	0.369292
C59	C	1.024909	0.618691	0.702626
C60	C	1.358243	0.952024	1.035959
C61	C	0.620888	0.285358	0.369302
C62	C	0.954221	0.618692	0.702635
C63	C	1.287554	0.952025	1.035969
C64	C	0.585554	0.251879	0.326100
C65	C	0.918887	0.585212	0.659433
C66	C	1.252220	0.918546	0.992767
C67	C	0.620912	0.218393	0.282891
C68	C	0.954245	0.551726	0.616224
C69	C	1.287578	0.885059	0.949557
C70	C	0.691599	0.218390	0.282885
C71	C	1.024932	0.551723	0.616218
C72	C	1.358266	0.885056	0.949552
C73	C	0.335838	0.218404	0.282913
C74	C	0.669172	0.551738	0.616246
C75	C	1.002505	0.885071	0.949580
C76	C	0.265146	0.218411	0.282920
C77	C	0.598480	0.551744	0.616254
C78	C	0.931813	0.885078	0.949587
C79	C	0.265127	0.285373	0.369330
C80	C	0.598461	0.618706	0.702663
C81	C	0.931794	0.952040	1.035997
C82	C	0.335814	0.285370	0.369324
C83	C	0.669148	0.618703	0.702658
C84	C	1.002481	0.952037	1.035991
C85	C	0.371166	0.251882	0.326118
C86	C	0.704500	0.585215	0.659451
C87	C	1.037833	0.918549	0.992784
C88	C	0.447815	0.251881	0.326109
C89	C	0.781148	0.585214	0.659442
C90	C	1.114481	0.918547	0.992775
C91	C	0.508907	0.251883	0.326105
C92	C	0.842240	0.585216	0.659438
C93	C	1.175573	0.918549	0.992772
C94	C	0.977890	0.387719	0.326063
C95	C	1.311223	0.721053	0.659396
C96	C	1.644556	1.054386	0.992729
C97	C	0.977897	0.445833	0.326069
C98	C	1.311230	0.779167	0.659403
C99	C	1.644564	1.112500	0.992736
C100	C	1.021355	0.806194	0.282863
C101	C	1.354689	1.139528	0.616196
C102	C	1.688022	1.472861	0.949530
C103	C	1.021376	0.860799	0.282869
C104	C	1.354709	1.194132	0.616203
C105	C	1.688043	1.527465	0.949536
O106	O	1.058236	0.889034	0.246113
O107	O	1.391569	1.222367	0.579446
O108	O	1.724902	1.555700	0.912779
N109	N	0.978072	0.888116	0.326115
N110	N	1.311405	1.221449	0.659448
N111	N	1.644738	1.554782	0.992782
C112	C	0.934749	0.860826	0.369362
C113	C	1.268082	1.194159	0.702695
C114	C	1.601416	1.527492	1.036029
O115	O	0.897918	0.889075	0.406147
O116	O	1.231251	1.222408	0.739480
O117	O	1.564585	1.555741	1.072814
C118	C	0.934732	0.806222	0.369358
C119	C	1.268066	1.139556	0.702692
C120	C	1.601399	1.472889	1.036025
C121	C	0.978034	0.778908	0.326105
C122	C	1.311368	1.112241	0.659438
C123	C	1.644701	1.445575	0.992772
C124	C	1.064654	0.778880	0.239614
C125	C	1.397988	1.112213	0.572947
C126	C	1.731321	1.445547	0.906280
C127	C	1.064633	0.724280	0.239606
C128	C	1.397966	1.057613	0.572940
C129	C	1.731299	1.390946	0.906273
C130	C	1.021312	0.696993	0.282848
C131	C	1.354645	1.030327	0.616182
C132	C	1.687978	1.363660	0.949515
C133	C	0.978013	0.724307	0.326098
C134	C	1.311346	1.057641	0.659431
C135	C	1.644679	1.390974	0.992764
C136	C	0.891413	0.778933	0.412608
C137	C	1.224747	1.112266	0.745942
C138	C	1.558080	1.445600	1.079275
C139	C	0.891401	0.724326	0.412601
C140	C	1.224734	1.057659	0.745935
C141	C	1.558067	1.390993	1.079268
C142	C	0.934703	0.697012	0.369348
C143	C	1.268036	1.030345	0.702681
C144	C	1.601369	1.363679	1.036015
C145	C	0.934670	0.642421	0.369333
C146	C	1.268003	0.975754	0.702666
C147	C	1.601337	1.309087	1.035999
N148	N	0.977974	0.615104	0.326087
N149	N	1.311307	0.948437	0.659420
N150	N	1.644641	1.281770	0.992754
C151	C	1.021295	0.642390	0.282845
C152	C	1.354628	0.975723	0.616178
C153	C	1.687962	1.309057	0.949512
C154	C	0.934788	0.975496	0.369367
C155	C	1.268122	1.308829	0.702700
C156	C	1.601455	1.642163	1.036034
C157	C	0.934801	1.030098	0.369368
C158	C	1.268135	1.363432	0.702701
C159	C	1.601468	1.696765	1.036034
C160	C	1.021429	1.030068	0.282876
C161	C	1.354763	1.363401	0.616209
C162	C	1.688096	1.696734	0.949543
C163	C	1.021412	0.975464	0.282872
C164	C	1.354746	1.308798	0.616206
C165	C	1.688079	1.642131	0.949539
C166	C	0.978093	0.948179	0.326121
C167	C	1.311426	1.281512	0.659455
C168	C	1.644759	1.614846	0.992788
C169	C	1.021245	0.527725	0.282833
C170	C	1.354579	0.861058	0.616166
C171	C	1.687912	1.194392	0.949499
C172	C	1.021218	0.473120	0.282827
C173	C	1.354551	0.806453	0.616161
C174	C	1.687885	1.139786	0.949494
C175	C	0.934593	0.473155	0.369321
C176	C	1.267926	0.806488	0.702655
C177	C	1.601259	1.139822	1.035988
C178	C	0.934618	0.527756	0.369324
C179	C	1.267951	0.861089	0.702658
C180	C	1.601284	1.194422	1.035991
C181	C	0.977949	0.555039	0.326078
C182	C	1.311283	0.888373	0.659411
C183	C	1.644616	1.221706	0.992745
O184	O	0.897831	0.614151	0.406073
O185	O	1.231164	0.947484	0.739406
O186	O	1.564498	1.280818	1.072739
O187	O	1.058126	0.614134	0.246072
O188	O	1.391459	0.947467	0.579406
O189	O	1.724793	1.280801	0.912739
C190	C	1.154560	0.251887	0.326122
C191	C	1.487893	0.585220	0.659456
C192	C	1.821227	0.918554	0.992789
C193	C	1.229792	0.251891	0.326132
C194	C	1.563125	0.585225	0.659465
C195	C	1.896459	0.918558	0.992799
C196	C	0.978055	0.251844	0.502643
C197	C	1.311389	0.585177	0.835976
C198	C	1.644722	0.918510	1.169310
C199	C	0.978071	0.251830	0.577875
C200	C	1.311405	0.585163	0.911208
C201	C	1.644738	0.918496	1.244542
C202	C	0.978138	1.115504	0.326141
C203	C	1.311472	1.448837	0.659474
C204	C	1.644805	1.782170	0.992807
C205	C	0.978125	1.057390	0.326128
C206	C	1.311458	1.390723	0.659461
C207	C	1.644792	1.724056	0.992795
C208	C	0.978018	0.251872	0.150244
C209	C	1.311352	0.585205	0.483577
C210	C	1.644685	0.918538	0.816911
C211	C	0.978133	0.251738	0.075012
C212	C	1.311467	0.585072	0.408346
C213	C	1.644800	0.918405	0.741679
C214	C	1.021399	0.218390	0.613238
C215	C	1.354732	0.551724	0.946572
C216	C	1.688065	0.885057	1.279905
C217	C	1.021406	0.218375	0.683927
C218	C	1.354739	0.551708	1.017260
C219	C	1.688072	0.885042	1.350594
C220	C	0.978088	0.251802	0.719251
C221	C	1.311422	0.585136	1.052584
C222	C	1.644755	0.918469	1.385917
C223	C	0.934756	0.285243	0.683882
C224	C	1.268089	0.618577	1.017215
C225	C	1.601423	0.951910	1.350549
C226	C	0.934746	0.285255	0.613195
C227	C	1.268080	0.618589	0.946528
C228	C	1.601413	0.951922	1.279861
C229	C	0.934794	0.285195	0.968955
C230	C	1.268128	0.618528	1.302289
C231	C	1.601461	0.951861	1.635622
C232	C	0.934809	0.285181	1.039648
C233	C	1.268142	0.618514	1.372981
C234	C	1.601476	0.951848	1.706314
C235	C	1.021454	0.218314	1.039688
C236	C	1.354787	0.551647	1.373021
C237	C	1.688120	0.884981	1.706354
C238	C	1.021444	0.218326	0.969000
C239	C	1.354777	0.551660	1.302334
C240	C	1.688111	0.884993	1.635667
C241	C	0.978110	0.251765	0.933638
C242	C	1.311443	0.585098	1.266971
C243	C	1.644776	0.918432	1.600305
C244	C	0.978102	0.251780	0.856990
C245	C	1.311435	0.585114	1.190323
C246	C	1.644768	0.918447	1.523656
C247	C	0.978099	0.251790	0.795898
C248	C	1.311432	0.585123	1.129231
C249	C	1.644766	0.918457	1.462564
H250	H	0.720382	0.191122	0.247704
H251	H	1.053716	0.524455	0.581038
H252	H	1.387049	0.857788	0.914371
Br253	Br	0.875806	0.436113	0.428007
Br254	Br	1.209139	0.769446	0.761340
Br255	Br	1.542472	1.102780	1.094674
Br256	Br	1.080238	0.172962	0.921065
Br257	Br	1.413571	0.506295	1.254398
Br258	Br	1.746904	0.839629	1.587731
Br259	Br	1.080265	0.172931	1.087683
Br260	Br	1.413598	0.506265	1.421016
Br261	Br	1.746932	0.839598	1.754350
Br262	Br	0.383807	0.172953	0.224279
Br263	Br	0.717140	0.506287	0.557612
Br264	Br	1.050474	0.839620	0.890946
Br265	Br	0.875982	0.330575	0.920972
Br266	Br	1.209316	0.663908	1.254306
Br267	Br	1.542649	0.997241	1.587639
H268	H	1.099935	0.801091	0.204400
H269	H	1.433268	1.134424	0.537734
H270	H	1.766602	1.467757	0.871067
H271	H	0.592137	0.191131	0.247718
H272	H	0.925470	0.524464	0.581051
H273	H	1.258804	0.857798	0.914384
H274	H	0.236379	0.191145	0.247740
H275	H	0.569713	0.524478	0.581073
H276	H	0.903046	0.857812	0.914407
H277	H	1.099895	0.702043	0.204388
H278	H	1.433228	1.035377	0.537721
H279	H	1.766561	1.368710	0.871054
H280	H	1.056689	0.191146	0.712717
H281	H	1.390022	0.524480	1.046050
H282	H	1.723355	0.857813	1.379383
H283	H	1.056480	0.450882	0.247603
H284	H	1.389813	0.784215	0.580936
H285	H	1.723146	1.117549	0.914269
H286	H	0.856125	0.702113	0.447822
H287	H	1.189458	1.035446	0.781155
H288	H	1.522792	1.368780	1.114489
H289	H	1.056673	0.953228	0.247652
H290	H	1.390006	1.286562	0.580985
H291	H	1.723340	1.619895	0.914319
H292	H	0.899360	0.549996	0.404547
H293	H	1.232693	0.883329	0.737880
H294	H	1.566026	1.216663	1.071214
Br295	Br	0.876018	0.330550	1.087587
Br296	Br	1.209351	0.663884	1.420920
Br297	Br	1.542685	0.997217	1.754254
H298	H	1.056675	0.191171	0.584483
H299	H	1.390008	0.524505	0.917816
H300	H	1.723342	0.857838	1.251150
Br301	Br	0.572911	0.330800	0.427945
Br302	Br	0.906244	0.664133	0.761278
Br303	Br	1.239577	0.997466	1.094612
Br304	Br	0.383764	0.330811	0.427953
Br305	Br	0.717098	0.664144	0.761287
Br306	Br	1.050431	0.997478	1.094620
H307	H	0.236335	0.312639	0.404513
H308	H	0.569669	0.645972	0.737847
H309	H	0.903002	0.979305	1.071180
H310	H	1.056532	0.549933	0.247619
H311	H	1.389865	0.883266	0.580952
H312	H	1.723199	1.216599	0.914285
H313	H	1.056706	1.052294	0.247668
H314	H	1.390039	1.385627	0.581001
H315	H	1.723373	1.718961	0.914335
Br316	Br	0.876022	1.067161	0.428061
Br317	Br	1.209355	1.400494	0.761395
Br318	Br	1.542689	1.733828	1.094728
Br319	Br	0.875963	0.330606	0.731820
Br320	Br	1.209296	0.663940	1.065154
Br321	Br	1.542630	0.997273	1.398487
Br322	Br	0.875987	0.938472	0.428064
Br323	Br	1.209320	1.271805	0.761397
Br324	Br	1.542654	1.605138	1.094730
Br325	Br	0.832650	0.815989	0.471320
Br326	Br	1.165983	1.149322	0.804654
Br327	Br	1.499316	1.482655	1.137987
H328	H	0.899458	0.312480	0.584403
H329	H	1.232791	0.645813	0.917736
H330	H	1.566125	0.979147	1.251069
H331	H	0.720340	0.312622	0.404470
H332	H	1.053673	0.645955	0.737804
H333	H	1.387007	0.979289	1.071137
