data_functionalizedCrystal
_audit_creation_method	'MofGen! by Chris Wilmer'
_symmetry_space_group_name_H-M	'P1'
_symmetry_Int_Tables_number	1
_symmetry_cell_setting	triclinic
loop_
_symmetry_equiv_pos_as_xyz
  x,y,z
_cell_length_a	10.967862
_cell_length_b	19.188930
_cell_length_c	9.483335
_cell_angle_alpha	99.290792
_cell_angle_beta	87.463406
_cell_angle_gamma	96.055083
loop_
_atom_site_label
_atom_site_type_symbol
_atom_site_fract_x
_atom_site_fract_y
_atom_site_fract_z
O1	O	-1.571954	0.143998	0.514753
O2	O	-1.222747	0.145539	0.427266
O3	O	-1.407432	0.043404	0.473507
O4	O	-1.387269	0.246132	0.468512
O5	O	-1.444988	0.022615	0.241134
O6	O	-1.260303	0.124749	0.194893
O7	O	-1.609510	0.123208	0.282381
Cu8	Cu	-1.438336	0.122081	0.217420
Cu9	Cu	-1.393921	0.146666	0.492227
O10	O	-1.424825	0.225343	0.236140
C11	C	-1.196848	0.133460	0.299886
C12	C	-1.063727	0.128433	0.266534
C13	C	-0.847335	0.131776	0.337596
C14	C	-0.984926	0.136965	0.372059
C15	C	-1.425558	0.006979	0.357153
C16	C	-1.423601	-0.070584	0.356650
C17	C	-1.531967	-0.112345	0.383792
C18	C	-1.530123	-0.185221	0.383353
C19	C	-1.419911	-0.216334	0.355743
C20	C	-1.311529	-0.174563	0.328605
C21	C	-1.313374	-0.101687	0.329059
N22	N	-1.348448	-0.333873	0.255557
N23	N	-1.346703	-0.403102	0.255125
C24	C	-1.414344	-0.435903	0.354378
N25	N	-1.483818	-0.396861	0.454066
N26	N	-1.485567	-0.327626	0.454493
C27	C	-1.417898	-0.295354	0.355249
C28	C	-1.520718	-0.556684	0.381048
C29	C	-1.518867	-0.629560	0.380617
C30	C	-1.300273	-0.618902	0.325854
C31	C	-1.302124	-0.546026	0.326300
C32	C	-1.412351	-0.514922	0.353891
C33	C	-0.635409	0.135285	0.409758
C34	C	-0.768533	0.140307	0.443105
C35	C	-1.406698	0.261768	0.352496
C36	C	-1.408654	0.339332	0.353008
N37	N	-1.469583	0.104788	0.024137
C38	C	-1.429143	0.127177	-0.225619
C39	C	-1.403114	0.141571	-0.064731
N40	N	-1.362683	0.163953	0.685511
H41	H	-0.812937	0.120634	0.221751
H42	H	-1.019316	0.148116	0.487911
H43	H	-1.618369	-0.219229	0.405462
Br44	Br	-1.006419	0.109863	0.073435
Br45	Br	-1.556111	0.056939	-0.297308
H46	H	-1.286519	0.206099	-0.271463
Br47	Br	-1.276161	0.211822	0.006961
H48	H	-1.545761	0.062646	-0.018879
H49	H	-0.802929	0.151457	0.558949
H50	H	-1.621721	-0.087025	0.406264
H51	H	-1.221793	-0.199900	0.306128
H52	H	-1.610470	-0.531358	0.403521
Br53	Br	-1.166294	-0.045007	0.292224
H54	H	-1.607115	-0.663561	0.402728
Br55	Br	-1.150695	-0.661118	0.288396
H56	H	-1.213882	-0.512024	0.304190
