data_functionalizedCrystal
_audit_creation_method	'MofGen! by Chris Wilmer'
_symmetry_space_group_name_H-M	'P1'
_symmetry_Int_Tables_number	1
_symmetry_cell_setting	triclinic
loop_
_symmetry_equiv_pos_as_xyz
  x,y,z
_cell_length_a	9.065218
_cell_length_b	19.288865
_cell_length_c	17.766277
_cell_angle_alpha	90.011603
_cell_angle_beta	90.009412
_cell_angle_gamma	84.076066
loop_
_atom_site_label
_atom_site_type_symbol
_atom_site_fract_x
_atom_site_fract_y
_atom_site_fract_z
O1	O	-1.956844	-0.101842	-0.062606
O2	O	-1.456844	0.398158	0.437394
O3	O	-1.527266	-0.110195	-0.062608
O4	O	-1.027266	0.389805	0.437392
O5	O	-1.754468	-0.004985	-0.062592
O6	O	-1.254468	0.495015	0.437408
O7	O	-1.729642	-0.207053	-0.062622
O8	O	-1.229642	0.292947	0.437378
O9	O	-1.754428	-0.004979	0.062596
O10	O	-1.254428	0.495021	0.562596
O11	O	-1.527227	-0.110190	0.062580
O12	O	-1.027227	0.389810	0.562580
O13	O	-1.956804	-0.101836	0.062582
O14	O	-1.456804	0.398164	0.562582
Cu15	Cu	-1.742012	-0.106013	0.074012
Cu16	Cu	-1.242012	0.393987	0.574012
Cu17	Cu	-1.742059	-0.106019	-0.074038
Cu18	Cu	-1.242059	0.393981	0.425962
O19	O	-1.729603	-0.207047	0.062566
O20	O	-1.229603	0.292953	0.562566
C21	C	-1.472288	-0.109390	-0.000014
C22	C	-0.972288	0.390610	0.499986
C23	C	-1.308529	-0.106989	-0.000014
C24	C	-0.808529	0.393011	0.499986
C25	C	-2.011782	-0.102642	-0.000014
C26	C	-1.511782	0.397358	0.499986
C27	C	-2.175541	-0.105043	-0.000019
C28	C	-1.675541	0.394957	0.499981
C29	C	-1.753649	0.020901	0.000004
C30	C	-1.253649	0.520901	0.500004
C31	C	-1.751251	0.098023	0.000011
C32	C	-1.251251	0.598023	0.500011
C33	C	-1.730421	-0.232933	-0.000032
C34	C	-1.230421	0.267067	0.499968
C35	C	-1.732819	-0.310055	-0.000043
C36	C	-1.232819	0.189945	0.499957
N37	N	-1.741989	-0.106007	0.178142
N38	N	-1.241989	0.393993	0.678142
C39	C	-1.884563	0.141684	0.000015
C40	C	-1.384563	0.641684	0.500015
C41	C	-1.882310	0.214149	0.000003
C42	C	-1.382310	0.714149	0.500003
C43	C	-1.746738	0.242949	0.000002
C44	C	-1.246738	0.742949	0.500002
C45	C	-1.613409	0.199278	-0.000006
C46	C	-1.113409	0.699278	0.499994
C47	C	-1.615666	0.126815	-0.000002
C48	C	-1.115666	0.626815	0.499998
C49	C	-1.640149	0.352066	0.043852
C50	C	-1.140149	0.852066	0.543852
C51	C	-1.637898	0.424528	0.043853
C52	C	-1.137898	0.924528	0.543853
C53	C	-1.739773	0.466448	-0.000015
C54	C	-1.239773	0.966448	0.499985
C55	C	-1.843923	0.435900	-0.043873
C56	C	-1.343923	0.935900	0.456127
C57	C	-1.846180	0.363437	-0.043868
C58	C	-1.346180	0.863437	0.456132
C59	C	-1.744276	0.321522	-0.000003
C60	C	-1.244276	0.821522	0.499997
C61	C	-1.870651	0.588685	-0.000025
C62	C	-1.370651	1.088685	0.499975
C63	C	-1.868392	0.661150	-0.000041
C64	C	-1.368392	1.161150	0.499959
C65	C	-1.599488	0.646278	-0.000043
C66	C	-1.099488	1.146278	0.499957
C67	C	-1.601750	0.573814	-0.000034
C68	C	-1.101750	1.073814	0.499966
C69	C	-1.737335	0.545022	-0.000021
C70	C	-1.237335	1.045022	0.499979
N71	N	-1.742093	-0.106019	-0.178168
N72	N	-1.242093	0.393981	0.321832
C73	C	-1.842627	-0.059444	0.217536
C74	C	-1.342627	0.440556	0.717536
C75	C	-1.842635	-0.059440	0.296338
C76	C	-1.342635	0.440560	0.796338
C77	C	-1.742020	-0.106013	0.335743
C78	C	-1.242020	0.393987	0.835743
C79	C	-1.641364	-0.152581	0.296339
C80	C	-1.141364	0.347419	0.796339
C81	C	-1.641349	-0.152578	0.217539
C82	C	-1.141349	0.347422	0.717539
C83	C	-1.722271	-0.169148	0.460571
C84	C	-1.222271	0.330852	0.960571
C85	C	-1.722297	-0.169151	0.539370
C86	C	-1.222297	0.330849	1.039370
C87	C	-1.742060	-0.106022	0.578789
C88	C	-1.242060	0.393978	1.078789
C89	C	-1.761829	-0.042886	0.539400
C90	C	-1.261829	0.457114	1.039400
C91	C	-1.761813	-0.042883	0.460599
C92	C	-1.261813	0.457117	0.960599
C93	C	-1.742026	-0.106021	0.421189
C94	C	-1.242026	0.393979	0.921189
C95	C	-1.842712	-0.059451	0.703629
C96	C	-1.342712	0.440549	1.203629
C97	C	-1.842710	-0.059447	0.782432
C98	C	-1.342710	0.440553	1.282432
C99	C	-1.641446	-0.152593	0.782432
C100	C	-1.141446	0.347407	1.282432
C101	C	-1.641441	-0.152591	0.703630
C102	C	-1.141441	0.347409	1.203630
C103	C	-1.742082	-0.106021	0.664234
C104	C	-1.242082	0.393979	1.164234
H105	H	-1.994967	0.118247	0.000023
H106	H	-1.494967	0.618247	0.500023
H107	H	-1.559440	-0.190500	0.328427
H108	H	-1.059440	0.309500	0.828427
F109	F	-1.949819	-0.009881	0.824360
F110	F	-1.449819	0.490119	1.324360
F111	F	-1.531714	0.307457	0.090547
F112	F	-1.031714	0.807457	0.590547
H113	H	-1.489102	0.669726	-0.000048
H114	H	-0.989102	1.169726	0.499952
H115	H	-1.493193	0.538264	-0.000033
H116	H	-0.993193	1.038264	0.499967
F117	F	-1.527058	0.457033	0.090533
F118	F	-1.027058	0.957033	0.590533
F119	F	-1.534356	-0.202155	0.824366
F120	F	-1.034356	0.297845	1.324366
F121	F	-2.024204	0.260625	0.000007
F122	F	-1.524204	0.760625	0.500007
H123	H	-1.930980	0.338567	-0.079581
H124	H	-1.430980	0.838567	0.420419
F125	F	-1.469124	0.229930	-0.000012
F126	F	-0.969124	0.729930	0.499988
F127	F	-1.949730	-0.009878	0.175609
F128	F	-1.449730	0.490122	0.675609
F129	F	-1.949816	-0.009884	0.661699
F130	F	-1.449816	0.490116	1.161699
F131	F	-1.949753	-0.009878	0.338271
F132	F	-1.449753	0.490122	0.838271
H133	H	-1.706209	-0.220560	0.571435
H134	H	-1.206209	0.279440	1.071435
H135	H	-1.706152	-0.220558	0.428483
H136	H	-1.206152	0.279442	0.928483
H137	H	-1.559396	-0.190496	0.185464
H138	H	-1.059396	0.309504	0.685464
F139	F	-1.534336	-0.202154	0.661701
F140	F	-1.034336	0.297846	1.161701
H141	H	-1.926879	0.470031	-0.079594
H142	H	-1.426879	0.970031	0.420406
H143	H	-1.981053	0.565241	-0.000017
H144	H	-1.481053	1.065241	0.499983
H145	H	-1.507104	0.091265	-0.000005
H146	H	-1.007104	0.591265	0.499995
H147	H	-1.777921	0.008520	0.571493
H148	H	-1.277921	0.508520	1.071493
F149	F	-2.010289	0.707618	-0.000041
F150	F	-1.510289	1.207618	0.499959
F151	F	-1.782840	0.024309	0.418681
F152	F	-1.282840	0.524309	0.918681
