data_functionalizedCrystal
_audit_creation_method	'MofGen! by Chris Wilmer'
_symmetry_space_group_name_H-M	'P1'
_symmetry_Int_Tables_number	1
_symmetry_cell_setting	triclinic
loop_
_symmetry_equiv_pos_as_xyz
  x,y,z
_cell_length_a	25.993478
_cell_length_b	25.993440
_cell_length_c	25.993511
_cell_angle_alpha	59.996696
_cell_angle_beta	89.996695
_cell_angle_gamma	59.999914
loop_
_atom_site_label
_atom_site_type_symbol
_atom_site_fract_x
_atom_site_fract_y
_atom_site_fract_z
O1	O	0.352913	0.453802	-0.015327
O2	O	0.278102	0.348451	0.015215
O3	O	0.278101	0.453797	-0.090135
O4	O	0.352914	0.348456	0.090023
O5	O	0.363666	0.368232	-0.090134
O6	O	0.363667	0.262886	0.015215
O7	O	0.438478	0.368236	-0.015326
Zn8	Zn	0.414658	0.301975	-0.000055
Zn9	Zn	0.301922	0.414712	-0.000056
O10	O	0.438479	0.262890	0.090023
C11	C	0.439261	0.554709	-0.022289
C12	C	0.407514	0.618203	-0.017923
C13	C	0.501175	0.523900	-0.022726
C14	C	0.439264	0.461543	-0.022281
C15	C	0.407520	0.425425	-0.017907
C16	C	0.501178	0.430876	-0.022719
C17	C	0.532422	0.461548	-0.022288
C18	C	0.600282	0.425435	-0.017922
C19	C	0.408159	0.523895	-0.022719
C20	C	0.094624	0.150817	0.036967
C21	C	0.125869	0.088468	0.037401
C22	C	0.187785	0.150814	0.036971
C23	C	0.218889	0.088465	0.037405
C24	C	0.187784	0.057656	0.036967
C25	C	0.125870	0.181484	0.037405
C26	C	-0.006063	0.251747	0.029408
C27	C	-0.069686	0.286046	0.024635
C28	C	-0.101596	0.256608	0.022239
C29	C	-0.170581	0.293797	0.017061
C30	C	-0.069889	0.192866	0.024621
C31	C	-0.006268	0.158567	0.029396
C32	C	0.025642	0.188010	0.031787
C33	C	0.187541	-0.035468	0.029404
C34	C	0.216866	-0.094319	0.024631
C35	C	0.278215	-0.123835	0.022238
C36	C	0.310012	-0.187642	0.017059
C37	C	0.310250	-0.094512	0.024623
C38	C	0.280928	-0.035667	0.029399
C39	C	0.219573	-0.006145	0.031786
C40	C	0.187545	0.251742	0.029414
C41	C	0.216868	0.286044	0.024637
C42	C	0.278218	0.256604	0.022244
C43	C	0.310017	0.293789	0.017069
C44	C	0.310249	0.192867	0.024623
C45	C	0.280928	0.158565	0.029398
C46	C	0.219576	0.188005	0.031793
C47	C	0.187788	0.565876	-0.471249
C48	C	0.125874	0.628226	-0.502353
C49	C	0.187788	0.565876	-0.378089
C50	C	0.125874	0.628226	-0.409334
C51	C	0.094628	0.659036	-0.471248
C52	C	0.218892	0.535207	-0.409335
C53	C	0.281157	0.464947	-0.471008
C54	C	0.310684	0.430649	-0.500333
C55	C	0.278850	0.460088	-0.561681
C56	C	0.310860	0.422901	-0.593479
C57	C	0.217491	0.523831	-0.593715
C58	C	0.187967	0.558129	-0.564393
C59	C	0.219801	0.528684	-0.503039
C60	C	-0.006058	0.752164	-0.564616
C61	C	-0.069681	0.811015	-0.594141
C62	C	-0.101590	0.840530	-0.562308
C63	C	-0.170574	0.904338	-0.594316
C64	C	-0.069882	0.811205	-0.500949
C65	C	-0.006262	0.752359	-0.471426
C66	C	0.025647	0.722838	-0.503260
C67	C	0.281158	0.464946	-0.277402
C68	C	0.310682	0.430642	-0.213777
C69	C	0.278849	0.460082	-0.181867
C70	C	0.310859	0.422894	-0.112882
C71	C	0.217492	0.523819	-0.213571
C72	C	0.187966	0.558122	-0.277194
C73	C	0.219801	0.528683	-0.309107
O74	O	0.806670	0.262897	0.015201
O75	O	0.626513	0.368246	-0.015340
O76	O	0.731845	0.262906	0.090009
O77	O	0.701337	0.368237	-0.090148
O78	O	0.731843	0.348476	0.090002
O79	O	0.626510	0.453816	-0.015348
O80	O	0.806667	0.348467	0.015194
Zn81	Zn	0.716588	0.414728	-0.000078
Zn82	Zn	0.716592	0.301985	-0.000068
O83	O	0.701335	0.453808	-0.090156
O84	O	0.363661	0.791469	0.015199
O85	O	0.438472	0.641851	-0.015341
O86	O	0.438468	0.641837	0.090008
O87	O	0.363665	0.791484	-0.090150
O88	O	0.352900	0.641843	0.090001
O89	O	0.352904	0.641857	-0.015348
O90	O	0.278093	0.791475	0.015192
Zn91	Zn	0.301913	0.716667	-0.000079
Zn92	Zn	0.414652	0.716659	-0.000070
O93	O	0.278097	0.791490	-0.090157
O94	O	-0.373478	1.074850	-0.636361
O95	O	-0.193323	0.925223	-0.561555
O96	O	-0.298662	0.925218	-0.561544
O97	O	-0.268139	1.074855	-0.636372
O98	O	-0.298665	0.925220	-0.647110
O99	O	-0.193326	0.925225	-0.647121
O100	O	-0.373480	1.074853	-0.721928
Zn101	Zn	-0.283403	1.000039	-0.698110
Zn102	Zn	-0.283400	1.000036	-0.585373
O103	O	-0.268141	1.074858	-0.721938
O104	O	0.352918	0.348452	-0.721936
O105	O	0.278100	0.453798	-0.647126
O106	O	0.278104	0.348450	-0.647117
O107	O	0.352914	0.453800	-0.721945
O108	O	0.363667	0.262886	-0.561552
O109	O	0.363664	0.368234	-0.561561
O110	O	0.438481	0.262888	-0.636371
Zn111	Zn	0.414658	0.301976	-0.585381
Zn112	Zn	0.301924	0.414710	-0.698117
O113	O	0.438478	0.368236	-0.636380
C114	C	0.532429	0.161992	0.277272
C115	C	0.600290	0.098500	0.309017
C116	C	0.501184	0.192802	0.308377
C117	C	0.439269	0.255153	0.184114
C118	C	0.407522	0.291268	0.116252
C119	C	0.408165	0.285821	0.215360
C120	C	0.439270	0.255151	0.277274
C121	C	0.407525	0.291266	0.309021
C122	C	0.501183	0.192803	0.215358
C123	C	0.738751	0.255199	0.277246
C124	C	0.734375	0.291321	0.308986
C125	C	0.739178	0.192852	0.308352
C126	C	0.738771	0.255184	0.184093
C127	C	0.734417	0.291290	0.116234
C128	C	0.739198	0.192838	0.215341
C129	C	0.738749	0.162036	0.277253
C130	C	0.734372	0.098548	0.309001
C131	C	0.739200	0.285859	0.215334
C132	C	0.439245	0.461521	0.277252
C133	C	0.407496	0.425405	0.308995
C134	C	0.501159	0.430847	0.308359
C135	C	0.439251	0.554688	0.184095
C136	C	0.407508	0.618187	0.116234
C137	C	0.501165	0.523872	0.215343
C138	C	0.532407	0.461517	0.277258
C139	C	0.600268	0.425397	0.309006
C140	C	0.408144	0.523876	0.215338
C141	C	0.679652	0.658996	-0.471259
C142	C	0.679227	0.628177	-0.502357
C143	C	0.679635	0.565844	-0.378098
C144	C	0.679210	0.535167	-0.409338
C145	C	0.679659	0.565828	-0.471250
C146	C	0.679203	0.628194	-0.409347
C147	C	0.687206	0.752131	-0.471025
C148	C	0.691981	0.810982	-0.500352
C149	C	0.694389	0.840488	-0.561698
C150	C	0.699570	0.904296	-0.593498
C151	C	0.692016	0.811155	-0.593727
C152	C	0.687239	0.752310	-0.564402
C153	C	0.684836	0.722797	-0.503051
C154	C	0.687244	0.558492	-0.564609
C155	C	0.692026	0.524387	-0.594129
C156	C	0.694416	0.460644	-0.562292
C157	C	0.699603	0.423661	-0.594295
C158	C	0.692019	0.431002	-0.500935
C159	C	0.687234	0.465107	-0.471418
C160	C	0.684850	0.528849	-0.503255
C161	C	0.687169	0.558544	-0.277418
C162	C	0.691934	0.524450	-0.213794
C163	C	0.694324	0.460708	-0.181881
C164	C	0.699486	0.423742	-0.112899
C165	C	0.691954	0.431048	-0.213581
C166	C	0.687192	0.465137	-0.277202
C167	C	0.684799	0.528884	-0.309118
O168	O	0.701240	0.368308	0.438390
O169	O	0.731784	0.262950	0.363591
O170	O	0.626436	0.368309	0.363568
O171	O	0.806587	0.262949	0.438412
O172	O	0.626456	0.453864	0.278005
O173	O	0.731804	0.348505	0.278027
O174	O	0.701260	0.453864	0.352826
Zn175	Zn	0.716535	0.414768	0.301842
Zn176	Zn	0.716509	0.302046	0.414575
O177	O	0.806607	0.348505	0.352849
C178	C	0.094647	1.150875	-0.471271
C179	C	0.125896	1.181544	-0.502372
C180	C	0.187803	1.057704	-0.378108
C181	C	0.218910	1.088514	-0.409351
C182	C	0.187810	1.150870	-0.471265
C183	C	0.125889	1.088519	-0.409357
C184	C	-0.006043	1.158198	-0.471036
C185	C	-0.069665	1.192299	-0.500363
C186	C	-0.101571	1.256047	-0.561712
C187	C	-0.170555	1.293027	-0.593513
C188	C	-0.069860	1.285699	-0.593743
C189	C	-0.006240	1.251598	-0.564418
C190	C	0.025666	1.187850	-0.503064
C191	C	0.187575	1.251805	-0.564630
C192	C	0.216903	1.286103	-0.594153
C193	C	0.278251	1.256658	-0.562317
C194	C	0.310052	1.293845	-0.594323
C195	C	0.310282	1.192910	-0.500957
C196	C	0.280956	1.158612	-0.471437
C197	C	0.219603	1.188062	-0.503274
C198	C	0.187554	0.964569	-0.277424
C199	C	0.216873	0.905717	-0.213798
C200	C	0.278221	0.876195	-0.181886
C201	C	0.310015	0.812381	-0.112901
C202	C	0.310256	0.905521	-0.213588
C203	C	0.280940	0.964373	-0.277211
C204	C	0.219589	0.993894	-0.309126
H205	H	0.269761	0.062681	0.038105
F206	F	0.684725	0.721083	-0.598483
F207	F	0.533943	0.365266	0.374852
H208	H	0.526263	0.380701	-0.023414
H209	H	0.100788	0.654003	-0.384242
F210	F	0.533978	0.159105	0.374865
H211	H	0.526250	0.549661	0.190257
F212	F	0.183606	0.555146	-0.179604
F213	F	0.533973	0.159104	0.182567
H214	H	0.357294	0.335993	0.190273
H215	H	0.739891	0.336039	0.190244
H216	H	0.357289	0.549631	0.190236
F217	F	0.694503	0.363199	-0.179613
H218	H	0.685298	0.610397	-0.590538
F219	F	0.678296	0.469587	-0.376544
H220	H	0.100791	0.654011	-0.553225
H221	H	0.019547	0.106667	0.031339
F222	F	0.740134	0.159118	0.182563
F223	F	0.740086	0.159153	0.374844
F224	F	0.315047	1.090763	-0.406141
H225	H	0.100783	0.231653	0.038109
H226	H	0.138005	0.610018	-0.303006
F227	F	0.684620	0.626391	-0.311384
F228	F	-0.103857	0.161538	0.022071
H229	H	0.526257	0.549691	-0.023430
F230	F	0.341669	0.557594	-0.023628
F231	F	0.375545	0.161536	0.022070
H232	H	0.678532	0.653963	-0.553229
H233	H	0.100782	0.062682	0.038105
F234	F	0.375983	0.362816	-0.466240
F235	F	0.315018	0.090734	0.031926
H236	H	0.678498	0.653987	-0.384268
F237	F	0.122250	0.283076	0.031967
H238	H	0.190783	0.337939	0.022701
H239	H	0.019920	0.728133	-0.590542
H240	H	0.693862	0.548607	-0.187990
F241	F	0.684672	0.433568	-0.310939
H242	H	0.685246	0.728108	-0.421071
F243	F	0.122242	-0.004053	0.031947
F244	F	0.285386	0.469634	-0.376549
H245	H	0.693924	0.834851	-0.474266
H246	H	0.693977	0.835190	-0.643682
F247	F	0.183613	0.555161	-0.659013
H248	H	0.693974	0.548531	-0.644086
F249	F	0.027897	0.283083	0.031957
F250	F	-0.103424	0.353877	0.022105
H251	H	0.190776	-0.118189	0.022692
F252	F	0.694560	0.363157	-0.467054
F253	F	-0.103824	1.353551	-0.659041
F254	F	0.122666	0.625963	-0.598481
F255	F	0.684684	0.433561	-0.406121
F256	F	0.285401	1.054807	-0.376558
F257	F	0.093112	1.247125	-0.568866
H258	H	0.100798	1.062737	-0.384276
F259	F	0.182775	0.874511	-0.180063
F260	F	0.122260	0.995984	-0.311389
H261	H	0.019933	1.106287	-0.421080
F262	F	0.027502	1.283170	-0.598496
H263	H	-0.095477	1.168149	-0.474281
H264	H	0.360209	-0.118555	0.022676
H265	H	0.360641	0.378749	-0.187969
H266	H	-0.095490	0.834886	-0.644101
F267	F	0.122278	1.283149	-0.598518
H268	H	0.190816	1.338006	-0.644112
H269	H	0.307014	-0.011796	0.031345
F270	F	0.315043	0.433613	-0.311364
F271	F	0.375580	1.161572	-0.467076
F272	F	0.375552	0.874103	-0.179620
F273	F	0.315041	0.433608	-0.405711
F274	F	0.027484	0.721153	-0.406128
F275	F	-0.103849	0.842626	-0.467071
F276	F	0.315034	0.995585	-0.310950
