data_functionalizedCrystal
_audit_creation_method	'MofGen! by Chris Wilmer'
_symmetry_space_group_name_H-M	'P1'
_symmetry_Int_Tables_number	1
_symmetry_cell_setting	triclinic
loop_
_symmetry_equiv_pos_as_xyz
  x,y,z
_cell_length_a	6.817900
_cell_length_b	12.095930
_cell_length_c	19.551823
_cell_angle_alpha	84.683747
_cell_angle_beta	101.663376
_cell_angle_gamma	74.549720
loop_
_atom_site_label
_atom_site_type_symbol
_atom_site_fract_x
_atom_site_fract_y
_atom_site_fract_z
V1	V	-4.039738	0.358199	-0.096841
O2	O	-4.036211	0.350829	0.004482
O3	O	-3.982312	0.356280	-0.191856
O4	O	-4.001037	0.514180	-0.095427
O5	O	-4.017357	0.191836	-0.092614
V6	V	-4.523279	0.338236	-0.084713
O7	O	-4.300958	0.401989	-0.123446
O8	O	-4.712257	0.294446	-0.058108
O9	O	-4.357499	0.340155	0.010301
O10	O	-4.644203	0.345607	-0.186037
O11	O	-4.663058	0.504600	-0.088941
O12	O	-4.338774	0.182255	-0.086128
C13	C	-3.824803	0.350766	-0.215016
C14	C	-3.859201	0.350237	-0.292692
C15	C	-4.057484	0.355725	-0.332740
C16	C	-4.089811	0.355239	-0.405726
C17	C	-3.923833	0.349242	-0.438658
C18	C	-3.725525	0.343760	-0.398601
C19	C	-3.693209	0.344258	-0.325618
C20	C	-3.806081	0.276501	-0.545112
C21	C	-3.838401	0.275997	-0.618094
C22	C	-4.023500	0.347713	-0.663764
C23	C	-4.176303	0.419920	-0.636442
C24	C	-4.143987	0.420417	-0.563459
C25	C	-3.958854	0.348703	-0.517796
C26	C	-4.256848	0.352676	-0.782952
C27	C	-4.289171	0.352198	-0.855940
C28	C	-3.924874	0.340707	-0.848813
C29	C	-3.892562	0.341198	-0.775827
C30	C	-4.058554	0.347177	-0.742901
C31	C	-4.154465	0.144248	-0.089546
C32	C	-4.084122	0.016728	-0.090071
C33	C	-3.955388	-0.216742	-0.091047
C34	C	-4.027033	-0.086823	-0.090503
C35	C	-3.848688	0.552182	-0.092010
C36	C	-3.898269	0.679701	-0.091483
C37	C	-4.178349	0.345666	0.033458
C38	C	-4.123190	0.346203	0.111133
H39	H	-3.531742	0.339790	-0.293011
O40	O	-4.236549	0.362199	-0.297242
H41	H	-4.196366	0.284112	-0.256666
H42	H	-3.590388	0.338881	-0.425420
H43	H	-3.731097	0.336722	-0.743219
H44	H	-4.450643	0.356674	-0.888547
H45	H	-4.326857	0.478476	-0.673637
H46	H	-4.251281	0.359708	-0.438339
H47	H	-4.268404	0.479212	-0.541217
O48	O	-4.435875	0.359152	-0.747432
H49	H	-4.579202	0.362910	-0.787548
H50	H	-3.789734	0.335832	-0.875626
H51	H	-3.713985	0.217195	-0.640332
O52	O	-3.606436	0.199140	-0.495854
H53	H	-3.505634	0.148833	-0.527111
