data_functionalizedCrystal
_audit_creation_method	'MofGen! by Chris Wilmer'
_symmetry_space_group_name_H-M	'P1'
_symmetry_Int_Tables_number	1
_symmetry_cell_setting	triclinic
loop_
_symmetry_equiv_pos_as_xyz
  x,y,z
_cell_length_a	16.120530
_cell_length_b	19.121063
_cell_length_c	19.121175
_cell_angle_alpha	94.951770
_cell_angle_beta	84.775719
_cell_angle_gamma	89.687057
loop_
_atom_site_label
_atom_site_type_symbol
_atom_site_fract_x
_atom_site_fract_y
_atom_site_fract_z
Zn1	Zn	1.280176	-0.354302	-0.466830
Zn2	Zn	1.268666	-0.466436	-0.353667
Zn3	Zn	1.135066	-0.342821	-0.342715
Zn4	Zn	1.135010	-0.465443	-0.465332
O5	O	1.204730	-0.407250	-0.407136
O6	O	1.395313	-0.374397	-0.457030
O7	O	1.246151	-0.445649	-0.253539
O8	O	1.159156	-0.246097	-0.355222
O9	O	1.386858	-0.456781	-0.373889
O10	O	1.265767	-0.254532	-0.446410
O11	O	1.147995	-0.354829	-0.245493
O12	O	1.018394	-0.353867	-0.353769
O13	O	1.159060	-0.455090	-0.564206
O14	O	1.018353	-0.443957	-0.443856
O15	O	1.265712	-0.373434	-0.565307
O16	O	1.246096	-0.564551	-0.372436
O17	O	1.147900	-0.563821	-0.454476
C18	C	0.988124	-0.397559	-0.397462
C19	C	0.895459	-0.393430	-0.393341
C20	C	0.725801	-0.385876	-0.385822
C21	C	0.684499	-0.428679	-0.428504
C22	C	0.590095	-0.424476	-0.424320
C23	C	0.820213	-0.390078	-0.390004
C24	C	1.195766	-0.589662	-0.414498
C25	C	1.192009	-0.667703	-0.417675
C26	C	1.241413	-0.704726	-0.376493
C27	C	1.237885	-0.778054	-0.379484
C28	C	1.184948	-0.814357	-0.423655
C29	C	1.135542	-0.777328	-0.464842
C30	C	1.139075	-0.704002	-0.461853
C31	C	1.171723	-1.035738	-0.434817
C32	C	1.168192	-1.109069	-0.437801
C33	C	1.270537	-1.109790	-0.352444
C34	C	1.274061	-1.036462	-0.349456
C35	C	1.224659	-0.999440	-0.390646
C36	C	1.181338	-0.889310	-0.426713
C37	C	1.228274	-0.924489	-0.387592
C38	C	1.422181	-0.416981	-0.416848
C39	C	1.514846	-0.421127	-0.420987
C40	C	1.213664	-0.415432	-0.591057
C41	C	1.217471	-0.418918	-0.669433
C42	C	1.213751	-0.224128	-0.399762
C43	C	1.217596	-0.146093	-0.396619
C44	C	1.168158	-0.373272	-0.702064
C45	C	1.171731	-0.376554	-0.775707
C46	C	1.224623	-0.425479	-0.816717
C47	C	1.273939	-0.471130	-0.784081
C48	C	1.270360	-0.467851	-0.710439
C49	C	1.237981	-0.437747	-1.039277
C50	C	1.241558	-0.441021	-1.112923
C51	C	1.139349	-0.346446	-1.104544
C52	C	1.135779	-0.343169	-1.030901
C53	C	1.185091	-0.388822	-0.998272
C54	C	1.228280	-0.428833	-0.891992
C55	C	1.181430	-0.385471	-0.922998
C56	C	1.195881	-0.399052	-0.223931
C57	C	1.192245	-0.395375	-0.145554
H58	H	0.690262	-0.346079	-0.346142
H59	H	1.284517	-0.675173	-0.340521
Cl60	Cl	0.739367	-0.490124	-0.489777
Cl61	Cl	1.114942	-0.323966	-0.871442
Cl62	Cl	1.308064	-0.502525	-1.164478
H63	H	1.098846	-0.673858	-0.495389
Cl64	Cl	1.299981	-0.495135	-0.998266
Cl65	Cl	1.294771	-0.490336	-0.943554
H66	H	1.310758	-1.139941	-0.318911
Cl67	Cl	1.299999	-0.824596	-0.327712
H68	H	1.317167	-1.006906	-0.313489
H69	H	1.125095	-1.138626	-0.473783
H70	H	1.138234	-0.918876	-0.462675
Cl71	Cl	1.109615	-0.989205	-0.486597
H72	H	1.092443	-0.806892	-0.500810
Cl73	Cl	1.294824	-0.878850	-0.332068
Cl74	Cl	1.101665	-0.311761	-0.650516
Cl75	Cl	1.069285	-0.281660	-0.979351
Cl76	Cl	1.109694	-0.319199	-0.816726
Cl77	Cl	1.077358	-0.289060	-1.145569
H78	H	1.317000	-0.510968	-0.817477
Cl79	Cl	1.332353	-0.525240	-0.669417
