data_functionalizedCrystal
_audit_creation_method	'MofGen! by Chris Wilmer'
_symmetry_space_group_name_H-M	'P1'
_symmetry_Int_Tables_number	1
_symmetry_cell_setting	triclinic
loop_
_symmetry_equiv_pos_as_xyz
  x,y,z
_cell_length_a	30.570277
_cell_length_b	30.570279
_cell_length_c	30.570330
_cell_angle_alpha	90.002473
_cell_angle_beta	120.002446
_cell_angle_gamma	60.000192
loop_
_atom_site_label
_atom_site_type_symbol
_atom_site_fract_x
_atom_site_fract_y
_atom_site_fract_z
O1	O	-0.385852	-0.300081	-0.013018
O2	O	-0.296276	-0.236470	0.012947
O3	O	-0.385849	-0.236470	-0.076628
O4	O	-0.296280	-0.300082	0.076557
O5	O	-0.313094	-0.309224	-0.076627
O6	O	-0.223521	-0.309225	0.012948
O7	O	-0.313098	-0.372836	-0.013018
Zn8	Zn	-0.256758	-0.352582	-0.000035
Zn9	Zn	-0.352616	-0.256724	-0.000036
O10	O	-0.223525	-0.372836	0.076557
C11	C	-0.128235	-0.080459	0.031437
C12	C	-0.075221	-0.107026	0.031805
C13	C	-0.128232	-0.159673	0.031441
C14	C	-0.075218	-0.186120	0.031810
C15	C	-0.049022	-0.159671	0.031437
C16	C	-0.154310	-0.107027	0.031810
C17	C	-0.214054	0.005154	0.025009
C18	C	-0.243218	0.059251	0.020951
C19	C	-0.218188	0.086385	0.018912
C20	C	-0.249809	0.145041	0.014509
C21	C	-0.163990	0.059424	0.020937
C22	C	-0.134826	0.005329	0.024998
C23	C	-0.159860	-0.021804	0.027031
C24	C	0.030159	-0.159464	0.025004
C25	C	0.080198	-0.184398	0.020945
C26	C	0.105296	-0.236562	0.018911
C27	C	0.159549	-0.263599	0.014508
C28	C	0.080363	-0.263802	0.020940
C29	C	0.030329	-0.238870	0.025001
C30	C	0.005227	-0.186701	0.027031
C31	C	-0.214048	-0.159469	0.025018
C32	C	-0.243214	-0.184403	0.020957
C33	C	-0.218181	-0.236568	0.018923
C34	C	-0.249798	-0.263606	0.014524
C35	C	-0.163987	-0.263803	0.020945
C36	C	-0.134821	-0.238871	0.025004
C37	C	-0.159854	-0.186705	0.027040
C38	C	-0.527089	-0.420641	-0.027236
C39	C	-0.581077	-0.393647	-0.023523
C40	C	-0.500893	-0.473286	-0.027607
C41	C	-0.447873	-0.420643	-0.027231
C42	C	-0.417162	-0.393651	-0.023513
C43	C	-0.421797	-0.473288	-0.027602
C44	C	-0.447876	-0.499854	-0.027235
C45	C	-0.417169	-0.557555	-0.023522
C46	C	-0.500889	-0.394195	-0.027603
C47	C	-0.392361	-0.604172	-0.020521
C48	C	-0.624693	-0.371839	-0.020522
C49	C	-0.392351	-0.371844	-0.020508
C50	C	-0.361238	-0.662654	-0.016756
C51	C	-0.679411	-0.344480	-0.016758
C52	C	-0.361224	-0.344487	-0.016739
C53	C	-0.481147	-0.159679	-0.400683
C54	C	-0.534162	-0.107034	-0.427130
C55	C	-0.481147	-0.159679	-0.321471
C56	C	-0.534162	-0.107035	-0.348038
C57	C	-0.560359	-0.080467	-0.400683
C58	C	-0.455070	-0.186126	-0.348039
C59	C	-0.395328	-0.239069	-0.400478
C60	C	-0.366166	-0.264175	-0.425413
C61	C	-0.391197	-0.237108	-0.477576
C62	C	-0.359578	-0.264325	-0.504614
C63	C	-0.445396	-0.184935	-0.504814
C64	C	-0.474559	-0.159832	-0.479882
C65	C	-0.449523	-0.186899	-0.427714
C66	C	-0.639543	0.005145	-0.480072
C67	C	-0.689584	0.059242	-0.505177
C68	C	-0.714680	0.086374	-0.478110
C69	C	-0.768934	0.145030	-0.505326
C70	C	-0.689745	0.059414	-0.425937
C71	C	-0.639710	0.005319	-0.400834
C72	C	-0.614609	-0.021813	-0.427902
C73	C	-0.395328	-0.239070	-0.235858
C74	C	-0.366161	-0.264173	-0.181758
C75	C	-0.391192	-0.237106	-0.154626
C76	C	-0.359573	-0.264324	-0.095969
C77	C	-0.445387	-0.184935	-0.181584
C78	C	-0.474554	-0.159830	-0.235682
C79	C	-0.449523	-0.186899	-0.262816
O80	O	0.304532	-0.372829	-0.013037
O81	O	0.177310	-0.309215	0.012925
O82	O	0.177303	-0.309220	-0.076649
O83	O	0.304538	-0.372824	0.076537
O84	O	0.177301	-0.236464	-0.076653
O85	O	0.177307	-0.236459	0.012921
O86	O	0.304530	-0.300073	-0.013041
Zn87	Zn	0.240918	-0.256715	-0.000061
Zn88	Zn	0.240921	-0.352574	-0.000056
O89	O	0.304536	-0.300069	0.076533
O90	O	-0.313114	0.317570	-0.013039
O91	O	-0.223539	0.164387	0.012922
O92	O	-0.313116	0.253953	-0.076652
O93	O	-0.223537	0.228004	0.076534
O94	O	-0.385867	0.253951	-0.076647
O95	O	-0.296291	0.164384	0.012926
O96	O	-0.385866	0.317568	-0.013035
Zn97	Zn	-0.352629	0.240976	-0.000054
Zn98	Zn	-0.256776	0.240979	-0.000060
O99	O	-0.296289	0.228002	0.076538
O100	O	-0.913918	0.317556	-0.541077
O101	O	-0.786693	0.164373	-0.477470
O102	O	-0.786689	0.253942	-0.477463
O103	O	-0.913922	0.227987	-0.541084
O104	O	-0.786691	0.253944	-0.550218
O105	O	-0.786695	0.164375	-0.550225
O106	O	-0.913920	0.317558	-0.613833
Zn107	Zn	-0.850308	0.240967	-0.593580
Zn108	Zn	-0.850305	0.240964	-0.497722
O109	O	-0.913923	0.227989	-0.613840
O110	O	-0.296275	-0.300086	-0.613839
O111	O	-0.385849	-0.236470	-0.550229
O112	O	-0.296274	-0.236472	-0.550223
O113	O	-0.385850	-0.300084	-0.613845
O114	O	-0.223521	-0.309226	-0.477469
O115	O	-0.313096	-0.309223	-0.477475
O116	O	-0.223522	-0.372839	-0.541085
Zn117	Zn	-0.256757	-0.352582	-0.497728
Zn118	Zn	-0.352613	-0.256727	-0.593586
O119	O	-0.313097	-0.372837	-0.541091
C120	C	-0.082298	-0.499861	0.338347
C121	C	-0.028312	-0.557561	0.365339
C122	C	-0.108495	-0.473293	0.364795
C123	C	-0.161511	-0.420648	0.259135
C124	C	-0.192219	-0.393654	0.201434
C125	C	-0.187587	-0.394201	0.285704
C126	C	-0.161510	-0.420649	0.338348
C127	C	-0.192217	-0.393656	0.365342
C128	C	-0.108496	-0.473293	0.285702
C129	C	-0.217027	-0.371849	0.387150
C130	C	0.015303	-0.604178	0.387145
C131	C	-0.217029	-0.371847	0.154817
C132	C	-0.248150	-0.344491	0.414509
C133	C	0.070020	-0.662661	0.414503
C134	C	-0.248154	-0.344488	0.096334
C135	C	0.552139	-0.420625	0.338326
C136	C	0.582848	-0.393630	0.365318
C137	C	0.578218	-0.473269	0.364775
C138	C	0.472922	-0.420628	0.259114
C139	C	0.418933	-0.393637	0.201412
C140	C	0.499122	-0.473272	0.285683
C141	C	0.552139	-0.499838	0.338328
C142	C	0.582849	-0.557538	0.365323
C143	C	0.499121	-0.394179	0.285681
C144	C	0.607660	-0.604155	0.387131
C145	C	0.607658	-0.371822	0.387124
C146	C	0.375316	-0.371831	0.154795
C147	C	0.638786	-0.662637	0.414491
C148	C	0.638784	-0.344462	0.414482
C149	C	0.320595	-0.344474	0.096311
C150	C	-0.161527	0.213844	0.338323
C151	C	-0.192234	0.217562	0.365317
C152	C	-0.108514	0.213479	0.364767
C153	C	-0.161527	0.213831	0.259110
C154	C	-0.192233	0.217537	0.201410
C155	C	-0.108514	0.213467	0.285675
C156	C	-0.082318	0.213846	0.338318
C157	C	-0.028334	0.217567	0.365308
C158	C	-0.187603	0.213464	0.285680
C159	C	0.015278	0.220575	0.387112
C160	C	-0.217043	0.220567	0.387126
C161	C	-0.217042	0.220531	0.154794
C162	C	0.069993	0.224346	0.414467
C163	C	-0.248167	0.224336	0.414485
C164	C	-0.248165	0.224287	0.096312
C165	C	-0.128264	-0.080475	-0.400710
C166	C	-0.154342	-0.107044	-0.427156
C167	C	-0.049046	-0.159684	-0.321496
C168	C	-0.075245	-0.186133	-0.348062
C169	C	-0.128262	-0.159688	-0.400707
C170	C	-0.075246	-0.107040	-0.348065
C171	C	-0.134487	0.005139	-0.400508
C172	C	-0.163481	0.059236	-0.425444
C173	C	-0.217682	0.086365	-0.477608
C174	C	-0.249123	0.145021	-0.504647
C175	C	-0.242895	0.059403	-0.504845
C176	C	-0.213902	0.005308	-0.479911
C177	C	-0.159700	-0.021821	-0.427742
C178	C	-0.214084	-0.159486	-0.480097
C179	C	-0.243248	-0.184423	-0.505201
C180	C	-0.218214	-0.236586	-0.478132
C181	C	-0.249834	-0.263625	-0.505348
C182	C	-0.164012	-0.263822	-0.425959
C183	C	-0.134848	-0.238888	-0.400857
C184	C	-0.159887	-0.186720	-0.427926
C185	C	0.030142	-0.159474	-0.235884
C186	C	0.080181	-0.184404	-0.181784
C187	C	0.105279	-0.236567	-0.154650
C188	C	0.159537	-0.263602	-0.095993
C189	C	0.080344	-0.263805	-0.181607
C190	C	0.030305	-0.238877	-0.235705
C191	C	0.005207	-0.186712	-0.262841
O192	O	0.703733	-0.835598	0.449762
O193	O	0.614156	-0.682416	0.386143
O194	O	0.703726	-0.771986	0.386143
O195	O	0.614162	-0.746027	0.449762
O196	O	0.776483	-0.771981	0.458896
O197	O	0.686913	-0.682411	0.458896
O198	O	0.776489	-0.835593	0.522515
Zn199	Zn	0.743253	-0.759001	0.502257
Zn200	Zn	0.647392	-0.759008	0.406402
O201	O	0.686919	-0.746023	0.522515
C202	C	-0.560371	0.272403	-0.400695
C203	C	-0.534174	0.272770	-0.427144
C204	C	-0.481162	0.272418	-0.321487
C205	C	-0.455085	0.272784	-0.348057
C206	C	-0.481161	0.272405	-0.400700
C207	C	-0.534175	0.272782	-0.348052
C208	C	-0.639552	0.265973	-0.400484
C209	C	-0.689590	0.261911	-0.425415
C210	C	-0.714685	0.259866	-0.477577
C211	C	-0.768937	0.255459	-0.504610
C212	C	-0.689751	0.261889	-0.504817
C213	C	-0.639718	0.265954	-0.479888
C214	C	-0.614618	0.267993	-0.427722
C215	C	-0.474938	0.265964	-0.480090
C216	C	-0.445947	0.261904	-0.505196
C217	C	-0.391749	0.259873	-0.478132
C218	C	-0.360311	0.255468	-0.505350
C219	C	-0.366539	0.261909	-0.425961
C220	C	-0.395530	0.265972	-0.400856
C221	C	-0.449727	0.267997	-0.427921
C222	C	-0.474940	0.266003	-0.235874
C223	C	-0.445945	0.261948	-0.181775
C224	C	-0.391747	0.259918	-0.154646
C225	C	-0.360309	0.255526	-0.095991
C226	C	-0.366536	0.261938	-0.181606
C227	C	-0.395527	0.265991	-0.235703
C228	C	-0.449729	0.268023	-0.262834
H229	H	-0.143613	0.081525	0.019277
Br230	Br	-0.225413	-0.071478	0.032801
Br231	Br	-0.258706	0.212472	0.250129
H232	H	-0.466481	0.260249	-0.547675
H233	H	-0.234473	-0.117010	-0.502143
H234	H	0.477225	-0.350938	0.264337
Br235	Br	0.114035	-0.147431	0.018197
H236	H	0.100807	-0.306281	0.019285
H237	H	-0.197009	-0.085711	-0.470410
H238	H	-0.086589	0.212887	0.408023
H239	H	-0.086593	0.212871	0.264341
Br240	Br	-0.350691	-0.508842	-0.028589
H241	H	-0.086560	-0.494622	0.408053
H242	H	0.477193	-0.494601	0.264352
H243	H	-0.053310	-0.229391	-0.326731
H244	H	-0.053323	-0.085706	-0.326738
Br245	Br	-0.570747	0.273801	-0.499252
Br246	Br	0.649319	-0.508817	0.436871
Br247	Br	-0.003918	-0.088679	-0.272711
H248	H	-0.374945	-0.261115	-0.257950
Br249	Br	0.114404	-0.334601	-0.144779
H250	H	-0.287339	-0.162223	0.019311
H251	H	-0.619121	0.267638	-0.358009
H252	H	0.100479	-0.162222	-0.159840
H253	H	-0.090351	-0.016949	-0.358031
Br254	Br	-0.129260	0.095822	-0.388483
Br255	Br	-0.537444	-0.508833	-0.028614
H256	H	-0.287035	0.081501	-0.547322
H257	H	-0.234431	-0.016643	-0.502089
Br258	Br	-0.071961	-0.508844	0.250146
H259	H	-0.522813	-0.350941	-0.028193
H260	H	-0.287378	-0.162241	-0.547681
H261	H	-0.556080	-0.085704	-0.326703
Br262	Br	-0.361349	-0.275805	-0.329678
Br263	Br	-0.130034	-0.334622	-0.389223
Br264	Br	-0.061284	-0.275851	-0.330059
H265	H	0.010002	-0.261057	-0.257652
H266	H	-0.556086	-0.085707	-0.470386
H267	H	0.010033	-0.261051	0.026658
H268	H	-0.322037	-0.306652	-0.159815
Br269	Br	-0.723428	0.259170	-0.388449
Br270	Br	-0.383982	0.273776	-0.312510
Br271	Br	-0.383972	-0.258221	-0.312489
H272	H	-0.556100	0.273378	-0.326722
Br273	Br	-0.061276	-0.275831	0.027742
Br274	Br	-0.480162	0.259207	-0.145190
Br275	Br	-0.548501	0.268764	-0.272695
H276	H	-0.322039	-0.306653	-0.403232
H277	H	-0.518689	-0.117353	-0.502061
Br278	Br	-0.605480	-0.031675	-0.516809
H279	H	-0.465766	-0.162893	-0.159487
H280	H	-0.710192	0.260225	-0.547294
H281	H	-0.465775	-0.162899	-0.547292
Br282	Br	-0.723422	0.095826	-0.575981
H283	H	-0.053296	-0.085694	0.032403
H284	H	-0.090696	-0.016622	0.026649
H285	H	-0.230248	-0.350946	0.264372
Br286	Br	-0.130015	-0.334601	0.018177
H287	H	-0.619420	0.267602	-0.502069
Br288	Br	-0.548492	0.268714	-0.516822
H289	H	-0.710188	0.081513	-0.403900
Br290	Br	-0.605874	-0.031273	-0.330034
Br291	Br	-0.292982	0.259158	-0.389231
Br292	Br	-0.361309	0.268728	-0.272291
H293	H	-0.374999	0.267624	-0.358377
H294	H	-0.053294	-0.229375	0.032406
Br295	Br	-0.248020	-0.088673	0.027785
H296	H	-0.322399	0.260281	-0.159512
H297	H	-0.234439	-0.016937	0.026669
H298	H	-0.518680	-0.117349	-0.257629
Br299	Br	-0.003907	-0.088662	0.027758
Br300	Br	-0.316763	0.095834	0.018210
