data_functionalizedCrystal
_audit_creation_method	'MofGen! by Chris Wilmer'
_symmetry_space_group_name_H-M	'P1'
_symmetry_Int_Tables_number	1
_symmetry_cell_setting	triclinic
loop_
_symmetry_equiv_pos_as_xyz
  x,y,z
_cell_length_a	11.792241
_cell_length_b	10.489741
_cell_length_c	10.268362
_cell_angle_alpha	89.995004
_cell_angle_beta	89.999626
_cell_angle_gamma	84.366295
loop_
_atom_site_label
_atom_site_type_symbol
_atom_site_fract_x
_atom_site_fract_y
_atom_site_fract_z
O1	O	1.507380	0.174833	-0.108173
O2	O	2.007380	0.674833	0.391827
O3	O	1.177088	0.192851	-0.108203
O4	O	1.677088	0.692851	0.391797
O5	O	1.349750	-0.001782	-0.108180
O6	O	1.849750	0.498218	0.391820
O7	O	1.334719	0.369465	-0.108197
O8	O	1.834719	0.869465	0.391803
O9	O	1.349735	-0.001790	0.108421
O10	O	1.849735	0.498210	0.608421
O11	O	1.177073	0.192843	0.108397
O12	O	1.677073	0.692843	0.608397
O13	O	1.507365	0.174825	0.108428
O14	O	2.007365	0.674825	0.608428
Cu15	Cu	1.342218	0.183833	0.128190
Cu16	Cu	1.842218	0.683833	0.628190
Cu17	Cu	1.342236	0.183843	-0.127965
Cu18	Cu	1.842236	0.683843	0.372035
O19	O	1.334703	0.369457	0.108404
O20	O	1.834703	0.869457	0.608404
C21	C	1.134786	0.191715	0.000093
C22	C	1.634786	0.691715	0.500093
C23	C	1.008764	0.188327	0.000082
C24	C	1.508764	0.688327	0.500082
C25	C	0.778035	0.182098	0.000120
C26	C	1.278035	0.682098	0.500120
C27	C	0.906429	0.185559	0.000099
C28	C	1.406429	0.685559	0.500099
C29	C	1.348607	-0.049314	0.000120
C30	C	1.848607	0.450686	0.500120
C31	C	1.345210	-0.190931	0.000117
C32	C	1.845210	0.309069	0.500117
C33	C	1.235351	-0.258697	0.000098
C34	C	1.735351	0.241303	0.500098
C35	C	1.287240	-0.351001	0.106898
C36	C	1.787240	0.148999	0.606898
C37	C	1.287281	-0.350967	-0.106654
C38	C	1.787281	0.149033	0.393346
C39	C	1.397145	-0.281370	0.107005
C40	C	1.897145	0.218630	0.607005
C41	C	1.397171	-0.281327	-0.106642
C42	C	1.897171	0.218673	0.393358
C43	C	1.449140	-0.373603	0.000184
C44	C	1.949140	0.126397	0.500184
C45	C	1.549667	0.175960	0.000128
C46	C	2.049667	0.675960	0.500128
C47	C	1.675690	0.179348	0.000131
C48	C	2.175690	0.679348	0.500131
C49	C	1.335846	0.416989	0.000102
C50	C	1.835846	0.916989	0.500102
C51	C	1.339243	0.558607	0.000096
C52	C	1.839243	1.058607	0.500096
N53	N	1.342213	0.183825	0.308356
N54	N	1.842213	0.683825	0.808356
N55	N	1.342249	0.183840	-0.308131
N56	N	1.842249	0.683840	0.191869
C57	C	1.342230	0.183840	0.574026
C58	C	1.842230	0.683840	1.074026
C59	C	1.342217	0.183836	0.426188
C60	C	1.842217	0.683836	0.926188
H61	H	1.145025	-0.208738	0.000197
H62	H	1.645025	0.291262	0.500197
H63	H	1.240749	-0.381857	0.197181
H64	H	1.740749	0.118143	0.697181
O65	O	1.452653	-0.244654	0.214712
O66	O	1.952653	0.255346	0.714712
C67	C	1.548459	-0.183200	0.176615
C68	C	2.048459	0.316800	0.676615
H69	H	1.535132	-0.144177	0.073551
H70	H	2.035132	0.355823	0.573551
H71	H	1.560069	-0.100885	0.246297
H72	H	2.060069	0.399115	0.746297
H73	H	1.627648	-0.254843	0.179192
H74	H	2.127648	0.245157	0.679192
O75	O	1.557010	-0.432888	0.000490
O76	O	2.057010	0.067112	0.500490
C77	C	1.614489	-0.397374	0.113225
C78	C	2.114489	0.102626	0.613225
H79	H	1.549591	-0.364558	0.191564
H80	H	2.049591	0.135442	0.691564
H81	H	1.672354	-0.483063	0.150503
H82	H	2.172354	0.016937	0.650503
H83	H	1.668000	-0.315785	0.088771
H84	H	2.168000	0.184215	0.588771
H85	H	1.443622	-0.250437	-0.196930
H86	H	1.943622	0.249563	0.303070
H87	H	1.240789	-0.381769	-0.196954
H88	H	1.740789	0.118231	0.303046
