data_functionalizedCrystal
_audit_creation_method	'MofGen! by Chris Wilmer'
_symmetry_space_group_name_H-M	'P1'
_symmetry_Int_Tables_number	1
_symmetry_cell_setting	triclinic
loop_
_symmetry_equiv_pos_as_xyz
  x,y,z
_cell_length_a	13.262522
_cell_length_b	14.519731
_cell_length_c	11.804365
_cell_angle_alpha	101.852944
_cell_angle_beta	62.659257
_cell_angle_gamma	84.074474
loop_
_atom_site_label
_atom_site_type_symbol
_atom_site_fract_x
_atom_site_fract_y
_atom_site_fract_z
O1	O	1.519267	0.013552	-0.591052
O2	O	1.190983	0.046964	-0.484738
O3	O	1.363814	-0.104485	-0.540698
O4	O	1.346436	0.165001	-0.535092
O5	O	1.318314	-0.064651	-0.327910
O6	O	1.145483	0.086798	-0.271950
O7	O	1.473767	0.053385	-0.378264
Cu8	Cu	1.305471	0.073728	-0.305678
Cu9	Cu	1.359279	0.026621	-0.557324
O10	O	1.300936	0.204834	-0.322304
C11	C	1.126219	0.068672	-0.364738
C12	C	1.001029	0.073996	-0.324195
C13	C	0.917419	0.098214	-0.189150
C14	C	0.799797	0.103209	-0.151049
C15	C	0.765772	0.083996	-0.247988
C16	C	0.849382	0.059784	-0.383035
C17	C	0.967017	0.054781	-0.421141
C18	C	0.815370	0.040563	-0.479978
C19	C	0.898980	0.016352	-0.615025
C20	C	1.016603	0.011350	-0.653124
C21	C	1.050627	0.030563	-0.556185
C22	C	0.697735	0.045566	-0.441872
C23	C	0.747333	0.002133	-0.673863
C24	C	0.864956	-0.002862	-0.711964
C25	C	1.340249	-0.118880	-0.434040
C26	C	1.337809	-0.221117	-0.433249
C27	C	1.335826	-0.304146	-0.432609
C28	C	1.333350	-0.408312	-0.431817
C29	C	1.331385	-0.491338	-0.431188
C30	C	1.328909	-0.595510	-0.430393
C31	C	1.538532	0.031677	-0.498267
C32	C	1.663723	0.026351	-0.538818
C33	C	1.324501	0.219229	-0.428965
C34	C	1.326944	0.321464	-0.429764
N35	N	1.267633	0.106860	-0.128686
N36	N	1.397126	-0.006519	-0.734319
C37	C	1.487990	-0.086098	0.173915
C38	C	1.516613	-0.111166	0.039985
C39	C	1.454370	-0.056662	-0.002189
C40	C	1.363499	0.022915	0.089579
C41	C	1.334879	0.047990	0.223520
C42	C	1.301260	0.077426	0.047416
C43	C	1.210389	0.157003	0.139184
C44	C	1.181773	0.182073	0.273111
C45	C	1.244016	0.127569	0.315286
C46	C	1.329880	0.052351	-0.086525
C47	C	1.176769	0.186439	-0.036920
C48	C	1.148146	0.211507	0.097010
H49	H	0.719632	-0.013510	-0.752799
O50	O	0.946023	-0.026355	-0.843201
C51	C	0.890786	-0.042266	-0.920603
H52	H	0.795058	-0.002899	-0.857954
H53	H	0.935051	-0.013747	-1.010448
H54	H	0.897582	-0.123015	-0.955996
O55	O	1.418005	-0.025077	-0.175518
C56	C	1.392447	-0.109151	-0.136677
H57	H	1.294286	-0.097565	-0.070629
H58	H	1.424148	-0.172687	-0.228885
H59	H	1.438240	-0.125187	-0.079112
O60	O	1.604538	-0.188733	-0.048980
C61	C	1.560217	-0.256614	-0.106422
H62	H	1.476544	-0.218456	-0.098175
H63	H	1.627348	-0.291902	-0.215759
H64	H	1.540922	-0.314374	-0.051786
O65	O	1.548418	-0.139186	0.214768
C66	C	1.536862	-0.235549	0.188094
H67	H	1.514187	-0.251187	0.104924
H68	H	1.622504	-0.286618	0.156100
H69	H	1.464553	-0.246766	0.281684
O70	O	1.482377	-0.081033	-0.132353
C71	C	1.599007	-0.076699	-0.211799
H72	H	1.648916	-0.084900	-0.156130
H73	H	1.641151	-0.137558	-0.308846
H74	H	1.601264	-0.004137	-0.234664
O75	O	0.651460	0.088938	-0.210749
C76	C	0.584963	0.114406	-0.070770
H77	H	0.634104	0.153254	-0.025554
H78	H	0.497699	0.164223	-0.035945
H79	H	0.569312	0.046336	-0.037618
H80	H	1.220709	0.147977	0.424343
H81	H	1.107790	0.246876	0.347828
O82	O	1.164943	0.025539	-0.593355
C83	C	1.230429	-0.068594	-0.673736
H84	H	1.181329	-0.105235	-0.720880
H85	H	1.318494	-0.064519	-0.755324
H86	H	1.244419	-0.112148	-0.610007
O87	O	0.616399	0.069201	-0.310733
C88	C	0.534287	0.153946	-0.277665
H89	H	0.533987	0.162694	-0.371304
H90	H	0.443912	0.148541	-0.202692
H91	H	0.558561	0.219129	-0.232259
O92	O	1.059805	0.288712	0.186316
C93	C	0.973574	0.257759	0.286349
H94	H	1.014057	0.186814	0.291903
H95	H	0.935693	0.314882	0.386286
H96	H	0.901244	0.246552	0.261749
O97	O	1.116483	0.239396	-0.078060
C98	C	1.193543	0.278379	-0.175124
H99	H	1.285995	0.232900	-0.223752
H100	H	1.166631	0.278001	-0.254066
H101	H	1.190318	0.355758	-0.126044
O102	O	1.097908	-0.012040	-0.784260
C103	C	1.154811	0.064314	-0.809177
H104	H	1.146705	0.109268	-0.712820
H105	H	1.250856	0.033491	-0.885981
H106	H	1.112889	0.111921	-0.848880
H107	H	0.731732	0.122910	-0.041094
H108	H	0.945136	0.113847	-0.110238
