data_functionalizedCrystal
_audit_creation_method	'MofGen! by Chris Wilmer'
_symmetry_space_group_name_H-M	'P1'
_symmetry_Int_Tables_number	1
_symmetry_cell_setting	triclinic
loop_
_symmetry_equiv_pos_as_xyz
  x,y,z
_cell_length_a	14.971486
_cell_length_b	10.654550
_cell_length_c	9.730223
_cell_angle_alpha	89.998861
_cell_angle_beta	89.997868
_cell_angle_gamma	84.049516
loop_
_atom_site_label
_atom_site_type_symbol
_atom_site_fract_x
_atom_site_fract_y
_atom_site_fract_z
O1	O	1.187834	0.163648	0.114128
O2	O	0.927540	0.183246	0.114165
O3	O	1.063672	-0.009356	0.114141
O4	O	1.051702	0.356251	0.114153
O5	O	1.063663	-0.009346	-0.114439
O6	O	0.927531	0.183257	-0.114415
O7	O	1.187825	0.163659	-0.114452
Zn8	Zn	1.057677	0.173460	-0.150725
Zn9	Zn	1.057688	0.173445	0.150439
O10	O	1.051693	0.356261	-0.114427
C11	C	0.894206	0.182375	-0.000120
C12	C	0.794895	0.179749	-0.000106
C13	C	0.738285	0.292898	-0.000104
C14	C	0.644972	0.290422	-0.000125
C15	C	0.608271	0.174797	-0.000137
C16	C	0.664888	0.061639	-0.000143
C17	C	0.758199	0.064116	-0.000132
C18	C	0.470397	0.056485	-0.000162
C19	C	0.377080	0.054007	-0.000170
C20	C	0.357171	0.282791	-0.000155
C21	C	0.450482	0.285268	-0.000144
C22	C	0.507092	0.172110	-0.000147
C23	C	1.062788	-0.056139	-0.000148
C24	C	1.060159	-0.195555	-0.000142
C25	C	1.140311	-0.275900	-0.000158
C26	C	1.137835	-0.406894	-0.000148
C27	C	0.975048	-0.377185	-0.000113
C28	C	0.977525	-0.246193	-0.000113
C29	C	1.222945	-0.225262	-0.000187
C30	C	1.303104	-0.305609	-0.000205
C31	C	1.300628	-0.436603	-0.000195
C32	C	1.217993	-0.487250	-0.000168
C33	C	1.221159	0.164530	-0.000164
C34	C	1.320470	0.167156	-0.000169
C35	C	1.052577	0.403044	-0.000136
C36	C	1.055206	0.542460	-0.000132
N37	N	1.057675	0.173468	-0.356262
C38	C	1.112393	0.249756	-0.428206
C39	C	1.112407	0.249732	-0.572089
C40	C	1.002977	0.097130	-0.572070
C41	C	1.002969	0.097148	-0.428190
C42	C	1.167100	0.326076	-0.356278
C43	C	1.221822	0.402371	-0.428223
C44	C	1.221835	0.402347	-0.572106
C45	C	1.167127	0.326029	-0.644044
N46	N	1.057697	0.173427	0.355975
H47	H	0.480361	0.379420	-0.000121
Cl48	Cl	0.286004	0.425047	-0.000154
H49	H	1.266368	0.464500	-0.369642
H50	H	0.347201	-0.040145	-0.000182
Cl51	Cl	1.401396	-0.537607	-0.000202
H52	H	0.516488	-0.035661	-0.000167
H53	H	1.167151	0.326003	-0.761203
H54	H	1.215984	-0.593916	-0.000145
Cl55	Cl	0.573809	0.432673	-0.000114
H56	H	0.912258	-0.180773	-0.000102
H57	H	0.958434	0.034997	-0.630654
Cl58	Cl	1.290634	0.498249	-0.662548
H59	H	0.958411	0.035030	-0.369611
H60	H	0.634998	-0.032505	-0.000173
H61	H	0.804290	-0.028022	-0.000133
Cl62	Cl	0.784414	0.438264	-0.000080
H63	H	1.224970	-0.118601	-0.000200
Cl64	Cl	0.871172	-0.440858	-0.000083
Cl65	Cl	1.406981	-0.241939	-0.000220
Cl66	Cl	1.167085	0.326115	-0.175397
