data_functionalizedCrystal
_audit_creation_method	'MofGen! by Chris Wilmer'
_symmetry_space_group_name_H-M	'P1'
_symmetry_Int_Tables_number	1
_symmetry_cell_setting	triclinic
loop_
_symmetry_equiv_pos_as_xyz
  x,y,z
_cell_length_a	10.654541
_cell_length_b	10.723024
_cell_length_c	9.198806
_cell_angle_alpha	89.997988
_cell_angle_beta	89.997395
_cell_angle_gamma	84.475899
loop_
_atom_site_label
_atom_site_type_symbol
_atom_site_fract_x
_atom_site_fract_y
_atom_site_fract_z
O1	O	1.667817	0.175258	-0.120844
O2	O	1.302335	0.191960	-0.120856
O3	O	1.493506	0.002034	-0.120844
O4	O	1.476646	0.365184	-0.120856
O5	O	1.493491	0.002033	0.120941
O6	O	1.302320	0.191959	0.120929
O7	O	1.667802	0.175257	0.120941
Cu8	Cu	1.485059	0.183608	0.143012
Cu9	Cu	1.485077	0.183609	-0.142927
O10	O	1.476630	0.365183	0.120929
C11	C	1.492272	-0.044466	0.000046
C12	C	1.488601	-0.183021	0.000041
C13	C	1.255530	0.190734	0.000035
C14	C	1.116087	0.187067	0.000030
C15	C	1.595570	-0.257989	0.000043
C16	C	1.591778	-0.401193	0.000037
C17	C	1.088082	0.414175	0.000005
C18	C	1.008571	0.526001	-0.000014
C19	C	0.877553	0.522548	-0.000015
C20	C	0.826045	0.407256	0.000007
C21	C	0.905556	0.295430	0.000025
C22	C	1.036575	0.298896	0.000022
C23	C	0.933561	0.068324	0.000061
C24	C	1.064579	0.071775	0.000052
C25	C	0.882053	-0.046967	0.000082
C26	C	0.961565	-0.158796	0.000090
C27	C	1.092590	-0.155338	0.000090
C28	C	1.144090	-0.040051	0.000070
C29	C	1.714607	0.176483	0.000047
C30	C	1.854050	0.180150	0.000042
C31	C	1.477865	0.411683	0.000035
C32	C	1.481536	0.550238	0.000031
N33	N	1.485056	0.183607	0.344126
N34	N	1.485091	0.183600	-0.344041
C35	C	1.565323	0.103511	0.416328
C36	C	1.565343	0.103507	0.583740
H37	H	1.689957	-0.216153	0.000055
Br38	Br	1.328891	-0.342407	0.000046
H39	H	1.683352	-0.465612	0.000045
Br40	Br	1.370552	0.297915	0.552488
Br41	Br	1.078479	0.682461	-0.000039
H42	H	1.394213	-0.224856	0.000028
H43	H	1.416345	0.252173	0.406250
H44	H	1.634025	0.034935	0.354206
H45	H	1.194762	0.416998	-0.000026
Br46	Br	1.679898	-0.010784	0.687220
H47	H	1.250770	-0.037224	0.000053
Br48	Br	0.769640	0.674311	-0.000020
Br49	Br	0.648234	0.402571	0.000037
Br50	Br	0.704243	-0.051657	0.000093
H51	H	0.919615	-0.252658	0.000107
H52	H	1.157321	-0.246401	0.000110
