data_functionalizedCrystal
_audit_creation_method	'MofGen! by Chris Wilmer'
_symmetry_space_group_name_H-M	'P1'
_symmetry_Int_Tables_number	1
_symmetry_cell_setting	triclinic
loop_
_symmetry_equiv_pos_as_xyz
  x,y,z
_cell_length_a	18.050589
_cell_length_b	12.759401
_cell_length_c	12.759393
_cell_angle_alpha	90.020938
_cell_angle_beta	89.970454
_cell_angle_gamma	89.970254
loop_
_atom_site_label
_atom_site_type_symbol
_atom_site_fract_x
_atom_site_fract_y
_atom_site_fract_z
Zn1	Zn	-0.295593	-1.606168	-0.594027
Zn2	Zn	-0.419801	-1.606017	-0.418350
Zn3	Zn	-0.295633	-1.430466	-0.418362
Zn4	Zn	-0.419749	-1.430417	-0.593987
O5	O	-0.357694	-1.518267	-0.506182
O6	O	-0.312075	-1.753169	-0.570735
O7	O	-0.403368	-1.582688	-0.271331
O8	O	-0.191703	-1.453857	-0.441686
O9	O	-0.403330	-1.753058	-0.441666
O10	O	-0.191674	-1.582944	-0.570746
O11	O	-0.312142	-1.453711	-0.271339
O12	O	-0.312092	-1.283439	-0.441648
O13	O	-0.403241	-1.453773	-0.741014
O14	O	-0.403280	-1.283402	-0.570679
O15	O	-0.312025	-1.582896	-0.741043
O16	O	-0.523719	-1.582640	-0.441627
O17	O	-0.523681	-1.453627	-0.570667
C18	C	-0.357685	-1.245300	-0.506161
C19	C	-0.357699	-1.128523	-0.506177
C20	C	-0.550646	-1.518140	-0.506164
C21	C	-0.633192	-1.518182	-0.506192
C22	C	-0.357623	-1.518346	-0.780215
C23	C	-0.357592	-1.518379	-0.896992
C24	C	-0.832649	-1.448094	-0.576339
C25	C	-0.882097	-1.422478	-0.480470
C26	C	-0.784322	-1.518285	-0.506206
C27	C	-0.881956	-1.543953	-0.602085
C28	C	-0.930307	-1.518383	-0.506227
C29	C	-0.832683	-1.492619	-0.410286
C30	C	-0.832538	-1.614139	-0.531966
C31	C	-0.881964	-1.588559	-0.436031
C32	C	-0.700224	-1.518226	-0.506194
C33	C	-1.014404	-1.518442	-0.506228
C34	C	-0.163989	-1.518423	-0.506222
C35	C	-0.081443	-1.518489	-0.506239
C36	C	-0.357704	-1.792300	-0.506203
C37	C	-0.357708	-1.909077	-0.506212
C38	C	-0.405253	-1.073670	-0.573257
C39	C	-0.405256	-0.963946	-0.573278
C40	C	-0.310149	-0.963938	-0.439129
C41	C	-0.310143	-1.073660	-0.439114
C42	C	-0.310088	-1.585619	-0.951871
C43	C	-0.310056	-1.585637	-1.061595
C44	C	-0.405039	-1.451172	-1.061552
C45	C	-0.405067	-1.451150	-0.951829
C46	C	-0.357712	-1.518249	-0.233214
C47	C	-0.357533	-1.518419	-0.116438
H48	H	-0.903882	-1.341464	-0.458702
H49	H	-0.810755	-1.695134	-0.553780
N50	N	-0.453583	-1.382446	-0.895766
N51	N	-0.448644	-1.285507	-0.908006
H52	H	-0.482904	-1.236982	-0.868411
N53	N	-0.453518	-1.382494	-1.117580
N54	N	-0.427358	-1.315587	-1.178799
H55	H	-0.461595	-1.267081	-1.218372
H56	H	-0.443978	-0.919289	-0.627904
H57	H	-0.271430	-1.640358	-0.907225
H58	H	-0.810995	-1.388648	-0.635565
H59	H	-0.271432	-0.919255	-0.384527
H60	H	-0.903481	-1.647959	-0.376662
H61	H	-0.271372	-1.640388	-1.106272
H62	H	-0.811128	-1.470854	-0.329188
H63	H	-0.903600	-1.565624	-0.683161
H64	H	-0.271414	-1.118323	-0.384489
H65	H	-0.443974	-1.118336	-0.627867
