data_functionalizedCrystal
_audit_creation_method	'MofGen! by Chris Wilmer'
_symmetry_space_group_name_H-M	'P1'
_symmetry_Int_Tables_number	1
_symmetry_cell_setting	triclinic
loop_
_symmetry_equiv_pos_as_xyz
  x,y,z
_cell_length_a	14.044190
_cell_length_b	9.065215
_cell_length_c	13.101018
_cell_angle_alpha	86.588348
_cell_angle_beta	93.660631
_cell_angle_gamma	89.103237
loop_
_atom_site_label
_atom_site_type_symbol
_atom_site_fract_x
_atom_site_fract_y
_atom_site_fract_z
O1	O	0.133966	1.983273	-0.085216
O2	O	0.633966	2.483273	0.414784
O3	O	0.145381	1.555254	-0.085222
O4	O	0.645381	2.055254	0.414778
O5	O	0.001635	1.762832	-0.085199
O6	O	0.501635	2.262832	0.414801
O7	O	0.277712	1.775696	-0.085239
O8	O	0.777712	2.275696	0.414761
O9	O	0.011957	1.747921	0.085230
O10	O	0.511957	2.247921	0.585230
O11	O	0.155704	1.540343	0.085207
O12	O	0.655704	2.040343	0.585207
O13	O	0.144288	1.968362	0.085213
O14	O	0.644288	2.468362	0.585213
Zn15	Zn	0.151635	1.751985	0.112269
Zn16	Zn	0.651635	2.251985	0.612269
Zn17	Zn	0.138034	1.771631	-0.112278
Zn18	Zn	0.638034	2.271631	0.387722
O19	O	0.288035	1.760785	0.085190
O20	O	0.788035	2.260785	0.585190
C21	C	0.149446	1.492691	-0.000008
C22	C	0.649446	1.992691	0.499992
C23	C	0.146167	1.328484	-0.000009
C24	C	0.646167	1.828484	0.499991
C25	C	-0.028567	1.749750	0.000019
C26	C	0.471433	2.249750	0.500019
C27	C	-0.133936	1.732969	0.000027
C28	C	0.366064	2.232969	0.500027
C29	C	-0.383467	1.821308	-0.000012
C30	C	0.116533	2.321308	0.499988
C31	C	-0.326858	1.702316	-0.000006
C32	C	0.173142	2.202316	0.499994
C33	C	-0.219507	1.719375	0.000013
C34	C	0.280493	2.219375	0.500013
C35	C	-0.490829	1.804251	-0.000030
C36	C	0.009171	2.304251	0.499970
C37	C	0.318236	1.773866	-0.000030
C38	C	0.818236	2.273866	0.499970
C39	C	0.423605	1.790649	-0.000045
C40	C	0.923605	2.290649	0.499955
C41	C	0.140223	2.030926	-0.000003
C42	C	0.640223	2.530926	0.499997
C43	C	0.143502	2.195133	-0.000009
C44	C	0.643502	2.695133	0.499991
N45	N	0.160916	1.738588	0.265517
N46	N	0.660916	2.238588	0.765517
N47	N	0.128746	1.785039	-0.265525
N48	N	0.628746	2.285039	0.234475
C49	C	0.116114	1.803258	0.525433
C50	C	0.616114	2.303258	1.025433
C51	C	0.173545	1.720374	0.474551
C52	C	0.673545	2.220374	0.974551
C53	C	0.166517	1.730511	0.358234
C54	C	0.666517	2.230511	0.858234
C55	C	0.123141	1.793123	0.641762
C56	C	0.623141	2.293123	1.141762
H57	H	-0.351309	1.935983	0.000000
H58	H	0.148691	2.435983	0.500000
N59	N	-0.369447	1.550398	-0.000017
N60	N	0.130553	2.050398	0.499983
H61	H	-0.441211	1.559583	-0.000027
H62	H	0.058789	2.059583	0.499973
H63	H	-0.343952	1.489474	0.063168
H64	H	0.156048	1.989474	0.563168
N65	N	0.245669	1.616292	0.532553
N66	N	0.745669	2.116292	1.032553
H67	H	0.240534	1.623711	0.608629
H68	H	0.740534	2.123711	1.108629
H69	H	0.312017	1.643890	0.513854
H70	H	0.812017	2.143890	1.013854
H71	H	0.061671	1.881827	0.481642
H72	H	0.561671	2.381827	0.981642
