data_functionalizedCrystal
_audit_creation_method	'MofGen! by Chris Wilmer'
_symmetry_space_group_name_H-M	'P1'
_symmetry_Int_Tables_number	1
_symmetry_cell_setting	triclinic
loop_
_symmetry_equiv_pos_as_xyz
  x,y,z
_cell_length_a	10.654545
_cell_length_b	16.109301
_cell_length_c	9.730223
_cell_angle_alpha	89.994178
_cell_angle_beta	89.997167
_cell_angle_gamma	83.972280
loop_
_atom_site_label
_atom_site_type_symbol
_atom_site_fract_x
_atom_site_fract_y
_atom_site_fract_z
O1	O	1.666258	0.116756	-0.114281
O2	O	2.166258	0.616756	0.385719
O3	O	1.300628	0.127885	-0.114287
O4	O	1.800628	0.627885	0.385713
O5	O	1.493487	0.001349	-0.114270
O6	O	1.993487	0.501349	0.385730
O7	O	1.473399	0.243292	-0.114298
O8	O	1.973399	0.743292	0.385702
O9	O	1.493475	0.001346	0.114310
O10	O	1.993475	0.501346	0.614310
O11	O	1.300616	0.127882	0.114293
O12	O	1.800616	0.627882	0.614293
O13	O	1.666246	0.116752	0.114299
O14	O	2.166246	0.616752	0.614299
Zn15	Zn	1.483429	0.122317	0.150588
Zn16	Zn	1.983429	0.622317	0.650588
Zn17	Zn	1.483445	0.122321	-0.150576
Zn18	Zn	1.983445	0.622321	0.349424
O19	O	1.473387	0.243289	0.114282
O20	O	1.973387	0.743289	0.614282
C21	C	1.253835	0.127067	0.000002
C22	C	1.753835	0.627067	0.500002
C23	C	1.114425	0.124625	0.000000
C24	C	1.614425	0.624625	0.500000
C25	C	1.492668	-0.029632	0.000021
C26	C	1.992668	0.470368	0.500021
C27	C	1.490228	-0.121942	0.000023
C28	C	1.990228	0.378058	0.500023
C29	C	1.048929	0.123473	0.124600
C30	C	1.548929	0.623473	0.624600
C31	C	0.917941	0.121164	0.124600
C32	C	1.417941	0.621164	0.624600
C33	C	0.917955	0.121162	-0.124610
C34	C	1.417955	0.621162	0.375390
C35	C	1.048942	0.123465	-0.124609
C36	C	1.548942	0.623465	0.375391
C37	C	1.598994	-0.343569	0.000003
C38	C	2.098994	0.156431	0.500003
C39	C	1.596692	-0.430303	-0.000009
C40	C	2.096692	0.069697	0.499991
C41	C	1.367871	-0.411787	-0.000007
C42	C	1.867871	0.088213	0.499993
C43	C	1.370175	-0.325054	-0.000006
C44	C	1.870175	0.174946	0.499994
C45	C	1.485740	-0.290948	0.000006
C46	C	1.985740	0.209052	0.500006
C47	C	1.481134	-0.464414	-0.000007
C48	C	1.981134	0.035586	0.499993
C49	C	1.478638	-0.558455	-0.000019
C50	C	1.978638	-0.058455	0.499981
C51	C	1.488237	-0.196901	0.000016
C52	C	1.988237	0.303099	0.500016
C53	C	1.713039	0.117571	0.000007
C54	C	2.213039	0.617571	0.500007
C55	C	1.852450	0.120013	-0.000001
C56	C	2.352450	0.620013	0.499999
C57	C	1.474207	0.274270	-0.000012
C58	C	1.974207	0.774270	0.499988
C59	C	1.476646	0.366580	-0.000023
C60	C	1.976646	0.866580	0.499977
N61	N	1.483427	0.122313	0.356124
N62	N	1.983427	0.622313	0.856124
N63	N	1.483457	0.122318	-0.356113
N64	N	1.983457	0.622318	0.143887
C65	C	1.568854	0.066307	0.428058
C66	C	2.068854	0.566307	0.928058
C67	C	1.568866	0.066307	0.571941
C68	C	2.068866	0.566307	1.071941
C69	C	1.398021	0.178327	0.571944
C70	C	1.898021	0.678327	1.071944
C71	C	1.398004	0.178322	0.428063
C72	C	1.898004	0.678322	0.928063
H73	H	1.102241	0.124417	0.226065
H74	H	1.602241	0.624417	0.726065
C75	C	1.120997	0.124736	-0.261672
C76	C	1.620997	0.624736	0.238328
H77	H	1.208388	0.126266	-0.243821
H78	H	1.708388	0.626266	0.256179
H79	H	1.089934	0.172756	-0.312879
H80	H	1.589934	0.672756	0.187121
H81	H	1.109140	0.075956	-0.312861
H82	H	1.609140	0.575956	0.187139
C83	C	1.662841	0.004703	0.651062
C84	C	2.162841	0.504703	1.151062
H85	H	1.713715	-0.028648	0.587606
H86	H	2.213715	0.471352	1.087606
H87	H	1.617699	-0.030186	0.707208
H88	H	2.117699	0.469814	1.207208
H89	H	1.715107	0.034942	0.707170
H90	H	2.215107	0.534942	1.207170
H91	H	1.328473	0.223930	0.630531
H92	H	1.828473	0.723930	1.130531
C93	C	1.721269	-0.488186	-0.000018
C94	C	2.221269	0.011814	0.499982
H95	H	1.703351	-0.544726	-0.000038
H96	H	2.203351	-0.044726	0.499962
H97	H	1.768658	-0.477785	0.079691
H98	H	2.268658	0.022215	0.579691
H99	H	1.768649	-0.477765	-0.079741
H100	H	2.268649	0.022235	0.420259
H101	H	1.328433	0.223930	0.369491
H102	H	1.828433	0.723930	0.869491
H103	H	0.864620	0.120227	0.226062
H104	H	1.364620	0.620227	0.726062
H105	H	1.693095	-0.315803	0.000009
H106	H	2.193095	0.184197	0.500009
C107	C	0.845918	0.119898	-0.261668
C108	C	1.345918	0.619898	0.238332
H109	H	0.758524	0.118371	-0.243826
H110	H	1.258524	0.618371	0.256174
H111	H	0.876986	0.071880	-0.312864
H112	H	1.376986	0.571880	0.187136
H113	H	0.857787	0.168681	-0.312866
H114	H	1.357787	0.668681	0.187134
H115	H	1.273782	-0.439567	-0.000014
H116	H	1.773782	0.060433	0.499986
H117	H	1.277943	-0.282208	-0.000007
H118	H	1.777943	0.217792	0.499993
C119	C	1.662804	0.004692	0.348929
C120	C	2.162804	0.504692	0.848929
H121	H	1.713674	-0.028668	0.412382
H122	H	2.213674	0.471332	0.912382
H123	H	1.715058	0.034916	0.292779
H124	H	2.215058	0.534916	0.792779
H125	H	1.617631	-0.030200	0.292824
H126	H	2.117631	0.469800	0.792824
