data_functionalizedCrystal
_audit_creation_method	'MofGen! by Chris Wilmer'
_symmetry_space_group_name_H-M	'P1'
_symmetry_Int_Tables_number	1
_symmetry_cell_setting	triclinic
loop_
_symmetry_equiv_pos_as_xyz
  x,y,z
_cell_length_a	15.944551
_cell_length_b	10.489741
_cell_length_c	9.565339
_cell_angle_alpha	90.000900
_cell_angle_beta	90.000721
_cell_angle_gamma	84.018956
loop_
_atom_site_label
_atom_site_type_symbol
_atom_site_fract_x
_atom_site_fract_y
_atom_site_fract_z
O1	O	0.118501	1.692410	0.116177
O2	O	0.129624	1.321060	0.116199
O3	O	0.001849	1.516876	0.116175
O4	O	0.246276	1.496594	0.116201
O5	O	0.001857	1.516860	-0.116345
O6	O	0.129632	1.321045	-0.116321
O7	O	0.118509	1.692395	-0.116343
Zn8	Zn	0.124072	1.506717	-0.153250
Zn9	Zn	0.124061	1.506738	0.153106
O10	O	0.246284	1.496579	-0.116319
C11	C	0.128788	1.273532	-0.000058
C12	C	0.126275	1.131938	-0.000050
C13	C	0.044975	1.064925	-0.000072
C14	C	0.083376	0.972273	0.114573
C15	C	0.083403	0.972292	-0.114673
C16	C	0.164709	1.041151	0.114690
C17	C	0.164725	1.041179	-0.114659
C18	C	0.203186	0.948554	0.000014
C19	C	-0.029446	1.516026	-0.000085
C20	C	-0.122708	1.513502	-0.000086
C21	C	-0.338330	1.386093	-0.000059
C22	C	-0.398988	1.445250	-0.114709
C23	C	-0.293461	1.508935	-0.000075
C24	C	-0.398979	1.445294	0.114537
C25	C	-0.458400	1.504515	-0.000058
C26	C	-0.352890	1.568126	-0.114820
C27	C	-0.352875	1.568153	0.114530
C28	C	-0.413515	1.627399	-0.000148
C29	C	-0.198443	1.511478	-0.000086
C30	C	-0.553417	1.501982	-0.000058
C31	C	0.277579	1.497429	-0.000056
C32	C	0.370841	1.499953	-0.000046
C33	C	0.119345	1.739922	-0.000083
C34	C	0.121858	1.881517	-0.000082
N35	N	0.124078	1.506713	-0.362329
C36	C	0.183150	1.416127	-0.453521
C37	C	0.200146	1.531388	-0.546705
C38	C	0.107089	1.391501	-0.546701
C39	C	0.141112	1.622032	-0.453461
C40	C	0.048022	1.482069	-0.453449
C41	C	0.064986	1.597414	-0.546591
N42	N	0.124048	1.506752	0.362185
H43	H	-0.021859	1.115541	0.000064
Br44	Br	-0.432994	1.358669	0.276075
H45	H	0.199079	1.071509	0.211724
Br46	Br	-0.467762	1.797495	-0.000256
H47	H	0.264452	1.552259	-0.587666
H48	H	-0.332436	1.620072	0.211456
H49	H	0.092733	1.294052	-0.587660
H50	H	0.048992	0.941784	-0.211598
Br51	Br	-0.059128	1.447225	-0.385117
Br52	Br	0.165164	1.784494	-0.385496
Br53	Br	-0.283838	1.216145	-0.000226
H54	H	0.270090	0.898203	0.000084
Br55	Br	0.026041	0.921390	0.276118
H56	H	0.199100	1.071742	-0.211583
H57	H	-0.332584	1.620033	-0.211854
H58	H	-0.419405	1.393286	-0.211631
H59	H	0.015015	1.674119	-0.587199
Br60	Br	0.266485	1.288561	-0.385402
