data_functionalizedCrystal
_audit_creation_method	'MofGen! by Chris Wilmer'
_symmetry_space_group_name_H-M	'P1'
_symmetry_Int_Tables_number	1
_symmetry_cell_setting	triclinic
loop_
_symmetry_equiv_pos_as_xyz
  x,y,z
_cell_length_a	14.519709
_cell_length_b	27.732048
_cell_length_c	13.596369
_cell_angle_alpha	89.989067
_cell_angle_beta	90.000291
_cell_angle_gamma	83.161400
loop_
_atom_site_label
_atom_site_type_symbol
_atom_site_fract_x
_atom_site_fract_y
_atom_site_fract_z
O1	O	1.222766	0.063362	-0.081675
O2	O	0.954159	0.070824	-0.081706
O3	O	1.096805	-0.003264	-0.081671
O4	O	1.080120	0.137450	-0.081710
O5	O	1.096791	-0.003268	0.081912
O6	O	0.954145	0.070820	0.081877
O7	O	1.222752	0.063358	0.081908
Zn8	Zn	1.088446	0.067088	0.107865
Zn9	Zn	1.088465	0.067094	-0.107663
O10	O	1.080106	0.137446	0.081873
C11	C	0.919799	0.070474	0.000082
C12	C	0.817435	0.069432	0.000071
C13	C	0.442606	0.065596	0.000116
C14	C	0.546896	0.066661	0.000103
C15	C	0.630018	0.067514	0.000093
C16	C	0.734314	0.068579	0.000081
C17	C	1.096448	-0.021274	0.000124
C18	C	1.095393	-0.074934	0.000132
C19	C	1.173048	-0.413378	0.000090
C20	C	1.169135	-0.615057	0.000076
O21	O	1.240145	-0.645973	0.000041
N22	N	1.084552	-0.634585	0.000067
C23	C	1.000941	-0.603690	0.000055
O24	O	0.928909	-0.624927	0.000037
C25	C	1.004855	-0.402012	0.000062
C26	C	1.089444	-0.382487	0.000081
C27	C	1.257630	-0.393853	0.000108
C28	C	1.258607	-0.343436	0.000117
C29	C	1.175003	-0.312545	0.000108
C30	C	1.090421	-0.332071	0.000090
C31	C	0.921246	-0.371118	0.000043
C32	C	0.922232	-0.320696	0.000043
C33	C	1.006820	-0.301171	0.000062
C34	C	1.007794	-0.250763	0.000090
N35	N	1.092377	-0.231235	0.000099
C36	C	1.175981	-0.262126	0.000108
C37	C	0.998893	-0.709574	0.000053
C38	C	0.997914	-0.759993	0.000053
C39	C	1.166108	-0.771356	0.000072
C40	C	1.167086	-0.720936	0.000079
C41	C	1.083476	-0.690045	0.000062
C42	C	1.178028	-0.156247	0.000128
C43	C	1.178998	-0.105825	0.000141
C44	C	1.010804	-0.094466	0.000116
C45	C	1.009833	-0.144883	0.000109
C46	C	1.093453	-0.175773	0.000111
O47	O	0.936822	-0.219818	0.000114
O48	O	1.248004	-0.240879	0.000104
C49	C	1.172071	-0.463795	0.000081
C50	C	1.087489	-0.483320	0.000063
C51	C	1.003885	-0.452429	0.000054
C52	C	1.086510	-0.533740	0.000063
C53	C	1.170115	-0.564631	0.000072
C54	C	1.254698	-0.545103	0.000081
C55	C	1.255675	-0.494686	0.000090
C56	C	0.919302	-0.471957	0.000046
C57	C	0.918331	-0.522375	0.000038
C58	C	1.001936	-0.553266	0.000047
C59	C	1.257113	0.063708	0.000119
C60	C	1.359476	0.064750	0.000123
C61	C	1.080464	0.155456	0.000077
C62	C	1.081518	0.209116	0.000062
N63	N	1.088441	0.067085	0.254957
N64	N	1.088478	0.067094	-0.254754
C65	C	1.088464	0.067094	0.656248
C66	C	1.088454	0.067093	0.544596
C67	C	1.088453	0.067090	0.455606
C68	C	1.088442	0.067088	0.343947
H69	H	1.247882	-0.089931	0.000158
H70	H	0.930803	-0.684426	0.000040
H71	H	0.942736	-0.069306	0.000113
H72	H	1.235965	-0.705043	0.000094
O73	O	0.838994	-0.389996	-0.000023
C74	C	0.765425	-0.351911	-0.000013
H75	H	0.790797	-0.317636	-0.030971
H76	H	0.706330	-0.362491	-0.047523
H77	H	0.739658	-0.344807	0.078460
O78	O	1.259338	-0.186179	0.000177
C79	C	1.334192	-0.158125	0.000171
H80	H	1.310219	-0.120523	0.031140
H81	H	1.392724	-0.176667	0.047673
H82	H	1.360163	-0.154499	-0.078303
O83	O	1.337926	-0.475803	0.000058
C84	C	1.411497	-0.513888	0.000088
H85	H	1.386136	-0.548156	-0.030886
H86	H	1.470604	-0.503296	-0.047398
H87	H	1.437244	-0.521008	0.078570
O88	O	1.335888	-0.575135	-0.000087
C89	C	1.340336	-0.604636	-0.084801
H90	H	1.292915	-0.586205	-0.144015
H91	H	1.414703	-0.610237	-0.113235
H92	H	1.316989	-0.641321	-0.065655
O93	O	0.838145	-0.441904	0.000171
C94	C	0.833657	-0.412420	0.084910
H95	H	0.906815	-0.409799	0.113162
H96	H	0.798745	-0.374559	0.065861
H97	H	0.791783	-0.429058	0.144228
H98	H	1.234182	-0.796516	0.000080
O99	O	0.836131	-0.541314	-0.000154
C100	C	0.785221	-0.525510	-0.084872
H101	H	0.834710	-0.514970	-0.144071
H102	H	0.746429	-0.556082	-0.113330
H103	H	0.733357	-0.492700	-0.065722
O104	O	1.340858	-0.324553	0.000084
C105	C	1.414429	-0.362638	0.000113
H106	H	1.389068	-0.396907	-0.030860
H107	H	1.473535	-0.352047	-0.047375
H108	H	1.440177	-0.369758	0.078594
O109	O	0.841034	-0.290669	-0.000145
C110	C	0.836586	-0.261146	-0.084850
H111	H	0.884022	-0.279557	-0.144060
H112	H	0.762222	-0.255547	-0.113301
H113	H	0.859912	-0.224463	-0.065686
O114	O	0.927585	-0.163773	0.000050
C115	C	0.854005	-0.125693	0.000073
H116	H	0.879363	-0.091413	-0.030875
H117	H	0.794913	-0.136276	-0.047439
H118	H	0.828238	-0.118598	0.078549
H119	H	0.929034	-0.775885	0.000055
H120	H	1.325714	-0.419000	0.000112
