data_functionalizedCrystal
_audit_creation_method	'MofGen! by Chris Wilmer'
_symmetry_space_group_name_H-M	'P1'
_symmetry_Int_Tables_number	1
_symmetry_cell_setting	triclinic
loop_
_symmetry_equiv_pos_as_xyz
  x,y,z
_cell_length_a	12.594517
_cell_length_b	29.839131
_cell_length_c	12.594509
_cell_angle_alpha	89.969204
_cell_angle_beta	89.978673
_cell_angle_gamma	90.041502
loop_
_atom_site_label
_atom_site_type_symbol
_atom_site_fract_x
_atom_site_fract_y
_atom_site_fract_z
Zn1	Zn	1.627077	-0.178842	-0.601841
Zn2	Zn	1.626888	-0.253977	-0.423854
Zn3	Zn	1.449081	-0.178861	-0.423870
Zn4	Zn	1.448984	-0.253946	-0.601785
O5	O	1.538008	-0.216407	-0.512837
O6	O	1.775998	-0.188814	-0.578248
O7	O	1.603264	-0.244034	-0.274911
O8	O	1.472813	-0.115992	-0.447508
O9	O	1.775859	-0.244015	-0.447482
O10	O	1.603586	-0.115978	-0.578263
O11	O	1.472629	-0.188847	-0.274922
O12	O	1.300122	-0.188816	-0.447453
O13	O	1.472646	-0.243962	-0.750738
O14	O	1.300051	-0.243981	-0.578167
O15	O	1.603491	-0.188784	-0.750779
O16	O	1.603169	-0.316840	-0.447427
O17	O	1.472463	-0.316817	-0.578152
C18	C	1.261467	-0.216398	-0.512806
C19	C	1.143161	-0.216404	-0.512818
C20	C	1.073916	-0.186360	-0.441859
C21	C	1.003062	-0.227339	-0.415674
C22	C	1.003217	-0.175445	-0.539020
C23	C	1.073865	-0.257405	-0.486583
C24	C	1.074026	-0.205484	-0.609974
C25	C	1.003204	-0.246491	-0.583827
C26	C	1.537814	-0.333129	-0.512805
C27	C	1.537829	-0.383064	-0.512826
C28	C	1.469993	-0.739654	-0.580901
C29	C	1.469852	-0.551981	-0.580868
O30	O	1.411944	-0.527720	-0.638727
N31	N	1.537941	-0.528509	-0.512858
C32	C	1.606075	-0.551957	-0.444857
O33	O	1.663993	-0.527686	-0.387018
C34	C	1.606220	-0.739629	-0.444897
C35	C	1.538119	-0.763100	-0.512903
C36	C	1.401898	-0.763125	-0.648903
C37	C	1.401930	-0.810040	-0.648906
C38	C	1.470056	-0.833485	-0.580908
C39	C	1.538151	-0.810015	-0.512906
C40	C	1.674359	-0.763077	-0.376902
C41	C	1.674391	-0.809998	-0.376919
C42	C	1.606290	-0.833468	-0.444926
C43	C	1.606309	-0.880376	-0.444912
N44	N	1.538220	-0.903848	-0.512921
C45	C	1.470094	-0.880403	-0.580920
C46	C	1.605992	-0.453427	-0.444840
C47	C	1.605955	-0.406509	-0.444828
C48	C	1.469733	-0.406536	-0.580841
C49	C	1.469766	-0.453455	-0.580846
C50	C	1.537904	-0.476899	-0.512849
C51	C	1.470165	-0.978929	-0.580921
C52	C	1.470200	-1.025849	-0.580916
C53	C	1.606425	-1.025817	-0.444908
C54	C	1.606387	-0.978901	-0.444909
C55	C	1.538253	-0.955459	-0.512924
O56	O	1.664195	-0.904666	-0.387091
O57	O	1.412201	-0.904682	-0.638767
C58	C	1.469961	-0.692739	-0.580898
C59	C	1.538056	-0.669269	-0.512896
C60	C	1.606182	-0.692714	-0.444898
C61	C	1.538018	-0.622351	-0.512884
C62	C	1.469892	-0.598906	-0.580883
C63	C	1.401803	-0.622378	-0.648892
C64	C	1.401835	-0.669294	-0.648896
C65	C	1.674271	-0.669241	-0.376888
C66	C	1.674233	-0.622326	-0.376889
C67	C	1.606106	-0.598880	-0.444887
C68	C	1.815628	-0.216416	-0.512870
C69	C	1.933934	-0.216420	-0.512883
C70	C	1.538079	-0.216367	-0.790458
C71	C	1.538109	-0.216350	-0.908764
C72	C	1.538231	-0.099228	-0.512894
C73	C	1.538326	-0.049294	-0.512917
C74	C	1.466965	-0.246345	-0.977995
C75	C	1.564074	-0.257322	-1.048784
C76	C	1.441076	-0.205346	-1.048774
C77	C	1.635269	-0.227349	-0.977995
C78	C	1.512205	-0.175355	-0.977979
C79	C	1.609381	-0.186316	-1.048736
C80	C	1.537998	-0.216413	-0.236296
C81	C	1.538174	-0.216304	-0.117992
H82	H	1.414741	-1.044956	-0.636297
H83	H	1.414318	-0.472561	-0.636229
O84	O	1.485873	-0.134066	-0.940706
C85	C	1.393723	-0.137341	-0.877567
H86	H	1.385339	-0.173069	-0.846560
H87	H	1.321180	-0.128399	-0.927354
C88	C	1.412680	-0.060852	-0.821314
C89	C	1.402387	-0.104733	-0.783222
H90	H	1.418021	-0.040737	-0.763120
H91	H	1.474761	-0.058645	-0.863855
H92	H	1.352225	-0.053407	-0.862803
H93	H	1.462847	-0.112179	-0.741746
H94	H	1.340316	-0.106941	-0.740672
H95	H	1.346381	-0.688399	-0.704275
H96	H	1.669643	-0.160931	-1.079601
O97	O	1.343203	-0.194287	-1.086044
C98	C	1.344850	-0.194007	-1.197980
H99	H	1.412606	-0.216051	-1.227460
H100	H	1.357051	-0.158253	-1.227535
C101	C	1.155420	-0.185148	-1.204295
C102	C	1.238634	-0.212225	-1.240504
H103	H	1.089900	-0.196384	-1.230528
H104	H	1.154310	-0.185335	-1.128882
H105	H	1.165602	-0.155354	-1.228927
H106	H	1.228458	-0.242016	-1.215860
H107	H	1.239740	-0.212044	-1.315914
O108	O	1.110788	-0.156072	-0.370111
C109	C	1.024336	-0.135118	-0.319234
H110	H	0.951407	-0.157652	-0.324615
H111	H	1.006948	-0.101736	-0.359691
C112	C	1.141478	-0.099209	-0.195127
C113	C	1.051907	-0.126887	-0.201729
H114	H	1.158485	-0.094129	-0.122646
H115	H	1.199723	-0.113324	-0.229406
H116	H	1.126976	-0.071393	-0.228848
H117	H	1.066414	-0.154704	-0.168021
H118	H	0.993665	-0.112776	-0.167442
H119	H	1.729750	-0.688325	-0.321516
H120	H	1.406848	-0.271749	-0.946934
H121	H	1.104770	-0.292061	-0.464357
O122	O	1.590105	-0.298652	-1.086025
C123	C	1.506462	-0.315277	-1.149138
H124	H	1.456989	-0.286100	-1.180171
H125	H	1.454150	-0.338335	-1.099322
C126	C	1.613356	-0.377537	-1.205338
C127	C	1.552597	-0.341701	-1.243460
H128	H	1.641812	-0.393839	-1.263518
H129	H	1.669707	-0.366338	-1.162815
H130	H	1.569753	-0.396747	-1.163824
H131	H	1.596203	-0.322489	-1.284962
H132	H	1.496255	-0.352898	-1.285993
O133	O	0.965740	-0.238289	-0.317690
C134	C	0.902661	-0.202958	-0.278478
H135	H	0.871708	-0.182102	-0.347709
H136	H	0.952479	-0.180862	-0.223981
C137	C	0.846290	-0.248003	-0.130710
C138	C	0.808266	-0.222389	-0.215742
H139	H	0.788065	-0.259989	-0.092007
H140	H	0.888790	-0.271806	-0.157125
H141	H	0.887805	-0.229586	-0.085308
H142	H	0.766763	-0.240808	-0.261149
H143	H	0.765756	-0.198590	-0.189333
H144	H	0.972351	-0.271935	-0.643862
O145	O	1.335898	-0.832814	-0.715131
C146	C	1.359083	-0.821296	-0.821226
H147	H	1.444105	-0.808364	-0.826666
H148	H	1.301991	-0.794075	-0.848980
C149	C	1.242254	-0.878839	-0.885595
C150	C	1.346683	-0.862959	-0.892278
H151	H	1.234600	-0.904538	-0.929425
H152	H	1.226630	-0.886598	-0.814117
H153	H	1.194689	-0.856151	-0.908722
H154	H	1.394244	-0.885645	-0.869139
H155	H	1.362314	-0.855204	-0.963754
O156	O	1.733151	-0.238492	-0.940892
C157	C	1.731929	-0.238391	-0.828950
H158	H	1.647092	-0.243390	-0.799643
H159	H	1.763599	-0.204962	-0.798645
C160	C	1.906615	-0.270543	-0.823190
C161	C	1.802417	-0.276687	-0.787195
H162	H	1.950098	-0.294165	-0.797432
H163	H	1.907440	-0.270610	-0.898607
H164	H	1.932991	-0.242684	-0.797933
H165	H	1.776038	-0.304543	-0.812463
H166	H	1.801589	-0.276626	-0.711781
O167	O	0.966064	-0.134150	-0.565561
C168	C	0.904589	-0.137293	-0.658800
H169	H	0.874033	-0.173046	-0.668093
H170	H	0.955575	-0.128095	-0.730392
C171	C	0.847370	-0.060939	-0.639975
C172	C	0.809833	-0.104851	-0.651384
H173	H	0.788923	-0.040926	-0.635404
H174	H	0.888790	-0.058821	-0.577160
H175	H	0.889858	-0.053280	-0.699637
H176	H	0.767357	-0.112511	-0.591717
H177	H	0.768404	-0.106970	-0.714189
H178	H	1.105220	-0.196225	-0.692085
H179	H	1.414686	-0.959847	-0.636307
O180	O	1.335660	-0.740305	-0.714812
C181	C	1.266904	-0.713224	-0.654140
H182	H	1.304490	-0.706193	-0.573519
H183	H	1.188057	-0.731350	-0.642361
C184	C	1.201372	-0.677290	-0.811706
C185	C	1.247540	-0.668651	-0.712688
H186	H	1.189423	-0.649796	-0.847821
H187	H	1.247691	-0.695536	-0.852582
H188	H	1.135672	-0.692396	-0.801876
H189	H	1.313245	-0.653550	-0.722519
H190	H	1.201232	-0.650401	-0.671814
H191	H	1.414260	-0.387439	-0.636206
H192	H	1.661397	-0.387402	-0.389440
H193	H	1.729813	-0.743974	-0.321525
O194	O	1.672370	-0.476127	-0.378832
C195	C	1.778400	-0.464584	-0.402261
H196	H	1.780471	-0.430515	-0.443218
H197	H	1.814274	-0.490959	-0.457001
C198	C	1.840419	-0.504210	-0.248280
C199	C	1.842963	-0.462365	-0.298576
H200	H	1.880247	-0.502843	-0.184324
H201	H	1.768985	-0.511989	-0.232497
H202	H	1.870312	-0.526185	-0.293908
H203	H	1.813059	-0.440392	-0.252954
H204	H	1.914394	-0.454583	-0.314349
O205	O	1.740614	-0.832701	-0.310763
C206	C	1.800726	-0.801921	-0.250764
H207	H	1.757105	-0.768497	-0.247035
H208	H	1.881534	-0.796886	-0.289824
C209	C	1.869732	-0.861303	-0.142078
C210	C	1.816151	-0.820251	-0.137490
H211	H	1.879251	-0.872610	-0.072207
H212	H	1.829236	-0.882040	-0.182502
H213	H	1.937066	-0.857101	-0.174632
H214	H	1.748813	-0.824454	-0.104948
H215	H	1.856635	-0.799515	-0.097057
H216	H	1.661830	-0.959792	-0.389521
O217	O	1.672542	-1.048666	-0.378934
C218	C	1.657930	-1.095108	-0.393500
H219	H	1.623050	-1.101509	-0.475619
H220	H	1.601267	-1.108455	-0.330331
C221	C	1.808469	-1.111302	-0.282954
C222	C	1.765637	-1.119164	-0.383818
H223	H	1.874906	-1.126142	-0.276977
H224	H	1.818311	-1.080013	-0.273136
H225	H	1.761239	-1.122425	-0.230324
H226	H	1.812860	-1.108037	-0.436445
H227	H	1.755805	-1.150452	-0.393644
H228	H	1.346328	-0.603282	-0.704255
H229	H	1.729686	-0.603219	-0.321501
