data_functionalizedCrystal
_audit_creation_method	'MofGen! by Chris Wilmer'
_symmetry_space_group_name_H-M	'P1'
_symmetry_Int_Tables_number	1
_symmetry_cell_setting	triclinic
loop_
_symmetry_equiv_pos_as_xyz
  x,y,z
_cell_length_a	17.640112
_cell_length_b	12.645330
_cell_length_c	12.645331
_cell_angle_alpha	90.004032
_cell_angle_beta	78.812412
_cell_angle_gamma	101.237348
loop_
_atom_site_label
_atom_site_type_symbol
_atom_site_fract_x
_atom_site_fract_y
_atom_site_fract_z
Zn1	Zn	1.208287	-0.094183	0.272316
Zn2	Zn	1.708287	0.405817	0.772316
Zn3	Zn	1.208254	-0.271409	0.095058
Zn4	Zn	1.708254	0.228591	0.595058
Zn5	Zn	1.076148	-0.130031	0.130834
Zn6	Zn	1.576148	0.369969	0.630834
Zn7	Zn	1.076102	-0.307297	0.308051
Zn8	Zn	1.576102	0.192703	0.808051
O9	O	1.142198	-0.200730	0.201565
O10	O	1.642198	0.299270	0.701565
O11	O	1.318889	-0.087670	0.218875
O12	O	1.818889	0.412330	0.718875
O13	O	1.190735	-0.252638	-0.048545
O14	O	1.690735	0.247362	0.451455
O15	O	1.093709	0.023081	0.149619
O16	O	1.593709	0.523081	0.649619
O17	O	1.318865	-0.217877	0.088645
O18	O	1.818865	0.282123	0.588645
O19	O	1.190791	0.049418	0.253565
O20	O	1.690791	0.549418	0.753565
O21	O	1.093677	-0.148768	-0.022261
O22	O	1.593677	0.351232	0.477739
O23	O	0.965535	-0.183567	0.184269
O24	O	1.465535	0.316433	0.684269
O25	O	1.093631	-0.279044	0.451659
O26	O	1.593631	0.220956	0.951659
O27	O	0.965501	-0.313804	0.314470
O28	O	1.465501	0.186196	0.814470
O29	O	1.190747	-0.122470	0.425405
O30	O	1.690747	0.377530	0.925405
O31	O	1.190691	-0.424526	0.123295
O32	O	1.690691	0.075474	0.623295
O33	O	1.093599	-0.450893	0.279780
O34	O	1.593599	0.049107	0.779780
C35	C	0.936839	-0.256471	0.257130
C36	C	1.436839	0.243529	0.757130
C37	C	0.848986	-0.280343	0.280926
C38	C	1.348986	0.219657	0.780926
C39	C	0.560025	-0.019360	0.020796
C40	C	1.060025	0.480640	0.520796
C41	C	0.477473	-0.041812	0.043171
C42	C	0.977473	0.458188	0.543171
C43	C	0.477492	-0.177614	0.178515
C44	C	0.977492	0.322386	0.678515
C45	C	0.560046	-0.155169	0.156155
C46	C	1.060046	0.344831	0.656155
C47	C	0.601305	-0.076042	0.077294
C48	C	1.101305	0.423958	0.577294
C49	C	0.601326	-0.211852	0.212653
C50	C	1.101326	0.288148	0.712653
C51	C	0.683872	-0.189412	0.190291
C52	C	1.183872	0.310588	0.690291
C53	C	0.725138	-0.110290	0.111431
C54	C	1.225138	0.389710	0.611431
C55	C	0.683851	-0.053602	0.054932
C56	C	1.183851	0.446398	0.554932
C57	C	0.560065	-0.290984	0.291508
C58	C	1.060065	0.209016	0.791508
C59	C	0.601346	-0.347666	0.348006
C60	C	1.101346	0.152334	0.848006
C61	C	0.683893	-0.325222	0.325650
C62	C	1.183893	0.174778	0.825650
C63	C	0.725159	-0.246100	0.246790
C64	C	1.225159	0.253900	0.746790
C65	C	0.725180	-0.381910	0.382149
C66	C	1.225180	0.118090	0.882149
C67	C	0.807726	-0.359471	0.359787
C68	C	1.307726	0.140529	0.859787
C69	C	0.807705	-0.223661	0.224428
C70	C	1.307705	0.276339	0.724428
C71	C	1.142158	-0.476170	0.201550
C72	C	1.642158	0.023830	0.701550
C73	C	1.142214	-0.593985	0.201560
C74	C	1.642214	-0.093985	0.701560
C75	C	1.203196	-0.744944	0.102976
C76	C	1.703196	-0.244944	0.602976
C77	C	1.203394	-0.622330	0.103123
C78	C	1.703394	-0.122330	0.603123
C79	C	1.164777	-0.632285	0.307196
C80	C	1.664777	-0.132285	0.807196
C81	C	1.165261	-0.754752	0.306630
C82	C	1.665261	-0.254752	0.806630
C83	C	1.058643	-0.783993	0.195616
C84	C	1.558643	-0.283993	0.695616
C85	C	1.059044	-0.661279	0.193001
C86	C	1.559044	-0.161279	0.693001
C87	C	1.348358	-0.144772	0.145783
C88	C	1.848358	0.355228	0.645783
C89	C	1.436212	-0.120926	0.122012
C90	C	1.936212	0.379074	0.622012
C91	C	1.142188	-0.200762	0.478073
C92	C	1.642188	0.299238	0.978073
C93	C	1.142183	-0.200775	0.595904
C94	C	1.642183	0.299225	1.095904
C95	C	1.142259	0.075792	0.201597
C96	C	1.642259	0.575792	0.701597
C97	C	1.142285	0.193629	0.201610
C98	C	1.642285	0.693629	0.701610
C99	C	1.081081	-0.299280	0.657304
C100	C	1.581081	0.200720	1.157304
C101	C	1.080837	-0.299092	0.779930
C102	C	1.580837	0.200908	1.279930
C103	C	1.119866	-0.095010	0.769852
C104	C	1.619866	0.404990	1.269852
C105	C	1.119427	-0.095616	0.647373
C106	C	1.619427	0.404384	1.147373
C107	C	1.225747	-0.206992	0.618471
C108	C	1.725747	0.293008	1.118471
C109	C	1.225295	-0.209567	0.741199
C110	C	1.725295	0.290433	1.241199
C111	C	1.142194	-0.200735	0.926136
C112	C	1.642194	0.299265	1.426136
C113	C	1.142175	-0.200755	0.808311
C114	C	1.642175	0.299245	1.308311
H115	H	1.189280	-0.596126	0.024087
H116	H	1.689280	-0.096126	0.524087
Cl117	Cl	1.098361	-0.605375	0.422205
Cl118	Cl	1.598361	-0.105375	0.922205
H119	H	0.717447	0.010847	-0.009269
H120	H	1.217447	0.510847	0.490731
Cl121	Cl	0.859581	-0.124177	0.125294
Cl122	Cl	1.359581	0.375823	0.625294
Cl123	Cl	0.985196	-0.634103	0.298593
Cl124	Cl	1.485196	-0.134103	0.798593
Cl125	Cl	1.258104	-0.559431	0.320011
Cl126	Cl	1.758104	-0.059431	0.820011
Cl127	Cl	1.299309	-0.104111	0.768440
Cl128	Cl	1.799309	0.395889	1.268440
Cl129	Cl	0.611900	0.080124	-0.078338
Cl130	Cl	1.111900	0.580124	0.421662
H131	H	0.841338	-0.405626	0.405795
H132	H	1.341338	0.094374	0.905795
Cl133	Cl	1.181685	-0.796367	-0.019504
Cl134	Cl	1.681685	-0.296367	0.480496
Cl135	Cl	1.025132	-0.083466	0.628743
Cl136	Cl	1.525132	0.416534	1.128743
Cl137	Cl	0.673301	-0.481401	0.481264
Cl138	Cl	1.173301	0.018599	0.981264
Cl139	Cl	1.299042	-0.550959	0.106482
Cl140	Cl	1.799042	-0.050959	0.606482
H141	H	1.094847	-0.378701	0.624098
H142	H	1.594847	0.121299	1.124098
Cl143	Cl	1.251279	-0.329546	0.779066
Cl144	Cl	1.751279	0.170454	1.279066
Cl145	Cl	1.186464	0.019895	0.796808
Cl146	Cl	1.686464	0.519895	1.296808
H147	H	1.264815	-0.758950	0.105024
H148	H	1.764815	-0.258950	0.605024
Cl149	Cl	1.026603	-0.081912	0.842497
Cl150	Cl	1.526603	0.418088	1.342497
Cl151	Cl	1.185172	0.019707	0.583752
Cl152	Cl	1.685172	0.519707	1.083752
H153	H	1.246111	-0.281613	0.582040
H154	H	1.746111	0.218387	1.082040
Cl155	Cl	0.425616	-0.277098	0.277638
Cl156	Cl	0.925616	0.222902	0.777638
H157	H	0.792352	-0.092024	0.093224
H158	H	1.292352	0.407976	0.593224
Cl159	Cl	0.425580	0.029447	-0.027872
Cl160	Cl	0.925580	0.529447	0.472128
H161	H	1.226399	-0.766674	0.314336
H162	H	1.726399	-0.266674	0.814336
H163	H	1.038119	-0.820543	0.121107
H164	H	1.538119	-0.320543	0.621107
Cl165	Cl	1.099732	-0.818394	0.422075
Cl166	Cl	1.599732	-0.318394	0.922075
Cl167	Cl	1.032769	-0.623587	0.073154
Cl168	Cl	1.532769	-0.123587	0.573154
Cl169	Cl	0.988574	-0.847844	0.306952
Cl170	Cl	1.488574	-0.347844	0.806952
H171	H	1.018915	-0.296739	0.826021
H172	H	1.518915	0.203261	1.326021
Cl173	Cl	1.102334	-0.421236	0.820567
Cl174	Cl	1.602334	0.078764	1.320567
H175	H	1.271267	-0.134967	0.577145
H176	H	1.771267	0.365033	1.077145
Cl177	Cl	0.456291	-0.319207	0.319607
Cl178	Cl	0.956291	0.180793	0.819607
Cl179	Cl	0.549469	-0.447150	0.447130
Cl180	Cl	1.049469	0.052850	0.947130
H181	H	1.019514	-0.297069	0.643160
H182	H	1.519514	0.202931	1.143160
