data_functionalizedCrystal
_audit_creation_method	'MofGen! by Chris Wilmer'
_symmetry_space_group_name_H-M	'P1'
_symmetry_Int_Tables_number	1
_symmetry_cell_setting	triclinic
loop_
_symmetry_equiv_pos_as_xyz
  x,y,z
_cell_length_a	12.594517
_cell_length_b	19.805404
_cell_length_c	19.805398
_cell_angle_alpha	90.029553
_cell_angle_beta	89.983881
_cell_angle_gamma	89.964660
loop_
_atom_site_label
_atom_site_type_symbol
_atom_site_fract_x
_atom_site_fract_y
_atom_site_fract_z
Zn1	Zn	1.627056	0.269500	-0.382707
Zn2	Zn	2.127056	0.769500	0.117293
Zn3	Zn	1.626904	0.382685	-0.269512
Zn4	Zn	2.126904	0.882685	0.230488
Zn5	Zn	1.449079	0.269515	-0.269531
Zn6	Zn	1.949079	0.769515	0.230469
Zn7	Zn	1.448980	0.382652	-0.382658
Zn8	Zn	1.948980	0.882652	0.117342
O9	O	1.538005	0.326088	-0.326102
O10	O	2.038005	0.826088	0.173898
O11	O	1.775982	0.284523	-0.367704
O12	O	2.275982	0.784523	0.132296
O13	O	1.603293	0.367693	-0.174798
O14	O	2.103293	0.867693	0.325202
O15	O	1.472793	0.174796	-0.284573
O16	O	1.972793	0.674796	0.215427
O17	O	1.775870	0.367679	-0.284540
O18	O	2.275870	0.867679	0.215460
O19	O	1.603552	0.174786	-0.367723
O20	O	2.103552	0.674786	0.132277
O21	O	1.472645	0.284547	-0.174812
O22	O	1.972645	0.784547	0.325188
O23	O	1.300120	0.284514	-0.284525
O24	O	1.800120	0.784514	0.215475
O25	O	1.472625	0.367622	-0.477381
O26	O	1.972625	0.867622	0.022619
O27	O	1.300048	0.367636	-0.367639
O28	O	1.800048	0.867636	0.132361
O29	O	1.603456	0.284490	-0.477417
O30	O	2.103456	0.784490	0.022583
O31	O	1.603197	0.477397	-0.284492
O32	O	2.103197	0.977397	0.215508
O33	O	1.472478	0.477373	-0.367620
O34	O	1.972478	0.977373	0.132380
C35	C	1.261464	0.326073	-0.326079
C36	C	1.761464	0.826073	0.173921
C37	C	1.143158	0.326083	-0.326086
C38	C	1.643158	0.826083	0.173914
C39	C	1.537839	0.501944	-0.326063
C40	C	2.037839	1.001944	0.173937
C41	C	1.537866	0.577176	-0.326069
C42	C	2.037866	1.077176	0.173931
C43	C	1.003150	0.280824	-0.280983
C44	C	1.503150	0.780824	0.219017
C45	C	1.074008	0.264340	-0.342750
C46	C	1.574008	0.764340	0.157250
C47	C	1.073873	0.342537	-0.264326
C48	C	1.573873	0.842537	0.235674
C49	C	1.003230	0.309594	-0.387934
C50	C	1.503230	0.809594	0.112066
C51	C	1.003089	0.387819	-0.309469
C52	C	1.503089	0.887819	0.190531
C53	C	1.073915	0.371359	-0.371278
C54	C	1.573915	0.871359	0.128722
C55	C	1.606107	1.038903	-0.369476
C56	C	2.106107	1.538903	0.130524
C57	C	1.606078	0.968214	-0.369462
C58	C	2.106078	1.468214	0.130538
C59	C	1.538039	0.932938	-0.326129
C60	C	2.038039	1.432938	0.173871
C61	C	1.470032	0.968353	-0.282802
C62	C	1.970032	1.468353	0.217198
C63	C	1.470067	1.039040	-0.282813
C64	C	1.970067	1.539040	0.217187
C65	C	1.469888	0.683280	-0.282756
C66	C	1.969888	1.183280	0.217244
C67	C	1.469856	0.612588	-0.282750
C68	C	1.969856	1.112588	0.217250
C69	C	1.605899	0.612454	-0.369405
C70	C	2.105899	1.112454	0.130595
C71	C	1.605935	0.683141	-0.369416
C72	C	2.105935	1.183141	0.130584
C73	C	1.537932	0.718550	-0.326087
C74	C	2.037932	1.218550	0.173913
C75	C	1.537966	0.795199	-0.326102
C76	C	2.037966	1.295199	0.173898
C77	C	1.537998	0.856291	-0.326117
C78	C	2.037998	1.356291	0.173883
C79	C	1.815626	0.326103	-0.326125
C80	C	2.315626	0.826103	0.173875
C81	C	1.933931	0.326110	-0.326135
C82	C	2.433931	0.826110	0.173865
C83	C	1.538047	0.326050	-0.502645
C84	C	2.038047	0.826050	-0.002645
C85	C	1.538064	0.326034	-0.577877
C86	C	2.038064	0.826034	-0.077877
C87	C	1.538155	1.149545	-0.326149
C88	C	2.038155	1.649545	0.173851
C89	C	1.538103	1.074313	-0.326154
C90	C	2.038103	1.574313	0.173846
C91	C	1.606317	0.282628	-1.039688
C92	C	2.106317	0.782628	-0.539688
C93	C	1.606300	0.282649	-0.968999
C94	C	2.106300	0.782649	-0.468999
C95	C	1.538174	0.325940	-0.933639
C96	C	2.038174	0.825940	-0.433639
C97	C	1.470067	0.369219	-0.968970
C98	C	1.970067	0.869219	-0.468970
C99	C	1.470090	0.369201	-1.039657
C100	C	1.970090	0.869201	-0.539657
C101	C	1.469975	0.369292	-0.683897
C102	C	1.969975	0.869292	-0.183897
C103	C	1.469955	0.369305	-0.613205
C104	C	1.969955	0.869305	-0.113205
C105	C	1.606185	0.282740	-0.613239
C106	C	2.106185	0.782740	-0.113239
C107	C	1.606207	0.282722	-0.683926
C108	C	2.106207	0.782722	-0.183926
C109	C	1.538105	0.326003	-0.719251
C110	C	2.038105	0.826003	-0.219251
C111	C	1.538126	0.325981	-0.795900
C112	C	2.038126	0.825981	-0.295900
C113	C	1.538147	0.325959	-0.856992
C114	C	2.038147	0.825959	-0.356992
C115	C	1.538025	0.326076	-0.150246
C116	C	2.038025	0.826076	0.349754
C117	C	1.538213	0.325902	-0.075014
C118	C	2.038213	0.825902	0.424986
H119	H	1.105138	0.212140	-0.356837
H120	H	1.605138	0.712140	0.143163
H121	H	1.414448	0.583867	-0.247461
H122	H	1.914448	1.083867	0.252539
N123	N	0.964141	0.232762	-0.233178
N124	N	1.464141	0.732762	0.266822
N125	N	0.866376	0.225414	-0.225193
N126	N	1.366376	0.725414	0.274807
H127	H	0.838821	0.191469	-0.191434
H128	H	1.338821	0.691469	0.308566
N129	N	1.400432	0.413496	-0.719995
N130	N	1.900432	0.913496	-0.219995
N131	N	1.437864	0.456614	-0.759429
N132	N	1.937864	0.956614	-0.259429
H133	H	1.388751	0.487834	-0.784931
H134	H	1.888751	0.987834	-0.284931
H135	H	1.414691	1.067871	-0.247536
H136	H	1.914691	1.567871	0.252464
N137	N	1.675626	1.074933	-0.413730
N138	N	2.175626	1.574933	0.086270
N139	N	1.743498	1.114350	-0.389959
N140	N	2.243498	1.614350	0.110041
H141	H	1.792602	1.139795	-0.421213
H142	H	2.292602	1.639795	0.078787
H143	H	1.661453	0.939383	-0.404737
H144	H	2.161453	1.439383	0.095263
N145	N	1.675903	0.238394	-1.075794
N146	N	2.175903	0.738394	-0.575794
N147	N	1.736703	0.199760	-1.044241
N148	N	2.236703	0.699760	-0.544241
H149	H	1.785852	0.168518	-1.069739
H150	H	2.285852	0.668518	-0.569739
H151	H	1.661759	0.247413	-0.940240
H152	H	2.161759	0.747413	-0.440240
H153	H	0.972328	0.295628	-0.440199
H154	H	1.472328	0.795628	0.059801
N155	N	1.675434	0.719164	-0.413689
N156	N	2.175434	1.219164	0.086311
N157	N	1.736149	0.687538	-0.452367
N158	N	2.236149	1.187538	0.047633
H159	H	1.785238	0.712978	-0.483635
H160	H	2.285238	1.212978	0.016365
H161	H	1.661274	0.583616	-0.404684
H162	H	2.161274	1.083616	0.095316
N163	N	1.400529	0.413403	-1.075751
N164	N	1.900529	0.913403	-0.575751
N165	N	1.437938	0.456528	-1.115185
N166	N	1.937938	0.956528	-0.615185
H167	H	1.388809	0.487749	-1.140675
H168	H	1.888809	0.987749	-0.640675
H169	H	1.414636	0.939627	-0.247516
H170	H	1.914636	1.439627	0.252484
N171	N	1.400397	0.719433	-0.238510
N172	N	1.900397	1.219433	0.261490
N173	N	1.339636	0.687926	-0.199837
N174	N	1.839636	1.187926	0.300163
H175	H	1.290544	0.713461	-0.168591
H176	H	1.790544	1.213461	0.331409
N177	N	0.963970	0.453283	-0.291800
N178	N	1.463970	0.953283	0.208200
N179	N	0.987909	0.503372	-0.327015
N180	N	1.487909	1.003372	0.172985
H181	H	0.960278	0.549607	-0.314531
H182	H	1.460278	1.049607	0.185469
H183	H	1.661679	0.247467	-0.712713
H184	H	2.161679	0.747467	-0.212713
N185	N	1.675745	0.238532	-0.577143
N186	N	2.175745	0.738532	-0.077143
N187	N	1.675720	0.238551	-0.514031
N188	N	2.175720	0.738551	-0.014031
H189	H	1.724842	0.207328	-0.488538
H190	H	2.224842	0.707328	0.011462
H191	H	1.414471	0.404558	-0.584416
H192	H	1.914471	0.904558	-0.084416
H193	H	1.414602	0.404471	-0.940174
H194	H	1.914602	0.904471	-0.440174
N195	N	1.112639	0.419386	-0.419210
N196	N	1.612639	0.919386	0.080790
N197	N	1.089796	0.413273	-0.480322
N198	N	1.589796	0.913273	0.019678
H199	H	1.117146	0.447190	-0.514176
H200	H	1.617146	0.947190	-0.014176
N201	N	1.112818	0.359967	-0.198779
N202	N	1.612818	0.859967	0.301221
N203	N	1.090127	0.323979	-0.149001
N204	N	1.590127	0.823979	0.350999
H205	H	1.117635	0.336281	-0.102708
H206	H	1.617635	0.836281	0.397292
