data_functionalizedCrystal
_audit_creation_method	'MofGen! by Chris Wilmer'
_symmetry_space_group_name_H-M	'P1'
_symmetry_Int_Tables_number	1
_symmetry_cell_setting	triclinic
loop_
_symmetry_equiv_pos_as_xyz
  x,y,z
_cell_length_a	10.489741
_cell_length_b	9.065218
_cell_length_c	8.140239
_cell_angle_alpha	90.001686
_cell_angle_beta	89.995291
_cell_angle_gamma	95.222470
loop_
_atom_site_label
_atom_site_type_symbol
_atom_site_fract_x
_atom_site_fract_y
_atom_site_fract_z
O1	O	1.694802	-0.208165	-0.136683
O2	O	1.323677	-0.227705	-0.136669
O3	O	1.516911	-0.003256	-0.136673
O4	O	1.501569	-0.432615	-0.136679
O5	O	1.516900	-0.003253	0.136554
O6	O	1.323666	-0.227702	0.136558
O7	O	1.694792	-0.208163	0.136544
Zn8	Zn	1.509227	-0.217932	0.179932
Zn9	Zn	1.509242	-0.217935	-0.180056
O10	O	1.501558	-0.432612	0.136548
C11	C	1.515431	0.051725	-0.000062
C12	C	1.511022	0.215547	-0.000069
C13	C	1.276135	-0.226228	-0.000053
C14	C	1.134489	-0.221813	-0.000048
C15	C	1.742334	-0.209640	-0.000075
C16	C	1.883979	-0.214055	-0.000091
C17	C	1.952635	-0.356866	-0.000075
C18	C	2.044524	-0.289405	-0.134784
C19	C	2.044479	-0.289368	0.134597
C20	C	1.974002	-0.146535	-0.134911
C21	C	1.973948	-0.146518	0.134591
C22	C	2.065809	-0.078954	-0.000150
C23	C	1.503038	-0.487593	-0.000066
C24	C	1.507447	-0.651414	-0.000069
N25	N	1.509227	-0.217929	0.425615
N26	N	1.509252	-0.217927	-0.425739
H27	H	2.075767	-0.349835	-0.248670
O28	O	2.081903	-0.361486	0.270351
C29	C	2.216146	-0.363453	0.269277
H30	H	2.253021	-0.349212	0.137973
H31	H	2.261213	-0.269070	0.348680
C32	C	2.206806	-0.529827	0.499483
C33	C	2.252095	-0.512348	0.338211
H34	H	2.228984	-0.621668	0.542012
H35	H	2.116364	-0.528498	0.500212
H36	H	2.244366	-0.451165	0.565632
H37	H	2.214523	-0.590998	0.272062
H38	H	2.342532	-0.513693	0.337473
O39	O	1.936362	-0.074365	0.270235
C40	C	1.995949	0.071460	0.271666
H41	H	2.086956	0.076796	0.194516
H42	H	1.927857	0.150075	0.218274
C43	C	1.918310	0.110796	0.544324
C44	C	2.030092	0.117346	0.449580
H45	H	1.939366	0.139105	0.654070
H46	H	1.878161	0.012553	0.543359
H47	H	1.861577	0.176308	0.499812
H48	H	2.086815	0.051822	0.494080
H49	H	2.070251	0.215580	0.450556
H50	H	1.903411	-0.474285	-0.000213
H51	H	1.942960	-0.086166	-0.248933
H52	H	2.114800	0.038574	-0.000214
