data_functionalizedCrystal
_audit_creation_method	'MofGen! by Chris Wilmer'
_symmetry_space_group_name_H-M	'P1'
_symmetry_Int_Tables_number	1
_symmetry_cell_setting	triclinic
loop_
_symmetry_equiv_pos_as_xyz
  x,y,z
_cell_length_a	14.853576
_cell_length_b	14.853567
_cell_length_c	15.186229
_cell_angle_alpha	89.999614
_cell_angle_beta	89.997313
_cell_angle_gamma	83.636707
loop_
_atom_site_label
_atom_site_type_symbol
_atom_site_fract_x
_atom_site_fract_y
_atom_site_fract_z
O1	O	0.117703	1.196367	-0.073166
O2	O	0.131724	0.933908	-0.073181
O3	O	-0.006516	1.072144	-0.073169
O4	O	0.255942	1.058131	-0.073177
O5	O	-0.006518	1.072135	0.073288
O6	O	0.131722	0.933899	0.073277
O7	O	0.117701	1.196358	0.073292
Zn8	Zn	0.124711	1.065127	0.096537
Zn9	Zn	0.124714	1.065139	-0.096426
O10	O	0.255940	1.058122	0.073280
C11	C	0.131088	0.900315	0.000046
C12	C	0.129184	0.800231	0.000040
C13	C	0.039018	0.387694	0.000063
C14	C	0.203251	0.366418	0.000057
C15	C	0.205041	0.460452	0.000054
C16	C	0.123818	0.518112	0.000054
C17	C	0.040806	0.481737	0.000057
C18	C	0.288052	0.496834	0.000042
C19	C	0.289845	0.590873	0.000039
C20	C	0.208622	0.648534	0.000045
C21	C	0.125606	0.612154	0.000049
C22	C	0.044384	0.669814	0.000049
C23	C	-0.038633	0.633436	0.000059
C24	C	-0.040417	0.539398	0.000064
C25	C	0.210406	0.742572	0.000040
C26	C	0.046171	0.763856	0.000043
C27	C	-0.040106	1.071503	0.000058
C28	C	-0.140189	1.069596	0.000055
C29	C	-0.187203	1.068704	-0.079783
C30	C	-0.187218	1.068704	0.079891
C31	C	-0.281252	1.066917	0.079891
C32	C	-0.328266	1.066025	0.000053
C33	C	-0.281246	1.066920	-0.079785
C34	C	-0.328281	1.066032	0.159727
C35	C	-0.422321	1.064246	0.159730
C36	C	-0.469336	1.063347	0.079892
C37	C	-0.422309	1.064241	0.000050
C38	C	-0.469323	1.063348	-0.079788
C39	C	-0.422298	1.064236	-0.159630
C40	C	-0.328261	1.066021	-0.159624
C41	C	-0.563373	1.061562	0.079886
C42	C	-0.563366	1.061564	-0.079790
C43	C	0.289530	1.058763	0.000051
C44	C	0.389613	1.060670	0.000048
N45	N	0.124709	1.065125	0.228230
C46	C	0.118337	1.229951	0.000063
C47	C	0.120241	1.330035	0.000063
N48	N	0.124709	1.065148	-0.228119
C49	C	0.063517	1.126357	0.453958
C50	C	0.063515	1.126360	0.546148
C51	C	0.185904	1.003909	0.546147
C52	C	0.185901	1.003903	0.453959
C53	C	0.124708	1.065132	0.407867
C54	C	0.124709	1.065141	0.592244
C55	C	0.124707	1.065144	0.692200
C56	C	0.124709	1.065128	0.307904
H57	H	-0.104764	0.680394	0.000053
O58	O	-0.136492	1.069655	-0.165897
H59	H	-0.101602	1.131866	-0.169726
H60	H	0.013686	1.176214	0.583672
O61	O	0.299932	0.781813	0.000035
H62	H	0.356110	0.725920	0.000040
H63	H	-0.148935	1.069438	0.144891
O64	O	-0.473007	1.063269	-0.245741
H65	H	-0.546296	1.061876	-0.232323
O66	O	0.251909	0.937884	0.595866
H67	H	0.322207	0.949461	0.578155
H68	H	-0.289965	1.066746	-0.224627
H69	H	0.235731	0.954042	0.416429
O70	O	-0.041434	0.826047	0.000050
H71	H	-0.081154	0.813102	-0.059641
H72	H	-0.289996	1.066765	0.224727
H73	H	-0.108005	0.509770	0.000093
O74	O	-0.473039	1.063278	0.245839
H75	H	-0.424547	1.064192	0.301355
O76	O	0.290853	0.304236	0.000066
H77	H	0.275663	0.232735	0.000078
O78	O	-0.614065	1.060582	-0.165906
H79	H	-0.603971	1.122318	-0.204198
O80	O	-0.614096	1.060603	0.165989
H81	H	-0.565606	1.061521	0.221505
O82	O	-0.002490	1.192383	0.404240
H83	H	-0.045047	1.234949	0.451782
H84	H	-0.028572	0.358071	0.000075
H85	H	0.357442	0.620483	0.000030
O86	O	0.375653	0.434650	0.000054
H87	H	0.360461	0.363149	0.000075
