data_functionalizedCrystal
_audit_creation_method	'MofGen! by Chris Wilmer'
_symmetry_space_group_name_H-M	'P1'
_symmetry_Int_Tables_number	1
_symmetry_cell_setting	triclinic
loop_
_symmetry_equiv_pos_as_xyz
  x,y,z
_cell_length_a	16.959455
_cell_length_b	16.625539
_cell_length_c	16.959454
_cell_angle_alpha	90.023052
_cell_angle_beta	89.982978
_cell_angle_gamma	89.984051
loop_
_atom_site_label
_atom_site_type_symbol
_atom_site_fract_x
_atom_site_fract_y
_atom_site_fract_z
Zn1	Zn	1.208396	-0.455904	0.314759
Zn2	Zn	1.708396	0.044096	0.814759
Zn3	Zn	1.208315	-0.321080	0.446943
Zn4	Zn	1.708315	0.178920	0.946943
Zn5	Zn	1.076221	-0.321088	0.314775
Zn6	Zn	1.576221	0.178912	0.814775
Zn7	Zn	1.076190	-0.455872	0.446892
Zn8	Zn	1.576190	0.044128	0.946892
O9	O	1.142281	-0.388486	0.380842
O10	O	1.642281	0.111514	0.880842
O11	O	1.318997	-0.438030	0.332308
O12	O	1.818997	0.061970	0.832308
O13	O	1.190772	-0.208248	0.429439
O14	O	1.690772	0.291752	0.929439
O15	O	1.093802	-0.338988	0.204162
O16	O	1.593802	0.161012	0.704162
O17	O	1.318937	-0.338975	0.429423
O18	O	1.818937	0.161025	0.929423
O19	O	1.190910	-0.438038	0.204150
O20	O	1.690910	0.061962	0.704150
O21	O	1.093723	-0.208254	0.332336
O22	O	1.593723	0.291746	0.832336
O23	O	0.965606	-0.338957	0.332287
O24	O	1.465606	0.161043	0.832287
O25	O	1.093748	-0.568709	0.429337
O26	O	1.593748	-0.068709	0.929337
O27	O	0.965583	-0.437982	0.429352
O28	O	1.465583	0.062018	0.929352
O29	O	1.190880	-0.568733	0.332259
O30	O	1.690880	-0.068733	0.832259
O31	O	1.190741	-0.338943	0.557547
O32	O	1.690741	0.161057	1.057547
O33	O	1.093669	-0.437975	0.557510
O34	O	1.593669	0.062025	1.057510
C35	C	0.936914	-0.388468	0.380816
C36	C	1.436914	0.111532	0.880816
C37	C	0.849058	-0.388479	0.380824
C38	C	1.349058	0.111521	0.880824
C39	C	0.477570	-0.337031	0.330259
C40	C	0.977570	0.162969	0.830259
C41	C	0.477594	-0.439987	0.431491
C42	C	0.977594	0.060013	0.931491
C43	C	0.560140	-0.439982	0.431480
C44	C	1.060140	0.060018	0.931480
C45	C	0.601405	-0.388500	0.380858
C46	C	1.101405	0.111500	0.880858
C47	C	0.560123	-0.337023	0.330248
C48	C	1.060123	0.162977	0.830248
C49	C	0.601428	-0.491453	0.482095
C50	C	1.101428	0.008547	0.982095
C51	C	0.683979	-0.491449	0.482086
C52	C	1.183979	0.008551	0.982086
C53	C	0.725245	-0.439970	0.431460
C54	C	1.225245	0.060030	0.931460
C55	C	0.683958	-0.388492	0.380847
C56	C	1.183958	0.111508	0.880847
C57	C	0.725223	-0.337010	0.330225
C58	C	1.225223	0.162990	0.830225
C59	C	0.683938	-0.285534	0.279607
C60	C	1.183938	0.214466	0.779607
C61	C	0.601389	-0.285544	0.279621
C62	C	1.101389	0.214456	0.779621
C63	C	0.807793	-0.439961	0.431446
C64	C	1.307793	0.060039	0.931446
C65	C	0.807776	-0.337001	0.330214
C66	C	1.307776	0.162999	0.830214
C67	C	1.142319	-0.598795	0.380790
C68	C	1.642319	-0.098795	0.880790
C69	C	1.142336	-0.688416	0.380768
C70	C	1.642336	-0.188416	0.880768
C71	C	1.142349	-0.761199	0.380751
C72	C	1.642349	-0.261199	0.880751
C73	C	1.142367	-0.852507	0.380721
C74	C	1.642367	-0.352507	0.880721
C75	C	1.142386	-0.925284	0.380693
C76	C	1.642386	-0.425284	0.880693
C77	C	1.142405	-1.016598	0.380665
C78	C	1.642405	-0.516598	0.880665
C79	C	1.348449	-0.388505	0.380869
C80	C	1.848449	0.111495	0.880869
C81	C	1.436305	-0.388513	0.380881
C82	C	1.936305	0.111487	0.880881
C83	C	1.142214	-0.388472	0.586209
C84	C	1.642214	0.111528	1.086209
C85	C	1.142258	-0.388493	0.674065
C86	C	1.642258	0.111507	1.174065
C87	C	1.142287	-0.178995	0.380837
C88	C	1.642287	0.321005	0.880837
C89	C	1.142424	-0.089374	0.380637
C90	C	1.642424	0.410626	0.880637
C91	C	1.142369	-0.388517	0.174674
C92	C	1.642369	0.111483	0.674674
C93	C	1.142406	-0.388531	0.086818
C94	C	1.642406	0.111469	0.586818
C95	C	1.091808	-0.440046	1.045551
C96	C	1.591808	0.059954	1.545551
C97	C	1.192973	-0.337008	1.045530
C98	C	1.692973	0.162992	1.545530
C99	C	1.192945	-0.337001	0.962984
C100	C	1.692945	0.162999	1.462984
C101	C	1.142348	-0.388516	0.921718
C102	C	1.642348	0.111484	1.421718
C103	C	1.091778	-0.440039	0.962998
C104	C	1.591778	0.059961	1.462998
C105	C	1.243509	-0.285473	0.921698
C106	C	1.743509	0.214527	1.421698
C107	C	1.243482	-0.285463	0.839148
C108	C	1.743482	0.214537	1.339148
C109	C	1.192888	-0.336983	0.797880
C110	C	1.692888	0.163017	1.297880
C111	C	1.142317	-0.388508	0.839165
C112	C	1.642317	0.111492	1.339165
C113	C	1.091719	-0.440024	0.797899
C114	C	1.591719	0.059976	1.297899
C115	C	1.041151	-0.491554	0.839182
C116	C	1.541151	0.008446	1.339182
C117	C	1.041183	-0.491559	0.921730
C118	C	1.541183	0.008441	1.421730
C119	C	1.192856	-0.336978	0.715331
C120	C	1.692856	0.163022	1.215331
C121	C	1.091688	-0.440016	0.715345
C122	C	1.591688	0.059984	1.215345
H123	H	0.841368	-0.295083	0.288986
H124	H	1.341368	0.204917	0.788986
N125	N	0.556913	-0.546976	0.536681
N126	N	1.056913	-0.046976	1.036681
H127	H	0.571303	-0.604606	0.524476
H128	H	1.071303	-0.104606	1.024476
H129	H	0.571270	-0.534290	0.593122
H130	H	1.071270	-0.034290	1.093122
H131	H	1.050488	-0.481969	0.681751
H132	H	1.550488	0.018031	1.181751
N133	N	0.433044	-0.281502	0.275681
N134	N	0.933044	0.218498	0.775681
H135	H	0.398807	-0.314327	0.239094
H136	H	0.898807	0.185673	0.739094
H137	H	0.398826	-0.244102	0.307830
H138	H	0.898826	0.255898	0.807830
N139	N	0.728456	-0.230014	0.225010
N140	N	1.228456	0.269986	0.725010
H141	H	0.714111	-0.242639	0.168551
H142	H	1.214111	0.257361	0.668551
H143	H	0.714053	-0.172404	0.237276
H144	H	1.214053	0.327596	0.737276
H145	H	1.284697	-0.243526	0.955303
H146	H	1.784697	0.256474	1.455303
H147	H	1.234024	-0.295019	0.681722
H148	H	1.734024	0.204981	1.181722
H149	H	1.234162	-0.295062	1.079134
H150	H	1.734162	0.204938	1.579134
N151	N	0.556862	-0.230003	0.225056
N152	N	1.056862	0.269997	0.725056
H153	H	0.498307	-0.237811	0.232756
H154	H	0.998307	0.262189	0.732756
H155	H	0.571283	-0.172405	0.237308
H156	H	1.071283	0.327595	0.737308
H157	H	0.443992	-0.481897	0.472710
H158	H	0.943992	0.018103	0.972710
H159	H	1.284658	-0.243505	0.805540
H160	H	1.784658	0.256495	1.305540
H161	H	0.717586	-0.533364	0.523302
H162	H	1.217586	-0.033364	1.023302
H163	H	0.841404	-0.481869	0.472660
H164	H	1.341404	0.018131	0.972660
N165	N	0.986571	-0.547108	0.794671
N166	N	1.486571	-0.047108	1.294671
H167	H	0.994225	-0.539276	0.736113
H168	H	1.494225	-0.039276	1.236113
H169	H	0.998842	-0.604709	0.809054
H170	H	1.498842	-0.104709	1.309054
N171	N	0.986643	-0.547130	0.966256
N172	N	1.486643	-0.047130	1.466256
H173	H	0.994338	-0.539312	1.024811
H174	H	1.494338	-0.039312	1.524811
H175	H	0.930195	-0.534523	0.951867
H176	H	1.430195	-0.034523	1.451867
N177	N	1.037271	-0.495625	1.090071
N178	N	1.537271	0.004375	1.590071
H179	H	1.044966	-0.487818	1.148628
H180	H	1.544966	0.012182	1.648628
H181	H	0.980822	-0.483020	1.075686
H182	H	1.480822	0.016980	1.575686
