data_functionalizedCrystal
_audit_creation_method	'MofGen! by Chris Wilmer'
_symmetry_space_group_name_H-M	'P1'
_symmetry_Int_Tables_number	1
_symmetry_cell_setting	triclinic
loop_
_symmetry_equiv_pos_as_xyz
  x,y,z
_cell_length_a	17.699104
_cell_length_b	17.699083
_cell_length_c	8.140239
_cell_angle_alpha	89.995596
_cell_angle_beta	89.996394
_cell_angle_gamma	83.287266
loop_
_atom_site_label
_atom_site_type_symbol
_atom_site_fract_x
_atom_site_fract_y
_atom_site_fract_z
O1	O	1.004064	0.095785	-0.136650
O2	O	0.783688	0.108221	-0.136646
O3	O	0.900102	-0.008186	-0.136634
O4	O	0.887650	0.212192	-0.136662
O5	O	0.900096	-0.008187	0.136593
O6	O	0.783681	0.108220	0.136581
O7	O	1.004058	0.095784	0.136577
Zn8	Zn	0.893869	0.102002	0.179960
Zn9	Zn	0.893877	0.102003	-0.180029
O10	O	0.887643	0.212191	0.136565
C11	C	0.755488	0.107772	-0.000032
C12	C	0.671471	0.106427	-0.000030
C13	C	0.899653	-0.036383	-0.000020
C14	C	0.898314	-0.120402	-0.000019
C15	C	0.146600	0.167171	-0.000056
C16	C	0.225543	0.168430	-0.000060
C17	C	0.274161	0.100095	-0.000051
C18	C	0.243831	0.030496	-0.000054
C19	C	0.164889	0.029238	-0.000061
C20	C	0.562197	0.035569	-0.000028
C21	C	0.641144	0.036833	-0.000016
C22	C	0.622852	0.174762	-0.000028
C23	C	0.543909	0.173503	-0.000035
C24	C	0.513587	0.103905	-0.000046
C25	C	0.427987	0.102541	-0.000044
C26	C	0.359759	0.101459	-0.000042
C27	C	0.966647	-0.169017	-0.000018
C28	C	0.965385	-0.247961	-0.000033
C29	C	0.895789	-0.278287	-0.000037
C30	C	0.827451	-0.229665	-0.000043
C31	C	0.828714	-0.150723	-0.000040
C32	C	0.822356	-0.548028	-0.000056
C33	C	0.821098	-0.626976	-0.000054
C34	C	0.959026	-0.645266	-0.000049
C35	C	0.960289	-0.566324	-0.000046
C36	C	0.891952	-0.517709	-0.000061
C37	C	0.893321	-0.432110	-0.000048
C38	C	0.894419	-0.363885	-0.000037
C39	C	1.032258	0.096233	-0.000041
C40	C	1.116275	0.097578	-0.000053
C41	C	0.888093	0.240388	-0.000053
C42	C	0.889431	0.324406	-0.000064
N43	N	0.893868	0.102000	0.425642
N44	N	0.893883	0.101999	-0.425711
H45	H	0.107020	0.222818	-0.000051
H46	H	0.773070	-0.111140	-0.000041
C47	C	1.040551	-0.301435	-0.000014
H48	H	1.082180	-0.272068	0.000012
H49	H	1.042935	-0.332609	-0.095294
H50	H	1.042917	-0.332612	0.095279
C51	C	0.258898	0.244983	-0.000042
H52	H	0.218637	0.285500	-0.000024
H53	H	0.289318	0.248350	-0.095317
H54	H	0.289307	0.248333	0.095255
C55	C	0.490434	0.248672	-0.000053
H56	H	0.519802	0.290301	-0.000072
H57	H	0.459251	0.251050	0.095220
H58	H	0.459267	0.251043	-0.095353
C59	C	1.043201	-0.135662	-0.000008
H60	H	1.034169	-0.081684	0.000009
H61	H	1.071335	-0.152354	-0.095287
H62	H	1.071326	-0.152363	0.095286
C63	C	1.036844	-0.532969	-0.000049
H64	H	1.077361	-0.573231	-0.000066
H65	H	1.040204	-0.502556	0.095229
H66	H	1.040202	-0.502553	-0.095344
C67	C	0.528851	-0.040985	-0.000012
H68	H	0.569114	-0.081500	0.000017
H69	H	0.498440	-0.044350	-0.095292
H70	H	0.498434	-0.044341	0.095281
H71	H	1.014670	-0.684858	-0.000045
C72	C	0.297305	-0.044673	-0.000058
H73	H	0.267936	-0.086301	-0.000076
H74	H	0.328479	-0.047055	0.095222
H75	H	0.328482	-0.047044	-0.095351
C76	C	0.131531	-0.047315	-0.000053
H77	H	0.171791	-0.087833	-0.000032
H78	H	0.101121	-0.050671	-0.095336
H79	H	0.101112	-0.050673	0.095236
C80	C	0.744539	-0.660333	-0.000080
H81	H	0.704020	-0.620074	-0.000107
H82	H	0.741172	-0.690752	0.095197
H83	H	0.741193	-0.690745	-0.095375
C84	C	0.747188	-0.494562	-0.000043
H85	H	0.705560	-0.523931	-0.000023
H86	H	0.744808	-0.463380	-0.095319
H87	H	0.744814	-0.463393	0.095254
C88	C	0.750897	-0.263021	-0.000042
H89	H	0.759930	-0.316999	-0.000026
H90	H	0.722767	-0.246323	-0.095320
H91	H	0.722768	-0.246327	0.095252
H92	H	0.647550	0.231432	-0.000026
H93	H	0.680728	-0.018817	-0.000013
