data_functionalizedCrystal
_audit_creation_method	'MofGen! by Chris Wilmer'
_symmetry_space_group_name_H-M	'P1'
_symmetry_Int_Tables_number	1
_symmetry_cell_setting	triclinic
loop_
_symmetry_equiv_pos_as_xyz
  x,y,z
_cell_length_a	10.489741
_cell_length_b	17.038272
_cell_length_c	9.565339
_cell_angle_alpha	89.999972
_cell_angle_beta	89.999100
_cell_angle_gamma	87.825365
loop_
_atom_site_label
_atom_site_type_symbol
_atom_site_fract_x
_atom_site_fract_y
_atom_site_fract_z
O1	O	1.704376	0.110370	-0.116175
O2	O	1.334150	0.120730	-0.116197
O3	O	1.517063	0.001722	-0.116175
O4	O	1.521463	0.229378	-0.116197
O5	O	1.517048	0.001729	0.116345
O6	O	1.334135	0.120738	0.116323
O7	O	1.704362	0.110377	0.116345
Zn8	Zn	1.519246	0.115558	0.153252
Zn9	Zn	1.519265	0.115549	-0.153103
O10	O	1.521449	0.229385	0.116324
C11	C	1.286537	0.119951	0.000061
C12	C	1.144689	0.117610	0.000053
C13	C	1.513053	-0.027426	0.000085
C14	C	1.501111	-0.114288	0.000084
C15	C	1.069466	0.041889	0.000073
C16	C	0.980692	0.077655	-0.114572
C17	C	0.980714	0.077680	0.114675
C18	C	1.057783	0.153408	-0.114687
C19	C	1.057813	0.153423	0.114662
C20	C	0.969072	0.189244	-0.000011
C21	C	1.610749	-0.163767	0.000092
C22	C	1.599521	-0.245383	0.000078
C23	C	1.478654	-0.277518	0.000066
C24	C	1.369007	-0.228032	0.000054
C25	C	1.380237	-0.146418	0.000058
C26	C	1.438983	-0.523505	0.000044
C27	C	1.427762	-0.605126	0.000045
C28	C	1.658277	-0.622471	0.000066
C29	C	1.669495	-0.540855	0.000078
C30	C	1.559849	-0.491376	0.000059
C31	C	1.467174	-0.360942	0.000056
C32	C	1.571330	-0.407954	0.000059
C33	C	1.751974	0.111156	0.000085
C34	C	1.893822	0.113497	0.000084
C35	C	1.525458	0.258533	0.000061
C36	C	1.537400	0.345395	0.000053
N37	N	1.519242	0.115565	0.362331
N38	N	1.519279	0.115536	-0.362183
C39	C	1.434621	0.170584	0.453524
C40	C	1.551599	0.186413	0.546708
C41	C	1.402315	0.099741	0.546703
C42	C	1.636281	0.131430	0.453464
C43	C	1.486918	0.044727	0.453450
C44	C	1.603976	0.060527	0.546592
H45	H	0.946687	0.045613	-0.211492
H46	H	1.368763	-0.387115	0.000050
H47	H	1.363135	0.217155	0.412661
H48	H	1.578964	0.246307	0.587671
O49	O	1.767326	0.149242	0.399461
H50	H	1.766268	0.149145	0.283429
H51	H	1.113334	-0.020359	-0.000064
O52	O	1.698886	-0.001121	0.600411
H53	H	1.795828	0.012193	0.562869
O54	O	1.450635	-0.034583	0.399127
H55	H	1.353473	-0.047573	0.436400
H56	H	1.329333	-0.631286	0.000058
H57	H	1.091612	0.185419	-0.211720
H58	H	1.709172	-0.137610	0.000110
H59	H	0.925476	0.251558	-0.000079
H60	H	1.091847	0.185439	0.211587
O61	O	1.717772	-0.298753	0.000110
H62	H	1.803704	-0.262696	0.000144
O63	O	0.935707	0.035239	0.243076
H64	H	0.976157	-0.025910	0.242830
O65	O	1.320729	-0.470142	0.000031
H66	H	1.320333	-0.432539	0.094796
H67	H	1.747544	-0.662765	0.000079
O68	O	1.271318	0.082018	0.600957
H69	H	1.201248	0.127782	0.563668
O70	O	1.799859	-0.506194	0.000057
H71	H	1.874214	-0.554313	0.000039
H72	H	1.290957	-0.106132	0.000051
H73	H	1.669740	-0.381786	0.000038
O74	O	1.238638	-0.262685	0.000056
H75	H	1.249247	-0.327749	0.000075
