data_functionalizedCrystal
_audit_creation_method	'MofGen! by Chris Wilmer'
_symmetry_space_group_name_H-M	'P1'
_symmetry_Int_Tables_number	1
_symmetry_cell_setting	triclinic
loop_
_symmetry_equiv_pos_as_xyz
  x,y,z
_cell_length_a	15.944545
_cell_length_b	14.421503
_cell_length_c	14.044220
_cell_angle_alpha	89.996304
_cell_angle_beta	88.342525
_cell_angle_gamma	90.004847
loop_
_atom_site_label
_atom_site_type_symbol
_atom_site_fract_x
_atom_site_fract_y
_atom_site_fract_z
O1	O	1.123683	0.077054	0.122209
O2	O	1.373683	0.327054	0.372209
O3	O	1.623683	0.577054	0.622209
O4	O	1.873683	0.827054	0.872209
O5	O	0.880262	0.077069	0.137287
O6	O	1.130262	0.327069	0.387287
O7	O	1.380262	0.577069	0.637287
O8	O	1.630262	0.827069	0.887287
O9	O	0.998319	0.077053	-0.008236
O10	O	1.248319	0.327053	0.241764
O11	O	1.498319	0.577053	0.491764
O12	O	1.748319	0.827053	0.741764
O13	O	1.005626	0.077070	0.267733
O14	O	1.255626	0.327070	0.517733
O15	O	1.505626	0.577070	0.767733
O16	O	1.755626	0.827070	1.017733
O17	O	0.998299	-0.077171	-0.008215
O18	O	1.248299	0.172829	0.241785
O19	O	1.498299	0.422829	0.491785
O20	O	1.748299	0.672829	0.741785
O21	O	0.880242	-0.077154	0.137309
O22	O	1.130242	0.172846	0.387309
O23	O	1.380242	0.422846	0.637309
O24	O	1.630242	0.672846	0.887309
O25	O	1.123663	-0.077170	0.122231
O26	O	1.373663	0.172830	0.372231
O27	O	1.623663	0.422830	0.622231
O28	O	1.873663	0.672830	0.872231
Cu29	Cu	1.001951	-0.091244	0.129772
Cu30	Cu	1.251951	0.158756	0.379772
Cu31	Cu	1.501951	0.408756	0.629772
Cu32	Cu	1.751951	0.658756	0.879772
Cu33	Cu	1.001974	0.091143	0.129746
Cu34	Cu	1.251974	0.341143	0.379746
Cu35	Cu	1.501974	0.591143	0.629746
Cu36	Cu	1.751974	0.841143	0.879746
O37	O	1.005607	-0.077153	0.267755
O38	O	1.255607	0.172847	0.517755
O39	O	1.505607	0.422847	0.767755
O40	O	1.755607	0.672847	1.017755
C41	C	0.848911	-0.000041	0.136673
C42	C	1.098911	0.249959	0.386673
C43	C	1.348911	0.499959	0.636673
C44	C	1.598911	0.749959	0.886673
C45	C	0.755525	-0.000035	0.134800
C46	C	1.005525	0.249965	0.384800
C47	C	1.255525	0.499965	0.634800
C48	C	1.505525	0.749965	0.884800
C49	C	0.477719	-0.000051	0.038999
C50	C	0.727719	0.249949	0.288999
C51	C	0.977719	0.499949	0.538999
C52	C	1.227719	0.749949	0.788999
C53	C	0.531749	-0.076091	0.085197
C54	C	0.781749	0.173909	0.335197
C55	C	1.031749	0.423909	0.585197
C56	C	1.281749	0.673909	0.835197
C57	C	0.419380	-0.000051	0.128119
C58	C	0.669380	0.249949	0.378119
C59	C	0.919380	0.499949	0.628119
C60	C	1.169380	0.749949	0.878119
C61	C	0.531751	0.075962	0.085200
C62	C	0.781751	0.325962	0.335200
C63	C	1.031751	0.575962	0.585200
C64	C	1.281751	0.825962	0.835200
C65	C	0.584539	-0.000042	0.131396
C66	C	0.834539	0.249958	0.381396
C67	C	1.084539	0.499958	0.631396
C68	C	1.334539	0.749958	0.881396
C69	C	0.472181	-0.076154	0.174293
C70	C	0.722181	0.173846	0.424293
C71	C	0.972181	0.423846	0.674293
C72	C	1.222181	0.673846	0.924293
C73	C	0.472178	0.075967	0.174282
C74	C	0.722178	0.325967	0.424282
C75	C	0.972178	0.575967	0.674282
C76	C	1.222178	0.825967	0.924282
C77	C	0.526180	-0.000091	0.220546
C78	C	0.776180	0.249909	0.470546
C79	C	1.026180	0.499909	0.720546
C80	C	1.276180	0.749909	0.970546
C81	C	0.324237	-0.000058	0.126228
C82	C	0.574237	0.249942	0.376228
C83	C	0.824237	0.499942	0.626228
C84	C	1.074237	0.749942	0.876228
C85	C	0.679681	-0.000042	0.133294
C86	C	0.929681	0.249958	0.383294
C87	C	1.179681	0.499958	0.633294
C88	C	1.429681	0.749958	0.883294
N89	N	1.001941	-0.219525	0.129789
N90	N	1.251941	0.030475	0.379789
N91	N	1.501941	0.280475	0.629789
N92	N	1.751941	0.530475	0.879789
C93	C	0.947338	-0.469171	0.197049
C94	C	1.197338	-0.219171	0.447049
C95	C	1.447338	0.030829	0.697049
C96	C	1.697338	0.280829	0.947049
C97	C	1.024616	-0.530977	0.215450
C98	C	1.274616	-0.280977	0.465450
C99	C	1.524616	-0.030977	0.715450
C100	C	1.774616	0.219023	0.965450
C101	C	1.001959	-0.408686	0.129767
C102	C	1.251959	-0.158686	0.379767
C103	C	1.501959	0.091314	0.629767
C104	C	1.751959	0.341314	0.879767
C105	C	0.924703	-0.530974	0.111388
C106	C	1.174703	-0.280974	0.361388
C107	C	1.424703	-0.030974	0.611388
C108	C	1.674703	0.219026	0.861388
C109	C	1.001971	-0.591408	0.129747
C110	C	1.251971	-0.341408	0.379747
C111	C	1.501971	-0.091408	0.629747
C112	C	1.751971	0.158592	0.879747
C113	C	1.079279	-0.469132	0.148210
C114	C	1.329279	-0.219132	0.398210
C115	C	1.579279	0.030868	0.648210
C116	C	1.829279	0.280868	0.898210
C117	C	0.979312	-0.469123	0.044111
C118	C	1.229312	-0.219123	0.294111
C119	C	1.479312	0.030877	0.544111
C120	C	1.729312	0.280877	0.794111
C121	C	1.056643	-0.530902	0.062475
C122	C	1.306643	-0.280902	0.312475
C123	C	1.556643	-0.030902	0.562475
C124	C	1.806643	0.219098	0.812475
C125	C	1.001952	-0.303425	0.129780
C126	C	1.251952	-0.053425	0.379780
C127	C	1.501952	0.196575	0.629780
C128	C	1.751952	0.446575	0.879780
C129	C	1.001987	-0.696667	0.129732
C130	C	1.251987	-0.446667	0.379732
C131	C	1.501987	-0.196667	0.629732
C132	C	1.751987	0.053333	0.879732
C133	C	1.155014	-0.000058	0.122845
C134	C	1.405014	0.249942	0.372845
C135	C	1.655014	0.499942	0.622845
C136	C	1.905014	0.749942	0.872845
C137	C	1.248401	-0.000057	0.124718
C138	C	1.498401	0.249943	0.374718
C139	C	1.748401	0.499943	0.624718
C140	C	1.998401	0.749943	0.874718
C141	C	0.995110	-0.000059	-0.043540
C142	C	1.245110	0.249941	0.206460
C143	C	1.495110	0.499941	0.456460
C144	C	1.745110	0.749941	0.706460
C145	C	0.985569	-0.000060	-0.148766
C146	C	1.235569	0.249940	0.101234
C147	C	1.485569	0.499940	0.351234
C148	C	1.735569	0.749940	0.601234
N149	N	1.001991	0.219425	0.129721
N150	N	1.251991	0.469425	0.379721
N151	N	1.501991	0.719425	0.629721
N152	N	1.751991	0.969425	0.879721
C153	C	0.968125	-0.000045	-0.341428
C154	C	1.218125	0.249955	-0.091428
C155	C	1.468125	0.499955	0.158572
C156	C	1.718125	0.749955	0.408572
C157	C	1.035796	-0.000047	-0.399059
C158	C	1.285796	0.249953	-0.149059
C159	C	1.535796	0.499953	0.100941
C160	C	1.785796	0.749953	0.350941
C161	C	1.026090	-0.000039	-0.506263
C162	C	1.276090	0.249961	-0.256263
C163	C	1.526090	0.499961	-0.006263
C164	C	1.776090	0.749961	0.243737
C165	C	0.977830	-0.000054	-0.234215
C166	C	1.227830	0.249946	0.015785
C167	C	1.477830	0.499946	0.265785
C168	C	1.727830	0.749946	0.515785
C169	C	1.008815	-0.000039	0.303058
C170	C	1.258815	0.249961	0.553058
C171	C	1.508815	0.499961	0.803058
C172	C	1.758815	0.749961	1.053058
C173	C	1.018356	-0.000032	0.408285
C174	C	1.268356	0.249968	0.658285
C175	C	1.518356	0.499968	0.908285
C176	C	1.768356	0.749968	1.158285
H177	H	0.557853	-0.140381	0.047569
H178	H	0.807853	0.109619	0.297569
H179	H	1.057853	0.359619	0.547569
H180	H	1.307853	0.609619	0.797569
H181	H	0.446179	-0.140508	0.211911
H182	H	0.696179	0.109492	0.461911
H183	H	0.946179	0.359492	0.711911
H184	H	1.196179	0.609492	0.961911
H185	H	0.901202	-0.442067	0.253994
H186	H	1.151202	-0.192067	0.503994
H187	H	1.401202	0.057933	0.753994
H188	H	1.651202	0.307933	1.003994
N189	N	0.953892	-0.433101	-0.051794
N190	N	1.203892	-0.183101	0.198206
N191	N	1.453892	0.066899	0.448206
N192	N	1.703892	0.316899	0.698206
H193	H	0.954614	-0.363073	-0.051254
H194	H	1.204614	-0.113073	0.198746
H195	H	1.454614	0.136927	0.448746
H196	H	1.704614	0.386927	0.698746
H197	H	0.994553	-0.456600	-0.102724
H198	H	1.244553	-0.206600	0.147276
H199	H	1.494553	0.043400	0.397276
H200	H	1.744553	0.293400	0.647276
N201	N	0.449341	-0.000167	-0.062652
N202	N	0.699341	0.249833	0.187348
N203	N	0.949341	0.499833	0.437348
N204	N	1.199341	0.749833	0.687348
H205	H	0.414951	0.057279	-0.074509
H206	H	0.664951	0.307279	0.175491
H207	H	0.914951	0.557279	0.425491
H208	H	1.164951	0.807279	0.675491
H209	H	0.500029	-0.000842	-0.107467
H210	H	0.750029	0.249158	0.142533
H211	H	1.000029	0.499158	0.392533
H212	H	1.250029	0.749158	0.642533
H213	H	1.102894	-0.557836	0.005565
H214	H	1.352894	-0.307836	0.255565
H215	H	1.602894	-0.057836	0.505565
H216	H	1.852894	0.192164	0.755565
N217	N	0.838158	-0.566967	0.090804
N218	N	1.088158	-0.316967	0.340804
N219	N	1.338158	-0.066967	0.590804
N220	N	1.588158	0.183033	0.840804
H221	H	0.796946	-0.544514	0.141681
H222	H	1.046946	-0.294514	0.391681
H223	H	1.296946	-0.044514	0.641681
H224	H	1.546946	0.205486	0.891681
H225	H	0.820692	-0.543497	0.026587
H226	H	1.070692	-0.293497	0.276587
H227	H	1.320692	-0.043497	0.526587
H228	H	1.570692	0.206503	0.776587
H229	H	1.043782	-0.558146	0.287878
H230	H	1.293782	-0.308146	0.537878
H231	H	1.543782	-0.058146	0.787878
H232	H	1.793782	0.191854	1.037878
H233	H	0.547424	-0.000131	0.297356
H234	H	0.797424	0.249869	0.547356
H235	H	1.047424	0.499869	0.797356
H236	H	1.297424	0.749869	1.047356
H237	H	0.557857	0.140243	0.047538
H238	H	0.807857	0.390243	0.297538
H239	H	1.057857	0.640243	0.547538
H240	H	1.307857	0.890243	0.797538
H241	H	0.902906	-0.000039	-0.372600
H242	H	1.152906	0.249961	-0.122600
H243	H	1.402906	0.499961	0.127400
H244	H	1.652906	0.749961	0.377400
N245	N	0.437563	0.161121	0.224088
N246	N	0.687563	0.411121	0.474088
N247	N	0.937563	0.661121	0.724088
N248	N	1.187563	0.911121	0.974088
H249	H	0.485405	0.200125	0.247422
H250	H	0.735405	0.450125	0.497422
H251	H	0.985405	0.700125	0.747422
H252	H	1.235405	0.950125	0.997422
H253	H	0.403665	0.198476	0.178082
H254	H	0.653665	0.448476	0.428082
H255	H	0.903665	0.698476	0.678082
H256	H	1.153665	0.948476	0.928082
N257	N	1.165859	-0.433312	0.168899
N258	N	1.415859	-0.183312	0.418899
N259	N	1.665859	0.066688	0.668899
N260	N	1.915859	0.316688	0.918899
H261	H	1.165316	-0.363280	0.168806
H262	H	1.415316	-0.113280	0.418806
H263	H	1.665316	0.136720	0.668806
H264	H	1.915316	0.386720	0.918806
H265	H	1.183041	-0.456425	0.233358
H266	H	1.433041	-0.206425	0.483358
H267	H	1.683041	0.043575	0.733358
H268	H	1.933041	0.293575	0.983358
H269	H	1.101020	0.000011	-0.367886
H270	H	1.351020	0.250011	-0.117886
H271	H	1.601020	0.500011	0.132114
H272	H	1.851020	0.750011	0.382114
