data_functionalizedCrystal
_audit_creation_method	'MofGen! by Chris Wilmer'
_symmetry_space_group_name_H-M	'P1'
_symmetry_Int_Tables_number	1
_symmetry_cell_setting	triclinic
loop_
_symmetry_equiv_pos_as_xyz
  x,y,z
_cell_length_a	27.732064
_cell_length_b	10.723024
_cell_length_c	26.210046
_cell_angle_alpha	89.970690
_cell_angle_beta	89.996567
_cell_angle_gamma	96.441353
loop_
_atom_site_label
_atom_site_type_symbol
_atom_site_fract_x
_atom_site_fract_y
_atom_site_fract_z
O1	O	0.641842	-0.148611	0.042337
O2	O	0.501190	-0.171163	0.042358
O3	O	0.574760	0.021823	0.042345
O4	O	0.568272	-0.341597	0.042350
O5	O	0.574758	0.021923	-0.042513
O6	O	0.501188	-0.171063	-0.042500
O7	O	0.641840	-0.148510	-0.042521
Cu8	Cu	0.571514	-0.159777	-0.050259
Cu9	Cu	0.571516	-0.159896	0.050095
O10	O	0.568270	-0.341497	-0.042508
C11	C	0.483179	-0.170636	-0.000069
C12	C	0.429516	-0.169201	-0.000061
C13	C	0.051674	-0.045387	-0.000091
C14	C	0.253367	-0.050669	-0.000078
O15	O	0.284023	0.045408	-0.000098
N16	N	0.273205	-0.165106	-0.000074
C17	C	0.242617	-0.278231	-0.000077
O18	O	0.264118	-0.375688	-0.000079
C19	C	0.040925	-0.272948	-0.000094
C20	C	0.021090	-0.158503	-0.000093
C21	C	0.031839	0.069049	-0.000091
C22	C	-0.018582	0.070368	-0.000091
C23	C	-0.049166	-0.042748	-0.000093
C24	C	-0.029331	-0.157184	-0.000093
C25	C	0.010337	-0.386071	-0.000101
C26	C	-0.040089	-0.384740	-0.000106
C27	C	-0.059924	-0.270295	-0.000105
C28	C	-0.110336	-0.268981	-0.000095
N29	N	-0.130174	-0.154543	-0.000099
C30	C	-0.099589	-0.041427	-0.000098
C31	C	0.348508	-0.280996	-0.000067
C32	C	0.398931	-0.282317	-0.000062
C33	C	0.409678	-0.054755	-0.000064
C34	C	0.359254	-0.053435	-0.000066
C35	C	0.328670	-0.166559	-0.000071
C36	C	-0.205476	-0.038665	-0.000098
C37	C	-0.255901	-0.037356	-0.000097
C38	C	-0.266644	-0.264918	-0.000098
C39	C	-0.216223	-0.266228	-0.000097
C40	C	-0.185640	-0.153091	-0.000099
O41	O	-0.141020	-0.365005	-0.000081
O42	O	-0.121100	0.056016	-0.000107
C43	C	0.102095	-0.046706	-0.000091
C44	C	0.121930	-0.161141	-0.000092
C45	C	0.091345	-0.274257	-0.000093
C46	C	0.172353	-0.162462	-0.000087
C47	C	0.202938	-0.049346	-0.000085
C48	C	0.183100	0.065091	-0.000089
C49	C	0.132679	0.066410	-0.000090
C50	C	0.111184	-0.388695	-0.000089
C51	C	0.161604	-0.390005	-0.000088
C52	C	0.192189	-0.276889	-0.000087
C53	C	0.574287	0.068353	-0.000083
C54	C	0.572874	0.206849	-0.000081
C55	C	0.659851	-0.149037	-0.000094
C56	C	0.713514	-0.150472	-0.000098
C57	C	0.568743	-0.388027	-0.000079
C58	C	0.570156	-0.526523	-0.000078
N59	N	0.571516	-0.159693	-0.120843
C60	C	0.614041	0.283529	-0.000087
C61	C	0.612581	0.426673	-0.000085
N62	N	0.571518	-0.159970	0.120679
C63	C	0.601027	-0.235136	0.526649
C64	C	0.601024	-0.235216	0.312990
O65	O	0.626126	-0.299244	0.285374
N66	N	0.571523	-0.159904	0.286263
C67	C	0.542023	-0.084562	0.312954
O68	O	0.516934	-0.020497	0.285318
C69	C	0.542029	-0.084476	0.526611
C70	C	0.571528	-0.159802	0.553336
C71	C	0.630524	-0.310455	0.553374
C72	C	0.630523	-0.310440	0.606785
C73	C	0.601024	-0.235106	0.633472
C74	C	0.571527	-0.159787	0.606747
C75	C	0.512532	-0.009128	0.553301
C76	C	0.512537	-0.009111	0.606719
C77	C	0.542036	-0.084437	0.633443
C78	C	0.542026	-0.084437	0.686846
N79	N	0.571527	-0.159749	0.713573
C80	C	0.601026	-0.235083	0.686886
C81	C	0.542022	-0.084613	0.200780
C82	C	0.542019	-0.084636	0.147366
C83	C	0.601021	-0.235289	0.147407
C84	C	0.601020	-0.235272	0.200822
C85	C	0.571522	-0.159925	0.227508
C86	C	0.601020	-0.235046	0.799054
C87	C	0.601015	-0.235027	0.852470
C88	C	0.542015	-0.084370	0.852425
C89	C	0.542019	-0.084393	0.799014
C90	C	0.571525	-0.159734	0.772329
O91	O	0.516942	-0.020432	0.714495
O92	O	0.626119	-0.299117	0.714531
C93	C	0.601028	-0.235152	0.473238
C94	C	0.571531	-0.159833	0.446513
C95	C	0.542033	-0.084499	0.473200
C96	C	0.571529	-0.159856	0.393099
C97	C	0.601028	-0.235190	0.366412
C98	C	0.630529	-0.310502	0.393139
C99	C	0.630527	-0.310486	0.446551
C100	C	0.512532	-0.009188	0.446473
C101	C	0.512535	-0.009210	0.393061
C102	C	0.542034	-0.084545	0.366374
H103	H	-0.034726	0.163561	-0.000092
F104	F	0.338149	0.068371	-0.000066
H105	H	0.534912	0.407599	-0.000077
H106	H	0.177749	-0.483206	-0.000086
H107	H	0.488509	0.052126	0.371306
F108	F	0.420035	-0.404125	-0.000054
F109	F	0.525394	0.259549	-0.000070
F110	F	0.215659	0.185478	-0.000085
F111	F	0.510621	-0.004201	0.880837
H112	H	0.625036	-0.296372	0.874227
H113	H	0.654548	-0.371802	0.531651
H114	H	0.488516	0.052248	0.628444
H115	H	-0.272048	0.055843	-0.000094
H116	H	0.056736	0.161167	-0.000091
H117	H	0.650365	0.243205	-0.000095
H118	H	0.647823	0.492558	-0.000092
H119	H	0.517992	-0.023072	0.777253
H120	H	0.434589	0.037349	-0.000061
F121	F	0.661922	-0.390666	0.474986
H122	H	0.625047	-0.296395	0.777334
H123	H	0.654546	-0.371773	0.628539
F124	F	0.632418	-0.315439	0.229259
H125	H	0.488511	0.052162	0.468196
F126	F	0.632417	-0.315464	0.118996
H127	H	0.517992	-0.023313	0.125612
H128	H	0.517999	-0.023253	0.222503
H129	H	0.086286	-0.480810	-0.000091
H130	H	0.488511	0.052212	0.531551
H131	H	0.654545	-0.371848	0.371401
H132	H	-0.180580	0.053462	-0.000100
H133	H	-0.064989	-0.476862	-0.000113
F134	F	0.315964	-0.401407	-0.000070
H135	H	-0.200073	-0.359418	-0.000097
F136	F	-0.299203	-0.385298	-0.000096
F137	F	0.111576	0.188219	-0.000086
F138	F	0.031436	-0.507881	-0.000102
