data_functionalizedCrystal
_audit_creation_method	'MofGen! by Chris Wilmer'
_symmetry_space_group_name_H-M	'P1'
_symmetry_Int_Tables_number	1
_symmetry_cell_setting	triclinic
loop_
_symmetry_equiv_pos_as_xyz
  x,y,z
_cell_length_a	19.288840
_cell_length_b	16.109298
_cell_length_c	18.366186
_cell_angle_alpha	89.999156
_cell_angle_beta	89.983729
_cell_angle_gamma	83.293103
loop_
_atom_site_label
_atom_site_type_symbol
_atom_site_fract_x
_atom_site_fract_y
_atom_site_fract_z
O1	O	0.921610	0.103617	-0.060663
O2	O	1.421610	0.603617	0.439337
O3	O	0.719380	0.117630	-0.060636
O4	O	1.219380	0.617630	0.439364
O5	O	0.826052	-0.010428	-0.060655
O6	O	1.326052	0.489572	0.439345
O7	O	0.814939	0.231674	-0.060644
O8	O	1.314939	0.731674	0.439356
O9	O	0.826034	-0.010434	0.060444
O10	O	1.326034	0.489566	0.560444
O11	O	0.719362	0.117623	0.060463
O12	O	1.219362	0.617623	0.560463
O13	O	0.921592	0.103611	0.060437
O14	O	1.421592	0.603611	0.560437
Zn15	Zn	0.820474	0.110616	0.079677
Zn16	Zn	1.320474	0.610616	0.579677
Zn17	Zn	0.820498	0.110624	-0.079877
Zn18	Zn	1.320498	0.610624	0.420123
O19	O	0.814921	0.231668	0.060456
O20	O	1.314921	0.731668	0.560456
C21	C	0.693494	0.117179	-0.000083
C22	C	1.193494	0.617179	0.499917
C23	C	0.616386	0.115836	-0.000074
C24	C	1.116386	0.615836	0.499926
C25	C	0.580191	0.115194	-0.066087
C26	C	1.080191	0.615194	0.433913
C27	C	0.507741	0.113923	-0.066096
C28	C	1.007741	0.613923	0.433904
C29	C	0.471491	0.113277	-0.000088
C30	C	0.971491	0.613277	0.499912
C31	C	0.507694	0.113924	0.065934
C32	C	1.007694	0.613924	0.565934
C33	C	0.580142	0.115203	0.065941
C34	C	1.080142	0.615203	0.565941
C35	C	0.362035	0.062549	0.050471
C36	C	0.862035	0.562549	0.550471
C37	C	0.289589	0.061265	0.050461
C38	C	0.789589	0.561265	0.550461
C39	C	0.248038	0.109334	-0.000107
C40	C	0.748038	0.609334	0.499893
C41	C	0.278942	0.158677	-0.050678
C42	C	0.778942	0.658677	0.449322
C43	C	0.351390	0.159957	-0.050671
C44	C	0.851390	0.659957	0.449329
C45	C	0.392933	0.111890	-0.000088
C46	C	0.892933	0.611890	0.499912
C47	C	0.133284	0.107315	-0.066135
C48	C	0.633284	0.607315	0.433865
C49	C	0.060832	0.106049	-0.066141
C50	C	0.560832	0.606049	0.433859
C51	C	0.060788	0.106041	0.065891
C52	C	0.560788	0.606041	0.565891
C53	C	0.133237	0.107315	0.065895
C54	C	0.633237	0.607315	0.565895
C55	C	0.169481	0.107948	-0.000120
C56	C	0.669481	0.607948	0.499880
C57	C	0.825593	-0.041404	-0.000109
C58	C	1.325593	0.458596	0.499891
C59	C	0.824245	-0.133695	-0.000117
C60	C	1.324245	0.366305	0.499883
C61	C	0.819854	-0.432745	-0.066112
C62	C	1.319854	0.067255	0.433888
C63	C	0.821130	-0.346029	-0.066118
C64	C	1.321130	0.153971	0.433882
C65	C	0.821121	-0.346022	0.065911
C66	C	1.321121	0.153978	0.565911
C67	C	0.819849	-0.432736	0.065916
C68	C	1.319849	0.067264	0.565916
C69	C	0.819212	-0.476095	-0.000098
C70	C	1.319212	0.023905	0.499902
C71	C	0.821760	-0.302665	-0.000108
C72	C	1.321760	0.197335	0.499892
C73	C	0.823144	-0.208644	-0.000113
C74	C	1.323144	0.291356	0.499887
C75	C	0.817830	-0.570122	-0.000093
C76	C	1.317830	-0.070122	0.499907
C77	C	0.947479	0.104061	-0.000118
C78	C	1.447479	0.604061	0.499882
C79	C	1.024587	0.105404	-0.000132
C80	C	1.524587	0.605404	0.499868
C81	C	0.815379	0.262644	-0.000093
C82	C	1.315379	0.762644	0.499907
C83	C	0.816728	0.354935	-0.000089
C84	C	1.316728	0.854935	0.499911
N85	N	0.820463	0.110610	0.188568
N86	N	1.320463	0.610610	0.688568
N87	N	0.820515	0.110624	-0.188768
N88	N	1.320515	0.610624	0.311232
C89	C	0.867713	0.053934	0.226660
C90	C	1.367713	0.553934	0.726660
C91	C	0.867717	0.053930	0.302888
C92	C	1.367717	0.553930	0.802888
C93	C	0.820479	0.110617	0.341021
C94	C	1.320479	0.610617	0.841021
C95	C	0.773220	0.167297	0.302920
C96	C	1.273220	0.667297	0.802920
C97	C	0.773212	0.167294	0.226693
C98	C	1.273212	0.667294	0.726693
C99	C	0.811360	0.186371	0.461786
C100	C	1.311360	0.686371	0.961786
C101	C	0.811373	0.186376	0.538011
C102	C	1.311373	0.686376	1.038011
C103	C	0.820498	0.110627	0.576128
C104	C	1.320498	0.610627	1.076128
C105	C	0.829626	0.034870	0.538012
C106	C	1.329626	0.534870	1.038012
C107	C	0.829618	0.034867	0.461786
C108	C	1.329618	0.534867	0.961786
C109	C	0.820481	0.110626	0.423676
C110	C	1.320481	0.610626	0.923676
C111	C	0.867755	0.053942	0.696875
C112	C	1.367755	0.553942	1.196875
C113	C	0.867755	0.053938	0.773104
C114	C	1.367755	0.553938	1.273104
C115	C	0.773261	0.167312	0.773135
C116	C	1.273261	0.667312	1.273135
C117	C	0.773258	0.167309	0.696907
C118	C	1.273258	0.667309	1.196907
C119	C	0.820509	0.110626	0.658782
C120	C	1.320509	0.610626	1.158782
H121	H	0.478265	0.113402	-0.119853
H122	H	0.978265	0.613402	0.380147
N123	N	0.619180	0.115896	0.137147
N124	N	1.119180	0.615896	0.637147
H125	H	0.612212	0.064146	0.166005
H126	H	1.112212	0.564146	0.666005
H127	H	0.670560	0.116834	0.127077
H128	H	1.170560	0.616834	0.627077
H129	H	0.906195	0.007776	0.333908
H130	H	1.406195	0.507776	0.833908
H131	H	0.821654	-0.310737	-0.119873
H132	H	1.321654	0.189263	0.380127
N133	N	0.918724	-0.007191	0.814191
N134	N	1.418724	0.492809	1.314191
H135	H	0.911559	0.001408	0.868266
H136	H	1.411559	0.501408	1.368266
H137	H	0.910723	-0.066150	0.800871
H138	H	1.410723	0.433850	1.300871
N139	N	0.821809	-0.299256	0.137109
N140	N	1.321809	0.200744	0.637109
H141	H	0.822711	-0.237744	0.127091
H142	H	1.322711	0.262256	0.627091
H143	H	0.778552	-0.307504	0.165948
H144	H	1.278552	0.192496	0.665948
N145	N	0.839488	-0.046836	0.579115
N146	N	1.339488	0.453164	1.079115
H147	H	0.845276	-0.094824	0.543402
H148	H	1.345276	0.405176	1.043402
H149	H	0.882483	-0.048690	0.610716
H150	H	1.382483	0.451310	1.110716
N151	N	0.468483	0.112820	0.137029
N152	N	0.968483	0.612820	0.637029
H153	H	0.432638	0.163677	0.140102
H154	H	0.932638	0.663677	0.640102
H155	H	0.444262	0.060595	0.139560
H156	H	0.944262	0.560595	0.639560
N157	N	0.722245	0.228427	0.185609
N158	N	1.222245	0.728427	0.685609
H159	H	0.730226	0.287412	0.198870
H160	H	1.230226	0.787412	0.698870
H161	H	0.729433	0.219754	0.131547
H162	H	1.229433	0.719754	0.631547
N163	N	0.619283	0.115874	-0.137285
N164	N	1.119283	0.615874	0.362715
H165	H	0.585355	0.115273	-0.179106
H166	H	1.085355	0.615273	0.320894
H167	H	0.643693	0.167933	-0.140161
H168	H	1.143693	0.667933	0.359839
H169	H	0.819329	-0.468033	0.119676
H170	H	1.319329	0.031967	0.619676
N171	N	0.021792	0.105350	-0.137346
N172	N	0.521792	0.605350	0.362654
H173	H	-0.029604	0.104447	-0.127335
H174	H	0.470396	0.604447	0.372665
H175	H	0.028817	0.157100	-0.166175
H176	H	0.528817	0.657100	0.333825
H177	H	0.906185	0.007777	0.195621
H178	H	1.406185	0.507777	0.695621
H179	H	0.837048	-0.026817	0.430754
H180	H	1.337048	0.473183	0.930754
H181	H	0.376549	0.200136	-0.091845
H182	H	0.876549	0.700136	0.408155
N183	N	0.819182	-0.479516	-0.137309
N184	N	1.319182	0.020484	0.362691
H185	H	0.861689	-0.522400	-0.140248
H186	H	1.361689	-0.022400	0.359752
H187	H	0.775596	-0.508536	-0.140202
H188	H	1.275596	-0.008536	0.359798
H189	H	0.906228	0.007784	0.665832
H190	H	1.406228	0.507784	1.165832
H191	H	0.734796	0.213464	0.804182
H192	H	1.234796	0.713464	1.304182
N193	N	0.722294	0.228444	0.655823
N194	N	1.222294	0.728444	1.155823
H195	H	0.730277	0.287429	0.669082
H196	H	1.230277	0.787429	1.169082
H197	H	0.729479	0.219771	0.601761
H198	H	1.229479	0.719771	1.101761
N199	N	0.801525	0.268079	0.579119
N200	N	1.301525	0.768079	1.079119
H201	H	0.795731	0.316065	0.543407
H202	H	1.295731	0.816065	1.043407
H203	H	0.758539	0.269944	0.610761
H204	H	1.258539	0.769944	1.110761
N205	N	0.801524	0.268077	0.420676
N206	N	1.301524	0.768077	0.920676
H207	H	0.758525	0.270035	0.389067
H208	H	1.258525	0.770035	0.889067
H209	H	0.795782	0.316019	0.456433
H210	H	1.295782	0.816019	0.956433
N211	N	0.234138	0.210526	-0.105227
N212	N	0.734138	0.710526	0.394773
H213	H	0.183553	0.202234	-0.097558
H214	H	0.683553	0.702234	0.402442
H215	H	0.240141	0.271492	-0.098450
H216	H	0.740141	0.771492	0.401550
H217	H	0.162794	0.107839	-0.119888
H218	H	0.662794	0.607839	0.380112
N219	N	0.722265	0.228434	0.344043
N220	N	1.222265	0.728434	0.844043
H221	H	0.729441	0.219838	0.398113
H222	H	1.229441	0.719838	0.898113
H223	H	0.730268	0.287391	0.330712
H224	H	1.230268	0.787391	0.830712
H225	H	0.031273	0.105520	0.119636
H226	H	0.531273	0.605520	0.619636
H227	H	0.264433	0.021082	0.091635
H228	H	0.764433	0.521082	0.591635
N229	N	0.172276	0.108004	0.137099
N230	N	0.672276	0.608004	0.637099
H231	H	0.165308	0.056252	0.165956
H232	H	0.665308	0.556252	0.665956
H233	H	0.223656	0.108945	0.127032
H234	H	0.723656	0.608945	0.627032
N235	N	0.406848	0.010703	0.105018
N236	N	0.906848	0.510703	0.605018
H237	H	0.376279	-0.020754	0.137047
H238	H	0.876279	0.479246	0.637047
H239	H	0.441478	-0.030360	0.078363
H240	H	0.941478	0.469640	0.578363
