data_functionalizedCrystal
_audit_creation_method	'MofGen! by Chris Wilmer'
_symmetry_space_group_name_H-M	'P1'
_symmetry_Int_Tables_number	1
_symmetry_cell_setting	triclinic
loop_
_symmetry_equiv_pos_as_xyz
  x,y,z
_cell_length_a	14.908783
_cell_length_b	19.120786
_cell_length_c	19.121283
_cell_angle_alpha	90.122160
_cell_angle_beta	91.006590
_cell_angle_gamma	95.607498
loop_
_atom_site_label
_atom_site_type_symbol
_atom_site_fract_x
_atom_site_fract_y
_atom_site_fract_z
Zn1	Zn	1.341484	-0.238637	0.447275
Zn2	Zn	1.674818	0.094697	0.780608
Zn3	Zn	2.008151	0.428030	1.113941
Zn4	Zn	1.341963	-0.350835	0.325058
Zn5	Zn	1.675296	-0.017501	0.658391
Zn6	Zn	2.008630	0.315832	0.991724
Zn7	Zn	1.197388	-0.239806	0.323308
Zn8	Zn	1.530721	0.093527	0.656641
Zn9	Zn	1.864055	0.426860	0.989975
Zn10	Zn	1.184464	-0.362571	0.434879
Zn11	Zn	1.517798	-0.029238	0.768212
Zn12	Zn	1.851131	0.304095	1.101546
O13	O	1.266325	-0.297962	0.382630
O14	O	1.599658	0.035371	0.715963
O15	O	1.932992	0.368704	1.049296
O16	O	1.467766	-0.248119	0.436982
O17	O	1.801100	0.085215	0.770315
O18	O	2.134433	0.418548	1.103649
O19	O	1.328394	-0.331684	0.226984
O20	O	1.661727	0.001649	0.560318
O21	O	1.995060	0.334982	0.893651
O22	O	1.221711	-0.141318	0.344208
O23	O	1.555044	0.192015	0.677541
O24	O	1.888378	0.525348	1.010875
O25	O	1.468118	-0.330550	0.347190
O26	O	1.801451	0.002783	0.680523
O27	O	2.134785	0.336117	1.013856
O28	O	1.327578	-0.140459	0.435286
O29	O	1.660911	0.192874	0.768619
O30	O	1.994245	0.526208	1.101952
O31	O	1.222175	-0.250112	0.225699
O32	O	1.555508	0.083221	0.559032
O33	O	1.888842	0.416554	0.892366
O34	O	1.069455	-0.261493	0.332188
O35	O	1.402789	0.071841	0.665522
O36	O	1.736122	0.405174	0.998855
O37	O	1.199684	-0.350553	0.534364
O38	O	1.533018	-0.017220	0.867698
O39	O	1.866351	0.316113	1.201031
O40	O	1.059960	-0.351688	0.414159
O41	O	1.393294	-0.018354	0.747492
O42	O	1.726627	0.314979	1.080826
O43	O	1.315046	-0.259499	0.543471
O44	O	1.648380	0.073834	0.876805
O45	O	1.981713	0.407168	1.210138
O46	O	1.315862	-0.450725	0.335170
O47	O	1.649195	-0.117391	0.668504
O48	O	1.982529	0.215942	1.001837
O49	O	1.200149	-0.459347	0.415855
O50	O	1.533482	-0.126014	0.749189
O51	O	1.866815	0.207319	1.082522
C52	C	1.031981	-0.307991	0.371639
C53	C	1.365314	0.025342	0.704972
C54	C	1.698647	0.358675	1.038306
C55	C	0.931725	-0.312299	0.366953
C56	C	1.265059	0.021034	0.700286
C57	C	1.598392	0.354367	1.033620
C58	C	0.742952	-0.234688	0.451779
C59	C	1.076286	0.098645	0.785113
C60	C	1.409619	0.431979	1.118446
C61	C	0.648754	-0.238733	0.447379
C62	C	0.982087	0.094600	0.780712
C63	C	1.315420	0.427933	1.114046
C64	C	0.649127	-0.324432	0.353749
C65	C	0.982461	0.008902	0.687082
C66	C	1.315794	0.342235	1.020415
C67	C	0.743326	-0.320386	0.358149
C68	C	1.076660	0.012947	0.691482
C69	C	1.409993	0.346281	1.024816
C70	C	0.790235	-0.275514	0.407167
C71	C	1.123569	0.057820	0.740500
C72	C	1.456902	0.391153	1.073834
C73	C	0.884436	-0.271472	0.411570
C74	C	1.217769	0.061861	0.744904
C75	C	1.551102	0.395194	1.078237
C76	C	0.884808	-0.357166	0.317937
C77	C	1.218141	-0.023833	0.651270
C78	C	1.551475	0.309500	0.984604
C79	C	0.790609	-0.361212	0.313537
C80	C	1.123943	-0.027878	0.646870
C81	C	1.457276	0.305455	0.980203
C82	C	1.256678	-0.480532	0.374374
C83	C	1.590012	-0.147199	0.707707
C84	C	1.923345	0.186134	1.041041
C85	C	1.252633	-0.558634	0.370869
C86	C	1.585966	-0.225301	0.704203
C87	C	1.919299	0.108033	1.037536
C88	C	1.305806	-0.594822	0.416677
C89	C	1.639140	-0.261489	0.750010
C90	C	1.972473	0.071845	1.083343
C91	C	1.302001	-0.668207	0.413385
C92	C	1.635335	-0.334874	0.746718
C93	C	1.968668	-0.001540	1.080051
C94	C	1.245027	-0.705402	0.364282
C95	C	1.578360	-0.372069	0.697615
C96	C	1.911694	-0.038736	1.030948
C97	C	1.191847	-0.669209	0.318473
C98	C	1.525181	-0.335876	0.651806
C99	C	1.858514	-0.002543	0.985139
C100	C	1.195648	-0.595826	0.321768
C101	C	1.528982	-0.262493	0.655102
C102	C	1.862315	0.070841	0.988435
C103	C	1.230791	-0.926998	0.351960
C104	C	1.564124	-0.593665	0.685293
C105	C	1.897458	-0.260332	1.018626
C106	C	1.226996	-1.000387	0.348666
C107	C	1.560330	-0.667053	0.681999
C108	C	1.893663	-0.333720	1.015333
C109	C	1.337149	-0.999379	0.443579
C110	C	1.670483	-0.666046	0.776913
C111	C	2.003816	-0.332713	1.110246
C112	C	1.340949	-0.925994	0.446868
C113	C	1.674282	-0.592661	0.780201
C114	C	2.007616	-0.259328	1.113535
C115	C	1.287766	-0.889808	0.401061
C116	C	1.621100	-0.556475	0.734395
C117	C	1.954433	-0.223141	1.067728
C118	C	1.241138	-0.780414	0.360914
C119	C	1.574472	-0.447080	0.694248
C120	C	1.907805	-0.113747	1.027581
C121	C	1.291651	-0.814798	0.404433
C122	C	1.624984	-0.481465	0.737766
C123	C	1.958317	-0.148132	1.071099
C124	C	1.501584	-0.287895	0.393664
C125	C	1.834918	0.045439	0.726997
C126	C	2.168251	0.378772	1.060330
C127	C	1.601838	-0.283604	0.398366
C128	C	1.935171	0.049729	0.731699
C129	C	2.268504	0.383062	1.065032
C130	C	1.255870	-0.306205	0.564996
C131	C	1.589204	0.027128	0.898330
C132	C	1.922537	0.360462	1.231663
C133	C	1.251415	-0.309717	0.642710
C134	C	1.584749	0.023616	0.976043
C135	C	1.918082	0.356949	1.309377
C136	C	1.276033	-0.114679	0.390934
C137	C	1.609366	0.218654	0.724268
C138	C	1.942699	0.551988	1.057601
C139	C	1.280170	-0.036575	0.394473
C140	C	1.613503	0.296759	0.727806
C141	C	1.946836	0.630092	1.061140
C142	C	1.223212	-0.332000	1.082004
C143	C	1.556545	0.001333	1.415338
C144	C	1.889879	0.334666	1.748671
C145	C	1.227395	-0.328690	1.008984
C146	C	1.560728	0.004644	1.342318
C147	C	1.894062	0.337977	1.675651
C148	C	1.289554	-0.279631	0.977219
C149	C	1.622887	0.053702	1.310553
C150	C	1.956220	0.387035	1.643886
C151	C	1.347527	-0.233875	1.018478
C152	C	1.680860	0.099458	1.351812
C153	C	2.014193	0.432791	1.685145
C154	C	1.343338	-0.237183	1.091497
C155	C	1.676672	0.096150	1.424830
C156	C	2.010005	0.429483	1.758164
C157	C	1.305200	-0.267269	0.756988
C158	C	1.638533	0.066064	1.090321
C159	C	1.971867	0.399397	1.423654
C160	C	1.309386	-0.263967	0.683964
C161	C	1.642719	0.069367	1.017297
C162	C	1.976052	0.402700	1.350630
C163	C	1.189253	-0.358780	0.674475
C164	C	1.522586	-0.025447	1.007808
C165	C	1.855919	0.307886	1.341141
C166	C	1.185074	-0.362087	0.747495
C167	C	1.518407	-0.028753	1.080828
C168	C	1.851740	0.304580	1.414162
C169	C	1.243043	-0.316328	0.788748
C170	C	1.576377	0.017005	1.122081
C171	C	1.909710	0.350338	1.455414
C172	C	1.293833	-0.276248	0.902581
C173	C	1.627166	0.057086	1.235915
C174	C	1.960500	0.390419	1.569248
C175	C	1.238759	-0.319709	0.863384
C176	C	1.572092	0.013624	1.196718
C177	C	1.905426	0.346957	1.530051
C178	C	1.276730	-0.289766	1.200972
C179	C	1.610063	0.043567	1.534305
C180	C	1.943397	0.376900	1.867638
C181	C	1.281182	-0.286249	1.123258
C182	C	1.614516	0.047084	1.456591
C183	C	1.947849	0.380417	1.789925
H184	H	0.610260	-0.205487	0.483705
H185	H	0.943593	0.127846	0.817039
H186	H	1.276926	0.461180	1.150372
H187	H	1.380447	-1.028850	0.480873
H188	H	1.713780	-0.695517	0.814207
H189	H	2.047113	-0.362183	1.147540
F190	F	0.599189	-0.372176	0.301578
F191	F	0.932523	-0.038843	0.634911
F192	F	1.265856	0.294490	0.968245
H193	H	1.152348	-0.566363	0.284468
H194	H	1.485681	-0.233029	0.617801
H195	H	1.819014	0.100304	0.951135
F196	F	1.180499	-0.820006	0.308660
F197	F	1.513833	-0.486673	0.641993
F198	F	1.847166	-0.153340	0.975326
H199	H	1.142056	-0.396033	0.640879
H200	H	1.475389	-0.062700	0.974212
H201	H	1.808723	0.270633	1.307546
F202	F	0.740676	-0.408963	0.261369
F203	F	1.074009	-0.075630	0.594703
F204	F	1.407342	0.257703	0.928036
H205	H	0.923315	-0.390415	0.281615
H206	H	1.256649	-0.057082	0.614949
H207	H	1.589982	0.276251	0.948282
H208	H	0.922628	-0.234935	0.451484
H209	H	1.255961	0.098398	0.784817
H210	H	1.589294	0.431731	1.118150
F211	F	1.366452	-0.555242	0.468936
F212	F	1.699785	-0.221908	0.802269
F213	F	2.033118	0.111425	1.135602
H214	H	0.781146	-0.198154	0.491694
H215	H	1.114480	0.135179	0.825028
H216	H	1.447813	0.468513	1.158361
H217	H	1.352408	-0.230013	0.790567
H218	H	1.685741	0.103320	1.123900
H219	H	2.019074	0.436653	1.457234
H220	H	1.345308	-0.697667	0.450681
H221	H	1.678641	-0.364334	0.784014
H222	H	2.011975	-0.031001	1.117347
H223	H	1.387342	-0.895711	0.486851
H224	H	1.720675	-0.562378	0.820185
H225	H	2.054009	-0.229044	1.153518
H226	H	1.180597	-1.030669	0.308680
H227	H	1.513930	-0.697336	0.642013
H228	H	1.847263	-0.364003	0.975346
H229	H	1.187489	-0.897541	0.314661
H230	H	1.520823	-0.564208	0.647994
H231	H	1.854156	-0.230874	0.981327
H232	H	1.145454	-0.699500	0.278495
H233	H	1.478787	-0.366167	0.611828
H234	H	1.812120	-0.032833	0.945161
F235	F	1.352280	-0.775211	0.456693
F236	F	1.685613	-0.441878	0.790027
F237	F	2.018947	-0.108545	1.123360
F238	F	1.157057	-0.384218	1.115804
F239	F	1.490391	-0.050885	1.449137
F240	F	1.823724	0.282448	1.782471
F241	F	1.165691	-0.377382	0.965082
F242	F	1.499025	-0.044049	1.298415
F243	F	1.832358	0.289285	1.631749
F244	F	1.118923	-0.414307	0.781296
F245	F	1.452257	-0.080974	1.114630
F246	F	1.785590	0.252359	1.447963
H247	H	1.360003	-0.224013	0.658103
H248	H	1.693336	0.109320	0.991437
H249	H	2.026669	0.442654	1.324770
F250	F	1.413664	-0.181650	0.984670
F251	F	1.746997	0.151683	1.318003
F252	F	2.080330	0.485016	1.651336
H253	H	1.390541	-0.199925	1.125085
H254	H	1.723874	0.133408	1.458418
H255	H	2.057208	0.466741	1.791752
H256	H	1.188145	-0.359649	0.889250
H257	H	1.521479	-0.026316	1.222584
H258	H	1.854812	0.307018	1.555917
F259	F	1.359966	-0.224023	0.868768
F260	F	1.693300	0.109311	1.202101
F261	F	2.026633	0.442644	1.535435
