data_functionalizedCrystal
_audit_creation_method	'MofGen! by Chris Wilmer'
_symmetry_space_group_name_H-M	'P1'
_symmetry_Int_Tables_number	1
_symmetry_cell_setting	triclinic
loop_
_symmetry_equiv_pos_as_xyz
  x,y,z
_cell_length_a	33.428889
_cell_length_b	33.428139
_cell_length_c	33.424847
_cell_angle_alpha	60.004234
_cell_angle_beta	60.008465
_cell_angle_gamma	59.994972
loop_
_atom_site_label
_atom_site_type_symbol
_atom_site_fract_x
_atom_site_fract_y
_atom_site_fract_z
O1	O	0.055565	-0.584504	0.488714
O2	O	0.555565	-0.084504	0.988714
O3	O	0.020982	-0.455083	0.393778
O4	O	0.520982	0.044917	0.893778
O5	O	0.102943	-0.536959	0.393689
O6	O	0.602943	-0.036959	0.893689
O7	O	-0.026396	-0.502628	0.488803
O8	O	0.473604	-0.002628	0.988803
O9	O	0.130140	-0.509767	0.420792
O10	O	0.630140	-0.009767	0.920792
O11	O	0.048179	-0.427891	0.420881
O12	O	0.548179	0.072109	0.920881
O13	O	0.082762	-0.557312	0.515817
O14	O	0.582762	-0.057312	1.015817
Cu15	Cu	0.067954	-0.490119	0.470823
Cu16	Cu	0.567954	0.009881	0.970823
Cu17	Cu	0.035790	-0.522276	0.438771
Cu18	Cu	0.535790	-0.022276	0.938771
O19	O	0.000801	-0.475436	0.515906
O20	O	0.500801	0.024564	1.015906
N21	N	0.090577	-0.467504	0.493370
N22	N	0.590577	0.032496	0.993370
N23	N	0.013171	-0.544895	0.416225
N24	N	0.513171	-0.044895	0.916225
C25	C	0.143377	-0.280390	0.546067
C26	C	0.643377	0.219610	1.046067
C27	C	0.143515	-0.414755	0.680369
C28	C	0.643515	0.085245	1.180369
C29	C	0.143392	-0.414735	0.546069
C30	C	0.643392	0.085265	1.046069
C31	C	0.277766	-0.414702	0.545966
C32	C	0.777766	0.085298	1.045966
C33	C	0.158177	-0.324719	0.560828
C34	C	0.658177	0.175281	1.060828
C35	C	0.158255	-0.399967	0.636038
C36	C	0.658255	0.100033	1.136038
C37	C	0.233434	-0.399936	0.560773
C38	C	0.733434	0.100064	1.060773
C39	C	0.158186	-0.399955	0.560829
C40	C	0.658186	0.100045	1.060829
C41	C	0.124540	-0.223964	0.527278
C42	C	0.624540	0.276036	1.027278
C43	C	0.124565	-0.433545	0.527281
C44	C	0.624565	0.066455	1.027281
C45	C	0.177014	-0.381145	0.579617
C46	C	0.677014	0.118855	1.079617
C47	C	0.359814	-0.400540	0.502735
C48	C	0.859814	0.099460	1.002735
C49	C	0.411105	-0.417624	0.485606
C50	C	0.911105	0.082376	0.985606
C51	C	0.411136	-0.500620	0.517255
C52	C	0.911136	-0.000620	1.017255
C53	C	0.359845	-0.483534	0.534385
C54	C	0.859845	0.016466	1.034385
C55	C	0.136887	-0.198305	0.476855
C56	C	0.636887	0.301695	0.976855
C57	C	0.119761	-0.147011	0.459777
C58	C	0.619761	0.352989	0.959777
C59	C	0.077945	-0.147038	0.543547
C60	C	0.577945	0.352962	1.043547
C61	C	0.095072	-0.198332	0.560625
C62	C	0.595072	0.301668	1.060625
C63	C	0.074134	-0.421169	0.539710
C64	C	0.574134	0.078831	1.039710
C65	C	0.057023	-0.438269	0.522625
C66	C	0.557023	0.061731	1.022625
C67	C	0.140770	-0.480120	0.480694
C68	C	0.640770	0.019880	0.980694
C69	C	0.157883	-0.463020	0.497773
C70	C	0.657883	0.036980	0.997773
C71	C	0.074339	-0.421208	0.762475
C72	C	0.574339	0.078792	1.262475
C73	C	0.057288	-0.438323	0.813768
C74	C	0.557288	0.061677	1.313768
C75	C	0.141075	-0.480183	0.813699
C76	C	0.641075	0.019817	1.313699
C77	C	0.158125	-0.463069	0.762404
C78	C	0.658125	0.036931	1.262404
C79	C	0.124756	-0.433580	0.736794
C80	C	0.624756	0.066420	1.236794
C81	C	0.334186	-0.433494	0.527123
C82	C	0.834186	0.066506	1.027123
C83	C	-0.173769	-0.597444	0.363037
C84	C	0.326231	-0.097444	0.863037
C85	C	-0.039302	-0.597595	0.228856
C86	C	0.460698	-0.097595	0.728856
C87	C	-0.039496	-0.597587	0.363300
C88	C	0.460504	-0.097587	0.863300
C89	C	-0.039512	-0.731889	0.363237
C90	C	0.460488	-0.231889	0.863237
C91	C	-0.129442	-0.612265	0.348329
C92	C	0.370558	-0.112265	0.848329
C93	C	-0.054138	-0.612351	0.273187
C94	C	0.445862	-0.112351	0.773187
C95	C	-0.054257	-0.687554	0.348440
C96	C	0.445743	-0.187554	0.848440
C97	C	-0.054247	-0.612346	0.348477
C98	C	0.445753	-0.112346	0.848477
C99	C	-0.230191	-0.578579	0.381758
C100	C	0.269809	-0.078579	0.881758
C101	C	-0.020722	-0.578803	0.382168
C102	C	0.479278	-0.078803	0.882168
C103	C	-0.073020	-0.631130	0.329609
C104	C	0.426980	-0.131130	0.829609
C105	C	-0.053713	-0.813916	0.406386
C106	C	0.446287	-0.313916	0.906386
C107	C	-0.036654	-0.865210	0.423504
C108	C	0.463346	-0.365210	0.923504
C109	C	0.046338	-0.865293	0.391984
C110	C	0.546338	-0.365293	0.891984
C111	C	0.029278	-0.813999	0.374865
C112	C	0.529278	-0.313999	0.874865
C113	C	-0.255900	-0.590938	0.432169
C114	C	0.244100	-0.090938	0.932169
C115	C	-0.307191	-0.573786	0.449185
C116	C	0.192809	-0.073786	0.949185
C117	C	-0.307060	-0.531922	0.365377
C118	C	0.192940	-0.031922	0.865377
C119	C	-0.255769	-0.549074	0.348360
C120	C	0.244231	-0.049074	0.848360
C121	C	-0.033081	-0.528377	0.369764
C122	C	0.466919	-0.028377	0.869764
C123	C	-0.016014	-0.511306	0.386922
C124	C	0.483986	-0.011306	0.886922
C125	C	0.025770	-0.595083	0.428877
C126	C	0.525770	-0.095083	0.928877
C127	C	0.008703	-0.612156	0.411725
C128	C	0.508703	-0.112156	0.911725
C129	C	-0.032755	-0.528393	0.146761
C130	C	0.467245	-0.028393	0.646761
C131	C	-0.015585	-0.511324	0.095468
C132	C	0.484415	-0.011324	0.595468
C133	C	0.026262	-0.595106	0.095516
C134	C	0.526262	-0.095106	0.595516
C135	C	0.009094	-0.612174	0.146811
C136	C	0.509094	-0.112174	0.646811
C137	C	-0.020417	-0.578816	0.172432
C138	C	0.479583	-0.078816	0.672432
C139	C	-0.020748	-0.788312	0.382068
C140	C	0.479252	-0.288312	0.882068
N141	N	0.436037	-0.467415	0.493101
N142	N	0.936037	0.032585	0.993101
O143	O	0.592642	-0.471896	0.376066
O144	O	1.092642	0.028104	0.876066
O145	O	0.592838	-0.567146	0.505347
O146	O	1.092838	-0.067146	1.005347
O147	O	0.592754	-0.566928	0.423360
O148	O	1.092754	-0.066928	0.923360
O149	O	0.592727	-0.472113	0.458053
O150	O	1.092727	0.027887	0.958053
O151	O	0.511269	-0.539835	0.450606
O152	O	1.011269	-0.039835	0.950606
O153	O	0.511353	-0.540052	0.532594
O154	O	1.011353	-0.040052	1.032594
O155	O	0.511157	-0.444802	0.403312
O156	O	1.011157	0.055198	0.903312
Cu157	Cu	0.503815	-0.489954	0.470441
Cu158	Cu	1.003815	0.010046	0.970441
Cu159	Cu	0.600180	-0.521995	0.438219
Cu160	Cu	1.100180	-0.021995	0.938219
O161	O	0.511242	-0.445020	0.485300
O162	O	1.011242	0.054980	0.985300
N163	N	0.667959	-0.544533	0.415554
N164	N	1.167959	-0.044533	0.915554
N165	N	0.090544	-0.122107	0.493359
N166	N	0.590544	0.377893	0.993359
O167	O	-0.026406	0.034587	0.488773
O168	O	0.473594	0.534587	0.988773
O169	O	0.102877	0.034627	0.393499
O170	O	0.602877	0.534627	0.893499
O171	O	0.020848	0.034591	0.393771
O172	O	0.520848	0.534591	0.893771
O173	O	0.055623	0.034623	0.488500
O174	O	0.555623	0.534623	0.988500
O175	O	0.048051	-0.046899	0.420925
O176	O	0.548051	0.453101	0.920925
O177	O	0.130080	-0.046864	0.420653
O178	O	0.630080	0.453136	0.920653
O179	O	0.000796	-0.046903	0.515927
O180	O	0.500796	0.453097	1.015927
Cu181	Cu	0.067922	-0.054324	0.470769
Cu182	Cu	0.567922	0.445676	0.970769
Cu183	Cu	0.035752	0.042048	0.438656
Cu184	Cu	0.535752	0.542048	0.938656
O185	O	0.082825	-0.046867	0.515655
O186	O	0.582825	0.453133	1.015655
N187	N	0.013123	0.109830	0.416068
N188	N	0.513123	0.609830	0.916068
N189	N	0.090892	-0.467554	0.838649
N190	N	0.590892	0.032446	1.338649
O191	O	0.086330	-0.584488	0.995334
O192	O	0.586330	-0.084488	1.495334
O193	O	-0.008902	-0.455160	0.995379
O194	O	0.491098	0.044840	1.495379
O195	O	-0.008679	-0.537172	0.995355
O196	O	0.491321	-0.037172	1.495355
O197	O	0.086107	-0.502475	0.995358
O198	O	0.586107	-0.002475	1.495358
O199	O	0.018452	-0.509990	0.913868
O200	O	0.518452	-0.009990	1.413868
O201	O	0.018230	-0.427978	0.913891
O202	O	0.518230	0.072022	1.413891
O203	O	0.113461	-0.557306	0.913847
O204	O	0.613461	-0.057306	1.413847
Cu205	Cu	0.068323	-0.490160	0.906429
Cu206	Cu	0.568323	0.009840	1.406429
Cu207	Cu	0.036237	-0.522306	1.002797
Cu208	Cu	0.536237	-0.022306	1.502797
O209	O	0.113239	-0.475293	0.913870
O210	O	0.613239	0.024707	1.413870
N211	N	0.013667	-0.544916	1.070577
N212	N	0.513667	-0.044916	1.570577
C213	C	0.031339	-0.425179	0.394250
C214	C	0.531339	0.074821	0.894250
C215	C	0.132837	-0.526572	0.394139
C216	C	0.632837	-0.026572	0.894139
C217	C	0.072405	-0.587216	0.515344
C218	C	0.572405	-0.087216	1.015344
C219	C	-0.029093	-0.485823	0.515455
C220	C	0.470907	0.014177	1.015455
C221	C	0.552119	-0.566716	0.535258
C222	C	1.052119	-0.066716	1.035258
C223	C	0.552016	-0.566447	0.433726
C224	C	1.052016	-0.066447	0.933726
C225	C	0.551873	-0.445232	0.373402
C226	C	1.051873	0.054768	0.873402
C227	C	0.551980	-0.445502	0.474933
C228	C	1.051980	0.054498	0.974933
C229	C	0.132731	-0.006013	0.393923
C230	C	0.632731	0.493987	0.893923
C231	C	0.031182	-0.006158	0.394293
C232	C	0.531182	0.493842	0.894293
C233	C	-0.029092	-0.006163	0.515469
C234	C	0.470908	0.493837	1.015469
C235	C	0.072491	-0.006119	0.515133
C236	C	0.572491	0.493881	1.015133
C237	C	-0.008451	-0.425276	0.954641
C238	C	0.491549	0.074724	1.454641
C239	C	-0.008170	-0.526833	0.954596
C240	C	0.491830	-0.026833	1.454596
C241	C	0.113010	-0.587190	0.954585
C242	C	0.613010	-0.087190	1.454585
C243	C	0.112735	-0.485627	0.954611
C244	C	0.612735	0.014373	1.454611
H245	H	0.016234	-0.428240	0.834672
H246	H	0.516234	0.071760	1.334672
O247	O	0.551715	-0.409508	0.329147
O248	O	1.051715	0.090492	0.829147
C249	C	0.509493	-0.368246	0.335654
C250	C	1.009493	0.131754	0.835654
H251	H	0.480039	-0.380087	0.371549
H252	H	0.980039	0.119913	0.871549
H253	H	0.519019	-0.340574	0.336776
H254	H	1.019019	0.159426	0.836776
C255	C	0.526468	-0.330015	0.248670
C256	C	1.026468	0.169985	0.748670
C257	C	0.490290	-0.344559	0.292755
C258	C	0.990290	0.155441	0.792755
H259	H	0.514623	-0.315402	0.222207
H260	H	1.014623	0.184598	0.722207
H261	H	0.554914	-0.357813	0.244285
H262	H	1.054914	0.142187	0.744285
H263	H	0.534402	-0.306957	0.249612
H264	H	1.034402	0.193043	0.749612
H265	H	0.482361	-0.367620	0.291815
H266	H	0.982361	0.132380	0.791815
H267	H	0.461842	-0.316764	0.297138
H268	H	0.961842	0.183236	0.797138
H269	H	-0.038348	-0.388133	0.954654
H270	H	0.461652	0.111867	1.454654
O271	O	0.552100	-0.602380	0.579573
O272	O	1.052100	-0.102380	1.079573
C273	C	0.509930	-0.615584	0.601285
C274	C	1.009930	-0.115584	1.101285
H275	H	0.480393	-0.584130	0.585117
H276	H	0.980393	-0.084130	1.085117
H277	H	0.519489	-0.649601	0.593781
H278	H	1.019489	-0.149601	1.093781
C279	C	0.527134	-0.665180	0.676841
C280	C	1.027134	-0.165180	1.176841
C281	C	0.490854	-0.626545	0.656985
C282	C	0.990854	-0.126545	1.156985
H283	H	0.515368	-0.671943	0.711199
H284	H	1.015368	-0.171943	1.211199
H285	H	0.555546	-0.656286	0.662212
H286	H	1.055546	-0.156286	1.162212
H287	H	0.535096	-0.693522	0.670582
H288	H	1.035096	-0.193522	1.170582
H289	H	0.482897	-0.598202	0.663238
H290	H	0.982897	-0.098202	1.163238
H291	H	0.462441	-0.635435	0.671616
H292	H	0.962441	-0.135435	1.171616
H293	H	0.552029	-0.596233	0.426301
H294	H	1.052029	-0.096233	0.926301
H295	H	0.169783	-0.005775	0.363939
H296	H	0.669783	0.494225	0.863939
O297	O	0.081222	-0.631532	0.550963
O298	O	0.581222	-0.131532	1.050963
C299	C	0.075766	-0.625140	0.592254
C300	C	0.575766	-0.125140	1.092254
H301	H	0.081109	-0.589230	0.580480
H302	H	0.581109	-0.089230	1.080480
H303	H	0.037495	-0.624121	0.619995
H304	H	0.537495	-0.124121	1.119995
C305	C	0.107724	-0.712150	0.630249
C306	C	0.607724	-0.212150	1.130249
C307	C	0.114290	-0.668046	0.615788
C308	C	0.614290	-0.168046	1.115788
H309	H	0.131485	-0.738617	0.644767
H310	H	0.631485	-0.238617	1.144767
H311	H	0.111398	-0.716456	0.602431
H312	H	0.611398	-0.216456	1.102431
H313	H	0.075830	-0.711293	0.653364
H314	H	0.575830	-0.211293	1.153364
H315	H	0.146181	-0.668901	0.592668
H316	H	0.646181	-0.168901	1.092668
H317	H	0.110622	-0.663741	0.643602
H318	H	0.610622	-0.163741	1.143602
H319	H	0.551974	-0.415718	0.482355
H320	H	1.051974	0.084282	0.982355
O321	O	0.022232	-0.006203	0.358852
O322	O	0.522232	0.493797	0.858852
C323	C	-0.025930	-0.006215	0.376721
C324	C	0.474070	0.493785	0.876721
H325	H	-0.038798	-0.021631	0.418456
H326	H	0.461202	0.478369	0.918456
H327	H	-0.051297	0.032871	0.364329
H328	H	0.448703	0.532871	0.864329
C329	C	-0.011087	-0.019270	0.305346
C330	C	0.488913	0.480730	0.805346
C331	C	-0.026890	-0.038208	0.356605
C332	C	0.473110	0.461792	0.856605
H333	H	-0.011680	-0.039003	0.292936
H334	H	0.488320	0.460997	0.792936
H335	H	0.021361	-0.019260	0.293306
H336	H	0.521361	0.480740	0.793306
H337	H	-0.032228	0.013301	0.295026
H338	H	0.467772	0.513301	0.795026
H339	H	-0.005745	-0.070776	0.366925
H340	H	0.494255	0.429224	0.866925
H341	H	-0.059334	-0.038224	0.368647
H342	H	0.440666	0.461776	0.868647
O343	O	-0.073422	-0.006145	0.551089
O344	O	0.426578	0.493855	1.051089
C345	C	-0.103930	-0.006170	0.533481
C346	C	0.396070	0.493830	1.033481
H347	H	-0.090683	0.009251	0.491746
H348	H	0.409317	0.509251	0.991746
H349	H	-0.102602	-0.045268	0.545949
H350	H	0.397398	0.454732	1.045949
C351	C	-0.173213	0.006847	0.605043
C352	C	0.326787	0.506847	1.105043
C353	C	-0.156946	0.025791	0.553783
C354	C	0.343054	0.525791	1.053783
H355	H	-0.205917	0.026560	0.617568
H356	H	0.294083	0.526560	1.117568
H357	H	-0.152659	0.006862	0.616907
H358	H	0.347341	0.506862	1.116907
H359	H	-0.172103	-0.025735	0.615427
H360	H	0.327897	0.474265	1.115427
H361	H	-0.158051	0.058369	0.543400
H362	H	0.341949	0.558369	1.043400
H363	H	-0.177502	0.025782	0.541918
H364	H	0.322498	0.525782	1.041918
O365	O	0.081464	-0.006140	0.550596
O366	O	0.581464	0.493860	1.050596
C367	C	0.129621	-0.006114	0.532722
C368	C	0.629621	0.493886	1.032722
H369	H	0.152782	-0.021531	0.501264
H370	H	0.652782	0.478469	1.001264
H371	H	0.128888	0.032985	0.519057
H372	H	0.628888	0.532985	1.019057
C373	C	0.123483	-0.019136	0.612788
C374	C	0.623483	0.480864	1.112788
C375	C	0.151931	-0.038077	0.574153
C376	C	0.651931	0.461923	1.074153
H377	H	0.137244	-0.038851	0.638345
H378	H	0.637244	0.461149	1.138345
H379	H	0.091038	-0.019153	0.624831
H380	H	0.591038	0.480847	1.124831
H381	H	0.122875	0.013445	0.601394
H382	H	0.622875	0.513445	1.101394
H383	H	0.152533	-0.070655	0.585546
H384	H	0.652533	0.429345	1.085546
H385	H	0.184377	-0.038067	0.562114
H386	H	0.684377	0.461933	1.062114
H387	H	-0.037935	-0.534246	0.954563
H388	H	0.462065	-0.034246	1.454563
H389	H	0.047002	-0.397168	0.563734
H390	H	0.547002	0.102832	1.063734
O391	O	-0.073428	-0.477011	0.551042
O392	O	0.426572	0.022989	1.051042
C393	C	-0.103888	-0.428874	0.533335
C394	C	0.396112	0.071126	1.033335
H395	H	-0.080302	-0.405601	0.501862
H396	H	0.419698	0.094399	1.001862
H397	H	-0.128640	-0.429624	0.519742
H398	H	0.371360	0.070376	1.019742
C399	C	-0.164555	-0.435301	0.613528
C400	C	0.335445	0.064699	1.113528
C401	C	-0.135586	-0.406715	0.574874
C402	C	0.364414	0.093285	1.074874
H403	H	-0.184109	-0.421633	0.639152
H404	H	0.315891	0.078367	1.139152
H405	H	-0.144035	-0.467733	0.625458
H406	H	0.355965	0.032267	1.125458
H407	H	-0.185177	-0.435924	0.602194
H408	H	0.314823	0.064076	1.102194
H409	H	-0.114960	-0.406098	0.586207
H410	H	0.385040	0.093902	1.086207
H411	H	-0.156103	-0.374283	0.562948
H412	H	0.343897	0.125717	1.062948
O413	O	0.148697	-0.631501	0.954634
O414	O	0.648697	-0.131501	1.454634
C415	C	0.161858	-0.653200	0.996839
C416	C	0.661858	-0.153200	1.496839
H417	H	0.151929	-0.623490	1.010920
H418	H	0.651929	-0.123490	1.510920
H419	H	0.141302	-0.679939	1.026386
H420	H	0.641302	-0.179939	1.526386
C421	C	0.229607	-0.717404	0.966709
C422	C	0.729607	-0.217404	1.466709
C423	C	0.217416	-0.680914	0.984002
C424	C	0.717416	-0.180914	1.484002
H425	H	0.263878	-0.734501	0.958792
H426	H	0.763878	-0.234501	1.458792
H427	H	0.220740	-0.702786	0.938276
H428	H	0.720740	-0.202786	1.438276
H429	H	0.212474	-0.739682	0.991335
H430	H	0.712474	-0.239682	1.491335
H431	H	0.234545	-0.658633	0.959375
H432	H	0.734545	-0.158633	1.459375
H433	H	0.226288	-0.695528	1.012431
H434	H	0.726288	-0.195528	1.512431
H435	H	0.142514	-0.478200	0.954606
H436	H	0.642514	0.021800	1.454606
H437	H	-0.057039	-0.501216	0.345698
H438	H	0.442961	-0.001216	0.845698
O439	O	0.177154	-0.535216	0.358489
O440	O	0.677154	-0.035216	0.858489
C441	C	0.198883	-0.501572	0.345297
C442	C	0.698883	-0.001572	0.845297
H443	H	0.169193	-0.467675	0.355171
H444	H	0.669193	0.032325	0.855171
H445	H	0.225609	-0.519316	0.365878
H446	H	0.725609	-0.019316	0.865878
C447	C	0.263087	-0.528273	0.277621
C448	C	0.763087	-0.028273	0.777621
C449	C	0.226621	-0.486639	0.289744
C450	C	0.726621	0.013361	0.789744
H451	H	0.280199	-0.519063	0.243354
H452	H	0.780199	-0.019063	0.743354
H453	H	0.248449	-0.550941	0.286509
H454	H	0.748449	-0.050941	0.786509
H455	H	0.285354	-0.543056	0.294776
H456	H	0.785354	-0.043056	0.794776
H457	H	0.204352	-0.471860	0.272595
H458	H	0.704352	0.028140	0.772595
H459	H	0.241256	-0.463968	0.280852
H460	H	0.741256	0.036032	0.780852
O461	O	0.041903	-0.392633	0.737621
O462	O	0.541903	0.107367	1.237621
C463	C	0.012244	-0.418537	0.750187
C464	C	0.512244	0.081463	1.250187
H465	H	0.032071	-0.459574	0.764266
H466	H	0.532071	0.040426	1.264266
H467	H	-0.023774	-0.407630	0.779984
H468	H	0.476226	0.092370	1.279984
C469	C	-0.022635	-0.355730	0.687354
C470	C	0.477365	0.144270	1.187354
C471	C	0.001719	-0.406133	0.704642
C472	C	0.501719	0.093867	1.204642
H473	H	-0.029130	-0.348077	0.659261
H474	H	0.470870	0.151923	1.159261
H475	H	-0.002655	-0.338277	0.678889
H476	H	0.497345	0.161723	1.178889
H477	H	-0.052647	-0.346647	0.712189
H478	H	0.447353	0.153353	1.212189
H479	H	0.031732	-0.415214	0.679810
H480	H	0.531732	0.084786	1.179810
H481	H	-0.018257	-0.423587	0.713102
H482	H	0.481743	0.076413	1.213102
O483	O	0.173507	-0.508894	0.838558
O484	O	0.673507	-0.008894	1.338558
C485	C	0.203171	-0.551899	0.825993
C486	C	0.703171	-0.051899	1.325993
H487	H	0.183350	-0.559031	0.811907
H488	H	0.683350	-0.059031	1.311907
H489	H	0.239191	-0.547226	0.796202
H490	H	0.739191	-0.047226	1.296202
C491	C	0.238035	-0.586795	0.888837
C492	C	0.738035	-0.086795	1.388837
C493	C	0.213690	-0.595557	0.871541
C494	C	0.713690	-0.095557	1.371541
H495	H	0.244526	-0.613725	0.916932
H496	H	0.744526	-0.113725	1.416932
H497	H	0.218052	-0.557821	0.897301
H498	H	0.718052	-0.057821	1.397301
H499	H	0.268049	-0.582900	0.864007
H500	H	0.768049	-0.082900	1.364007
H501	H	0.183674	-0.599446	0.896369
H502	H	0.683674	-0.099446	1.396369
H503	H	0.233668	-0.624533	0.863082
H504	H	0.733668	-0.124533	1.363082
O505	O	0.207087	-0.475061	0.737383
O506	O	0.707087	0.024939	1.237383
C507	C	0.214983	-0.453625	0.686619
C508	C	0.714983	0.046375	1.186619
H509	H	0.181311	-0.445898	0.679642
H510	H	0.681311	0.054102	1.179642
H511	H	0.221804	-0.417838	0.672061
H512	H	0.721804	0.082162	1.172061
C513	C	0.301239	-0.498479	0.668825
C514	C	0.801239	0.001521	1.168825
C515	C	0.259883	-0.488993	0.660256
C516	C	0.759883	0.011007	1.160256
H517	H	0.328936	-0.520294	0.652562
H518	H	0.828936	-0.020294	1.152562
H519	H	0.295920	-0.512919	0.703026
H520	H	0.795920	-0.012919	1.203026
H521	H	0.306916	-0.468654	0.656694
H522	H	0.806916	0.031346	1.156694
H523	H	0.254203	-0.518816	0.672393
H524	H	0.754203	-0.018816	1.172393
H525	H	0.265203	-0.474558	0.626057
H526	H	0.765203	0.025442	1.126057
O527	O	0.173115	-0.508823	0.452096
O528	O	0.673115	-0.008823	0.952096
C529	C	0.165750	-0.554429	0.475398
C530	C	0.665750	-0.054429	0.975398
H531	H	0.147176	-0.561500	0.516523
H532	H	0.647176	-0.061500	1.016523
H533	H	0.141518	-0.553968	0.460297
H534	H	0.641518	-0.053968	0.960297
C535	C	0.238344	-0.586633	0.415185
C536	C	0.738344	-0.086633	0.915185
C537	C	0.215534	-0.595320	0.465696
C538	C	0.715534	-0.095320	0.965696
H539	H	0.269052	-0.611857	0.409199
H540	H	0.769052	-0.111857	0.909199
H541	H	0.243305	-0.555907	0.399485
H542	H	0.743305	-0.055907	0.899485
H543	H	0.218145	-0.586249	0.402607
H544	H	0.718145	-0.086249	0.902607
H545	H	0.235730	-0.595699	0.478272
H546	H	0.735730	-0.095699	0.978272
H547	H	0.210577	-0.626048	0.481398
H548	H	0.710577	-0.126048	0.981398
H549	H	0.015959	-0.428182	0.532734
H550	H	0.515959	0.071818	1.032734
O551	O	0.022437	-0.380808	0.358721
O552	O	0.522437	0.119192	0.858721
C553	C	-0.025709	-0.350420	0.376514
C554	C	0.474291	0.149580	0.876514
H555	H	-0.048920	-0.374069	0.407986
H556	H	0.451080	0.125931	0.907986
H557	H	-0.024967	-0.325686	0.390135
H558	H	0.475033	0.174314	0.890135
C559	C	-0.019443	-0.289644	0.296381
C560	C	0.480557	0.210356	0.796381
C561	C	-0.047952	-0.318691	0.335033
C562	C	0.452048	0.181309	0.835033
H563	H	-0.033163	-0.270070	0.270794
H564	H	0.466837	0.229930	0.770794
H565	H	0.012995	-0.310116	0.284394
H566	H	0.512995	0.189884	0.784394
H567	H	-0.018827	-0.269037	0.307738
H568	H	0.481173	0.230963	0.807738
H569	H	-0.048562	-0.339301	0.323676
H570	H	0.451438	0.160699	0.823676
H571	H	-0.080390	-0.298221	0.347017
H572	H	0.419610	0.201779	0.847017
H573	H	0.338981	-0.510371	0.554246
H574	H	0.838981	-0.010371	1.054246
O575	O	0.206888	-0.475097	0.485667
O576	O	0.706888	0.024903	0.985667
C577	C	0.232625	-0.504765	0.455945
C578	C	0.732625	-0.004765	0.955945
H579	H	0.208168	-0.523428	0.462513
H580	H	0.708168	-0.023428	0.962513
H581	H	0.243636	-0.481084	0.415771
H582	H	0.743636	0.018916	0.915771
C583	C	0.308939	-0.521029	0.460808
C584	C	0.808939	-0.021029	0.960808
C585	C	0.278902	-0.543954	0.468878
C586	C	0.778902	-0.043954	0.968878
H587	H	0.337486	-0.545201	0.468784
H588	H	0.837486	-0.045201	0.968784
H589	H	0.291600	-0.501039	0.480830
H590	H	0.791600	-0.001039	0.980830
H591	H	0.318110	-0.501295	0.427330
H592	H	0.818110	-0.001295	0.927330
H593	H	0.269727	-0.563682	0.502357
H594	H	0.769727	-0.063682	1.002357
H595	H	0.296241	-0.563948	0.448862
H596	H	0.796241	-0.063948	0.948862
O597	O	0.334811	-0.351942	0.495705
O598	O	0.834811	0.148058	0.995705
C599	C	0.284044	-0.343927	0.516062
C600	C	0.784044	0.156073	1.016062
H601	H	0.277039	-0.375280	0.518537
H602	H	0.777039	0.124720	1.018537
H603	H	0.269517	-0.342116	0.554289
H604	H	0.769517	0.157884	1.054289
C605	C	0.266279	-0.256754	0.480274
C606	C	0.766279	0.243246	0.980274
C607	C	0.257675	-0.295261	0.483311
C608	C	0.757675	0.204739	0.983311
H609	H	0.250012	-0.226734	0.460074
H610	H	0.750012	0.273266	0.960074
H611	H	0.300481	-0.262154	0.466561
H612	H	0.800481	0.237846	0.966561
H613	H	0.254173	-0.255251	0.512132
H614	H	0.754173	0.244749	1.012132
H615	H	0.269786	-0.296767	0.451455
H616	H	0.769786	0.203233	0.951455
H617	H	0.223474	-0.289860	0.497018
H618	H	0.723474	0.210140	0.997018
O619	O	0.435986	-0.549246	0.524366
O620	O	0.935986	-0.049246	1.024366
C621	C	0.402367	-0.574669	0.549554
C622	C	0.902367	-0.074669	1.049554
H623	H	0.365812	-0.552302	0.570590
H624	H	0.865812	-0.052302	1.070590
H625	H	0.396887	-0.580605	0.522125
H626	H	0.896887	-0.080605	1.022125
C627	C	0.467324	-0.652107	0.559867
C628	C	0.967324	-0.152107	1.059867
C629	C	0.422428	-0.624637	0.585708
C630	C	0.922428	-0.124637	1.085708
H631	H	0.479699	-0.682931	0.582167
H632	H	0.979699	-0.182931	1.082167
H633	H	0.489974	-0.634980	0.542896
H634	H	0.989974	-0.134980	1.042896
H635	H	0.462751	-0.657049	0.537011
H636	H	0.962751	-0.157049	1.037011
H637	H	0.427003	-0.619691	0.608560
H638	H	0.927003	-0.119691	1.108560
H639	H	0.399779	-0.641765	0.602684
H640	H	0.899779	-0.141765	1.102684
H641	H	0.431972	-0.390789	0.465748
H642	H	0.931972	0.109211	0.965748
H643	H	0.129813	-0.126117	0.418717
H644	H	0.629813	0.373883	0.918717
O645	O	0.165438	-0.223180	0.444442
O646	O	0.665438	0.276820	0.944442
C647	C	0.139507	-0.210640	0.414809
C648	C	0.639507	0.289360	0.914809
H649	H	0.098478	-0.196555	0.434643
H650	H	0.598478	0.303445	0.934643
H651	H	0.150393	-0.180854	0.378772
H652	H	0.650393	0.319146	0.878772
C653	C	0.202295	-0.273501	0.379968
C654	C	0.702295	0.226499	0.879968
C655	C	0.151901	-0.256207	0.404331
C656	C	0.651901	0.243793	0.904331
H657	H	0.209941	-0.301608	0.373502
H658	H	0.709941	0.198392	0.873502
H659	H	0.219766	-0.281949	0.399931
H660	H	0.719766	0.218051	0.899931
H661	H	0.211360	-0.248675	0.349940
H662	H	0.711360	0.251325	0.849940
H663	H	0.142838	-0.281030	0.434361
H664	H	0.642838	0.218970	0.934361
H665	H	0.134428	-0.247764	0.384373
H666	H	0.634428	0.252236	0.884373
O667	O	0.049311	-0.122213	0.576006
O668	O	0.549311	0.377787	1.076006
C669	C	0.042104	-0.155861	0.624174
C670	C	0.542104	0.344139	1.124174
H671	H	0.047840	-0.192427	0.624082
H672	H	0.547840	0.307573	1.124082
H673	H	0.069427	-0.161309	0.638839
H674	H	0.569427	0.338691	1.138839
C675	C	-0.017473	-0.090955	0.657220
C676	C	0.482527	0.409045	1.157220
C677	C	-0.010431	-0.135864	0.657107
C678	C	0.489569	0.364136	1.157107
H679	H	-0.049878	-0.078619	0.677535
H680	H	0.450122	0.421381	1.177535
H681	H	-0.012616	-0.068285	0.624768
H682	H	0.487384	0.431715	1.124768
H683	H	0.005300	-0.095501	0.669439
H684	H	0.505300	0.404499	1.169439
H685	H	-0.033200	-0.131316	0.644882
H686	H	0.466800	0.368684	1.144882
H687	H	-0.015293	-0.158533	0.689558
H688	H	0.484707	0.341467	1.189558
H689	H	-0.025639	-0.470264	0.074572
H690	H	0.474361	0.029736	0.574572
O691	O	0.083137	-0.223332	0.609590
O692	O	0.583137	0.276668	1.109590
C693	C	0.104596	-0.274103	0.617517
C694	C	0.604596	0.225897	1.117517
H695	H	0.112274	-0.281110	0.583879
H696	H	0.612274	0.218890	1.083879
H697	H	0.140409	-0.288628	0.624283
H698	H	0.640409	0.211372	1.124283
C699	C	0.059855	-0.291869	0.703788
C700	C	0.559855	0.208131	1.203788
C701	C	0.069282	-0.300476	0.662476
C702	C	0.569282	0.199524	1.162476
H703	H	0.038074	-0.308137	0.731522
H704	H	0.538074	0.191863	1.231522
H705	H	0.045399	-0.257664	0.698449
H706	H	0.545399	0.242336	1.198449
H707	H	0.089703	-0.303973	0.709420
H708	H	0.589703	0.196027	1.209420
H709	H	0.039436	-0.288366	0.656841
H710	H	0.539436	0.211634	1.156841
H711	H	0.083733	-0.334679	0.667815
H712	H	0.583733	0.165321	1.167815
O713	O	-0.061353	-0.495967	0.171624
O714	O	0.438647	0.004033	0.671624
C715	C	-0.035452	-0.466336	0.159133
C716	C	0.464548	0.033664	0.659133
H717	H	0.005584	-0.486179	0.145098
H718	H	0.505584	0.013821	0.645098
H719	H	-0.046319	-0.430303	0.129326
H720	H	0.453681	0.069697	0.629326
C721	C	-0.098315	-0.431468	0.221950
C722	C	0.401685	0.068532	0.721950
C723	C	-0.047913	-0.455841	0.204715
C724	C	0.452087	0.044159	0.704715
H725	H	-0.106003	-0.424992	0.250066
H726	H	0.393997	0.075008	0.750066
H727	H	-0.115766	-0.451429	0.230364
H728	H	0.384234	0.048571	0.730364
H729	H	-0.107364	-0.401443	0.197107
H730	H	0.392636	0.098557	0.697107
H731	H	-0.038866	-0.485868	0.229556
H732	H	0.461134	0.014132	0.729556
H733	H	-0.030461	-0.435884	0.196306
H734	H	0.469539	0.064116	0.696306
O735	O	0.054852	-0.627490	0.070605
O736	O	0.554852	-0.127490	0.570605
C737	C	0.031597	-0.620075	0.040858
C738	C	0.531597	-0.120075	0.540858
H739	H	-0.009523	-0.601420	0.056255
H740	H	0.490477	-0.101420	0.556255
H741	H	0.046775	-0.595892	0.001994
H742	H	0.546775	-0.095892	0.501994
C743	C	0.091744	-0.692752	0.021155
C744	C	0.591744	-0.192752	0.521155
C745	C	0.041238	-0.669845	0.040068
C746	C	0.541238	-0.169845	0.540068
H747	H	0.097692	-0.723452	0.020665
H748	H	0.597692	-0.223452	0.520665
H749	H	0.107412	-0.697747	0.041194
H750	H	0.607412	-0.197747	0.541194
H751	H	0.104386	-0.672595	-0.011230
H752	H	0.604386	-0.172595	0.488770
H753	H	0.028598	-0.689999	0.072454
H754	H	0.528598	-0.189999	0.572454
H755	H	0.025568	-0.664854	0.020034
H756	H	0.525568	-0.164854	0.520034
H757	H	0.019144	-0.653235	0.167709
H758	H	0.519144	-0.153235	0.667709
H759	H	-0.026079	-0.470245	0.376824
H760	H	0.473921	0.029755	0.876824
H761	H	0.049734	-0.622248	0.452940
H762	H	0.549734	-0.122248	0.952940
H763	H	0.056124	-0.793157	0.355062
H764	H	0.556124	-0.293157	0.855062
O765	O	0.020687	-0.661151	0.423855
O766	O	0.520687	-0.161151	0.923855
C767	C	0.003064	-0.682427	0.475226
C768	C	0.503064	-0.182427	0.975226
H769	H	-0.001985	-0.658111	0.493196
H770	H	0.498015	-0.158111	0.993196
H771	H	-0.033592	-0.686201	0.486762
H772	H	0.466408	-0.186201	0.986762
C773	C	0.046348	-0.763281	0.469414
C774	C	0.546348	-0.263281	0.969414
C775	C	0.040152	-0.733418	0.491484
C776	C	0.540152	-0.233418	0.991484
H777	H	0.069225	-0.794736	0.479443
H778	H	0.569225	-0.294736	0.979443
H779	H	0.058220	-0.748948	0.434804
H780	H	0.558220	-0.248948	0.934804
H781	H	0.015799	-0.766421	0.479029
H782	H	0.515799	-0.266421	0.979029
H783	H	0.070699	-0.730274	0.481864
H784	H	0.570699	-0.230274	0.981864
H785	H	0.028286	-0.747752	0.526093
H786	H	0.528286	-0.247752	1.026093
O787	O	0.094948	-0.890224	0.384902
O788	O	0.594948	-0.390224	0.884902
C789	C	0.121473	-0.877713	0.334274
C790	C	0.621473	-0.377713	0.834274
H791	H	0.096311	-0.863591	0.313026
H792	H	0.596311	-0.363591	0.813026
H793	H	0.136213	-0.847964	0.322844
H794	H	0.636213	-0.347964	0.822844
C795	C	0.195428	-0.940653	0.349207
C796	C	0.695428	-0.440653	0.849207
C797	C	0.164525	-0.923312	0.323112
C798	C	0.664525	-0.423312	0.823112
H799	H	0.221986	-0.968780	0.342322
H800	H	0.721986	-0.468780	0.842322
H801	H	0.177559	-0.949081	0.383317
H802	H	0.677559	-0.449081	0.883317
H803	H	0.207707	-0.915858	0.339680
H804	H	0.707707	-0.415858	0.839680
H805	H	0.152242	-0.948104	0.332644
H806	H	0.652242	-0.448104	0.832644
H807	H	0.182393	-0.914889	0.289004
H808	H	0.682393	-0.414889	0.789004
O809	O	-0.068713	-0.890032	0.447063
O810	O	0.431287	-0.390032	0.947063
C811	C	-0.092672	-0.877493	0.415610
C812	C	0.407328	-0.377493	0.915610
H813	H	-0.091449	-0.840263	0.386411
H814	H	0.408551	-0.340263	0.886411
H815	H	-0.073502	-0.906373	0.397250
H816	H	0.426498	-0.406373	0.897250
C817	C	-0.147894	-0.920801	0.481357
C818	C	0.352106	-0.420801	0.981357
C819	C	-0.146396	-0.875073	0.445497
C820	C	0.353604	-0.375073	0.945497
H821	H	-0.181033	-0.919311	0.499792
H822	H	0.318967	-0.419311	0.999792
H823	H	-0.131752	-0.929251	0.502548
H824	H	0.368248	-0.429251	1.002548
H825	H	-0.131917	-0.944863	0.466052
H826	H	0.368083	-0.444863	0.966052
H827	H	-0.162368	-0.851013	0.460802
H828	H	0.337632	-0.351013	0.960802
H829	H	-0.162542	-0.866619	0.424309
H830	H	0.337458	-0.366619	0.924309
O831	O	-0.102288	-0.788902	0.413287
O832	O	0.397712	-0.288902	0.913287
C833	C	-0.109183	-0.759245	0.367465
C834	C	0.390817	-0.259245	0.867465
H835	H	-0.073890	-0.751606	0.338935
H836	H	0.426110	-0.251606	0.838935
H837	H	-0.119272	-0.778994	0.356027
H838	H	0.380728	-0.278994	0.856027
C839	C	-0.194109	-0.719872	0.406444
C840	C	0.305891	-0.219872	0.906444
C841	C	-0.150763	-0.710487	0.371403
C842	C	0.349237	-0.210487	0.871403
H843	H	-0.219759	-0.689796	0.408873
H844	H	0.280241	-0.189796	0.908873
H845	H	-0.189465	-0.739853	0.437315
H846	H	0.310535	-0.239853	0.937315
H847	H	-0.202510	-0.736331	0.396908
H848	H	0.297490	-0.236331	0.896908
H849	H	-0.142360	-0.694033	0.380943
H850	H	0.357640	-0.194033	0.880943
H851	H	-0.155407	-0.690501	0.340534
H852	H	0.344593	-0.190501	0.840534
H853	H	-0.235077	-0.614964	0.459366
H854	H	0.264923	-0.114964	0.959366
H855	H	-0.327887	-0.507903	0.338181
H856	H	0.172113	-0.007903	0.838181
O857	O	-0.332093	-0.585859	0.498172
O858	O	0.167907	-0.085859	0.998172
C859	C	-0.298517	-0.615574	0.523999
C860	C	0.201483	-0.115574	1.023999
H861	H	-0.261937	-0.634250	0.499575
H862	H	0.238063	-0.134250	0.999575
H863	H	-0.293079	-0.591928	0.535097
H864	H	0.206921	-0.091928	1.035097
C865	C	-0.363528	-0.631807	0.600210
C866	C	0.136472	-0.131807	1.100210
C867	C	-0.318601	-0.654749	0.570213
C868	C	0.181399	-0.154749	1.070213
H869	H	-0.375917	-0.655971	0.628718
H870	H	0.124083	-0.155971	1.128718
H871	H	-0.386150	-0.611786	0.582810
H872	H	0.113850	-0.111786	1.082810
H873	H	-0.358991	-0.612103	0.609453
H874	H	0.141009	-0.112103	1.109453
H875	H	-0.323140	-0.674447	0.560966
H876	H	0.176860	-0.174447	1.060966
H877	H	-0.295981	-0.674774	0.587613
H878	H	0.204019	-0.174774	1.087613
H879	H	-0.234840	-0.539009	0.307312
H880	H	0.265160	-0.039009	0.807312
