data_functionalizedCrystal
_audit_creation_method	'MofGen! by Chris Wilmer'
_symmetry_space_group_name_H-M	'P1'
_symmetry_Int_Tables_number	1
_symmetry_cell_setting	triclinic
loop_
_symmetry_equiv_pos_as_xyz
  x,y,z
_cell_length_a	12.827893
_cell_length_b	21.295417
_cell_length_c	12.827885
_cell_angle_alpha	89.961900
_cell_angle_beta	89.980728
_cell_angle_gamma	90.030477
loop_
_atom_site_label
_atom_site_type_symbol
_atom_site_fract_x
_atom_site_fract_y
_atom_site_fract_z
Zn1	Zn	1.597560	-0.250579	-0.590788
Zn2	Zn	1.597408	-0.355861	-0.416023
Zn3	Zn	1.422801	-0.250610	-0.416062
Zn4	Zn	1.422740	-0.355814	-0.590723
O5	O	1.510127	-0.303216	-0.503399
O6	O	1.743776	-0.264552	-0.567616
O7	O	1.574208	-0.341932	-0.269792
O8	O	1.446072	-0.162516	-0.439283
O9	O	1.743664	-0.341902	-0.439217
O10	O	1.574467	-0.162494	-0.567654
O11	O	1.445925	-0.264604	-0.269821
O12	O	1.276557	-0.264559	-0.439220
O13	O	1.445969	-0.341822	-0.736968
O14	O	1.276512	-0.341852	-0.567543
O15	O	1.574408	-0.264506	-0.737016
O16	O	1.574149	-0.443944	-0.439154
O17	O	1.445821	-0.443910	-0.567505
C18	C	1.238617	-0.303204	-0.503379
C19	C	1.122464	-0.303214	-0.503396
C20	C	1.070685	-0.341521	-0.566796
C21	C	0.950635	-0.341532	-0.566814
C22	C	1.509990	-0.466768	-0.503341
C23	C	1.510027	-0.536736	-0.503351
C24	C	1.576907	-0.569600	-0.436587
C25	C	1.576956	-0.635342	-0.436611
C26	C	1.510107	-0.668218	-0.503387
C27	C	1.443222	-0.635347	-0.570165
C28	C	1.443183	-0.569606	-0.570147
N29	N	1.418690	-0.771484	-0.511347
N30	N	1.418731	-0.833935	-0.511358
C31	C	1.510224	-0.866293	-0.503447
N32	N	1.601676	-0.833840	-0.495504
N33	N	1.601635	-0.771383	-0.495488
C34	C	1.510143	-0.739504	-0.503415
C35	C	1.577162	-0.970442	-0.436705
C36	C	1.577213	-1.036186	-0.436736
C37	C	1.443470	-1.036189	-0.570284
C38	C	1.443429	-0.970447	-0.570259
C39	C	1.510273	-0.937577	-0.503464
C40	C	1.782697	-0.303229	-0.503420
C41	C	1.898851	-0.303234	-0.503428
C42	C	1.510198	-0.303156	-0.775969
C43	C	1.510229	-0.303130	-0.892123
C44	C	1.510293	-0.139026	-0.503480
C45	C	1.510364	-0.069058	-0.503515
C46	C	1.573791	-0.264864	-0.943931
C47	C	1.573824	-0.264837	-1.063982
C48	C	1.510117	-0.303231	-0.231889
C49	C	1.510289	-0.303079	-0.115737
H50	H	0.943373	-0.270439	-0.449143
H51	H	1.631421	-0.662105	-0.382244
H52	H	1.455871	-0.335844	-1.071189
O53	O	0.897360	-0.380601	-0.631539
C54	C	0.789357	-0.371922	-0.617136
H55	H	0.774568	-0.323311	-0.583047
H56	H	0.747836	-0.376229	-0.695367
H57	H	0.758331	-0.409208	-0.561348
H58	H	1.628246	-0.232078	-1.108535
O59	O	1.123774	-0.380571	-0.631689
C60	C	1.097217	-0.366915	-0.735910
H61	H	1.067176	-0.316650	-0.741372
H62	H	1.169067	-0.372327	-0.787446
H63	H	1.033939	-0.400726	-0.763190
H64	H	1.631680	-1.062942	-0.382371
O65	O	1.445235	-0.342212	-0.945065
C66	C	1.386149	-0.377809	-0.873585
H67	H	1.382464	-0.352086	-0.795765
H68	H	1.303844	-0.384497	-0.905194
H69	H	1.424357	-0.425628	-0.861997
O70	O	1.069492	-0.264037	-0.438619
C71	C	1.140945	-0.228429	-0.379646
H72	H	1.218800	-0.226230	-0.422372
H73	H	1.109354	-0.178844	-0.368682
H74	H	1.152460	-0.251418	-0.300197
O75	O	1.641797	-0.537742	-0.371568
C76	C	1.619010	-0.553859	-0.267398
H77	H	1.578860	-0.601611	-0.265209
H78	H	1.694457	-0.556095	-0.220610
H79	H	1.565287	-0.516902	-0.232140
O80	O	1.378429	-0.667349	-0.635081
C81	C	1.437913	-0.705301	-0.702654
H82	H	1.517132	-0.715125	-0.665868
H83	H	1.395366	-0.751546	-0.716632
H84	H	1.449339	-0.679921	-0.780100
O85	O	1.378111	-0.537776	-0.635034
C86	C	1.319139	-0.580887	-0.694005
H87	H	1.315572	-0.627775	-0.651216
H88	H	1.236786	-0.561931	-0.705075
H89	H	1.357371	-0.587815	-0.773407
H90	H	1.631594	-0.943679	-0.382320
O91	O	1.378569	-1.068215	-0.635058
C92	C	1.392967	-1.133288	-0.620783
H93	H	1.427238	-1.142290	-0.540167
H94	H	1.314705	-1.158313	-0.627816
H95	H	1.448600	-1.151879	-0.682821
O96	O	1.378352	-0.938617	-0.635137
C97	C	1.319376	-0.981729	-0.694101
H98	H	1.315812	-1.028616	-0.651309
H99	H	1.237021	-0.962774	-0.705165
H100	H	1.357601	-0.988659	-0.773505
O101	O	1.638544	-0.225774	-0.890710
C102	C	1.579016	-0.185151	-0.827608
H103	H	1.499777	-0.207359	-0.811351
H104	H	1.621499	-0.176780	-0.750817
H105	H	1.567638	-0.138467	-0.869627
