data_functionalizedCrystal
_audit_creation_method	'MofGen! by Chris Wilmer'
_symmetry_space_group_name_H-M	'P1'
_symmetry_Int_Tables_number	1
_symmetry_cell_setting	triclinic
loop_
_symmetry_equiv_pos_as_xyz
  x,y,z
_cell_length_a	6.817900
_cell_length_b	17.078472
_cell_length_c	9.514088
_cell_angle_alpha	93.258389
_cell_angle_beta	118.843545
_cell_angle_gamma	99.306020
loop_
_atom_site_label
_atom_site_type_symbol
_atom_site_fract_x
_atom_site_fract_y
_atom_site_fract_z
V1	V	-4.196319	-0.111173	-0.500580
V2	V	-3.696319	0.388827	-0.000580
O3	O	-4.202103	0.003895	-0.491217
O4	O	-3.702103	0.503895	0.008783
O5	O	-4.125999	-0.219046	-0.496996
O6	O	-3.625999	0.280954	0.003004
O7	O	-4.231301	-0.110098	-0.718973
O8	O	-3.731301	0.389902	-0.218973
O9	O	-4.096072	-0.105807	-0.267704
O10	O	-3.596072	0.394193	0.232296
V11	V	-4.671982	-0.097335	-0.472745
V12	V	-4.171982	0.402665	0.027255
O13	O	-4.474817	-0.141529	-0.561637
O14	O	-3.974817	0.358471	-0.061637
O15	O	-4.843681	-0.066979	-0.411688
O16	O	-4.343681	0.433021	0.088312
O17	O	-4.519095	0.010538	-0.476328
O18	O	-4.019095	0.510538	0.023672
O19	O	-4.783595	-0.212403	-0.482108
O20	O	-4.283595	0.287597	0.017892
O21	O	-4.889626	-0.102701	-0.705621
O22	O	-4.389626	0.397299	-0.205621
O23	O	-4.413793	-0.098410	-0.254352
O24	O	-3.913793	0.401590	0.245648
C25	C	-3.962969	-0.245323	-0.489058
C26	C	-3.462969	0.254677	0.010942
C27	C	-3.987317	-0.333515	-0.487584
C28	C	-3.487317	0.166485	0.012416
C29	C	-4.097291	-0.106349	-0.772209
C30	C	-3.597291	0.393651	-0.272209
C31	C	-4.207031	-0.106183	-0.950745
C32	C	-3.707031	0.393817	-0.450745
C33	C	-4.183141	-0.379010	-0.494897
C34	C	-3.683141	0.120990	0.005103
C35	C	-4.206013	-0.461876	-0.493521
C36	C	-3.706013	0.038124	0.006479
C37	C	-4.033051	-0.499244	-0.484822
C38	C	-3.533051	0.000756	0.015178
C39	C	-3.837215	-0.453742	-0.477514
C40	C	-3.337215	0.046258	0.022486
C41	C	-3.814353	-0.370879	-0.478901
C42	C	-3.314353	0.129121	0.021099
C43	C	-4.081660	-0.746634	-0.479826
C44	C	-3.581660	-0.246634	0.020174
C45	C	-4.104535	-0.829503	-0.478434
C46	C	-3.604535	-0.329503	0.021566
C47	C	-4.473334	-0.837631	-0.494445
C48	C	-3.973334	-0.337631	0.005555
C49	C	-4.450449	-0.754765	-0.495821
C50	C	-3.950449	-0.254765	0.004179
C51	C	-4.254621	-0.709272	-0.488522
C52	C	-3.754621	-0.209272	0.011478
N53	N	-4.056422	-0.583945	-0.483411
N54	N	-3.556422	-0.083945	0.016589
N55	N	-4.231260	-0.624573	-0.489945
N56	N	-3.731260	-0.124573	0.010055
C57	C	-4.345465	0.036811	-0.484262
C58	C	-3.845465	0.536811	0.015738
C59	C	-4.300359	0.125002	-0.485746
C60	C	-3.800359	0.625002	0.014254
C61	C	-4.211142	-0.102162	-0.201108
C62	C	-3.711142	0.397838	0.298892
C63	C	-4.080640	-0.102323	-0.022570
C64	C	-3.580640	0.397677	0.477430
H65	H	-4.323980	-0.348591	-0.501965
H66	H	-3.823980	0.151409	-0.001965
H67	H	-4.399211	-0.109364	-1.025848
H68	H	-3.899211	0.390636	-0.525848
H69	H	-4.591304	-0.724348	-0.502917
H70	H	-4.091304	-0.224348	-0.002917
H71	H	-3.654898	-0.333837	-0.472953
H72	H	-3.154898	0.166163	0.027047
H73	H	-3.888480	-0.099152	-0.947478
H74	H	-3.388480	0.400848	-0.447478
H75	H	-4.632771	-0.874681	-0.500388
H76	H	-4.132771	-0.374681	-0.000388
H77	H	-3.963701	-0.859927	-0.471388
H78	H	-3.463701	-0.359927	0.028612
Cl79	Cl	-4.452200	-0.519068	-0.502712
Cl80	Cl	-3.952200	-0.019068	-0.002712
Cl81	Cl	-3.619781	-0.500719	-0.466587
Cl82	Cl	-3.119781	-0.000719	0.033413
H83	H	-3.922202	-0.709602	-0.473872
H84	H	-3.422202	-0.209602	0.026128
