data_functionalizedCrystal
_audit_creation_method	'MofGen! by Chris Wilmer'
_symmetry_space_group_name_H-M	'P1'
_symmetry_Int_Tables_number	1
_symmetry_cell_setting	triclinic
loop_
_symmetry_equiv_pos_as_xyz
  x,y,z
_cell_length_a	12.827892
_cell_length_b	11.169417
_cell_length_c	11.169409
_cell_angle_alpha	89.980487
_cell_angle_beta	89.966914
_cell_angle_gamma	90.016641
loop_
_atom_site_label
_atom_site_type_symbol
_atom_site_fract_x
_atom_site_fract_y
_atom_site_fract_z
Zn1	Zn	-0.415914	1.834920	-0.678527
Zn2	Zn	0.084086	2.334920	-0.178527
Zn3	Zn	-0.590701	1.834792	-0.477841
Zn4	Zn	-0.090701	2.334792	0.022159
Zn5	Zn	-0.415978	1.634206	-0.477862
Zn6	Zn	0.084022	2.134206	0.022138
Zn7	Zn	-0.590617	1.634196	-0.678487
Zn8	Zn	-0.090617	2.134196	-0.178487
O9	O	-0.503303	1.734528	-0.578179
O10	O	-0.003303	2.234528	-0.078179
O11	O	-0.439108	2.002853	-0.651913
O12	O	0.060892	2.502853	-0.151913
O13	O	-0.567586	1.808134	-0.309894
O14	O	-0.067586	2.308134	0.190106
O15	O	-0.269734	1.660889	-0.504506
O16	O	0.230266	2.160889	-0.004506
O17	O	-0.567523	2.002759	-0.504470
O18	O	-0.067523	2.502759	-0.004470
O19	O	-0.269686	1.808353	-0.651933
O20	O	0.230314	2.308353	-0.151933
O21	O	-0.439218	1.660765	-0.309909
O22	O	0.060782	2.160765	0.190091
O23	O	-0.439137	1.466255	-0.504468
O24	O	0.060863	1.966255	-0.004468
O25	O	-0.567380	1.660872	-0.846442
O26	O	-0.067380	2.160872	-0.346442
O27	O	-0.567443	1.466248	-0.651866
O28	O	-0.067443	1.966248	-0.151866
O29	O	-0.439026	1.808343	-0.846471
O30	O	0.060974	2.308343	-0.346471
O31	O	-0.736926	1.808124	-0.504431
O32	O	-0.236926	2.308124	-0.004431
O33	O	-0.736864	1.660747	-0.651845
O34	O	-0.236864	2.160747	-0.151845
C35	C	-0.503288	1.422704	-0.578165
C36	C	-0.003288	1.922704	-0.078165
C37	C	-0.503308	1.289304	-0.578188
C38	C	-0.003308	1.789304	-0.078188
C39	C	-0.774812	1.734453	-0.578158
C40	C	-0.274812	2.234453	-0.078158
C41	C	-0.890966	1.734531	-0.578189
C42	C	-0.390966	2.234531	-0.078189
C43	C	-0.942746	1.807544	-0.505325
C44	C	-0.442746	2.307544	-0.005325
C45	C	-1.062796	1.807626	-0.505355
C46	C	-0.562796	2.307626	-0.005355
C47	C	-0.230732	1.734637	-0.578227
C48	C	0.269268	2.234637	-0.078227
C49	C	-0.114579	1.734683	-0.578247
C50	C	0.385421	2.234683	-0.078247
C51	C	-0.503186	1.734621	-0.891222
C52	C	-0.003186	2.234621	-0.391222
C53	C	-0.503137	1.734660	-1.024622
C54	C	-0.003137	2.234660	-0.524622
C55	C	-0.503317	2.047571	-0.578194
C56	C	-0.003317	2.547571	-0.078194
C57	C	-0.503324	2.180971	-0.578200
C58	C	-0.003324	2.680971	-0.078200
C59	C	-0.503343	1.734506	-0.266354
C60	C	-0.003343	2.234506	0.233646
C61	C	-0.503098	1.734699	-0.132955
C62	C	-0.003098	2.234699	0.367045
H63	H	-0.898203	1.869999	-0.442924
H64	H	-0.398203	2.369999	0.057076
H65	H	-1.107327	1.870133	-0.442971
H66	H	-0.607327	2.370133	0.057029
F67	F	-1.056386	1.652965	-0.659784
F68	F	-0.556386	2.152965	-0.159784
H69	H	-0.935511	1.672087	-0.640598
H70	H	-0.435511	2.172087	-0.140598
