data_functionalizedCrystal
_audit_creation_method	'MofGen! by Chris Wilmer'
_symmetry_space_group_name_H-M	'P1'
_symmetry_Int_Tables_number	1
_symmetry_cell_setting	triclinic
loop_
_symmetry_equiv_pos_as_xyz
  x,y,z
_cell_length_a	11.169416
_cell_length_b	11.169417
_cell_length_c	11.169409
_cell_angle_alpha	89.980176
_cell_angle_beta	89.968635
_cell_angle_gamma	90.011027
loop_
_atom_site_label
_atom_site_type_symbol
_atom_site_fract_x
_atom_site_fract_y
_atom_site_fract_z
Zn1	Zn	-0.477682	1.834964	-0.678551
Zn2	Zn	-0.227682	2.084964	-0.428551
Zn3	Zn	0.022318	2.334964	-0.178551
Zn4	Zn	0.272318	2.584964	0.071449
Zn5	Zn	-0.678422	1.834854	-0.477871
Zn6	Zn	-0.428422	2.084854	-0.227871
Zn7	Zn	-0.178422	2.334854	0.022129
Zn8	Zn	0.071578	2.584854	0.272129
Zn9	Zn	-0.477755	1.634250	-0.477885
Zn10	Zn	-0.227755	1.884250	-0.227885
Zn11	Zn	0.022245	2.134250	0.022115
Zn12	Zn	0.272245	2.384250	0.272115
Zn13	Zn	-0.678325	1.634258	-0.678516
Zn14	Zn	-0.428325	1.884258	-0.428516
Zn15	Zn	-0.178325	2.134258	-0.178516
Zn16	Zn	0.071675	2.384258	0.071484
O17	O	-0.578046	1.734581	-0.578206
O18	O	-0.328046	1.984581	-0.328206
O19	O	-0.078046	2.234581	-0.078206
O20	O	0.171954	2.484581	0.171794
O21	O	-0.504321	2.002899	-0.651939
O22	O	-0.254321	2.252899	-0.401939
O23	O	-0.004321	2.502899	-0.151939
O24	O	0.245679	2.752899	0.098061
O25	O	-0.651875	1.808194	-0.309923
O26	O	-0.401875	2.058194	-0.059923
O27	O	-0.151875	2.308194	0.190077
O28	O	0.098125	2.558194	0.440077
O29	O	-0.309796	1.660918	-0.504524
O30	O	-0.059796	1.910918	-0.254524
O31	O	0.190204	2.160918	-0.004524
O32	O	0.440204	2.410918	0.245476
O33	O	-0.651804	2.002818	-0.504500
O34	O	-0.401804	2.252818	-0.254500
O35	O	-0.151804	2.502818	-0.004500
O36	O	0.098196	2.752818	0.245500
O37	O	-0.309742	1.808381	-0.651953
O38	O	-0.059742	2.058381	-0.401953
O39	O	0.190258	2.308381	-0.151953
O40	O	0.440258	2.558381	0.098047
O41	O	-0.504445	1.660811	-0.309934
O42	O	-0.254445	1.910811	-0.059934
O43	O	-0.004445	2.160811	0.190066
O44	O	0.245555	2.410811	0.440066
O45	O	-0.504351	1.466301	-0.504491
O46	O	-0.254351	1.716301	-0.254491
O47	O	-0.004351	1.966301	-0.004491
O48	O	0.245649	2.216301	0.245509
O49	O	-0.651637	1.660931	-0.846470
O50	O	-0.401637	1.910931	-0.596470
O51	O	-0.151637	2.160931	-0.346470
O52	O	0.098363	2.410931	-0.096470
O53	O	-0.651708	1.466307	-0.651893
O54	O	-0.401708	1.716307	-0.401893
O55	O	-0.151708	1.966307	-0.151893
O56	O	0.098292	2.216307	0.098107
O57	O	-0.504226	1.808389	-0.846496
O58	O	-0.254226	2.058389	-0.596496
O59	O	-0.004226	2.308389	-0.346496
O60	O	0.245774	2.558389	-0.096496
O61	O	-0.846359	1.808202	-0.504467
O62	O	-0.596359	2.058202	-0.254467
O63	O	-0.346359	2.308202	-0.004467
O64	O	-0.096359	2.558202	0.245533
O65	O	-0.846287	1.660825	-0.651880
O66	O	-0.596287	1.910825	-0.401880
O67	O	-0.346287	2.160825	-0.151880
O68	O	-0.096287	2.410825	0.098120
C69	C	-0.578028	1.422757	-0.578190
C70	C	-0.328028	1.672757	-0.328190
C71	C	-0.078028	1.922757	-0.078190
C72	C	0.171972	2.172757	0.171810
C73	C	-0.578049	1.289357	-0.578212
C74	C	-0.328049	1.539357	-0.328212
C75	C	-0.078049	1.789357	-0.078212
C76	C	0.171951	2.039357	0.171788
C77	C	-0.889871	1.734535	-0.578194
C78	C	-0.639871	1.984535	-0.328194
C79	C	-0.389871	2.234535	-0.078194
C80	C	-0.139871	2.484535	0.171806
C81	C	-1.023271	1.734625	-0.578229
C82	C	-0.773271	1.984625	-0.328229
C83	C	-0.523271	2.234625	-0.078229
C84	C	-0.273271	2.484625	0.171771
C85	C	-0.265004	1.734661	-0.578244
C86	C	-0.015004	1.984661	-0.328244
C87	C	0.234996	2.234661	-0.078244
C88	C	0.484996	2.484661	0.171756
C89	C	-0.131604	1.734695	-0.578260
C90	C	0.118396	1.984695	-0.328260
C91	C	0.368396	2.234695	-0.078260
C92	C	0.618396	2.484695	0.171740
C93	C	-0.577913	1.734674	-0.891248
C94	C	-0.327913	1.984674	-0.641248
C95	C	-0.077913	2.234674	-0.391248
C96	C	0.172087	2.484674	-0.141248
C97	C	-0.577856	1.734713	-1.024649
C98	C	-0.327856	1.984713	-0.774649
C99	C	-0.077856	2.234713	-0.524649
C100	C	0.172144	2.484713	-0.274649
C101	C	-0.578065	2.047624	-0.578222
C102	C	-0.328065	2.297624	-0.328222
C103	C	-0.078065	2.547624	-0.078222
C104	C	0.171935	2.797624	0.171778
C105	C	-0.578073	2.181024	-0.578229
C106	C	-0.328073	2.431024	-0.328229
C107	C	-0.078073	2.681024	-0.078229
C108	C	0.171927	2.931024	0.171771
C109	C	-0.578092	1.734559	-0.266381
C110	C	-0.328092	1.984559	-0.016381
C111	C	-0.078092	2.234559	0.233619
C112	C	0.171908	2.484559	0.483619
C113	C	-0.577811	1.734752	-0.132982
C114	C	-0.327811	1.984752	0.117018
C115	C	-0.077811	2.234752	0.367018
C116	C	0.172189	2.484752	0.617018
