data_functionalizedCrystal
_audit_creation_method	'MofGen! by Chris Wilmer'
_symmetry_space_group_name_H-M	'P1'
_symmetry_Int_Tables_number	1
_symmetry_cell_setting	triclinic
loop_
_symmetry_equiv_pos_as_xyz
  x,y,z
_cell_length_a	19.121102
_cell_length_b	16.625546
_cell_length_c	16.625539
_cell_angle_alpha	90.030397
_cell_angle_beta	87.540653
_cell_angle_gamma	92.423284
loop_
_atom_site_label
_atom_site_type_symbol
_atom_site_fract_x
_atom_site_fract_y
_atom_site_fract_z
Zn1	Zn	1.073748	0.373670	-0.508418
Zn2	Zn	1.407082	0.707004	-0.175085
Zn3	Zn	1.740415	1.040337	0.158248
Zn4	Zn	1.073664	0.508509	-0.373576
Zn5	Zn	1.406997	0.841843	-0.040243
Zn6	Zn	1.740331	1.175176	0.293090
Zn7	Zn	0.956295	0.367937	-0.367854
Zn8	Zn	1.289629	0.701270	-0.034520
Zn9	Zn	1.622962	1.034604	0.298813
Zn10	Zn	0.956269	0.502702	-0.502624
Zn11	Zn	1.289603	0.836035	-0.169291
Zn12	Zn	1.622936	1.169369	0.164042
O13	O	1.014994	0.438205	-0.438118
O14	O	1.348328	0.771538	-0.104785
O15	O	1.681661	1.104871	0.228548
O16	O	1.172022	0.396387	-0.495351
O17	O	1.505355	0.729720	-0.162018
O18	O	1.838689	1.063053	0.171316
O19	O	1.058070	0.489893	-0.259984
O20	O	1.391404	0.823226	0.073350
O21	O	1.724737	1.156560	0.406683
O22	O	0.971922	0.255867	-0.386530
O23	O	1.305255	0.589201	-0.053197
O24	O	1.638588	0.922534	0.280137
O25	O	1.171960	0.495452	-0.396283
O26	O	1.505293	0.828786	-0.062950
O27	O	1.838627	1.162119	0.270383
O28	O	1.058214	0.260080	-0.489802
O29	O	1.391547	0.593413	-0.156469
O30	O	1.724881	0.926746	0.176865
O31	O	0.971840	0.386615	-0.255779
O32	O	1.305173	0.719949	0.077554
O33	O	1.638507	1.053282	0.410887
O34	O	0.858007	0.380984	-0.380912
O35	O	1.191340	0.714318	-0.047578
O36	O	1.524674	1.047651	0.285755
O37	O	0.971878	0.485555	-0.616226
O38	O	1.305211	0.818888	-0.282893
O39	O	1.638544	1.152221	0.050440
O40	O	0.857988	0.479995	-0.479927
O41	O	1.191322	0.813329	-0.146593
O42	O	1.524655	1.146662	0.186740
O43	O	1.058189	0.390756	-0.620483
O44	O	1.391522	0.724089	-0.287150
O45	O	1.724856	1.057422	0.046183
O46	O	1.058045	0.620569	-0.390665
O47	O	1.391379	0.953902	-0.057332
O48	O	1.724712	1.287236	0.276002
O49	O	0.971796	0.616302	-0.485476
O50	O	1.305129	0.949636	-0.152142
O51	O	1.638463	1.282969	0.181191
C52	C	0.832514	0.429238	-0.429170
C53	C	1.165847	0.762571	-0.095837
C54	C	1.499180	1.095905	0.237497
C55	C	0.754447	0.425422	-0.425361
C56	C	1.087781	0.758755	-0.092028
C57	C	1.421114	1.092088	0.241306
C58	C	1.014928	0.647692	-0.438081
C59	C	1.348261	0.981026	-0.104748
C60	C	1.681595	1.314359	0.228585
C61	C	1.014964	0.737315	-0.438095
C62	C	1.348297	1.070648	-0.104762
C63	C	1.681630	1.403982	0.228571
C64	C	1.015040	0.438147	-0.648429
C65	C	1.348373	0.771480	-0.315096
C66	C	1.681707	1.104813	0.018237
C67	C	1.015059	0.438122	-0.738052
C68	C	1.348393	0.771456	-0.404718
C69	C	1.681726	1.104789	-0.071385
C70	C	0.717780	0.475256	-0.475042
C71	C	1.051114	0.808589	-0.141709
C72	C	1.384447	1.141923	0.191624
C73	C	0.644429	0.471659	-0.471467
C74	C	0.977762	0.804993	-0.138134
C75	C	1.311096	1.138326	0.195199
C76	C	0.607746	0.418232	-0.418206
C77	C	0.941079	0.751565	-0.084873
C78	C	1.274413	1.084898	0.248461
C79	C	0.644418	0.368392	-0.368523
C80	C	0.977752	0.701725	-0.035189
C81	C	1.311085	1.035058	0.298144
C82	C	0.717768	0.371985	-0.372102
C83	C	1.051102	0.705318	-0.038769
C84	C	1.384435	1.038652	0.294564
C85	C	0.386276	0.404796	-0.404826
C86	C	0.719609	0.738129	-0.071493
C87	C	1.052943	1.071463	0.261840
C88	C	0.312921	0.401208	-0.401249
C89	C	0.646254	0.734542	-0.067915
C90	C	0.979587	1.067875	0.265418
C91	C	0.312937	0.504476	-0.504195
C92	C	0.646270	0.837809	-0.170862
C93	C	0.979603	1.171142	0.162472
C94	C	0.386288	0.508067	-0.507766
C95	C	0.719621	0.841401	-0.174433
C96	C	1.052955	1.174734	0.158900
C97	C	0.422954	0.458224	-0.458086
C98	C	0.756287	0.791558	-0.124753
C99	C	1.089620	1.124891	0.208581
C100	C	0.532769	0.414556	-0.414549
C101	C	0.866103	0.747889	-0.081215
C102	C	1.199436	1.081223	0.252118
C103	C	0.497929	0.461897	-0.461748
C104	C	0.831263	0.795230	-0.128415
C105	C	1.164596	1.128563	0.204919
C106	C	1.198188	0.447207	-0.447102
C107	C	1.531521	0.780540	-0.113769
C108	C	1.864854	1.113873	0.219565
C109	C	1.276254	0.451043	-0.450930
C110	C	1.609587	0.784376	-0.117597
C111	C	1.942920	1.117710	0.215736
C112	C	1.015080	0.227900	-0.438174
C113	C	1.348414	0.561233	-0.104841
C114	C	1.681747	0.894567	0.228493
C115	C	1.015117	0.138281	-0.438198
C116	C	1.348450	0.471614	-0.104864
C117	C	1.681783	0.804947	0.228469
C118	C	1.015086	1.065497	-0.438185
C119	C	1.348420	1.398830	-0.104852
C120	C	1.681753	1.732163	0.228481
C121	C	1.015050	0.974186	-0.438163
C122	C	1.348383	1.307520	-0.104829
C123	C	1.681717	1.640853	0.228504
C124	C	1.015024	0.901409	-0.438140
C125	C	1.348358	1.234742	-0.104807
C126	C	1.681691	1.568075	0.228527
C127	C	1.014989	0.810093	-0.438118
C128	C	1.348322	1.143426	-0.104785
C129	C	1.681656	1.476759	0.228549
C130	C	1.015092	0.438033	-1.066229
C131	C	1.348425	0.771367	-0.732896
C132	C	1.681758	1.104700	-0.399562
C133	C	1.015081	0.438061	-0.974920
C134	C	1.348414	0.771394	-0.641587
C135	C	1.681748	1.104727	-0.308253
C136	C	1.015076	0.438078	-0.902143
C137	C	1.348409	0.771412	-0.568810
C138	C	1.681743	1.104745	-0.235477
C139	C	1.015064	0.438104	-0.810828
C140	C	1.348398	0.771438	-0.477495
C141	C	1.681731	1.104771	-0.144162
C142	C	1.014989	0.438206	-0.228627
C143	C	1.348323	0.771539	0.104706
C144	C	1.681656	1.104873	0.438040
C145	C	1.015106	0.438010	-0.139012
C146	C	1.348439	0.771344	0.194321
C147	C	1.681773	1.104677	0.527654
H148	H	0.614578	0.512241	-0.511922
H149	H	0.947911	0.845574	-0.178589
H150	H	1.281245	1.178908	0.154744
H151	H	0.416150	0.551576	-0.551135
H152	H	0.749484	0.884909	-0.217802
H153	H	1.082817	1.218242	0.115531
N154	N	0.537493	0.519527	-0.519185
N155	N	0.870826	0.852860	-0.185852
N156	N	1.204159	1.186193	0.147482
H157	H	0.503137	0.550558	-0.550116
H158	H	0.836470	0.883891	-0.216783
H159	H	1.169803	1.217225	0.116550
H160	H	0.567951	0.488247	-0.558045
H161	H	0.901285	0.821580	-0.224712
H162	H	1.234618	1.154914	0.108621
N163	N	0.425817	0.351027	-0.351258
N164	N	0.759151	0.684360	-0.017925
N165	N	1.092484	1.017694	0.315409
H166	H	0.391447	0.316635	-0.316978
H167	H	0.724780	0.649969	0.016356
H168	H	1.058113	0.983302	0.349689
H169	H	0.456235	0.385274	-0.315363
H170	H	0.789568	0.718607	0.017970
H171	H	1.122902	1.051941	0.351303
H172	H	0.283075	0.545054	-0.544643
H173	H	0.616409	0.878387	-0.211310
H174	H	0.949742	1.211720	0.122024
H175	H	0.747622	0.331400	-0.331651
H176	H	1.080955	0.664733	0.001683
H177	H	1.414288	0.998067	0.335016
H178	H	0.614545	0.324886	-0.325160
H179	H	0.947879	0.658220	0.008174
H180	H	1.281212	0.991553	0.341507
H181	H	0.283056	0.357692	-0.357882
H182	H	0.616389	0.691025	-0.024549
H183	H	0.949722	1.024358	0.308785
N184	N	0.493201	0.356943	-0.357094
N185	N	0.826534	0.690276	-0.023761
N186	N	1.159868	1.023610	0.309573
H187	H	0.527557	0.325918	-0.326157
H188	H	0.860890	0.659251	0.007177
H189	H	1.194223	0.992584	0.340510
H190	H	0.462791	0.318180	-0.388498
H191	H	0.796125	0.651514	-0.055164
H192	H	1.129458	0.984847	0.278169
H193	H	0.747642	0.518766	-0.518411
H194	H	1.080976	0.852099	-0.185077
H195	H	1.414309	1.185432	0.148256
