data_functionalizedCrystal
_audit_creation_method	'MofGen! by Chris Wilmer'
_symmetry_space_group_name_H-M	'P1'
_symmetry_Int_Tables_number	1
_symmetry_cell_setting	triclinic
loop_
_symmetry_equiv_pos_as_xyz
  x,y,z
_cell_length_a	15.698487
_cell_length_b	12.970454
_cell_length_c	12.970454
_cell_angle_alpha	59.999776
_cell_angle_beta	90.001156
_cell_angle_gamma	60.000110
loop_
_atom_site_label
_atom_site_type_symbol
_atom_site_fract_x
_atom_site_fract_y
_atom_site_fract_z
Zr1	Zr	0.820631	1.128496	-0.135269
O2	O	0.684614	1.343590	-0.299900
O3	O	0.862328	0.913405	-0.084800
O4	O	0.862329	1.128494	-0.299891
O5	O	0.684612	1.128501	0.084858
O6	O	1.002513	1.128490	-0.299884
O7	O	0.684613	1.128501	-0.084809
O8	O	1.002511	0.743734	0.084874
O9	O	0.684614	1.513258	-0.299900
O10	O	0.984729	1.001871	-0.063272
O11	O	0.880110	1.001875	0.063344
O12	O	0.880111	1.255115	-0.189898
O13	O	0.775493	1.255119	-0.063282
Zr14	Zr	1.044208	1.128491	0.135340
Zr15	Zr	1.044209	1.128490	-0.135259
Zr16	Zr	0.820629	1.128498	0.135330
Zr17	Zr	0.820631	1.399096	-0.135270
Zr18	Zr	1.044208	0.857891	0.135341
O19	O	1.002511	1.343583	0.084871
O20	O	1.002513	1.343581	-0.299886
O21	O	0.684612	1.343592	0.084857
O22	O	1.180225	0.913397	0.299971
O23	O	1.180227	0.913395	-0.084786
O24	O	0.862325	0.913407	0.299956
O25	O	1.180227	1.128486	-0.084787
O26	O	1.002510	1.128493	0.299962
O27	O	0.862325	1.128497	0.299955
O28	O	1.180226	1.128487	0.084880
O29	O	0.862329	1.513252	-0.299893
O30	O	1.002510	0.743735	0.299964
O31	O	1.180224	0.743730	0.299971
O32	O	1.180226	0.743729	0.084882
O33	O	0.684613	1.513259	-0.084811
O34	O	0.862328	1.513254	-0.084803
O35	O	0.984727	1.001872	0.189969
O36	O	1.089346	1.001869	0.063353
O37	O	0.984729	1.255113	-0.063273
O38	O	0.880110	1.255117	0.063343
C39	C	0.932419	0.790015	0.000037
C40	C	0.932419	0.675138	0.000038
C41	C	0.652757	1.128502	0.000023
C42	C	0.557842	1.128505	0.000019
C43	C	0.480760	1.128508	0.000021
C44	C	0.384063	1.128500	0.000035
C45	C	1.212081	1.128486	0.000048
C46	C	1.306996	1.128483	0.000052
C47	C	0.932421	1.128492	-0.338442
C48	C	0.932422	1.128491	-0.453318
C49	C	0.932419	1.466973	0.000034
C50	C	0.932419	1.581850	0.000033
C51	C	0.932417	1.128496	0.338513
C52	C	0.932417	1.128496	0.453389
C53	C	1.212081	0.790006	0.000050
C54	C	1.306996	0.675127	0.000054
C55	C	0.932417	0.790016	0.338515
C56	C	0.932417	0.675140	0.453391
C57	C	1.212079	0.790008	0.338527
C58	C	1.306993	0.675129	0.453408
C59	C	0.652759	1.466979	-0.338456
C60	C	0.557845	1.581858	-0.453337
C61	C	0.652757	1.466981	0.000021
C62	C	0.557843	1.581861	0.000017
C63	C	0.932421	1.466971	-0.338444
C64	C	0.932422	1.581847	-0.453321
C65	C	1.296960	0.621180	-0.066052
C66	C	1.386134	0.513253	-0.066072
C67	C	1.485343	0.459268	0.000021
C68	C	1.495377	0.513226	0.066129
C69	C	1.406204	0.621158	0.066141
C70	C	1.406185	0.621179	0.441265
C71	C	1.495376	0.513253	0.549198
C72	C	1.485372	0.459272	0.669272
C73	C	1.386170	0.513233	0.681412
C74	C	1.296981	0.621164	0.573481
C75	C	0.458653	1.635822	-0.441194
C76	C	0.369463	1.743781	-0.549127
C77	C	0.379467	1.797768	-0.669201
C78	C	0.478669	1.743800	-0.681341
C79	C	0.567857	1.635850	-0.573410
C80	C	0.567879	1.635819	0.066111
C81	C	0.478705	1.743776	0.066102
C82	C	0.379496	1.797764	0.000005
C83	C	0.369461	1.743801	-0.066098
C84	C	0.458634	1.635854	-0.066095
H85	H	1.216187	0.665133	-0.119888
H86	H	0.450448	1.591924	-0.119914
O87	O	1.591792	0.460596	0.537560
C88	C	1.646659	0.309352	0.596024
H89	H	1.612618	0.263558	0.669593
H90	H	1.732481	0.253450	0.643941
H91	H	1.639246	0.288749	0.521816
H92	H	0.306894	1.885661	0.000014
H93	H	1.216218	0.665077	0.583385
H94	H	0.486802	1.787770	-0.779118
O95	O	0.664133	1.583537	-0.585440
C96	C	0.653823	1.654368	-0.714568
H97	H	0.574229	1.698862	-0.772115
H98	H	0.717764	1.573409	-0.729635
H99	H	0.661139	1.748106	-0.746369
O100	O	0.664268	1.583161	0.130481
C101	C	0.719134	1.431910	0.223238
H102	H	0.661271	1.402364	0.247811
H103	H	0.768448	1.400886	0.311501
H104	H	0.772050	1.370177	0.185409
H105	H	1.378040	0.469266	0.779191
H106	H	0.288674	1.787775	-0.119912
H107	H	1.557945	0.371382	0.000001
O108	O	1.376187	0.460956	-0.130302
C109	C	1.269499	0.531767	-0.188640
H110	H	1.221959	0.576234	-0.136781
H111	H	1.257060	0.450802	-0.185077
H112	H	1.243206	0.625522	-0.291232
H113	H	1.576165	0.469257	0.119939
O114	O	0.449056	1.583420	-0.324494
C115	C	0.497363	1.609820	-0.258119
H116	H	0.558143	1.623241	-0.299336
H117	H	0.536959	1.513947	-0.154240
H118	H	0.436052	1.713614	-0.267106
H119	H	1.414351	0.665115	0.343505
O120	O	0.488280	1.796369	0.130225
C121	C	0.388308	1.903199	0.116086
H122	H	0.329185	1.950448	0.026802
H123	H	0.389319	1.993974	0.108546
H124	H	0.365580	1.851564	0.201476
H125	H	1.414390	0.665069	0.119980
H126	H	1.558003	0.371387	0.757146
O127	O	0.273162	1.796206	-0.537156
C128	C	0.261739	1.858636	-0.470569
H129	H	0.342025	1.809870	-0.411005
H130	H	0.214849	1.834937	-0.406394
H131	H	0.219107	1.981578	-0.540460
H132	H	0.306835	1.885667	-0.757075
