data_functionalizedCrystal
_audit_creation_method	'MofGen! by Chris Wilmer'
_symmetry_space_group_name_H-M	'P1'
_symmetry_Int_Tables_number	1
_symmetry_cell_setting	triclinic
loop_
_symmetry_equiv_pos_as_xyz
  x,y,z
_cell_length_a	10.654551
_cell_length_b	10.654550
_cell_length_c	9.130313
_cell_angle_alpha	90.003780
_cell_angle_beta	90.001552
_cell_angle_gamma	95.514868
loop_
_atom_site_label
_atom_site_type_symbol
_atom_site_fract_x
_atom_site_fract_y
_atom_site_fract_z
O1	O	0.176393	-1.667835	-0.121910
O2	O	0.193199	-1.302356	-0.121885
O3	O	0.002057	-1.493498	-0.121899
O4	O	0.367535	-1.476693	-0.121896
O5	O	0.002062	-1.493496	0.121700
O6	O	0.193204	-1.302354	0.121713
O7	O	0.176398	-1.667832	0.121689
Cu8	Cu	0.184802	-1.485093	0.143944
Cu9	Cu	0.184796	-1.485096	-0.144140
O10	O	0.367540	-1.476691	0.121703
C11	C	-0.044739	-1.492263	-0.000103
C12	C	-0.184182	-1.488570	-0.000112
C13	C	0.191968	-1.255557	-0.000083
C14	C	0.188276	-1.116114	-0.000074
C15	C	0.177629	-1.714632	-0.000117
C16	C	0.181321	-1.854075	-0.000135
C17	C	-0.249696	-1.486839	-0.132895
C18	C	-0.380717	-1.483359	-0.132888
C19	C	-0.380697	-1.483346	0.132696
C20	C	-0.249678	-1.486817	0.132688
C21	C	-0.184201	-1.488592	-0.265696
C22	C	-0.249716	-1.486863	-0.398490
C23	C	-0.380736	-1.483382	-0.398483
C24	C	-0.446241	-1.481632	-0.265682
C25	C	0.414336	-1.477926	-0.000097
C26	C	0.553779	-1.481619	-0.000097
N27	N	0.184805	-1.485100	0.346566
C28	C	0.300817	-1.036629	-0.000095
C29	C	0.297341	-0.905608	-0.000120
C30	C	0.068771	-0.933570	-0.000110
C31	C	0.072249	-1.064589	-0.000074
C32	C	0.416844	-1.088154	-0.000094
C33	C	0.529395	-1.008667	-0.000116
C34	C	0.525918	-0.877647	-0.000142
C35	C	0.409891	-0.826112	-0.000145
N36	N	0.184782	-1.485098	-0.346763
C37	C	0.100196	-1.569760	0.423212
C38	C	0.100181	-1.569756	0.576549
C39	C	0.269395	-1.400430	0.576581
C40	C	0.269403	-1.400428	0.423246
C41	C	0.015599	-1.654431	0.346532
C42	C	-0.069016	-1.739099	0.423178
C43	C	-0.069031	-1.739095	0.576515
C44	C	0.015569	-1.654425	0.653206
H45	H	-0.077518	-1.491429	-0.265716
Cl46	Cl	0.375745	-1.293999	0.672991
H47	H	0.338298	-1.331490	0.360841
Cl48	Cl	0.015618	-1.654445	0.153767
Cl49	Cl	-0.167368	-1.489060	-0.565429
Cl50	Cl	0.405525	-0.661398	-0.000156
H51	H	-0.434073	-1.481961	-0.506609
Cl52	Cl	0.675249	-1.073452	-0.000096
H53	H	-0.025693	-0.891600	-0.000137
Cl54	Cl	-0.610953	-1.477244	-0.265678
Cl55	Cl	0.015533	-1.654416	0.845974
Cl56	Cl	-0.463048	-1.481149	0.299633
Cl57	Cl	-0.175375	-1.845525	0.326771
H58	H	-0.019392	-1.129308	-0.000062
Cl59	Cl	-0.167311	-1.489001	0.299618
Cl60	Cl	-0.175410	-1.845521	0.672869
Cl61	Cl	0.421222	-1.252864	-0.000070
H62	H	0.617562	-0.812931	-0.000145
