data_functionalizedCrystal
_audit_creation_method	'MofGen! by Chris Wilmer'
_symmetry_space_group_name_H-M	'P1'
_symmetry_Int_Tables_number	1
_symmetry_cell_setting	triclinic
loop_
_symmetry_equiv_pos_as_xyz
  x,y,z
_cell_length_a	14.853567
_cell_length_b	10.654562
_cell_length_c	9.130313
_cell_angle_alpha	89.996930
_cell_angle_beta	90.003252
_cell_angle_gamma	95.937483
loop_
_atom_site_label
_atom_site_type_symbol
_atom_site_fract_x
_atom_site_fract_y
_atom_site_fract_z
O1	O	-0.126676	1.666509	-0.121903
O2	O	-0.138729	1.300907	-0.121885
O3	O	-0.001525	1.493474	-0.121878
O4	O	-0.263880	1.473942	-0.121911
O5	O	-0.001529	1.493471	0.121721
O6	O	-0.138732	1.300905	0.121713
O7	O	-0.126680	1.666506	0.121696
Cu8	Cu	-0.132707	1.483705	0.143947
Cu9	Cu	-0.132702	1.483708	-0.144137
O10	O	-0.263883	1.473940	0.121688
C11	C	-0.137843	1.254117	-0.000084
C12	C	-0.135188	1.114703	-0.000076
C13	C	-0.133952	1.049183	0.132698
C14	C	-0.131465	0.918187	0.132674
C15	C	-0.131454	0.918240	-0.132911
C16	C	-0.133935	1.049235	-0.132885
C17	C	-0.133962	1.049151	0.286032
C18	C	-0.131475	0.918155	0.286008
C19	C	-0.297475	1.474826	-0.000116
C20	C	-0.397573	1.477478	-0.000129
C21	C	-0.810783	1.603077	-0.000082
C22	C	-0.830832	1.374304	-0.000073
C23	C	-0.736785	1.371810	-0.000087
C24	C	-0.679732	1.484952	-0.000096
C25	C	-0.716727	1.600587	-0.000092
C26	C	-0.699783	1.256177	-0.000076
C27	C	-0.605730	1.253679	-0.000089
C28	C	-0.548676	1.366822	-0.000109
C29	C	-0.585676	1.482462	-0.000106
C30	C	-0.528624	1.595603	-0.000116
C31	C	-0.565622	1.711245	-0.000123
C32	C	-0.659673	1.713730	-0.000112
C33	C	-0.454625	1.364336	-0.000120
C34	C	-0.434568	1.593113	-0.000125
C35	C	0.032066	1.492588	-0.000077
C36	C	0.132164	1.489936	-0.000073
C37	C	-0.127566	1.713296	-0.000109
C38	C	-0.130220	1.852711	-0.000126
N39	N	-0.132709	1.483713	0.346570
N40	N	-0.132693	1.483711	-0.346759
C41	C	-0.071976	1.569003	0.423225
C42	C	-0.071966	1.568999	0.576562
C43	C	-0.193428	1.398412	0.576575
C44	C	-0.193434	1.398410	0.423240
C45	C	-0.001853	1.667494	0.423219
C46	C	-0.001843	1.667491	0.576556
H47	H	-0.134927	1.102578	-0.241003
N48	N	0.089933	1.640046	0.368092
H49	H	0.083205	1.560820	0.306623
H50	H	0.117141	1.713208	0.306694
H51	H	-0.877289	1.282189	-0.000056
H52	H	-0.242868	1.328960	0.639016
N53	N	-0.221053	1.087421	0.349057
H54	H	-0.207111	1.143305	0.437234
H55	H	-0.253053	1.134981	0.272582
H56	H	-0.071659	1.096058	0.344923
N57	N	-0.258939	1.306417	0.340564
H58	H	-0.249730	1.319356	0.231793
H59	H	-0.247919	1.217318	0.367372
H60	H	-0.689806	1.807879	-0.000080
N61	N	-0.044389	0.879849	0.349040
H62	H	-0.004140	0.957688	0.379517
H63	H	-0.058416	0.823897	0.437135
H64	H	-0.023814	1.758449	0.375653
H65	H	-0.193782	0.871221	0.344865
H66	H	-0.388121	1.685249	-0.000143
H67	H	-0.746241	1.164063	-0.000063
H68	H	-0.519158	1.803364	-0.000122
H69	H	-0.017292	1.763841	0.618166
H70	H	-0.840912	1.697230	-0.000095
H71	H	-0.575615	1.159517	-0.000086
H72	H	-0.130434	0.864920	-0.241039
H73	H	-0.424505	1.270183	-0.000092
N74	N	0.084904	1.628016	0.639570
H75	H	0.126811	1.608941	0.557236
H76	H	0.115071	1.698604	0.701845
