data_functionalizedCrystal
_audit_creation_method	'MofGen! by Chris Wilmer'
_symmetry_space_group_name_H-M	'P1'
_symmetry_Int_Tables_number	1
_symmetry_cell_setting	triclinic
loop_
_symmetry_equiv_pos_as_xyz
  x,y,z
_cell_length_a	18.050591
_cell_length_b	11.169416
_cell_length_c	11.169409
_cell_angle_alpha	90.030874
_cell_angle_beta	90.029184
_cell_angle_gamma	90.006347
loop_
_atom_site_label
_atom_site_type_symbol
_atom_site_fract_x
_atom_site_fract_y
_atom_site_fract_z
Zn1	Zn	1.135445	-0.477838	0.678855
Zn2	Zn	1.135377	-0.678578	0.478177
Zn3	Zn	1.011247	-0.477894	0.478156
Zn4	Zn	1.011251	-0.678463	0.678789
O5	O	1.073330	-0.578193	0.578494
O6	O	1.239361	-0.504491	0.652270
O7	O	1.118880	-0.652028	0.310224
O8	O	1.027749	-0.309937	0.504798
O9	O	1.239311	-0.651974	0.504833
O10	O	1.118997	-0.309895	0.652251
O11	O	1.027682	-0.504587	0.310209
O12	O	0.907323	-0.504475	0.504734
O13	O	1.027757	-0.651779	0.846747
O14	O	0.907326	-0.651833	0.652138
O15	O	1.119001	-0.504380	0.846796
O16	O	1.118885	-0.846513	0.504769
O17	O	1.027690	-0.846428	0.652158
C18	C	1.073301	-0.890018	0.578485
C19	C	1.073356	-1.023418	0.578521
C20	C	0.880378	-0.578149	0.578428
C21	C	0.797832	-0.578158	0.578428
C22	C	0.598358	-0.497932	0.498454
C23	C	0.548957	-0.607406	0.468931
C24	C	0.646702	-0.578195	0.578482
C25	C	0.549021	-0.468759	0.608002
C26	C	0.500717	-0.578220	0.578532
C27	C	0.598388	-0.687726	0.548901
C28	C	0.598457	-0.549005	0.688024
C29	C	0.549078	-0.658555	0.658542
C30	C	0.730800	-0.578178	0.578450
C31	C	0.416620	-0.578249	0.578564
C32	C	1.267036	-0.578239	0.578561
C33	C	1.349581	-0.578258	0.578590
C34	C	1.073387	-0.578060	0.891537
C35	C	1.073411	-0.578003	1.024937
C36	C	1.073380	-0.265151	0.578529
C37	C	1.073401	-0.131751	0.578545
C38	C	1.073316	-0.578239	0.266669
C39	C	1.073436	-0.577958	0.133270
H40	H	0.619997	-0.430130	0.430704
C41	C	0.520022	-0.750365	0.749997
C42	C	0.436032	-0.766751	0.767709
C43	C	0.406975	-0.858565	0.859156
C44	C	0.461908	-0.933993	0.932891
C45	C	0.545904	-0.917609	0.915181
C46	C	0.574960	-0.825795	0.823734
H47	H	0.395362	-0.710913	0.713124
H48	H	0.344796	-0.870693	0.872266
H49	H	0.440399	-1.001959	1.000586
H50	H	0.586573	-0.973447	0.969767
H51	H	0.637140	-0.813667	0.810624
H52	H	0.527216	-0.632114	0.376315
C53	C	0.627859	-0.515586	0.813104
C54	C	0.608433	-0.393230	0.868387
C55	C	0.637837	-0.359795	0.993467
C56	C	0.686667	-0.448717	1.063263
C57	C	0.706094	-0.571081	1.007980
C58	C	0.676690	-0.604516	0.882900
H59	H	0.572285	-0.327397	0.816719
H60	H	0.623455	-0.269212	1.034390
H61	H	0.708433	-0.423966	1.155854
H62	H	0.742243	-0.636913	1.059648
H63	H	0.691072	-0.695099	0.841977
C64	C	0.519727	-0.343722	0.641718
C65	C	0.435694	-0.321105	0.648983
C66	C	0.406402	-0.196067	0.682687
C67	C	0.461143	-0.093644	0.709126
C68	C	0.545181	-0.116257	0.701862
C69	C	0.574473	-0.241296	0.668158
H70	H	0.395167	-0.396927	0.629410
H71	H	0.344192	-0.179327	0.688064
H72	H	0.439460	-0.001083	0.734076
H73	H	0.585709	-0.040436	0.721435
H74	H	0.636684	-0.258036	0.662780
C75	C	0.627553	-0.812803	0.515043
C76	C	0.711565	-0.835888	0.508708
C77	C	0.740732	-0.960961	0.474845
C78	C	0.685885	-1.062949	0.447317
C79	C	0.601867	-1.039867	0.453652
C80	C	0.572700	-0.914795	0.487515
H81	H	0.752171	-0.760388	0.529086
H82	H	0.802928	-0.978047	0.470155
H83	H	0.707475	-1.155535	0.422250
H84	H	0.561261	-1.115368	0.433274
H85	H	0.510504	-0.897709	0.492205
