data_functionalizedCrystal
_audit_creation_method	'MofGen! by Chris Wilmer'
_symmetry_space_group_name_H-M	'P1'
_symmetry_Int_Tables_number	1
_symmetry_cell_setting	triclinic
loop_
_symmetry_equiv_pos_as_xyz
  x,y,z
_cell_length_a	14.044220
_cell_length_b	14.044220
_cell_length_c	16.776229
_cell_angle_alpha	89.992645
_cell_angle_beta	90.002022
_cell_angle_gamma	86.811122
loop_
_atom_site_label
_atom_site_type_symbol
_atom_site_fract_x
_atom_site_fract_y
_atom_site_fract_z
O1	O	1.277172	-0.230170	0.066207
O2	O	1.000500	-0.221864	0.066227
O3	O	1.134683	-0.087681	0.066209
O4	O	1.142989	-0.364353	0.066224
O5	O	1.134663	-0.087671	-0.066367
O6	O	1.000480	-0.221854	-0.066350
O7	O	1.277151	-0.230159	-0.066370
Zn8	Zn	1.138812	-0.226005	-0.087409
Zn9	Zn	1.138839	-0.226019	0.087266
O10	O	1.142968	-0.364342	-0.066352
C11	C	0.964868	-0.218223	-0.000059
C12	C	0.858725	-0.207379	-0.000052
C13	C	1.131037	-0.052054	-0.000079
C14	C	1.120193	0.054088	-0.000079
N15	N	1.138801	-0.225995	-0.206620
C16	C	0.664388	-0.187553	-0.000069
C17	C	0.613258	-0.264467	-0.000068
C18	C	0.505122	-0.253435	-0.000077
C19	C	0.772534	-0.198583	-0.000059
C20	C	1.312783	-0.233800	-0.000082
C21	C	1.418926	-0.244645	-0.000085
C22	C	1.146614	-0.399969	-0.000062
C23	C	1.157459	-0.506112	-0.000057
C24	C	1.100366	0.248426	-0.000067
C25	C	1.177281	0.299556	-0.000070
C26	C	1.166249	0.407692	-0.000063
C27	C	1.111397	0.140280	-0.000074
C28	C	1.198239	-0.166607	-0.248345
C29	C	1.198245	-0.166607	-0.331798
C30	C	1.138816	-0.226000	-0.373523
C31	C	1.079371	-0.285391	-0.331793
C32	C	1.079361	-0.285385	-0.248342
C33	C	1.079407	-0.285412	-0.668340
C34	C	1.079423	-0.285415	-0.751796
C35	C	1.198290	-0.166634	-0.751795
C36	C	1.198281	-0.166629	-0.668345
C37	C	1.138833	-0.226015	-0.626621
C38	C	1.138826	-0.226013	-0.536133
C39	C	1.138826	-0.226007	-0.464010
N40	N	1.138857	-0.226022	0.206477
H41	H	0.650697	-0.338600	-0.000060
C42	C	1.263624	-0.101281	-0.377695
H43	H	1.255111	-0.109779	-0.433371
H44	H	1.328215	-0.117073	-0.364013
H45	H	1.247864	-0.036677	-0.364026
H46	H	1.251414	0.262117	-0.000022
C47	C	1.013984	-0.350716	-0.202445
H48	H	0.978598	-0.386096	-0.239245
H49	H	0.971337	-0.312988	-0.169900
H50	H	1.051688	-0.393384	-0.169881
C51	C	1.014030	-0.350732	-0.797694
H52	H	0.978612	-0.386089	-0.760893
H53	H	1.051721	-0.393406	-0.830242
H54	H	0.971397	-0.312982	-0.830253
H55	H	1.026239	0.285863	-0.000059
H56	H	0.626951	-0.113425	-0.000077
C57	C	1.263610	-0.101272	-0.202454
H58	H	1.299003	-0.065897	-0.239259
H59	H	1.306252	-0.138994	-0.169889
H60	H	1.225898	-0.058600	-0.169913
H61	H	1.246676	-0.118269	-0.634374
C62	C	1.263673	-0.101299	-0.797693
H63	H	1.255162	-0.109797	-0.853370
H64	H	1.328263	-0.117091	-0.784009
H65	H	1.247913	-0.036695	-0.784024
C66	C	1.014026	-0.350743	-0.622454
H67	H	0.978644	-0.386123	-0.659259
H68	H	0.971375	-0.313019	-0.589910
H69	H	1.051729	-0.393412	-0.589891
H70	H	1.030978	-0.333746	-0.365771
