data_functionalizedCrystal
_audit_creation_method	'MofGen! by Chris Wilmer'
_symmetry_space_group_name_H-M	'P1'
_symmetry_Int_Tables_number	1
_symmetry_cell_setting	triclinic
loop_
_symmetry_equiv_pos_as_xyz
  x,y,z
_cell_length_a	9.065218
_cell_length_b	10.868271
_cell_length_c	9.065218
_cell_angle_alpha	89.996715
_cell_angle_beta	94.984115
_cell_angle_gamma	90.004378
loop_
_atom_site_label
_atom_site_type_symbol
_atom_site_fract_x
_atom_site_fract_y
_atom_site_fract_z
O1	O	1.960401	0.102320	-0.216358
O2	O	2.293734	0.435653	0.116976
O3	O	2.627068	0.768987	0.450309
O4	O	1.531116	0.102321	-0.234104
O5	O	1.864450	0.435655	0.099229
O6	O	2.197783	0.768988	0.432562
O7	O	1.754632	0.102318	-0.010589
O8	O	2.087965	0.435651	0.322745
O9	O	2.421299	0.768985	0.656078
O10	O	1.736885	0.102323	-0.439873
O11	O	2.070219	0.435656	-0.106540
O12	O	2.403552	0.768990	0.226793
O13	O	1.754613	-0.102327	-0.010580
O14	O	2.087947	0.231007	0.322754
O15	O	2.421280	0.564340	0.656087
O16	O	1.531098	-0.102323	-0.234095
O17	O	1.864431	0.231010	0.099238
O18	O	2.197764	0.564343	0.432571
O19	O	1.960382	-0.102325	-0.216349
O20	O	2.293716	0.231009	0.116985
O21	O	2.627049	0.564342	0.450318
Zn22	Zn	1.745737	-0.134816	-0.225221
Zn23	Zn	2.079070	0.198517	0.108113
Zn24	Zn	2.412404	0.531851	0.441446
Zn25	Zn	1.745762	0.134812	-0.225232
Zn26	Zn	2.079095	0.468146	0.108101
Zn27	Zn	2.412428	0.801479	0.441434
O28	O	1.736867	-0.102322	-0.439864
O29	O	2.070200	0.231012	-0.106531
O30	O	2.403533	0.564345	0.226802
C31	C	1.476120	-0.000001	-0.232394
C32	C	1.809454	0.333332	0.100939
C33	C	2.142787	0.666666	0.434273
C34	C	1.312277	-0.000000	-0.227294
C35	C	1.645611	0.333333	0.106039
C36	C	1.978944	0.666666	0.439372
N37	N	1.745731	-0.318830	-0.225212
N38	N	2.079064	0.014503	0.108122
N39	N	2.412398	0.347837	0.441455
C40	C	1.745754	-0.569836	-0.225229
C41	C	2.079087	-0.236503	0.108104
C42	C	2.412421	0.096831	0.441437
C43	C	1.745736	-0.430158	-0.225224
C44	C	2.079070	-0.096825	0.108110
C45	C	2.412403	0.236508	0.441443
C46	C	2.015378	0.000000	-0.218059
C47	C	2.348712	0.333333	0.115275
C48	C	2.682045	0.666667	0.448608
C49	C	2.179221	0.000008	-0.223158
C50	C	2.512555	0.333341	0.110175
C51	C	2.845888	0.666674	0.443508
C52	C	1.752917	-0.000002	0.044403
C53	C	2.086250	0.333331	0.377736
C54	C	2.419584	0.666664	0.711069
C55	C	1.747817	0.000004	0.208245
C56	C	2.081151	0.333337	0.541579
C57	C	2.414484	0.666670	0.874912
N58	N	1.745779	0.318826	-0.225230
N59	N	2.079113	0.652160	0.108104
N60	N	2.412446	0.985493	0.441437
C61	C	1.738582	0.000001	-0.494855
C62	C	2.071915	0.333335	-0.161522
C63	C	2.405248	0.666668	0.171811
C64	C	1.743681	0.000004	-0.658698
C65	C	2.077015	0.333337	-0.325365
C66	C	2.410348	0.666670	0.007968
