data_functionalizedCrystal
_audit_creation_method	'MofGen! by Chris Wilmer'
_symmetry_space_group_name_H-M	'P1'
_symmetry_Int_Tables_number	1
_symmetry_cell_setting	triclinic
loop_
_symmetry_equiv_pos_as_xyz
  x,y,z
_cell_length_a	15.297475
_cell_length_b	12.759399
_cell_length_c	12.759393
_cell_angle_alpha	90.030906
_cell_angle_beta	80.311482
_cell_angle_gamma	99.681823
loop_
_atom_site_label
_atom_site_type_symbol
_atom_site_fract_x
_atom_site_fract_y
_atom_site_fract_z
Zn1	Zn	1.379347	0.696607	-0.871588
Zn2	Zn	1.379252	0.872304	-0.695888
Zn3	Zn	1.228467	0.666207	-0.665561
Zn4	Zn	1.228459	0.841791	-0.841181
O5	O	1.303881	0.769227	-0.768555
O6	O	1.505586	0.745406	-0.873699
O7	O	1.359214	0.845011	-0.544837
O8	O	1.248525	0.523227	-0.692925
O9	O	1.505516	0.874490	-0.744613
O10	O	1.359375	0.545562	-0.844292
O11	O	1.248433	0.693593	-0.522556
O12	O	1.102215	0.664006	-0.663440
O13	O	1.248511	0.822485	-0.992243
O14	O	1.102209	0.793007	-0.792467
O15	O	1.359368	0.715819	-1.014583
O16	O	1.359206	1.015269	-0.715128
O17	O	1.248419	0.992851	-0.821873
C18	C	1.303826	1.042183	-0.768520
C19	C	1.303885	1.158972	-0.768556
C20	C	1.069476	0.721897	-0.721364
C21	C	0.969196	0.701675	-0.701200
C22	C	1.303949	0.769140	-1.042602
C23	C	1.303978	0.769103	-1.159384
C24	C	0.686612	0.913769	-0.912670
C25	C	0.780830	0.932777	-0.931612
C26	C	0.827926	0.875003	-0.874011
C27	C	0.780796	0.798218	-0.797464
C28	C	0.686569	0.779214	-0.778514
C29	C	0.827883	0.740448	-0.739855
C30	C	0.780752	0.663663	-0.663309
C31	C	0.686534	0.644662	-0.644363
C32	C	0.639438	0.702436	-0.701964
C33	C	0.922109	0.759452	-0.758805
C34	C	0.922066	0.624897	-0.624649
C35	C	0.827848	0.605889	-0.605708
C36	C	1.539202	0.816743	-0.815931
C37	C	1.639482	0.836991	-0.836120
C38	C	1.303961	0.495210	-0.768618
C39	C	1.303996	0.378440	-0.768645
C40	C	1.361638	1.225485	-0.713063
C41	C	1.361696	1.335221	-0.713110
C42	C	1.246240	1.311919	-0.824144
C43	C	1.246188	1.202186	-0.824103
C44	C	1.361705	0.713552	-1.225881
C45	C	1.361720	0.713510	-1.335609
C46	C	1.246278	0.824578	-1.312331
C47	C	1.246259	0.824613	-1.202605
C48	C	1.303866	0.769249	-0.495584
C49	C	1.304012	0.769025	-0.378837
H50	H	0.960474	0.821970	-0.821131
C51	C	1.475836	0.603742	-1.347590
C52	C	1.425181	0.652452	-1.408703
H53	H	1.515018	0.566052	-1.392719
H54	H	1.436535	0.555634	-1.296887
H55	H	1.510320	0.656512	-1.311732
H56	H	1.390691	0.599681	-1.444556
H57	H	1.464486	0.700564	-1.459426
C58	C	1.233534	1.076140	-0.962836
C59	C	1.182701	1.129067	-0.885108
H60	H	1.194343	1.031006	-1.000501
H61	H	1.267883	1.034704	-0.929752
H62	H	1.272842	1.126821	-1.010981
H63	H	1.143399	1.078387	-0.836958
H64	H	1.148338	1.170506	-0.918194
H65	H	1.199288	0.869775	-1.347536
C66	C	1.195048	1.469784	-0.873499
C67	C	1.182812	1.359423	-0.885186
H68	H	1.155882	1.499106	-0.911177
H69	H	1.255659	1.499925	-0.901144
H70	H	1.181884	1.485166	-0.800246
H71	H	1.195982	1.344042	-0.958439
H72	H	1.122186	1.329272	-0.857546
C73	C	0.695957	0.513562	-0.513664
C74	C	0.634726	0.560264	-0.560219
H75	H	0.663972	0.461454	-0.461723
H76	H	0.732682	0.566693	-0.480782
H77	H	0.732732	0.480850	-0.566917
H78	H	0.597955	0.592982	-0.506967
H79	H	0.597986	0.507123	-0.593102
H80	H	0.904643	0.890483	-0.889438
H81	H	0.648258	0.960806	-0.959554
C82	C	1.027970	0.631484	-0.504656
C83	C	0.973826	0.561384	-0.561330
H84	H	1.059932	0.592278	-0.465573
H85	H	0.991191	0.669781	-0.456993
H86	H	1.069518	0.679923	-0.552971
H87	H	0.932273	0.512950	-0.513014
H88	H	1.010608	0.523069	-0.608997
C89	C	1.475801	1.347222	-0.603343
C90	C	1.425175	1.408331	-0.652105
H91	H	1.514988	1.392359	-0.565674
H92	H	1.510271	1.311313	-0.656074
H93	H	1.436476	1.296559	-0.555195
H94	H	1.464500	1.458988	-0.700258
H95	H	1.390703	1.444257	-0.599367
H96	H	0.562718	0.686962	-0.686548
C97	C	1.194969	0.873978	-1.024064
C98	C	1.182800	0.885678	-1.129501
H99	H	1.155787	0.911668	-0.978933
H100	H	1.255572	0.901602	-1.018293
H101	H	1.181784	0.800726	-1.003455
H102	H	1.195990	0.958930	-1.150112
H103	H	1.122183	0.858058	-1.135276
C104	C	1.374176	1.104734	-0.574234
C105	C	1.425063	1.177983	-0.652015
H106	H	1.413335	1.075417	-0.536543
H107	H	1.339782	1.049419	-0.607278
H108	H	1.334909	1.139695	-0.526121
H109	H	1.464325	1.143020	-0.700133
H110	H	1.459472	1.233306	-0.618969
H111	H	1.408701	0.668348	-1.190694
H112	H	0.819197	0.995297	-0.993934
H113	H	0.789461	0.543370	-0.543382
