data_functionalizedCrystal
_audit_creation_method	'MofGen! by Chris Wilmer'
_symmetry_space_group_name_H-M	'P1'
_symmetry_Int_Tables_number	1
_symmetry_cell_setting	triclinic
loop_
_symmetry_equiv_pos_as_xyz
  x,y,z
_cell_length_a	10.489741
_cell_length_b	10.489741
_cell_length_c	15.455301
_cell_angle_alpha	92.975093
_cell_angle_beta	92.972980
_cell_angle_gamma	84.539174
loop_
_atom_site_label
_atom_site_type_symbol
_atom_site_fract_x
_atom_site_fract_y
_atom_site_fract_z
O1	O	1.699080	0.184993	0.072077
O2	O	1.327885	0.201887	0.072091
O3	O	1.521929	0.007842	0.072078
O4	O	1.505037	0.379038	0.072089
O5	O	1.511852	-0.002222	-0.072184
O6	O	1.317808	0.191823	-0.072172
O7	O	1.689003	0.174929	-0.072185
Cu8	Cu	1.502485	0.182457	-0.085351
Cu9	Cu	1.514403	0.194359	0.085256
O10	O	1.494959	0.368974	-0.072173
C11	C	1.275315	0.195579	-0.000039
C12	C	1.133686	0.191762	-0.000034
C13	C	1.065545	0.068297	-0.000046
C14	C	0.978387	0.131582	0.071083
C15	C	0.968486	0.121689	-0.071149
C16	C	1.048397	0.255103	0.071154
C17	C	1.038501	0.245188	-0.071142
C18	C	0.951371	0.308565	0.000004
C19	C	1.515614	-0.044722	-0.000052
C20	C	1.511797	-0.186351	-0.000051
C21	C	1.388333	-0.254491	-0.000040
C22	C	1.441688	-0.351575	-0.071171
C23	C	1.451653	-0.341628	0.071061
C24	C	1.565199	-0.281575	-0.071240
C25	C	1.575151	-0.271613	0.071055
C26	C	1.628594	-0.368672	-0.000093
C27	C	1.741573	0.181237	-0.000054
C28	C	1.883203	0.185054	-0.000053
C29	C	1.501274	0.421538	-0.000041
C30	C	1.505091	0.563168	-0.000037
N31	N	1.494113	0.174085	-0.205347
C32	C	1.569018	0.249043	-0.250738
C33	C	1.562703	0.242704	-0.341546
C34	C	1.481475	0.161412	-0.386962
C35	C	1.406567	0.086445	-0.341564
C36	C	1.412890	0.092779	-0.250758
C37	C	1.454200	0.134087	-0.658544
C38	C	1.447881	0.127762	-0.749357
C39	C	1.604019	0.284020	-0.749333
C40	C	1.610328	0.290352	-0.658524
C41	C	1.535426	0.215380	-0.613135
N42	N	1.475015	0.154934	-0.479782
N43	N	1.541893	0.221853	-0.520316
N44	N	1.522786	0.202721	0.205252
H45	H	1.286817	-0.204844	-0.000108
H46	H	1.065346	0.293191	-0.131277
H47	H	1.631548	-0.236373	0.131191
Br48	Br	1.371546	-0.386284	0.171284
Br49	Br	1.664365	0.344438	-0.403145
Br50	Br	1.645193	-0.237197	-0.171582
Br51	Br	1.148308	-0.100887	0.000062
Br52	Br	1.705666	0.385762	-0.810937
Br53	Br	1.347622	-0.410255	-0.171398
Br54	Br	1.679256	0.359378	-0.189111
H55	H	1.083430	0.311503	0.131355
H56	H	1.730194	-0.418099	-0.000137
H57	H	0.951573	0.083537	0.131215
H58	H	0.901950	0.410171	0.000046
H59	H	1.676476	0.356545	-0.621553
Br60	Br	0.909851	0.027594	-0.171377
H61	H	1.381728	0.061565	-0.786332
Br62	Br	1.352494	0.032391	-0.596955
H63	H	1.340436	0.020249	-0.378549
Br64	Br	1.311247	-0.008973	-0.189154
