data_functionalizedCrystal
_audit_creation_method	'MofGen! by Chris Wilmer'
_symmetry_space_group_name_H-M	'P1'
_symmetry_Int_Tables_number	1
_symmetry_cell_setting	triclinic
loop_
_symmetry_equiv_pos_as_xyz
  x,y,z
_cell_length_a	15.995350
_cell_length_b	17.666332
_cell_length_c	19.188924
_cell_angle_alpha	90.008552
_cell_angle_beta	83.317170
_cell_angle_gamma	90.005705
loop_
_atom_site_label
_atom_site_type_symbol
_atom_site_fract_x
_atom_site_fract_y
_atom_site_fract_z
O1	O	1.110659	0.062888	0.089998
O2	O	1.610659	0.562888	0.589998
O3	O	0.866843	0.062904	0.101111
O4	O	1.366843	0.562904	0.601111
O5	O	0.995790	0.062886	-0.006084
O6	O	1.495790	0.562886	0.493916
O7	O	0.981712	0.062905	0.197192
O8	O	1.481712	0.562905	0.697192
O9	O	0.995767	-0.063010	-0.006089
O10	O	1.495767	0.436990	0.493911
O11	O	0.866820	-0.062993	0.101105
O12	O	1.366820	0.437007	0.601105
O13	O	1.110636	-0.063009	0.089992
O14	O	1.610636	0.436991	0.589992
Cu15	Cu	0.988726	-0.074496	0.095548
Cu16	Cu	1.488726	0.425504	0.595548
Cu17	Cu	0.988753	0.074391	0.095555
Cu18	Cu	1.488753	0.574391	0.595555
O19	O	0.981689	-0.062992	0.197187
O20	O	1.481689	0.437008	0.697187
C21	C	0.835638	-0.000043	0.100649
C22	C	1.335638	0.499957	0.600649
C23	C	0.742693	-0.000037	0.099271
C24	C	1.242693	0.499963	0.599271
C25	C	0.404964	-0.000053	0.094325
C26	C	0.904964	0.499947	0.594325
C27	C	0.452680	-0.000341	0.017982
C28	C	0.952680	0.499659	0.517982
C29	C	0.549365	-0.000052	0.019360
C30	C	1.049365	0.499948	0.519360
C31	C	0.572515	-0.000046	0.096778
C32	C	1.072515	0.499954	0.596778
C33	C	0.531302	0.071848	0.134436
C34	C	1.031302	0.571848	0.634436
C35	C	0.434673	0.071903	0.132518
C36	C	0.934673	0.571903	0.632518
C37	C	0.434303	-0.071265	0.134089
C38	C	0.934303	0.428735	0.634089
C39	C	0.531248	-0.072210	0.134071
C40	C	1.031248	0.427790	0.634071
C41	C	0.667208	-0.000039	0.098169
C42	C	1.167208	0.499961	0.598169
C43	C	0.310271	-0.000055	0.092936
C44	C	0.810271	0.499945	0.592936
N45	N	0.988714	-0.179216	0.095543
N46	N	1.488714	0.320784	0.595543
C47	C	1.045830	-0.218833	0.048100
C48	C	1.545830	0.281167	0.548100
C49	C	1.045835	-0.298081	0.048097
C50	C	1.545835	0.201919	0.548097
C51	C	0.988731	-0.337708	0.095548
C52	C	1.488731	0.162292	0.595548
C53	C	0.931604	-0.298081	0.142994
C54	C	1.431604	0.201919	0.642994
C55	C	0.931596	-0.218835	0.142992
C56	C	1.431596	0.281165	0.642992
N57	N	0.977845	-0.462120	0.157328
N58	N	1.477845	0.037880	0.657328
N59	N	0.977858	-0.537401	0.157328
N60	N	1.477858	-0.037401	0.657328
C61	C	0.988753	-0.576472	0.095558
C62	C	1.488753	-0.076472	0.595558
N63	N	0.999651	-0.537419	0.033785
N64	N	1.499651	-0.037419	0.533785
N65	N	0.999642	-0.462131	0.033786
N66	N	1.499642	0.037869	0.533786
C67	C	0.988734	-0.423637	0.095556
C68	C	1.488734	0.076363	0.595556
C69	C	1.045878	-0.702019	0.048108
C70	C	1.545878	-0.202019	0.548108
C71	C	1.045877	-0.781268	0.048104
C72	C	1.545877	-0.281268	0.548104
C73	C	0.931651	-0.781266	0.143007
C74	C	1.431651	-0.281266	0.643007
C75	C	0.931648	-0.702019	0.143005
C76	C	1.431648	-0.202019	0.643005
C77	C	0.988766	-0.662400	0.095556
C78	C	1.488766	-0.162400	0.595556
C79	C	1.141841	-0.000061	0.090454
C80	C	1.641841	0.499939	0.590454
C81	C	1.234786	-0.000062	0.091832
C82	C	1.734786	0.499938	0.591832
C83	C	0.995324	-0.000063	-0.032099
C84	C	1.495324	0.499937	0.467901
C85	C	0.993958	-0.000065	-0.109607
C86	C	1.493958	0.499935	0.390393
N87	N	0.988772	0.179111	0.095554
N88	N	1.488772	0.679111	0.595554
C89	C	0.993333	0.068562	-0.146005
C90	C	1.493333	0.568562	0.353995
C91	C	0.992038	0.068568	-0.218831
C92	C	1.492038	0.568568	0.281169
C93	C	0.991385	-0.000057	-0.255258
C94	C	1.491385	0.499943	0.244742
C95	C	0.992005	-0.068692	-0.218851
C96	C	1.492005	0.431308	0.281149
C97	C	0.993292	-0.068696	-0.146026
C98	C	1.493292	0.431304	0.353974
N99	N	1.037003	-0.051136	-0.374808
N100	N	1.537003	0.448864	0.125192
N101	N	1.035783	-0.051127	-0.443989
N102	N	1.535783	0.448873	0.056011
C103	C	0.987506	-0.000049	-0.474677
C104	C	1.487506	0.499951	0.025323
N105	N	0.940507	0.051031	-0.433572
N106	N	1.440507	0.551031	0.066428
N107	N	0.941731	0.051025	-0.364384
N108	N	1.441731	0.551025	0.135616
C109	C	0.989989	-0.000060	-0.334225
C110	C	1.489989	0.499940	0.165775
C111	C	0.985476	0.068588	-0.590041
C112	C	1.485476	0.568588	-0.090041
C113	C	0.984176	0.068591	-0.662868
C114	C	1.484176	0.568591	-0.162868
C115	C	0.984151	-0.068671	-0.662888
C116	C	1.484151	0.431329	-0.162888
C117	C	0.985443	-0.068672	-0.590062
C118	C	1.485443	0.431328	-0.090062
C119	C	0.986109	-0.000040	-0.553643
C120	C	1.486109	0.499960	-0.053643
C121	C	0.982155	-0.000041	0.223202
C122	C	1.482155	0.499959	0.723202
C123	C	0.983521	-0.000034	0.300710
C124	C	1.483521	0.499966	0.800710
H125	H	0.545217	0.074526	0.191313
H126	H	1.045217	0.574526	0.691313
H127	H	0.985959	-0.124555	-0.560427
H128	H	1.485959	0.375445	-0.060427
H129	H	0.991471	-0.124567	-0.248515
H130	H	1.491471	0.375433	0.251485
H131	H	0.546404	-0.076548	0.190526
H132	H	1.046404	0.423452	0.690526
H133	H	0.577894	-0.051589	-0.010241
H134	H	1.077894	0.448411	0.489759
H135	H	0.434261	-0.051899	-0.012536
H136	H	0.934261	0.448101	0.487464
H137	H	0.983613	-0.124546	-0.692546
H138	H	1.483613	0.375454	-0.192546
H139	H	0.433207	0.050927	-0.012391
H140	H	0.933207	0.550927	0.487609
H141	H	0.577342	0.051569	-0.010436
H142	H	1.077342	0.551569	0.489564
H143	H	0.416476	0.125641	0.105061
H144	H	0.916476	0.625641	0.605061
H145	H	0.402218	0.075170	0.188567
H146	H	0.902218	0.575170	0.688567
H147	H	0.559782	0.125348	0.108285
H148	H	1.059782	0.625348	0.608285
H149	H	0.413850	-0.125759	0.109129
H150	H	0.913850	0.374241	0.609129
H151	H	0.558657	-0.125397	0.106581
H152	H	1.058657	0.374603	0.606581
H153	H	1.092385	-0.669760	0.009470
H154	H	1.592385	-0.169760	0.509470
H155	H	1.092337	-0.186578	0.009463
H156	H	1.592337	0.313422	0.509463
H157	H	0.402334	-0.071747	0.190376
H158	H	0.902334	0.428253	0.690376
H159	H	1.092347	-0.330343	0.009462
H160	H	1.592347	0.169657	0.509462
H161	H	1.092385	-0.813525	0.009466
H162	H	1.592385	-0.313525	0.509466
H163	H	0.986013	0.124472	-0.560386
H164	H	1.486013	0.624472	-0.060386
H165	H	0.885109	-0.330349	0.181629
H166	H	1.385109	0.169651	0.681629
H167	H	0.993873	0.124447	-0.116357
H168	H	1.493873	0.624447	0.383643
H169	H	0.885153	-0.813530	0.181640
H170	H	1.385153	-0.313530	0.681640
H171	H	0.885084	-0.186578	0.181626
H172	H	1.385084	0.313422	0.681626
H173	H	0.885142	-0.669760	0.181640
H174	H	1.385142	-0.169760	0.681640
H175	H	0.991524	0.124453	-0.248471
H176	H	1.491524	0.624453	0.251529
H177	H	0.993797	-0.124582	-0.116391
H178	H	1.493797	0.375418	0.383609
H179	H	0.983662	0.124478	-0.692501
H180	H	1.483662	0.624478	-0.192501
