data_functionalizedCrystal
_audit_creation_method	'MofGen! by Chris Wilmer'
_symmetry_space_group_name_H-M	'P1'
_symmetry_Int_Tables_number	1
_symmetry_cell_setting	triclinic
loop_
_symmetry_equiv_pos_as_xyz
  x,y,z
_cell_length_a	12.837943
_cell_length_b	10.654541
_cell_length_c	11.295483
_cell_angle_alpha	94.135029
_cell_angle_beta	85.461227
_cell_angle_gamma	89.656434
loop_
_atom_site_label
_atom_site_type_symbol
_atom_site_fract_x
_atom_site_fract_y
_atom_site_fract_z
O1	O	1.384727	0.319125	-0.099003
O2	O	1.082806	0.302983	-0.099010
O3	O	1.240709	0.129073	-0.098999
O4	O	1.226824	0.493035	-0.099014
O5	O	1.226840	0.144321	0.099051
O6	O	1.068937	0.318232	0.099040
O7	O	1.370858	0.334373	0.099047
Cu8	Cu	1.218631	0.327695	0.117127
Cu9	Cu	1.235033	0.309662	-0.117090
O10	O	1.212955	0.508284	0.099036
C11	C	1.037211	0.305155	0.000014
C12	C	0.922018	0.288892	0.000012
C13	C	0.682463	0.484397	0.000021
C14	C	0.574227	0.469123	0.000019
C15	C	0.597309	0.243071	0.000016
C16	C	0.705544	0.258345	0.000017
C17	C	0.748117	0.379012	0.000018
C18	C	0.856355	0.394285	0.000011
C19	C	0.879434	0.168234	0.000016
C20	C	0.771198	0.152960	0.000014
C21	C	1.232755	0.089788	0.000025
C22	C	1.229706	-0.049989	0.000023
C23	C	1.418522	-0.057353	0.000043
C24	C	1.511493	-0.126701	0.000055
C25	C	1.508622	-0.258033	0.000051
C26	C	1.412770	-0.320020	0.000031
C27	C	1.319799	-0.250672	0.000019
C28	C	1.322680	-0.119337	0.000027
C29	C	1.130987	-0.243308	-0.000009
C30	C	1.133855	-0.111975	0.000004
C31	C	1.035135	-0.305294	-0.000028
C32	C	0.942161	-0.235946	-0.000032
C33	C	0.945036	-0.104606	-0.000027
C34	C	1.040884	-0.042627	-0.000008
C35	C	1.416452	0.332202	0.000020
C36	C	1.531646	0.348464	0.000015
C37	C	1.220908	0.547569	0.000009
C38	C	1.223958	0.687344	0.000003
N39	N	1.207102	0.340379	0.281862
N40	N	1.246569	0.296969	-0.281825
C41	C	1.329558	0.205592	0.531160
C42	C	1.320854	0.215188	0.655823
C43	C	1.180983	0.369157	0.655854
C44	C	1.189688	0.359562	0.531191
C45	C	1.263979	0.277778	0.468848
C46	C	1.272688	0.268191	0.344183
C47	C	1.132814	0.422153	0.344216
C48	C	1.124109	0.431748	0.468879
H49	H	0.932903	0.082421	0.000006
C50	C	0.973323	0.452832	0.609114
C51	C	1.042454	0.521642	0.537418
H52	H	0.922918	0.508335	0.651431
H53	H	0.939022	0.392299	0.560489
H54	H	1.011145	0.411215	0.664061
H55	H	1.004633	0.563252	0.482466
H56	H	1.076758	0.582198	0.586048
H57	H	1.420868	0.049585	0.000062
C58	C	1.377533	0.007879	0.694188
C59	C	1.392941	0.135839	0.724318
H60	H	1.422043	-0.041108	0.736470
H61	H	1.306775	-0.012514	0.714641
H62	H	1.393351	-0.009522	0.611019
H63	H	1.377115	0.153243	0.807487
H64	H	1.463715	0.156241	0.703873
C65	C	0.986766	-0.499254	-0.101861
C66	C	1.031980	-0.449657	-0.000039
H67	H	0.984824	-0.588378	-0.101868
H68	H	0.917687	-0.466829	-0.101863
H69	H	1.027138	-0.476205	-0.170910
H70	H	0.991604	-0.472698	0.069010
H71	H	1.101071	-0.482093	-0.000027
C72	C	1.360681	0.026489	0.390917
C73	C	1.411234	0.115739	0.462605
H74	H	1.411112	-0.028967	0.348586
H75	H	1.313805	-0.020210	0.439550
H76	H	1.322853	0.068120	0.335984
H77	H	1.449056	0.074108	0.517545
H78	H	1.458128	0.162443	0.413968
H79	H	1.079417	0.480935	0.293467
H80	H	0.717126	0.582649	0.000019
H81	H	0.520775	0.554939	0.000025
H82	H	1.589533	-0.076216	0.000081
H83	H	0.864127	-0.286427	-0.000055
H84	H	0.891016	0.492538	0.000013
H85	H	0.562620	0.144837	0.000113
H86	H	0.736519	0.054717	0.000027
H87	H	1.584328	-0.314497	0.000051
H88	H	1.410442	-0.426958	0.000014
C89	C	0.758108	-0.110531	-0.000058
C90	C	0.842837	-0.028383	-0.000040
H91	H	0.695015	-0.063475	-0.000059
H92	H	0.765761	-0.167214	-0.069121
H93	H	0.756079	-0.156602	0.069009
H94	H	0.844871	0.017681	-0.069111
H95	H	0.835182	0.028322	0.069030
C96	C	0.986470	0.155344	0.101805
C97	C	1.044049	0.101734	0.000002
H98	H	0.988434	0.244467	0.101811
H99	H	0.916089	0.128364	0.101781
H100	H	1.015850	0.129573	0.170866
H101	H	1.014664	0.127498	-0.069060
H102	H	1.114443	0.128727	0.000015
H103	H	1.120490	0.435734	0.706629
H104	H	1.333182	0.201602	0.293425
