data_functionalizedCrystal
_audit_creation_method	'MofGen! by Chris Wilmer'
_symmetry_space_group_name_H-M	'P1'
_symmetry_Int_Tables_number	1
_symmetry_cell_setting	triclinic
loop_
_symmetry_equiv_pos_as_xyz
  x,y,z
_cell_length_a	10.540539
_cell_length_b	10.540539
_cell_length_c	9.616153
_cell_angle_alpha	90.000094
_cell_angle_beta	89.995174
_cell_angle_gamma	95.474508
loop_
_atom_site_label
_atom_site_type_symbol
_atom_site_fract_x
_atom_site_fract_y
_atom_site_fract_z
O1	O	1.685892	-0.178895	-0.115573
O2	O	1.316479	-0.195751	-0.115589
O3	O	1.509614	-0.002617	-0.115579
O4	O	1.492758	-0.372030	-0.115583
O5	O	1.509587	-0.002621	0.115712
O6	O	1.316452	-0.195755	0.115702
O7	O	1.685865	-0.178899	0.115718
Zn8	Zn	1.501155	-0.187328	0.152433
Zn9	Zn	1.501190	-0.187323	-0.152304
O10	O	1.492731	-0.372034	0.115708
C11	C	1.269163	-0.194489	0.000054
C12	C	1.128215	-0.190707	0.000048
C13	C	0.944788	-0.045790	0.000589
C14	C	1.091406	-0.049624	0.000054
C15	C	1.066557	-0.258600	-0.132027
C16	C	0.920013	-0.253785	-0.132123
C17	C	0.919494	-0.256660	0.130899
C18	C	1.066476	-0.257959	0.132630
C19	C	1.508336	0.044684	0.000064
C20	C	1.504554	0.185632	0.000056
C21	C	1.733182	-0.180161	0.000072
C22	C	1.874130	-0.183943	0.000069
C23	C	1.494008	-0.419335	0.000062
C24	C	1.497790	-0.560283	0.000060
N25	N	1.501140	-0.187331	0.360407
C26	C	1.359637	0.369059	-0.000469
C27	C	1.363471	0.222441	0.000052
C28	C	1.572435	0.247288	0.132138
C29	C	1.567620	0.393832	0.132249
C30	C	1.570519	0.394355	-0.130772
C31	C	1.571819	0.247373	-0.132518
N32	N	1.501215	-0.187310	-0.360278
C33	C	1.397510	-0.290298	0.580772
C34	C	1.397739	-0.290684	0.419604
C35	C	1.633864	-0.217464	0.418862
C36	C	1.633299	-0.218193	0.580080
C37	C	1.473368	-0.053892	0.580319
C38	C	1.470321	-0.054757	0.419092
H39	H	0.914592	0.009712	-0.093600
H40	H	1.674680	0.223152	-0.140490
C41	C	1.264505	-0.266212	0.366212
N42	N	1.164145	-0.247788	0.326004
H43	H	1.107427	-0.208361	0.230338
H44	H	1.372683	-0.031917	0.380887
H45	H	0.872044	-0.355250	-0.138119
C46	C	1.565620	0.053752	0.364691
N47	N	1.637417	0.135478	0.323727
C48	C	1.263867	-0.266205	0.633230
N49	N	1.163205	-0.248061	0.672759
C50	C	1.508697	0.189747	0.264922
N51	N	1.460681	0.146409	0.364932
H52	H	1.090701	-0.360819	0.140603
H53	H	1.548980	0.022762	0.618439
C54	C	1.147822	0.023053	-0.128075
N55	N	1.190313	0.077795	-0.224589
H56	H	0.872267	-0.358563	0.131790
C57	C	1.740792	-0.120828	0.632762
N58	N	1.821768	-0.047510	0.672435
H59	H	0.887936	-0.211004	0.231010
H60	H	1.109157	-0.211434	-0.230318
H61	H	1.669084	0.441801	0.138246
C62	C	1.284350	0.407712	-0.128420
N63	N	1.227641	0.436838	-0.224793
H64	H	1.378631	-0.025213	0.621052
C65	C	1.740667	-0.118898	0.367054
N66	N	1.821110	-0.044657	0.328029
H67	H	1.304122	0.399265	0.093714
C68	C	1.712396	0.217064	0.138802
N69	N	1.817812	0.194288	0.143824
H70	H	1.415178	-0.388722	0.621270
C71	C	0.881916	-0.185978	-0.265489
N72	N	0.853228	-0.134898	-0.365941
H73	H	1.309662	0.180683	0.094886
C74	C	1.499802	0.431927	0.265620
N75	N	1.448715	0.460614	0.366075
H76	H	1.088911	-0.362208	-0.136942
C77	C	1.508844	0.436977	-0.266016
N78	N	1.462375	0.469078	-0.367876
H79	H	1.310058	0.179839	-0.094630
H80	H	1.134009	0.003797	0.094731
H81	H	1.658761	-0.313702	0.378472
H82	H	0.916192	0.009944	0.095307
H83	H	1.522152	0.206516	-0.230229
H84	H	1.672423	0.441581	-0.131656
C85	C	1.666176	-0.349700	0.630864
N86	N	1.690930	-0.448758	0.669107
H87	H	1.415638	-0.389668	0.381024
