data_functionalizedCrystal
_audit_creation_method	'MofGen! by Chris Wilmer'
_symmetry_space_group_name_H-M	'P1'
_symmetry_Int_Tables_number	1
_symmetry_cell_setting	triclinic
loop_
_symmetry_equiv_pos_as_xyz
  x,y,z
_cell_length_a	31.640172
_cell_length_b	31.640171
_cell_length_c	16.704494
_cell_angle_alpha	63.419847
_cell_angle_beta	89.995619
_cell_angle_gamma	59.974735
loop_
_atom_site_label
_atom_site_type_symbol
_atom_site_fract_x
_atom_site_fract_y
_atom_site_fract_z
Zr1	Zr	0.409683	0.457305	-0.100435
O2	O	0.345460	0.538907	-0.222361
O3	O	0.429399	0.371126	-0.063028
O4	O	0.433678	0.450694	-0.222323
O5	O	0.337773	0.466151	0.062554
O6	O	0.503235	0.450686	-0.222328
O7	O	0.341181	0.459339	-0.063066
O8	O	0.495580	0.308353	0.062622
O9	O	0.345428	0.608484	-0.222395
O10	O	0.489683	0.408263	-0.047115
O11	O	0.435231	0.413352	0.046638
O12	O	0.440269	0.507033	-0.140912
O13	O	0.385817	0.512123	-0.047159
Zr14	Zr	0.515183	0.468158	0.099906
Zr15	Zr	0.520618	0.457294	-0.100443
Zr16	Zr	0.404249	0.468170	0.099914
Zr17	Zr	0.409632	0.568272	-0.100491
Zr18	Zr	0.515234	0.357191	0.099962
O19	O	0.495467	0.554338	0.062499
O20	O	0.503194	0.538890	-0.222372
O21	O	0.337733	0.554355	0.062510
O22	O	0.579407	0.386557	0.221832
O23	O	0.587133	0.371109	-0.063039
O24	O	0.421672	0.386573	0.221843
O25	O	0.587093	0.459313	-0.063083
O26	O	0.491188	0.474770	0.221794
O27	O	0.421632	0.474777	0.221799
O28	O	0.583686	0.466125	0.062537
O29	O	0.433606	0.608474	-0.222402
O30	O	0.491260	0.316989	0.221873
O31	O	0.579438	0.316980	0.221866
O32	O	0.583758	0.308344	0.062615
O33	O	0.341108	0.617120	-0.063144
O34	O	0.429286	0.617110	-0.063151
O35	O	0.484597	0.418430	0.140383
O36	O	0.539049	0.413341	0.046630
O37	O	0.489635	0.512112	-0.047167
O38	O	0.435183	0.517201	0.046586
C39	C	0.462497	0.323929	-0.000195
C40	C	0.462518	0.276821	-0.000172
C41	C	0.498897	-0.094001	0.068951
C42	C	0.498942	0.082955	0.069003
O43	O	0.529967	0.076410	0.127858
N44	N	0.462487	0.139680	-0.000214
C45	C	0.426020	0.152167	-0.069452
O46	O	0.395017	0.204475	-0.128329
C47	C	0.425978	-0.024789	-0.069507
C48	C	0.462432	-0.081514	-0.000280
C49	C	0.535349	-0.150724	0.138172
C50	C	0.535336	-0.194959	0.138161
C51	C	0.498871	-0.182473	0.068930
C52	C	0.462419	-0.125750	-0.000290
C53	C	0.389514	-0.012303	-0.138748
C54	C	0.389508	-0.056547	-0.138757
C55	C	0.425962	-0.113273	-0.069530
C56	C	0.425941	-0.157499	-0.069532
N57	N	0.462396	-0.214225	-0.000316
C58	C	0.498861	-0.226712	0.068916
C59	C	0.426044	0.245069	-0.069417
C60	C	0.426053	0.289307	-0.069403
C61	C	0.498976	0.220092	0.069051
C62	C	0.498964	0.175853	0.069040
C63	C	0.462499	0.188343	-0.000201
C64	C	0.498831	-0.319607	0.068888
C65	C	0.498813	-0.363844	0.068874
C66	C	0.425892	-0.294625	-0.069583
C67	C	0.425908	-0.250392	-0.069566
C68	C	0.462381	-0.262887	-0.000326
O69	O	0.394936	-0.150998	-0.128362
O70	O	0.529867	-0.279024	0.127772
C71	C	0.498911	-0.049765	0.068962
C72	C	0.462459	0.006957	-0.000259
C73	C	0.425994	0.019444	-0.069490
C74	C	0.462469	0.051196	-0.000244
C75	C	0.498933	0.038709	0.068987
C76	C	0.535389	-0.018016	0.138204
C77	C	0.535375	-0.062252	0.138193
C78	C	0.389539	0.076170	-0.138706
C79	C	0.389555	0.120403	-0.138689
C80	C	0.426020	0.107916	-0.069458
C81	C	0.323671	0.462747	-0.000254
C82	C	0.276577	0.462752	-0.000251
C83	C	-0.013551	0.458968	-0.069468
C84	C	-0.190538	0.458960	-0.069475
O85	O	-0.211814	0.455743	-0.128308
N86	N	-0.214545	0.462714	-0.000270
C87	C	-0.194302	0.466467	0.068944
O88	O	-0.218780	0.469654	0.127812
C89	C	-0.017315	0.466471	0.068954
C90	C	0.006688	0.462722	-0.000260
C91	C	0.010452	0.455220	-0.138676
C92	C	0.054694	0.455225	-0.138676
C93	C	0.074933	0.458979	-0.069469
C94	C	0.050930	0.462727	-0.000261
C95	C	0.002930	0.470219	0.138171
C96	C	0.047180	0.470218	0.138169
C97	C	0.071183	0.466470	0.068955
C98	C	0.115412	0.466486	0.068946
N99	N	0.139420	0.462732	-0.000258
C100	C	0.119181	0.458978	-0.069465
C101	C	-0.287224	0.466466	0.068933
C102	C	-0.331471	0.466466	0.068929
C103	C	-0.327703	0.458958	-0.069488
C104	C	-0.283457	0.458962	-0.069488
C105	C	-0.263216	0.462712	-0.000271
C106	C	0.212092	0.458990	-0.069462
C107	C	0.256337	0.458998	-0.069458
C108	C	0.252567	0.466502	0.068962
C109	C	0.208324	0.466497	0.068956
C110	C	0.188089	0.462739	-0.000260
O111	O	0.136720	0.469695	0.127755
O112	O	0.143672	0.455779	-0.128312
C113	C	-0.057794	0.458963	-0.069467
C114	C	-0.081797	0.462712	-0.000259
C115	C	-0.061557	0.466466	0.068948
C116	C	-0.126044	0.462712	-0.000263
C117	C	-0.146283	0.458958	-0.069470
C118	C	-0.122276	0.455204	-0.138674
C119	C	-0.078033	0.455209	-0.138675
C120	C	-0.085565	0.470220	0.138152
C121	C	-0.129808	0.470215	0.138147
C122	C	-0.150047	0.466461	0.068939
C123	C	0.601195	0.462717	-0.000275
C124	C	0.648290	0.462712	-0.000278
C125	C	0.469231	0.449142	-0.250871
C126	C	0.471538	0.444530	-0.335925
C127	C	0.462370	0.601535	-0.000334
C128	C	0.462348	0.648643	-0.000357
C129	C	0.424288	0.538988	-0.593683
C130	C	0.426454	0.534658	-0.673601
C131	C	0.478040	0.431537	-0.575680
C132	C	0.475873	0.435868	-0.495762
C133	C	0.448996	0.489596	-0.504769
C134	C	0.446827	0.493926	-0.424849
C135	C	0.498415	0.390807	-0.326930
C136	C	0.500581	0.386476	-0.406848
C137	C	0.455636	0.476322	0.250342
C138	C	0.453329	0.480934	0.335396
C139	C	0.601259	0.323914	-0.000205
C140	C	0.648375	0.276801	-0.000185
C141	C	0.455699	0.337519	0.250411
C142	C	0.453414	0.295023	0.335488
C143	C	0.594461	0.337504	0.250401
C144	C	0.639270	0.295003	0.335475
C145	C	0.330405	0.587960	-0.250930
C146	C	0.285596	0.630461	-0.336004
C147	C	0.323608	0.601549	-0.000324
C148	C	0.276491	0.648663	-0.000344
C149	C	0.469167	0.587945	-0.250940
C150	C	0.471452	0.630441	-0.336017
C151	C	0.644733	0.252025	-0.049118
C152	C	0.689000	0.207762	-0.049118
C153	C	0.736908	0.188273	-0.000179
C154	C	0.740549	0.213054	0.048756
C155	C	0.696283	0.257319	0.048749
C156	C	0.478109	0.277717	0.424384
C157	C	0.475959	0.237794	0.504330
C158	C	0.449117	0.215174	0.495379
C159	C	0.424419	0.232484	0.406475
C160	C	0.426566	0.272409	0.326530
C161	C	0.688741	0.272387	0.326488
C162	C	0.730849	0.232459	0.406417
C163	C	0.723484	0.215143	0.495330
C164	C	0.674008	0.237763	0.504315
C165	C	0.631902	0.277694	0.424387
C166	C	0.236125	0.653082	-0.327017
C167	C	0.194018	0.693024	-0.406946
C168	C	0.201382	0.710342	-0.495859
C169	C	0.250858	0.687719	-0.504844
C170	C	0.292965	0.647780	-0.424916
C171	C	0.280134	0.673443	0.048581
C172	C	0.235868	0.717717	0.048559
C173	C	0.187959	0.737207	-0.000383
C174	C	0.184318	0.712425	-0.049314
C175	C	0.228584	0.668154	-0.049297
C176	C	0.498299	0.653048	-0.327036
C177	C	0.500456	0.692973	-0.406968
C178	C	0.475764	0.710291	-0.495879
C179	C	0.448916	0.687680	-0.504858
C180	C	0.446762	0.647753	-0.424928
H181	H	0.528531	-0.329789	0.125270
H182	H	0.195623	0.455928	-0.125823
H183	H	0.522466	0.342733	-0.399528
Br184	Br	0.345147	0.647004	0.115007
H185	H	0.359845	0.086346	-0.195085
H186	H	0.518531	0.350587	-0.254523
H187	H	0.406335	0.574878	-0.745997
H188	H	0.256849	0.701824	-0.577247
Br189	Br	0.579720	0.278465	-0.115547
Br190	Br	0.119295	0.738881	-0.115728
H191	H	0.402398	0.582735	-0.601018
Br192	Br	0.393049	0.295887	0.205889
H193	H	0.230119	0.638984	-0.254627
H194	H	0.424899	0.629350	-0.432253
Br195	Br	-0.162381	0.475308	0.232084
H196	H	0.496074	0.223706	0.576713
H197	H	0.779562	0.197179	0.088600
Br198	Br	0.698750	0.295881	0.205830
H199	H	0.396202	-0.284467	-0.125946
Br200	Br	-0.364048	0.471567	0.162853
H201	H	0.686025	0.187590	-0.088966
H202	H	0.772948	0.152229	-0.000181
H203	H	0.153736	0.711437	-0.399612
Br204	Br	0.701235	0.290936	0.115171
H205	H	0.238842	0.737888	0.088407
H206	H	0.499967	0.296131	0.431690
H207	H	0.063659	0.473270	0.194536
H208	H	0.565022	-0.241145	0.194530
Br209	Br	0.584844	-0.167685	0.232141
Br210	Br	-0.058103	0.475314	0.232086
Br211	Br	0.446209	0.160990	0.603887
H212	H	0.402565	0.214061	0.399201
Br213	Br	0.797988	0.201767	0.394201
H214	H	0.151919	0.773255	-0.000390
H215	H	0.188777	0.469558	0.125309
Br216	Br	0.144232	0.764545	-0.604324
H217	H	0.565060	-0.108437	0.194565
H218	H	0.522317	0.711379	-0.399639
Br219	Br	0.548439	0.098872	0.162993
Br220	Br	0.360103	0.617082	-0.437129
H221	H	0.757774	0.182629	0.560404
H222	H	0.225611	0.647979	-0.089134
H223	H	0.424939	0.537674	-0.432185
H224	H	0.518407	0.638954	-0.254648
Br225	Br	0.478691	0.764479	-0.604348
H226	H	0.499928	0.387795	-0.568365
Br227	Br	0.664022	0.214258	0.624991
H228	H	0.428813	0.701787	-0.577260
H229	H	0.528499	-0.410033	0.125251
Br230	Br	0.548464	0.203154	0.163007
Br231	Br	0.564764	0.308380	0.436600
H232	H	0.396348	0.255247	-0.125804
Br233	Br	0.340035	0.064674	-0.232702
Br234	Br	0.340019	-0.039592	-0.232735
Br235	Br	0.376430	-0.173406	-0.163509
Br236	Br	0.376570	0.366289	-0.163343
H237	H	0.565078	-0.028176	0.194577
H238	H	0.275878	0.455947	-0.125824
Br239	Br	0.340072	0.197387	-0.232643
H240	H	-0.006022	0.452161	-0.195033
Br241	Br	0.087266	0.450133	-0.232609
H242	H	-0.263916	0.455910	-0.125848
H243	H	-0.270747	0.469520	0.125299
Br244	Br	-0.355180	0.453864	-0.163412
H245	H	0.269051	0.469561	0.125307
Br246	Br	-0.045464	0.450122	-0.232613
H247	H	-0.016607	0.473271	0.194532
Br248	Br	-0.149754	0.450114	-0.232602
