data_functionalizedCrystal
_audit_creation_method	'MofGen! by Chris Wilmer'
_symmetry_space_group_name_H-M	'P1'
_symmetry_Int_Tables_number	1
_symmetry_cell_setting	triclinic
loop_
_symmetry_equiv_pos_as_xyz
  x,y,z
_cell_length_a	10.489741
_cell_length_b	19.188924
_cell_length_c	8.965430
_cell_angle_alpha	89.998356
_cell_angle_beta	89.998843
_cell_angle_gamma	83.840569
loop_
_atom_site_label
_atom_site_type_symbol
_atom_site_fract_x
_atom_site_fract_y
_atom_site_fract_z
O1	O	1.691847	0.098497	-0.123955
O2	O	1.320444	0.107744	-0.123979
O3	O	1.516868	0.001536	-0.123949
O4	O	1.495423	0.204705	-0.123985
O5	O	1.516851	0.001543	0.124130
O6	O	1.320427	0.107751	0.124100
O7	O	1.691830	0.098505	0.124124
Cu8	Cu	1.506127	0.103128	0.146764
Cu9	Cu	1.506147	0.103120	-0.146618
O10	O	1.495406	0.204712	0.124094
C11	C	1.272919	0.107049	0.000058
C12	C	1.131337	0.104959	0.000049
C13	C	1.516166	-0.024476	0.000092
C14	C	1.514086	-0.101995	0.000096
C15	C	1.064711	0.037383	0.000076
C16	C	0.971877	0.069302	-0.122243
C17	C	0.971894	0.069325	0.122343
C18	C	1.040368	0.136906	-0.122370
C19	C	1.040395	0.136920	0.122326
C20	C	0.947587	0.168888	-0.000022
C21	C	1.513124	-0.138404	-0.135132
C22	C	1.511151	-0.211240	-0.135144
C23	C	1.510166	-0.247665	0.000081
C24	C	1.511121	-0.211247	0.135327
C25	C	1.513081	-0.138411	0.135335
N26	N	1.579664	-0.366860	0.100730
N27	N	1.577805	-0.436051	0.100713
C28	C	1.504258	-0.467114	0.000066
N29	N	1.432657	-0.426374	-0.100587
N30	N	1.434522	-0.357177	-0.100575
C31	C	1.508040	-0.326643	0.000088
C32	C	1.501156	-0.582500	-0.135184
C33	C	1.499175	-0.655337	-0.135190
C34	C	1.499157	-0.655344	0.135285
C35	C	1.501125	-0.582507	0.135287
C36	C	1.502130	-0.546090	0.000048
C37	C	1.739354	0.099199	0.000084
C38	C	1.880937	0.101289	0.000083
C39	C	1.496107	0.230724	0.000050
C40	C	1.498188	0.308243	0.000036
N41	N	1.506123	0.103134	0.353113
N42	N	1.506161	0.103109	-0.352967
C43	C	1.415255	0.152235	0.450405
C44	C	1.530435	0.166362	0.549823
C45	C	1.390991	0.089013	0.549822
C46	C	1.621360	0.117292	0.450342
C47	C	1.481840	0.039916	0.450332
C48	C	1.597104	0.054016	0.549706
H49	H	1.115645	-0.018169	-0.000067
C50	C	1.080907	0.174898	0.260384
C51	C	1.046652	0.139285	0.388124
C52	C	1.083972	0.174237	0.515342
H53	H	1.039222	0.221353	0.261467
H54	H	1.171158	0.176299	0.258957
H55	H	0.956418	0.137891	0.389551
H56	H	1.088333	0.092831	0.387090
H57	H	1.174223	0.175639	0.513915
H58	H	1.042284	0.220692	0.516410
H59	H	1.060747	0.150076	0.602028
H60	H	1.070562	0.165474	-0.225898
C61	C	1.558106	0.237571	0.608203
C62	C	1.670260	0.229790	0.693999
C63	C	1.695787	0.295374	0.747785
H64	H	1.488462	0.256965	0.668107
H65	H	1.569012	0.267942	0.526574
H66	H	1.659346	0.199429	0.775616
H67	H	1.739927	0.210407	0.634127
H68	H	1.706693	0.325745	0.666156
H69	H	1.626136	0.314763	0.807683
H70	H	1.771890	0.290104	0.805992
C71	C	1.751117	0.133473	0.392300
C72	C	1.735284	0.194456	0.305531
C73	C	1.854780	0.209409	0.252074
H74	H	1.787995	0.095474	0.333123
H75	H	1.806036	0.140261	0.474085
H76	H	1.680386	0.187663	0.223758
H77	H	1.698427	0.232468	0.364677
H78	H	1.909699	0.216198	0.333859
H79	H	1.891648	0.171406	0.192903
H80	H	1.844054	0.250790	0.193207
H81	H	0.941550	0.040723	0.225755
H82	H	1.498385	-0.684980	-0.245313
C83	C	0.931475	0.031045	-0.259989
C84	C	0.991319	-0.037780	-0.259401
C85	C	0.954124	-0.073050	-0.386252
H86	H	0.956059	0.054516	-0.346963
H87	H	0.841057	0.030323	-0.259444
H88	H	1.081717	-0.037055	-0.259960
H89	H	0.966743	-0.061271	-0.172455
H90	H	0.863706	-0.073771	-0.385707
H91	H	0.978710	-0.049573	-0.473217
H92	H	0.994712	-0.119753	-0.385863
H93	H	1.674048	0.012481	0.593033
C94	C	1.509836	-0.250812	-0.281910
C95	C	1.398987	-0.285306	-0.289812
C96	C	1.397719	-0.321763	-0.424991
H97	H	1.583342	-0.284230	-0.287653
H98	H	1.510639	-0.218719	-0.362512
H99	H	1.398196	-0.317397	-0.209232
H100	H	1.325463	-0.251905	-0.284095
H101	H	1.398522	-0.289669	-0.505593
H102	H	1.471230	-0.355177	-0.430722
H103	H	1.322504	-0.345166	-0.430376
H104	H	1.461240	-0.013519	0.406597
C105	C	0.880078	0.243051	-0.000424
C106	C	0.914787	0.278093	-0.128728
C107	C	0.852608	0.346408	-0.129166
H108	H	0.904525	0.267324	0.085535
H109	H	0.789898	0.241347	0.000325
H110	H	1.004947	0.279800	-0.129463
H111	H	0.890338	0.253841	-0.214708
H112	H	0.762427	0.344704	-0.128417
H113	H	0.877060	0.370674	-0.043201
H114	H	0.876139	0.370190	-0.216224
C115	C	1.514131	-0.098987	-0.282114
C116	C	1.512832	-0.146466	-0.400545
C117	C	1.513738	-0.110178	-0.535966
H118	H	1.589234	-0.075519	-0.287942
H119	H	1.440503	-0.065637	-0.287821
H120	H	1.586453	-0.179803	-0.394841
H121	H	1.437734	-0.169935	-0.394767
H122	H	1.440109	-0.076827	-0.541673
H123	H	1.588842	-0.086711	-0.541779
H124	H	1.512844	-0.142386	-0.616337
C125	C	1.510108	-0.250921	0.281989
C126	C	1.508220	-0.322503	0.253040
C127	C	1.507295	-0.359072	0.388113
H128	H	1.436079	-0.234120	0.337654
H129	H	1.584812	-0.243979	0.337579
H130	H	1.433525	-0.329440	0.197474
H131	H	1.582244	-0.339324	0.197397
H132	H	1.581998	-0.352130	0.443703
H133	H	1.433264	-0.342265	0.443768
H134	H	1.506026	-0.407645	0.368490
H135	H	1.513859	-0.108767	0.245457
H136	H	1.293611	0.077080	0.593523
H137	H	1.501967	-0.552848	-0.245303
H138	H	1.498345	-0.685000	0.245387
H139	H	1.501919	-0.552863	0.245404
H140	H	1.338482	0.193796	0.406804
