data_functionalizedCrystal
_audit_creation_method	'MofGen! by Chris Wilmer'
_symmetry_space_group_name_H-M	'P1'
_symmetry_Int_Tables_number	1
_symmetry_cell_setting	triclinic
loop_
_symmetry_equiv_pos_as_xyz
  x,y,z
_cell_length_a	27.732048
_cell_length_b	15.944499
_cell_length_c	14.421503
_cell_angle_alpha	90.007822
_cell_angle_beta	90.013741
_cell_angle_gamma	83.060132
loop_
_atom_site_label
_atom_site_type_symbol
_atom_site_fract_x
_atom_site_fract_y
_atom_site_fract_z
O1	O	0.062224	1.113738	0.077177
O2	O	0.562224	1.613738	0.577177
O3	O	0.069936	0.869081	0.077168
O4	O	0.569936	1.369081	0.577168
O5	O	-0.004284	0.999008	0.077156
O6	O	0.495716	1.499008	0.577156
O7	O	0.136445	0.983811	0.077190
O8	O	0.636445	1.483811	0.577190
O9	O	-0.004292	0.998996	-0.077068
O10	O	0.495708	1.498996	0.422932
O11	O	0.069928	0.869070	-0.077055
O12	O	0.569928	1.369070	0.422945
O13	O	0.062216	1.113726	-0.077046
O14	O	0.562216	1.613726	0.422954
Cu15	Cu	0.066072	0.991397	-0.091132
Cu16	Cu	0.566072	1.491397	0.408868
Cu17	Cu	0.066081	0.991411	0.091255
Cu18	Cu	0.566081	1.491411	0.591255
O19	O	0.136437	0.983799	-0.077033
O20	O	0.636437	1.483799	0.422967
C21	C	0.069617	0.837785	0.000055
C22	C	0.569617	1.337785	0.500055
C23	C	0.068670	0.744549	0.000051
C24	C	0.568670	1.244549	0.500051
C25	C	0.111790	0.452449	0.000075
C26	C	0.611790	0.952449	0.500075
C27	C	0.089379	0.513777	0.076112
C28	C	0.589379	1.013777	0.576112
C29	C	0.065231	0.408957	0.000072
C30	C	0.565231	0.908957	0.500072
C31	C	0.089359	0.513752	-0.075940
C32	C	0.589359	1.013752	0.424060
C33	C	0.066923	0.573844	0.000060
C34	C	0.566923	1.073844	0.500060
C35	C	0.042807	0.469058	0.076171
C36	C	0.542807	0.969058	0.576171
C37	C	0.042793	0.469026	-0.075950
C38	C	0.542793	0.969026	0.424050
C39	C	0.020348	0.530337	0.000105
C40	C	0.520348	1.030337	0.500105
C41	C	0.064257	0.313970	0.000079
C42	C	0.564257	0.813970	0.500079
C43	C	0.067893	0.668830	0.000059
C44	C	0.567893	1.168830	0.500059
C45	C	-0.022297	0.998683	0.000041
C46	C	0.477703	1.498683	0.500041
C47	C	-0.075956	0.997723	0.000034
C48	C	0.424044	1.497723	0.500034
C49	C	-0.414472	1.068453	0.000084
C50	C	0.085528	1.568453	0.500084
C51	C	-0.616147	1.064889	0.000097
C52	C	-0.116147	1.564889	0.500097
O53	O	-0.647129	1.129568	0.000140
O54	O	-0.147129	1.629568	0.500140
N55	N	-0.635596	0.987848	0.000093
N56	N	-0.135596	1.487848	0.500093
C57	C	-0.604623	0.911693	0.000092
C58	C	-0.104623	1.411693	0.500092
O59	O	-0.625793	0.846083	0.000099
O60	O	-0.125793	1.346083	0.500099
C61	C	-0.402949	0.915258	0.000086
C62	C	0.097051	1.415258	0.500086
C63	C	-0.383503	0.992304	0.000080
C64	C	0.116497	1.492304	0.500080
C65	C	-0.395025	1.145493	0.000079
C66	C	0.104975	1.645493	0.500079
C67	C	-0.344609	1.146384	0.000071
C68	C	0.155391	1.646384	0.500071
C69	C	-0.313640	1.070234	0.000067
C70	C	0.186360	1.570234	0.500067
C71	C	-0.333087	0.993194	0.000072
C72	C	0.166913	1.493194	0.500072
C73	C	-0.371977	0.839103	0.000092
C74	C	0.128023	1.339103	0.500092
C75	C	-0.321556	0.840001	0.000093
C76	C	0.178444	1.340001	0.500093
C77	C	-0.302110	0.917047	0.000087
C78	C	0.197890	1.417047	0.500087
C79	C	-0.251702	0.917934	0.000060
C80	C	0.248298	1.417934	0.500060
N81	N	-0.232253	0.994976	0.000064
N82	N	0.267747	1.494976	0.500064
C83	C	-0.263222	1.071125	0.000067
C84	C	0.236778	1.571125	0.500067
C85	C	-0.710505	0.909826	0.000093
C86	C	-0.210505	1.409826	0.500093
C87	C	-0.760923	0.908935	0.000093
C88	C	-0.260923	1.408935	0.500093
C89	C	-0.772443	1.062132	0.000100
C90	C	-0.272443	1.562132	0.500100
C91	C	-0.722024	1.063023	0.000093
C92	C	-0.222024	1.563023	0.500093
C93	C	-0.691056	0.986868	0.000097
C94	C	-0.191056	1.486868	0.500097
C95	C	-0.157345	1.072989	0.000049
C96	C	0.342655	1.572989	0.500049
C97	C	-0.106925	1.073872	0.000037
C98	C	0.393075	1.573872	0.500037
C99	C	-0.095409	0.920676	0.000036
C100	C	0.404591	1.420676	0.500036
C101	C	-0.145825	0.919792	0.000043
C102	C	0.354175	1.419792	0.500043
C103	C	-0.176792	0.995955	0.000053
C104	C	0.323208	1.495955	0.500053
O105	O	-0.220691	0.853291	0.000028
O106	O	0.279309	1.353291	0.500028
O107	O	-0.242043	1.136726	0.000081
O108	O	0.257957	1.636726	0.500081
C109	C	-0.464888	1.067563	0.000092
C110	C	0.035112	1.567563	0.500092
C111	C	-0.484334	0.990523	0.000097
C112	C	0.015666	1.490523	0.500097
C113	C	-0.453365	0.914374	0.000093
C114	C	0.046635	1.414374	0.500093
C115	C	-0.534752	0.989632	0.000097
C116	C	-0.034752	1.489632	0.500097
C117	C	-0.565721	1.065782	0.000100
C118	C	-0.065721	1.565782	0.500100
C119	C	-0.546272	1.142823	0.000104
C120	C	-0.046272	1.642823	0.500104
C121	C	-0.495857	1.143713	0.000096
C122	C	0.004143	1.643713	0.500096
C123	C	-0.472814	0.837332	0.000089
C124	C	0.027186	1.337332	0.500089
C125	C	-0.523231	0.836449	0.000097
C126	C	-0.023231	1.336449	0.500097
C127	C	-0.554200	0.912598	0.000100
C128	C	-0.054200	1.412598	0.500100
C129	C	0.154449	0.984124	0.000083
C130	C	0.654449	1.484124	0.500083
C131	C	0.208108	0.985085	0.000097
C132	C	0.708108	1.485085	0.500097
C133	C	0.062536	1.145023	0.000069
C134	C	0.562536	1.645023	0.500069
C135	C	0.063483	1.238258	0.000080
C136	C	0.563483	1.738258	0.500080
N137	N	0.066065	0.991393	-0.219414
N138	N	0.566065	1.491393	0.280586
C139	C	0.031472	1.051027	-0.530848
C140	C	0.531472	1.551027	-0.030848
C141	C	0.075015	1.067446	-0.469000
C142	C	0.575015	1.567446	0.031000
C143	C	0.066079	0.991412	-0.591303
C144	C	0.566079	1.491412	-0.091303
C145	C	0.022530	0.975024	-0.469057
C146	C	0.522530	1.475024	0.030943
C147	C	0.066069	0.991405	-0.408581
C148	C	0.566069	1.491405	0.091419
C149	C	0.109644	1.007868	-0.530815
C150	C	0.609644	1.507868	-0.030815
C151	C	0.057130	0.915413	-0.530877
C152	C	0.557130	1.415413	-0.030877
C153	C	0.100705	0.931799	-0.469057
C154	C	0.600705	1.431799	0.030943
C155	C	0.066083	0.991418	-0.696564
C156	C	0.566083	1.491418	-0.196564
C157	C	0.066070	0.991398	-0.303322
C158	C	0.566070	1.491398	0.196678
N159	N	0.066084	0.991421	0.219536
N160	N	0.566084	1.491421	0.719536
H161	H	0.109077	0.533623	0.140400
H162	H	0.609077	1.033623	0.640400
O163	O	0.016721	0.442718	-0.161114
O164	O	0.516721	0.942718	0.338886
H165	H	-0.015422	0.412174	-0.139730
H166	H	0.484578	0.912174	0.360270
H167	H	0.082584	1.131713	-0.441821
H168	H	0.582584	1.631713	0.058179
H169	H	0.150430	0.418614	0.000159
H170	H	0.650430	0.918614	0.500159
O171	O	0.158433	1.026335	-0.566586
O172	O	0.658433	1.526335	-0.066586
H173	H	0.158047	1.026229	-0.643547
H174	H	0.658047	1.526229	-0.143547
O175	O	-0.026248	0.956652	-0.433129
O176	O	0.473752	1.456652	0.066871
H177	H	-0.042431	1.010287	-0.389715
H178	H	0.457569	1.510287	0.110285
O179	O	0.115449	0.540000	-0.161085
O180	O	0.615449	1.040000	0.338915
H181	H	0.090264	0.584355	-0.202890
H182	H	0.590264	1.084355	0.297110
O183	O	0.016744	0.442947	0.161410
O184	O	0.516744	0.942947	0.661410
H185	H	0.004495	0.499682	0.203735
H186	H	0.504495	0.999682	0.703735
O187	O	-0.428420	1.227638	0.000072
O188	O	0.071580	1.727638	0.500072
H189	H	-0.451659	1.230924	0.062931
H190	H	0.048341	1.730924	0.562931
H191	H	0.129998	0.881378	-0.442097
H192	H	0.629998	1.381378	0.057903
H193	H	-0.706195	1.125760	0.000089
H194	H	-0.206195	1.625760	0.500089
H195	H	-0.480029	1.206452	0.000091
H196	H	0.019971	1.706452	0.500091
O197	O	0.047089	0.830311	-0.566916
O198	O	0.547089	1.330311	-0.066916
H199	H	0.047541	0.830929	-0.643872
H200	H	0.547541	1.330929	-0.143872
O201	O	-0.085949	1.156975	0.000046
O202	O	0.414051	1.656975	0.500046
H203	H	-0.115958	1.209774	0.000063
H204	H	0.384042	1.709774	0.500063
H205	H	-0.182554	1.135009	0.000061
H206	H	0.317446	1.635009	0.500061
H207	H	-0.018326	0.564020	0.000136
H208	H	0.481674	1.064020	0.500136
O209	O	-0.166806	0.836698	0.000038
O210	O	0.333194	1.336698	0.500038
H211	H	-0.154358	0.800147	0.062898
H212	H	0.345642	1.300147	0.562898
O213	O	-0.323638	1.229483	0.000092
O214	O	0.176362	1.729483	0.500092
H215	H	-0.353649	1.282278	0.000111
H216	H	0.146351	1.782278	0.500111
H217	H	0.002243	1.101478	-0.557978
H218	H	0.502243	1.601478	-0.057978
O219	O	-0.805849	1.144269	0.000110
O220	O	-0.305849	1.644269	0.500110
H221	H	-0.844174	1.130697	0.000119
H222	H	-0.344174	1.630697	0.500119
O223	O	-0.439414	0.755196	0.000069
O224	O	0.060586	1.255196	0.500069
H225	H	-0.461414	0.701482	0.000057
H226	H	0.038586	1.201482	0.500057
O227	O	-0.781896	0.825836	0.000087
O228	O	-0.281896	1.325836	0.500087
H229	H	-0.751886	0.773039	0.000093
H230	H	-0.251886	1.273039	0.500093
H231	H	-0.685294	0.847808	0.000097
H232	H	-0.185294	1.347808	0.500097
O233	O	-0.579681	1.224957	0.000100
O234	O	-0.079681	1.724957	0.500100
H235	H	-0.572759	1.261869	0.062955
H236	H	-0.072759	1.761869	0.562955
H237	H	-0.387801	0.776364	0.000102
H238	H	0.112199	1.276364	0.500102
H239	H	-0.296343	0.777985	0.000097
H240	H	0.203657	1.277985	0.500097
H241	H	-0.070185	0.858677	0.000030
H242	H	0.429815	1.358677	0.500030
H243	H	-0.539058	0.773704	0.000093
H244	H	-0.039058	1.273704	0.500093
