data_functionalizedCrystal
_audit_creation_method	'MofGen! by Chris Wilmer'
_symmetry_space_group_name_H-M	'P1'
_symmetry_Int_Tables_number	1
_symmetry_cell_setting	triclinic
loop_
_symmetry_equiv_pos_as_xyz
  x,y,z
_cell_length_a	21.395362
_cell_length_b	19.077068
_cell_length_c	21.395356
_cell_angle_alpha	92.271626
_cell_angle_beta	89.964230
_cell_angle_gamma	92.343691
loop_
_atom_site_label
_atom_site_type_symbol
_atom_site_fract_x
_atom_site_fract_y
_atom_site_fract_z
Zn1	Zn	0.947810	-0.279939	-0.364584
Zn2	Zn	1.197810	-0.029939	-0.114584
Zn3	Zn	1.447810	0.220061	0.135416
Zn4	Zn	1.697810	0.470061	0.385416
Zn5	Zn	0.943524	-0.397635	-0.264011
Zn6	Zn	1.193524	-0.147635	-0.014011
Zn7	Zn	1.443524	0.102365	0.235989
Zn8	Zn	1.693524	0.352365	0.485989
Zn9	Zn	0.843039	-0.279987	-0.259787
Zn10	Zn	1.093039	-0.029987	-0.009787
Zn11	Zn	1.343039	0.220013	0.240213
Zn12	Zn	1.593039	0.470013	0.490213
Zn13	Zn	0.838791	-0.397635	-0.368715
Zn14	Zn	1.088791	-0.147635	-0.118715
Zn15	Zn	1.338791	0.102365	0.131285
Zn16	Zn	1.588791	0.352365	0.381285
O17	O	0.893291	-0.338799	-0.314274
O18	O	1.143291	-0.088799	-0.064274
O19	O	1.393291	0.161201	0.185726
O20	O	1.643291	0.411201	0.435726
O21	O	1.034921	-0.295532	-0.351282
O22	O	1.284921	-0.045532	-0.101282
O23	O	1.534921	0.204468	0.148718
O24	O	1.784921	0.454468	0.398718
O25	O	0.930178	-0.382049	-0.175773
O26	O	1.180178	-0.132049	0.074227
O27	O	1.430178	0.117951	0.324227
O28	O	1.680178	0.367951	0.574227
O29	O	0.860508	-0.181488	-0.270193
O30	O	1.110508	0.068512	-0.020193
O31	O	1.360508	0.318512	0.229807
O32	O	1.610508	0.568512	0.479807
O33	O	1.031771	-0.382003	-0.277391
O34	O	1.281771	-0.132003	-0.027391
O35	O	1.531771	0.117997	0.222609
O36	O	1.781771	0.367997	0.472609
O37	O	0.937484	-0.181453	-0.347186
O38	O	1.187484	0.068547	-0.097186
O39	O	1.437484	0.318547	0.152814
O40	O	1.687484	0.568547	0.402814
O41	O	0.856352	-0.295613	-0.172670
O42	O	1.106352	-0.045613	0.077330
O43	O	1.356352	0.204387	0.327330
O44	O	1.606352	0.454387	0.577330
O45	O	0.754797	-0.295613	-0.274198
O46	O	1.004797	-0.045613	-0.024198
O47	O	1.254797	0.204387	0.225802
O48	O	1.504797	0.454387	0.475802
O49	O	0.853269	-0.382003	-0.455845
O50	O	1.103269	-0.132003	-0.205845
O51	O	1.353269	0.117997	0.044155
O52	O	1.603269	0.367997	0.294155
O53	O	0.751676	-0.382048	-0.354227
O54	O	1.001676	-0.132048	-0.104227
O55	O	1.251676	0.117952	0.145773
O56	O	1.501676	0.367952	0.395773
O57	O	0.933365	-0.295532	-0.452810
O58	O	1.183365	-0.045532	-0.202810
O59	O	1.433365	0.204468	0.047190
O60	O	1.683365	0.454468	0.297190
O61	O	0.926060	-0.496128	-0.281396
O62	O	1.176060	-0.246128	-0.031396
O63	O	1.426060	0.003872	0.218604
O64	O	1.676060	0.253872	0.468604
O65	O	0.849113	-0.496128	-0.358323
O66	O	1.099113	-0.246128	-0.108323
O67	O	1.349113	0.003872	0.141677
O68	O	1.599113	0.253872	0.391677
C69	C	0.730502	-0.338836	-0.314203
C70	C	0.980502	-0.088836	-0.064203
C71	C	1.230502	0.161164	0.185797
C72	C	1.480502	0.411164	0.435797
C73	C	0.660860	-0.338869	-0.314188
C74	C	0.910860	-0.088869	-0.064188
C75	C	1.160860	0.161131	0.185812
C76	C	1.410860	0.411131	0.435812
C77	C	0.626536	-0.383936	-0.355801
C78	C	0.876536	-0.133936	-0.105801
C79	C	1.126536	0.116064	0.144199
C80	C	1.376536	0.366064	0.394199
C81	C	0.561101	-0.383919	-0.355829
C82	C	0.811101	-0.133919	-0.105829
C83	C	1.061101	0.116081	0.144171
C84	C	1.311101	0.366081	0.394171
C85	C	0.529992	-0.338842	-0.314232
C86	C	0.779992	-0.088842	-0.064232
C87	C	1.029992	0.161158	0.185768
C88	C	1.279992	0.411158	0.435768
C89	C	0.564324	-0.293766	-0.272615
C90	C	0.814324	-0.043766	-0.022615
C91	C	1.064324	0.206234	0.227385
C92	C	1.314324	0.456234	0.477385
C93	C	0.629758	-0.293780	-0.272594
C94	C	0.879758	-0.043780	-0.022594
C95	C	1.129758	0.206220	0.227406
C96	C	1.379758	0.456220	0.477406
C97	C	0.426478	-0.333180	-0.257624
C98	C	0.676478	-0.083180	-0.007624
C99	C	0.926478	0.166820	0.242376
C100	C	1.176478	0.416820	0.492376
C101	C	0.361045	-0.333171	-0.257645
C102	C	0.611045	-0.083171	-0.007645
C103	C	0.861045	0.166829	0.242355
C104	C	1.111045	0.416829	0.492355
C105	C	0.328173	-0.338796	-0.314299
C106	C	0.578173	-0.088796	-0.064299
C107	C	0.828173	0.161204	0.185701
C108	C	1.078173	0.411204	0.435701
C109	C	0.360741	-0.344444	-0.370935
C110	C	0.610741	-0.094444	-0.120935
C111	C	0.860741	0.155556	0.129065
C112	C	1.110741	0.405556	0.379065
C113	C	0.426175	-0.344458	-0.370913
C114	C	0.676175	-0.094458	-0.120913
C115	C	0.926175	0.155542	0.129087
C116	C	1.176175	0.405542	0.379087
C117	C	0.459041	-0.338822	-0.314251
C118	C	0.709041	-0.088822	-0.064251
C119	C	0.959041	0.161178	0.185749
C120	C	1.209041	0.411178	0.435749
C121	C	0.222897	-0.383847	-0.355946
C122	C	0.472897	-0.133847	-0.105946
C123	C	0.722897	0.116153	0.144054
C124	C	0.972897	0.366153	0.394054
C125	C	0.157462	-0.383824	-0.355974
C126	C	0.407462	-0.133824	-0.105974
C127	C	0.657462	0.116176	0.144026
C128	C	0.907462	0.366176	0.394026
C129	C	0.160686	-0.293676	-0.272755
C130	C	0.410686	-0.043676	-0.022755
C131	C	0.660686	0.206324	0.227245
C132	C	0.910686	0.456324	0.477245
C133	C	0.226121	-0.293694	-0.272732
C134	C	0.476121	-0.043694	-0.022732
C135	C	0.726121	0.206306	0.227268
C136	C	0.976121	0.456306	0.477268
C137	C	0.257222	-0.338783	-0.314327
C138	C	0.507222	-0.088783	-0.064327
C139	C	0.757222	0.161217	0.185673
C140	C	1.007222	0.411217	0.435673
C141	C	0.886677	-0.521666	-0.320780
C142	C	1.136677	-0.271666	-0.070780
C143	C	1.386677	-0.021666	0.179220
C144	C	1.636677	0.228334	0.429220
C145	C	0.883905	-0.599897	-0.323584
C146	C	1.133905	-0.349897	-0.073584
C147	C	1.383905	-0.099897	0.176416
C148	C	1.633905	0.150103	0.426416
C149	C	0.922696	-0.636626	-0.284883
C150	C	1.172696	-0.386626	-0.034883
C151	C	1.422696	-0.136626	0.215117
C152	C	1.672696	0.113374	0.465117
C153	C	0.920092	-0.710133	-0.287524
C154	C	1.170092	-0.460133	-0.037524
C155	C	1.420092	-0.210133	0.212476
C156	C	1.670092	0.039867	0.462476
C157	C	0.878694	-0.746908	-0.328863
C158	C	1.128694	-0.496908	-0.078863
C159	C	1.378694	-0.246908	0.171137
C160	C	1.628694	0.003092	0.421137
C161	C	0.839901	-0.710173	-0.367568
C162	C	1.089901	-0.460173	-0.117568
C163	C	1.339901	-0.210173	0.132432
C164	C	1.589901	0.039827	0.382432
C165	C	0.842509	-0.636668	-0.364930
C166	C	1.092509	-0.386668	-0.114930
C167	C	1.342509	-0.136668	0.135070
C168	C	1.592509	0.113332	0.385070
C169	C	0.866600	-0.966747	-0.341047
C170	C	1.116600	-0.716747	-0.091047
C171	C	1.366600	-0.466747	0.158953
C172	C	1.616600	-0.216747	0.408953
C173	C	0.863994	-1.040257	-0.343681
C174	C	1.113994	-0.790257	-0.093681
C175	C	1.363994	-0.540257	0.156319
C176	C	1.613994	-0.290257	0.406319
C177	C	0.944186	-1.040212	-0.263638
C178	C	1.194186	-0.790212	-0.013638
C179	C	1.444186	-0.540212	0.236362
C180	C	1.694186	-0.290212	0.486362
C181	C	0.946787	-0.966706	-0.261001
C182	C	1.196787	-0.716706	-0.011001
C183	C	1.446787	-0.466706	0.238999
C184	C	1.696787	-0.216706	0.488999
C185	C	0.907997	-0.929977	-0.299708
C186	C	1.157997	-0.679977	-0.049708
C187	C	1.407997	-0.429977	0.200292
C188	C	1.657997	-0.179977	0.450292
N189	N	0.876030	-0.822043	-0.331562
N190	N	1.126030	-0.572043	-0.081562
N191	N	1.376030	-0.322043	0.168438
N192	N	1.626030	-0.072043	0.418438
N193	N	0.910664	-0.854843	-0.297012
N194	N	1.160664	-0.604843	-0.047012
N195	N	1.410664	-0.354843	0.202988
N196	N	1.660664	-0.104843	0.452988
C197	C	1.056716	-0.338762	-0.314347
C198	C	1.306716	-0.088762	-0.064347
C199	C	1.556716	0.161238	0.185653
C200	C	1.806716	0.411238	0.435653
C201	C	1.126358	-0.338746	-0.314377
C202	C	1.376358	-0.088746	-0.064377
C203	C	1.626358	0.161254	0.185623
C204	C	1.876358	0.411254	0.435623
C205	C	0.893321	-0.338762	-0.477697
C206	C	1.143321	-0.088762	-0.227697
C207	C	1.393321	0.161238	0.022303
C208	C	1.643321	0.411238	0.272303
C209	C	0.893334	-0.338746	-0.547337
C210	C	1.143334	-0.088746	-0.297337
C211	C	1.393334	0.161254	-0.047337
C212	C	1.643334	0.411254	0.202663
C213	C	0.899948	-0.155218	-0.307758
C214	C	1.149948	0.094782	-0.057758
C215	C	1.399948	0.344782	0.192242
C216	C	1.649948	0.594782	0.442242
C217	C	0.902785	-0.076987	-0.304980
C218	C	1.152785	0.173013	-0.054980
C219	C	1.402785	0.423013	0.195020
C220	C	1.652785	0.673013	0.445020
C221	C	0.931851	-0.383606	-1.050745
C222	C	1.181851	-0.133606	-0.800745
C223	C	1.431851	0.116394	-0.550745
C224	C	1.681851	0.366394	-0.300745
C225	C	0.931839	-0.383628	-0.985310
C226	C	1.181839	-0.133628	-0.735310
C227	C	1.431839	0.116372	-0.485310
C228	C	1.681839	0.366372	-0.235310
C229	C	0.893398	-0.338635	-0.950972
C230	C	1.143398	-0.088635	-0.700972
C231	C	1.393398	0.161365	-0.450972
C232	C	1.643398	0.411365	-0.200972
C233	C	0.854954	-0.293628	-0.982074
C234	C	1.104954	-0.043628	-0.732074
C235	C	1.354954	0.206372	-0.482074
C236	C	1.604954	0.456372	-0.232074
C237	C	0.854962	-0.293612	-1.047508
C238	C	1.104962	-0.043612	-0.797508
C239	C	1.354962	0.206388	-0.547508
C240	C	1.604962	0.456388	-0.297508
C241	C	0.890736	-0.275249	-0.845051
C242	C	1.140736	-0.025249	-0.595051
C243	C	1.390736	0.224751	-0.345051
C244	C	1.640736	0.474751	-0.095051
C245	C	0.890732	-0.275264	-0.779618
C246	C	1.140732	-0.025264	-0.529618
C247	C	1.390732	0.224736	-0.279618
C248	C	1.640732	0.474736	-0.029618
C249	C	0.893368	-0.338685	-0.749153
C250	C	1.143368	-0.088685	-0.499153
C251	C	1.393368	0.161315	-0.249153
C252	C	1.643368	0.411315	0.000847
C253	C	0.896021	-0.402092	-0.784128
C254	C	1.146021	-0.152092	-0.534128
C255	C	1.396021	0.097908	-0.284128
C256	C	1.646021	0.347908	-0.034128
C257	C	0.896029	-0.402076	-0.849561
C258	C	1.146029	-0.152076	-0.599561
C259	C	1.396029	0.097924	-0.349561
C260	C	1.646029	0.347924	-0.099561
C261	C	0.893384	-0.338647	-0.880020
C262	C	1.143384	-0.088647	-0.630020
C263	C	1.393384	0.161353	-0.380020
C264	C	1.643384	0.411353	-0.130020
C265	C	0.931793	-0.383716	-0.647107
C266	C	1.181793	-0.133716	-0.397107
C267	C	1.431793	0.116284	-0.147107
C268	C	1.681793	0.366284	0.102893
C269	C	0.931776	-0.383739	-0.581671
C270	C	1.181776	-0.133739	-0.331671
C271	C	1.431776	0.116261	-0.081671
C272	C	1.681776	0.366261	0.168329
C273	C	0.854895	-0.293733	-0.578436
C274	C	1.104895	-0.043733	-0.328436
C275	C	1.354895	0.206267	-0.078436
C276	C	1.604895	0.456267	0.171564
C277	C	0.854908	-0.293716	-0.643871
C278	C	1.104908	-0.043716	-0.393871
C279	C	1.354908	0.206284	-0.143871
C280	C	1.604908	0.456284	0.106129
C281	C	0.893360	-0.338706	-0.678202
C282	C	1.143360	-0.088706	-0.428202
C283	C	1.393360	0.161294	-0.178202
C284	C	1.643360	0.411294	0.071798
C285	C	0.893299	-0.338785	-0.151486
C286	C	1.143299	-0.088785	0.098514
C287	C	1.393299	0.161215	0.348514
C288	C	1.643299	0.411215	0.598514
C289	C	0.893415	-0.338602	-0.081839
C290	C	1.143415	-0.088602	0.168161
C291	C	1.393415	0.161398	0.418161
C292	C	1.643415	0.411398	0.668161
H293	H	0.452690	-0.349055	-0.417027
H294	H	0.702690	-0.099055	-0.167027
H295	H	0.952690	0.150945	0.082973
H296	H	1.202690	0.400945	0.332973
H297	H	0.806197	-0.740121	-0.401230
H298	H	1.056197	-0.490121	-0.151230
H299	H	1.306197	-0.240121	0.098770
H300	H	1.556197	0.009879	0.348770
H301	H	0.951679	-0.740035	-0.256009
H302	H	1.201679	-0.490035	-0.006009
H303	H	1.451679	-0.240035	0.243991
H304	H	1.701679	0.009965	0.493991
F305	F	0.972685	-0.431644	-0.548578
F306	F	1.222685	-0.181644	-0.298578
F307	F	1.472685	0.068356	-0.048578
F308	F	1.722685	0.318356	0.201422
F309	F	0.801224	-0.597578	-0.406122
F310	F	1.051224	-0.347578	-0.156122
F311	F	1.301224	-0.097578	0.093878
F312	F	1.551224	0.152422	0.343878
F313	F	0.966754	-0.597494	-0.240880
F314	F	1.216754	-0.347494	0.009120
F315	F	1.466754	-0.097494	0.259120
F316	F	1.716754	0.152506	0.509120
F317	F	0.898828	-0.469594	-0.751709
F318	F	1.148828	-0.219594	-0.501709
F319	F	1.398828	0.030406	-0.251709
F320	F	1.648828	0.280406	-0.001709
H321	H	0.963101	-0.420351	-0.675061
H322	H	1.213101	-0.170351	-0.425061
H323	H	1.463101	0.079649	-0.175061
H324	H	1.713101	0.329649	0.074939
F325	F	0.888178	-0.207720	-0.877467
F326	F	1.138178	0.042280	-0.627467
F327	F	1.388178	0.292280	-0.377467
F328	F	1.638178	0.542280	-0.127467
F329	F	0.531216	-0.245790	-0.228347
F330	F	0.781216	0.004210	0.021653
F331	F	1.031216	0.254210	0.271653
F332	F	1.281216	0.504210	0.521653
H333	H	0.823594	-0.257100	-0.550479
H334	H	1.073594	-0.007100	-0.300479
H335	H	1.323594	0.242900	-0.050479
H336	H	1.573594	0.492900	0.199521
H337	H	0.963160	-0.420243	-1.078693
H338	H	1.213160	-0.170243	-0.828693
H339	H	1.463160	0.079757	-0.578693
H340	H	1.713160	0.329757	-0.328693
F341	F	0.659633	-0.431922	-0.400072
F342	F	0.909633	-0.181922	-0.150072
F343	F	1.159633	0.068078	0.099928
F344	F	1.409633	0.318078	0.349928
F345	F	0.972749	-0.431530	-0.952210
F346	F	1.222749	-0.181530	-0.702210
F347	F	1.472749	0.068470	-0.452210
F348	F	1.722749	0.318470	-0.202210
H349	H	0.453237	-0.328596	-0.211487
H350	H	0.703237	-0.078596	0.038513
H351	H	0.953237	0.171404	0.288513
H352	H	1.203237	0.421404	0.538513
H353	H	0.898188	-0.453705	-0.878035
H354	H	1.148188	-0.203705	-0.628035
H355	H	1.398188	0.046295	-0.378035
H356	H	1.648188	0.296295	-0.128035
F357	F	0.990855	-0.927572	-0.217009
F358	F	1.240855	-0.677572	0.032991
F359	F	1.490855	-0.427572	0.282991
F360	F	1.740855	-0.177572	0.532991
F361	F	0.985469	-1.079306	-0.222449
F362	F	1.235469	-0.829306	0.027551
F363	F	1.485469	-0.579306	0.277551
F364	F	1.735469	-0.329306	0.527551
H365	H	0.823611	-0.257067	-0.669188
H366	H	1.073611	-0.007067	-0.419188
H367	H	1.323611	0.242933	-0.169188
H368	H	1.573611	0.492933	0.080812
H369	H	0.823654	-0.256995	-0.954112
H370	H	1.073654	-0.006995	-0.704112
H371	H	1.323654	0.243005	-0.454112
H372	H	1.573654	0.493005	-0.204112
F373	F	0.666289	-0.245811	-0.228301
F374	F	0.916289	0.004189	0.021699
F375	F	1.166289	0.254189	0.271699
F376	F	1.416289	0.504189	0.521699
F377	F	0.819924	-1.079395	-0.387675
F378	F	1.069924	-0.829395	-0.137675
F379	F	1.319924	-0.579395	0.112325
F380	F	1.569924	-0.329395	0.362325
F381	F	0.524564	-0.431887	-0.400121
F382	F	0.774564	-0.181887	-0.150121
F383	F	1.024564	0.068113	0.099879
F384	F	1.274564	0.318113	0.349879
H385	H	0.888575	-0.223634	-0.751147
H386	H	1.138575	0.026366	-0.501147
H387	H	1.388575	0.276366	-0.251147
H388	H	1.638575	0.526366	-0.001147
F389	F	0.825315	-0.927667	-0.382243
F390	F	1.075315	-0.677667	-0.132243
F391	F	1.325315	-0.427667	0.117757
F392	F	1.575315	-0.177667	0.367757
F393	F	0.814048	-0.245715	-1.080602
F394	F	1.064048	0.004285	-0.830602
F395	F	1.314048	0.254285	-0.580602
F396	F	1.564048	0.504285	-0.330602
H397	H	0.333979	-0.349023	-0.417068
H398	H	0.583979	-0.099023	-0.167068
H399	H	0.833979	0.150977	0.082932
H400	H	1.083979	0.400977	0.332932
F401	F	0.256000	-0.431830	-0.400216
F402	F	0.506000	-0.181830	-0.150216
F403	F	0.756000	0.068170	0.099784
F404	F	1.006000	0.318170	0.349784
H405	H	0.129516	-0.420522	-0.389864
H406	H	0.379516	-0.170522	-0.139864
H407	H	0.629516	0.079478	0.110136
H408	H	0.879516	0.329478	0.360136
H409	H	0.254068	-0.257000	-0.238843
H410	H	0.504068	-0.007000	0.011157
H411	H	0.754068	0.243000	0.261157
H412	H	1.004068	0.493000	0.511157
F413	F	0.127583	-0.245698	-0.228487
F414	F	0.377583	0.004302	0.021513
F415	F	0.627583	0.254302	0.271513
F416	F	0.877583	0.504302	0.521513
H417	H	0.334533	-0.328576	-0.211529
H418	H	0.584533	-0.078576	0.038471
H419	H	0.834533	0.171424	0.288471
H420	H	1.084533	0.421424	0.538471
