data_functionalizedCrystal
_audit_creation_method	'MofGen! by Chris Wilmer'
_symmetry_space_group_name_H-M	'P1'
_symmetry_Int_Tables_number	1
_symmetry_cell_setting	triclinic
loop_
_symmetry_equiv_pos_as_xyz
  x,y,z
_cell_length_a	27.732046
_cell_length_b	9.483335
_cell_length_c	10.967829
_cell_angle_alpha	111.321163
_cell_angle_beta	96.299381
_cell_angle_gamma	99.232200
loop_
_atom_site_label
_atom_site_type_symbol
_atom_site_fract_x
_atom_site_fract_y
_atom_site_fract_z
O1	O	-0.631663	0.164569	0.175192
O2	O	-0.490642	0.170515	0.198734
O3	O	-0.567334	0.120082	-0.002460
O4	O	-0.554971	0.215003	0.376386
O5	O	-0.582929	-0.131959	-0.043411
O6	O	-0.506237	-0.081525	0.157784
O7	O	-0.647259	-0.087471	0.134241
Cu8	Cu	-0.578172	-0.107512	0.142274
Cu9	Cu	-0.559728	0.190555	0.190702
O10	O	-0.570567	-0.037038	0.335436
C11	C	-0.480437	0.044377	0.177767
C12	C	-0.426795	0.044024	0.176283
N13	N	-0.591148	-0.317156	0.108211
C14	C	-0.574354	-0.545733	0.152311
C15	C	-0.563546	-0.371219	0.180666
C16	C	-0.086937	0.071412	0.285805
C17	C	0.114669	0.070023	0.280288
O18	O	0.146877	0.095052	0.380432
N19	N	0.132654	0.040136	0.160992
C20	C	0.100233	0.010585	0.043065
O21	O	0.120156	-0.014883	-0.058533
C22	C	-0.101373	0.011964	0.048582
C23	C	-0.119354	0.041868	0.167888
C24	C	-0.104919	0.101312	0.405101
C25	C	-0.155317	0.101667	0.406481
C26	C	-0.187734	0.072123	0.288564
C27	C	-0.169752	0.042223	0.169267
C28	C	-0.133793	-0.017598	-0.069346
C29	C	-0.184198	-0.017255	-0.067957
C30	C	-0.202179	0.012649	0.051350
C31	C	-0.252567	0.013033	0.052729
N32	N	-0.270552	0.042920	0.172025
C33	C	-0.238135	0.072465	0.289943
C34	C	0.206080	0.009866	0.040178
C35	C	0.256482	0.009524	0.038799
C36	C	0.270914	0.068960	0.276022
C37	C	0.220512	0.069312	0.277402
C38	C	0.188095	0.039753	0.159474
C39	C	-0.343975	0.073210	0.292830
C40	C	-0.394378	0.073569	0.294200
C41	C	-0.408807	0.014125	0.056976
C42	C	-0.358408	0.013774	0.055607
C43	C	-0.325993	0.043314	0.173544
O44	O	-0.284804	-0.011999	-0.047363
O45	O	-0.258069	0.097895	0.391520
C46	C	-0.036539	0.071057	0.284426
C47	C	-0.018557	0.041157	0.165129
C48	C	-0.050974	0.011613	0.047212
C49	C	0.031844	0.040815	0.163750
C50	C	0.064261	0.070360	0.281668
C51	C	0.046276	0.100246	0.400964
C52	C	-0.004122	0.100602	0.402343
C53	C	-0.032989	-0.018274	-0.072084
C54	C	0.017410	-0.018625	-0.073453
C55	C	0.049827	0.010919	0.044464
C56	C	0.342538	0.038679	0.155215
C57	C	0.288898	0.039069	0.156716
C58	C	-0.575410	-0.018075	-0.071388
C59	C	-0.576235	-0.054237	-0.215760
N60	N	-0.546756	0.400197	0.224755
C61	C	-0.568524	0.060207	-0.258906
C62	C	-0.569376	0.022834	-0.408122
C63	C	-0.562490	0.101122	0.404364
C64	C	-0.561664	0.137294	0.548738
H65	H	-0.531915	-0.288318	0.263690
N66	N	0.275875	-0.022724	-0.089877
H67	H	0.302249	0.069235	-0.080568
H68	H	0.247659	-0.041432	-0.164298
H69	H	-0.605986	-0.628634	0.069300
H70	H	-0.210590	-0.041327	-0.163990
N71	N	-0.413771	0.105838	0.422887
H72	H	-0.385584	0.124498	0.497374
H73	H	-0.440155	0.013852	0.413457
N74	N	-0.558947	0.226645	-0.161520
H75	H	-0.553919	0.297884	-0.210814
H76	H	-0.528176	0.249450	-0.093124
N77	N	-0.504859	-0.490001	0.334726
H78	H	-0.503077	-0.380898	0.339395
H79	H	-0.472447	-0.521247	0.315922
H80	H	-0.622782	-0.400055	0.025195
H81	H	-0.317589	0.097259	0.388865
H82	H	-0.018757	0.124950	0.499494
N83	N	-0.174707	0.133928	0.535162
H84	H	-0.146517	0.152589	0.609642
H85	H	-0.201089	0.041939	0.525735
N86	N	-0.069965	0.133094	0.532280
H87	H	-0.089014	0.152056	0.608046
H88	H	-0.042943	0.227672	0.552108
N89	N	0.201121	0.101570	0.406080
H90	H	0.229309	0.120239	0.480565
H91	H	0.174740	0.009575	0.396650
N92	N	0.305883	0.100829	0.403207
H93	H	0.340539	0.096071	0.384219
H94	H	0.294441	0.020424	0.440055
N95	N	-0.552084	0.303739	-0.353874
H96	H	-0.578582	0.355140	-0.378796
H97	H	-0.518404	0.360624	-0.356540
N98	N	-0.578961	-0.143612	-0.505511
H99	H	-0.612629	-0.200615	-0.502882
H100	H	-0.552436	-0.194890	-0.480537
H101	H	0.179690	-0.014206	-0.055858
N102	N	-0.114408	-0.049859	-0.198029
H103	H	-0.142599	-0.068532	-0.272508
H104	H	-0.099599	-0.144737	-0.218946
N105	N	-0.585817	-0.220677	-0.313144
H106	H	-0.585069	-0.223783	-0.405935
H107	H	-0.619482	-0.277583	-0.310401
H108	H	-0.343766	-0.010554	-0.041538
N109	N	-0.443775	-0.017740	-0.070201
H110	H	-0.478431	-0.012984	-0.051214
H111	H	-0.443903	-0.124219	-0.137410
N112	N	0.081245	0.132123	0.528150
H113	H	0.115900	0.127358	0.509159
H114	H	0.069804	0.051726	0.565006
N115	N	0.036801	-0.050871	-0.202140
H116	H	0.008613	-0.069536	-0.276625
H117	H	0.051609	-0.145752	-0.223059
H118	H	-0.059379	-0.042337	-0.168109
