data_functionalizedCrystal
_audit_creation_method	'MofGen! by Chris Wilmer'
_symmetry_space_group_name_H-M	'P1'
_symmetry_Int_Tables_number	1
_symmetry_cell_setting	triclinic
loop_
_symmetry_equiv_pos_as_xyz
  x,y,z
_cell_length_a	19.188930
_cell_length_b	19.188930
_cell_length_c	18.266242
_cell_angle_alpha	90.011475
_cell_angle_beta	89.977082
_cell_angle_gamma	96.855221
loop_
_atom_site_label
_atom_site_type_symbol
_atom_site_fract_x
_atom_site_fract_y
_atom_site_fract_z
O1	O	0.926149	-0.087169	-0.061124
O2	O	1.426149	0.412831	0.438876
O3	O	0.722838	-0.098903	-0.061075
O4	O	1.222838	0.401097	0.438925
O5	O	0.830361	0.008620	-0.061087
O6	O	1.330361	0.508620	0.438913
O7	O	0.818627	-0.194691	-0.061113
O8	O	1.318627	0.305309	0.438887
O9	O	0.830343	0.008625	0.060675
O10	O	1.330343	0.508625	0.560675
O11	O	0.722820	-0.098897	0.060687
O12	O	1.222820	0.401103	0.560687
O13	O	0.926131	-0.087163	0.060638
O14	O	1.426131	0.412837	0.560638
Zn15	Zn	0.824473	-0.093029	0.079994
Zn16	Zn	1.324473	0.406971	0.579994
Zn17	Zn	0.824497	-0.093037	-0.080432
Zn18	Zn	1.324497	0.406963	0.419568
O19	O	0.818608	-0.194686	0.060649
O20	O	1.318608	0.305314	0.560649
C21	C	0.696818	-0.098520	-0.000188
C22	C	1.196818	0.401480	0.499812
C23	C	0.619313	-0.097380	-0.000169
C24	C	1.119313	0.402620	0.499831
C25	C	0.574389	-0.160470	-0.000188
C26	C	1.074389	0.339530	0.499812
C27	C	0.501566	-0.159399	-0.000196
C28	C	1.001566	0.340601	0.499804
C29	C	0.473669	-0.095233	-0.000199
C30	C	0.973669	0.404767	0.499801
C31	C	0.518603	-0.032133	-0.000175
C32	C	1.018603	0.467867	0.499825
C33	C	0.591425	-0.033207	-0.000160
C34	C	1.091425	0.466793	0.499840
N35	N	0.365695	-0.046188	-0.041663
N36	N	0.865695	0.453812	0.458337
N37	N	0.296516	-0.045172	-0.041679
N38	N	0.796516	0.454828	0.458321
C39	C	0.254260	-0.091994	-0.000243
C40	C	0.754260	0.408006	0.499757
N41	N	0.283795	-0.139881	0.041200
N42	N	0.783795	0.360119	0.541200
N43	N	0.352980	-0.140899	0.041213
N44	N	0.852980	0.359101	0.541213
C45	C	0.394707	-0.094062	-0.000215
C46	C	0.894707	0.405938	0.499785
C47	C	0.130372	-0.153928	-0.000270
C48	C	0.630372	0.346072	0.499730
C49	C	0.057547	-0.152853	-0.000274
C50	C	0.557547	0.347147	0.499726
C51	C	0.074586	-0.025586	-0.000261
C52	C	0.574586	0.474414	0.499739
C53	C	0.147409	-0.026662	-0.000250
C54	C	0.647409	0.473338	0.499750
C55	C	0.175298	-0.090835	-0.000258
C56	C	0.675298	0.409165	0.499742
C57	C	0.829972	0.034634	-0.000204
C58	C	1.329972	0.534634	0.499796
C59	C	0.828831	0.112138	-0.000197
C60	C	1.328831	0.612138	0.499803
C61	C	0.952151	-0.087546	-0.000252
C62	C	1.452151	0.412454	0.499748
C63	C	1.029656	-0.088687	-0.000276
C64	C	1.529656	0.411313	0.499724
C65	C	0.818997	-0.220700	-0.000236
C66	C	1.318997	0.279300	0.499764
C67	C	0.820138	-0.298204	-0.000247
C68	C	1.320138	0.201796	0.499753
N69	N	0.824461	-0.093024	0.189481
N70	N	1.324461	0.406976	0.689481
C71	C	0.891922	0.157062	-0.000209
C72	C	1.391922	0.657062	0.499791
C73	C	0.890850	0.229886	-0.000220
C74	C	1.390850	0.729886	0.499780
C75	C	0.826684	0.257782	-0.000206
C76	C	1.326684	0.757782	0.499794
C77	C	0.763585	0.212849	-0.000198
C78	C	1.263585	0.712849	0.499802
C79	C	0.764658	0.140026	-0.000194
C80	C	1.264658	0.640026	0.499806
N81	N	0.777631	0.365789	0.041244
N82	N	1.277631	0.865789	0.541244
N83	N	0.776615	0.434968	0.041242
N84	N	1.276615	0.934968	0.541242
C85	C	0.823446	0.477191	-0.000220
C86	C	1.323446	0.977191	0.499780
N87	N	0.871341	0.447624	-0.041669
N88	N	1.371341	0.947624	0.458331
N89	N	0.872359	0.378439	-0.041664
N90	N	1.372359	0.878439	0.458336
C91	C	0.825513	0.336745	-0.000210
C92	C	1.325513	0.836745	0.499790
C93	C	0.885379	0.601079	-0.000245
C94	C	1.385379	1.101079	0.499755
C95	C	0.884305	0.673904	-0.000261
C96	C	1.384305	1.173904	0.499739
C97	C	0.757038	0.656865	-0.000231
C98	C	1.257038	1.156865	0.499769
C99	C	0.758114	0.584042	-0.000222
C100	C	1.258114	1.084042	0.499778
C101	C	0.822287	0.556154	-0.000226
C102	C	1.322287	1.056154	0.499774
N103	N	0.824513	-0.093037	-0.189919
N104	N	1.324513	0.406963	0.310081
C105	C	0.872088	-0.045436	0.227785
C106	C	1.372088	0.454564	0.727785
C107	C	0.872092	-0.045433	0.304430
C108	C	1.372092	0.454567	0.804430
C109	C	0.824477	-0.093030	0.342768
C110	C	1.324477	0.406970	0.842768
C111	C	0.776841	-0.140621	0.304455
C112	C	1.276841	0.359379	0.804455
C113	C	0.776834	-0.140618	0.227812
C114	C	1.276834	0.359382	0.727812
N115	N	0.815401	-0.154837	0.463094
N116	N	1.315401	0.345163	0.963094
N117	N	0.815413	-0.154838	0.535902
N118	N	1.315413	0.345162	1.035902
C119	C	0.824496	-0.093040	0.573691
C120	C	1.324496	0.406960	1.073691
N121	N	0.833582	-0.031239	0.535920
N122	N	1.333582	0.468761	1.035920
N123	N	0.833574	-0.031240	0.463106
N124	N	1.333574	0.468760	0.963106
C125	C	0.824480	-0.093038	0.425875
C126	C	1.324480	0.406962	0.925875
C127	C	0.872131	-0.045444	0.695101
C128	C	1.372131	0.454556	1.195101
C129	C	0.872130	-0.045440	0.771748
C130	C	1.372130	0.454560	1.271748
C131	C	0.776882	-0.140634	0.771772
C132	C	1.276882	0.359366	1.271772
C133	C	0.776879	-0.140632	0.695127
C134	C	1.276879	0.359368	1.195127
C135	C	0.824507	-0.093038	0.656796
C136	C	1.324507	0.406962	1.156796
H137	H	0.020970	-0.204232	-0.000285
H138	H	0.520970	0.295768	0.499715
N139	N	0.920737	0.003183	0.343571
N140	N	1.420737	0.503183	0.843571
N141	N	0.919990	0.067720	0.335040
N142	N	1.419990	0.567720	0.835040
H143	H	0.954345	0.102054	0.362684
H144	H	1.454345	0.602054	0.862684
N145	N	0.693661	0.538159	-0.000208
N146	N	1.193661	1.038159	0.499792
N147	N	0.636373	0.563072	-0.000197
N148	N	1.136373	1.063072	0.499803
H149	H	0.590849	0.530668	-0.000189
H150	H	1.090849	1.030668	0.499811
H151	H	0.738071	-0.179374	0.335674
H152	H	1.238071	0.320626	0.835674
H153	H	0.910868	-0.006681	0.196579
H154	H	1.410868	0.493319	0.696579
N155	N	0.957469	0.128574	-0.000234
N156	N	1.457469	0.628574	0.499766
N157	N	0.972275	0.089831	-0.051564
N158	N	1.472275	0.589831	0.448436
H159	H	1.018568	0.069709	-0.051583
H160	H	1.518568	0.569709	0.448417
N161	N	0.728175	-0.189233	0.188693
N162	N	1.228175	0.310767	0.688693
N163	N	0.685659	-0.231724	0.222928
N164	N	1.185659	0.268276	0.722928
H165	H	0.651293	-0.266060	0.195300
H166	H	1.151293	0.233940	0.695300
H167	H	0.464982	-0.210776	-0.000210
H168	H	0.964982	0.289224	0.499790
H169	H	0.495885	0.020111	-0.000188
H170	H	0.995885	0.520111	0.499812
H171	H	0.051874	0.026659	-0.000309
H172	H	0.551874	0.526659	0.499691
H173	H	0.910910	-0.006688	0.663892
H174	H	1.410910	0.493312	1.163892
N175	N	0.955305	0.275775	-0.000233
N176	N	1.455305	0.775775	0.499767
N177	N	1.012595	0.250866	-0.000238
N178	N	1.512595	0.750866	0.499762
H179	H	1.058117	0.283273	-0.000246
H180	H	1.558117	0.783273	0.499754
N181	N	0.920781	0.003183	0.810865
N182	N	1.420781	0.503183	1.310865
N183	N	0.963298	0.045672	0.776629
N184	N	1.463298	0.545672	1.276629
H185	H	0.997659	0.080014	0.804256
H186	H	1.497659	0.580014	1.304256
N187	N	0.728241	-0.189243	0.810935
N188	N	1.228241	0.310757	1.310935
N189	N	0.728250	-0.189236	0.879366
N190	N	1.228250	0.310764	1.379366
H191	H	0.693894	-0.223564	0.907029
H192	H	1.193894	0.276436	1.407029
N193	N	0.158854	-0.219480	-0.000260
N194	N	0.658854	0.280520	0.499740
N195	N	0.144990	-0.261959	0.051064
N196	N	0.644990	0.238041	0.551064
H197	H	0.165104	-0.308257	0.051073
H198	H	0.665104	0.191743	0.551073
N199	N	0.602890	-0.226011	-0.000193
N200	N	1.102890	0.273989	0.499807
N201	N	0.641658	-0.240809	-0.051510
N202	N	1.141658	0.259191	0.448490
H203	H	0.661790	-0.287097	-0.051512
H204	H	1.161790	0.212903	0.448488
H205	H	0.711340	0.235567	-0.000187
H206	H	1.211340	0.735567	0.499813
H207	H	0.713281	0.103448	-0.000184
H208	H	1.213281	0.603448	0.499816
N209	N	0.950932	0.572598	-0.000246
N210	N	1.450932	1.072598	0.499754
N211	N	1.007261	0.612721	-0.000262
N212	N	1.507261	1.112721	0.499738
H213	H	1.053559	0.592609	-0.000261
H214	H	1.553559	1.092609	0.499739
H215	H	0.935683	0.710481	-0.000274
H216	H	1.435683	1.210481	0.499726
N217	N	0.728235	-0.189259	0.656009
N218	N	1.228235	0.310741	1.156009
N219	N	0.728993	-0.253793	0.664556
N220	N	1.228993	0.246207	1.164556
H221	H	0.694634	-0.288138	0.636931
H222	H	1.194634	0.211862	1.136931
N223	N	0.637308	0.031248	-0.000137
N224	N	1.137308	0.531248	0.499863
N225	N	0.612396	0.088537	-0.000132
N226	N	1.112396	0.588537	0.499868
H227	H	0.644801	0.134060	-0.000116
H228	H	1.144801	0.634060	0.499884
H229	H	0.183988	0.024713	-0.000238
H230	H	0.683988	0.524713	0.499762
H231	H	0.704792	0.679578	-0.000222
H232	H	1.204792	1.179578	0.499778
