data_functionalizedCrystal
_audit_creation_method	'MofGen! by Chris Wilmer'
_symmetry_space_group_name_H-M	'P1'
_symmetry_Int_Tables_number	1
_symmetry_cell_setting	triclinic
loop_
_symmetry_equiv_pos_as_xyz
  x,y,z
_cell_length_a	14.908571
_cell_length_b	14.909229
_cell_length_c	14.908308
_cell_angle_alpha	96.748174
_cell_angle_beta	89.824947
_cell_angle_gamma	96.363944
loop_
_atom_site_label
_atom_site_type_symbol
_atom_site_fract_x
_atom_site_fract_y
_atom_site_fract_z
Zn1	Zn	1.370862	0.473894	0.616449
Zn2	Zn	1.387192	0.617528	0.474839
Zn3	Zn	1.228237	0.456452	0.456385
Zn4	Zn	1.228161	0.616449	0.616425
O5	O	1.303613	0.541081	0.541025
O6	O	1.499273	0.500699	0.605398
O7	O	1.372971	0.589313	0.346149
O8	O	1.240354	0.331696	0.469905
O9	O	1.511270	0.606226	0.501357
O10	O	1.345140	0.344510	0.587503
O11	O	1.256188	0.470971	0.332591
O12	O	1.101982	0.469925	0.469881
O13	O	1.240226	0.604387	0.742670
O14	O	1.101927	0.587474	0.587462
O15	O	1.345067	0.499653	0.742688
O16	O	1.372899	0.744455	0.501334
O17	O	1.256060	0.743663	0.605356
C18	C	1.069221	0.526691	0.526667
C19	C	0.968947	0.520557	0.520547
C20	C	1.316266	0.777009	0.555366
C21	C	1.321760	0.877947	0.561537
C22	C	1.290817	0.553845	0.776327
C23	C	1.285363	0.559284	0.876599
C24	C	0.780531	0.631608	0.631341
C25	C	0.686315	0.625848	0.625594
C26	C	0.686296	0.503275	0.503313
C27	C	0.780512	0.509034	0.509059
C28	C	0.827627	0.573204	0.573075
C29	C	0.921845	0.578967	0.578816
C30	C	0.921824	0.456390	0.456539
C31	C	0.827608	0.450630	0.450793
C32	C	1.538920	0.555528	0.555439
C33	C	1.639194	0.561685	0.561581
C34	C	1.223081	1.054431	0.450577
C35	C	1.228240	1.149271	0.456372
C36	C	1.337242	1.162469	0.578917
C37	C	1.332083	1.067629	0.573122
C38	C	1.274999	1.013613	0.508951
C39	C	1.269836	0.918771	0.503161
C40	C	1.378842	0.931971	0.625700
C41	C	1.384002	1.026811	0.631495
C42	C	1.290880	1.304231	0.526653
C43	C	1.285318	1.203292	0.520540
C44	C	1.316408	0.528304	0.306636
C45	C	1.322022	0.522620	0.206360
C46	C	1.384284	0.460424	1.065040
C47	C	1.379163	0.465532	1.159255
C48	C	1.269996	0.574602	1.159244
C49	C	1.275117	0.569494	1.065030
C50	C	1.332264	0.512404	1.017931
C51	C	1.337389	0.507302	0.923715
C52	C	1.228218	0.616367	0.923706
C53	C	1.223097	0.621475	1.017920
H54	H	0.960204	0.631219	0.630939
H55	H	1.421521	0.423201	1.197607
H56	H	1.185862	0.658696	0.885340
O57	O	0.781944	0.388345	0.388495
C58	C	0.810875	0.404600	0.301151
H59	H	0.881263	0.443582	0.305519
H60	H	0.812753	0.337012	0.257007
H61	H	0.762004	0.446348	0.270299
O62	O	1.214550	0.630023	1.205145
C63	C	1.221161	0.623353	1.298399
H64	H	1.288496	0.598596	1.313724
H65	H	1.216719	0.692926	1.337974
H66	H	1.163614	0.573144	1.318906
H67	H	1.421115	0.898727	0.673235
O68	O	0.826355	0.694034	0.693398
C69	C	0.886805	0.753128	0.648825
H70	H	0.862554	0.753033	0.576366
H71	H	0.889875	0.824892	0.685656
H72	H	0.956865	0.729245	0.648411
H73	H	1.176568	0.667954	1.056281
H74	H	0.647973	0.673405	0.673043
H75	H	0.960180	0.408835	0.409092
O76	O	1.392551	1.214997	0.641334
C77	C	1.340945	1.269902	0.699728
H78	H	1.268040	1.237305	0.699145
H79	H	1.369787	1.276716	0.771244
H80	H	1.343276	1.340079	0.676016
O81	O	0.640382	0.440994	0.441188
C82	C	0.547122	0.448404	0.448649
H83	H	0.536428	0.519351	0.481526
H84	H	0.514608	0.436236	0.378533
H85	H	0.514917	0.395619	0.491921
H86	H	1.223353	0.874792	0.450912
O87	O	1.167524	1.001913	0.388371
C88	C	1.103460	0.946277	0.432768
H89	H	1.095521	0.978349	0.505215
H90	H	1.035780	0.939236	0.395774
H91	H	1.127272	0.876257	0.433217
H92	H	1.185963	1.182500	0.408838
H93	H	1.430480	1.070803	0.683739
H94	H	1.430821	0.413944	1.026692
O95	O	1.392773	0.451785	0.877853
C96	C	1.341222	0.387019	0.816667
H97	H	1.275342	0.414093	0.800309
H98	H	1.380917	0.373503	0.751927
H99	H	1.325722	0.321089	0.848286
