data_functionalizedCrystal
_audit_creation_method	'MofGen! by Chris Wilmer'
_symmetry_space_group_name_H-M	'P1'
_symmetry_Int_Tables_number	1
_symmetry_cell_setting	triclinic
loop_
_symmetry_equiv_pos_as_xyz
  x,y,z
_cell_length_a	17.699083
_cell_length_b	16.992695
_cell_length_c	16.176319
_cell_angle_alpha	89.993125
_cell_angle_beta	89.998611
_cell_angle_gamma	86.975619
loop_
_atom_site_label
_atom_site_type_symbol
_atom_site_fract_x
_atom_site_fract_y
_atom_site_fract_z
O1	O	1.010252	0.099146	-0.068631
O2	O	0.790676	0.112045	-0.068658
O3	O	0.899584	-0.008546	-0.068638
O4	O	0.901344	0.219736	-0.068651
O5	O	0.899567	-0.008553	0.068855
O6	O	0.790660	0.112037	0.068835
O7	O	1.010235	0.099138	0.068862
Cu8	Cu	0.900446	0.105587	0.081403
Cu9	Cu	0.900465	0.105596	-0.081199
O10	O	0.901328	0.219729	0.068842
C11	C	0.762442	0.111579	0.000085
C12	C	0.678338	0.110192	0.000075
C13	C	0.897311	-0.037758	0.000108
C14	C	0.890554	-0.124789	0.000107
C15	C	0.634124	0.180976	0.000071
C16	C	0.555099	0.179669	0.000082
C17	C	0.520290	0.107576	0.000091
C18	C	0.564510	0.036787	0.000097
C19	C	0.643533	0.038095	0.000092
C20	C	0.245818	0.031509	0.000118
C21	C	0.166789	0.030206	0.000120
C22	C	0.157384	0.173082	0.000108
C23	C	0.236408	0.174391	0.000103
C24	C	0.280621	0.103602	0.000113
C25	C	0.366308	0.105020	0.000103
C26	C	0.434604	0.106157	0.000095
C27	C	0.955751	-0.175154	0.000116
C28	C	0.949398	-0.256928	0.000107
C29	C	0.877846	-0.288336	0.000096
C30	C	0.812643	-0.237965	0.000084
C31	C	0.818998	-0.156192	0.000087
C32	C	0.851510	-0.531884	0.000081
C33	C	0.845160	-0.613663	0.000081
C34	C	0.981915	-0.632621	0.000102
C35	C	0.988263	-0.550845	0.000110
C36	C	0.923061	-0.500481	0.000094
N37	N	0.871350	-0.371923	0.000090
N38	N	0.929558	-0.416897	0.000095
C39	C	1.038469	0.099604	0.000117
C40	C	1.122574	0.100991	0.000122
C41	C	0.903601	0.248941	0.000094
C42	C	0.910358	0.335972	0.000090
N43	N	0.900438	0.105580	0.195768
N44	N	0.900479	0.105597	-0.195564
C45	C	0.948679	0.052204	0.239041
C46	C	0.948683	0.052203	0.325588
C47	C	0.900449	0.105583	0.368861
C48	C	0.852202	0.158961	0.325582
C49	C	0.852195	0.158957	0.239036
C50	C	0.852229	0.158976	0.674610
C51	C	0.852242	0.158977	0.761161
C52	C	0.948717	0.052222	0.761162
C53	C	0.948709	0.052218	0.674617
C54	C	0.900461	0.105593	0.631345
C55	C	0.900456	0.105593	0.537501
C56	C	0.900457	0.105588	0.462703
H57	H	0.662460	0.239682	0.000064
C58	C	0.799915	0.217037	0.192094
C59	C	0.816857	0.294066	0.213112
C60	C	0.768716	0.347588	0.169878
H61	H	0.748869	0.208694	0.206250
H62	H	0.806824	0.209442	0.134346
H63	H	0.809942	0.301658	0.270847
H64	H	0.867895	0.302434	0.198953
H65	H	0.775625	0.339994	0.112130
H66	H	0.717673	0.339238	0.184038
H67	H	0.780209	0.399858	0.184127
H68	H	0.281807	-0.026132	0.000127
H69	H	0.679531	-0.019545	0.000095
C70	C	0.109473	0.250003	0.000233
C71	C	0.125877	0.293430	0.070952
C72	C	0.081766	0.364295	0.071086
H73	H	0.057405	0.239014	0.000282
H74	H	0.120504	0.279612	-0.047694
H75	H	0.114841	0.263827	0.118867
H76	H	0.177937	0.304439	0.070917
H77	H	0.092797	0.393904	0.023159
H78	H	0.029701	0.353299	0.071133
H79	H	0.092895	0.393772	0.119064
H80	H	0.812945	0.202437	0.639385
C81	C	0.507227	0.256606	0.000035
C82	C	0.554625	0.320021	-0.000001
C83	C	0.510552	0.390910	-0.000053
H84	H	0.476197	0.259178	0.047972
H85	H	0.476214	0.259109	-0.047928
H86	H	0.585624	0.317518	0.047957
H87	H	0.585654	0.317475	-0.047934
H88	H	0.479539	0.393414	-0.048016
H89	H	0.479524	0.393474	0.047885
H90	H	0.542705	0.433945	-0.000085
H91	H	0.987964	0.008741	0.360821
C92	C	0.274094	0.252723	-0.000037
C93	C	0.252013	0.295515	-0.070765
C94	C	0.286703	0.367685	-0.070914
H95	H	0.327495	0.243481	-0.000083
H96	H	0.259191	0.281901	0.047884
H97	H	0.266921	0.266344	-0.118674
H98	H	0.198618	0.304778	-0.070734
H99	H	0.271799	0.396863	-0.022993
H100	H	0.340102	0.358436	-0.070958
H101	H	0.271720	0.396732	-0.118898
H102	H	0.138450	-0.028504	0.000128
C103	C	1.000908	-0.005787	0.627487
C104	C	0.990526	0.005586	0.542432
C105	C	1.038541	-0.047891	0.498992
H106	H	0.989441	-0.058077	0.641663
H107	H	1.051995	0.002525	0.641531
H108	H	0.939451	-0.002732	0.528393
H109	H	1.001999	0.057866	0.528231
H110	H	1.089628	-0.039580	0.513036
H111	H	1.027069	-0.100178	0.513174
H112	H	1.031508	-0.040177	0.441278
H113	H	0.536162	-0.021912	0.000116
H114	H	1.014017	-0.149588	0.000131
C115	C	1.020275	-0.311480	0.000166
C116	C	1.084296	-0.266472	0.000206
C117	C	1.149604	-0.316697	0.000271
H118	H	1.020758	-0.343786	-0.047769
H119	H	1.020670	-0.343768	0.048131
H120	H	1.083901	-0.234197	-0.047755
H121	H	1.083838	-0.234168	0.048137
H122	H	1.149999	-0.348986	0.048236
H123	H	1.150079	-0.349001	-0.047664
H124	H	1.193050	-0.286167	0.000306
H125	H	1.046528	-0.525279	0.000120
C126	C	0.799916	0.216882	0.372710
C127	C	0.810262	0.205478	0.457765
C128	C	0.762116	0.258831	0.501203
H129	H	0.748863	0.208485	0.358636
H130	H	0.811303	0.269213	0.358561
H131	H	0.798869	0.153160	0.471908
H132	H	0.861304	0.213882	0.471864
H133	H	0.773504	0.311161	0.487055
H134	H	0.711067	0.250429	0.487123
H135	H	0.769134	0.251105	0.558917
H136	H	0.786891	-0.639232	0.000085
C137	C	0.780786	-0.477115	0.000198
C138	C	0.780438	-0.429606	0.070923
C139	C	0.715302	-0.379131	0.071054
H140	H	0.737205	-0.507432	0.000236
H141	H	0.780425	-0.444771	-0.047725
H142	H	0.780791	-0.461946	0.118834
H143	H	0.824003	-0.399272	0.070900
H144	H	0.714942	-0.346787	0.023130
H145	H	0.671727	-0.409455	0.071089
H146	H	0.715061	-0.346885	0.119035
H147	H	1.034999	-0.673635	0.000114
C148	C	0.748121	-0.101638	0.000119
C149	C	0.684098	-0.146644	0.000130
C150	C	0.618791	-0.096416	0.000165
H151	H	0.747659	-0.069322	-0.047816
H152	H	0.747707	-0.069359	0.048084
H153	H	0.684512	-0.178909	-0.047831
H154	H	0.684535	-0.178957	0.048061
H155	H	0.618377	-0.064137	0.048130
H156	H	0.618337	-0.064103	-0.047771
H157	H	0.575344	-0.126945	0.000180
H158	H	0.987960	0.008740	0.203814
C159	C	1.001048	-0.005865	0.808041
C160	C	0.984131	-0.082891	0.786982
C161	C	1.032328	-0.136417	0.830141
H162	H	0.994190	0.001668	0.865794
H163	H	1.052081	0.002536	0.793835
H164	H	0.933110	-0.091289	0.801194
H165	H	0.990993	-0.090448	0.729237
H166	H	1.083360	-0.128017	0.815934
H167	H	1.025466	-0.128878	0.887892
H168	H	1.020860	-0.188686	0.815853
C169	C	0.799737	0.216839	0.808102
C170	C	0.724603	0.204196	0.787084
C171	C	0.676218	0.257473	0.830318
H172	H	0.811008	0.269191	0.793946
H173	H	0.806604	0.209192	0.865850
H174	H	0.717739	0.211850	0.729349
H175	H	0.713308	0.151855	0.801243
H176	H	0.683085	0.249826	0.888066
H177	H	0.687496	0.309822	0.816158
H178	H	0.625234	0.248898	0.816069
H179	H	0.754384	-0.263544	0.000070
