data_functionalizedCrystal
_audit_creation_method	'MofGen! by Chris Wilmer'
_symmetry_space_group_name_H-M	'P1'
_symmetry_Int_Tables_number	1
_symmetry_cell_setting	triclinic
loop_
_symmetry_equiv_pos_as_xyz
  x,y,z
_cell_length_a	12.759401
_cell_length_b	21.295416
_cell_length_c	21.295420
_cell_angle_alpha	89.984921
_cell_angle_beta	90.012332
_cell_angle_gamma	89.970624
loop_
_atom_site_label
_atom_site_type_symbol
_atom_site_fract_x
_atom_site_fract_y
_atom_site_fract_z
Zn1	Zn	1.606077	0.250722	0.355869
Zn2	Zn	2.106077	0.750722	0.855869
Zn3	Zn	1.605942	0.355967	0.250599
Zn4	Zn	2.105942	0.855967	0.750599
Zn5	Zn	1.430398	0.250714	0.250620
Zn6	Zn	1.930398	0.750714	0.750620
Zn7	Zn	1.430319	0.355956	0.355837
Zn8	Zn	1.930319	0.855956	0.855837
O9	O	1.518184	0.303340	0.303231
O10	O	2.018184	0.803340	0.803231
O11	O	1.753080	0.264692	0.341910
O12	O	2.253080	0.764692	0.841910
O13	O	1.582632	0.342006	0.162513
O14	O	2.082632	0.842006	0.662513
O15	O	1.453791	0.162625	0.264604
O16	O	1.953791	0.662625	0.764604
O17	O	1.752981	0.342014	0.264569
O18	O	2.252981	0.842014	0.764569
O19	O	1.582861	0.162632	0.341930
O20	O	2.082861	0.662632	0.841930
O21	O	1.453661	0.264677	0.162528
O22	O	1.953661	0.764677	0.662528
O23	O	1.283366	0.264666	0.264572
O24	O	1.783366	0.764666	0.764572
O25	O	1.453657	0.341996	0.443930
O26	O	1.953657	0.841996	0.943930
O27	O	1.283309	0.341987	0.341875
O28	O	1.783309	0.841987	0.841875
O29	O	1.582785	0.264681	0.443954
O30	O	2.082785	0.764681	0.943954
O31	O	1.582556	0.444055	0.264537
O32	O	2.082556	0.944055	0.764537
O33	O	1.453527	0.444047	0.341854
O34	O	1.953527	0.944047	0.841854
C35	C	1.245217	0.303325	0.303223
C36	C	1.745217	0.803325	0.803223
C37	C	1.128440	0.303334	0.303234
C38	C	1.628440	0.803334	0.803234
C39	C	1.073622	0.263148	0.343568
C40	C	1.573622	0.763148	0.843568
C41	C	0.963898	0.263160	0.343572
C42	C	1.463898	0.763160	0.843572
C43	C	0.963819	0.343549	0.262906
C44	C	1.463819	0.843549	0.762906
C45	C	1.073541	0.343533	0.262899
C46	C	1.573541	0.843533	0.762899
C47	C	1.073667	0.216738	0.390142
C48	C	1.573667	0.716738	0.890142
C49	C	0.963943	0.216750	0.390146
C50	C	1.463943	0.716750	0.890146
C51	C	1.518047	0.466891	0.303204
C52	C	2.018047	0.966891	0.803204
C53	C	1.518085	0.536859	0.303213
C54	C	2.018085	1.036859	0.803213
C55	C	1.585330	0.569709	0.262996
C56	C	2.085330	1.069709	0.762996
C57	C	1.585380	0.635452	0.263013
C58	C	2.085380	1.135452	0.763013
C59	C	1.518165	0.668342	0.303240
C60	C	2.018165	1.168342	0.803240
C61	C	1.450915	0.635484	0.343465
C62	C	1.950915	1.135484	0.843465
C63	C	1.450875	0.569743	0.343451
C64	C	1.950875	1.069743	0.843451
N65	N	1.426257	0.771608	0.308041
N66	N	1.926257	1.271608	0.808041
N67	N	1.426299	0.834059	0.308050
N68	N	1.926299	1.334059	0.808050
C69	C	1.518284	0.866417	0.303285
C70	C	2.018284	1.366417	0.803285
N71	N	1.610228	0.833963	0.298498
N72	N	2.110228	1.333963	0.798498
N73	N	1.610186	0.771506	0.298485
N74	N	2.110186	1.271506	0.798485
C75	C	1.518202	0.739627	0.303260
C76	C	2.018202	1.239627	0.803260
C77	C	1.585588	0.970552	0.263085
C78	C	2.085588	1.470552	0.763085
C79	C	1.585640	1.036296	0.263106
C80	C	2.085640	1.536296	0.763106
C81	C	1.451166	1.036327	0.343554
C82	C	1.951166	1.536327	0.843554
C83	C	1.451124	0.970584	0.343536
C84	C	1.951124	1.470584	0.843536
C85	C	1.518334	0.937701	0.303298
C86	C	2.018334	1.437701	0.803298
C87	C	1.792217	0.303355	0.303241
C88	C	2.292217	0.803355	0.803241
C89	C	1.908994	0.303362	0.303244
C90	C	2.408994	0.803362	0.803244
C91	C	1.518351	1.139149	0.303284
C92	C	2.018351	1.639149	0.803284
C93	C	1.518426	1.069181	0.303334
C94	C	2.018426	1.569181	0.803334
C95	C	1.518228	0.303338	0.467422
C96	C	2.018228	0.803338	0.967422
C97	C	1.518246	0.303337	0.537390
C98	C	2.018246	0.803337	1.037390
C99	C	1.451101	0.263075	0.570254
C100	C	1.951101	0.763075	1.070254
C101	C	1.451082	0.263079	0.635997
C102	C	1.951082	0.763079	1.135997
C103	C	1.518227	0.303338	0.668872
C104	C	2.018227	0.803338	1.168872
C105	C	1.585377	0.343608	0.636000
C106	C	2.085377	0.843608	1.136000
C107	C	1.585387	0.343608	0.570258
C108	C	2.085387	0.843608	1.070258
N109	N	1.610172	0.308170	0.772108
N110	N	2.110172	0.808170	1.272108
N111	N	1.610159	0.308166	0.834559
N112	N	2.110159	0.808166	1.334559
C113	C	1.518200	0.303341	0.866947
C114	C	2.018200	0.803341	1.366947
N115	N	1.426250	0.298507	0.834524
N116	N	1.926250	0.798507	1.334524
N117	N	1.426264	0.298508	0.772067
N118	N	1.926264	0.798508	1.272067
C119	C	1.518223	0.303342	0.740158
C120	C	2.018223	0.803342	1.240158
C121	C	1.451028	0.263080	0.971097
C122	C	1.951028	0.763080	1.471097
C123	C	1.451007	0.263088	1.036841
C124	C	1.951007	0.763088	1.536841
C125	C	1.585311	0.343614	1.036842
C126	C	2.085311	0.843614	1.536842
C127	C	1.585323	0.343609	0.971100
C128	C	2.085323	0.843609	1.471100
C129	C	1.518183	0.303339	0.938231
C130	C	2.018183	0.803339	1.438231
C131	C	1.518142	0.303353	1.139680
C132	C	2.018142	0.803353	1.639680
C133	C	1.518151	0.303348	1.069712
C134	C	2.018151	0.803348	1.569712
H135	H	1.107716	0.234270	0.436418
H136	H	1.607716	0.734270	0.936418
O137	O	1.132662	0.386871	0.219388
O138	O	1.632662	0.886871	0.719388
H139	H	1.218183	0.380103	0.226153
H140	H	1.718183	0.880103	0.726153
O141	O	0.924507	0.234158	0.454691
O142	O	1.424507	0.734158	0.954691
H143	H	0.992217	0.242678	0.486285
H144	H	1.492217	0.742678	0.986285
O145	O	1.378581	0.219657	1.072288
O146	O	1.878581	0.719657	1.572288
H147	H	1.389843	0.226426	1.123525
H148	H	1.889843	0.726426	1.623525
H149	H	1.640318	0.943777	0.230322
H150	H	2.140318	1.443777	0.730322
H151	H	1.640059	0.542938	0.230234
H152	H	2.140059	1.042938	0.730234
H153	H	1.639984	0.376392	1.063609
H154	H	2.139984	0.876392	1.563609
H155	H	1.640143	0.662203	0.230264
H156	H	2.140143	1.162203	0.730264
H157	H	1.396190	0.662267	0.376219
H158	H	1.896190	1.162267	0.876219
H159	H	1.396114	0.542996	0.376201
H160	H	1.896114	1.042996	0.876201
H161	H	0.929926	0.170411	0.372774
H162	H	1.429926	0.670411	0.872774
H163	H	1.640069	0.376393	0.543500
H164	H	2.140069	0.876393	1.043500
H165	H	1.103458	0.167959	0.377172
H166	H	1.603458	0.667959	0.877172
H167	H	1.640003	0.376394	0.944341
H168	H	2.140003	0.876394	1.444341
H169	H	1.396357	0.230290	0.944334
H170	H	1.896357	0.730290	1.444334
O171	O	0.904609	0.386908	0.219405
O172	O	1.404609	0.886908	0.719405
H173	H	0.819102	0.380170	0.226186
H174	H	1.319102	0.880170	0.726186
O175	O	1.658170	1.071732	0.219726
O176	O	2.158170	1.571732	0.719726
H177	H	1.704887	1.037819	0.191742
H178	H	2.204887	1.537819	0.691742
O179	O	1.378684	0.219640	0.534810
O180	O	1.878684	0.719640	1.034810
H181	H	1.325203	0.247804	0.504836
H182	H	1.825203	0.747804	1.004836
H183	H	1.396443	1.063105	0.376310
H184	H	1.896443	1.563105	0.876310
O185	O	1.378567	0.935146	0.386896
O186	O	1.878567	1.435146	0.886896
H187	H	1.331824	0.969060	0.414865
H188	H	1.831824	1.469060	0.914865
O189	O	1.378668	0.219646	0.671457
O190	O	1.878668	0.719646	1.171457
H191	H	1.331990	0.191641	0.637556
H192	H	1.831990	0.691641	1.137556
H193	H	1.640046	0.376387	0.662771
H194	H	2.140046	0.876387	1.162771
