data_functionalizedCrystal
_audit_creation_method	'MofGen! by Chris Wilmer'
_symmetry_space_group_name_H-M	'P1'
_symmetry_Int_Tables_number	1
_symmetry_cell_setting	triclinic
loop_
_symmetry_equiv_pos_as_xyz
  x,y,z
_cell_length_a	14.971486
_cell_length_b	15.944551
_cell_length_c	13.448316
_cell_angle_alpha	89.992444
_cell_angle_beta	89.998199
_cell_angle_gamma	83.556434
loop_
_atom_site_label
_atom_site_type_symbol
_atom_site_fract_x
_atom_site_fract_y
_atom_site_fract_z
O1	O	1.186829	0.109463	-0.082580
O2	O	0.926415	0.122572	-0.082607
O3	O	1.063733	-0.006250	-0.082584
O4	O	1.049511	0.238286	-0.082603
O5	O	1.063716	-0.006258	0.082800
O6	O	0.926398	0.122564	0.082777
O7	O	1.186812	0.109456	0.082804
Cu8	Cu	1.056603	0.116009	0.097891
Cu9	Cu	1.056624	0.116018	-0.097694
O10	O	1.049494	0.238278	0.082781
C11	C	0.893082	0.121982	0.000081
C12	C	0.793787	0.120225	0.000071
C13	C	1.063134	-0.037549	0.000108
C14	C	1.061364	-0.130797	0.000109
C15	C	0.736480	0.195904	0.000067
C16	C	0.643182	0.194249	0.000082
C17	C	0.607194	0.116913	0.000094
C18	C	0.664508	0.041227	0.000102
C19	C	0.757804	0.042884	0.000094
C20	C	0.470049	0.037780	0.000116
C21	C	0.376747	0.036123	0.000122
C22	C	0.355428	0.189145	0.000104
C23	C	0.448724	0.190801	0.000096
C24	C	0.506032	0.115116	0.000101
C25	C	0.972017	-0.345738	0.000086
C26	C	1.013498	-0.406720	0.081634
C27	C	1.058162	-0.301526	0.000101
C28	C	1.013536	-0.406696	-0.081421
C29	C	1.055062	-0.466441	0.000089
C30	C	1.099667	-0.361279	0.081717
C31	C	1.099692	-0.361248	-0.081412
C32	C	1.141236	-0.422212	0.000156
C33	C	1.059945	-0.206522	0.000109
C34	C	1.053286	-0.561444	0.000088
C35	C	1.220145	0.110046	0.000113
C36	C	1.319440	0.111802	0.000117
C37	C	1.050093	0.269576	0.000087
C38	C	1.051863	0.362824	0.000080
N39	N	1.056595	0.116002	0.235456
N40	N	1.056639	0.116019	-0.235258
C41	C	1.117419	0.058983	0.287506
C42	C	1.117425	0.058982	0.391610
C43	C	1.056610	0.116005	0.443660
C44	C	0.995780	0.173027	0.391602
C45	C	0.995771	0.173023	0.287501
C46	C	0.995805	0.173033	0.608582
C47	C	0.995815	0.173038	0.712691
C48	C	1.117459	0.058992	0.712691
C49	C	1.117449	0.058988	0.608590
C50	C	1.056620	0.116011	0.556539
H51	H	0.765774	0.258881	0.000056
C52	C	0.820069	-0.039258	0.000300
C53	C	0.874239	-0.042791	0.085396
C54	C	0.931599	-0.118454	0.085630
H55	H	0.856990	-0.041872	-0.057308
H56	H	0.785306	-0.085578	0.000360
H57	H	0.908999	0.003516	0.085326
H58	H	0.837342	-0.040191	0.143017
H59	H	0.896835	-0.164774	0.085690
H60	H	0.968514	-0.121061	0.028019
H61	H	0.968354	-0.120865	0.143371
C62	C	0.876659	-0.301454	0.000383
C63	C	0.831959	-0.324355	0.085959
C64	C	0.744121	-0.283568	0.086279
H65	H	0.845645	-0.317621	-0.056893
H66	H	0.878412	-0.242078	-0.000156
H67	H	0.830201	-0.383718	0.086489
H68	H	0.862945	-0.308187	0.143250
H69	H	0.745874	-0.224192	0.085740
H70	H	0.713116	-0.299738	0.028999
H71	H	0.713784	-0.299094	0.144345
C72	C	0.964978	-0.433764	0.173513
C73	C	0.964702	-0.521544	0.172745
C74	C	0.920017	-0.546484	0.257369
H75	H	0.904841	-0.407408	0.173507
H76	H	0.995005	-0.417505	0.231450
H77	H	0.934673	-0.537795	0.114824
H78	H	1.024826	-0.547921	0.172766
H79	H	0.950044	-0.530225	0.315306
H80	H	0.859883	-0.520123	0.257356
H81	H	0.919831	-0.606046	0.256864
H82	H	1.166945	0.012552	0.245134
H83	H	0.635199	-0.021741	0.000126
H84	H	0.946293	0.219471	0.755065
C85	C	1.148130	-0.334418	0.173713
C86	C	1.149165	-0.246724	0.172679
C87	C	1.193786	-0.221946	0.257416
H88	H	1.208092	-0.361205	0.174044
H89	H	1.117719	-0.350297	0.231571
H90	H	1.179577	-0.230854	0.114837
H91	H	1.089216	-0.219915	0.172364
H92	H	1.163376	-0.237825	0.315274
H93	H	1.253746	-0.248739	0.257739
H94	H	1.194488	-0.162444	0.256731
H95	H	1.166951	0.012552	0.433989
H96	H	1.166973	0.012560	0.566210
C97	C	1.183461	-0.003056	0.769067
C98	C	1.168980	-0.085623	0.743741
C99	C	1.229774	-0.142796	0.795647
H100	H	1.174824	0.004989	0.838537
H101	H	1.243167	0.006116	0.751971
H102	H	1.109288	-0.094791	0.760843
H103	H	1.177624	-0.093695	0.674280
H104	H	1.289481	-0.133624	0.778551
H105	H	1.221132	-0.134744	0.865114
H106	H	1.219963	-0.198824	0.778463
C107	C	1.236678	-0.466300	0.000428
C108	C	1.281343	-0.443276	0.085962
C109	C	1.369258	-0.483883	0.086258
H110	H	1.267621	-0.450076	-0.056878
H111	H	1.235071	-0.525695	-0.000067
H112	H	1.282954	-0.383893	0.086448
H113	H	1.250427	-0.459501	0.143282
H114	H	1.367651	-0.543278	0.085762
H115	H	1.400193	-0.467656	0.028948
H116	H	1.399572	-0.468273	0.144295
C117	C	1.148092	-0.334374	-0.173451
C118	C	1.102691	-0.357103	-0.258609
C119	C	1.147236	-0.332347	-0.343421
H120	H	1.207872	-0.361594	-0.174170
H121	H	1.149309	-0.274933	-0.172505
H122	H	1.101483	-0.416533	-0.259555
H123	H	1.042914	-0.329886	-0.257923
H124	H	1.148453	-0.272907	-0.342474
H125	H	1.207014	-0.359569	-0.344130
H126	H	1.116434	-0.347759	-0.401210
C127	C	0.929907	0.234985	0.551939
C128	C	0.977549	0.286460	0.492137
C129	C	0.916879	0.343533	0.439933
H130	H	0.893664	0.269031	0.597731
H131	H	0.892684	0.204732	0.511283
H132	H	1.014756	0.316710	0.532790
H133	H	1.013788	0.252437	0.446327
H134	H	0.879656	0.313280	0.399277
H135	H	0.880640	0.377573	0.485732
H136	H	0.949195	0.378460	0.399345
C137	C	0.964807	-0.433388	-0.173315
C138	C	0.876271	-0.394280	-0.172940
C139	C	0.831353	-0.418835	-0.257578
H140	H	0.964411	-0.492919	-0.173062
H141	H	0.994786	-0.417026	-0.231243
H142	H	0.846299	-0.410647	-0.115027
H143	H	0.876640	-0.334749	-0.173208
H144	H	0.861332	-0.402473	-0.315506
H145	H	0.830964	-0.478367	-0.257317
H146	H	0.771279	-0.392298	-0.257339
H147	H	0.946260	0.219453	0.433988
H148	H	0.478022	0.253775	0.000076
C149	C	0.581112	0.276508	0.000025
C150	C	0.632598	0.344589	-0.000020
C151	C	0.575450	0.420382	-0.000083
H152	H	0.544259	0.279163	0.057687
H153	H	0.544282	0.279089	-0.057667
H154	H	0.669413	0.342009	0.057666
H155	H	0.669449	0.341962	-0.057678
H156	H	0.538620	0.422963	-0.057775
H157	H	0.538600	0.423028	0.057580
H158	H	0.610375	0.466584	-0.000123
C159	C	0.293109	0.271257	-0.000056
C160	C	0.238905	0.274767	-0.085124
C161	C	0.181476	0.350388	-0.085306
H162	H	0.327795	0.317620	-0.000122
H163	H	0.256222	0.273803	0.057591
H164	H	0.275788	0.272229	-0.142756
H165	H	0.204200	0.228422	-0.085076
H166	H	0.144588	0.352934	-0.027659
H167	H	0.216169	0.396745	-0.085370
H168	H	0.144686	0.352776	-0.143019
C169	C	0.532313	-0.044368	0.000323
C170	C	0.586487	-0.047907	0.085416
C171	C	0.643846	-0.123571	0.085641
H172	H	0.569231	-0.046978	-0.057286
H173	H	0.497549	-0.090687	0.000381
H174	H	0.621248	-0.001600	0.085349
H175	H	0.549593	-0.045310	0.143039
H176	H	0.609081	-0.169890	0.085700
H177	H	0.680758	-0.126175	0.028029
H178	H	0.680604	-0.125985	0.143380
H179	H	0.347448	-0.026851	0.000133
H180	H	0.946241	0.219452	0.245122
