data_functionalizedCrystal
_audit_creation_method	'MofGen! by Chris Wilmer'
_symmetry_space_group_name_H-M	'P1'
_symmetry_Int_Tables_number	1
_symmetry_cell_setting	triclinic
loop_
_symmetry_equiv_pos_as_xyz
  x,y,z
_cell_length_a	14.395555
_cell_length_b	19.377369
_cell_length_c	19.377574
_cell_angle_alpha	82.425876
_cell_angle_beta	104.492386
_cell_angle_gamma	48.635948
loop_
_atom_site_label
_atom_site_type_symbol
_atom_site_fract_x
_atom_site_fract_y
_atom_site_fract_z
Zr1	Zr	0.726239	0.779839	0.049365
O2	O	0.513422	0.928486	-0.037223
O3	O	0.809610	0.631198	0.057025
O4	O	0.733374	0.779840	-0.064448
O5	O	0.629168	0.779842	0.201550
O6	O	0.886251	0.779835	-0.064443
O7	O	0.589657	0.779844	0.084250
O8	O	1.022623	0.513941	0.152850
O9	O	0.492797	1.045735	-0.015743
O10	O	0.937351	0.692331	0.083110
O11	O	0.852747	0.692333	0.170646
O12	O	0.762990	0.867340	0.027628
O13	O	0.678386	0.867342	0.115164
Zr14	Zr	1.033075	0.779828	0.236453
Zr15	Zr	0.970060	0.779831	0.049373
Zr16	Zr	0.789254	0.779836	0.236445
Zr17	Zr	0.693344	0.966839	0.083623
Zr18	Zr	1.065970	0.592828	0.202195
O19	O	0.949704	0.928469	0.228793
O20	O	0.860104	0.928474	-0.037211
O21	O	0.603021	0.928481	0.228781
O22	O	1.245892	0.631181	0.323041
O23	O	1.156292	0.631186	0.057037
O24	O	0.899209	0.631193	0.323029
O25	O	1.130146	0.779825	0.084268
O26	O	1.025940	0.779827	0.350266
O27	O	0.873063	0.779832	0.350261
O28	O	1.169656	0.779823	0.201568
O29	O	0.686602	1.045729	-0.015736
O30	O	1.072712	0.513938	0.301554
O31	O	1.266517	0.513932	0.301561
O32	O	1.216429	0.513934	0.152857
O33	O	0.542885	1.045733	0.132961
O34	O	0.736691	1.045726	0.132968
O35	O	0.996324	0.692327	0.258190
O36	O	1.080928	0.692325	0.170654
O37	O	0.906567	0.867334	0.115172
O38	O	0.821963	0.867337	0.202708
C39	C	0.920803	0.545926	0.100057
C40	C	0.934768	0.466540	0.085513
C41	C	0.760451	0.205146	0.266392
C42	C	0.773750	0.130460	0.252788
C43	C	0.862070	0.130467	0.161408
C44	C	0.848785	0.205151	0.175007
C45	C	0.797973	0.242486	0.227499
C46	C	0.886307	0.242491	0.136113
C47	C	0.873016	0.317172	0.149708
C48	C	0.822203	0.354514	0.202197
C49	C	0.784682	0.317167	0.241094
C50	C	0.937109	0.205160	0.083617
C51	C	0.974631	0.242500	0.044724
C52	C	0.961350	0.317177	0.058323
C53	C	0.910537	0.354519	0.110811
C54	C	0.998871	0.354524	0.019425
C55	C	0.985580	0.429206	0.033020
C56	C	0.897246	0.429201	0.124406
C57	C	0.574674	0.779844	0.142898
C58	C	0.471165	0.779848	0.142895
C59	C	0.315509	0.875270	0.112651
C60	C	0.281414	0.827569	0.069324
C61	C	0.320835	0.827545	0.186214
C62	C	0.438418	0.732146	0.099520
C63	C	0.477848	0.732135	0.216458
C64	C	0.443846	0.684364	0.173140
C65	C	1.184640	0.779823	0.142920
C66	C	1.288149	0.779819	0.142923
C67	C	0.800834	0.779838	-0.091100
C68	C	0.774083	0.779839	-0.170521
C69	C	0.838511	1.013741	0.185761
C70	C	0.824546	1.093127	0.200305
C71	C	1.107177	0.779823	-0.431730
C72	C	1.082009	0.779826	-0.506359
C73	C	0.913577	0.779832	-0.506346
C74	C	0.938725	0.779834	-0.431718
C75	C	1.035528	0.779828	-0.394416
C76	C	0.867077	0.779839	-0.394403
C77	C	0.892229	0.779835	-0.319780
C78	C	0.989030	0.779827	-0.282471
C79	C	1.060681	0.779825	-0.319792
C80	C	0.770282	0.779837	-0.431705
C81	C	0.698633	0.779842	-0.394390
C82	C	0.723778	0.779846	-0.319767
C83	C	0.820579	0.779838	-0.282459
C84	C	0.652128	0.779848	-0.282446
C85	C	0.677280	0.779845	-0.207823
C86	C	0.845731	0.779834	-0.207835
C87	C	0.958479	0.779829	0.376918
C88	C	0.985231	0.779828	0.456339
C89	C	1.225787	0.545916	0.100067
C90	C	1.343260	0.466526	0.085527
C91	C	0.999626	0.545922	0.334066
C92	C	1.040342	0.466534	0.398943
C93	C	1.304609	0.545911	0.334076
C94	C	1.448834	0.466520	0.398957
C95	C	0.454705	1.013756	-0.048258
C96	C	0.310480	1.093147	-0.113139
C97	C	0.533527	1.013751	0.185751
C98	C	0.416054	1.093141	0.200291
C99	C	0.759688	1.013745	-0.048248
C100	C	0.718972	1.093133	-0.113125
C101	C	1.323478	0.429247	0.032994
C102	C	1.433840	0.354662	0.019316
C103	C	1.563985	0.317353	0.058177
C104	C	1.583763	0.354640	0.110712
C105	C	1.473400	0.429228	0.124385
C106	C	1.134411	0.429250	0.475114
C107	C	1.172665	0.354668	0.536082
C108	C	1.116855	0.317365	0.520875
C109	C	1.022774	0.354657	0.444696
C110	C	0.984515	0.429243	0.383731
C111	C	1.560736	0.429236	0.383732
C112	C	1.696256	0.354650	0.444689
C113	C	1.719871	0.317344	0.520869
C114	C	1.607956	0.354636	0.536093
C115	C	1.472438	0.429226	0.475137
C116	C	0.198576	1.130440	-0.097913
C117	C	0.063052	1.205049	-0.158865
C118	C	0.039436	1.242359	-0.235044
C119	C	0.151352	1.205062	-0.250269
C120	C	0.286872	1.130460	-0.189316
C121	C	0.435832	1.130428	0.252818
C122	C	0.325459	1.205033	0.266479
C123	C	0.195313	1.242345	0.227616
C124	C	0.175537	1.205055	0.175083
C125	C	0.285905	1.130456	0.161419
C126	C	0.774807	1.130411	-0.097894
C127	C	0.736576	1.204994	-0.158848
C128	C	0.642502	1.242303	-0.235030
C129	C	0.586667	1.205017	-0.250259
C130	C	0.624906	1.130430	-0.189308
H131	H	0.743187	0.100064	0.284462
H132	H	0.541796	1.100055	0.284472
H133	H	0.105456	1.303088	0.238749
Cl134	Cl	0.526248	0.559721	0.212572
H135	H	0.561886	0.691840	0.278651
H136	H	1.417710	0.324312	-0.023462
Cl137	Cl	-0.130942	1.336144	-0.311664
Cl138	Cl	0.121641	1.251973	-0.346042
Cl139	Cl	1.182363	0.779833	-0.272900
Cl140	Cl	0.587209	0.779847	-0.160910
Cl141	Cl	1.702715	0.223581	0.040981
H142	H	1.217512	0.459623	0.001337
H143	H	1.627205	0.324251	0.598126
Cl144	Cl	0.805486	0.448405	0.219284
H145	H	0.377983	1.100096	-0.201723
H146	H	0.579428	1.100086	-0.201719
H147	H	0.488992	0.691846	0.062825
H148	H	0.069557	1.235446	0.143445
H149	H	0.855871	0.459600	0.167151
Cl150	Cl	0.791889	0.779836	-0.553244
H151	H	0.743307	0.347567	0.283839
H152	H	1.249274	0.324314	0.598105
Cl153	Cl	0.228229	1.083552	-0.002151
H154	H	0.719076	0.235546	0.309137
H155	H	0.341589	1.235382	0.309257
Cl156	Cl	1.331773	0.476082	0.494289
H157	H	0.269784	1.100099	0.118649
Cl158	Cl	0.893076	1.083524	-0.002129
H159	H	1.489528	0.459571	0.167166
H160	H	-0.028057	1.235403	-0.146454
Cl161	Cl	1.890247	0.223571	0.597490
Cl162	Cl	1.747386	0.307722	0.159563
Cl163	Cl	0.806774	1.251858	-0.139683
Cl164	Cl	0.594440	1.336074	-0.311647
H165	H	1.787367	0.324295	0.432279
Cl166	Cl	0.866260	0.476100	0.287973
Cl167	Cl	1.204595	0.476126	0.494251
H168	H	0.903436	0.100064	0.118666
Cl169	Cl	0.953807	0.111278	0.066525
Cl170	Cl	1.164971	0.223597	0.597527
H171	H	0.977342	0.324274	0.432326
Cl172	Cl	1.038501	0.195561	-0.021266
H173	H	1.541533	0.459599	0.321707
Cl174	Cl	0.468390	1.251939	-0.346034
H175	H	1.040229	0.324124	-0.023320
H176	H	1.016132	0.459609	0.001349
Cl177	Cl	0.242472	0.889835	0.242760
H178	H	0.262256	0.955959	0.087011
H179	H	0.197362	0.867900	0.007123
H180	H	1.009512	0.779819	-0.221707
Cl181	Cl	0.967414	0.779843	-0.160943
H182	H	1.185993	0.779829	-0.401361
H183	H	0.749812	0.779835	-0.492466
Cl184	Cl	1.172100	0.779816	-0.553262
Cl185	Cl	0.530453	0.779840	-0.329343
Cl186	Cl	0.576946	0.779846	-0.441288
