data_functionalizedCrystal
_audit_creation_method	'MofGen! by Chris Wilmer'
_symmetry_space_group_name_H-M	'P1'
_symmetry_Int_Tables_number	1
_symmetry_cell_setting	triclinic
loop_
_symmetry_equiv_pos_as_xyz
  x,y,z
_cell_length_a	14.971506
_cell_length_b	14.971486
_cell_length_c	13.448316
_cell_angle_alpha	90.006811
_cell_angle_beta	90.007063
_cell_angle_gamma	83.618258
loop_
_atom_site_label
_atom_site_type_symbol
_atom_site_fract_x
_atom_site_fract_y
_atom_site_fract_z
O1	O	-1.186936	-0.116651	-0.082699
O2	O	-0.686936	0.383349	0.417301
O3	O	-0.926539	-0.130591	-0.082700
O4	O	-0.426539	0.369409	0.417300
O5	O	-1.063717	0.006579	-0.082692
O6	O	-0.563717	0.506579	0.417308
O7	O	-1.049758	-0.253820	-0.082707
O8	O	-0.549758	0.246180	0.417293
O9	O	-1.063699	0.006587	0.082691
O10	O	-0.563699	0.506587	0.582691
O11	O	-0.926521	-0.130582	0.082684
O12	O	-0.426521	0.369418	0.582684
O13	O	-1.186919	-0.116642	0.082684
O14	O	-0.686919	0.383358	0.582684
Cu15	Cu	-1.056719	-0.123612	0.097785
Cu16	Cu	-0.556719	0.376388	0.597785
Cu17	Cu	-1.056739	-0.123622	-0.097800
Cu18	Cu	-0.556739	0.376378	0.402200
O19	O	-1.049741	-0.253812	0.082677
O20	O	-0.549741	0.246188	0.582677
C21	C	-0.893205	-0.129960	-0.000008
C22	C	-0.393205	0.370040	0.499992
C23	C	-0.793909	-0.128082	-0.000008
C24	C	-0.293909	0.371918	0.499992
C25	C	-1.220252	-0.117273	-0.000010
C26	C	-0.720252	0.382727	0.499990
C27	C	-1.319548	-0.119151	-0.000016
C28	C	-0.819548	0.380849	0.499984
C29	C	-0.355627	-0.201500	-0.000022
C30	C	0.144373	0.298500	0.499978
C31	C	-0.448927	-0.203258	-0.000027
C32	C	0.051073	0.296742	0.499973
C33	C	-0.506147	-0.122665	-0.000018
C34	C	-0.006147	0.377335	0.499982
C35	C	-0.470062	-0.040310	-0.000015
C36	C	0.029938	0.459690	0.499985
C37	C	-0.376764	-0.038553	-0.000017
C38	C	0.123236	0.461447	0.499983
C39	C	-0.664525	-0.043977	-0.000007
C40	C	-0.164525	0.456023	0.499993
C41	C	-0.757831	-0.045733	-0.000002
C42	C	-0.257831	0.454267	0.499998
C43	C	-0.736689	-0.208681	-0.000016
C44	C	-0.236689	0.291319	0.499984
C45	C	-0.643390	-0.206924	-0.000018
C46	C	-0.143390	0.293076	0.499982
C47	C	-0.607312	-0.124569	-0.000013
C48	C	-0.107312	0.375431	0.499987
C49	C	-1.063084	0.039908	-0.000001
C50	C	-0.563084	0.539908	0.499999
C51	C	-1.061213	0.139205	-0.000002
C52	C	-0.561213	0.639205	0.499998
C53	C	-1.050374	-0.287141	-0.000017
C54	C	-0.550374	0.212859	0.499983
C55	C	-1.052244	-0.386438	-0.000022
C56	C	-0.552244	0.113562	0.499978
N57	N	-1.056711	-0.123604	0.235349
N58	N	-0.556711	0.376396	0.735349
C59	C	-1.141802	0.196424	-0.000001
C60	C	-0.641802	0.696424	0.499999
C61	C	-1.140038	0.289724	-0.000011
C62	C	-0.640038	0.789724	0.499989
C63	C	-1.057686	0.325802	-0.000015
C64	C	-0.557686	0.825802	0.499985
C65	C	-0.977091	0.268575	-0.000019
C66	C	-0.477091	0.768575	0.499981
C67	C	-0.978855	0.175278	-0.000016
C68	C	-0.478855	0.675278	0.499984
C69	C	-0.973420	0.463038	-0.000022
C70	C	-0.473420	0.963038	0.499978
C71	C	-0.971656	0.556342	-0.000023
C72	C	-0.471656	1.056342	0.499977
C73	C	-1.134603	0.577485	-0.000017
C74	C	-0.634603	1.077485	0.499983
C75	C	-1.136367	0.484187	-0.000015
C76	C	-0.636367	0.984187	0.499985
C77	C	-1.055772	0.426966	-0.000017
C78	C	-0.555772	0.926966	0.499983
N79	N	-1.056754	-0.123622	-0.235365
N80	N	-0.556754	0.376378	0.264635
C81	C	-1.117472	-0.062890	0.287393
C82	C	-0.617472	0.437110	0.787393
C83	C	-1.117478	-0.062890	0.391496
C84	C	-0.617478	0.437110	0.891496
C85	C	-1.056725	-0.123608	0.443554
C86	C	-0.556725	0.376392	0.943554
C87	C	-0.995958	-0.184324	0.391503
C88	C	-0.495958	0.315676	0.891503
C89	C	-0.995948	-0.184320	0.287402
C90	C	-0.495948	0.315680	0.787402
C91	C	-0.995982	-0.184330	0.608483
C92	C	-0.495982	0.315670	1.108483
C93	C	-0.995992	-0.184336	0.712592
C94	C	-0.495992	0.315664	1.212592
C95	C	-1.117512	-0.062900	0.712578
C96	C	-0.617512	0.437100	1.212578
C97	C	-1.117503	-0.062896	0.608476
C98	C	-0.617503	0.437104	1.108476
C99	C	-1.056736	-0.123614	0.556433
C100	C	-0.556736	0.376386	1.056433
H101	H	-0.309044	-0.267128	-0.000022
H102	H	0.190956	0.232872	0.499978
H103	H	-0.516658	0.025310	-0.000013
H104	H	-0.016658	0.525310	0.499987
H105	H	-0.347391	0.028503	-0.000014
H106	H	0.152609	0.528503	0.499986
H107	H	-0.946469	-0.233758	0.245029
H108	H	-0.446469	0.266242	0.745029
H109	H	-1.166976	-0.013459	0.566091
H110	H	-0.666976	0.486541	1.066091
Cl111	Cl	-1.235923	0.649418	-0.000020
Cl112	Cl	-0.735923	1.149418	0.499980
H113	H	-0.478297	-0.270314	-0.000041
H114	H	0.021703	0.229686	0.499959
Cl115	Cl	-0.868126	0.601697	-0.000027
Cl116	Cl	-0.368126	1.101697	0.499973
Cl117	Cl	-0.619172	0.059558	0.000007
Cl118	Cl	-0.119172	0.559558	0.500007
Cl119	Cl	-1.239898	0.438832	-0.000015
Cl120	Cl	-0.739898	0.938832	0.499985
H121	H	-1.205662	0.336309	-0.000008
H122	H	-0.705662	0.836309	0.499992
Cl123	Cl	-1.193864	0.013438	0.456924
Cl124	Cl	-0.693864	0.513438	0.956924
H125	H	-1.208862	0.167057	0.000008
H126	H	-0.708862	0.667057	0.500008
H127	H	-0.910038	0.297958	-0.000028
H128	H	-0.410038	0.797958	0.499972
H129	H	-0.596803	-0.272550	-0.000019
H130	H	-0.096803	0.227450	0.499981
H131	H	-0.766067	-0.275738	-0.000019
H132	H	-0.266067	0.224262	0.499981
H133	H	-0.907791	0.416451	-0.000026
H134	H	-0.407791	0.916451	0.499974
Cl135	Cl	-0.877540	0.103344	-0.000021
Cl136	Cl	-0.377540	0.603344	0.499979
Cl137	Cl	-1.193855	0.013442	0.221960
Cl138	Cl	-0.693855	0.513442	0.721960
H139	H	-0.804417	0.019892	-0.000003
H140	H	-0.304417	0.519892	0.499997
Cl141	Cl	-1.193904	0.013428	0.778007
Cl142	Cl	-0.693904	0.513428	1.278007
H143	H	-0.946521	-0.233778	0.754972
H144	H	-0.446521	0.266222	1.254972
Cl145	Cl	-0.919585	-0.260661	0.543061
Cl146	Cl	-0.419585	0.239339	1.043061
Cl147	Cl	-0.919578	-0.260653	0.456945
Cl148	Cl	-0.419578	0.239347	0.956945
