data_functionalizedCrystal
_audit_creation_method	'MofGen! by Chris Wilmer'
_symmetry_space_group_name_H-M	'P1'
_symmetry_Int_Tables_number	1
_symmetry_cell_setting	triclinic
loop_
_symmetry_equiv_pos_as_xyz
  x,y,z
_cell_length_a	6.817900
_cell_length_b	9.514072
_cell_length_c	16.015572
_cell_angle_alpha	75.276350
_cell_angle_beta	104.485554
_cell_angle_gamma	118.843421
loop_
_atom_site_label
_atom_site_type_symbol
_atom_site_fract_x
_atom_site_fract_y
_atom_site_fract_z
V1	V	-4.016234	-0.064663	-0.269590
O2	O	-3.917026	0.164814	-0.263763
O3	O	-4.051421	-0.283739	-0.268415
O4	O	-3.925102	0.007287	-0.386862
O5	O	-4.044219	-0.128226	-0.144495
V6	V	-4.494568	-0.045598	-0.254546
O7	O	-4.288875	-0.106482	-0.302589
O8	O	-4.672125	-0.003779	-0.221547
O9	O	-4.236175	0.173478	-0.255721
O10	O	-4.711172	-0.275075	-0.260374
O11	O	-4.583980	0.017965	-0.379641
O12	O	-4.362493	-0.117547	-0.137274
C13	C	-3.918138	-0.339362	-0.264335
C14	C	-4.027909	-0.518003	-0.264155
C15	C	-3.757005	0.031871	-0.415425
C16	C	-3.764332	0.089248	-0.511300
C17	C	-4.247275	-0.420026	-0.890484
C18	C	-4.254144	-0.366060	-0.980569
C19	C	-4.070629	-0.086858	-0.955012
C20	C	-4.063734	-0.140800	-0.864923
C21	C	-4.152064	-0.307386	-0.832667
C22	C	-3.968522	-0.028160	-0.807105
C23	C	-3.961639	-0.082100	-0.717024
C24	C	-4.049968	-0.248679	-0.684761
C25	C	-4.145181	-0.361326	-0.742586
C26	C	-3.880208	0.138425	-0.839363
C27	C	-3.784996	0.251065	-0.781545
C28	C	-3.778098	0.197127	-0.691462
C29	C	-3.866426	0.030547	-0.659199
C30	C	-3.682885	0.309773	-0.633637
C31	C	-3.676002	0.255834	-0.543556
C32	C	-3.859543	-0.023392	-0.569118
C33	C	-4.032803	0.229091	-0.259799
C34	C	-3.902269	0.407734	-0.259984
C35	C	-4.193936	-0.142140	-0.108707
C36	C	-4.165845	-0.199509	-0.012831
H37	H	-3.710713	-0.519193	-0.256507
O38	O	-4.281664	-0.614788	-0.268752
H39	H	-4.330977	-0.744606	-0.267930
H40	H	-3.931443	-0.159042	-0.542853
O41	O	-4.342535	-0.599703	-0.855681
H42	H	-4.409909	-0.668976	-0.911018
H43	H	-4.331673	-0.457798	-1.027643
H44	H	-4.044365	-0.292594	-0.611410
H45	H	-3.885786	0.182338	-0.912713
O46	O	-3.975343	0.092814	-0.989803
H47	H	-3.996106	0.111402	-1.062155
H48	H	-3.598472	0.347557	-0.496479
O49	O	-3.689710	0.430736	-0.816336
H50	H	-3.710474	0.449324	-0.888688
O51	O	-4.240441	-0.541002	-0.707782
H52	H	-4.307814	-0.610276	-0.763119
H53	H	-3.610992	0.445408	-0.659915
