data_functionalizedCrystal
_audit_creation_method	'MofGen! by Chris Wilmer'
_symmetry_space_group_name_H-M	'P1'
_symmetry_Int_Tables_number	1
_symmetry_cell_setting	triclinic
loop_
_symmetry_equiv_pos_as_xyz
  x,y,z
_cell_length_a	16.109293
_cell_length_b	15.186229
_cell_length_c	19.288865
_cell_angle_alpha	90.008968
_cell_angle_beta	96.702741
_cell_angle_gamma	89.993231
loop_
_atom_site_label
_atom_site_type_symbol
_atom_site_fract_x
_atom_site_fract_y
_atom_site_fract_z
O1	O	-1.102829	0.073308	0.089254
O2	O	-0.602829	0.573308	0.589254
O3	O	-0.860729	0.073296	0.100370
O4	O	-0.360729	0.573296	0.600370
O5	O	-0.988775	0.073285	-0.006302
O6	O	-0.488775	0.573285	0.493698
O7	O	-0.974783	0.073319	0.195926
O8	O	-0.474783	0.573319	0.695926
O9	O	-0.988766	-0.073172	-0.006303
O10	O	-0.488766	0.426828	0.493697
O11	O	-0.860720	-0.073161	0.100369
O12	O	-0.360720	0.426839	0.600369
O13	O	-1.102821	-0.073149	0.089252
O14	O	-0.602821	0.426851	0.589252
Zn15	Zn	-0.981769	-0.096408	0.094810
Zn16	Zn	-0.481769	0.403592	0.594810
Zn17	Zn	-0.981780	0.096556	0.094812
Zn18	Zn	-0.481780	0.596556	0.594812
O19	O	-0.974775	-0.073138	0.195924
O20	O	-0.474775	0.426862	0.695924
C21	C	-0.829751	0.000066	0.099920
C22	C	-0.329751	0.500066	0.599920
C23	C	-0.737460	0.000060	0.098573
C24	C	-0.237460	0.500060	0.598573
C25	C	-0.525124	-0.079771	0.095457
C26	C	-0.025124	0.420229	0.595457
C27	C	-0.438408	-0.079771	0.094184
C28	C	0.061592	0.420229	0.594184
C29	C	-0.438428	0.079905	0.094189
C30	C	0.061572	0.579905	0.594189
C31	C	-0.525143	0.079904	0.095457
C32	C	-0.025143	0.579904	0.595457
C33	C	-0.568488	0.000063	0.096095
C34	C	-0.068488	0.500063	0.596095
C35	C	-0.395057	0.000065	0.093553
C36	C	0.104943	0.500065	0.593553
C37	C	-0.301036	0.000066	0.092173
C38	C	0.198964	0.500066	0.592173
C39	C	-0.662516	0.000062	0.097474
C40	C	-0.162516	0.500062	0.597474
N41	N	-0.981768	-0.228101	0.094808
N42	N	-0.481768	0.271899	0.594808
C43	C	-1.038485	-0.453829	0.047590
C44	C	-0.538485	0.046171	0.547590
C45	C	-1.038488	-0.546018	0.047588
C46	C	-0.538488	-0.046018	0.547588
C47	C	-0.925065	-0.546018	0.142029
C48	C	-0.425065	-0.046018	0.642029
C49	C	-0.925059	-0.453830	0.142027
C50	C	-0.425059	0.046170	0.642027
C51	C	-0.981774	-0.407737	0.094808
C52	C	-0.481774	0.092263	0.594808
C53	C	-0.981782	-0.592115	0.094809
C54	C	-0.481782	-0.092115	0.594809
C55	C	-0.981785	-0.692071	0.094807
C56	C	-0.481785	-0.192071	0.594807
C57	C	-0.981770	-0.307775	0.094809
C58	C	-0.481770	0.192225	0.594809
C59	C	-0.133798	0.000077	0.089709
C60	C	0.366202	0.500077	0.589709
C61	C	-0.226086	0.000068	0.091075
C62	C	0.273914	0.500068	0.591075
C63	C	-0.988320	0.000054	-0.032180
C64	C	-0.488320	0.500054	0.467820
C65	C	-0.986969	0.000046	-0.109287
C66	C	-0.486969	0.500046	0.390713
N67	N	-0.981788	0.228248	0.094808
N68	N	-0.481788	0.728248	0.594808
C69	C	-1.062100	0.000046	-0.153806
C70	C	-0.562100	0.500046	0.346194
C71	C	-1.060831	0.000059	-0.226256
C72	C	-0.560831	0.500059	0.273744
C73	C	-0.984425	0.000056	-0.254184
C74	C	-0.484425	0.500056	0.245816
C75	C	-0.909284	0.000062	-0.209655
C76	C	-0.409284	0.500062	0.290345
C77	C	-0.910555	0.000057	-0.137207
C78	C	-0.410555	0.500057	0.362793
C79	C	-0.924359	-0.051248	-0.362614
C80	C	-0.424359	0.448752	0.137386
C81	C	-0.923090	-0.051248	-0.435061
C82	C	-0.423090	0.448752	0.064939
C83	C	-0.980500	0.000076	-0.477639
C84	C	-0.480500	0.500076	0.022361
C85	C	-1.039192	0.051388	-0.447761
C86	C	-0.539192	0.551388	0.052239
C87	C	-1.040464	0.051383	-0.375313
C88	C	-0.540464	0.551383	0.124687
C89	C	-0.983038	0.000062	-0.332741
C90	C	-0.483038	0.500062	0.167259
C91	C	-1.054260	0.000091	-0.600717
C92	C	-0.554260	0.500091	-0.100717
C93	C	-1.052987	0.000111	-0.673168
C94	C	-0.552987	0.500111	-0.173168
C95	C	-0.901438	0.000104	-0.656566
C96	C	-0.401438	0.500104	-0.156566
C97	C	-0.902713	0.000094	-0.584116
C98	C	-0.402713	0.500094	-0.084116
C99	C	-0.979126	0.000083	-0.556196
C100	C	-0.479126	0.500083	-0.056196
C101	C	-0.975229	0.000095	0.221803
C102	C	-0.475229	0.500095	0.721803
C103	C	-0.976581	0.000109	0.298909
C104	C	-0.476581	0.500109	0.798909
H105	H	-0.403125	0.144909	0.093671
H106	H	0.096875	0.644909	0.593671
C107	C	-0.862663	-0.596718	0.193951
C108	C	-0.362663	-0.096718	0.693951
H109	H	-0.828874	-0.556061	0.222062
H110	H	-0.328874	-0.056061	0.722062
H111	H	-0.892438	-0.632681	0.222881
H112	H	-0.392438	-0.132681	0.722881
H113	H	-0.828159	-0.632678	0.168934
H114	H	-0.328159	-0.132678	0.668934
C115	C	-0.861207	-0.107708	-0.315782
C116	C	-0.361207	0.392292	0.184218
H117	H	-0.870365	-0.100357	-0.268355
H118	H	-0.370365	0.399643	0.231645
H119	H	-0.868304	-0.167917	-0.328466
H120	H	-0.368304	0.332083	0.171534
H121	H	-0.805989	-0.089666	-0.321626
H122	H	-0.305989	0.410334	0.178374
C123	C	-0.862680	-0.403122	0.193973
C124	C	-0.362680	0.096878	0.693973
H125	H	-0.870796	-0.341617	0.187204
H126	H	-0.370796	0.158383	0.687204
H127	H	-0.871537	-0.418216	0.240332
H128	H	-0.371537	0.081784	0.740332
H129	H	-0.807219	-0.418239	0.186418
H130	H	-0.307219	0.081761	0.686418
C131	C	-0.390678	-0.167585	0.093664
C132	C	0.109322	0.332415	0.593664
H133	H	-0.332817	-0.156153	0.092865
H134	H	0.167183	0.343847	0.592865
H135	H	-0.398461	-0.200237	0.134407
H136	H	0.101539	0.299763	0.634407
H137	H	-0.411294	-0.200539	0.053439
H138	H	0.088706	0.299461	0.553439
C139	C	-0.825238	0.000061	-0.240370
C140	C	-0.325238	0.500061	0.259630
H141	H	-0.780672	0.000069	-0.203477
H142	H	-0.280672	0.500069	0.296523
H143	H	-0.821584	-0.051009	-0.268295
H144	H	-0.321584	0.448991	0.231705
H145	H	-0.821600	0.051144	-0.268278
H146	H	-0.321600	0.551144	0.231722
C147	C	-0.572847	0.167726	0.096162
C148	C	-0.072847	0.667726	0.596162
H149	H	-0.534612	0.215276	0.095610
H150	H	-0.034612	0.715276	0.595610
H151	H	-0.613168	0.171039	0.056176
H152	H	-0.113168	0.671039	0.556176
H153	H	-0.600179	0.171045	0.137143
H154	H	-0.100179	0.671045	0.637143
H155	H	-0.560413	-0.144783	0.095976
H156	H	-0.060413	0.355217	0.595976
H157	H	-1.084665	-0.416303	0.009141
H158	H	-0.584665	0.083697	0.509141
H159	H	-1.116480	0.000087	-0.577983
H160	H	-0.616480	0.500087	-0.077983
H161	H	-1.085940	0.093182	-0.482427
H162	H	-0.585940	0.593182	0.017573
H163	H	-1.124322	0.000040	-0.131078
H164	H	-0.624322	0.500040	0.368922
C165	C	-1.100874	-0.596715	-0.004349
C166	C	-0.600874	-0.096715	0.495651
H167	H	-1.134652	-0.556058	-0.032465
H168	H	-0.634652	-0.056058	0.467535
H169	H	-1.071082	-0.632690	-0.033271
H170	H	-0.571082	-0.132690	0.466729
H171	H	-1.135391	-0.632664	0.020651
H172	H	-0.635391	-0.132664	0.520651
C173	C	-1.143478	0.000053	-0.275235
C174	C	-0.643478	0.500053	0.224765
H175	H	-1.189168	0.000040	-0.248230
H176	H	-0.689168	0.500040	0.251770
H177	H	-1.146141	0.051125	-0.303838
H178	H	-0.646141	0.551125	0.196162
H179	H	-1.146119	-0.051028	-0.303846
H180	H	-0.646119	0.448972	0.196154
C181	C	-1.105014	0.107825	-0.342446
C182	C	-0.605014	0.607825	0.157554
H183	H	-1.097550	0.100463	-0.293201
H184	H	-0.597550	0.600463	0.206799
H185	H	-1.097505	0.168036	-0.353507
H186	H	-0.597505	0.668036	0.146493
H187	H	-1.159815	0.089781	-0.360345
H188	H	-0.659815	0.589781	0.139655
C189	C	-1.135636	0.000109	-0.722139
C190	C	-0.635636	0.500109	-0.222139
H191	H	-1.181323	0.000093	-0.695131
H192	H	-0.681323	0.500093	-0.195131
H193	H	-1.138301	0.051184	-0.750738
H194	H	-0.638301	0.551184	-0.250738
H195	H	-1.138279	-0.050968	-0.750754
H196	H	-0.638279	0.449032	-0.250754
C197	C	-0.817393	0.000103	-0.687278
C198	C	-0.317393	0.500103	-0.187278
H199	H	-0.827395	0.000102	-0.736802
H200	H	-0.327395	0.500102	-0.236802
H201	H	-0.786471	0.051174	-0.671984
H202	H	-0.286471	0.551174	-0.171984
H203	H	-0.786466	-0.050979	-0.672004
H204	H	-0.286466	0.449021	-0.172004
H205	H	-0.841532	0.000089	-0.547868
H206	H	-0.341532	0.500089	-0.047868
C207	C	-0.858533	-0.107689	-0.467920
C208	C	-0.358533	0.392311	0.032080
H209	H	-0.824514	-0.138244	-0.432187
H210	H	-0.324514	0.361756	0.067813
H211	H	-0.886773	-0.148949	-0.499336
H212	H	-0.386773	0.351051	0.000664
H213	H	-0.824470	-0.070688	-0.492499
H214	H	-0.324470	0.429312	0.007501
H215	H	-0.849372	0.000057	-0.100959
H216	H	-0.349372	0.500057	0.399041
