data_functionalizedCrystal
_audit_creation_method	'MofGen! by Chris Wilmer'
_symmetry_space_group_name_H-M	'P1'
_symmetry_Int_Tables_number	1
_symmetry_cell_setting	triclinic
loop_
_symmetry_equiv_pos_as_xyz
  x,y,z
_cell_length_a	7.681481
_cell_length_b	10.654550
_cell_length_c	8.597249
_cell_angle_alpha	84.909788
_cell_angle_beta	91.816884
_cell_angle_gamma	95.782450
loop_
_atom_site_label
_atom_site_type_symbol
_atom_site_fract_x
_atom_site_fract_y
_atom_site_fract_z
O1	O	0.111146	-1.660135	-0.231646
O2	O	0.108039	-1.295016	-0.252337
O3	O	0.143718	-1.482042	-0.017037
O4	O	0.075467	-1.473109	-0.466946
O5	O	-0.144739	-1.505060	0.011991
O6	O	-0.180418	-1.318034	-0.223310
O7	O	-0.177310	-1.683153	-0.202618
Zn8	Zn	-0.224662	-1.504248	-0.208355
Zn9	Zn	0.155391	-1.473921	-0.246600
O10	O	-0.212989	-1.496127	-0.437918
C11	C	-0.035955	-1.259700	-0.236305
C12	C	-0.035253	-1.120176	-0.231761
N13	N	-0.484039	-1.524955	-0.182253
C14	C	0.008233	-1.491309	0.055086
C15	C	0.034284	-1.484612	0.226741
N16	N	0.414769	-1.453223	-0.272690
C17	C	-0.033313	-1.718468	-0.218651
C18	C	-0.034003	-1.857991	-0.223196
C19	C	-0.056275	-1.043115	-0.370301
C20	C	-0.055656	-0.912022	-0.366018
C21	C	-0.012985	-0.935063	-0.084645
C22	C	-0.013617	-1.066154	-0.088928
C23	C	-0.077500	-1.486860	-0.510041
C24	C	-0.103541	-1.493556	-0.681698
H25	H	-0.524031	-1.380000	-0.365000
N26	N	-0.565102	-1.621972	-0.059987
H27	H	-0.630012	-1.578190	0.016451
H28	H	-0.470025	-1.667615	-0.002521
H29	H	0.172212	-1.471845	0.279683
N30	N	-0.286231	-1.510485	0.248190
H31	H	-0.305068	-1.436134	0.170264
H32	H	-0.374395	-1.515542	0.333765
N33	N	-0.079609	-1.101385	-0.524349
H34	H	-0.092833	-1.032670	-0.611462
H35	H	-0.187732	-1.163822	-0.521500
H36	H	0.004620	-0.891063	0.031647
N37	N	-0.078425	-0.828913	-0.515433
H38	H	-0.092258	-0.883034	-0.606557
H39	H	0.027800	-0.765442	-0.530594
N40	N	0.009063	-1.149269	0.060514
H41	H	0.116680	-1.195632	0.054251
H42	H	-0.097267	-1.212641	0.075683
