data_functionalizedCrystal
_audit_creation_method	'MofGen! by Chris Wilmer'
_symmetry_space_group_name_H-M	'P1'
_symmetry_Int_Tables_number	1
_symmetry_cell_setting	triclinic
loop_
_symmetry_equiv_pos_as_xyz
  x,y,z
_cell_length_a	6.817900
_cell_length_b	11.102210
_cell_length_c	17.982968
_cell_angle_alpha	94.232492
_cell_angle_beta	102.451960
_cell_angle_gamma	108.604261
loop_
_atom_site_label
_atom_site_type_symbol
_atom_site_fract_x
_atom_site_fract_y
_atom_site_fract_z
V1	V	-4.041364	-0.177029	-0.237547
O2	O	-4.001741	0.007282	-0.233027
O3	O	-4.018612	-0.349840	-0.235920
O4	O	-3.987547	-0.174843	-0.341150
O5	O	-4.033021	-0.168927	-0.127069
V6	V	-4.522370	-0.154920	-0.224333
O7	O	-4.308142	-0.225527	-0.266532
O8	O	-4.705789	-0.106421	-0.195347
O9	O	-4.321915	0.017892	-0.225959
O10	O	-4.679390	-0.339230	-0.228853
O11	O	-4.648109	-0.163022	-0.334811
O12	O	-4.352981	-0.157105	-0.120730
C13	C	-3.870028	-0.391951	-0.232173
C14	C	-3.932676	-0.533230	-0.231533
C15	C	-3.981439	-0.713870	-0.160873
C16	C	-3.922552	-0.581121	-0.161465
C17	C	-4.001671	-0.618097	-0.301014
C18	C	-4.060541	-0.750843	-0.300422
C19	C	-3.830399	-0.168724	-0.366402
C20	C	-3.867851	-0.168080	-0.451098
C21	C	-4.068312	-0.174146	-0.494770
C22	C	-4.103489	-0.173541	-0.574351
C23	C	-3.938209	-0.166878	-0.610259
C24	C	-3.737730	-0.160808	-0.566581
C25	C	-3.702550	-0.161404	-0.487001
C26	C	-3.879600	-0.158401	-0.887518
C27	C	-3.914798	-0.157809	-0.967104
C28	C	-4.280539	-0.170538	-0.974868
C29	C	-4.245360	-0.171134	-0.895288
C30	C	-4.044882	-0.165057	-0.851616
C31	C	-4.006739	-0.165711	-0.765326
C32	C	-3.976353	-0.166233	-0.696549
C33	C	-4.133843	0.059996	-0.229705
C34	C	-4.050433	0.201274	-0.230349
C35	C	-4.173471	-0.163229	-0.095473
C36	C	-4.115257	-0.163866	-0.010777
H37	H	-3.973197	-0.752851	-0.103816
H38	H	-3.603154	-0.155375	-0.595823
H39	H	-3.716386	-0.153498	-0.851974
C40	C	-3.846679	-0.487785	-0.085042
H41	H	-3.849109	-0.535320	-0.043228
H42	H	-3.705065	-0.431078	-0.079935
H43	H	-3.939089	-0.439386	-0.084809
H44	H	-4.379955	-0.176566	-0.866056
C45	C	-4.012829	-0.565422	-0.378088
H46	H	-3.967914	-0.474210	-0.368493
H47	H	-3.921740	-0.590617	-0.404235
H48	H	-4.155755	-0.598931	-0.409084
H49	H	-4.443779	-0.175481	-1.010434
C50	C	-4.136445	-0.844191	-0.376849
H51	H	-4.134064	-0.796665	-0.418667
H52	H	-4.044055	-0.892594	-0.377085
H53	H	-4.278070	-0.900894	-0.381947
C54	C	-3.482048	-0.154739	-0.438963
H55	H	-3.388655	-0.150698	-0.471746
H56	H	-3.424288	-0.080216	-0.400799
H57	H	-3.497164	-0.229209	-0.414718
H58	H	-4.202912	-0.179580	-0.465540
H59	H	-4.266717	-0.178473	-0.609904
C60	C	-3.733026	-0.150576	-1.006611
H61	H	-3.608599	-0.147061	-0.969207
H62	H	-3.775685	-0.224606	-1.044433
H63	H	-3.702651	-0.075607	-1.030560
