data_functionalizedCrystal
_audit_creation_method	'MofGen! by Chris Wilmer'
_symmetry_space_group_name_H-M	'P1'
_symmetry_Int_Tables_number	1
_symmetry_cell_setting	triclinic
loop_
_symmetry_equiv_pos_as_xyz
  x,y,z
_cell_length_a	10.654550
_cell_length_b	9.130313
_cell_length_c	10.654559
_cell_angle_alpha	90.001687
_cell_angle_beta	84.486774
_cell_angle_gamma	90.003780
loop_
_atom_site_label
_atom_site_type_symbol
_atom_site_fract_x
_atom_site_fract_y
_atom_site_fract_z
O1	O	1.667840	0.121921	0.176392
O2	O	1.302362	0.121898	0.193198
O3	O	1.493498	0.121899	0.002057
O4	O	1.476704	0.121921	0.367534
O5	O	1.493496	-0.121700	0.002062
O6	O	1.302360	-0.121701	0.193204
O7	O	1.667837	-0.121677	0.176397
Cu8	Cu	1.485098	-0.143932	0.184801
Cu9	Cu	1.485101	0.144152	0.184795
O10	O	1.476701	-0.121678	0.367539
C11	C	1.255563	0.000096	0.191967
C12	C	1.116119	0.000086	0.188275
N13	N	1.485106	-0.346554	0.184805
C14	C	1.036637	0.000114	0.300816
C15	C	0.905616	0.000140	0.297340
C16	C	0.933572	0.000115	0.068771
C17	C	1.064591	0.000079	0.072249
C18	C	1.088166	0.000122	0.416842
C19	C	1.008683	0.000151	0.529393
C20	C	0.877662	0.000176	0.525916
C21	C	0.826124	0.000172	0.409889
C22	C	1.569762	-0.423206	0.100196
C23	C	1.569759	-0.576543	0.100181
C24	C	1.400438	-0.576563	0.269394
C25	C	1.400436	-0.423229	0.269402
C26	C	1.654432	-0.346531	0.015599
C27	C	1.739097	-0.423183	-0.069016
C28	C	1.739093	-0.576520	-0.069031
C29	C	1.654425	-0.653205	0.015569
C30	C	1.714637	0.000128	0.177629
C31	C	1.854080	0.000147	0.181321
C32	C	1.492261	0.000100	-0.044738
C33	C	1.488565	0.000100	-0.184181
N34	N	1.485104	0.346775	0.184781
C35	C	1.483365	0.132912	-0.380701
C36	C	1.486835	0.132896	-0.249679
C37	C	1.486838	-0.132689	-0.249713
C38	C	1.483377	-0.132671	-0.380733
C39	C	1.483358	0.286246	-0.380680
C40	C	1.486827	0.286230	-0.249658
C41	C	1.477938	0.000124	0.414334
C42	C	1.481635	0.000133	0.553777
H43	H	1.194848	0.000108	0.419686
F44	F	1.654445	-0.183337	0.015613
H45	H	0.719437	0.000170	0.407068
F46	F	1.596800	0.363212	-0.441161
F47	F	1.310337	-0.658180	0.359427
F48	F	1.829192	-0.341569	-0.159057
H49	H	1.400030	0.345087	-0.203371
H50	H	1.050654	0.000143	0.623858
F51	F	1.310330	-0.341650	0.359450
H52	H	1.808022	-0.638928	-0.137935
H53	H	1.654421	-0.778062	0.015541
H54	H	0.812949	0.000186	0.617560
F55	F	0.878717	0.000115	-0.054704
F56	F	1.481555	-0.273992	-0.450465
H57	H	1.129308	0.000060	-0.019392
H58	H	1.391765	0.333823	-0.410253
H59	H	1.488258	-0.240813	-0.196375
H60	H	1.578424	0.333815	-0.220078
