data_functionalizedCrystal
_audit_creation_method	'MofGen! by Chris Wilmer'
_symmetry_space_group_name_H-M	'P1'
_symmetry_Int_Tables_number	1
_symmetry_cell_setting	triclinic
loop_
_symmetry_equiv_pos_as_xyz
  x,y,z
_cell_length_a	29.839133
_cell_length_b	12.645331
_cell_length_c	12.645323
_cell_angle_alpha	90.014068
_cell_angle_beta	89.977584
_cell_angle_gamma	89.972245
loop_
_atom_site_label
_atom_site_type_symbol
_atom_site_fract_x
_atom_site_fract_y
_atom_site_fract_z
Zn1	Zn	-0.178872	-1.620643	-0.599221
Zn2	Zn	-0.254004	-1.620488	-0.421968
Zn3	Zn	-0.178886	-1.443358	-0.421992
Zn4	Zn	-0.253973	-1.443303	-0.599211
O5	O	-0.216434	-1.531948	-0.510598
O6	O	-0.188845	-1.768970	-0.575702
O7	O	-0.244058	-1.596950	-0.273624
O8	O	-0.116017	-1.466963	-0.445516
O9	O	-0.244044	-1.768856	-0.445476
O10	O	-0.116007	-1.597214	-0.575725
O11	O	-0.188869	-1.466813	-0.273641
O12	O	-0.188840	-1.295003	-0.445506
O13	O	-0.243992	-1.466869	-0.747559
O14	O	-0.244006	-1.294963	-0.575708
O15	O	-0.188816	-1.597161	-0.747567
O16	O	-0.316867	-1.596896	-0.445466
O17	O	-0.316844	-1.466719	-0.575685
C18	C	-0.216421	-1.256518	-0.510609
C19	C	-0.216427	-1.138688	-0.510638
C20	C	-0.251321	-0.971134	-0.592126
C21	C	-0.251209	-1.093694	-0.592463
C22	C	-0.169109	-1.094234	-0.541156
C23	C	-0.169321	-0.971635	-0.541734
C24	C	-0.228467	-0.971437	-0.398385
C25	C	-0.229502	-1.094042	-0.398987
C26	C	-0.333156	-1.531814	-0.510595
C27	C	-0.383091	-1.531853	-0.510629
C28	C	-0.739637	-1.599809	-0.578476
C29	C	-0.551964	-1.599708	-0.578474
O30	O	-0.527666	-1.657349	-0.636144
N31	N	-0.528536	-1.531937	-0.510627
C32	C	-0.552028	-1.464190	-0.442769
O33	O	-0.527795	-1.406552	-0.385053
C34	C	-0.739701	-1.464297	-0.442766
C35	C	-0.763127	-1.532065	-0.510626
C36	C	-0.763064	-1.667572	-0.646329
C37	C	-0.809979	-1.667593	-0.646333
C38	C	-0.833468	-1.599849	-0.578483
C39	C	-0.810042	-1.532085	-0.510630
C40	C	-0.763192	-1.396556	-0.374904
C41	C	-0.810113	-1.396591	-0.374907
C42	C	-0.833539	-1.464359	-0.442767
C43	C	-0.880447	-1.464362	-0.442783
N44	N	-0.903875	-1.532134	-0.510631
C45	C	-0.880386	-1.599877	-0.578481
C46	C	-0.453498	-1.464138	-0.442777
C47	C	-0.406580	-1.464109	-0.442779
C48	C	-0.406519	-1.599629	-0.578483
C49	C	-0.453438	-1.599651	-0.578486
C50	C	-0.476926	-1.531909	-0.510625
C51	C	-0.978912	-1.599914	-0.578484
C52	C	-1.025832	-1.599926	-0.578485
C53	C	-1.025888	-1.464410	-0.442778
C54	C	-0.978973	-1.464395	-0.442780
C55	C	-0.955486	-1.532155	-0.510637
O56	O	-0.904775	-1.406760	-0.385135
O57	O	-0.904628	-1.657524	-0.636173
C58	C	-0.692722	-1.599788	-0.578472
C59	C	-0.669296	-1.532025	-0.510618
C60	C	-0.692785	-1.464281	-0.442769
C61	C	-0.622378	-1.531996	-0.510620
C62	C	-0.598889	-1.599740	-0.578470
C63	C	-0.622317	-1.667512	-0.646318
C64	C	-0.669233	-1.667532	-0.646322
C65	C	-0.669356	-1.396509	-0.374921
C66	C	-0.622441	-1.396494	-0.374923
C67	C	-0.598952	-1.464237	-0.442773
C68	C	-0.099255	-1.532112	-0.510624
C69	C	-0.049321	-1.532182	-0.510635
C70	C	-0.216399	-1.532026	-0.787103
C71	C	-0.216384	-1.532060	-0.904933
C72	C	-0.216444	-0.808453	-0.510595
C73	C	-0.216444	-0.926283	-0.510613
C74	C	-0.250932	-1.449841	-1.072493
C75	C	-0.251103	-1.450056	-0.949933
C76	C	-0.229234	-1.643753	-0.949438
C77	C	-0.229451	-1.643302	-1.072036
C78	C	-0.168793	-1.503642	-1.072131
C79	C	-0.169078	-1.501149	-0.949525
C80	C	-0.216436	-1.531931	-0.235168
C81	C	-0.216324	-1.532104	-0.117339
H82	H	-0.262382	-0.940498	-0.370648
H83	H	-0.286525	-0.941625	-0.573213
H84	H	-0.204825	-1.706687	-0.920291
C85	C	-0.298698	-1.475485	-0.910320
H86	H	-0.298967	-1.475694	-0.835193
H87	H	-0.307503	-1.543046	-0.935738
H88	H	-0.318990	-1.423386	-0.935578
H89	H	-0.387386	-1.654787	-0.633731
H90	H	-0.243467	-0.940347	-0.674799
H91	H	-0.285949	-1.468445	-1.103313
C92	C	-0.380816	-1.389557	-0.368141
H93	H	-0.401529	-1.349226	-0.327728
H94	H	-0.362520	-1.343329	-0.408648
H95	H	-0.362510	-1.430131	-0.321978
H96	H	-0.472618	-1.408971	-0.387514
H97	H	-0.159387	-1.418953	-0.920437
C98	C	-0.240177	-1.337614	-1.112316
H99	H	-0.261446	-1.289157	-1.084357
H100	H	-0.241485	-1.336386	-1.187362
H101	H	-0.210966	-1.318054	-1.089782
C102	C	-0.197673	-1.135396	-0.312532
H103	H	-0.206361	-1.107168	-0.245975
H104	H	-0.167872	-1.114138	-0.328195
H105	H	-0.199154	-1.210399	-0.310080
H106	H	-0.286298	-1.123749	-0.573338
C107	C	-0.155087	-1.135712	-0.650800
H108	H	-0.178002	-1.180111	-0.678123
H109	H	-0.128045	-1.174890	-0.644604
H110	H	-0.150575	-1.077710	-0.697328
C111	C	-0.240455	-1.133355	-0.704791
H112	H	-0.236133	-1.074539	-0.750393
H113	H	-0.264651	-1.175059	-0.730110
H114	H	-0.213936	-1.174924	-0.703173
H115	H	-0.959899	-1.409201	-0.387533
C116	C	-0.155551	-0.933034	-0.652567
H117	H	-0.149883	-0.992279	-0.696817
H118	H	-0.129210	-0.891209	-0.647300
H119	H	-0.179073	-0.891816	-0.681971
C120	C	-0.132402	-1.576183	-0.908156
H121	H	-0.145519	-1.627578	-0.862952
H122	H	-0.110729	-1.536711	-0.869855
H123	H	-0.118336	-1.610576	-0.966148
C124	C	-0.276536	-1.133318	-0.367880
H125	H	-0.288159	-1.176746	-0.422698
H126	H	-0.295800	-1.074399	-0.357453
H127	H	-0.274661	-1.173072	-0.304297
C128	C	-0.276390	-1.675885	-1.110693
H129	H	-0.295147	-1.689268	-1.051470
H130	H	-0.274107	-1.738055	-1.152536
H131	H	-0.288878	-1.620417	-1.151905
H132	H	-0.142417	-1.123379	-0.483638
H133	H	-0.203062	-0.942432	-0.337650
C134	C	-0.196886	-1.728920	-1.112119
H135	H	-0.183586	-1.763830	-1.053473
H136	H	-0.174155	-1.696922	-1.153852
H137	H	-0.212835	-1.778849	-1.153747
H138	H	-1.044903	-1.655109	-0.633751
C139	C	-0.953083	-1.674430	-0.653144
H140	H	-0.973760	-1.714775	-0.693561
H141	H	-0.934770	-1.720646	-0.612653
H142	H	-0.934789	-1.633824	-0.699302
H143	H	-0.142404	-0.941968	-0.485085
H144	H	-0.243062	-1.367231	-0.919843
C145	C	-0.275683	-1.676907	-0.907994
H146	H	-0.287306	-1.622840	-0.863583
H147	H	-0.273016	-1.740697	-0.868836
H148	H	-0.295386	-1.687615	-0.966007
H149	H	-0.603371	-1.341299	-0.319666
C150	C	-0.152968	-1.395530	-1.113881
H151	H	-0.124226	-1.379863	-1.085654
H152	H	-0.173639	-1.342363	-1.092882
H153	H	-0.151271	-1.397674	-1.188872
C154	C	-0.596475	-1.742020	-0.720962
H155	H	-0.617143	-1.782382	-0.761386
H156	H	-0.578163	-1.788220	-0.680450
H157	H	-0.578179	-1.701413	-0.767115
C158	C	-0.737233	-1.742089	-0.720978
H159	H	-0.757910	-1.782438	-0.761388
H160	H	-0.718920	-1.788301	-0.680483
H161	H	-0.718939	-1.701491	-0.767144
C162	C	-0.133958	-1.584567	-1.111323
H163	H	-0.148287	-1.635456	-1.155025
H164	H	-0.120694	-1.619030	-1.052379
H165	H	-0.111408	-1.549136	-1.150773
H166	H	-1.045022	-1.409253	-0.387539
H167	H	-0.688477	-1.341345	-0.319666
C168	C	-0.835744	-1.742151	-0.720963
H169	H	-0.867052	-1.732471	-0.711260
H170	H	-0.828031	-1.813377	-0.705497
H171	H	-0.828047	-1.726591	-0.792183
C172	C	-0.479203	-1.674206	-0.653121
H173	H	-0.458489	-1.714548	-0.693521
H174	H	-0.497513	-1.633648	-0.699279
H175	H	-0.497494	-1.720438	-0.612597
C176	C	-0.737434	-1.322021	-0.300246
H177	H	-0.758149	-1.281697	-0.259832
H178	H	-0.719135	-1.275786	-0.340739
H179	H	-0.719130	-1.362603	-0.254084
C180	C	-0.835948	-1.322067	-0.300264
H181	H	-0.815274	-1.281701	-0.259861
H182	H	-0.854248	-1.362649	-0.254108
H183	H	-0.854255	-1.275854	-0.340786
H184	H	-0.688302	-1.722715	-0.701581
