data_functionalizedCrystal
_audit_creation_method	'MofGen! by Chris Wilmer'
_symmetry_space_group_name_H-M	'P1'
_symmetry_Int_Tables_number	1
_symmetry_cell_setting	triclinic
loop_
_symmetry_equiv_pos_as_xyz
  x,y,z
_cell_length_a	13.339070
_cell_length_b	15.944551
_cell_length_c	12.376897
_cell_angle_alpha	77.334128
_cell_angle_beta	81.004956
_cell_angle_gamma	99.564016
loop_
_atom_site_label
_atom_site_type_symbol
_atom_site_fract_x
_atom_site_fract_y
_atom_site_fract_z
O1	O	1.325002	0.402684	0.094048
O2	O	1.030473	0.347413	0.094040
O3	O	1.185782	0.254650	0.094034
O4	O	1.169693	0.495447	0.094054
O5	O	1.220368	0.291463	-0.093961
O6	O	1.065059	0.384227	-0.093955
O7	O	1.359588	0.439498	-0.093947
Zn8	Zn	1.217815	0.417707	-0.123799
Zn9	Zn	1.172246	0.369204	0.123892
O10	O	1.204278	0.532261	-0.093941
C11	C	1.010076	0.356484	0.000041
C12	C	0.897773	0.328654	0.000038
C13	C	0.532988	0.545040	0.000074
C14	C	0.638501	0.571189	0.000081
C15	C	0.703325	0.510558	0.000069
C16	C	0.662624	0.423772	0.000053
C17	C	0.557099	0.397619	0.000055
C18	C	0.727435	0.363137	0.000050
C19	C	0.686735	0.276351	0.000033
C20	C	0.581220	0.250202	0.000035
C21	C	0.516397	0.310834	0.000046
C22	C	0.832960	0.389290	0.000048
C23	C	0.857071	0.241869	0.000029
C24	C	0.751558	0.215720	0.000022
C25	C	1.202408	0.241607	0.000036
C26	C	1.200406	0.147895	0.000036
C27	C	1.099351	-0.090511	0.000048
C28	C	1.163329	-0.122443	-0.092643
C29	C	1.196782	-0.023677	0.000044
C30	C	1.129253	-0.158716	0.092705
C31	C	1.193274	-0.189409	0.000057
C32	C	1.260801	-0.054359	-0.092724
C33	C	1.226696	-0.090646	0.092708
C34	C	1.290750	-0.122539	-0.000007
C35	C	1.198801	0.071797	0.000036
C36	C	1.191265	-0.284878	0.000058
C37	C	1.379984	0.430427	0.000054
C38	C	1.492286	0.458255	0.000065
C39	C	1.187653	0.545303	0.000059
C40	C	1.189654	0.639014	0.000067
N41	N	1.248921	0.450810	-0.292842
C42	C	1.068903	0.259236	-0.647916
C43	C	1.047115	0.236061	-0.529587
C44	C	1.097565	0.289747	-0.470395
C45	C	1.169806	0.366611	-0.529544
C46	C	1.191602	0.389785	-0.647884
C47	C	1.220263	0.420295	-0.470363
C48	C	1.292504	0.497159	-0.529512
C49	C	1.314296	0.520329	-0.647841
C50	C	1.263847	0.466644	-0.707033
C51	C	1.198467	0.397121	-0.352023
C52	C	1.321166	0.527670	-0.351991
C53	C	1.342954	0.550845	-0.470320
N54	N	1.141148	0.336096	0.292935
H55	H	0.480199	0.594394	0.000092
C56	C	0.827099	0.504063	0.096705
C57	C	0.877688	0.484682	0.000060
H58	H	0.854707	0.562960	0.096705
H59	H	0.837300	0.465232	0.162246
H60	H	0.754980	0.497154	0.096696
H61	H	0.949806	0.491585	0.000074
H62	H	0.867495	0.523525	-0.065498
H63	H	1.018496	-0.076029	-0.000046
C64	C	0.354026	0.214319	0.096680
C65	C	0.400409	0.282089	0.000043
H66	H	0.282421	0.196573	0.096673
H67	H	0.361385	0.234625	0.162227
H68	H	0.386807	0.165790	0.096665
H69	H	0.367633	0.330621	0.000063
H70	H	0.393043	0.261785	-0.065521
C71	C	1.263594	0.574102	-0.876539
C72	C	1.287798	0.492124	-0.837107
H73	H	1.278374	0.589828	-0.956841
H74	H	1.303984	0.617062	-0.849755
H75	H	1.192001	0.571004	-0.849774
H76	H	1.359393	0.495224	-0.863865
H77	H	1.247408	0.449153	-0.863902
H78	H	1.136536	-0.136808	-0.171009
C79	C	0.927881	0.143181	-0.096625
C80	C	0.928313	0.175213	0.000016
H81	H	0.971862	0.102030	-0.096624
H82	H	0.952281	0.190588	-0.162169
H83	H	0.859208	0.115188	-0.096611
H84	H	0.996985	0.203212	-0.000001
H85	H	0.903918	0.127798	0.065577
H86	H	1.027842	0.215530	-0.696121
C87	C	1.265198	0.017190	0.196797
C88	C	1.262819	-0.071224	0.198499
H89	H	1.287498	0.029179	0.262112
H90	H	1.197718	0.028856	0.196136
H91	H	1.312008	0.053496	0.130995
H92	H	1.216003	-0.107530	0.264297
H93	H	1.330310	-0.082898	0.199170
H94	H	1.139648	0.334539	-0.303875
C95	C	1.337020	0.094122	-0.197706
C96	C	1.335865	0.006310	-0.198634
H97	H	1.383353	0.131575	-0.263095
H98	H	1.359304	0.105149	-0.131973
H99	H	1.269184	0.105196	-0.197439
H100	H	1.403700	-0.004767	-0.198892
H101	H	1.313585	-0.004722	-0.264385
H102	H	0.548083	0.179534	0.000034
H103	H	0.718402	0.145056	0.000018
H104	H	1.371702	-0.136828	-0.000057
C105	C	1.053768	-0.307283	0.197892
C106	C	1.054142	-0.219516	0.198491
H107	H	1.007387	-0.344814	0.263193
H108	H	1.121715	-0.317968	0.198020
H109	H	1.031928	-0.318593	0.132064
H110	H	1.075990	-0.208204	0.264315
H111	H	0.986180	-0.208827	0.198374
H112	H	0.789237	0.531853	0.000078
H113	H	1.079820	0.270873	-0.374046
C114	C	0.604064	0.714277	0.000091
C115	C	0.683239	0.666580	0.000089
H116	H	0.631688	0.773172	0.000087
H117	H	0.551354	0.688176	0.065645
H118	H	0.575468	0.713843	-0.065471
H119	H	0.711831	0.667009	0.065655
H120	H	0.735967	0.692688	-0.065473
C121	C	1.433382	0.647049	-0.635922
C122	C	1.393706	0.604817	-0.712859
H123	H	1.482401	0.699210	-0.676062
H124	H	1.466335	0.609037	-0.589761
H125	H	1.378317	0.661553	-0.589775
H126	H	1.448771	0.590307	-0.759000
H127	H	1.360754	0.642836	-0.759040
C128	C	0.928023	0.109355	-0.541514
C129	C	0.967706	0.151581	-0.464574
H130	H	0.878991	0.057201	-0.501374
H131	H	0.983074	0.094845	-0.587654
H132	H	0.895074	0.147380	-0.587680
H133	H	1.000662	0.113558	-0.418413
H134	H	0.912646	0.166088	-0.418415
C135	C	1.302968	0.616076	-0.218928
C136	C	1.376623	0.586695	-0.286944
H137	H	1.337205	0.652517	-0.178773
H138	H	1.256835	0.566989	-0.166770
H139	H	1.264924	0.648662	-0.265119
H140	H	1.414662	0.554104	-0.240752
H141	H	1.422774	0.635790	-0.339108
H142	H	1.401774	0.613429	-0.518496
