data_functionalizedCrystal
_audit_creation_method	'MofGen! by Chris Wilmer'
_symmetry_space_group_name_H-M	'P1'
_symmetry_Int_Tables_number	1
_symmetry_cell_setting	triclinic
loop_
_symmetry_equiv_pos_as_xyz
  x,y,z
_cell_length_a	18.101397
_cell_length_b	18.101398
_cell_length_c	18.101389
_cell_angle_alpha	89.991407
_cell_angle_beta	90.018351
_cell_angle_gamma	89.985428
loop_
_atom_site_label
_atom_site_type_symbol
_atom_site_fract_x
_atom_site_fract_y
_atom_site_fract_z
Zn1	Zn	-0.295010	-1.132179	0.418528
Zn2	Zn	0.204990	-0.632179	0.918528
Zn3	Zn	-0.418836	-1.132100	0.294687
Zn4	Zn	0.081164	-0.632100	0.794687
Zn5	Zn	-0.295001	-1.008338	0.294723
Zn6	Zn	0.204999	-0.508338	0.794723
Zn7	Zn	-0.418803	-1.008313	0.418509
Zn8	Zn	0.081197	-0.508313	0.918509
O9	O	-0.356912	-1.070233	0.356612
O10	O	0.143088	-0.570233	0.856612
O11	O	-0.311453	-1.235802	0.402093
O12	O	0.188547	-0.735802	0.902093
O13	O	-0.402419	-1.115659	0.191059
O14	O	0.097581	-0.615659	0.691059
O15	O	-0.191369	-1.024810	0.311169
O16	O	0.308631	-0.524810	0.811169
O17	O	-0.402427	-1.235743	0.311107
O18	O	0.097573	-0.735743	0.811107
O19	O	-0.191376	-1.115795	0.402128
O20	O	0.308624	-0.615795	0.902128
O21	O	-0.311438	-1.024732	0.191086
O22	O	0.188562	-0.524732	0.691086
O23	O	-0.311406	-0.904702	0.311151
O24	O	0.188594	-0.404702	0.811151
O25	O	-0.402371	-1.024767	0.522145
O26	O	0.097629	-0.524767	1.022145
O27	O	-0.402363	-0.904684	0.402096
O28	O	0.097637	-0.404684	0.902096
O29	O	-0.311421	-1.115771	0.522159
O30	O	0.188579	-0.615771	1.022159
O31	O	-0.522464	-1.115635	0.311089
O32	O	-0.022464	-0.615635	0.811089
O33	O	-0.522440	-1.024690	0.402061
O34	O	-0.022440	-0.524690	0.902061
C35	C	-0.356881	-0.877822	0.356626
C36	C	0.143119	-0.377822	0.856626
C37	C	-0.356885	-0.795508	0.356650
C38	C	0.143115	-0.295508	0.856650
C39	C	-0.356925	-0.496417	0.356625
C40	C	0.143075	0.003583	0.856625
C41	C	-0.414429	-0.527756	0.413562
C42	C	0.085571	-0.027756	0.913562
C43	C	-0.414250	-0.613374	0.413794
C44	C	0.085750	-0.113374	0.913794
C45	C	-0.356906	-0.644800	0.356637
C46	C	0.143094	-0.144800	0.856637
C47	C	-0.278907	-0.613730	0.377966
C48	C	0.221093	-0.113730	0.877966
C49	C	-0.279251	-0.528085	0.378372
C50	C	0.220749	-0.028085	0.878372
C51	C	-0.376732	-0.527968	0.278222
C52	C	0.123268	-0.027968	0.778222
C53	C	-0.378445	-0.613619	0.278639
C54	C	0.121555	-0.113619	0.778639
C55	C	-0.356890	-0.728659	0.356643
C56	C	0.143110	-0.228659	0.856643
C57	C	-0.356935	-0.412558	0.356621
C58	C	0.143065	0.087442	0.856621
C59	C	-0.549323	-1.070172	0.356585
C60	C	-0.049323	-0.570172	0.856585
C61	C	-0.631637	-1.070213	0.356598
C62	C	-0.131637	-0.570213	0.856598
C63	C	-0.782345	-1.070258	0.356624
C64	C	-0.282345	-0.570258	0.856624
C65	C	-0.813683	-1.127535	0.299442
C66	C	-0.313683	-0.627535	0.799442
C67	C	-0.899302	-1.127392	0.299232
C68	C	-0.399302	-0.627392	0.799232
C69	C	-0.930728	-1.070304	0.356648
C70	C	-0.430728	-0.570304	0.856648
C71	C	-0.899701	-0.992202	0.335655
C72	C	-0.399701	-0.492202	0.835655
C73	C	-0.814056	-0.992507	0.335226
C74	C	-0.314056	-0.492507	0.835226
C75	C	-0.813855	-1.090411	0.434947
C76	C	-0.313855	-0.590411	0.934947
C77	C	-0.899505	-1.092159	0.434544
C78	C	-0.399505	-0.592159	0.934544
C79	C	-1.014587	-1.070325	0.356664
C80	C	-0.514587	-0.570325	0.856664
C81	C	-0.698486	-1.070232	0.356606
C82	C	-0.198486	-0.570232	0.856606
C83	C	-0.163751	-1.070314	0.356655
C84	C	0.336249	-0.570314	0.856655
C85	C	-0.081436	-1.070349	0.356673
C86	C	0.418564	-0.570349	0.856673
C87	C	-0.356894	-1.070275	0.549774
C88	C	0.143106	-0.570275	1.049774
C89	C	-0.356886	-1.070294	0.632088
C90	C	0.143114	-0.570294	1.132088
C91	C	-0.356941	-0.263394	0.356603
C92	C	0.143059	0.236606	0.856603
C93	C	-0.356945	-0.345709	0.356612
C94	C	0.143055	0.154291	0.856612
C95	C	-0.356878	-1.070233	0.164201
C96	C	0.143122	-0.570233	0.664201
C97	C	-0.356677	-1.070358	0.081888
C98	C	0.143323	-0.570358	0.581888
C99	C	-0.356747	-1.070337	0.931179
C100	C	0.143253	-0.570337	1.431179
C101	C	-0.413788	-1.012883	0.899845
C102	C	0.086212	-0.512883	1.399845
C103	C	-0.414053	-1.013038	0.814227
C104	C	0.085947	-0.513038	1.314227
C105	C	-0.356816	-1.070315	0.782797
C106	C	0.143184	-0.570315	1.282797
C107	C	-0.378007	-1.148344	0.813881
C108	C	0.121993	-0.648344	1.313881
C109	C	-0.378381	-1.148024	0.899526
C110	C	0.121619	-0.648024	1.399526
C111	C	-0.278388	-1.050440	0.899609
C112	C	0.221612	-0.550440	1.399609
C113	C	-0.278840	-1.048704	0.813958
C114	C	0.221160	-0.548704	1.313958
C115	C	-0.356853	-1.070307	0.698937
C116	C	0.143147	-0.570307	1.198937
C117	C	-0.356711	-1.070350	1.015039
C118	C	0.143289	-0.570350	1.515039
H119	H	-0.261802	-0.635191	0.434658
H120	H	0.238198	-0.135191	0.934658
H121	H	-0.432635	-0.506366	0.258840
H122	H	0.067365	-0.006366	0.758840
H123	H	-0.472458	-0.507152	0.400345
H124	H	0.027542	-0.007152	0.900345
H125	H	-0.792198	-1.114345	0.241738
H126	H	-0.292198	-0.614345	0.741738
H127	H	-0.259082	-0.994529	0.921210
H128	H	0.240918	-0.494529	1.421210
H129	H	-0.262449	-0.508120	0.435688
H130	H	0.237551	-0.008120	0.935688
H131	H	-0.337766	-1.192302	0.793523
H132	H	0.162234	-0.692302	1.293523
H133	H	-0.920058	-0.948376	0.376031
H134	H	-0.420058	-0.448376	0.876031
Br135	Br	-0.933527	-1.105155	0.202515
Br136	Br	-0.433527	-0.605155	0.702515
H137	H	-0.401146	-0.633874	0.471885
H138	H	0.098854	-0.133874	0.971885
Br139	Br	-0.474116	-0.647463	0.251831
Br140	Br	0.025884	-0.147463	0.751831
H141	H	-0.234901	-0.634085	0.337788
H142	H	0.265099	-0.134085	0.837788
Br143	Br	-0.312095	-1.221747	0.934079
Br144	Br	0.187905	-0.721747	1.434079
H145	H	-0.234871	-0.507354	0.338803
H146	H	0.265129	-0.007354	0.838803
H147	H	-0.339602	-0.635011	0.233937
H148	H	0.160398	-0.135011	0.733937
Br149	Br	-0.780828	-0.964079	0.239813
Br150	Br	-0.280828	-0.464079	0.739813
Br151	Br	-0.306922	-0.494189	0.207512
Br152	Br	0.193078	0.005811	0.707512
Br153	Br	-0.779293	-1.224337	0.321034
Br154	Br	-0.279293	-0.724337	0.821034
Br155	Br	-0.934267	-1.223906	0.321100
Br156	Br	-0.434267	-0.723906	0.821100
Br157	Br	-0.935519	-0.963306	0.241299
Br158	Br	-0.435519	-0.463306	0.741299
Br159	Br	-0.207553	-1.120187	0.933381
Br160	Br	0.292447	-0.620187	1.433381
Br161	Br	-0.779503	-0.918938	0.401638
Br162	Br	-0.279503	-0.418938	0.901638
Br163	Br	-0.252207	-0.952989	0.780110
Br164	Br	0.247793	-0.452989	1.280110
Br165	Br	-0.777794	-1.183704	0.466835
Br166	Br	-0.277794	-0.683704	0.966835
Br167	Br	-0.509995	-1.034510	0.935777
Br168	Br	-0.009995	-0.534510	1.435777
H169	H	-0.919779	-1.149635	0.450377
H170	H	-0.419779	-0.649635	0.950377
Br171	Br	-0.935157	-1.027751	0.509348
Br172	Br	-0.435157	-0.527751	1.009348
Br173	Br	-0.472465	-1.176945	0.778137
Br174	Br	0.027535	-0.676945	1.278137
H175	H	-0.793585	-1.048698	0.477550
H176	H	-0.293585	-0.548698	0.977550
H177	H	-0.400791	-0.955176	0.793210
H178	H	0.099209	-0.455176	1.293210
Br179	Br	-0.391909	-0.916146	0.934173
Br180	Br	0.108091	-0.416146	1.434173
Br181	Br	-0.204242	-1.113368	0.778311
Br182	Br	0.295758	-0.613368	1.278311
H183	H	-0.472135	-1.026175	0.793741
H184	H	0.027865	-0.526175	1.293741
H185	H	-0.472091	-0.634380	0.400427
H186	H	0.027909	-0.134380	0.900427
Br187	Br	-0.392886	-0.491881	0.509824
Br188	Br	0.107114	0.008119	1.009824
Br189	Br	-0.473854	-1.176134	0.932830
Br190	Br	0.026146	-0.676134	1.432830
