data_functionalizedCrystal
_audit_creation_method	'MofGen! by Chris Wilmer'
_symmetry_space_group_name_H-M	'P1'
_symmetry_Int_Tables_number	1
_symmetry_cell_setting	triclinic
loop_
_symmetry_equiv_pos_as_xyz
  x,y,z
_cell_length_a	17.639044
_cell_length_b	17.637651
_cell_length_c	15.296721
_cell_angle_alpha	93.471964
_cell_angle_beta	67.473512
_cell_angle_gamma	92.197722
loop_
_atom_site_label
_atom_site_type_symbol
_atom_site_fract_x
_atom_site_fract_y
_atom_site_fract_z
Zn1	Zn	1.076391	-0.552488	0.133593
Zn2	Zn	1.576391	-0.052488	0.633593
Zn3	Zn	1.081589	-0.658974	-0.043053
Zn4	Zn	1.581589	-0.158974	0.456947
Zn5	Zn	0.969927	-0.513241	0.016438
Zn6	Zn	1.469927	-0.013241	0.516438
Zn7	Zn	0.921623	-0.655216	0.145602
Zn8	Zn	1.421623	-0.155216	0.645602
O9	O	1.012383	-0.594980	0.063145
O10	O	1.512383	-0.094980	0.563145
O11	O	1.188582	-0.584612	0.080237
O12	O	1.688582	-0.084612	0.580237
O13	O	1.089167	-0.624789	-0.163144
O14	O	1.589167	-0.124789	0.336856
O15	O	1.002090	-0.414466	0.051850
O16	O	1.502090	0.085534	0.551850
O17	O	1.192401	-0.662846	-0.049544
O18	O	1.692401	-0.162846	0.450456
O19	O	1.080309	-0.443301	0.137923
O20	O	1.580309	0.056699	0.637923
O21	O	1.007130	-0.517720	-0.119437
O22	O	1.507130	-0.017720	0.380563
O23	O	0.852018	-0.514076	0.063495
O24	O	1.352018	-0.014076	0.563495
O25	O	0.919763	-0.656441	0.271991
O26	O	1.419763	-0.156441	0.771991
O27	O	0.816530	-0.618384	0.158391
O28	O	1.316530	-0.118384	0.658391
O29	O	1.033471	-0.580968	0.263168
O30	O	1.533471	-0.080968	0.763168
O31	O	1.042329	-0.762457	-0.037899
O32	O	1.542329	-0.262457	0.462101
O33	O	0.924803	-0.759696	0.100705
O34	O	1.424803	-0.259696	0.600705
C35	C	0.805363	-0.561564	0.118702
C36	C	1.305363	-0.061564	0.618702
C37	C	0.716792	-0.547289	0.142488
C38	C	1.216792	-0.047289	0.642488
C39	C	0.589937	-0.486524	0.243653
C40	C	1.089937	0.013476	0.743653
C41	C	0.673163	-0.499943	0.221295
C42	C	1.173163	0.000057	0.721295
C43	C	0.677206	-0.581233	0.086005
C44	C	1.177206	-0.081233	0.586005
C45	C	0.593979	-0.567819	0.108349
C46	C	1.093979	-0.067819	0.608349
C47	C	0.550351	-0.520464	0.187175
C48	C	1.050351	-0.020464	0.687175
C49	C	0.554393	-0.601759	0.051871
C50	C	1.054393	-0.101759	0.551871
C51	C	0.471173	-0.588348	0.074216
C52	C	0.971173	-0.088348	0.574216
C53	C	0.427539	-0.540998	0.153040
C54	C	0.927539	-0.040998	0.653040
C55	C	0.467131	-0.507054	0.209520
C56	C	0.967131	-0.007054	0.709520
C57	C	0.598021	-0.649117	-0.026951
C58	C	1.098021	-0.149117	0.473049
C59	C	0.558435	-0.683057	-0.083429
C60	C	1.058435	-0.183057	0.416571
C61	C	0.475215	-0.669643	-0.061088
C62	C	0.975215	-0.169643	0.438912
C63	C	0.431581	-0.622292	0.017736
C64	C	0.931581	-0.122292	0.517736
C65	C	0.435623	-0.703587	-0.117568
C66	C	0.935623	-0.203587	0.382432
C67	C	0.352403	-0.690176	-0.095222
C68	C	0.852403	-0.190176	0.404778
C69	C	0.348361	-0.608882	0.040082
C70	C	0.848361	-0.108882	0.540082
C71	C	0.978906	-0.788043	0.026265
C72	C	1.478906	-0.288043	0.526265
C73	C	0.964653	-0.870652	0.010498
C74	C	1.464653	-0.370652	0.510498
C75	C	1.121134	-1.217112	0.183070
C76	C	1.621134	-0.717112	0.683070
C77	C	1.107718	-1.294730	0.168246
C78	C	1.607718	-0.794730	0.668246
C79	C	1.026357	-1.264809	0.078486
C80	C	1.526357	-0.764809	0.578486
C81	C	1.039769	-1.187188	0.093299
C82	C	1.539769	-0.687188	0.593299
C83	C	1.087158	-1.163346	0.145592
C84	C	1.587158	-0.663346	0.645592
C85	C	1.005793	-1.133421	0.055821
C86	C	1.505793	-0.633421	0.555821
C87	C	1.019201	-1.055806	0.070637
C88	C	1.519201	-0.555806	0.570637
C89	C	1.066586	-1.031958	0.122931
C90	C	1.566586	-0.531958	0.622931
C91	C	1.100566	-1.085731	0.160408
C92	C	1.600566	-0.585731	0.660408
C93	C	0.958400	-1.157264	0.003534
C94	C	1.458400	-0.657264	0.503534
C95	C	0.924423	-1.103498	-0.033943
C96	C	1.424423	-0.603498	0.466057
C97	C	0.937836	-1.025881	-0.019134
C98	C	1.437836	-0.525881	0.480866
C99	C	0.985221	-1.002033	0.033160
C100	C	1.485221	-0.502033	0.533160
C101	C	0.903856	-0.972108	-0.056611
C102	C	1.403856	-0.472108	0.443389
C103	C	0.917264	-0.894493	-0.041795
C104	C	1.417264	-0.394493	0.458205
C105	C	0.998629	-0.924418	0.047976
C106	C	1.498629	-0.424418	0.547976
C107	C	1.220211	-0.628526	0.007371
C108	C	1.720211	-0.128526	0.507371
C109	C	1.308775	-0.642822	-0.016397
C110	C	1.808775	-0.142822	0.483603
C111	C	0.970649	-0.622663	0.301692
C112	C	1.470649	-0.122663	0.801692
C113	C	0.952865	-0.634460	0.403347
C114	C	1.452865	-0.134460	0.903347
C115	C	1.046008	-0.401168	0.100183
C116	C	1.546008	0.098832	0.600183
C117	C	1.060337	-0.318577	0.115966
C118	C	1.560337	0.181423	0.615966
C119	C	1.054009	-0.567358	-0.174477
C120	C	1.554009	-0.067358	0.325523
C121	C	1.071984	-0.555376	-0.276133
C122	C	1.571984	-0.055376	0.223867
C123	C	0.885305	-0.679296	0.455697
C124	C	1.385305	-0.179296	0.955697
C125	C	0.868596	-0.690384	0.551205
C126	C	1.368596	-0.190384	1.051205
C127	C	0.919441	-0.656633	0.594376
C128	C	1.419441	-0.156633	1.094376
C129	C	0.986999	-0.611792	0.542028
C130	C	1.486999	-0.111792	1.042028
C131	C	1.003713	-0.600707	0.446508
C132	C	1.503713	-0.100707	0.946508
C133	C	1.037850	-0.578044	0.585187
C134	C	1.537850	-0.078044	1.085187
C135	C	1.105407	-0.533203	0.532839
C136	C	1.605407	-0.033203	1.032839
C137	C	1.122118	-0.522120	0.437329
C138	C	1.622118	-0.022120	0.937329
C139	C	1.071273	-0.555871	0.394158
C140	C	1.571273	-0.055871	0.894158
C141	C	1.021135	-0.589129	0.680707
C142	C	1.521135	-0.089129	1.180707
C143	C	1.139543	-0.510540	0.671518
C144	C	1.639543	-0.010540	1.171518
C145	C	1.156253	-0.499452	0.576009
C146	C	1.656253	0.000548	1.076009
H147	H	0.320171	-0.717815	-0.141211
H148	H	0.820171	-0.217815	0.358789
H149	H	1.139162	-1.066320	0.202982
H150	H	1.639162	-0.566320	0.702982
H151	H	1.177134	-0.485615	0.394706
H152	H	1.677134	0.014385	0.894706
F153	F	1.049076	-0.899041	0.103620
F154	F	1.549076	-0.399041	0.603620
F155	F	0.881105	-0.837268	-0.081686
F156	F	1.381105	-0.337268	0.418314
H157	H	0.593968	-0.721615	-0.147607
H158	H	1.093968	-0.221615	0.352393
F159	F	0.301927	-0.558471	0.123968
F160	F	0.801927	-0.058471	0.623968
F161	F	0.901655	-0.668435	0.696025
F162	F	1.401655	-0.168435	1.196025
F163	F	1.228145	-0.451722	0.520289
F164	F	1.728145	0.048278	1.020289
H165	H	1.077502	-0.968758	0.134992
H166	H	1.577502	-0.468758	0.634992
H167	H	0.554416	-0.447954	0.307832
H168	H	1.054416	0.052046	0.807832
H169	H	0.705392	-0.472298	0.267290
H170	H	1.205392	0.027702	0.767290
F171	F	0.723645	-0.631632	0.002117
F172	F	1.223645	-0.131632	0.502117
H173	H	0.359775	-0.530082	0.171235
H174	H	0.859775	-0.030082	0.671235
F175	F	1.143889	-1.351952	0.208133
F176	F	1.643889	-0.851952	0.708133
F177	F	0.420698	-0.456643	0.293407
F178	F	0.920698	0.043357	0.793407
F179	F	0.686592	-0.663392	-0.050729
F180	F	1.186592	-0.163392	0.449271
H181	H	0.813591	-0.726895	0.593820
H182	H	1.313591	-0.226895	1.093820
H183	H	0.885837	-1.122921	-0.076518
H184	H	1.385837	-0.622921	0.423482
H185	H	0.471155	-0.742148	-0.181742
H186	H	0.971155	-0.242148	0.318258
F187	F	1.171581	-1.191735	0.238714
F188	F	1.671581	-0.691735	0.738714
H189	H	0.865266	-0.991533	-0.099180
H190	H	1.365266	-0.491533	0.400820
F191	F	0.975917	-1.290192	0.022841
F192	F	1.475917	-0.790192	0.522841
H193	H	0.947475	-1.220464	-0.008517
H194	H	1.447475	-0.720464	0.491483
H195	H	0.843918	-0.706776	0.420536
H196	H	1.343918	-0.206776	0.920536
F197	F	1.089045	-0.544062	0.292510
F198	F	1.589045	-0.044062	0.792510
H199	H	0.966129	-0.625639	0.723319
H200	H	1.466129	-0.125639	1.223319
F201	F	1.193663	-0.474620	0.717456
F202	F	1.693663	0.025380	1.217456
