data_functionalizedCrystal
_audit_creation_method	'MofGen! by Chris Wilmer'
_symmetry_space_group_name_H-M	'P1'
_symmetry_Int_Tables_number	1
_symmetry_cell_setting	triclinic
loop_
_symmetry_equiv_pos_as_xyz
  x,y,z
_cell_length_a	23.532407
_cell_length_b	23.532361
_cell_length_c	14.750779
_cell_angle_alpha	102.562763
_cell_angle_beta	102.554207
_cell_angle_gamma	97.160828
loop_
_atom_site_label
_atom_site_type_symbol
_atom_site_fract_x
_atom_site_fract_y
_atom_site_fract_z
O1	O	-0.081419	0.742861	-0.079714
O2	O	0.418581	1.242861	0.420286
O3	O	-0.091454	0.576991	-0.079734
O4	O	0.408546	1.076991	0.420266
O5	O	-0.003506	0.664926	-0.079735
O6	O	0.496494	1.164926	0.420265
O7	O	-0.169367	0.654926	-0.079712
O8	O	0.330633	1.154926	0.420288
O9	O	0.021353	0.689784	0.079915
O10	O	0.521353	1.189784	0.579915
O11	O	-0.066594	0.601849	0.079916
O12	O	0.433406	1.101849	0.579916
O13	O	-0.056560	0.767719	0.079936
O14	O	0.443440	1.267719	0.579936
Zn15	Zn	-0.057630	0.688731	0.105274
Zn16	Zn	0.442370	1.188731	0.605274
Zn17	Zn	-0.090383	0.655979	-0.105072
Zn18	Zn	0.409617	1.155979	0.394928
O19	O	-0.144508	0.679784	0.079938
O20	O	0.355492	1.179784	0.579938
C21	C	-0.078773	0.568203	0.000088
C22	C	0.421227	1.068203	0.500088
C23	C	-0.078019	0.504983	0.000079
C24	C	0.421981	1.004983	0.500079
C25	C	-0.088266	0.218190	-0.086941
C26	C	0.411734	0.718190	0.413059
C27	C	-0.088981	0.277589	-0.086943
C28	C	0.411019	0.777589	0.413057
O29	O	-0.100855	0.296792	-0.160953
O30	O	0.399145	0.796792	0.339047
N31	N	-0.075791	0.320845	0.000082
N32	N	0.424209	0.820845	0.500082
C33	C	-0.061880	0.304700	0.087116
C34	C	0.438120	0.804700	0.587116
O35	O	-0.050726	0.346947	0.161138
O36	O	0.449274	0.846947	0.661138
C37	C	-0.061161	0.245302	0.087117
C38	C	0.438839	0.745302	0.587117
C39	C	-0.074357	0.202048	0.000086
C40	C	0.425643	0.702048	0.500086
C41	C	-0.101460	0.174937	-0.173965
C42	C	0.398540	0.674937	0.326035
C43	C	-0.100746	0.115541	-0.173963
C44	C	0.399254	0.615541	0.326037
C45	C	-0.086837	0.099399	-0.086936
C46	C	0.413163	0.599399	0.413064
C47	C	-0.073643	0.142653	0.000088
C48	C	0.426357	0.642653	0.500088
C49	C	-0.047245	0.229159	0.174150
C50	C	0.452755	0.729159	0.674150
C51	C	-0.046527	0.169756	0.174144
C52	C	0.453473	0.669756	0.674144
C53	C	-0.059723	0.126501	0.087112
C54	C	0.440277	0.626501	0.587112
C55	C	-0.059020	0.067115	0.087118
C56	C	0.440980	0.567115	0.587118
N57	N	-0.072209	0.023859	0.000092
N58	N	0.427791	0.523859	0.500092
C59	C	-0.086118	0.040001	-0.086935
C60	C	0.413882	0.540001	0.413065
C61	C	-0.063390	0.429439	0.087107
C62	C	0.436610	0.929439	0.587107
C63	C	-0.064113	0.488836	0.087106
C64	C	0.435887	0.988836	0.587106
C65	C	-0.091214	0.461721	-0.086953
C66	C	0.408786	0.961721	0.413047
C67	C	-0.090494	0.402323	-0.086952
C68	C	0.409506	0.902323	0.413048
C69	C	-0.076580	0.386183	0.000081
C70	C	0.423420	0.886183	0.500081
C71	C	-0.084618	-0.084732	-0.086922
C72	C	0.415382	0.415268	0.413078
C73	C	-0.083905	-0.144132	-0.086912
C74	C	0.416095	0.355868	0.413088
C75	C	-0.056802	-0.117012	0.087147
C76	C	0.443198	0.382988	0.587147
C77	C	-0.057518	-0.057617	0.087137
C78	C	0.442482	0.442383	0.587137
C79	C	-0.071425	-0.041480	0.000095
C80	C	0.428575	0.458520	0.500095
O81	O	-0.047149	0.047870	0.161090
O82	O	0.452851	0.547870	0.661090
O83	O	-0.097262	-0.002250	-0.160944
O84	O	0.402738	0.497750	0.339056
C85	C	-0.178153	0.667610	0.000116
C86	C	0.321847	1.167610	0.500116
C87	C	-0.241369	0.668378	0.000125
C88	C	0.258631	1.168378	0.500125
C89	C	-0.640488	0.621135	0.000070
C90	C	-0.140488	1.121135	0.500070
C91	C	-0.699889	0.621845	0.000063
C92	C	-0.199889	1.121845	0.500063
O93	O	-0.736648	0.578052	0.000022
O94	O	-0.236648	1.078052	0.500022
N95	N	-0.722506	0.674124	0.000071
N96	N	-0.222506	1.174124	0.500071
C97	C	-0.685719	0.725694	0.000076
C98	C	-0.185719	1.225694	0.500076
O99	O	-0.710410	0.770226	0.000081
O100	O	-0.210410	1.270226	0.500081
C101	C	-0.626320	0.724982	0.000075
C102	C	-0.126320	1.224982	0.500075
C103	C	-0.603706	0.672701	0.000077
C104	C	-0.103706	1.172701	0.500077
C105	C	-0.617874	0.568858	0.000071
C106	C	-0.117874	1.068858	0.500071
C107	C	-0.558476	0.568148	0.000079
C108	C	-0.058476	1.068148	0.500079
C109	C	-0.521694	0.619715	0.000087
C110	C	-0.021694	1.119715	0.500087
C111	C	-0.544308	0.671991	0.000086
C112	C	-0.044308	1.171991	0.500086
C113	C	-0.589535	0.776550	0.000073
C114	C	-0.089535	1.276550	0.500073
C115	C	-0.530133	0.775833	0.000072
C116	C	-0.030133	1.275833	0.500072
C117	C	-0.507519	0.723553	0.000074
C118	C	-0.007519	1.223553	0.500074
C119	C	-0.448128	0.722848	0.000102
C120	C	0.051872	1.222848	0.500102
N121	N	-0.425512	0.670569	0.000094
N122	N	0.074488	1.170569	0.500094
C123	C	-0.462295	0.619003	0.000086
C124	C	0.037705	1.119003	0.500086
C125	C	-0.810461	0.727185	0.000074
C126	C	-0.310461	1.227185	0.500074
C127	C	-0.869858	0.727899	0.000082
C128	C	-0.369858	1.227899	0.500082
C129	C	-0.884025	0.624050	0.000067
C130	C	-0.384025	1.124050	0.500067
C131	C	-0.824626	0.623337	0.000067
C132	C	-0.324626	1.123337	0.500067
C133	C	-0.787845	0.674906	0.000067
C134	C	-0.287845	1.174906	0.500067
C135	C	-0.337555	0.617516	0.000105
C136	C	0.162445	1.117516	0.500105
C137	C	-0.278151	0.616811	0.000117
C138	C	0.221849	1.116811	0.500117
C139	C	-0.263990	0.720659	0.000126
C140	C	0.236010	1.220659	0.500126
C141	C	-0.323388	0.721365	0.000119
C142	C	0.176612	1.221365	0.500119
C143	C	-0.360170	0.669788	0.000105
C144	C	0.139830	1.169788	0.500105
O145	O	-0.411336	0.766618	0.000139
O146	O	0.088664	1.266618	0.500139
O147	O	-0.437597	0.574476	0.000069
O148	O	0.062403	1.074476	0.500069
C149	C	0.030139	0.677100	0.000084
C150	C	0.530139	1.177100	0.500084
C151	C	0.093354	0.676331	0.000069
C152	C	0.593354	1.176331	0.500069
C153	C	-0.069241	0.776507	0.000112
C154	C	0.430759	1.276507	0.500112
C155	C	-0.069996	0.839726	0.000115
C156	C	0.430004	1.339726	0.500115
N157	N	-0.035277	0.711087	0.248829
N158	N	0.464723	1.211087	0.748829
N159	N	-0.112732	0.633627	-0.248627
N160	N	0.387268	1.133627	0.251373
C161	C	-0.175137	0.571189	0.600649
C162	C	0.324863	1.071189	1.100649
C163	C	-0.159477	0.586860	0.701148
C164	C	0.340523	1.086860	1.201148
C165	C	-0.081627	0.664742	0.701110
C166	C	0.418373	1.164742	1.201110
C167	C	-0.097279	0.649076	0.600609
C168	C	0.402721	1.149076	1.100609
C169	C	-0.144035	0.602300	0.550387
C170	C	0.355965	1.102300	1.050387
C171	C	-0.066177	0.680187	0.550346
C172	C	0.433823	1.180187	1.050346
C173	C	-0.081830	0.664525	0.449854
C174	C	0.418170	1.164525	0.949854
C175	C	-0.128584	0.617752	0.399625
C176	C	0.371416	1.117752	0.899625
C177	C	-0.159687	0.586638	0.449894
C178	C	0.340313	1.086638	0.949894
C179	C	-0.019424	0.726966	0.600570
C180	C	0.480576	1.226966	1.100570
C181	C	0.011678	0.758077	0.550308
C182	C	0.511678	1.258077	1.050308
C183	C	-0.003972	0.742412	0.449814
C184	C	0.496028	1.242412	0.949814
C185	C	-0.050727	0.695639	0.399584
C186	C	0.449273	1.195639	0.899584
C187	C	0.027131	0.773526	0.399544
C188	C	0.527131	1.273526	0.899544
C189	C	0.011479	0.757863	0.299052
C190	C	0.511479	1.257863	0.799052
C191	C	-0.066379	0.679976	0.299092
C192	C	0.433621	1.179976	0.799092
H193	H	-0.102539	0.474873	-0.157815
H194	H	0.397461	0.974873	0.342185
H195	H	-0.046783	-0.022399	0.158005
H196	H	0.453217	0.477601	0.658005
C197	C	-0.753279	0.575060	0.082129
C198	C	-0.253279	1.075060	0.582129
C199	C	-0.799774	0.565868	0.000061
C200	C	-0.299774	1.065868	0.500061
H201	H	-0.737943	0.539577	0.082124
H202	H	-0.237943	1.039577	0.582124
H203	H	-0.722871	0.605660	0.082123
H204	H	-0.222871	1.105660	0.582123
H205	H	-0.767495	0.586167	0.137798
H206	H	-0.267495	1.086167	0.637798
H207	H	-0.785556	0.554765	-0.055608
H208	H	-0.285556	1.054765	0.444392
H209	H	-0.830187	0.535258	0.000058
H210	H	-0.330187	1.035258	0.500058
H211	H	-0.367497	0.575517	0.000093
H212	H	0.132503	1.075517	0.500093
H213	H	-0.052066	0.416303	0.157984
H214	H	0.447934	0.916303	0.657984
C215	C	-0.298132	0.514228	0.000095
C216	C	0.201868	1.014228	0.500095
C217	C	-0.253296	0.559339	0.000112
C218	C	0.246704	1.059339	0.500112
H219	H	-0.282789	0.478748	0.000084
H220	H	0.217211	0.978748	0.500084
H221	H	-0.312340	0.525333	0.055764
H222	H	0.187660	1.025333	0.555764
H223	H	-0.329670	0.508004	-0.055584
H224	H	0.170330	1.008004	0.444416
H225	H	-0.221760	0.565567	0.055795
H226	H	0.278240	1.065567	0.555795
H227	H	-0.239080	0.548232	-0.055562
H228	H	0.260920	1.048232	0.444438
C229	C	-0.888833	0.803854	-0.081979
C230	C	-0.388833	1.303854	0.418021
C231	C	-0.894711	0.785368	0.000087
C232	C	-0.394711	1.285368	0.500087
H233	H	-0.904179	0.839331	-0.081981
H234	H	-0.404179	1.339331	0.418019
H235	H	-0.848195	0.810806	-0.081965
H236	H	-0.348195	1.310806	0.418035
H237	H	-0.910147	0.773963	-0.137649
H238	H	-0.410147	1.273963	0.362351
H239	H	-0.873393	0.815257	0.055758
H240	H	-0.373393	1.315257	0.555758
H241	H	-0.935356	0.778419	0.000082
H242	H	-0.435356	1.278419	0.500082
C243	C	-0.037253	0.509656	0.259154
C244	C	0.462747	1.009656	0.759154
C245	C	-0.049612	0.536377	0.182774
C246	C	0.450388	1.036377	0.682774
H247	H	-0.028294	0.539007	0.318216
H248	H	0.471706	1.039007	0.818216
H249	H	-0.070752	0.481394	0.255535
H250	H	0.429248	0.981394	0.755535
H251	H	-0.004323	0.490454	0.255517
H252	H	0.495677	0.990454	0.755517
H253	H	-0.082545	0.555575	0.186406
H254	H	0.417455	1.055575	0.686406
H255	H	-0.016110	0.564649	0.186395
H256	H	0.483890	1.064649	0.686395
C257	C	-0.235078	0.511215	0.460016
C258	C	0.264922	1.011215	0.960016
C259	C	-0.211082	0.535220	0.394680
C260	C	0.288918	1.035220	0.894680
H261	H	-0.266808	0.479477	0.425926
H262	H	0.233192	0.979477	0.925926
H263	H	-0.205375	0.496973	0.499207
H264	H	0.294625	0.996973	0.999207
H265	H	-0.249335	0.540917	0.499214
H266	H	0.250665	1.040917	0.999214
H267	H	-0.196822	0.505518	0.355486
H268	H	0.303178	1.005518	0.855486
H269	H	-0.240791	0.549461	0.355472
H270	H	0.259209	1.049461	0.855472
H271	H	0.049746	0.796164	0.591210
H272	H	0.549746	1.296164	1.091210
H273	H	-0.111489	0.080328	-0.244833
H274	H	0.388511	0.580328	0.255167
H275	H	-0.112785	0.188071	-0.244837
H276	H	0.387215	0.688071	0.255163
H277	H	-0.647817	0.526863	0.000061
H278	H	-0.147817	1.026863	0.500061
H279	H	-0.095943	-0.071602	-0.157801
H280	H	0.404057	0.428398	0.342199
C281	C	-0.578466	0.465571	0.000053
C282	C	-0.078466	0.965571	0.500053
C283	C	-0.533626	0.510677	0.000067
C284	C	-0.033626	1.010677	0.500067
H285	H	-0.563128	0.430088	0.000037
H286	H	-0.063128	0.930088	0.500037
H287	H	-0.592671	0.476678	0.055724
H288	H	-0.092671	0.976678	0.555724
H289	H	-0.610005	0.459351	-0.055624
H290	H	-0.110005	0.959351	0.444376
H291	H	-0.502089	0.516900	0.055747
H292	H	-0.002089	1.016900	0.555747
H293	H	-0.519413	0.499568	-0.055610
H294	H	-0.019413	0.999568	0.444390
H295	H	-0.141330	0.605002	0.317797
H296	H	0.358670	1.105002	0.817797
H297	H	-0.036497	0.264368	0.245020
H298	H	0.463503	0.764368	0.745020
H299	H	-0.913984	0.582061	0.000062
H300	H	-0.413984	1.082061	0.500062
H301	H	0.065196	0.811615	0.440448
H302	H	0.565196	1.311615	0.940448
C303	C	-0.117356	0.381501	-0.258998
C304	C	0.382644	0.881501	0.241002
C305	C	-0.104995	0.354781	-0.182619
C306	C	0.395005	0.854781	0.317381
H307	H	-0.126304	0.352152	-0.318060
H308	H	0.373696	0.852152	0.181940
H309	H	-0.150285	0.400695	-0.255370
H310	H	0.349715	0.900695	0.244630
H311	H	-0.083854	0.409771	-0.255371
H312	H	0.416146	0.909771	0.244629
H313	H	-0.138499	0.326513	-0.186241
H314	H	0.361501	0.826513	0.313759
H315	H	-0.072062	0.335577	-0.186249
H316	H	0.427938	0.835577	0.313751
C317	C	-0.019806	0.202530	0.346196
C318	C	0.480194	0.702530	0.846196
C319	C	-0.031234	0.152017	0.269816
C320	C	0.468766	0.652017	0.769816
H321	H	-0.010370	0.191577	0.405258
H322	H	0.489630	0.691577	0.905258
H323	H	0.012564	0.229663	0.342567
H324	H	0.512564	0.729663	0.842567
H325	H	-0.053867	0.220601	0.342570
H326	H	0.446133	0.720601	0.842570
H327	H	0.002829	0.133949	0.273437
H328	H	0.502829	0.633949	0.773437
H329	H	-0.063607	0.124874	0.273447
H330	H	0.436393	0.624874	0.773447
C331	C	-0.043668	-0.196033	0.164416
C332	C	0.456332	0.303967	0.664416
C333	C	-0.041511	-0.134763	0.182804
C334	C	0.458489	0.365237	0.682804
H335	H	-0.034221	-0.206991	0.223473
H336	H	0.465779	0.293009	0.723473
H337	H	-0.082331	-0.215864	0.128673
H338	H	0.417669	0.284136	0.628673
H339	H	-0.015904	-0.206795	0.128646
H340	H	0.484096	0.293205	0.628646
H341	H	-0.069278	-0.124001	0.218569
H342	H	0.430722	0.375999	0.718569
H343	H	-0.002842	-0.114926	0.218563
H344	H	0.497158	0.385074	0.718563
C345	C	0.090014	0.836418	0.309098
C346	C	0.590014	1.336418	0.809098
C347	C	0.045668	0.792057	0.243795
C348	C	0.545668	1.292057	0.743795
H349	H	0.111122	0.857526	0.274983
H350	H	0.611122	1.357526	0.774983
H351	H	0.072521	0.862878	0.348291
H352	H	0.572521	1.362878	0.848291
H353	H	0.116480	0.818933	0.348298
H354	H	0.616480	1.318933	0.848298
H355	H	0.019199	0.809543	0.204600
H356	H	0.519199	1.309543	0.704600
H357	H	0.063161	0.765593	0.204586
H358	H	0.563161	1.265593	0.704586
C359	C	-0.748222	0.773870	-0.081983
C360	C	-0.248222	1.273870	0.418017
C361	C	-0.770032	0.783878	0.000086
C362	C	-0.270032	1.283878	0.500086
H363	H	-0.723269	0.808871	-0.081978
H364	H	-0.223269	1.308871	0.418022
H365	H	-0.726247	0.742642	-0.081981
H366	H	-0.226247	1.242642	0.418019
H367	H	-0.780359	0.763318	-0.137651
H368	H	-0.280359	1.263318	0.362349
H369	H	-0.737895	0.794426	0.055754
H370	H	-0.237895	1.294426	0.555754
H371	H	-0.792008	0.815115	0.000092
H372	H	-0.292008	1.315115	0.500092
H373	H	-0.006684	0.739718	0.682398
H374	H	0.493316	1.239718	1.182398
C375	C	-0.569544	0.879121	0.000061
C376	C	-0.069544	1.379121	0.500061
C377	C	-0.614383	0.834019	0.000064
C378	C	-0.114383	1.334019	0.500064
H379	H	-0.584886	0.914600	0.000048
H380	H	-0.084886	1.414600	0.500048
H381	H	-0.538010	0.885351	0.055734
H382	H	-0.038010	1.385351	0.555734
H383	H	-0.555336	0.868001	-0.055614
H384	H	-0.055336	1.368001	0.444386
H385	H	-0.628588	0.845137	0.055742
H386	H	-0.128588	1.345137	0.555742
H387	H	-0.645928	0.827788	-0.055615
H388	H	-0.145928	1.327788	0.444385
C389	C	-0.467891	0.822506	-0.081995
C390	C	0.032109	1.322506	0.418005
C391	C	-0.489704	0.832522	0.000073
C392	C	0.010296	1.332522	0.500073
H393	H	-0.442936	0.857504	-0.081994
H394	H	0.057064	1.357504	0.418006
H395	H	-0.445919	0.791277	-0.081985
H396	H	0.054081	1.291277	0.418015
H397	H	-0.500028	0.811953	-0.137664
H398	H	-0.000028	1.311953	0.362336
H399	H	-0.457567	0.843071	0.055742
H400	H	0.042433	1.343071	0.555742
H401	H	-0.511677	0.863760	0.000072
H402	H	-0.011677	1.363760	0.500072
H403	H	-0.341799	0.763938	0.000131
H404	H	0.158201	1.263938	0.500131
H405	H	-0.234031	0.762644	0.000137
H406	H	0.265969	1.262644	0.500137
C407	C	-0.169968	0.641145	0.268165
C408	C	0.330032	1.141145	0.768165
C409	C	-0.117773	0.628558	0.243873
C410	C	0.382227	1.128558	0.743873
H411	H	-0.201694	0.609404	0.234068
H412	H	0.298306	1.109404	0.734068
H413	H	-0.165098	0.646012	0.335198
H414	H	0.334902	1.146012	0.835198
H415	H	-0.178514	0.676552	0.251687
H416	H	0.321486	1.176552	0.751687
H417	H	-0.109224	0.593153	0.260357
H418	H	0.390776	1.093153	0.760357
H419	H	-0.122643	0.623684	0.176825
H420	H	0.377357	1.123684	0.676825
C421	C	-0.238001	0.508286	0.691090
C422	C	0.261999	1.008286	1.191090
C423	C	-0.193661	0.552651	0.756398
C424	C	0.306339	1.052651	1.256398
H425	H	-0.259101	0.487166	0.725201
H426	H	0.240899	0.987166	1.225201
H427	H	-0.264471	0.525766	0.651900
H428	H	0.235529	1.025766	1.151900
H429	H	-0.220500	0.481832	0.651887
H430	H	0.279500	0.981832	1.151887
H431	H	-0.211163	0.579108	0.795596
H432	H	0.288837	1.079108	1.295596
H433	H	-0.167188	0.535171	0.795604
H434	H	0.332812	1.035171	1.295604
C435	C	-0.042837	0.768338	0.732015
C436	C	0.457163	1.268338	1.232015
C437	C	-0.030230	0.716153	0.756316
C438	C	0.469770	1.216153	1.256316
H439	H	-0.011105	0.800075	0.766099
H440	H	0.488895	1.300075	1.266099
H441	H	-0.047708	0.763458	0.664979
H442	H	0.452292	1.263458	1.164979
H443	H	-0.078246	0.776876	0.748502
H444	H	0.421754	1.276876	1.248502
H445	H	0.005177	0.707613	0.739822
H446	H	0.505177	1.207613	1.239822
H447	H	-0.025353	0.721033	0.823367
H448	H	0.474647	1.221033	1.323367
H449	H	-0.094653	-0.179350	-0.157787
H450	H	0.405347	0.320650	0.342213
H451	H	-0.213206	0.533096	0.559756
H452	H	0.286794	1.033096	1.059756
