data_functionalizedCrystal
_audit_creation_method	'MofGen! by Chris Wilmer'
_symmetry_space_group_name_H-M	'P1'
_symmetry_Int_Tables_number	1
_symmetry_cell_setting	triclinic
loop_
_symmetry_equiv_pos_as_xyz
  x,y,z
_cell_length_a	12.759400
_cell_length_b	19.121385
_cell_length_c	12.759393
_cell_angle_alpha	87.590494
_cell_angle_beta	89.970184
_cell_angle_gamma	87.542645
loop_
_atom_site_label
_atom_site_type_symbol
_atom_site_fract_x
_atom_site_fract_y
_atom_site_fract_z
Zn1	Zn	-0.349672	-1.073770	-0.525831
Zn2	Zn	-0.525390	-1.073699	-0.350156
Zn3	Zn	-0.357219	-0.956317	-0.357625
Zn4	Zn	-0.532808	-0.956311	-0.533248
O5	O	-0.441272	-1.015024	-0.441715
O6	O	-0.366718	-1.172043	-0.496297
O7	O	-0.503136	-1.058100	-0.204127
O8	O	-0.209195	-0.971930	-0.379960
O9	O	-0.495817	-1.171990	-0.367230
O10	O	-0.203650	-1.058222	-0.503540
O11	O	-0.379582	-0.971860	-0.209615
O12	O	-0.386775	-0.858034	-0.387152
O13	O	-0.508460	-0.971919	-0.679283
O14	O	-0.515779	-0.858029	-0.516181
O15	O	-0.373911	-1.058216	-0.673834
O16	O	-0.673397	-1.058094	-0.374421
O17	O	-0.678847	-0.971850	-0.508938
C18	C	-0.452902	-0.832548	-0.453282
C19	C	-0.457902	-0.754484	-0.458256
C20	C	-0.489523	-0.312970	-0.489832
C21	C	-0.484832	-0.386320	-0.485139
C22	C	-0.415214	-0.422974	-0.415726
C23	C	-0.350289	-0.386275	-0.350993
C24	C	-0.354985	-0.312927	-0.355681
C25	C	-0.397673	-0.644437	-0.398211
C26	C	-0.392980	-0.717790	-0.393530
C27	C	-0.527525	-0.717830	-0.527675
C28	C	-0.532211	-0.644481	-0.532362
C29	C	-0.467290	-0.607788	-0.467625
C30	C	-0.410415	-0.497949	-0.410930
C31	C	-0.472094	-0.532814	-0.472417
C32	C	-0.714242	-1.014983	-0.441696
C33	C	-0.831016	-1.015029	-0.441719
C34	C	-0.992730	-1.060030	-0.371778
C35	C	-0.883009	-1.059987	-0.371747
C36	C	-0.888750	-0.970105	-0.511717
C37	C	-0.998470	-0.970144	-0.511742
C38	C	-0.167235	-1.015085	-0.441756
C39	C	-0.050457	-1.015110	-0.441773
C40	C	-0.441171	-1.015075	-0.715745
C41	C	-0.441128	-1.015097	-0.832520
C42	C	-0.429593	-0.198212	-0.430091
C43	C	-0.424600	-0.276276	-0.425107
C44	C	-0.505384	-1.060020	-0.994259
C45	C	-0.505434	-1.060003	-0.884536
C46	C	-0.376775	-0.970199	-0.890234
C47	C	-0.376730	-0.970213	-0.999955
C48	C	-0.441295	-1.015014	-0.168748
C49	C	-0.441033	-1.015128	-0.051965
H50	H	-0.336274	-0.747632	-0.337013
N51	N	-1.060733	-0.921687	-0.587239
H52	H	-1.040879	-0.932559	-0.661627
H53	H	-1.138108	-0.928553	-0.576544
N54	N	-0.574831	-1.108430	-0.822296
H55	H	-0.565104	-1.101605	-0.744896
H56	H	-0.650556	-1.097488	-0.842158
H57	H	-0.324421	-0.933632	-0.847874
H58	H	-0.528781	-0.502967	-0.528929
N59	N	-0.820745	-1.108442	-0.296262
H60	H	-0.777116	-1.079905	-0.249331
H61	H	-0.870397	-1.136923	-0.252017
H62	H	-0.324327	-0.933653	-1.046941
H63	H	-0.546208	-0.283132	-0.546362
N64	N	-0.284971	-0.273349	-0.285859
H65	H	-0.298517	-0.221321	-0.299352
H66	H	-0.300430	-0.286144	-0.209985
H67	H	-0.580381	-0.747713	-0.580379
H68	H	-0.557744	-1.096592	-1.036602
N69	N	-0.554853	-0.425888	-0.554966
H70	H	-0.510264	-0.456345	-0.601779
H71	H	-0.601540	-0.456257	-0.510180
N72	N	-0.607318	-0.604948	-0.607210
H73	H	-0.647743	-0.639324	-0.647496
H74	H	-0.657826	-0.574500	-0.566283
N75	N	-0.832669	-0.921612	-0.587177
H76	H	-0.785255	-0.950121	-0.634082
H77	H	-0.885952	-0.893167	-0.631452
N78	N	-0.327654	-0.604866	-0.328392
H79	H	-0.282837	-0.639219	-0.283713
H80	H	-0.281033	-0.574454	-0.373184
H81	H	-0.293608	-0.416124	-0.294471
N82	N	-0.335323	-0.537489	-0.336074
H83	H	-0.261092	-0.524741	-0.353342
H84	H	-0.352449	-0.524678	-0.261823
N85	N	-1.048805	-1.108525	-0.296314
H86	H	-0.995582	-1.136973	-0.251966
H87	H	-1.096224	-1.079969	-0.249481
