data_functionalizedCrystal
_audit_creation_method	'MofGen! by Chris Wilmer'
_symmetry_space_group_name_H-M	'P1'
_symmetry_Int_Tables_number	1
_symmetry_cell_setting	triclinic
loop_
_symmetry_equiv_pos_as_xyz
  x,y,z
_cell_length_a	6.394989
_cell_length_b	10.723024
_cell_length_c	9.798715
_cell_angle_alpha	90.003391
_cell_angle_beta	90.000171
_cell_angle_gamma	85.482790
loop_
_atom_site_label
_atom_site_type_symbol
_atom_site_fract_x
_atom_site_fract_y
_atom_site_fract_z
O1	O	-0.293022	-1.660297	-0.113473
O2	O	-0.321070	-1.297442	-0.113476
O3	O	-0.003055	-1.484020	-0.113475
O4	O	-0.611036	-1.473719	-0.113474
O5	O	-0.003054	-1.484006	0.113507
O6	O	-0.321069	-1.297428	0.113506
O7	O	-0.293021	-1.660283	0.113510
Zn8	Zn	-0.307045	-1.478853	0.149546
Zn9	Zn	-0.307046	-1.478872	-0.149513
O10	O	-0.611035	-1.473705	0.113509
C11	C	-0.319028	-1.250914	0.000014
C12	C	-0.312921	-1.112295	0.000012
C13	C	-0.295062	-1.706811	0.000016
C14	C	-0.301169	-1.845430	0.000009
N15	N	-0.307043	-1.478850	0.353646
C16	C	0.074796	-1.481977	0.000011
C17	C	0.311120	-1.475752	0.000009
N18	N	-0.307031	-1.478885	-0.353612
C19	C	-0.490865	-1.039201	0.000012
C20	C	-0.484558	-0.895931	0.000010
C21	C	-0.172929	-1.557182	0.421423
C22	C	-0.172922	-1.557202	0.578586
H23	H	-0.647879	-1.082689	0.000020
C24	C	-0.690363	-0.811072	0.000011
N25	N	-0.845382	-0.747153	0.000014
C26	C	-0.095356	-0.930281	0.000013
N27	N	0.059663	-0.994200	0.000019
C28	C	-0.017778	-1.647744	0.342634
N29	N	0.099096	-1.715951	0.283293
C30	C	-0.017798	-1.647805	0.657325
N31	N	0.099049	-1.716048	0.716634
H32	H	-0.421866	-1.411823	0.588111
H33	H	-0.155907	-1.068806	-0.000023
H34	H	-0.421850	-1.411796	0.411970
