data_functionalizedCrystal
_audit_creation_method	'MofGen! by Chris Wilmer'
_symmetry_space_group_name_H-M	'P1'
_symmetry_Int_Tables_number	1
_symmetry_cell_setting	triclinic
loop_
_symmetry_equiv_pos_as_xyz
  x,y,z
_cell_length_a	16.974800
_cell_length_b	16.992695
_cell_length_c	18.366186
_cell_angle_alpha	89.993794
_cell_angle_beta	93.647767
_cell_angle_gamma	87.021674
loop_
_atom_site_label
_atom_site_type_symbol
_atom_site_fract_x
_atom_site_fract_y
_atom_site_fract_z
O1	O	1.055459	0.099873	0.001667
O2	O	1.555459	0.599873	0.501667
O3	O	0.826059	0.112614	-0.011857
O4	O	1.326059	0.612614	0.488143
O5	O	0.939839	-0.007898	-0.005143
O6	O	1.439839	0.492102	0.494857
O7	O	0.941679	0.220385	-0.005047
O8	O	1.441679	0.720385	0.494953
O9	O	0.939818	-0.007904	0.115955
O10	O	1.439818	0.492096	0.615955
O11	O	0.826038	0.112608	0.109241
O12	O	1.326038	0.612608	0.609241
O13	O	1.055438	0.099867	0.122765
O14	O	1.555438	0.599867	0.622765
Zn15	Zn	0.940735	0.106237	0.135230
Zn16	Zn	1.440735	0.606237	0.635230
Zn17	Zn	0.940762	0.106245	-0.024322
Zn18	Zn	1.440762	0.606245	0.475678
O19	O	0.941658	0.220379	0.116052
O20	O	1.441658	0.720379	0.616052
C21	C	0.796559	0.112128	0.046953
C22	C	1.296559	0.612128	0.546953
C23	C	0.708691	0.110681	0.041773
C24	C	1.208691	0.610681	0.541773
C25	C	0.667404	0.109996	0.105352
C26	C	1.167404	0.609996	0.605352
C27	C	0.584844	0.108624	0.100487
C28	C	1.084844	0.608624	0.600487
C29	C	0.543572	0.107942	0.032042
C30	C	1.043572	0.607942	0.532042
C31	C	0.584865	0.108625	-0.031541
C32	C	1.084865	0.608625	0.468459
C33	C	0.667424	0.109992	-0.026675
C34	C	1.167424	0.609992	0.473325
C35	C	0.296658	0.103850	0.010411
C36	C	0.796658	0.603850	0.510411
C37	C	0.214093	0.102485	0.005550
C38	C	0.714093	0.602485	0.505550
C39	C	0.214077	0.102483	0.137578
C40	C	0.714077	0.602483	0.637578
C41	C	0.296638	0.103854	0.142438
C42	C	0.796638	0.603854	0.642438
C43	C	0.337924	0.104533	0.078855
C44	C	0.837924	0.604533	0.578855
N45	N	0.459182	0.106542	0.027068
N46	N	0.959182	0.606542	0.527068
N47	N	0.422313	0.105927	0.083830
N48	N	0.922313	0.605927	0.583830
C49	C	0.937463	-0.037111	0.055266
C50	C	1.437463	0.462889	0.555266
C51	C	0.930403	-0.124147	0.054850
C52	C	1.430403	0.375853	0.554850
C53	C	0.998518	-0.174465	0.058866
C54	C	1.498518	0.325535	0.558866
C55	C	0.991880	-0.256244	0.058468
C56	C	1.491880	0.243756	0.558468
C57	C	0.917127	-0.287704	0.054058
C58	C	1.417127	0.212296	0.554058
C59	C	0.849007	-0.237379	0.050039
C60	C	1.349007	0.262621	0.550039
C61	C	0.855645	-0.155602	0.050432
C62	C	1.355645	0.344398	0.550432
C63	C	0.889612	-0.531270	0.052426
C64	C	1.389612	-0.031270	0.552426
C65	C	0.882979	-0.613054	0.052036
C66	C	1.382979	-0.113054	0.552036
C67	C	1.025853	-0.631913	0.060463
C68	C	1.525853	-0.131913	0.560463
C69	C	1.032485	-0.550133	0.060860
C70	C	1.532485	-0.050133	0.560860
C71	C	0.964365	-0.499816	0.056837
C72	C	1.464365	0.000184	0.556837
N73	N	0.910340	-0.371295	0.053653
N74	N	1.410340	0.128705	0.553653
N75	N	0.971153	-0.416226	0.057237
N76	N	1.471153	0.083774	0.557237
C77	C	1.084937	0.100353	0.063953
C78	C	1.584937	0.600353	0.563953
C79	C	1.172805	0.101800	0.069128
C80	C	1.672805	0.601800	0.569128
C81	C	0.944034	0.249592	0.055641
C82	C	1.444034	0.749592	0.555641
C83	C	0.951094	0.336628	0.056052
C84	C	1.451094	0.836628	0.556052
N85	N	0.940721	0.106231	0.244120
N86	N	1.440721	0.606231	0.744120
N87	N	0.940781	0.106244	-0.133212
N88	N	1.440781	0.606244	0.366788
C89	C	0.991123	0.052894	0.285195
C90	C	1.491123	0.552894	0.785195
C91	C	0.991128	0.052891	0.361423
C92	C	1.491128	0.552891	0.861423
C93	C	0.940739	0.106237	0.396574
C94	C	1.440739	0.606237	0.896574
C95	C	0.890328	0.159578	0.355490
C96	C	1.390328	0.659578	0.855490
C97	C	0.890319	0.159575	0.279263
C98	C	1.390319	0.659575	0.779263
C99	C	0.934893	0.177655	0.516986
C100	C	1.434893	0.677655	1.016986
C101	C	0.934907	0.177659	0.593212
C102	C	1.434907	0.677659	1.093212
C103	C	0.940762	0.106247	0.631683
C104	C	1.440762	0.606247	1.131683
C105	C	0.946620	0.034828	0.593920
C106	C	1.446620	0.534828	1.093920
C107	C	0.946611	0.034824	0.517693
C108	C	1.446611	0.534824	1.017693
C109	C	0.940743	0.106247	0.479229
C110	C	1.440743	0.606247	0.979229
C111	C	0.991172	0.052903	0.755413
C112	C	1.491172	0.552903	1.255413
C113	C	0.991171	0.052898	0.831642
C114	C	1.491171	0.552898	1.331642
C115	C	0.890376	0.159592	0.825708
C116	C	1.390376	0.659592	1.325708
C117	C	0.890372	0.159590	0.749480
C118	C	1.390372	0.659590	1.249480
C119	C	0.940775	0.106246	0.714337
C120	C	1.440775	0.606246	1.214337
H121	H	0.180453	0.101929	0.189344
H122	H	0.680453	0.601929	0.689344
H123	H	0.330263	0.104400	-0.041363
H124	H	0.830263	0.604400	0.458637
C125	C	0.953058	-0.043732	0.636232
C126	C	1.453058	0.456268	1.136232
N127	N	0.957909	-0.102902	0.668105
N128	N	1.457909	0.397098	1.168105
H129	H	0.834143	-0.490311	0.049151
H130	H	1.334143	0.009689	0.549151
C131	C	0.834897	0.218256	0.394158
C132	C	1.334897	0.718256	0.894158
N133	N	0.793142	0.262451	0.423282
N134	N	1.293142	0.762451	0.923282
H135	H	1.059391	-0.148857	0.062461
H136	H	1.559391	0.351143	0.562461
C137	C	0.712840	0.110747	-0.096617
C138	C	1.212840	0.610747	0.403383
N139	N	0.747046	0.111314	-0.149300
N140	N	1.247046	0.611314	0.350700
H141	H	1.093357	-0.524525	0.064451
H142	H	1.593357	-0.024525	0.564451
H143	H	1.081312	-0.672889	0.063737
H144	H	1.581312	-0.172889	0.563737
C145	C	0.168695	0.101735	-0.069748
C146	C	0.668695	0.601735	0.430252
N147	N	0.134502	0.101171	-0.126459
N148	N	0.634502	0.601171	0.373541
C149	C	0.953043	-0.043735	0.476156
C150	C	1.453043	0.456265	0.976156
N151	N	0.957883	-0.102908	0.444870
N152	N	1.457883	0.397092	0.944870
C153	C	1.046607	-0.005783	0.716753
C154	C	1.546607	0.494217	1.216753
N155	N	1.088360	-0.049987	0.687636
N156	N	1.588360	0.450013	1.187636
C157	C	1.046584	-0.005778	0.406614
C158	C	1.546584	0.494222	0.906614
N159	N	1.088357	-0.049964	0.440650
N160	N	1.588357	0.450036	0.940650
H161	H	0.701001	0.110558	0.161087
H162	H	1.201001	0.610558	0.661087
H163	H	0.822102	-0.638665	0.048456
H164	H	1.322102	-0.138665	0.548456
C165	C	0.928452	0.256219	0.474676
C166	C	1.428452	0.756219	0.974676
N167	N	0.923600	0.315392	0.442808
N168	N	1.423600	0.815392	0.942808
H169	H	0.788140	-0.263000	0.046444
H170	H	1.288140	0.237000	0.546444
H171	H	1.047347	-0.297210	0.061740
H172	H	1.547347	0.202790	0.561740
H173	H	0.800178	-0.114633	0.047162
H174	H	1.300178	0.385367	0.547162
C175	C	0.539463	0.107873	-0.106831
C176	C	1.039463	0.607873	0.393169
N177	N	0.505267	0.107309	-0.163541
N178	N	1.005267	0.607309	0.336459
C179	C	1.046559	-0.005793	0.246542
C180	C	1.546559	0.494207	0.746542
N181	N	1.088311	-0.050000	0.217427
N182	N	1.588311	0.450000	0.717427
H183	H	0.551232	0.108053	0.152259
H184	H	1.051232	0.608053	0.652259
H185	H	1.032211	0.009461	0.865086
H186	H	1.532211	0.509461	1.365086
H187	H	0.849345	0.203025	0.854327
H188	H	1.349345	0.703025	1.354327
H189	H	0.330236	0.104405	0.198173
H190	H	0.830236	0.604405	0.698173
C191	C	0.834987	0.218321	0.704300
C192	C	1.334987	0.718321	1.204300
N193	N	0.793287	0.262579	0.670272
N194	N	1.293287	0.762579	1.170272
C195	C	0.928457	0.256222	0.634744
C196	C	1.428457	0.756222	1.134744
N197	N	0.923593	0.315397	0.666023
N198	N	1.423593	0.815397	1.166023
C199	C	0.834908	0.218286	0.234082
C200	C	1.334908	0.718286	0.734082
N201	N	0.793185	0.262521	0.200051
N202	N	1.293185	0.762521	0.700051
