data_functionalizedCrystal
_audit_creation_method	'MofGen! by Chris Wilmer'
_symmetry_space_group_name_H-M	'P1'
_symmetry_Int_Tables_number	1
_symmetry_cell_setting	triclinic
loop_
_symmetry_equiv_pos_as_xyz
  x,y,z
_cell_length_a	19.121063
_cell_length_b	12.827893
_cell_length_c	12.827885
_cell_angle_alpha	90.021189
_cell_angle_beta	92.403967
_cell_angle_gamma	87.532800
loop_
_atom_site_label
_atom_site_type_symbol
_atom_site_fract_x
_atom_site_fract_y
_atom_site_fract_z
Zn1	Zn	-0.279612	-1.579833	-0.608594
Zn2	Zn	0.053721	-1.246500	-0.275260
Zn3	Zn	0.387055	-0.913167	0.058073
Zn4	Zn	-0.397079	-1.572234	-0.441286
Zn5	Zn	-0.063745	-1.238901	-0.107953
Zn6	Zn	0.269588	-0.905568	0.225380
Zn7	Zn	-0.279643	-1.405073	-0.433864
Zn8	Zn	0.053691	-1.071739	-0.100530
Zn9	Zn	0.387024	-0.738406	0.232803
Zn10	Zn	-0.397023	-1.397570	-0.615977
Zn11	Zn	-0.063689	-1.064237	-0.282644
Zn12	Zn	0.269644	-0.730904	0.050690
O13	O	-0.338339	-1.488678	-0.524930
O14	O	-0.005006	-1.155344	-0.191597
O15	O	0.328328	-0.822011	0.141736
O16	O	-0.295205	-1.725061	-0.586417
O17	O	0.038129	-1.391727	-0.253083
O18	O	0.371462	-1.058394	0.080250
O19	O	-0.381537	-1.550020	-0.294068
O20	O	-0.048203	-1.216686	0.039265
O21	O	0.285130	-0.883353	0.372599
O22	O	-0.181354	-1.434575	-0.450845
O23	O	0.151979	-1.101242	-0.117512
O24	O	0.485312	-0.767908	0.215821
O25	O	-0.381507	-1.719478	-0.463497
O26	O	-0.048174	-1.386144	-0.130163
O27	O	0.285160	-1.052811	0.203170
O28	O	-0.181332	-1.562971	-0.579219
O29	O	0.152001	-1.229638	-0.245886
O30	O	0.485335	-0.896304	0.087448
O31	O	-0.295257	-1.427207	-0.288614
O32	O	0.038076	-1.093873	0.044719
O33	O	0.371410	-0.760540	0.378052
O34	O	-0.295203	-1.257842	-0.458005
O35	O	0.038131	-0.924509	-0.124671
O36	O	0.371464	-0.591176	0.208662
O37	O	-0.381412	-1.421789	-0.761232
O38	O	-0.048078	-1.088455	-0.427898
O39	O	0.285255	-0.755122	-0.094565
O40	O	-0.381441	-1.252330	-0.591803
O41	O	-0.048108	-0.918997	-0.258469
O42	O	0.285225	-0.585664	0.074864
O43	O	-0.295151	-1.555696	-0.755807
O44	O	0.038183	-1.222363	-0.422474
O45	O	0.371516	-0.889030	-0.089140
O46	O	-0.495355	-1.542745	-0.470656
O47	O	-0.162022	-1.209412	-0.137323
O48	O	0.171311	-0.876078	0.196011
O49	O	-0.495314	-1.414420	-0.599000
O50	O	-0.161981	-1.081087	-0.265667
O51	O	0.171353	-0.747753	0.067666
C52	C	-0.338320	-1.217169	-0.524900
C53	C	-0.004986	-0.883836	-0.191567
C54	C	0.328347	-0.550502	0.141767
C55	C	-0.338329	-1.101015	-0.524913
C56	C	-0.004995	-0.767682	-0.191580
C57	C	0.328338	-0.434349	0.141754
C58	C	-0.295698	-1.051988	-0.585840
C59	C	0.037635	-0.718655	-0.252506
C60	C	0.370969	-0.385322	0.080827
C61	C	-0.295706	-0.931937	-0.585854
C62	C	0.037627	-0.598604	-0.252521
C63	C	0.370961	-0.265271	0.080812
C64	C	-0.520819	-1.476972	-0.536458
C65	C	-0.187485	-1.143639	-0.203124
C66	C	0.145848	-0.810305	0.130209
C67	C	-0.598884	-1.472060	-0.541424
C68	C	-0.265551	-1.138727	-0.208091
C69	C	0.067782	-0.805393	0.125243
C70	C	-0.635558	-1.536616	-0.476991
C71	C	-0.302224	-1.203283	-0.143657
C72	C	0.031109	-0.869949	0.189676
C73	C	-0.708908	-1.532003	-0.481668
C74	C	-0.375575	-1.198669	-0.148334
C75	C	-0.042242	-0.865336	0.184999
C76	C	-0.745585	-1.462827	-0.550774
C77	C	-0.412251	-1.129493	-0.217440
C78	C	-0.078918	-0.796160	0.115893
C79	C	-0.708906	-1.398268	-0.615214
C80	C	-0.375573	-1.064935	-0.281881
C81	C	-0.042239	-0.731601	0.051452
C82	C	-0.635556	-1.402888	-0.610542
C83	C	-0.302223	-1.069554	-0.277208
C84	C	0.031110	-0.736221	0.056125
C85	C	-0.967053	-1.445538	-0.568227
C86	C	-0.633720	-1.112205	-0.234894
C87	C	-0.300386	-0.778872	0.098440
C88	C	-1.040408	-1.440921	-0.572892
C89	C	-0.707074	-1.107588	-0.239559
C90	C	-0.373741	-0.774255	0.093774
C91	C	-1.040405	-1.574658	-0.439347
C92	C	-0.707072	-1.241324	-0.106013
C93	C	-0.373738	-0.907991	0.227320
C94	C	-0.967054	-1.579267	-0.434676
C95	C	-0.633721	-1.245933	-0.101342
C96	C	-0.300387	-0.912600	0.231991
C97	C	-0.930382	-1.514712	-0.499120
C98	C	-0.597049	-1.181379	-0.165787
C99	C	-0.263715	-0.848045	0.167547
C100	C	-0.820561	-1.458107	-0.555554
C101	C	-0.487228	-1.124774	-0.222220
C102	C	-0.153894	-0.791440	0.111113
C103	C	-0.855407	-1.519438	-0.494345
C104	C	-0.522074	-1.186104	-0.161011
C105	C	-0.188740	-0.852771	0.172322
C106	C	-0.155147	-1.500458	-0.513381
C107	C	0.178187	-1.167124	-0.180047
C108	C	0.511520	-0.833791	0.153286
C109	C	-0.077081	-1.505477	-0.508459
C110	C	0.256252	-1.172144	-0.175126
C111	C	0.589586	-0.838811	0.158208
C112	C	-0.338272	-1.488753	-0.797496
C113	C	-0.004938	-1.155420	-0.464163
C114	C	0.328395	-0.822087	-0.130830
C115	C	-0.338243	-1.488785	-0.913648
C116	C	-0.004909	-1.155452	-0.580314
C117	C	0.328424	-0.822119	-0.246981
C118	C	-0.338353	-0.761247	-0.524952
C119	C	-0.005020	-0.427914	-0.191619
C120	C	0.328314	-0.094580	0.141714
C121	C	-0.338344	-0.877401	-0.524939
C122	C	-0.005011	-0.544067	-0.191606
C123	C	0.328322	-0.210734	0.141727
C124	C	-0.295550	-1.555055	-0.962748
C125	C	0.037784	-1.221721	-0.629414
C126	C	0.371117	-0.888388	-0.296081
C127	C	-0.295519	-1.555089	-1.082796
C128	C	0.037814	-1.221756	-0.749463
C129	C	0.371148	-0.888423	-0.416130
C130	C	-0.338355	-1.488666	-0.253421
C131	C	-0.005022	-1.155333	0.079912
C132	C	0.328311	-0.821999	0.413245
C133	C	-0.338186	-1.488849	-0.137258
C134	C	-0.004853	-1.155516	0.196075
C135	C	0.328480	-0.822182	0.529409
H136	H	-0.374830	-1.054112	-0.472760
H137	H	-0.041497	-0.720779	-0.139427
H138	H	0.291836	-0.387446	0.193907
F139	F	-0.248003	-0.876818	-0.654042
F140	F	0.085330	-0.543485	-0.320708
F141	F	0.418664	-0.210152	0.012625
H142	H	-0.259019	-1.611761	-0.915909
H143	H	0.074314	-1.278427	-0.582575
H144	H	0.407648	-0.945094	-0.249242
H145	H	-0.605701	-1.592942	-0.420713
H146	H	-0.272367	-1.259608	-0.087379
H147	H	0.060966	-0.926275	0.245954
F148	F	-0.385986	-1.414654	-0.974864
F149	F	-0.052653	-1.081320	-0.641531
F150	F	0.280680	-0.747987	-0.308197
H151	H	-0.825543	-1.575765	-0.438082
H152	H	-0.492210	-1.242431	-0.104749
H153	H	-0.158876	-0.909098	0.228584
F154	F	-0.747936	-1.600715	-0.413091
F155	F	-0.414603	-1.267382	-0.079758
F156	F	-0.081269	-0.934049	0.253575
F157	F	-0.247981	-1.113289	-0.654004
F158	F	0.085352	-0.779956	-0.320670
F159	F	0.418685	-0.446622	0.012663
H160	H	-0.374848	-0.919566	-0.472781
H161	H	-0.041514	-0.586233	-0.139448
H162	H	0.291819	-0.252900	0.193885
F163	F	-0.928026	-1.652904	-0.361135
F164	F	-0.594693	-1.319571	-0.027802
F165	F	-0.261359	-0.986238	0.305531
F166	F	-1.079440	-1.367281	-0.646437
F167	F	-0.746106	-1.033947	-0.313104
F168	F	-0.412773	-0.700614	0.020230
F169	F	-1.079439	-1.643361	-0.370770
F170	F	-0.746106	-1.310028	-0.037437
F171	F	-0.412773	-0.976694	0.295897
H172	H	-0.937200	-1.392973	-0.620698
H173	H	-0.603867	-1.059640	-0.287365
H174	H	-0.270534	-0.726307	0.045969
H175	H	-0.374742	-1.432114	-1.095030
H176	H	-0.041409	-1.098781	-0.761697
H177	H	0.291925	-0.765447	-0.428363
F178	F	-0.859601	-1.384486	-0.629099
F179	F	-0.526267	-1.051153	-0.295765
F180	F	-0.192934	-0.717820	0.037568
H181	H	-0.738774	-1.341948	-0.671486
H182	H	-0.405440	-1.008615	-0.338153
H183	H	-0.072107	-0.675282	-0.004820
F184	F	-0.247746	-1.629255	-1.137997
F185	F	0.085588	-1.295921	-0.804664
F186	F	0.418921	-0.962588	-0.471330
F187	F	-0.596526	-1.334181	-0.679124
F188	F	-0.263193	-1.000848	-0.345790
F189	F	0.070140	-0.667514	-0.012457
