data_functionalizedCrystal
_audit_creation_method	'MofGen! by Chris Wilmer'
_symmetry_space_group_name_H-M	'P1'
_symmetry_Int_Tables_number	1
_symmetry_cell_setting	triclinic
loop_
_symmetry_equiv_pos_as_xyz
  x,y,z
_cell_length_a	14.908520
_cell_length_b	13.033652
_cell_length_c	13.032268
_cell_angle_alpha	76.703346
_cell_angle_beta	99.985811
_cell_angle_gamma	79.942611
loop_
_atom_site_label
_atom_site_type_symbol
_atom_site_fract_x
_atom_site_fract_y
_atom_site_fract_z
Zn1	Zn	-0.236503	-1.529309	-0.412723
Zn2	Zn	0.263497	-1.029309	0.087277
Zn3	Zn	-0.367653	-1.541709	-0.245170
Zn4	Zn	0.132347	-1.041709	0.254830
Zn5	Zn	-0.236564	-1.374257	-0.257665
Zn6	Zn	0.263436	-0.874257	0.242335
Zn7	Zn	-0.412235	-1.338210	-0.448640
Zn8	Zn	0.087765	-0.838210	0.051360
O9	O	-0.313239	-1.445871	-0.341049
O10	O	0.186761	-0.945871	0.158951
O11	O	-0.235218	-1.681009	-0.370237
O12	O	0.264782	-1.181009	0.129763
O13	O	-0.331632	-1.539772	-0.096782
O14	O	0.168368	-1.039772	0.403218
O15	O	-0.108150	-1.404722	-0.268431
O16	O	0.391850	-0.904722	0.231569
O17	O	-0.331573	-1.690119	-0.247136
O18	O	0.168427	-1.190119	0.252864
O19	O	-0.108106	-1.518638	-0.382352
O20	O	0.391894	-1.018638	0.117648
O21	O	-0.235321	-1.416746	-0.105962
O22	O	0.264679	-0.916746	0.394038
O23	O	-0.278550	-1.219421	-0.303258
O24	O	0.221450	-0.719421	0.196742
O25	O	-0.407556	-1.343284	-0.593921
O26	O	0.092444	-0.843284	-0.093921
O27	O	-0.407615	-1.192937	-0.443567
O28	O	0.092385	-0.692937	0.056433
O29	O	-0.278447	-1.483684	-0.567533
O30	O	0.221553	-0.983684	-0.067533
O31	O	-0.501972	-1.504818	-0.281963
O32	O	-0.001972	-1.004818	0.218037
O33	O	-0.534726	-1.355307	-0.431451
O34	O	-0.034726	-0.855307	0.068549
C35	C	-0.347927	-1.167271	-0.378666
C36	C	0.152073	-0.667271	0.121334
C37	C	-0.362793	-1.048079	-0.394786
C38	C	0.137207	-0.548079	0.105214
C39	C	-0.305491	-1.008009	-0.332649
C40	C	0.194509	-0.508009	0.167351
C41	C	-0.320854	-0.884818	-0.349308
C42	C	0.179146	-0.384818	0.150692
C43	C	-0.551643	-1.427522	-0.359268
C44	C	-0.051643	-0.927522	0.140732
C45	C	-0.653625	-1.419766	-0.367085
C46	C	-0.153625	-0.919766	0.132915
C47	C	-0.811089	-1.561001	-0.226203
C48	C	-0.311089	-1.061001	0.273797
C49	C	-0.906910	-1.553718	-0.233543
C50	C	-0.406910	-1.053718	0.266457
C51	C	-0.941089	-1.397920	-0.389110
C52	C	-0.441089	-0.897920	0.110890
C53	C	-0.845268	-1.405204	-0.381770
C54	C	-0.345268	-0.905204	0.118230
C55	C	-0.780271	-1.486746	-0.300312
C56	C	-0.280271	-0.986746	0.199688
C57	C	-0.684449	-1.494025	-0.292968
C58	C	-0.184449	-0.994025	0.207032
C59	C	-0.718629	-1.338232	-0.448539
C60	C	-0.218629	-0.838232	0.051461
C61	C	-0.814450	-1.330948	-0.455880
C62	C	-0.314450	-0.830948	0.044120
C63	C	-0.073903	-1.464318	-0.322779
C64	C	0.426097	-0.964318	0.177221
C65	C	0.028087	-1.472179	-0.314993
C66	C	0.528087	-0.972179	0.185007
C67	C	-0.347967	-1.408080	-0.620720
C68	C	0.152033	-0.908080	-0.120720
C69	C	-0.362767	-1.391975	-0.739899
C70	C	0.137233	-0.891975	-0.239899
C71	C	-0.278407	-0.725561	-0.303278
C72	C	0.221593	-0.225561	0.196722
C73	C	-0.263544	-0.844752	-0.287163
C74	C	0.236456	-0.344752	0.212837
C75	C	-0.305484	-1.454262	-0.779977
C76	C	0.194516	-0.954262	-0.279977
C77	C	-0.320778	-1.437619	-0.903154
C78	C	0.179222	-0.937619	-0.403154
C79	C	-0.278571	-1.483583	-0.062453
C80	C	0.221429	-0.983583	0.437547
C81	C	-0.263488	-1.499915	0.056773
C82	C	0.236512	-0.999915	0.556773
H83	H	-0.381291	-0.827926	-0.414841
H84	H	0.118709	-0.327926	0.085159
Cl85	Cl	-0.170292	-1.601293	-0.855422
Cl86	Cl	0.329708	-1.101293	-0.355422
Cl87	Cl	-0.945650	-1.647073	-0.140374
Cl88	Cl	-0.445650	-1.147073	0.359626
Cl89	Cl	-0.456101	-0.960246	-0.495959
Cl90	Cl	0.043899	-0.460246	0.004041
Cl91	Cl	-0.602740	-1.596530	-0.190562
Cl92	Cl	-0.102740	-1.096530	0.309438
Cl93	Cl	-0.212263	-1.555596	-0.692169
Cl94	Cl	0.287737	-1.055596	-0.192169
Cl95	Cl	-0.413980	-1.336250	-0.990961
Cl96	Cl	0.086020	-0.836250	-0.490961
H97	H	-0.994025	-1.331538	-0.455435
H98	H	-0.494025	-0.831538	0.044565
Cl99	Cl	-0.896168	-1.228447	-0.558280
Cl100	Cl	-0.396168	-0.728447	-0.058280
Cl101	Cl	-0.212189	-1.095843	-0.231467
Cl102	Cl	0.287811	-0.595843	0.268533
Cl103	Cl	-0.170240	-0.932580	-0.185972
Cl104	Cl	0.329760	-0.432580	0.314028
Cl105	Cl	-0.679882	-1.244865	-0.541699
Cl106	Cl	-0.179882	-0.744865	-0.041699
H107	H	-0.423126	-1.326321	-0.796779
H108	H	0.076874	-0.826321	-0.296779
H109	H	-0.758167	-1.627390	-0.159870
H110	H	-0.258167	-1.127390	0.340130
