data_functionalizedCrystal
_audit_creation_method	'MofGen! by Chris Wilmer'
_symmetry_space_group_name_H-M	'P1'
_symmetry_Int_Tables_number	1
_symmetry_cell_setting	triclinic
loop_
_symmetry_equiv_pos_as_xyz
  x,y,z
_cell_length_a	19.188925
_cell_length_b	17.666332
_cell_length_c	10.540539
_cell_angle_alpha	90.004288
_cell_angle_beta	83.834020
_cell_angle_gamma	90.010303
loop_
_atom_site_label
_atom_site_type_symbol
_atom_site_fract_x
_atom_site_fract_y
_atom_site_fract_z
O1	O	0.927208	0.062961	0.158439
O2	O	0.724039	0.062959	0.179779
O3	O	0.830259	0.062959	-0.015700
O4	O	0.820988	0.062961	0.353917
O5	O	0.830240	-0.062938	-0.015710
O6	O	0.724020	-0.062938	0.179768
O7	O	0.927189	-0.062936	0.158428
Cu8	Cu	0.825603	-0.074432	0.169097
Cu9	Cu	0.825625	0.074455	0.169110
O10	O	0.820969	-0.062936	0.353907
C11	C	0.698013	0.000010	0.179084
C12	C	0.620495	0.000009	0.177013
C13	C	0.059397	0.000011	0.277845
C14	C	0.132233	0.000016	0.279802
C15	C	0.176403	0.000014	0.165102
C16	C	0.147731	0.000027	0.048435
C17	C	0.074896	0.000031	0.046482
N18	N	0.296520	-0.042843	0.082060
N19	N	0.365710	-0.042848	0.083923
C20	C	0.395851	0.000005	0.170981
N21	N	0.354188	0.042853	0.256124
N22	N	0.284992	0.042854	0.254264
C23	C	0.255381	0.000010	0.167207
C24	C	0.503492	0.000001	0.289762
C25	C	0.576330	0.000010	0.291714
C26	C	0.591827	0.000014	0.060344
C27	C	0.518990	0.000013	0.058395
C28	C	0.474827	0.000003	0.173108
N29	N	0.825592	-0.179152	0.169088
C30	C	0.872642	-0.218761	0.082572
C31	C	0.872646	-0.298009	0.082566
C32	C	0.825607	-0.337644	0.169098
C33	C	0.778548	-0.298025	0.255620
C34	C	0.778541	-0.218779	0.255615
N35	N	0.817280	-0.462062	0.281463
N36	N	0.817291	-0.537342	0.281463
C37	C	0.825625	-0.576408	0.169115
N38	N	0.833962	-0.537349	0.056763
N39	N	0.833954	-0.462061	0.056764
C40	C	0.825610	-0.423573	0.169112
C41	C	0.872682	-0.701947	0.082586
C42	C	0.872681	-0.781196	0.082578
C43	C	0.778587	-0.781210	0.255643
C44	C	0.778585	-0.701963	0.255640
C45	C	0.825636	-0.662336	0.169112
C46	C	0.953214	0.000015	0.159123
C47	C	1.030733	0.000021	0.161194
C48	C	0.829554	0.000012	-0.062993
C49	C	0.827474	0.000016	-0.203895
N50	N	0.825641	0.179175	0.169109
C51	C	0.747773	0.000298	-0.385563
C52	C	0.749881	0.000014	-0.238991
C53	C	0.864804	-0.071877	-0.266383
C54	C	0.862156	-0.071937	-0.412869
C55	C	0.863756	0.071231	-0.413410
C56	C	0.864471	0.072181	-0.266444
C57	C	0.821674	0.000013	0.401200
C58	C	0.823754	0.000014	0.542102
H59	H	0.627789	0.000018	-0.033047
F60	F	0.829049	0.141708	-0.211657
F61	F	0.922757	-0.823353	-0.009515
F62	F	0.922726	-0.340171	-0.009521
F63	F	0.728520	-0.823389	0.347728
F64	F	0.830890	-0.141808	-0.209964
F65	F	0.488483	0.000024	-0.065762
F66	F	0.728511	-0.659804	0.347727
F67	F	0.922715	-0.176589	-0.009521
F68	F	0.939284	-0.075372	-0.238811
H69	H	0.740226	-0.186528	0.326068
F70	F	0.194741	0.000028	-0.073637
H71	H	0.717238	-0.050970	-0.415101
H72	H	0.720507	0.051550	-0.195735
F73	F	0.728484	-0.340207	0.347709
F74	F	0.707717	0.067685	-0.422052
H75	H	0.051559	0.000038	-0.048512
F76	F	0.606835	0.000007	0.415877
F77	F	0.830937	0.142454	-0.453908
F78	F	0.826072	-0.142180	-0.448941
F79	F	0.711195	-0.067458	-0.183559
H80	H	0.910992	-0.669681	0.012126
F81	F	0.935093	-0.076207	-0.477181
F82	F	0.937010	0.071866	-0.476755
F83	F	0.456488	-0.000007	0.411847
H84	H	0.023443	0.000007	0.371254
F85	F	0.162747	0.000005	0.403963
H86	H	0.921042	0.076523	-0.243471
