data_functionalizedCrystal
_audit_creation_method	'MofGen! by Chris Wilmer'
_symmetry_space_group_name_H-M	'P1'
_symmetry_Int_Tables_number	1
_symmetry_cell_setting	triclinic
loop_
_symmetry_equiv_pos_as_xyz
  x,y,z
_cell_length_a	8.497367
_cell_length_b	8.497366
_cell_length_c	13.897449
_cell_angle_alpha	89.966723
_cell_angle_beta	90.032196
_cell_angle_gamma	90.003193
loop_
_atom_site_label
_atom_site_type_symbol
_atom_site_fract_x
_atom_site_fract_y
_atom_site_fract_z
Zn1	Zn	0.627625	-0.892502	1.475165
Zn2	Zn	0.891564	-0.628921	1.475168
Zn3	Zn	0.627797	-0.628726	1.313819
Zn4	Zn	0.891363	-0.892649	1.313980
O5	O	0.759587	-0.760699	1.394533
O6	O	0.662649	-0.857557	1.610147
O7	O	0.856730	-0.408132	1.453698
O8	O	0.407012	-0.663573	1.335153
O9	O	0.856564	-0.663905	1.610149
O10	O	0.406886	-0.857368	1.453693
O11	O	0.662942	-0.407989	1.335156
O12	O	0.662748	-0.663716	1.178859
O13	O	0.856222	-1.113392	1.335428
O14	O	0.856389	-0.857619	1.178977
O15	O	0.662455	-1.113284	1.453850
O16	O	1.112300	-0.664048	1.453854
O17	O	1.112153	-0.857808	1.335430
C18	C	0.759566	-0.760663	1.143919
C19	C	0.759595	-0.760685	1.036705
C20	C	1.348107	-0.760553	1.394466
C21	C	1.169463	-0.760842	1.394587
C22	C	0.759444	-0.172180	1.394589
C23	C	0.759774	-0.350823	1.394461
C24	C	0.759601	-0.760727	0.840410
C25	C	0.759593	-0.760699	0.949642
C26	C	0.759610	-0.760736	1.646126
C27	C	0.759619	-0.760752	1.753340
