data_functionalizedCrystal
_audit_creation_method	'MofGen! by Chris Wilmer'
_symmetry_space_group_name_H-M	'P1'
_symmetry_Int_Tables_number	1
_symmetry_cell_setting	triclinic
loop_
_symmetry_equiv_pos_as_xyz
  x,y,z
_cell_length_a	18.101398
_cell_length_b	18.101397
_cell_length_c	16.120297
_cell_angle_alpha	87.130973
_cell_angle_beta	87.127415
_cell_angle_gamma	90.018196
loop_
_atom_site_label
_atom_site_type_symbol
_atom_site_fract_x
_atom_site_fract_y
_atom_site_fract_z
Zn1	Zn	1.110945	-0.316129	0.471491
Zn2	Zn	1.360945	-0.066129	0.721491
Zn3	Zn	1.610945	0.183871	0.971491
Zn4	Zn	1.860945	0.433871	1.221491
Zn5	Zn	1.117142	-0.433693	0.332074
Zn6	Zn	1.367142	-0.183693	0.582074
Zn7	Zn	1.617142	0.066307	0.832074
Zn8	Zn	1.867142	0.316307	1.082074
Zn9	Zn	0.993381	-0.309865	0.332082
Zn10	Zn	1.243381	-0.059865	0.582082
Zn11	Zn	1.493381	0.190135	0.832082
Zn12	Zn	1.743381	0.440135	1.082082
Zn13	Zn	0.987081	-0.439926	0.471424
Zn14	Zn	1.237081	-0.189926	0.721424
Zn15	Zn	1.487081	0.060074	0.971424
Zn16	Zn	1.737081	0.310074	1.221424
O17	O	1.052137	-0.374903	0.401768
O18	O	1.302137	-0.124903	0.651768
O19	O	1.552137	0.125097	0.901768
O20	O	1.802137	0.375097	1.151768
O21	O	1.215399	-0.331738	0.453022
O22	O	1.465399	-0.081738	0.703022
O23	O	1.715399	0.168262	0.953022
O24	O	1.965399	0.418262	1.203022
O25	O	1.105955	-0.412037	0.215413
O26	O	1.355955	-0.162037	0.465413
O27	O	1.605955	0.087963	0.715413
O28	O	1.855955	0.337963	0.965413
O29	O	1.009020	-0.207065	0.350607
O30	O	1.259020	0.042935	0.600607
O31	O	1.509020	0.292935	0.850607
O32	O	1.759020	0.542935	1.100607
O33	O	1.219951	-0.418111	0.350593
O34	O	1.469951	-0.168111	0.600593
O35	O	1.719951	0.081889	0.850593
O36	O	1.969951	0.331889	1.100593
O37	O	1.095393	-0.211667	0.453030
O38	O	1.345393	0.038333	0.703030
O39	O	1.595393	0.288333	0.953030
O40	O	1.845393	0.538333	1.203030
O41	O	1.015029	-0.321061	0.215419
O42	O	1.265029	-0.071061	0.465419
O43	O	1.515029	0.178939	0.715419
O44	O	1.765029	0.428939	0.965419
O45	O	0.888914	-0.327105	0.350542
O46	O	1.138914	-0.077105	0.600542
O47	O	1.388914	0.172895	0.850542
O48	O	1.638914	0.422895	1.100542
O49	O	0.998281	-0.428734	0.588095
O50	O	1.248281	-0.178734	0.838095
O51	O	1.498281	0.071266	1.088095
O52	O	1.748281	0.321266	1.338095
O53	O	0.884285	-0.422660	0.452916
O54	O	1.134285	-0.172660	0.702916
O55	O	1.384285	0.077340	0.952916
O56	O	1.634285	0.327340	1.202916
O57	O	1.089284	-0.337781	0.588144
O58	O	1.339284	-0.087781	0.838144
O59	O	1.589284	0.162219	1.088144
O60	O	1.839284	0.412219	1.338144
O61	O	1.099845	-0.538151	0.350527
O62	O	1.349845	-0.288151	0.600527
O63	O	1.599845	-0.038151	0.850527
O64	O	1.849845	0.211849	1.100527
O65	O	1.004290	-0.542730	0.452908
O66	O	1.254290	-0.292730	0.702908
O67	O	1.504290	-0.042730	0.952908
O68	O	1.754290	0.207270	1.202908
C69	C	0.859729	-0.374880	0.401723
C70	C	1.109729	-0.124880	0.651723
C71	C	1.359729	0.125120	0.901723
C72	C	1.609729	0.375120	1.151723
C73	C	0.777415	-0.374888	0.401723
C74	C	1.027415	-0.124888	0.651723
C75	C	1.277415	0.125112	0.901723
C76	C	1.527415	0.375112	1.151723
C77	C	0.626704	-0.374905	0.401761
C78	C	0.876704	-0.124905	0.651761
C79	C	1.126704	0.125095	0.901761
C80	C	1.376704	0.375095	1.151761
C81	C	0.598234	-0.314707	0.337457
C82	C	0.848234	-0.064707	0.587457
C83	C	1.098234	0.185293	0.837457
C84	C	1.348234	0.435293	1.087457
C85	C	0.512606	-0.314501	0.337668
C86	C	0.762606	-0.064501	0.587668
C87	C	1.012606	0.185499	0.837668
C88	C	1.262606	0.435499	1.087668
C89	C	0.478320	-0.374921	0.401796
C90	C	0.728320	-0.124921	0.651796
C91	C	0.978320	0.125079	0.901796
C92	C	1.228320	0.375079	1.151796
C93	C	0.505496	-0.358053	0.489756
C94	C	0.755496	-0.108053	0.739756
C95	C	1.005496	0.141947	0.989756
C96	C	1.255496	0.391947	1.239756
C97	C	0.591158	-0.357611	0.489363
C98	C	0.841158	-0.107611	0.739363
C99	C	1.091158	0.142389	0.989363
C100	C	1.341158	0.392389	1.239363
C101	C	0.596146	-0.452154	0.378880
C102	C	0.846146	-0.202154	0.628880
C103	C	1.096146	0.047846	0.878880
C104	C	1.346146	0.297846	1.128880
C105	C	0.510580	-0.451655	0.376963
C106	C	0.760580	-0.201655	0.626963
C107	C	1.010580	0.048345	0.876963
C108	C	1.260580	0.298345	1.126963
C109	C	0.394460	-0.374932	0.401821
C110	C	0.644460	-0.124932	0.651821
C111	C	0.894460	0.125068	0.901821
C112	C	1.144460	0.375068	1.151821
C113	C	0.710565	-0.374893	0.401741
C114	C	0.960565	-0.124893	0.651741
C115	C	1.210565	0.125107	0.901741
C116	C	1.460565	0.375107	1.151741
C117	C	1.052076	-0.567312	0.401728
C118	C	1.302076	-0.317312	0.651728
C119	C	1.552076	-0.067312	0.901728
C120	C	1.802076	0.182688	1.151728
C121	C	1.052116	-0.649627	0.401738
C122	C	1.302116	-0.399627	0.651738
C123	C	1.552116	-0.149627	0.901738
C124	C	1.802116	0.100373	1.151738
C125	C	1.052207	-0.948721	0.401814
C126	C	1.302207	-0.698721	0.651814
C127	C	1.552207	-0.448721	0.901814
C128	C	1.802207	-0.198721	1.151814
C129	C	1.112176	-0.914476	0.337227
C130	C	1.362176	-0.664476	0.587227
C131	C	1.612176	-0.414476	0.837227
C132	C	1.862176	-0.164476	1.087227
C133	C	1.112366	-0.828865	0.337394
C134	C	1.362366	-0.578865	0.587394
C135	C	1.612366	-0.328865	0.837394
C136	C	1.862366	-0.078865	1.087394
C137	C	1.052162	-0.800337	0.401776
C138	C	1.302162	-0.550337	0.651776
C139	C	1.552162	-0.300337	0.901776
C140	C	1.802162	-0.050337	1.151776
C141	C	1.069361	-0.835305	0.489653
C142	C	1.319361	-0.585305	0.739653
C143	C	1.569361	-0.335305	0.989653
C144	C	1.819361	-0.085305	1.239653
C145	C	1.069818	-0.920934	0.489301
C146	C	1.319818	-0.670934	0.739301
C147	C	1.569818	-0.420934	0.989301
C148	C	1.819818	-0.170934	1.239301
C149	C	0.974853	-0.916212	0.379285
C150	C	1.224853	-0.666212	0.629285
C151	C	1.474853	-0.416212	0.879285
C152	C	1.724853	-0.166212	1.129285
C153	C	0.975328	-0.830474	0.377324
C154	C	1.225328	-0.580474	0.627324
C155	C	1.475328	-0.330474	0.877324
C156	C	1.725328	-0.080474	1.127324
C157	C	1.052135	-0.716477	0.401759
C158	C	1.302135	-0.466477	0.651759
C159	C	1.552135	-0.216477	0.901759
C160	C	1.802135	0.033523	1.151759
C161	C	1.052235	-1.032581	0.401836
C162	C	1.302235	-0.782581	0.651836
C163	C	1.552235	-0.532581	0.901836
C164	C	1.802235	-0.282581	1.151836
C165	C	1.245297	-0.374928	0.401814
C166	C	1.495297	-0.124928	0.651814
C167	C	1.745297	0.125072	0.901814
C168	C	1.995297	0.375072	1.151814
C169	C	1.327610	-0.374938	0.401833
C170	C	1.577610	-0.124938	0.651833
C171	C	1.827610	0.125062	0.901833
C172	C	2.077610	0.375062	1.151833
C173	C	1.042389	-0.384651	0.619215
C174	C	1.292389	-0.134651	0.869215
C175	C	1.542389	0.115349	1.119215
C176	C	1.792389	0.365349	1.369215
C177	C	1.038234	-0.388805	0.711878
C178	C	1.288234	-0.138805	0.961878
C179	C	1.538234	0.111195	1.211878
C180	C	1.788234	0.361195	1.461878
C181	C	1.052218	-0.181744	0.401827
C182	C	1.302218	0.068256	0.651827
C183	C	1.552218	0.318256	0.901827
C184	C	1.802218	0.568256	1.151827
C185	C	1.052253	-0.099431	0.401852
C186	C	1.302253	0.150569	0.651852
C187	C	1.552253	0.400569	0.901852
C188	C	1.802253	0.650569	1.151852
C189	C	1.061890	-0.365140	0.185167
C190	C	1.311890	-0.115140	0.435167
C191	C	1.561890	0.134860	0.685167
C192	C	1.811890	0.384860	0.935167
C193	C	1.066188	-0.360777	0.092505
C194	C	1.316188	-0.110777	0.342505
C195	C	1.566188	0.139223	0.592505
C196	C	1.816188	0.389223	0.842505
C197	C	1.030622	-0.396373	0.881534
C198	C	1.280622	-0.146373	1.131534
C199	C	1.530622	0.103627	1.381534
C200	C	1.780622	0.353627	1.631534
C201	C	1.073798	-0.353212	0.922854
C202	C	1.323798	-0.103212	1.172854
C203	C	1.573798	0.146788	1.422854
C204	C	1.823798	0.396788	1.672854
C205	C	1.069563	-0.357422	1.017257
C206	C	1.319563	-0.107422	1.267257
C207	C	1.569563	0.142578	1.517257
C208	C	1.819563	0.392578	1.767257
C209	C	1.034857	-0.392163	0.787123
C210	C	1.284857	-0.142163	1.037123
C211	C	1.534857	0.107837	1.287123
C212	C	1.784857	0.357837	1.537123
H213	H	0.621723	-0.324608	0.272030
H214	H	0.871723	-0.074608	0.522030
H215	H	1.121723	0.175392	0.772030
H216	H	1.371723	0.425392	1.022030
H217	H	0.958442	-0.935034	0.316316
H218	H	1.208442	-0.685034	0.566316
H219	H	1.458442	-0.435034	0.816316
H220	H	1.708442	-0.185034	1.066316
H221	H	0.610281	-0.301271	0.508702
H222	H	0.860281	-0.051271	0.758702
H223	H	1.110281	0.198729	1.008702
H224	H	1.360281	0.448729	1.258702
O225	O	1.126985	-0.300085	0.875805
O226	O	1.376985	-0.050085	1.125805
O227	O	1.626985	0.199915	1.375805
O228	O	1.876985	0.449915	1.625805
H229	H	1.113583	-0.242685	0.892451
H230	H	1.363583	0.007315	1.142451
H231	H	1.613583	0.257315	1.392451
H232	H	1.863583	0.507315	1.642451
H233	H	0.990482	-0.436485	0.917054
H234	H	1.240482	-0.186485	1.167054
H235	H	1.490482	0.063515	1.417054
H236	H	1.740482	0.313515	1.667054
H237	H	0.619095	-0.257707	0.352453
H238	H	0.869095	-0.007707	0.602453
H239	H	1.119095	0.242293	0.852453
H240	H	1.369095	0.492293	1.102453
O241	O	0.475942	-0.284282	0.515827
O242	O	0.725942	-0.034282	0.765827
O243	O	0.975942	0.215718	1.015827
O244	O	1.225942	0.465718	1.265827
H245	H	0.522874	-0.246835	0.525890
H246	H	0.772874	0.003165	0.775890
H247	H	1.022874	0.253165	1.025890
H248	H	1.272874	0.503165	1.275890
O249	O	0.488604	-0.327814	0.251288
O250	O	0.738604	-0.077814	0.501288
O251	O	0.988604	0.172186	0.751288
O252	O	1.238604	0.422186	1.001288
H253	H	0.509800	-0.382177	0.231923
H254	H	0.759800	-0.132177	0.481923
H255	H	1.009800	0.117823	0.731923
H256	H	1.259800	0.367823	0.981923
O257	O	0.484570	-0.238582	0.357792
O258	O	0.734570	0.011418	0.607792
O259	O	0.984570	0.261418	0.857792
O260	O	1.234570	0.511418	1.107792
H261	H	0.532189	-0.201875	0.367420
H262	H	0.782189	0.048125	0.617420
H263	H	1.032189	0.298125	0.867420
H264	H	1.282189	0.548125	1.117420
H265	H	0.609680	-0.399782	0.538934
H266	H	0.859680	-0.149782	0.788934
H267	H	1.109680	0.100218	1.038934
H268	H	1.359680	0.350218	1.288934
O269	O	0.620227	-0.511502	0.440903
O270	O	0.870227	-0.261502	0.690903
O271	O	1.120227	-0.011502	0.940903
O272	O	1.370227	0.238498	1.190903
H273	H	0.653798	-0.486151	0.487800
H274	H	0.903798	-0.236151	0.737800
H275	H	1.153798	0.013849	0.987800
H276	H	1.403798	0.263849	1.237800
H277	H	0.482945	-0.400735	0.538994
H278	H	0.732945	-0.150735	0.788994
H279	H	0.982945	0.099265	1.038994
H280	H	1.232945	0.349265	1.288994
H281	H	1.102064	-0.804967	0.272235
H282	H	1.352064	-0.554967	0.522235
H283	H	1.602064	-0.304967	0.772235
H284	H	1.852064	-0.054967	1.022235
H285	H	0.493142	-0.464452	0.312229
H286	H	0.743142	-0.214452	0.562229
H287	H	0.993142	0.035548	0.812229
H288	H	1.243142	0.285548	1.062229
O289	O	0.628458	-0.473591	0.295332
O290	O	0.878458	-0.223591	0.545332
O291	O	1.128458	0.026409	0.795332
O292	O	1.378458	0.276409	1.045332
H293	H	0.666663	-0.429419	0.269182
H294	H	0.916663	-0.179419	0.519182
H295	H	1.166663	0.070581	0.769182
H296	H	1.416663	0.320581	1.019182
H297	H	0.962288	-0.807300	0.312653
H298	H	1.212288	-0.557300	0.562653
H299	H	1.462288	-0.307300	0.812653
H300	H	1.712288	-0.057300	1.062653
H301	H	0.487247	-0.498566	0.420353
H302	H	0.737247	-0.248566	0.670353
H303	H	0.987247	0.001434	0.920353
H304	H	1.237247	0.251434	1.170353
H305	H	1.102043	-0.932174	0.271872
H306	H	1.352043	-0.682174	0.521872
H307	H	1.602043	-0.432174	0.771872
H308	H	1.852043	-0.182174	1.021872
H309	H	1.169246	-0.936611	0.351962
H310	H	1.419246	-0.686611	0.601962
H311	H	1.669246	-0.436611	0.851962
H312	H	1.919246	-0.186611	1.101962
H313	H	1.169746	-0.808996	0.352301
H314	H	1.419746	-0.558996	0.602301
H315	H	1.669746	-0.308996	0.852301
H316	H	1.919746	-0.058996	1.102301
O317	O	1.144559	-0.948470	0.514567
O318	O	1.394559	-0.698470	0.764567
O319	O	1.644559	-0.448470	1.014567
O320	O	1.894559	-0.198470	1.264567
H321	H	1.180038	-0.900622	0.526918
H322	H	1.430038	-0.650622	0.776918
H323	H	1.680038	-0.400622	1.026918
H324	H	1.930038	-0.150622	1.276918
H325	H	1.026846	-0.817171	0.539070
H326	H	1.276846	-0.567171	0.789070
H327	H	1.526846	-0.317171	1.039070
H328	H	1.776846	-0.067171	1.289070
O329	O	1.014196	-0.951374	0.555217
O330	O	1.264196	-0.701374	0.805217
O331	O	1.514196	-0.451374	1.055217
O332	O	1.764196	-0.201374	1.305217
H333	H	1.029379	-0.933476	0.616996
H334	H	1.279379	-0.683476	0.866996
H335	H	1.529379	-0.433476	1.116996
H336	H	1.779379	-0.183476	1.366996
O337	O	1.143268	-0.808190	0.515494
O338	O	1.393268	-0.558190	0.765494
O339	O	1.643268	-0.308190	1.015494
O340	O	1.893268	-0.058190	1.265494
H341	H	1.142082	-0.747055	0.518263
H342	H	1.392082	-0.497055	0.768263
H343	H	1.642082	-0.247055	1.018263
H344	H	1.892082	0.002945	1.268263
O345	O	0.913375	-0.804748	0.435064
O346	O	1.163375	-0.554748	0.685064
O347	O	1.413375	-0.304748	0.935064
O348	O	1.663375	-0.054748	1.185064
H349	H	0.936483	-0.769931	0.482307
H350	H	1.186483	-0.519931	0.732307
H351	H	1.436483	-0.269931	0.982307
H352	H	1.686483	-0.019931	1.232307
O353	O	0.915698	-0.946003	0.441470
O354	O	1.165698	-0.696003	0.691470
O355	O	1.415698	-0.446003	0.941470
O356	O	1.665698	-0.196003	1.191470
H357	H	0.941222	-0.983763	0.488213
H358	H	1.191222	-0.733763	0.738213
H359	H	1.441222	-0.483763	0.988213
H360	H	1.691222	-0.233763	1.238213
