data_functionalizedCrystal
_audit_creation_method	'MofGen! by Chris Wilmer'
_symmetry_space_group_name_H-M	'P1'
_symmetry_Int_Tables_number	1
_symmetry_cell_setting	triclinic
loop_
_symmetry_equiv_pos_as_xyz
  x,y,z
_cell_length_a	19.288840
_cell_length_b	17.038272
_cell_length_c	18.366186
_cell_angle_alpha	89.993834
_cell_angle_beta	89.983729
_cell_angle_gamma	87.118786
loop_
_atom_site_label
_atom_site_type_symbol
_atom_site_fract_x
_atom_site_fract_y
_atom_site_fract_z
O1	O	0.927391	0.097420	-0.060673
O2	O	1.427391	0.597420	0.439327
O3	O	0.725943	0.110595	-0.060648
O4	O	1.225943	0.610595	0.439352
O5	O	0.825470	-0.009804	-0.060654
O6	O	1.325470	0.490196	0.439346
O7	O	0.827865	0.217819	-0.060666
O8	O	1.327865	0.717819	0.439334
O9	O	0.825452	-0.009810	0.060445
O10	O	1.325452	0.490190	0.560445
O11	O	0.725925	0.110589	0.060452
O12	O	1.225925	0.610589	0.560452
O13	O	0.927373	0.097414	0.060427
O14	O	1.427373	0.597414	0.560427
Zn15	Zn	0.826646	0.104001	0.079666
Zn16	Zn	1.326646	0.604001	0.579666
Zn17	Zn	0.826670	0.104008	-0.079887
Zn18	Zn	1.326670	0.604008	0.420113
O19	O	0.827846	0.217813	0.060433
O20	O	1.327846	0.717813	0.560433
C21	C	0.700031	0.110171	-0.000095
C22	C	1.200031	0.610171	0.499905
C23	C	0.622849	0.108909	-0.000085
C24	C	1.122849	0.608909	0.499915
C25	C	0.586618	0.108305	-0.066098
C26	C	1.086618	0.608305	0.433902
C27	C	0.514097	0.107110	-0.066107
C28	C	1.014097	0.607110	0.433893
C29	C	0.477811	0.106502	-0.000099
C30	C	0.977811	0.606502	0.499901
C31	C	0.514050	0.107110	0.065923
C32	C	1.014050	0.607110	0.565923
C33	C	0.586569	0.108313	0.065930
C34	C	1.086569	0.608313	0.565930
C35	C	0.365525	0.058809	0.050465
C36	C	0.865525	0.558809	0.550465
C37	C	0.293007	0.057601	0.050455
C38	C	0.793007	0.557601	0.550455
C39	C	0.254138	0.102795	-0.000118
C40	C	0.754138	0.602795	0.499882
C41	C	0.287795	0.149188	-0.050693
C42	C	0.787795	0.649188	0.449307
C43	C	0.360314	0.150391	-0.050686
C44	C	0.860314	0.650391	0.449314
C45	C	0.399176	0.105198	-0.000099
C46	C	0.899176	0.605198	0.499901
C47	C	0.139271	0.100897	-0.066145
C48	C	0.639271	0.600897	0.433855
C49	C	0.066749	0.099707	-0.066151
C50	C	0.566749	0.599707	0.433849
C51	C	0.066704	0.099699	0.065880
C52	C	0.566704	0.599699	0.565880
C53	C	0.139225	0.100897	0.065885
C54	C	0.639225	0.600897	0.565885
C55	C	0.175504	0.101493	-0.000130
C56	C	0.675504	0.601493	0.499870
C57	C	0.823283	-0.038928	-0.000105
C58	C	1.323283	0.461072	0.499895
C59	C	0.816785	-0.125699	-0.000104
C60	C	1.316785	0.374301	0.499896
C61	C	0.876442	-0.176012	-0.000111
C62	C	1.376442	0.323988	0.499889
C63	C	0.870332	-0.257542	-0.000117
C64	C	1.370332	0.242458	0.499883
C65	C	0.804566	-0.288758	-0.000111
C66	C	1.304566	0.211242	0.499889
C67	C	0.744905	-0.238439	-0.000107
C68	C	1.244905	0.261561	0.499893
C69	C	0.751015	-0.156910	-0.000106
C70	C	1.251015	0.343090	0.499894
C71	C	0.782980	-0.534444	-0.000118
C72	C	1.282980	-0.034444	0.499882
C73	C	0.776875	-0.615979	-0.000117
C74	C	1.276875	-0.115979	0.499883
C75	C	0.902303	-0.635077	-0.000129
C76	C	1.402303	-0.135077	0.499871
C77	C	0.908407	-0.553546	-0.000123
C78	C	1.408407	-0.053546	0.499877
C79	C	0.848746	-0.503234	-0.000123
C80	C	1.348746	-0.003234	0.499877
C81	C	0.798320	-0.372095	-0.000115
C82	C	1.298320	0.127905	0.499885
C83	C	0.854993	-0.419899	-0.000124
C84	C	1.354993	0.080101	0.499876
C85	C	0.953285	0.097838	-0.000128
C86	C	1.453285	0.597838	0.499872
C87	C	1.030468	0.099101	-0.000143
C88	C	1.530468	0.599101	0.499857
C89	C	0.830033	0.246937	-0.000118
C90	C	1.330033	0.746937	0.499882
C91	C	0.836531	0.333708	-0.000124
C92	C	1.336531	0.833708	0.499876
N93	N	0.826634	0.103995	0.188557
N94	N	1.326634	0.603995	0.688557
N95	N	0.826687	0.104008	-0.188779
N96	N	1.326687	0.604008	0.311221
C97	C	0.870722	0.050708	0.226655
C98	C	1.370722	0.550708	0.726655
C99	C	0.870726	0.050705	0.302883
C100	C	1.370726	0.550705	0.802883
C101	C	0.826650	0.104001	0.341010
C102	C	1.326650	0.604001	0.841010
C103	C	0.782554	0.157292	0.302903
C104	C	1.282554	0.657292	0.802903
C105	C	0.782546	0.157289	0.226677
C106	C	1.282546	0.657289	0.726677
C107	C	0.821759	0.175226	0.461767
C108	C	1.321759	0.675226	0.961767
C109	C	0.821771	0.175230	0.537992
C110	C	1.321771	0.675230	1.037992
C111	C	0.826671	0.104011	0.576118
C112	C	1.326671	0.604011	1.076118
C113	C	0.831571	0.032785	0.538008
C114	C	1.331571	0.532785	1.038008
C115	C	0.831563	0.032782	0.461782
C116	C	1.331563	0.532782	0.961782
C117	C	0.826654	0.104010	0.423665
C118	C	1.326654	0.604010	0.923665
C119	C	0.870765	0.050716	0.696870
C120	C	1.370765	0.550716	1.196870
C121	C	0.870764	0.050712	0.773099
C122	C	1.370764	0.550712	1.273099
C123	C	0.782596	0.157306	0.773119
C124	C	1.282596	0.657306	1.273119
C125	C	0.782593	0.157303	0.696891
C126	C	1.282593	0.657303	1.196891
C127	C	0.826681	0.104010	0.658771
C128	C	1.326681	0.604010	1.158771
H129	H	0.037250	0.099220	-0.119909
H130	H	0.537250	0.599220	0.380091
H131	H	0.906662	0.007319	0.665832
H132	H	1.406662	0.507319	1.165832
H133	H	0.397167	0.022003	0.091651
H134	H	0.897167	0.522003	0.591651
F135	F	0.177786	0.101536	0.136146
F136	F	0.677786	0.601536	0.636146
F137	F	0.396132	0.199766	-0.104508
F138	F	0.896132	0.699766	0.395492
H139	H	0.746644	0.200682	0.195657
H140	H	1.246644	0.700682	0.695657
F141	F	0.735643	0.214011	0.343482
F142	F	1.235643	0.714011	0.843482
F143	F	0.917653	-0.006013	0.343435
F144	F	1.417653	0.493987	0.843435
F145	F	0.475431	0.106468	0.136173
F146	F	0.975431	0.606468	0.636173
F147	F	0.625225	0.108941	-0.136357
F148	F	1.125225	0.608941	0.363643
F149	F	0.735683	0.214023	0.813693
F150	F	1.235683	0.714023	1.313693
F151	F	0.946440	-0.142797	-0.000110
F152	F	1.446440	0.357203	0.499890
H153	H	0.616068	0.108806	0.119687
H154	H	1.116068	0.608806	0.619687
F155	F	0.836790	-0.043017	0.578578
F156	F	1.336790	0.456983	1.078578
F157	F	0.933827	-0.311086	-0.000123
F158	F	1.433827	0.188914	0.499877
F159	F	0.917686	-0.006010	0.813647
F160	F	1.417686	0.493990	1.313647
F161	F	0.257192	0.008241	0.104292
F162	F	0.757192	0.508241	0.604292
F163	F	0.728328	-0.405324	-0.000112
F164	F	1.228328	0.094676	0.499888
H165	H	0.746696	0.200697	0.665870
H166	H	1.246696	0.700697	1.165870
H167	H	0.168811	0.101390	-0.119898
H168	H	0.668811	0.601390	0.380102
H169	H	0.484592	0.106620	-0.119865
H170	H	0.984592	0.606620	0.380135
F171	F	0.706874	-0.649199	-0.000107
F172	F	1.206874	-0.149199	0.499893
H173	H	0.817785	0.233226	0.569015
H174	H	1.317785	0.733226	1.069015
F175	F	0.978404	-0.520330	-0.000148
F176	F	1.478404	-0.020330	0.499852
H177	H	0.256149	0.185993	-0.091872
H178	H	0.756149	0.685993	0.408128
H179	H	0.950875	-0.676049	-0.000131
H180	H	1.450875	-0.176049	0.499869
F181	F	0.816595	0.251033	0.421199
F182	F	1.316595	0.751033	0.921199
F183	F	0.719483	-0.480909	-0.000120
F184	F	1.219483	0.019091	0.499880
H185	H	0.037160	0.099209	0.119626
H186	H	0.537160	0.599209	0.619626
H187	H	0.691357	-0.263861	-0.000107
H188	H	1.191357	0.236139	0.499893
F189	F	0.687520	-0.103363	-0.000101
F190	F	1.187520	0.396637	0.499899
F191	F	0.924984	-0.386675	-0.000134
F192	F	1.424984	0.113325	0.499866
F193	F	0.917641	-0.006013	0.186087
F194	F	1.417641	0.493987	0.686087
H195	H	0.835552	-0.025213	0.430757
H196	H	1.335552	0.474787	0.930757
