data_functionalizedCrystal
_audit_creation_method	'MofGen! by Chris Wilmer'
_symmetry_space_group_name_H-M	'P1'
_symmetry_Int_Tables_number	1
_symmetry_cell_setting	triclinic
loop_
_symmetry_equiv_pos_as_xyz
  x,y,z
_cell_length_a	9.065218
_cell_length_b	16.176319
_cell_length_c	9.065218
_cell_angle_alpha	89.998429
_cell_angle_beta	94.984115
_cell_angle_gamma	90.006068
loop_
_atom_site_label
_atom_site_type_symbol
_atom_site_fract_x
_atom_site_fract_y
_atom_site_fract_z
O1	O	1.960405	0.068745	-0.216354
O2	O	1.531120	0.068746	-0.234100
O3	O	1.754636	0.068744	-0.010585
O4	O	1.736889	0.068747	-0.439869
O5	O	1.754609	-0.068749	-0.010584
O6	O	1.531094	-0.068747	-0.234099
O7	O	1.960378	-0.068748	-0.216353
Cu8	Cu	1.745734	-0.081302	-0.225226
Cu9	Cu	1.745765	0.081300	-0.225227
O10	O	1.736863	-0.068746	-0.439868
C11	C	1.476120	-0.000001	-0.232394
C12	C	1.312277	-0.000000	-0.227294
N13	N	1.745722	-0.195667	-0.225224
C14	C	1.836402	-0.238927	-0.315969
C15	C	1.836418	-0.325474	-0.315964
C16	C	1.745745	-0.368760	-0.225220
C17	C	1.655061	-0.325494	-0.134465
C18	C	1.655054	-0.238948	-0.134463
C19	C	1.655088	-0.674522	-0.134467
C20	C	1.655099	-0.761074	-0.134479
C21	C	1.836452	-0.761048	-0.315968
C22	C	1.836446	-0.674503	-0.315966
C23	C	1.745768	-0.631244	-0.225206
C24	C	1.745754	-0.537400	-0.225211
C25	C	1.745750	-0.462602	-0.225222
C26	C	2.015378	0.000000	-0.218059
C27	C	2.179221	0.000005	-0.223158
C28	C	1.752917	-0.000002	0.044403
C29	C	1.747817	0.000002	0.208245
N30	N	1.745788	0.195665	-0.225217
C31	C	1.738582	0.000001	-0.494855
C32	C	1.743681	0.000002	-0.658698
H33	H	1.910231	-0.203690	-0.389873
H34	H	1.910262	-0.360693	-0.389855
H35	H	1.581258	-0.796314	-0.060579
Br36	Br	1.532008	-0.384237	-0.011305
H37	H	1.910290	-0.796280	-0.389866
Br38	Br	1.959482	-0.615762	-0.439147
Br39	Br	1.531965	-0.615825	-0.011352
Br40	Br	1.532004	-0.180237	-0.011283
