data_functionalizedCrystal
_audit_creation_method	'MofGen! by Chris Wilmer'
_symmetry_space_group_name_H-M	'P1'
_symmetry_Int_Tables_number	1
_symmetry_cell_setting	triclinic
loop_
_symmetry_equiv_pos_as_xyz
  x,y,z
_cell_length_a	18.050591
_cell_length_b	18.050590
_cell_length_c	18.050582
_cell_angle_alpha	90.023337
_cell_angle_beta	90.019760
_cell_angle_gamma	90.015000
loop_
_atom_site_label
_atom_site_type_symbol
_atom_site_fract_x
_atom_site_fract_y
_atom_site_fract_z
Zn1	Zn	1.135342	-0.295777	0.420004
Zn2	Zn	1.135274	-0.419960	0.295813
Zn3	Zn	1.011162	-0.295781	0.295818
Zn4	Zn	1.011131	-0.419922	0.419951
O5	O	1.073227	-0.357860	0.357897
O6	O	1.239258	-0.312265	0.403550
O7	O	1.118795	-0.403505	0.191889
O8	O	1.027676	-0.191856	0.312316
O9	O	1.239208	-0.403501	0.312307
O10	O	1.118911	-0.191853	0.403556
O11	O	1.027610	-0.312271	0.191893
O12	O	0.907233	-0.312234	0.312264
O13	O	1.027623	-0.403436	0.523883
O14	O	0.907210	-0.403440	0.403464
O15	O	1.118881	-0.312227	0.523922
O16	O	1.118765	-0.523880	0.312255
O17	O	1.027557	-0.523852	0.403459
C18	C	0.880275	-0.357834	0.357859
C19	C	0.797729	-0.357841	0.357861
C20	C	1.073170	-0.550812	0.357867
C21	C	1.073214	-0.633358	0.357879
C22	C	0.548895	-0.308191	0.308384
C23	C	0.598323	-0.290110	0.376160
C24	C	0.500609	-0.357879	0.357922
C25	C	0.598262	-0.375906	0.290119
C26	C	0.646594	-0.357858	0.357888
C27	C	0.548951	-0.339762	0.425734
C28	C	0.548884	-0.425589	0.339648
C29	C	0.598291	-0.407534	0.407471
C30	C	0.416511	-0.357888	0.357940
C31	C	0.730690	-0.357848	0.357878
C32	C	1.122916	-0.832797	0.308352
C33	C	1.141051	-0.882137	0.376133
C34	C	1.073256	-0.784488	0.357909
C35	C	1.055196	-0.882230	0.290158
C36	C	1.073298	-0.930473	0.357931
C37	C	1.091426	-0.832741	0.425726
C38	C	1.005539	-0.832830	0.339704
C39	C	1.023649	-0.882147	0.407533
C40	C	1.073233	-0.700390	0.357895
C41	C	1.073320	-1.014570	0.357953
C42	C	1.266933	-0.357887	0.357934
C43	C	1.349479	-0.357898	0.357950
C44	C	1.073256	-0.357827	0.551602
C45	C	1.073269	-0.357813	0.634148
C46	C	1.073305	-0.164154	0.357943
C47	C	1.073338	-0.081609	0.357962
C48	C	1.073241	-0.357839	0.164944
C49	C	1.073372	-0.357644	0.082399
C50	C	1.023681	-0.407345	0.833577
C51	C	1.091439	-0.425502	0.882974
C52	C	1.073305	-0.357756	0.785278
C53	C	1.005584	-0.339578	0.882963
C54	C	1.073335	-0.357703	0.931264
C55	C	1.141099	-0.375950	0.833588
C56	C	1.055199	-0.289994	0.833573
C57	C	1.123004	-0.308126	0.882948
C58	C	1.073287	-0.357789	0.701180
C59	C	1.073360	-0.357670	1.015360
H60	H	0.527208	-0.266150	0.266557
C61	C	1.179662	-0.803515	0.251798
H62	H	1.227768	-0.820397	0.264865
H63	H	1.167292	-0.821185	0.203783
H64	H	1.178945	-0.750890	0.251871
H65	H	1.198335	-0.903797	0.391545
C66	C	1.112182	-0.803505	0.503162
H67	H	1.112066	-0.750876	0.502674
H68	H	1.077144	-0.820796	0.538401
H69	H	1.160155	-0.820797	0.516175
C70	C	0.627526	-0.396523	0.212682
H71	H	0.656482	-0.440343	0.215958
H72	H	0.586941	-0.404711	0.180176
H73	H	0.657222	-0.357229	0.194143
C74	C	0.627414	-0.464283	0.464106
H75	H	0.610439	-0.451348	0.512215
H76	H	0.609738	-0.512246	0.451548
H77	H	0.680041	-0.464251	0.463505
C78	C	0.967041	-0.464062	0.804286
H79	H	0.930752	-0.439281	0.775324
H80	H	0.991740	-0.499816	0.774605
H81	H	0.943680	-0.488070	0.844864
H82	H	1.039903	-0.903968	0.232852
H83	H	1.039846	-0.232728	0.811857
C84	C	0.519820	-0.319060	0.503199
H85	H	0.560470	-0.310437	0.535521
H86	H	0.490528	-0.275476	0.499860
H87	H	0.490500	-0.358505	0.522012
H88	H	0.981672	-0.903680	0.449500
C89	C	0.519518	-0.502931	0.318753
H90	H	0.536369	-0.515675	0.270550
H91	H	0.537165	-0.538344	0.353438
H92	H	0.466893	-0.502482	0.319362
C93	C	0.928179	-0.803539	0.318857
H94	H	0.915404	-0.820454	0.270670
H95	H	0.892792	-0.821170	0.353576
H96	H	0.928620	-0.750914	0.319445
C97	C	1.218515	-0.396745	0.804417
H98	H	1.218029	-0.396651	0.751788
H99	H	1.253779	-0.361703	0.821727
H100	H	1.231494	-0.444712	0.821732
C101	C	1.112150	-0.502882	0.912296
H102	H	1.076834	-0.538078	0.895397
H103	H	1.159928	-0.516119	0.894665
H104	H	1.112450	-0.502187	0.964921
C105	C	1.179772	-0.251446	0.912058
H106	H	1.155044	-0.215123	0.941028
H107	H	1.215586	-0.276105	0.941696
H108	H	1.203700	-0.228132	0.871405
C109	C	0.627667	-0.212747	0.397027
H110	H	0.610759	-0.177507	0.361794
H111	H	0.610059	-0.199590	0.444841
H112	H	0.680292	-0.213416	0.397302
C113	C	0.928202	-0.318833	0.912262
H114	H	0.892997	-0.354134	0.895348
H115	H	0.928876	-0.318518	0.964883
H116	H	0.914988	-0.271052	0.894613
