data_functionalizedCrystal
_audit_creation_method	'MofGen! by Chris Wilmer'
_symmetry_space_group_name_H-M	'P1'
_symmetry_Int_Tables_number	1
_symmetry_cell_setting	triclinic
loop_
_symmetry_equiv_pos_as_xyz
  x,y,z
_cell_length_a	9.616153
_cell_length_b	17.699083
_cell_length_c	17.699083
_cell_angle_alpha	96.716985
_cell_angle_beta	90.003155
_cell_angle_gamma	89.999170
loop_
_atom_site_label
_atom_site_type_symbol
_atom_site_fract_x
_atom_site_fract_y
_atom_site_fract_z
O1	O	0.115453	-1.004079	0.095708
O2	O	0.115499	-0.783700	0.108161
O3	O	0.115463	-0.900116	-0.008255
O4	O	0.115490	-0.887663	0.212124
O5	O	-0.115829	-0.900100	-0.008252
O6	O	-0.115792	-0.783684	0.108163
O7	O	-0.115838	-1.004063	0.095711
Zn8	Zn	-0.152538	-0.893871	0.101937
Zn9	Zn	0.152199	-0.893892	0.101934
O10	O	-0.115801	-0.887647	0.212126
C11	C	-0.000141	-0.755495	0.107716
C12	C	-0.000123	-0.671477	0.106377
N13	N	-0.360512	-0.893862	0.101939
C14	C	-0.000183	-0.899662	-0.036451
C15	C	-0.000183	-0.898323	-0.120469
C16	C	-0.580862	-0.831402	0.164009
C17	C	-0.419695	-0.831535	0.164238
C18	C	-0.418976	-0.972805	0.119044
C19	C	-0.580193	-0.972464	0.119482
C20	C	-0.580429	-0.878170	0.022555
C21	C	-0.419202	-0.876348	0.023090
N22	N	0.360173	-0.893907	0.101926
C23	C	-0.000195	-1.032268	0.096156
C24	C	-0.000203	-1.116286	0.097494
C25	C	-0.000115	-0.622856	0.174710
C26	C	-0.000134	-0.543913	0.173448
C27	C	-0.000150	-0.513592	0.103852
C28	C	-0.000162	-0.562219	0.035513
C29	C	-0.000154	-0.641161	0.036776
C30	C	-0.000197	-0.243856	0.030418
C31	C	-0.000201	-0.164908	0.029160
C32	C	-0.000177	-0.146608	0.167090
C33	C	-0.000169	-0.225550	0.168353
C34	C	-0.000188	-0.274170	0.100015
C35	C	-0.000171	-0.359769	0.101384
C36	C	-0.000157	-0.427995	0.102481
C37	C	-0.000199	-0.966656	-0.169090
C38	C	-0.000187	-0.965394	-0.248033
C39	C	-0.000168	-0.895798	-0.278354
C40	C	-0.000148	-0.827459	-0.229727
C41	C	-0.000150	-0.828722	-0.150785
C42	C	-0.000135	-0.822364	-0.548090
C43	C	-0.000137	-0.821106	-0.627038
C44	C	-0.000172	-0.959036	-0.645338
C45	C	-0.000175	-0.960299	-0.566396
C46	C	-0.000147	-0.891961	-0.517776
C47	C	-0.000158	-0.893330	-0.432177
C48	C	-0.000167	-0.894427	-0.363951
C49	C	-0.000153	-0.888102	0.240322
C50	C	-0.000143	-0.889440	0.324340
H51	H	-0.380169	-0.772851	0.154068
H52	H	-0.621157	-0.821868	0.006070
H53	H	-0.000197	-1.016971	-0.541714
H54	H	-0.000101	-0.647537	0.231384
H55	H	-0.619663	-0.772532	0.154007
Cl56	Cl	-0.000211	-1.051303	-0.309154
H57	H	-0.000195	-0.537526	-0.021154
H58	H	-0.000124	-0.764429	-0.651721
Cl59	Cl	-0.360210	-0.786692	0.003040
Cl60	Cl	-0.357034	-0.942088	-0.051562
H61	H	-0.000223	-1.023330	-0.144409
Cl62	Cl	-0.639300	-0.948545	-0.048772
H63	H	-0.000187	-1.014680	-0.684934
H64	H	-0.000113	-0.766718	-0.508512
H65	H	-0.000124	-0.770792	-0.254420
H66	H	-0.000149	-0.250232	0.225025
H67	H	-0.621356	-0.841296	0.222581
Cl68	Cl	-0.360113	-0.846989	0.255191
H69	H	-0.000168	-0.107012	0.222734
Cl70	Cl	-0.000222	-0.126793	-0.058340
H71	H	-0.000137	-0.773078	-0.111198
H72	H	-0.000214	-0.283434	-0.025228
H73	H	-0.619196	-1.020420	0.076039
Cl74	Cl	-0.359794	-1.046318	0.051081
Cl75	Cl	-0.638227	-0.993905	0.208846
H76	H	-0.000159	-0.680748	-0.018868
H77	H	-0.000126	-0.504328	0.229092
H78	H	-0.378582	-0.987025	0.176265
