data_functionalizedCrystal
_audit_creation_method	'MofGen! by Chris Wilmer'
_symmetry_space_group_name_H-M	'P1'
_symmetry_Int_Tables_number	1
_symmetry_cell_setting	triclinic
loop_
_symmetry_equiv_pos_as_xyz
  x,y,z
_cell_length_a	6.817900
_cell_length_b	11.168130
_cell_length_c	14.858572
_cell_angle_alpha	93.497900
_cell_angle_beta	104.524003
_cell_angle_gamma	108.508653
loop_
_atom_site_label
_atom_site_type_symbol
_atom_site_fract_x
_atom_site_fract_y
_atom_site_fract_z
V1	V	-4.064039	-0.175499	-0.289968
V2	V	-3.564039	0.324501	0.210032
O3	O	-4.024496	0.007616	-0.284440
O4	O	-3.524496	0.507616	0.215560
O5	O	-4.040639	-0.347199	-0.287992
O6	O	-3.540639	0.152801	0.212008
O7	O	-4.020335	-0.173159	-0.416429
O8	O	-3.520335	0.326841	0.083571
O9	O	-4.044940	-0.167630	-0.155114
O10	O	-3.544940	0.332370	0.344886
V11	V	-4.543818	-0.153554	-0.273837
V12	V	-4.043818	0.346446	0.226163
O13	O	-4.333508	-0.223638	-0.325351
O14	O	-3.833508	0.276362	0.174649
O15	O	-4.724546	-0.105416	-0.238454
O16	O	-4.224546	0.394584	0.261546
O17	O	-4.344011	0.018146	-0.275813
O18	O	-3.844011	0.518146	0.224187
O19	O	-4.700757	-0.336669	-0.279364
O20	O	-4.200757	0.163331	0.220636
O21	O	-4.680313	-0.161424	-0.408691
O22	O	-4.180313	0.338576	0.091309
O23	O	-4.364315	-0.155895	-0.147376
O24	O	-3.864315	0.344105	0.352624
C25	C	-3.891570	-0.389045	-0.283419
C26	C	-3.391570	0.110955	0.216581
C27	C	-3.953756	-0.529414	-0.282647
C28	C	-3.453756	-0.029414	0.217353
C29	C	-3.865669	-0.167037	-0.447253
C30	C	-3.365669	0.332963	0.052747
C31	C	-3.911386	-0.166259	-0.550636
C32	C	-3.411386	0.333741	-0.050636
C33	C	-4.025498	-0.609353	-0.363239
C34	C	-3.525498	-0.109353	0.136761
C35	C	-4.089772	-0.754432	-0.362442
C36	C	-3.589772	-0.254432	0.137558
C37	C	-4.078712	-0.163417	-0.929204
C38	C	-3.578712	0.336583	-0.429204
C39	C	-4.032148	-0.164208	-0.823874
C40	C	-3.532148	0.335792	-0.323874
C41	C	-3.995051	-0.164839	-0.739923
C42	C	-3.495051	0.335161	-0.239923
C43	C	-3.948484	-0.165628	-0.634587
C44	C	-3.448484	0.334372	-0.134587
C45	C	-4.156423	0.059984	-0.280383
C46	C	-3.656423	0.559984	0.219617
C47	C	-4.073476	0.200352	-0.281161
C48	C	-3.573476	0.700352	0.218839
C49	C	-4.182323	-0.162021	-0.116547
C50	C	-3.682323	0.337979	0.383453
C51	C	-4.115844	-0.162792	-0.013163
C52	C	-3.615844	0.337208	0.486837
H53	H	-4.039324	-0.570384	-0.432826
H54	H	-3.539324	-0.070384	0.067174
H55	H	-4.011960	-0.730976	-0.212162
H56	H	-3.511960	-0.230976	0.287838
H57	H	-4.151305	-0.823111	-0.431439
H58	H	-3.651305	-0.323111	0.068561
C59	C	-3.935077	-0.582051	-0.188634
C60	C	-3.435077	-0.082051	0.311366
N61	N	-3.921017	-0.621696	-0.117821
N62	N	-3.421017	-0.121696	0.382179
