data_functionalizedCrystal
_audit_creation_method	'MofGen! by Chris Wilmer'
_symmetry_space_group_name_H-M	'P1'
_symmetry_Int_Tables_number	1
_symmetry_cell_setting	triclinic
loop_
_symmetry_equiv_pos_as_xyz
  x,y,z
_cell_length_a	10.654550
_cell_length_b	14.044220
_cell_length_c	9.130313
_cell_angle_alpha	89.997493
_cell_angle_beta	89.996220
_cell_angle_gamma	88.836890
loop_
_atom_site_label
_atom_site_type_symbol
_atom_site_fract_x
_atom_site_fract_y
_atom_site_fract_z
O1	O	1.681222	0.133227	-0.121925
O2	O	1.317019	0.145921	-0.121902
O3	O	1.493654	0.001554	-0.121899
O4	O	1.504587	0.277595	-0.121929
O5	O	1.493652	0.001557	0.121700
O6	O	1.317017	0.145925	0.121696
O7	O	1.681220	0.133231	0.121673
Cu8	Cu	1.499119	0.139578	0.143927
Cu9	Cu	1.499121	0.139574	-0.144156
O10	O	1.504585	0.277598	0.121670
C11	C	1.270127	0.144991	-0.000100
C12	C	1.130403	0.142202	-0.000091
C13	C	1.059459	0.227203	-0.000121
C14	C	0.928175	0.224578	-0.000146
C15	C	0.938790	0.051942	-0.000116
C16	C	1.070072	0.054569	-0.000081
C17	C	1.119790	0.314837	-0.000131
C18	C	1.048846	0.399845	-0.000163
C19	C	0.917561	0.397219	-0.000188
C20	C	0.857221	0.309585	-0.000181
C21	C	1.488867	-0.033790	-0.000099
C22	C	1.474592	-0.139110	-0.000096
C23	C	1.448493	-0.331943	-0.000116
C24	C	1.549741	-0.388911	-0.000126
C25	C	1.535219	-0.496210	-0.000137
C26	C	1.463013	-0.224634	-0.000105
C27	C	1.728113	0.134161	-0.000132
C28	C	1.867836	0.136950	-0.000151
C29	C	1.509372	0.312942	-0.000133
C30	C	1.523648	0.418262	-0.000146
N31	N	1.499126	0.139581	0.346550
N32	N	1.499122	0.139564	-0.346779
C33	C	1.577364	0.075677	0.423203
C34	C	1.577359	0.075666	0.576540
C35	C	1.420876	0.203470	0.576557
C36	C	1.420875	0.203477	0.423223
C37	C	1.655615	0.011782	0.346531
C38	C	1.733861	-0.052127	0.423184
C39	C	1.733856	-0.052138	0.576521
C40	C	1.655606	0.011759	0.653204
H41	H	1.226688	0.316985	-0.000117
C42	C	1.746874	-0.376192	-0.125340
C43	C	1.681484	-0.345973	-0.000115
H44	H	1.828200	-0.349675	-0.125329
H45	H	1.754266	-0.443703	-0.125339
H46	H	1.702509	-0.355675	-0.210279
H47	H	1.725845	-0.366496	0.084825
H48	H	1.674097	-0.278447	-0.000103
H49	H	1.655629	0.011787	0.221676
C50	C	0.666294	0.352808	-0.125451
C51	C	0.712910	0.306693	-0.000210
H52	H	0.577205	0.351016	-0.125476
H53	H	0.692065	0.417155	-0.125439
H54	H	0.697984	0.321514	-0.210379
H55	H	0.681227	0.337992	0.084719
H56	H	0.687127	0.242334	-0.000209
H57	H	0.889650	-0.019405	-0.000135
C58	C	1.067388	-0.116338	-0.000089
C59	C	1.148063	-0.038865	-0.000066
H60	H	1.115540	-0.174020	-0.000087
H61	H	1.015947	-0.113777	0.084843
H62	H	1.015978	-0.113766	-0.085055
H63	H	1.199467	-0.041434	0.084906
H64	H	1.199526	-0.041427	-0.085006
H65	H	1.350913	-0.363754	-0.000113
H66	H	1.797562	-0.104155	0.360741
C67	C	1.209546	0.257635	0.623806
C68	C	1.334873	0.273704	0.660848
H69	H	1.156455	0.300993	0.675852
H70	H	1.198353	0.266791	0.521529
H71	H	1.188831	0.194225	0.648940
H72	H	1.355591	0.337113	0.635704
H73	H	1.346073	0.264556	0.763148
H74	H	1.797557	-0.104181	0.638931
H75	H	1.655600	0.011738	0.778062
H76	H	1.097984	0.471193	-0.000156
C77	C	0.920262	0.568124	-0.000226
C78	C	0.839577	0.490656	-0.000222
H79	H	0.872117	0.625809	-0.000261
H80	H	0.971664	0.565564	0.084730
H81	H	0.971710	0.565543	-0.085168
H82	H	0.788135	0.493233	0.084726
H83	H	0.788153	0.493218	-0.085186
C84	C	1.365463	0.367178	0.375996
C85	C	1.334883	0.273723	0.338947
H86	H	1.312376	0.410542	0.323958
H87	H	1.354255	0.376318	0.478275
H88	H	1.450494	0.378057	0.350857
H89	H	1.249854	0.262841	0.364096
H90	H	1.346080	0.264579	0.236646
