data_functionalizedCrystal
_audit_creation_method	'MofGen! by Chris Wilmer'
_symmetry_space_group_name_H-M	'P1'
_symmetry_Int_Tables_number	1
_symmetry_cell_setting	triclinic
loop_
_symmetry_equiv_pos_as_xyz
  x,y,z
_cell_length_a	10.654550
_cell_length_b	10.540539
_cell_length_c	9.130313
_cell_angle_alpha	89.997616
_cell_angle_beta	89.999724
_cell_angle_gamma	84.505211
loop_
_atom_site_label
_atom_site_type_symbol
_atom_site_fract_x
_atom_site_fract_y
_atom_site_fract_z
O1	O	1.667902	0.178301	-0.121682
O2	O	1.302430	0.195288	-0.121709
O3	O	1.493504	0.002085	-0.121693
O4	O	1.476828	0.371504	-0.121698
O5	O	1.493491	0.002079	0.121906
O6	O	1.302416	0.195282	0.121890
O7	O	1.667889	0.178295	0.121916
Cu8	Cu	1.485152	0.186788	0.144146
Cu9	Cu	1.485167	0.186795	-0.143938
O10	O	1.476815	0.371498	0.121901
C11	C	1.255625	0.194038	0.000087
C12	C	1.116180	0.190306	0.000077
C13	C	1.036735	0.304061	0.000080
C14	C	0.905712	0.300547	0.000105
C15	C	0.933594	0.069513	0.000119
C16	C	1.064614	0.073029	0.000104
C17	C	1.492247	-0.045221	0.000104
C18	C	1.488505	-0.186167	0.000095
C19	C	1.345134	-0.369543	-0.000462
C20	C	1.348927	-0.222926	0.000087
C21	C	1.555669	-0.247852	0.139207
C22	C	1.550905	-0.394395	0.139324
C23	C	1.553759	-0.394908	-0.137693
C24	C	1.555045	-0.247926	-0.139532
C25	C	1.714694	0.179545	0.000117
C26	C	1.854139	0.183277	0.000118
C27	C	1.478072	0.418804	0.000101
C28	C	1.481813	0.559750	0.000099
N29	N	1.485150	0.186783	0.346768
N30	N	1.485179	0.186790	-0.346561
C31	C	1.569786	0.101269	0.423427
C32	C	1.569798	0.101269	0.576764
C33	C	1.400533	0.272308	0.576770
C34	C	1.400516	0.272301	0.423436
H35	H	1.296078	-0.180301	-0.099634
C36	C	1.694137	-0.217679	0.146228
N37	N	1.798429	-0.194940	0.151520
H38	H	1.651288	-0.442400	0.145642
H39	H	1.129302	-0.019610	0.000106
H40	H	1.501257	-0.422579	0.243306
C41	C	1.093452	0.433069	0.000068
N42	N	1.136168	0.530242	0.000067
C43	C	0.818327	0.425687	0.000115
N44	N	0.752509	0.519948	0.000127
H45	H	1.295697	-0.181153	0.099967
H46	H	1.509003	-0.205238	0.242723
C47	C	1.492734	-0.437503	-0.280135
N48	N	1.446755	-0.469583	-0.387416
H49	H	1.290003	-0.398120	-0.100221
H50	H	1.331628	0.341937	0.639208
C51	C	1.488718	-0.192628	-0.278566
N52	N	1.438749	-0.150981	-0.383284
H53	H	1.290216	-0.399733	0.098732
C54	C	1.307462	0.366436	0.339106
N55	N	1.237396	0.437356	0.275589
H56	H	1.656809	-0.223741	-0.147925
C57	C	0.876858	-0.059486	0.000136
N58	N	0.834127	-0.156650	0.000142
H59	H	1.654576	-0.442170	-0.138622
H60	H	1.638698	0.031633	0.361008
H61	H	1.638715	0.031634	0.639175
