data_functionalizedCrystal
_audit_creation_method	'MofGen! by Chris Wilmer'
_symmetry_space_group_name_H-M	'P1'
_symmetry_Int_Tables_number	1
_symmetry_cell_setting	triclinic
loop_
_symmetry_equiv_pos_as_xyz
  x,y,z
_cell_length_a	10.654550
_cell_length_b	27.732048
_cell_length_c	9.130313
_cell_angle_alpha	89.990549
_cell_angle_beta	89.999724
_cell_angle_gamma	83.563793
loop_
_atom_site_label
_atom_site_type_symbol
_atom_site_fract_x
_atom_site_fract_y
_atom_site_fract_z
O1	O	1.664986	0.067886	-0.121708
O2	O	1.299235	0.074354	-0.121737
O3	O	1.493470	0.000794	-0.121693
O4	O	1.470751	0.141446	-0.121751
O5	O	1.493457	0.000792	0.121905
O6	O	1.299222	0.074351	0.121862
O7	O	1.664973	0.067884	0.121891
Cu8	Cu	1.482096	0.071117	0.144119
Cu9	Cu	1.482112	0.071120	-0.143965
O10	O	1.470738	0.141444	0.121848
C11	C	1.252451	0.073878	0.000060
C12	C	1.113067	0.072457	0.000050
C13	C	1.492986	-0.017217	0.000110
C14	C	1.491550	-0.070881	0.000122
C15	C	1.031761	0.115768	0.000036
C16	C	0.900796	0.114430	0.000063
C17	C	0.932457	0.026466	0.000110
C18	C	1.063419	0.027805	0.000094
C19	C	1.597290	-0.409038	0.000055
C20	C	1.591962	-0.610730	0.000034
O21	O	1.688653	-0.641384	-0.000022
N22	N	1.476789	-0.630571	0.000027
C23	C	1.362940	-0.599986	0.000015
O24	O	1.264855	-0.621490	-0.000008
C25	C	1.368269	-0.398294	0.000025
C26	C	1.483449	-0.378456	0.000047
C27	C	1.712461	-0.389199	0.000076
C28	C	1.713792	-0.338779	0.000089
C29	C	1.599951	-0.308197	0.000081
C30	C	1.484780	-0.328036	0.000061
C31	C	1.254421	-0.367709	0.000002
C32	C	1.255764	-0.317284	0.000001
C33	C	1.370944	-0.297446	0.000024
C34	C	1.372271	-0.247034	0.000066
N35	N	1.487444	-0.227193	0.000074
C36	C	1.601284	-0.257774	0.000081
C37	C	1.360150	-0.705877	0.000012
C38	C	1.358817	-0.756300	0.000012
C39	C	1.587840	-0.767041	0.000029
C40	C	1.589171	-0.716617	0.000039
C41	C	1.475323	-0.686036	0.000020
C42	C	1.604070	-0.151888	0.000110
C43	C	1.605391	-0.101463	0.000130
C44	C	1.376369	-0.090726	0.000105
C45	C	1.375047	-0.141147	0.000093
C46	C	1.488908	-0.171727	0.000091
O47	O	1.275631	-0.216352	0.000106
O48	O	1.699354	-0.236261	0.000071
C49	C	1.595959	-0.459458	0.000042
C50	C	1.480788	-0.479296	0.000021
C51	C	1.366947	-0.448715	0.000013
C52	C	1.479455	-0.529719	0.000021
C53	C	1.593296	-0.560301	0.000029
C54	C	1.708469	-0.540460	0.000036
C55	C	1.709799	-0.490040	0.000049
C56	C	1.251774	-0.468556	0.000006
C57	C	1.250453	-0.518976	-0.000006
C58	C	1.364293	-0.549558	0.000002
C59	C	1.711757	0.068360	0.000092
C60	C	1.851141	0.069781	0.000092
C61	C	1.471221	0.159455	0.000041
C62	C	1.472657	0.213118	0.000020
N63	N	1.482094	0.071115	0.346742
N64	N	1.482123	0.071118	-0.346587
C65	C	1.568130	0.038557	0.423413
C66	C	1.568142	0.038557	0.576750
C67	C	1.396079	0.103678	0.576731
C68	C	1.396062	0.103675	0.423397
H69	H	1.072179	0.152126	0.000012
H70	H	1.680533	-0.791950	0.000036
O71	O	1.651841	0.006913	0.651000
C72	C	1.727743	-0.021833	0.550455
H73	H	1.728760	-0.002011	0.441142
H74	H	1.828170	-0.028846	0.594748
H75	H	1.687677	-0.057886	0.534173
H76	H	1.265026	-0.772447	0.000019
H77	H	1.129623	-0.007466	0.000109
H78	H	1.807584	-0.322632	0.000101
O79	O	1.717394	-0.082273	0.000081
C80	C	1.817582	-0.120081	0.000115
H81	H	1.783058	-0.154445	-0.046013
H82	H	1.898059	-0.109267	-0.070600
H83	H	1.852645	-0.127106	0.116983
H84	H	0.892018	-0.009888	0.000154
H85	H	1.696787	-0.176781	0.000103
O86	O	1.823170	-0.418833	0.000153
C87	C	1.925092	-0.390499	0.000132
H88	H	1.892445	-0.352985	0.046238
H89	H	2.004793	-0.408821	0.070874
H90	H	1.960456	-0.386782	-0.116728
H91	H	1.267435	-0.680982	-0.000004
H92	H	1.160629	-0.383852	-0.000025
H93	H	1.325996	0.130189	0.360967
H94	H	1.281258	-0.157299	0.000116
O95	O	1.145052	-0.287647	0.000047
C96	C	1.043118	-0.315974	-0.000013
H97	H	1.075740	-0.353494	0.046105
H98	H	0.963404	-0.297655	0.070697
H99	H	1.007783	-0.319678	-0.116888
O100	O	1.701167	-0.697429	-0.000019
C101	C	1.801350	-0.735239	0.000029
H102	H	1.766821	-0.769604	-0.046083
H103	H	1.881829	-0.724429	-0.070693
H104	H	1.836413	-0.742259	0.116899
O105	O	1.312469	0.135241	0.651362
C106	C	1.235503	0.109080	0.740064
H107	H	1.286258	0.071438	0.763050
H108	H	1.215260	0.129184	0.847879
H109	H	1.142756	0.105462	0.680993
O110	O	1.651493	0.006886	0.348820
C111	C	1.584774	-0.023181	0.260233
H112	H	1.486164	-0.004264	0.237229
H113	H	1.637322	-0.030673	0.152419
H114	H	1.576884	-0.058917	0.319413
H115	H	1.803591	-0.473892	0.000067
O116	O	0.821869	0.156515	-0.000217
C117	C	0.844252	0.183601	-0.126383
H118	H	0.889503	0.158233	-0.214552
H119	H	0.750943	0.202672	-0.168730
H120	H	0.910406	0.211801	-0.097890
H121	H	1.283683	-0.065817	0.000104
H122	H	1.801162	-0.565368	0.000049
H123	H	1.156652	-0.535123	-0.000011
O124	O	1.141069	-0.438922	0.000072
C125	C	1.039142	-0.467252	0.000025
H126	H	1.071779	-0.504774	0.046128
H127	H	0.959435	-0.448938	0.070756
H128	H	1.003790	-0.470954	-0.116843
