data_functionalizedCrystal
_audit_creation_method	'MofGen! by Chris Wilmer'
_symmetry_space_group_name_H-M	'P1'
_symmetry_Int_Tables_number	1
_symmetry_cell_setting	triclinic
loop_
_symmetry_equiv_pos_as_xyz
  x,y,z
_cell_length_a	16.625548
_cell_length_b	29.839131
_cell_length_c	16.625539
_cell_angle_alpha	89.967906
_cell_angle_beta	89.979432
_cell_angle_gamma	90.042488
loop_
_atom_site_label
_atom_site_type_symbol
_atom_site_fract_x
_atom_site_fract_y
_atom_site_fract_z
Zn1	Zn	1.232574	-0.178840	-0.455888
Zn2	Zn	1.565908	0.154494	-0.122555
Zn3	Zn	1.899241	0.487827	0.210779
Zn4	Zn	1.232433	-0.253971	-0.321046
Zn5	Zn	1.565766	0.079363	0.012287
Zn6	Zn	1.899100	0.412696	0.345620
Zn7	Zn	1.097736	-0.178857	-0.321069
Zn8	Zn	1.431069	0.154476	0.012265
Zn9	Zn	1.764403	0.487810	0.345598
Zn10	Zn	1.097662	-0.253945	-0.455836
Zn11	Zn	1.430995	0.079388	-0.122503
Zn12	Zn	1.764329	0.412722	0.210830
O13	O	1.165101	-0.216403	-0.388460
O14	O	1.498435	0.116930	-0.055126
O15	O	1.831768	0.450264	0.278207
O16	O	1.345388	-0.188810	-0.438013
O17	O	1.678721	0.144524	-0.104680
O18	O	2.012055	0.477857	0.228653
O19	O	1.214537	-0.244025	-0.208217
O20	O	1.547870	0.089309	0.125116
O21	O	1.881204	0.422642	0.458450
O22	O	1.115713	-0.115987	-0.338984
O23	O	1.449046	0.217346	-0.005650
O24	O	1.782380	0.550679	0.327683
O25	O	1.345284	-0.244008	-0.338946
O26	O	1.678617	0.089325	-0.005612
O27	O	2.011951	0.422659	0.327721
O28	O	1.214778	-0.115975	-0.438035
O29	O	1.548111	0.217358	-0.104702
O30	O	1.881445	0.550692	0.228632
O31	O	1.115576	-0.188839	-0.208233
O32	O	1.448909	0.144495	0.125100
O33	O	1.782242	0.477828	0.458433
O34	O	0.984894	-0.188814	-0.338933
O35	O	1.318227	0.144520	-0.005600
O36	O	1.651561	0.477853	0.327733
O37	O	1.115586	-0.243964	-0.568676
O38	O	1.448920	0.089369	-0.235342
O39	O	1.782253	0.422703	0.097991
O40	O	0.984839	-0.243981	-0.437947
O41	O	1.318173	0.089353	-0.104613
O42	O	1.651506	0.422686	0.228720
O43	O	1.214706	-0.188785	-0.568714
O44	O	1.548039	0.144549	-0.235380
O45	O	1.881373	0.477882	0.097953
O46	O	1.214465	-0.316834	-0.338896
O47	O	1.547798	0.016499	-0.005562
O48	O	1.881132	0.349832	0.327771
O49	O	1.115449	-0.316815	-0.437925
O50	O	1.448783	0.016518	-0.104592
O51	O	1.782116	0.349851	0.228742
C52	C	0.955610	-0.216397	-0.388437
C53	C	1.288944	0.116937	-0.055104
C54	C	1.622277	0.450270	0.278229
C55	C	0.865989	-0.216405	-0.388447
C56	C	1.199323	0.116929	-0.055113
C57	C	1.532656	0.450262	0.278220
C58	C	1.164956	-0.333126	-0.388420
C59	C	1.498289	0.000208	-0.055087
C60	C	1.831622	0.333541	0.278247
C61	C	1.164967	-0.383060	-0.388430
C62	C	1.498301	-0.049727	-0.055096
C63	C	1.831634	0.283607	0.278237
C64	C	0.537814	-0.216408	-0.388481
C65	C	0.871147	0.116926	-0.055148
C66	C	1.204480	0.450259	0.278185
C67	C	0.629122	-0.216406	-0.388469
C68	C	0.962455	0.116928	-0.055136
C69	C	1.295789	0.450261	0.278198
C70	C	0.701899	-0.216406	-0.388463
C71	C	1.035232	0.116927	-0.055130
C72	C	1.368565	0.450260	0.278203
C73	C	0.793213	-0.216404	-0.388452
C74	C	1.126546	0.116929	-0.055119
C75	C	1.459880	0.450263	0.278214
C76	C	1.216752	-0.692701	-0.336971
C77	C	1.550086	-0.359367	-0.003637
C78	C	1.883419	-0.026034	0.329696
C79	C	1.216852	-0.880374	-0.337002
C80	C	1.550185	-0.547040	-0.003668
C81	C	1.883519	-0.213707	0.329665
O82	O	1.260766	-0.904636	-0.293219
O83	O	1.594100	-0.571303	0.040115
O84	O	1.927433	-0.237969	0.373448
N85	N	1.165268	-0.903845	-0.388521
N86	N	1.498602	-0.570512	-0.055187
N87	N	1.831935	-0.237178	0.278146
C88	C	1.113660	-0.880395	-0.440039
C89	C	1.446993	-0.547062	-0.106706
C90	C	1.780327	-0.213729	0.226628
O91	O	1.069793	-0.904665	-0.483866
O92	O	1.403127	-0.571332	-0.150532
O93	O	1.736460	-0.237999	0.182801
C94	C	1.113565	-0.692723	-0.440011
C95	C	1.446899	-0.359390	-0.106678
C96	C	1.780232	-0.026056	0.226655
C97	C	1.165146	-0.669254	-0.388483
C98	C	1.498480	-0.335921	-0.055150
C99	C	1.831813	-0.002588	0.278183
C100	C	1.268330	-0.669232	-0.285447
C101	C	1.601663	-0.335898	0.047886
C102	C	1.934997	-0.002565	0.381219
C103	C	1.268302	-0.622316	-0.285437
C104	C	1.601635	-0.288983	0.047896
C105	C	1.934968	0.044351	0.381230
C106	C	1.216695	-0.598870	-0.336950
C107	C	1.550029	-0.265536	-0.003616
C108	C	1.883362	0.067797	0.329717
C109	C	1.165118	-0.622339	-0.388473
C110	C	1.498451	-0.289005	-0.055140
C111	C	1.831785	0.044328	0.278194
C112	C	1.061962	-0.669274	-0.491533
C113	C	1.395295	-0.335941	-0.158200
C114	C	1.728628	-0.002608	0.175134
C115	C	1.061944	-0.622353	-0.491523
C116	C	1.395277	-0.289020	-0.158190
C117	C	1.728611	0.044313	0.175144
C118	C	1.113525	-0.598884	-0.439995
C119	C	1.446858	-0.265551	-0.106662
C120	C	1.780192	0.067782	0.226672
C121	C	1.113483	-0.551977	-0.439975
C122	C	1.446817	-0.218644	-0.106642
C123	C	1.780150	0.114690	0.226691
N124	N	1.165067	-0.528505	-0.388456
N125	N	1.498400	-0.195172	-0.055123
N126	N	1.831734	0.138161	0.278210
C127	C	1.216673	-0.551952	-0.336944
C128	C	1.550006	-0.218619	-0.003610
C129	C	1.883340	0.114715	0.329723
C130	C	1.113712	-0.978926	-0.440049
C131	C	1.447046	-0.645593	-0.106716
C132	C	1.780379	-0.312259	0.226618
C133	C	1.113735	-1.025844	-0.440055
C134	C	1.447068	-0.692510	-0.106722
C135	C	1.780402	-0.359177	0.226612
C136	C	1.216928	-1.025819	-0.337019
C137	C	1.550262	-0.692485	-0.003685
C138	C	1.883595	-0.359152	0.329648
C139	C	1.216901	-0.978900	-0.337009
C140	C	1.550234	-0.645567	-0.003676
C141	C	1.883568	-0.312233	0.329658
C142	C	1.165296	-0.955455	-0.388530
C143	C	1.498629	-0.622121	-0.055197
C144	C	1.831963	-0.288788	0.278137
C145	C	1.216609	-0.453426	-0.336925
C146	C	1.549942	-0.120093	-0.003592
C147	C	1.883275	0.213241	0.329742
C148	C	1.216573	-0.406506	-0.336917
C149	C	1.549907	-0.073173	-0.003584
C150	C	1.883240	0.260160	0.329750
C151	C	1.113383	-0.406535	-0.439956
C152	C	1.446717	-0.073202	-0.106623
C153	C	1.780050	0.260131	0.226711
C154	C	1.113416	-0.453451	-0.439962
C155	C	1.446749	-0.120118	-0.106628
C156	C	1.780082	0.213216	0.226705
C157	C	1.165035	-0.476895	-0.388443
C158	C	1.498368	-0.143562	-0.055110
C159	C	1.831701	0.189772	0.278223
O160	O	1.069599	-0.527685	-0.483742
O161	O	1.402932	-0.194352	-0.150409
O162	O	1.736265	0.138981	0.182925
O163	O	1.260546	-0.527674	-0.293136
O164	O	1.593879	-0.194340	0.040197
O165	O	1.927212	0.138993	0.373530
C166	C	1.216781	-0.739616	-0.336981
C167	C	1.550114	-0.406283	-0.003648
C168	C	1.883448	-0.072949	0.329686
C169	C	1.165203	-0.763085	-0.388504
C170	C	1.498537	-0.429752	-0.055171
C171	C	1.831870	-0.096418	0.278163
C172	C	1.113597	-0.739639	-0.440017
C173	C	1.446931	-0.406305	-0.106683
C174	C	1.780264	-0.072972	0.226650
C175	C	1.165226	-0.810003	-0.388510
C176	C	1.498559	-0.476670	-0.055177
C177	C	1.831893	-0.143336	0.278157
C178	C	1.216832	-0.833449	-0.336997
C179	C	1.550165	-0.500116	-0.003664
C180	C	1.883499	-0.166783	0.329669
C181	C	1.268416	-0.809978	-0.285479
C182	C	1.601749	-0.476645	0.047855
C183	C	1.935082	-0.143311	0.381188
C184	C	1.268387	-0.763062	-0.285468
C185	C	1.601720	-0.429729	0.047865
C186	C	1.935054	-0.096396	0.381198
C187	C	1.062014	-0.763110	-0.491536
C188	C	1.395347	-0.429777	-0.158202
C189	C	1.728680	-0.096443	0.175131
C190	C	1.062046	-0.810026	-0.491541
C191	C	1.395379	-0.476692	-0.158208
C192	C	1.728713	-0.143359	0.175125
C193	C	1.113652	-0.833472	-0.440028
C194	C	1.446985	-0.500139	-0.106695
C195	C	1.780319	-0.166805	0.226638
C196	C	1.375410	-0.216410	-0.388483
C197	C	1.708743	0.116924	-0.055150
C198	C	2.042077	0.450257	0.278184
C199	C	1.465031	-0.216413	-0.388493
C200	C	1.798365	0.116921	-0.055159
C201	C	2.131698	0.450254	0.278174
C202	C	1.165154	-0.216370	-0.598769
C203	C	1.498487	0.116964	-0.265435
C204	C	1.831820	0.450297	0.067898
C205	C	1.165176	-0.216355	-0.688390
C206	C	1.498509	0.116978	-0.355057
C207	C	1.831843	0.450311	-0.021723
C208	C	1.165269	-0.099225	-0.388518
C209	C	1.498603	0.234109	-0.055184
C210	C	1.831936	0.567442	0.278149
C211	C	1.165341	-0.049290	-0.388542
C212	C	1.498674	0.284043	-0.055209
C213	C	1.832008	0.617376	0.278124
C214	C	1.165213	-0.216305	-1.016566
C215	C	1.498547	0.117028	-0.683233
C216	C	1.831880	0.450362	-0.349899
C217	C	1.165201	-0.216320	-0.925257
C218	C	1.498534	0.117013	-0.591924
C219	C	1.831867	0.450346	-0.258591
C220	C	1.165195	-0.216330	-0.852481
C221	C	1.498528	0.117003	-0.519148
C222	C	1.831862	0.450336	-0.185814
C223	C	1.165182	-0.216345	-0.761167
C224	C	1.498515	0.116988	-0.427833
C225	C	1.831848	0.450321	-0.094500
C226	C	1.165095	-0.216404	-0.178969
C227	C	1.498429	0.116929	0.154364
C228	C	1.831762	0.450263	0.487698
C229	C	1.165229	-0.216292	-0.089348
C230	C	1.498563	0.117042	0.243985
C231	C	1.831896	0.450375	0.577318
H232	H	1.258577	-0.387399	-0.294954
H233	H	1.591910	-0.054066	0.038379
H234	H	1.925243	0.279267	0.371713
H235	H	1.258948	-1.044917	-0.295075
H236	H	1.592281	-0.711584	0.038258
H237	H	1.925615	-0.378250	0.371592
H238	H	1.071725	-1.044948	-0.482007
H239	H	1.405058	-0.711615	-0.148673
H240	H	1.738392	-0.378282	0.184660
H241	H	1.258644	-0.472509	-0.294976
H242	H	1.591977	-0.139175	0.038357
H243	H	1.925310	0.194158	0.371691
H244	H	1.310389	-0.743957	-0.243509
H245	H	1.643723	-0.410624	0.089824
H246	H	1.977056	-0.077291	0.423157
H247	H	1.071364	-0.387438	-0.481895
H248	H	1.404697	-0.054105	-0.148561
H249	H	1.738030	0.279229	0.184772
H250	H	1.020035	-0.829130	-0.533501
H251	H	1.353369	-0.495797	-0.200167
H252	H	1.686702	-0.162463	0.133166
H253	H	1.071688	-0.959840	-0.482005
H254	H	1.405021	-0.626506	-0.148671
H255	H	1.738354	-0.293173	0.184662
H256	H	1.019991	-0.744024	-0.533485
H257	H	1.353324	-0.410690	-0.200151
H258	H	1.686657	-0.077357	0.133182
H259	H	1.310358	-0.688317	-0.243499
H260	H	1.643692	-0.354983	0.089834
H261	H	1.977025	-0.021650	0.423167
H262	H	1.310306	-0.603210	-0.243481
H263	H	1.643639	-0.269877	0.089852
H264	H	1.976972	0.063456	0.423186
H265	H	1.258903	-0.959794	-0.295051
H266	H	1.592236	-0.626461	0.038282
H267	H	1.925570	-0.293128	0.371616
H268	H	1.019955	-0.688375	-0.533489
H269	H	1.353288	-0.355041	-0.200156
H270	H	1.686621	-0.021708	0.133178
H271	H	1.019922	-0.603266	-0.533480
H272	H	1.353255	-0.269933	-0.200147
H273	H	1.686588	0.063401	0.133186
H274	H	1.071417	-0.472560	-0.481922
H275	H	1.404750	-0.139227	-0.148589
H276	H	1.738083	0.194106	0.184744
H277	H	1.310433	-0.829076	-0.243533
H278	H	1.643766	-0.495743	0.089801
H279	H	1.977100	-0.162410	0.423134
