data_functionalizedCrystal
_audit_creation_method	'MofGen! by Chris Wilmer'
_symmetry_space_group_name_H-M	'P1'
_symmetry_Int_Tables_number	1
_symmetry_cell_setting	triclinic
loop_
_symmetry_equiv_pos_as_xyz
  x,y,z
_cell_length_a	12.594517
_cell_length_b	12.594516
_cell_length_c	12.594509
_cell_angle_alpha	90.026199
_cell_angle_beta	90.021327
_cell_angle_gamma	90.015853
loop_
_atom_site_label
_atom_site_type_symbol
_atom_site_fract_x
_atom_site_fract_y
_atom_site_fract_z
Zn1	Zn	1.627267	-0.423716	0.601875
Zn2	Zn	1.627158	-0.601726	0.423903
Zn3	Zn	1.449271	-0.423761	0.423904
Zn4	Zn	1.449253	-0.601652	0.601833
O5	O	1.538237	-0.512714	0.512879
O6	O	1.776198	-0.447341	0.578284
O7	O	1.603522	-0.578169	0.274957
O8	O	1.472936	-0.274809	0.447530
O9	O	1.776118	-0.578124	0.447528
O10	O	1.603709	-0.274776	0.578285
O11	O	1.472830	-0.447419	0.274958
O12	O	1.300323	-0.447347	0.447489
O13	O	1.472905	-0.577998	0.750784
O14	O	1.300310	-0.578042	0.578213
O15	O	1.603691	-0.447269	0.750815
O16	O	1.603505	-0.750662	0.447488
O17	O	1.472799	-0.750608	0.578212
C18	C	1.261696	-0.512692	0.512847
C19	C	1.143391	-0.512709	0.512859
C20	C	1.074114	-0.441526	0.441894
C21	C	1.003303	-0.538615	0.415718
C22	C	1.003403	-0.415668	0.539054
C23	C	1.074138	-0.609849	0.486632
C24	C	1.074244	-0.486836	0.610013
C25	C	1.003465	-0.583991	0.583874
C26	C	1.538167	-0.789255	0.512868
C27	C	1.538235	-0.907560	0.512899
C28	C	1.467137	-0.976822	0.583950
C29	C	1.441204	-1.047688	0.486827
C30	C	1.564265	-1.047494	0.610039
C31	C	1.512250	-0.976867	0.415725
C32	C	1.635357	-0.976667	0.539002
C33	C	1.609460	-1.047500	0.441812
C34	C	1.815858	-0.512736	0.512911
C35	C	1.934163	-0.512745	0.512924
C36	C	1.538308	-0.512620	0.790500
C37	C	1.538339	-0.512581	0.908805
C38	C	1.538336	-0.235093	0.512912
C39	C	1.538378	-0.116787	0.512927
C40	C	1.538227	-0.512730	0.236338
C41	C	1.538403	-0.512470	0.118033
C42	C	1.467227	-0.583644	0.978042
C43	C	1.564347	-0.609650	1.048833
C44	C	1.441294	-0.486510	1.048813
C45	C	1.635510	-0.538638	0.978038
C46	C	1.512391	-0.415453	0.978012
C47	C	1.609579	-0.441422	1.048772
H48	H	1.105429	-0.464899	0.692122
O49	O	0.966633	-0.655754	0.655624
C50	C	0.863333	-0.684546	0.814028
C51	C	0.904996	-0.603159	0.732867
H52	H	0.813473	-0.642058	0.876486
H53	H	0.933246	-0.725725	0.854142
H54	H	0.812374	-0.746130	0.771487
H55	H	0.955938	-0.541511	0.775326
H56	H	0.835035	-0.562061	0.692756
O57	O	0.966460	-0.317667	0.565337
C58	C	0.960409	-0.131878	0.520126
C59	C	1.002333	-0.242800	0.490265
H60	H	0.989377	-0.071322	0.459435
H61	H	0.990836	-0.109136	0.602313
H62	H	0.869902	-0.133078	0.520703
H63	H	1.092837	-0.241686	0.489627
H64	H	0.971824	-0.265499	0.408098
H65	H	1.359136	-1.078906	0.464772
H66	H	1.586224	-1.078518	0.692178
H67	H	1.490197	-0.945972	0.333563
O68	O	1.395659	-0.655587	0.941033
C69	C	1.342192	-0.839217	0.935190
C70	C	1.423325	-0.757857	0.977152
H71	H	1.364518	-0.921917	0.964394
H72	H	1.342294	-0.838151	0.844678
H73	H	1.259646	-0.817795	0.965495
H74	H	1.505910	-0.779223	0.946926
H75	H	1.423130	-0.758939	1.067663
H76	H	1.669647	-1.078338	0.381669
H77	H	1.717406	-0.945451	0.561104
H78	H	1.105080	-0.691955	0.464413
H79	H	1.586329	-0.691742	1.079941
O80	O	1.733554	-0.564981	0.941294
C81	C	1.913195	-0.613298	0.986017
C82	C	1.802223	-0.583451	1.027775
H83	H	1.968738	-0.628261	1.055916
H84	H	1.945751	-0.545550	0.935611
H85	H	1.907223	-0.688261	0.935596
H86	H	1.808104	-0.508515	1.078240
H87	H	1.769708	-0.651261	1.078123
O88	O	1.395142	-0.939839	0.655408
C89	C	1.211476	-0.934127	0.708633
C90	C	1.292895	-0.976062	0.627625
H91	H	1.128795	-0.963415	0.686212
H92	H	1.212530	-0.843614	0.708490
H93	H	1.232848	-0.964368	0.791220
H94	H	1.271580	-0.945900	0.544998
H95	H	1.291826	-1.066573	0.627861
H96	H	1.669813	-0.381279	1.079632
H97	H	1.105135	-0.381389	0.381807
H98	H	1.490382	-0.333385	0.946881
H99	H	1.359198	-0.464506	1.079902
H100	H	0.972144	-0.560522	0.333584
