data_functionalizedCrystal
_audit_creation_method	'MofGen! by Chris Wilmer'
_symmetry_space_group_name_H-M	'P1'
_symmetry_Int_Tables_number	1
_symmetry_cell_setting	triclinic
loop_
_symmetry_equiv_pos_as_xyz
  x,y,z
_cell_length_a	19.902436
_cell_length_b	23.196402
_cell_length_c	23.196402
_cell_angle_alpha	60.005245
_cell_angle_beta	59.997492
_cell_angle_gamma	90.006574
loop_
_atom_site_label
_atom_site_type_symbol
_atom_site_fract_x
_atom_site_fract_y
_atom_site_fract_z
Zr1	Zr	0.647333	-0.075581	0.630931
O2	O	0.540036	-0.167634	0.751206
O3	O	0.680223	-0.047366	0.510663
O4	O	0.680215	-0.167629	0.630926
O5	O	0.540053	0.047500	0.630944
O6	O	0.790794	-0.167621	0.630915
O7	O	0.540044	-0.047370	0.630942
O8	O	0.790808	0.047508	0.415786
O9	O	0.540039	-0.167630	0.846073
O10	O	0.776777	-0.035322	0.560120
O11	O	0.694260	0.035473	0.560130
O12	O	0.694251	-0.106122	0.701724
O13	O	0.611734	-0.035327	0.701734
Zr14	Zr	0.823709	0.075738	0.630916
Zr15	Zr	0.823694	-0.075569	0.630913
Zr16	Zr	0.647348	0.075725	0.630934
Zr17	Zr	0.647338	-0.075575	0.782234
Zr18	Zr	0.823704	0.075731	0.479613
O19	O	0.790819	0.047522	0.751184
O20	O	0.790798	-0.167616	0.751180
O21	O	0.540057	0.047505	0.751209
O22	O	0.931006	0.167790	0.510641
O23	O	0.930985	-0.047348	0.510638
O24	O	0.680244	0.167773	0.510666
O25	O	0.930989	-0.047343	0.630903
O26	O	0.790827	0.167786	0.630920
O27	O	0.680248	0.167778	0.630932
O28	O	0.930998	0.047527	0.630904
O29	O	0.680222	-0.167620	0.846059
O30	O	0.790820	0.167776	0.415788
O31	O	0.931003	0.167786	0.415774
O32	O	0.930991	0.047518	0.415772
O33	O	0.540051	-0.047361	0.846075
O34	O	0.680234	-0.047351	0.846061
O35	O	0.776791	0.106279	0.560122
O36	O	0.859308	0.035484	0.560113
O37	O	0.776782	-0.035316	0.701717
O38	O	0.694265	0.035479	0.701727
C39	C	0.514921	0.000063	0.630946
C40	C	0.440051	0.000058	0.630953
C41	C	0.735515	0.000070	0.441667
C42	C	0.735513	0.000067	0.377435
C43	C	0.735540	0.189340	0.630926
C44	C	0.735546	0.253573	0.630927
C45	C	0.168049	0.000085	0.630913
C46	C	0.144481	-0.044363	0.720240
C47	C	0.222319	-0.044610	0.720296
C48	C	0.302992	0.000072	0.630934
C49	C	0.300577	-0.032500	0.586571
C50	C	0.222349	-0.032828	0.587143
C51	C	0.223347	0.077125	0.585310
C52	C	0.300268	0.077006	0.586988
C53	C	0.379259	0.000064	0.630940
C54	C	0.091784	0.000090	0.630904
C55	C	0.956121	0.000094	0.630901
C56	C	1.030991	0.000099	0.630894
C57	C	0.735502	-0.189183	0.630920
C58	C	0.735496	-0.253417	0.630920
C59	C	0.692472	0.246792	0.704841
C60	C	0.692460	0.307146	0.704842
C61	C	0.735538	0.374282	0.630925
C62	C	0.778614	0.381061	0.557002
C63	C	0.778618	0.320707	0.557003
C64	C	0.807688	0.498222	0.574291
C65	C	0.807686	0.558573	0.574293
C66	C	0.735524	0.560436	0.630919
C67	C	0.663365	0.501932	0.687557
C68	C	0.663369	0.441578	0.687558
C69	C	0.735538	0.439730	0.630916
C70	C	0.692433	0.619094	0.704839
C71	C	0.692418	0.679451	0.704837
C72	C	0.778581	0.753366	0.556995
C73	C	0.778587	0.693009	0.556999
C74	C	0.735515	0.625876	0.630923
C75	C	0.778580	-0.036889	0.347260
C76	C	0.778588	-0.036883	0.286899
C77	C	0.735513	0.000069	0.256727
C78	C	0.692444	0.037034	0.286906
C79	C	0.692444	0.037033	0.347261
C80	C	0.663358	-0.005210	0.194705
C81	C	0.663355	-0.005214	0.134356
C82	C	0.735514	0.000076	0.070572
C83	C	0.807674	0.005357	0.067153
C84	C	0.807674	0.005356	0.127507
C85	C	0.735508	0.000075	0.191283
C86	C	0.778593	-0.036876	-0.025054
C87	C	0.778604	-0.036865	-0.085420
C88	C	0.692451	0.037048	-0.085405
C89	C	0.692449	0.037042	-0.025047
C90	C	0.735518	0.000076	0.005128
C91	C	0.735527	0.000086	0.820180
C92	C	0.735529	0.000089	0.884412
C93	C	0.956115	0.000086	0.441645
C94	C	1.030982	0.000088	0.377405
C95	C	0.735534	0.189332	0.441670
C96	C	0.735538	0.253563	0.377439
C97	C	0.956134	0.189347	0.441648
C98	C	1.031007	0.253583	0.377409
C99	C	0.514908	-0.189190	0.820199
C100	C	0.440034	-0.253426	0.884437
C101	C	0.514927	0.000071	0.820202
C102	C	0.440059	0.000069	0.884441
C103	C	0.735508	-0.189175	0.820177
C104	C	0.735504	-0.253406	0.884408
C105	C	1.023061	-0.036877	0.347242
C106	C	1.093400	-0.036889	0.286890
C107	C	1.171660	0.000069	0.256700
C108	C	1.179580	0.037035	0.286869
C109	C	1.109242	0.037043	0.347224
C110	C	0.778620	0.320692	0.347272
C111	C	0.778621	0.381050	0.286929
C112	C	0.735544	0.374276	0.256750
C113	C	0.692456	0.307139	0.286923
C114	C	0.692451	0.246783	0.347269
C115	C	1.109249	0.246795	0.347237
C116	C	1.179608	0.307146	0.286887
C117	C	1.171723	0.374284	0.256706
C118	C	1.093473	0.381071	0.286883
C119	C	1.023116	0.320721	0.347237
C120	C	0.361793	-0.246638	0.914617
C121	C	0.291434	-0.306989	0.974986
C122	C	0.299319	-0.374127	1.005171
C123	C	0.377569	-0.380914	0.974989
C124	C	0.447926	-0.320564	0.914625
C125	C	0.447981	0.037028	0.914611
C126	C	0.377642	0.037023	0.974979
C127	C	0.299382	0.000063	1.005172
C128	C	0.291462	-0.036901	0.975000
C129	C	0.361800	-0.036900	0.914637
C130	C	0.778589	-0.246609	0.914567
C131	C	0.778601	-0.306955	0.974911
C132	C	0.735523	-0.374097	1.005098
C133	C	0.692436	-0.380892	0.974932
C134	C	0.692429	-0.320547	0.914585
H135	H	0.221043	-0.022932	0.755279
H136	H	0.813669	-0.191944	0.889999
Br137	Br	0.633980	0.155680	0.388200
Br138	Br	0.565420	-0.012390	0.281265
H139	H	0.657363	-0.435567	0.999520
H140	H	0.866453	0.496717	0.528171
Br141	Br	1.120007	0.087219	0.388149
Br142	Br	1.267217	0.456182	0.174796
Br143	Br	0.837079	0.329911	0.456684
Br144	Br	1.082786	0.472193	0.245914
H145	H	1.086935	-0.066991	0.262334
H146	H	0.657372	0.067122	0.262336
Br147	Br	0.633997	0.087200	0.015909
Br148	Br	0.916933	0.329946	0.388174
H149	H	0.813699	0.326221	0.371837
H150	H	0.813686	-0.301409	0.999466
Br151	Br	0.565424	-0.012387	0.139005
H152	H	1.115685	0.192133	0.371802
H153	H	0.813679	-0.066957	-0.109993
Br154	Br	0.633943	-0.329784	0.873668
H155	H	1.243316	0.301607	0.262322
H156	H	0.355357	-0.191976	0.890044
Br157	Br	0.161426	-0.127316	0.639691
H158	H	0.657384	0.301634	0.262342
Br159	Br	1.285797	0.087192	0.245885
Br160	Br	0.185248	-0.297762	1.015933
H161	H	0.813711	0.435710	0.262369
H162	H	0.511698	0.067130	0.890033
Br163	Br	0.905613	0.637965	0.497426
Br164	Br	0.735539	-0.455988	1.086999
H165	H	0.657371	0.067128	0.371830
H166	H	1.228928	0.000058	0.207555
Br167	Br	0.916860	-0.087043	0.388204
H168	H	0.242023	-0.423263	1.054322
Br169	Br	0.837035	0.844474	0.456677
H170	H	0.813687	0.435727	0.496818
H171	H	0.735555	0.423427	0.207612
H172	H	0.357729	0.112911	0.521793
H173	H	0.105317	-0.022627	0.755301
H174	H	0.187038	0.104332	0.613895
Br175	Br	0.299666	0.117573	0.640885
H176	H	0.243266	0.110399	0.519507
Br177	Br	0.388256	-0.472036	1.015961
H178	H	0.511632	-0.326099	0.890053
Br179	Br	0.634011	0.155685	0.805166
Br180	Br	0.388410	0.087193	1.015913
H181	H	0.813666	-0.066973	-0.000487
H182	H	0.242114	0.000068	1.054324
Br183	Br	0.633992	0.087201	-0.126348
Br184	Br	0.185245	-0.087056	1.015982
H185	H	0.355339	-0.066994	0.890074
Br186	Br	0.837031	-0.087056	0.388209
H187	H	0.220539	-0.101438	0.755311
Br188	Br	0.254591	0.017630	0.477913
Br189	Br	0.395267	0.018862	0.477056
Br190	Br	0.077952	-0.138513	0.778392
H191	H	0.302123	-0.088651	0.617380
H192	H	0.604614	0.393947	0.733673
Br193	Br	0.565425	0.504447	0.764417
Br194	Br	0.633978	0.527983	0.805162
Br195	Br	0.633930	0.670245	0.805158
Br196	Br	0.837050	0.702213	0.456682
Br197	Br	0.837052	-0.087032	0.245927
Br198	Br	0.634012	0.297948	0.805160
H199	H	0.866429	0.009657	0.124719
H200	H	0.866434	0.009674	0.015214
