data_functionalizedCrystal
_audit_creation_method	'MofGen! by Chris Wilmer'
_symmetry_space_group_name_H-M	'P1'
_symmetry_Int_Tables_number	1
_symmetry_cell_setting	triclinic
loop_
_symmetry_equiv_pos_as_xyz
  x,y,z
_cell_length_a	13.262522
_cell_length_b	13.339070
_cell_length_c	16.776229
_cell_angle_alpha	89.996888
_cell_angle_beta	74.077118
_cell_angle_gamma	99.428816
loop_
_atom_site_label
_atom_site_type_symbol
_atom_site_fract_x
_atom_site_fract_y
_atom_site_fract_z
O1	O	1.432431	0.136428	-0.376820
O2	O	1.131162	0.151262	-0.311510
O3	O	1.247221	-0.003565	-0.336667
O4	O	1.316373	0.291254	-0.351663
O5	O	1.247196	-0.003574	-0.204086
O6	O	1.131138	0.151252	-0.178928
O7	O	1.432407	0.136418	-0.244239
Zn8	Zn	1.281769	0.143833	-0.190533
Zn9	Zn	1.281800	0.143846	-0.365215
O10	O	1.316348	0.291244	-0.219081
C11	C	1.091803	0.150425	-0.236689
C12	C	0.974559	0.147936	-0.211273
C13	C	0.919472	0.146763	-0.127057
C14	C	0.809313	0.144415	-0.103170
C15	C	0.754232	0.143247	-0.163496
C16	C	0.809320	0.144427	-0.247714
C17	C	0.919488	0.146768	-0.271603
C18	C	0.754249	0.143252	-0.308042
C19	C	0.809337	0.144432	-0.392259
C20	C	0.919495	0.146774	-0.416145
C21	C	0.974576	0.147941	-0.355818
C22	C	0.644081	0.140911	-0.284153
C23	C	0.644097	0.140916	-0.428698
C24	C	0.754256	0.143265	-0.452586
C25	C	1.235527	-0.041308	-0.267845
C26	C	1.200709	-0.153756	-0.260300
C27	C	1.471440	-0.517409	-0.318990
C28	C	1.504157	-0.411759	-0.326075
C29	C	1.428298	-0.347253	-0.309632
C30	C	1.319716	-0.388408	-0.286103
C31	C	1.286995	-0.494069	-0.279011
C32	C	1.243853	-0.323913	-0.269653
C33	C	1.135271	-0.365067	-0.246123
C34	C	1.102557	-0.470718	-0.239033
C35	C	1.178416	-0.535224	-0.255476
C36	C	1.276574	-0.218252	-0.276745
C37	C	1.092129	-0.194911	-0.236765
C38	C	1.059412	-0.300562	-0.229680
C39	C	1.471766	0.137254	-0.319061
C40	C	1.589010	0.139743	-0.344483
C41	C	1.328042	0.328987	-0.287905
C42	C	1.362860	0.441436	-0.295455
N43	N	1.281754	0.143824	-0.071319
N44	N	1.281821	0.143847	-0.484431
C45	C	1.333175	0.075295	-0.040748
C46	C	1.333181	0.075295	0.042703
C47	C	1.281771	0.143828	0.095580
C48	C	1.230344	0.212360	0.065005
C49	C	1.230332	0.212355	-0.018443
C50	C	1.230388	0.212380	0.401543
C51	C	1.230406	0.212382	0.484995
C52	C	1.333236	0.075320	0.462689
C53	C	1.333224	0.075315	0.379241
C54	C	1.281793	0.143843	0.348674
C55	C	1.281785	0.143841	0.258187
C56	C	1.281784	0.143835	0.186064
H57	H	0.964327	0.147706	-0.077949
C58	C	0.814866	0.144554	-0.545223
N59	N	0.860518	0.145522	-0.614997
C60	C	1.173776	0.287750	-0.052072
N61	N	1.131177	0.344541	-0.077400
C62	C	1.389730	-0.000099	-0.098906
N63	N	1.432324	-0.056891	-0.142708
C64	C	0.980085	0.148051	-0.508785
N65	N	1.025720	0.149009	-0.578563
C66	C	1.095757	0.150522	-0.382090
N67	N	1.187032	0.152464	-0.401876
H68	H	1.375050	0.019493	0.067593
H69	H	1.375110	0.019517	0.487586
C70	C	1.173986	0.287895	0.367892
N71	N	1.131564	0.344823	0.342531
H72	H	1.454943	-0.261228	-0.315402
C73	C	0.939974	-0.345846	-0.203787
N74	N	0.850013	-0.379956	-0.184281
C75	C	1.173781	0.287738	0.123176
N76	N	1.131175	0.344514	0.166990
H77	H	0.599251	0.139967	-0.477821
C78	C	0.583498	0.139624	-0.191516
N79	N	0.537869	0.138660	-0.121737
H80	H	1.592564	-0.378259	-0.345232
C81	C	0.748727	0.143138	-0.010535
N82	N	0.703095	0.142185	0.059243
H83	H	1.364981	-0.184754	-0.295903
H84	H	1.533192	-0.569938	-0.332369
C85	C	1.008678	-0.123959	-0.218679
N86	N	0.945828	-0.070511	-0.205057
C87	C	1.173840	0.287771	0.543162
N88	N	1.131236	0.344550	0.586973
C89	C	0.983114	-0.515985	-0.213142
N90	N	0.893148	-0.550078	-0.193641
C91	C	1.142432	-0.651447	-0.247674
N92	N	1.115332	-0.738989	-0.241794
H93	H	1.375091	0.019512	0.336189
H94	H	0.664536	0.141337	-0.144042
