data_functionalizedCrystal
_audit_creation_method	'MofGen! by Chris Wilmer'
_symmetry_space_group_name_H-M	'P1'
_symmetry_Int_Tables_number	1
_symmetry_cell_setting	triclinic
loop_
_symmetry_equiv_pos_as_xyz
  x,y,z
_cell_length_a	17.038272
_cell_length_b	26.809956
_cell_length_c	17.038272
_cell_angle_alpha	90.004459
_cell_angle_beta	88.888444
_cell_angle_gamma	90.003765
loop_
_atom_site_label
_atom_site_type_symbol
_atom_site_fract_x
_atom_site_fract_y
_atom_site_fract_z
O1	O	1.048760	0.041418	-0.170526
O2	O	1.548760	0.541418	0.329474
O3	O	0.820948	0.041432	-0.167818
O4	O	1.320948	0.541432	0.332182
O5	O	0.933500	0.041421	-0.055266
O6	O	1.433500	0.541421	0.444734
O7	O	0.936208	0.041429	-0.283078
O8	O	1.436208	0.541429	0.216922
O9	O	0.933479	-0.041538	-0.055283
O10	O	1.433479	0.458462	0.444717
O11	O	0.820927	-0.041527	-0.167835
O12	O	1.320927	0.458473	0.332165
O13	O	1.048738	-0.041542	-0.170543
O14	O	1.548738	0.458458	0.329457
Zn15	Zn	0.934829	-0.054706	-0.169192
Zn16	Zn	1.434829	0.445294	0.330808
Zn17	Zn	0.934858	0.054597	-0.169170
Zn18	Zn	1.434858	0.554597	0.330830
O19	O	0.936187	-0.041530	-0.283095
O20	O	1.436187	0.458470	0.216905
C21	C	0.791645	-0.000045	-0.165364
C22	C	1.291645	0.499955	0.334636
C23	C	0.704361	-0.000040	-0.158016
C24	C	1.204361	0.499960	0.341984
N25	N	0.934816	-0.129302	-0.169207
N26	N	1.434816	0.370698	0.330793
C27	C	0.658752	-0.000038	-0.225479
C28	C	1.158752	0.499962	0.274521
C29	C	0.576740	-0.000045	-0.218570
C30	C	1.076740	0.499955	0.281430
C31	C	0.540339	-0.000051	-0.144197
C32	C	1.040339	0.499949	0.355803
C33	C	0.585954	-0.000054	-0.076728
C34	C	1.085954	0.499946	0.423272
C35	C	0.667965	-0.000050	-0.083638
C36	C	1.167965	0.499950	0.416362
C37	C	0.292951	-0.000065	-0.119787
C38	C	0.792951	0.499935	0.380213
C39	C	0.210935	-0.000067	-0.112882
C40	C	0.710935	0.499933	0.387118
C41	C	0.201726	-0.000059	-0.254725
C42	C	0.701726	0.499941	0.245275
C43	C	0.283739	-0.000052	-0.261628
C44	C	0.783739	0.499948	0.238372
C45	C	0.329347	-0.000058	-0.194159
C46	C	0.829347	0.499942	0.305841
C47	C	0.456510	-0.000056	-0.137133
C48	C	0.956510	0.499944	0.362867
C49	C	0.413174	-0.000056	-0.201224
C50	C	0.913174	0.499944	0.298776
C51	C	0.984690	-0.473933	-0.119344
C52	C	1.484690	0.026067	0.380656
C53	C	0.984707	-0.682811	-0.119334
C54	C	1.484707	-0.182811	0.380666
O55	O	1.027081	-0.709819	-0.076941
O56	O	1.527081	-0.209819	0.423059
N57	N	0.934861	-0.708929	-0.169153
N58	N	1.434861	-0.208929	0.330847
C59	C	0.885002	-0.682825	-0.218974
C60	C	1.385002	-0.182825	0.281026
O61	O	0.842599	-0.709833	-0.261342
O62	O	1.342599	-0.209833	0.238658
C63	C	0.884981	-0.473948	-0.218980
C64	C	1.384981	0.026052	0.281020
C65	C	0.934837	-0.447832	-0.169164
C66	C	1.434837	0.052168	0.330836
C67	C	1.034541	-0.447817	-0.069531
C68	C	1.534541	0.052183	0.430469
C69	C	1.034539	-0.395601	-0.069537
C70	C	1.534539	0.104399	0.430463
C71	C	0.984686	-0.369500	-0.119357
C72	C	1.484686	0.130500	0.380643
C73	C	0.934835	-0.395616	-0.169170
C74	C	1.434835	0.104384	0.330830
C75	C	0.835119	-0.447845	-0.268797
C76	C	1.335119	0.052155	0.231203
C77	C	0.835117	-0.395622	-0.268793
C78	C	1.335117	0.104378	0.231207
C79	C	0.884973	-0.369507	-0.218976
C80	C	1.384973	0.130493	0.281024
C81	C	0.884980	-0.317299	-0.218995
C82	C	1.384980	0.182701	0.281005
N83	N	0.934827	-0.291181	-0.169176
N84	N	1.434827	0.208819	0.330824
C85	C	0.984680	-0.317281	-0.119357
C86	C	1.484680	0.182719	0.380643
C87	C	0.885018	-0.792488	-0.218968
C88	C	1.385018	-0.292488	0.281032
C89	C	0.885024	-0.844707	-0.218968
C90	C	1.385024	-0.344707	0.281032
C91	C	0.984729	-0.844689	-0.119326
C92	C	1.484729	-0.344689	0.380674
C93	C	0.984726	-0.792469	-0.119331
C94	C	1.484726	-0.292469	0.380669
C95	C	0.934865	-0.766370	-0.169149
C96	C	1.434865	-0.266370	0.330851
C97	C	0.984672	-0.207623	-0.119375
C98	C	1.484672	0.292377	0.380625
C99	C	0.984668	-0.155402	-0.119387
C100	C	1.484668	0.344598	0.380613
C101	C	0.884962	-0.155425	-0.219026
C102	C	1.384962	0.344575	0.280974
C103	C	0.884968	-0.207641	-0.219016
C104	C	1.384968	0.292359	0.280984
C105	C	0.934826	-0.233739	-0.169184
C106	C	1.434826	0.266261	0.330816
O107	O	0.842623	-0.290259	-0.261359
O108	O	1.342623	0.209741	0.238641
O109	O	1.027064	-0.290264	-0.076983
O110	O	1.527064	0.209736	0.423017
C111	C	0.984692	-0.526149	-0.119338
C112	C	1.484692	-0.026149	0.380662
C113	C	0.934841	-0.552265	-0.169151
C114	C	1.434841	-0.052265	0.330849
C115	C	0.884988	-0.526164	-0.218970
C116	C	1.384988	-0.026164	0.281030
C117	C	0.934847	-0.604484	-0.169151
C118	C	1.434847	-0.104484	0.330849
C119	C	0.984700	-0.630584	-0.119331
C120	C	1.484700	-0.130584	0.380669
C121	C	1.034546	-0.604466	-0.069513
C122	C	1.534546	-0.104466	0.430487
C123	C	1.034544	-0.552250	-0.069519
C124	C	1.534544	-0.052250	0.430481
C125	C	0.835141	-0.552283	-0.268789
C126	C	1.335141	-0.052283	0.231211
C127	C	0.835148	-0.604499	-0.268780
C128	C	1.335148	-0.104499	0.231220
C129	C	0.885000	-0.630600	-0.218960
C130	C	1.385000	-0.130600	0.281040
C131	C	1.078042	-0.000063	-0.172997
C132	C	1.578042	0.499937	0.327003
C133	C	1.165326	-0.000065	-0.180346
C134	C	1.665326	0.499935	0.319654
C135	C	0.931027	-0.000058	-0.025982
C136	C	1.431027	0.499942	0.474018
C137	C	0.923679	-0.000058	0.061301
C138	C	1.423679	0.499942	0.561301
N139	N	0.934877	0.129193	-0.169149
N140	N	1.434877	0.629193	0.330851
C141	C	0.938660	-0.000050	-0.312379
C142	C	1.438660	0.499950	0.187621
C143	C	0.946008	-0.000047	-0.399663
C144	C	1.446008	0.499953	0.100337
C145	C	0.991142	-0.000063	0.106911
C146	C	1.491142	0.499937	0.606911
C147	C	0.984233	-0.000057	0.188923
C148	C	1.484233	0.499943	0.688923
C149	C	0.909860	-0.000051	0.225324
C150	C	1.409860	0.499949	0.725324
C151	C	0.842391	-0.000045	0.179708
C152	C	1.342391	0.499955	0.679708
C153	C	0.849301	-0.000046	0.097698
C154	C	1.349301	0.499954	0.597698
C155	C	0.885449	-0.000043	0.472712
C156	C	1.385449	0.499957	0.972712
C157	C	0.878545	-0.000042	0.554728
C158	C	1.378545	0.499958	1.054728
C159	C	1.020387	-0.000054	0.563937
C160	C	1.520387	0.499946	1.063937
C161	C	1.027291	-0.000059	0.481924
C162	C	1.527291	0.499941	0.981924
C163	C	0.959822	-0.000050	0.436316
C164	C	1.459822	0.499950	0.936316
C165	C	0.902796	-0.000047	0.309153
C166	C	1.402796	0.499953	0.809153
C167	C	0.966886	-0.000050	0.352488
C168	C	1.466886	0.499950	0.852488
H169	H	0.688384	-0.000033	-0.286042
H170	H	1.188384	0.499967	0.213958
H171	H	1.025270	-0.134141	-0.078821
H172	H	1.525270	0.365859	0.421179
H173	H	1.087853	-0.000064	0.452293
H174	H	1.587853	0.499936	0.952293
F175	F	0.799383	-0.000038	0.593467
F176	F	1.299383	0.499962	1.093467
H177	H	0.844379	-0.228905	-0.259589
H178	H	1.344379	0.271095	0.240411
F179	F	0.823644	-0.000038	0.347901
F180	F	1.323644	0.499962	0.847901
F181	F	1.046037	-0.000054	0.313746
F182	F	1.546037	0.499946	0.813746
F183	F	0.813642	-0.000032	0.424182
F184	F	1.313642	0.499968	0.924182
F185	F	0.831908	-0.127639	-0.272047
F186	F	1.331908	0.372361	0.227953
F187	F	0.322473	-0.000044	-0.340786
F188	F	0.822473	0.499956	0.159214
H189	H	0.164583	-0.000055	-0.309653
H190	H	0.664583	0.499945	0.190347
F191	F	1.087606	-0.632253	-0.016494
F192	F	1.587606	-0.132253	0.483506
F193	F	0.716505	-0.000054	-0.011834
F194	F	1.216505	0.499946	0.488166
H195	H	0.781835	-0.000036	0.209353
H196	H	1.281835	0.499964	0.709353
F197	F	0.777497	-0.000039	0.049157
F198	F	1.277497	0.499961	0.549157
F199	F	1.037737	-0.235391	-0.066338
F200	F	1.537737	0.264609	0.433662
H201	H	0.539608	-0.000043	-0.273507
H202	H	1.039608	0.499957	0.226493
H203	H	0.844436	-0.865967	-0.259542
H204	H	1.344436	-0.365967	0.240458
F205	F	0.782078	-0.524510	-0.321816
F206	F	1.282078	-0.024510	0.178184
F207	F	0.341480	-0.000071	-0.047979
F208	F	0.841480	0.499929	0.452021
F209	F	0.172196	-0.000081	-0.033720
F210	F	0.672196	0.499919	0.466280
F211	F	0.547212	-0.000063	0.002426
F212	F	1.047212	0.499937	0.502426
F213	F	0.451917	-0.000053	-0.280375
F214	F	0.951917	0.499947	0.219625
F215	F	1.092187	-0.000063	0.612481
F216	F	1.592187	0.499937	1.112481
H217	H	1.075133	-0.374340	-0.028970
H218	H	1.575133	0.125660	0.471030
F219	F	0.417762	-0.000060	-0.057982
F220	F	0.917762	0.499940	0.442018
F221	F	1.087604	-0.475588	-0.016501
F222	F	1.587604	0.024412	0.483499
F223	F	0.782055	-0.475630	-0.321817
F224	F	1.282055	0.024370	0.178183
F225	F	1.037786	-0.872477	-0.066305
F226	F	1.537786	-0.372477	0.433695
F227	F	1.037787	-0.764680	-0.066309
F228	F	1.537787	-0.264680	0.433691
F229	F	0.831948	-0.764716	-0.271996
F230	F	1.331948	-0.264716	0.228004
H231	H	0.794512	-0.374374	-0.309360
H232	H	1.294512	0.125626	0.190640
H233	H	1.075141	-0.530990	-0.028953
H234	H	1.575141	-0.030990	0.471047
H235	H	1.051705	-0.000071	0.077279
H236	H	1.551705	0.499929	0.577279
F237	F	0.782085	-0.632288	-0.321809
F238	F	1.282085	-0.132288	0.178191
H239	H	1.039170	-0.000062	0.226054
H240	H	1.539170	0.499938	0.726054
