data_functionalizedCrystal
_audit_creation_method	'MofGen! by Chris Wilmer'
_symmetry_space_group_name_H-M	'P1'
_symmetry_Int_Tables_number	1
_symmetry_cell_setting	triclinic
loop_
_symmetry_equiv_pos_as_xyz
  x,y,z
_cell_length_a	11.026607
_cell_length_b	15.712078
_cell_length_c	9.482900
_cell_angle_alpha	102.139378
_cell_angle_beta	78.636152
_cell_angle_gamma	114.083583
loop_
_atom_site_label
_atom_site_type_symbol
_atom_site_fract_x
_atom_site_fract_y
_atom_site_fract_z
O1	O	1.796596	0.377430	-0.120898
O2	O	1.423639	0.333156	-0.120899
O3	O	1.560501	0.221746	-0.120891
O4	O	1.659734	0.488840	-0.120906
O5	O	1.532753	0.244492	0.120899
O6	O	1.395891	0.355902	0.120891
O7	O	1.768847	0.400176	0.120893
Cu8	Cu	1.579836	0.380116	0.142970
Cu9	Cu	1.612651	0.353216	-0.142976
O10	O	1.631986	0.511586	0.120885
C11	C	1.360929	0.336362	-0.000004
C12	C	1.215409	0.312014	-0.000005
C13	C	1.171443	0.379242	-0.000009
C14	C	1.021040	0.354079	-0.000010
C15	C	1.530416	0.198393	0.000003
C16	C	1.482097	0.094919	-0.000001
C17	C	1.892343	-0.208345	-0.000014
C18	C	1.846909	-0.305576	-0.000013
C19	C	1.619253	-0.320383	-0.000015
C20	C	1.664667	-0.223151	-0.000008
C21	C	1.801213	-0.167139	-0.000009
C22	C	1.573537	-0.181945	-0.000004
C23	C	1.618949	-0.084722	-0.000005
C24	C	1.755490	-0.028704	-0.000010
C25	C	1.846625	-0.069916	-0.000010
C26	C	1.436993	-0.237959	-0.000013
C27	C	1.345863	-0.196753	-0.000009
C28	C	1.391273	-0.099527	0.000001
C29	C	1.527814	-0.043510	-0.000005
C30	C	1.300138	-0.058316	0.000001
C31	C	1.345550	0.038907	-0.000000
C32	C	1.573226	0.053713	-0.000006
C33	C	1.831558	0.396970	-0.000005
C34	C	1.977080	0.421317	-0.000014
C35	C	1.662071	0.534939	-0.000012
C36	C	1.710392	0.638412	-0.000018
N37	N	1.556765	0.399037	0.344088
N38	N	1.635729	0.334289	-0.344095
C39	C	1.605835	0.358791	0.416291
C40	C	1.586652	0.374542	0.583707
H41	H	1.245148	0.455429	-0.000005
H42	H	1.271343	0.072458	0.000005
H43	H	2.003531	-0.162735	0.000001
H44	H	1.400024	-0.317125	-0.000021
H45	H	1.921130	-0.339122	-0.000026
H46	H	0.947341	0.277885	-0.000043
O47	O	1.710188	0.273189	0.573640
H48	H	1.713575	0.270405	0.455054
O49	O	1.198594	-0.257175	0.000004
H50	H	1.164023	-0.251342	-0.098545
O51	O	1.482307	0.460132	0.426362
H52	H	1.478935	0.462923	0.544947
H53	H	1.050780	0.497510	-0.000009
H54	H	1.141707	0.235824	-0.000038
H55	H	1.188963	-0.103936	-0.000013
H56	H	1.684414	0.099323	0.000009
H57	H	1.662042	0.312669	0.354166
O58	O	1.512215	0.435656	0.665972
H59	H	1.408661	0.405455	0.636880
O60	O	1.804470	0.076161	0.000000
H61	H	1.876889	0.095725	-0.098554
O62	O	1.993902	-0.009490	-0.000010
H63	H	2.049649	-0.054474	-0.000017
O64	O	1.471979	-0.380794	0.000006
H65	H	1.455707	-0.455321	0.000019
