data_functionalizedCrystal
_audit_creation_method	'MofGen! by Chris Wilmer'
_symmetry_space_group_name_H-M	'P1'
_symmetry_Int_Tables_number	1
_symmetry_cell_setting	triclinic
loop_
_symmetry_equiv_pos_as_xyz
  x,y,z
_cell_length_a	16.109301
_cell_length_b	16.992695
_cell_length_c	14.586319
_cell_angle_alpha	89.995905
_cell_angle_beta	89.999213
_cell_angle_gamma	87.064852
loop_
_atom_site_label
_atom_site_type_symbol
_atom_site_fract_x
_atom_site_fract_y
_atom_site_fract_z
O1	O	1.109856	0.100784	-0.076183
O2	O	0.868631	0.113326	-0.076198
O3	O	0.988277	-0.007087	-0.076183
O4	O	0.990211	0.221197	-0.076198
O5	O	0.988268	-0.007089	0.076298
O6	O	0.868622	0.113324	0.076283
O7	O	1.109847	0.100782	0.076298
Cu8	Cu	0.989234	0.107053	0.090213
Cu9	Cu	0.989244	0.107055	-0.090113
O10	O	0.990202	0.221196	0.076283
C11	C	0.837618	0.112817	0.000041
C12	C	0.745221	0.111294	0.000035
C13	C	0.527480	0.179203	0.000042
C14	C	0.440664	0.177766	0.000048
C15	C	0.451005	0.034899	0.000053
C16	C	0.537819	0.036337	0.000054
C17	C	0.576055	0.108492	0.000043
C18	C	0.402424	0.105616	0.000049
C19	C	0.308294	0.104057	0.000055
C20	C	0.670191	0.110051	0.000039
C21	C	0.985784	-0.036300	0.000057
C22	C	0.978361	-0.123343	0.000056
C23	C	1.049987	-0.173601	0.000062
C24	C	1.043007	-0.255386	0.000052
C25	C	0.964400	-0.286911	0.000045
C26	C	0.892768	-0.236645	0.000037
C27	C	0.899749	-0.154862	0.000039
C28	C	0.935467	-0.530501	0.000030
C29	C	0.928491	-0.612291	0.000030
C30	C	1.078731	-0.631026	0.000045
C31	C	1.085704	-0.549240	0.000053
C32	C	1.014073	-0.498982	0.000040
N33	N	0.957263	-0.370508	0.000038
N34	N	1.021210	-0.415387	0.000040
C35	C	1.140860	0.101291	0.000057
C36	C	1.233257	0.102814	0.000057
C37	C	0.992694	0.250408	0.000041
C38	C	1.000118	0.337451	0.000036
N39	N	0.989232	0.107051	0.217045
N40	N	0.989252	0.107051	-0.216945
C41	C	1.042231	0.053750	0.452058
C42	C	1.042233	0.053748	0.548039
C43	C	0.936247	0.160355	0.548036
C44	C	0.936241	0.160352	0.452056
C45	C	0.989238	0.107051	0.404070
C46	C	0.989246	0.107051	0.596030
C47	C	0.989248	0.107050	0.700098
C48	C	0.989235	0.107051	0.299996
H49	H	0.419863	-0.023846	0.000067
O50	O	1.170491	-0.515245	0.000063
H51	H	1.163311	-0.449932	0.000074
H52	H	1.137048	-0.671954	0.000053
O53	O	1.120267	-0.309587	0.000065
H54	H	1.120697	-0.347285	-0.062091
O55	O	1.134770	-0.139601	0.000061
H56	H	1.183403	-0.188292	0.000052
O57	O	0.590221	-0.039933	0.000057
H58	H	0.549050	-0.090348	0.000052
O59	O	0.843705	-0.646297	0.000012
H60	H	0.795067	-0.597610	-0.000007
H61	H	0.877139	-0.489590	0.000020
H62	H	0.558608	0.237956	0.000040
O63	O	0.807982	-0.270640	0.000038
H64	H	0.815159	-0.335953	0.000050
H65	H	0.841423	-0.113942	0.000035
O66	O	0.388269	0.254033	0.000043
H67	H	0.429445	0.304444	0.000031
O68	O	1.099370	-0.003748	0.400290
H69	H	1.164850	0.006244	0.418699
O70	O	1.099401	-0.003731	0.599801
H71	H	1.136256	-0.040786	0.550305
O72	O	0.879098	0.217852	0.599791
H73	H	0.888011	0.208907	0.674594
O74	O	0.879085	0.217846	0.400286
H75	H	0.842244	0.254919	0.449777
