data_functionalizedCrystal
_audit_creation_method	'MofGen! by Chris Wilmer'
_symmetry_space_group_name_H-M	'P1'
_symmetry_Int_Tables_number	1
_symmetry_cell_setting	triclinic
loop_
_symmetry_equiv_pos_as_xyz
  x,y,z
_cell_length_a	16.109318
_cell_length_b	10.868271
_cell_length_c	16.109301
_cell_angle_alpha	89.993442
_cell_angle_beta	96.534978
_cell_angle_gamma	90.000736
loop_
_atom_site_label
_atom_site_type_symbol
_atom_site_fract_x
_atom_site_fract_y
_atom_site_fract_z
O1	O	1.103123	0.102224	-0.106936
O2	O	0.861063	0.102249	-0.120221
O3	O	0.988742	0.102223	0.007452
O4	O	0.975443	0.102250	-0.234609
O5	O	0.988732	-0.102421	0.007457
O6	O	0.861052	-0.102395	-0.120216
O7	O	1.103112	-0.102421	-0.106931
Zn8	Zn	0.982080	-0.134900	-0.113573
Zn9	Zn	0.982094	0.134728	-0.113579
O10	O	0.975433	-0.102395	-0.234604
C11	C	0.830083	-0.000070	-0.119677
C12	C	0.737788	-0.000061	-0.118057
N13	N	0.982077	-0.318914	-0.113568
C14	C	0.438720	0.111469	-0.112824
C15	C	0.525441	0.111477	-0.114342
C16	C	0.525449	-0.111638	-0.114325
C17	C	0.438730	-0.111645	-0.112802
C18	C	0.395367	-0.000087	-0.112056
C19	C	0.568807	-0.000073	-0.115096
C20	C	0.662835	-0.000066	-0.116742
C21	C	0.301334	-0.000095	-0.110409
C22	C	0.982090	-0.569920	-0.113577
C23	C	0.982080	-0.430242	-0.113574
C24	C	1.134092	-0.000099	-0.107474
C25	C	1.226387	-0.000100	-0.109095
C26	C	0.988198	-0.000100	0.038430
C27	C	0.986583	-0.000101	0.130725
N28	N	0.982104	0.318742	-0.113578
C29	C	0.975976	-0.000069	-0.265581
C30	C	0.977592	-0.000060	-0.357877
C31	C	1.058590	-0.000089	0.352993
C32	C	1.057066	-0.000079	0.439713
C33	C	0.905579	-0.000068	0.419848
C34	C	0.907104	-0.000069	0.333130
C35	C	0.983612	-0.000086	0.299704
C36	C	0.980563	-0.000075	0.473144
C37	C	0.978910	-0.000063	0.567170
C38	C	0.985265	-0.000095	0.205672
H39	H	0.403417	0.202306	-0.112216
H40	H	0.846043	-0.000063	0.289740
C41	C	0.573150	-0.234345	-0.115190
N42	N	0.609076	-0.326770	-0.115858
H43	H	0.843288	-0.000057	0.447074
C44	C	0.391038	-0.234372	-0.111963
N45	N	0.355116	-0.326806	-0.111332
H46	H	0.560736	0.202317	-0.114967
C47	C	1.142751	-0.000094	0.316228
N48	N	1.206144	-0.000092	0.288540
H49	H	1.118121	-0.000079	0.483098
