data_functionalizedCrystal
_audit_creation_method	'MofGen! by Chris Wilmer'
_symmetry_space_group_name_H-M	'P1'
_symmetry_Int_Tables_number	1
_symmetry_cell_setting	triclinic
loop_
_symmetry_equiv_pos_as_xyz
  x,y,z
_cell_length_a	19.805405
_cell_length_b	12.759401
_cell_length_c	12.759393
_cell_angle_alpha	89.977503
_cell_angle_beta	90.036554
_cell_angle_gamma	89.972768
loop_
_atom_site_label
_atom_site_type_symbol
_atom_site_fract_x
_atom_site_fract_y
_atom_site_fract_z
Zn1	Zn	-0.269416	-1.606181	0.594020
Zn2	Zn	0.230584	-1.106181	1.094020
Zn3	Zn	-0.382618	-1.606036	0.418321
Zn4	Zn	0.117382	-1.106036	0.918321
Zn5	Zn	-0.269450	-1.430480	0.418350
Zn6	Zn	0.230550	-0.930480	0.918350
Zn7	Zn	-0.382570	-1.430436	0.593954
Zn8	Zn	0.117430	-0.930436	1.093954
O9	O	-0.326013	-1.518283	0.506161
O10	O	0.173987	-1.018283	1.006161
O11	O	-0.284438	-1.753183	0.570728
O12	O	0.215562	-1.253183	1.070728
O13	O	-0.367641	-1.582706	0.271304
O14	O	0.132359	-1.082706	0.771304
O15	O	-0.174729	-1.453866	0.441693
O16	O	0.325271	-0.953866	0.941693
O17	O	-0.367608	-1.753076	0.441643
O18	O	0.132392	-1.253076	0.941643
O19	O	-0.174704	-1.582953	0.570756
O20	O	0.325296	-1.082953	1.070756
O21	O	-0.284497	-1.453725	0.271325
O22	O	0.215503	-0.953725	0.771325
O23	O	-0.284450	-1.283453	0.441629
O24	O	0.215550	-0.783453	0.941629
O25	O	-0.367525	-1.453791	0.740983
O26	O	0.132475	-0.953791	1.240983
O27	O	-0.367558	-1.283420	0.570644
O28	O	0.132442	-0.783420	1.070644
O29	O	-0.284391	-1.582910	0.741032
O30	O	0.215609	-1.082910	1.241032
O31	O	-0.477328	-1.582663	0.441579
O32	O	0.022672	-1.082663	0.941579
O33	O	-0.477293	-1.453650	0.570616
O34	O	0.022707	-0.953650	1.070616
C35	C	-0.326003	-1.245316	0.506133
C36	C	0.173997	-0.745316	1.006133
C37	C	-0.326015	-1.128539	0.506146
C38	C	0.173985	-0.628539	1.006146
C39	C	-0.369355	-1.073688	0.573217
C40	C	0.130645	-0.573688	1.073217
C41	C	-0.369356	-0.963964	0.573234
C42	C	0.130644	-0.463964	1.073234
C43	C	-0.282676	-0.963952	0.439101
C44	C	0.217324	-0.463952	0.939101
C45	C	-0.282672	-1.073674	0.439090
C46	C	0.217328	-0.573674	0.939090
C47	C	-0.501869	-1.518165	0.506110
C48	C	-0.001869	-1.018165	1.006110
C49	C	-0.577101	-1.518210	0.506124
C50	C	-0.077101	-1.018210	1.006124
C51	C	-0.612442	-1.585453	0.439005
C52	C	-0.112442	-1.085453	0.939005
C53	C	-0.683130	-1.585497	0.439028
C54	C	-0.183130	-1.085497	0.939028
C55	C	-0.718477	-1.518294	0.506166
C56	C	-0.218477	-1.018294	1.006166
C57	C	-0.683132	-1.451048	0.573292
C58	C	-0.183132	-0.951048	1.073292
C59	C	-0.612445	-1.451010	0.573273
C60	C	-0.112445	-0.951010	1.073273
C61	C	-0.968205	-1.451203	0.573370
C62	C	-0.468205	-0.951203	1.073370
C63	C	-1.038897	-1.451245	0.573381
C64	C	-0.538897	-0.951245	1.073381
C65	C	-1.038891	-1.585691	0.439124
C66	C	-0.538891	-1.085691	0.939124
C67	C	-0.968203	-1.585652	0.439106
C68	C	-0.468203	-1.085652	0.939106
C69	C	-0.932864	-1.518411	0.506235
C70	C	-0.432864	-1.018411	1.006235
C71	C	-0.856216	-1.518365	0.506211
C72	C	-0.356216	-1.018365	1.006211
C73	C	-0.795124	-1.518334	0.506186
C74	C	-0.295124	-1.018334	1.006186
C75	C	-0.149471	-1.518430	0.506235
C76	C	0.350529	-1.018430	1.006235
C77	C	-0.074239	-1.518493	0.506267
C78	C	0.425761	-1.018493	1.006267
C79	C	-0.325948	-1.518362	0.780195
C80	C	0.174052	-1.018362	1.280195
C81	C	-0.325921	-1.518395	0.896971
C82	C	0.174079	-1.018395	1.396971
C83	C	-0.326022	-0.792316	0.506183
C84	C	0.173978	-0.292316	1.006183
C85	C	-0.326021	-0.909093	0.506175
C86	C	0.173979	-0.409093	1.006175
C87	C	-0.326029	-1.518265	0.233194
C88	C	0.173971	-1.018265	0.733194
C89	C	-0.325866	-1.518435	0.116418
C90	C	0.174134	-1.018435	0.616418
C91	C	-0.282626	-1.585633	0.951860
C92	C	0.217374	-1.085633	1.451860
C93	C	-0.282597	-1.585650	1.061584
C94	C	0.217403	-1.085650	1.561584
C95	C	-0.369163	-1.451190	1.061521
C96	C	0.130837	-0.951190	1.561521
C97	C	-0.369188	-1.451168	0.951799
C98	C	0.130812	-0.951168	1.451799
H99	H	-0.404646	-1.118356	0.627821
H100	H	0.095354	-0.618356	1.127821
C101	C	-0.416816	-1.377195	0.891417
C102	C	0.083184	-0.877195	1.391417
N103	N	-0.452686	-1.321477	0.845938
N104	N	0.047314	-0.821477	1.345938
C105	C	-0.234992	-1.134014	0.365302
C106	C	0.265008	-0.634014	0.865302
N107	N	-0.199081	-1.179462	0.309729
N108	N	0.300919	-0.679462	0.809729
H109	H	-0.404647	-0.919309	0.627852
H110	H	0.095353	-0.419309	1.127852
C111	C	-1.077777	-1.377317	0.647247
C112	C	-0.577777	-0.877317	1.147247
N113	N	-1.107062	-1.321638	0.702880
N114	N	-0.607062	-0.821638	1.202880
H115	H	-0.583667	-1.640173	0.384329
H116	H	-0.083667	-1.140173	0.884329
H117	H	-0.247389	-0.919267	0.384505
H118	H	0.252611	-0.419267	0.884505
C119	C	-0.722001	-1.659463	0.365185
C120	C	-0.222001	-1.159463	0.865185
N121	N	-0.751279	-1.715175	0.309562
N122	N	-0.251279	-1.215175	0.809562
H123	H	-0.939426	-1.640372	0.384433
H124	H	-0.439426	-1.140372	0.884433
C125	C	-1.077770	-1.659663	0.365285
C126	C	-0.577770	-1.159663	0.865285
N127	N	-1.107053	-1.715375	0.309668
N128	N	-0.607053	-1.215375	0.809668
C129	C	-0.929341	-1.377290	0.647268
C130	C	-0.429341	-0.877290	1.147268
N131	N	-0.900066	-1.321634	0.702952
N132	N	-0.400066	-0.821634	1.202952
C133	C	-0.722016	-1.377120	0.647141
C134	C	-0.222016	-0.877120	1.147141
N135	N	-0.751303	-1.321431	0.702761
N136	N	-0.251303	-0.821431	1.202761
H137	H	-0.247393	-1.640370	0.907223
H138	H	0.252607	-1.140370	1.407223
C139	C	-0.573571	-1.377039	0.647110
C140	C	-0.073571	-0.877039	1.147110
N141	N	-0.544292	-1.321324	0.702729
N142	N	-0.044292	-0.821324	1.202729
H143	H	-0.247341	-1.640400	1.106270
H144	H	0.252659	-1.140400	1.606270
C145	C	-0.416753	-1.377243	1.121842
C146	C	0.083247	-0.877243	1.621842
N147	N	-0.452599	-1.321543	1.167274
N148	N	0.047401	-0.821543	1.667274
