data_functionalizedCrystal
_audit_creation_method	'MofGen! by Chris Wilmer'
_symmetry_space_group_name_H-M	'P1'
_symmetry_Int_Tables_number	1
_symmetry_cell_setting	triclinic
loop_
_symmetry_equiv_pos_as_xyz
  x,y,z
_cell_length_a	13.339070
_cell_length_b	15.944551
_cell_length_c	11.804365
_cell_angle_alpha	101.830656
_cell_angle_beta	74.875130
_cell_angle_gamma	99.564016
loop_
_atom_site_label
_atom_site_type_symbol
_atom_site_fract_x
_atom_site_fract_y
_atom_site_fract_z
O1	O	1.362759	0.408901	-0.099080
O2	O	1.068226	0.353629	-0.099072
O3	O	1.223533	0.260866	-0.099066
O4	O	1.207452	0.501664	-0.099087
O5	O	1.182647	0.285253	0.098989
O6	O	1.027340	0.378016	0.098982
O7	O	1.321872	0.433288	0.098974
Cu8	Cu	1.170873	0.407879	0.117062
Cu9	Cu	1.219226	0.379038	-0.117160
O10	O	1.166565	0.526051	0.098968
C11	C	1.010093	0.356486	-0.000044
C12	C	0.897788	0.328657	-0.000040
C13	C	0.533018	0.545045	-0.000078
C14	C	0.638534	0.571194	-0.000085
C15	C	0.703352	0.510562	-0.000073
C16	C	0.662645	0.423776	-0.000055
C17	C	0.557121	0.397622	-0.000058
C18	C	0.727455	0.363140	-0.000053
C19	C	0.686748	0.276354	-0.000035
C20	C	0.581234	0.250205	-0.000037
C21	C	0.516415	0.310837	-0.000048
C22	C	0.832980	0.389293	-0.000051
C23	C	0.857083	0.241871	-0.000031
C24	C	0.751567	0.215721	-0.000024
C25	C	1.202422	0.241610	-0.000038
C26	C	1.200420	0.147897	-0.000038
C27	C	1.099370	-0.090508	-0.000051
C28	C	1.126136	-0.128567	0.097600
C29	C	1.196800	-0.023674	-0.000047
C30	C	1.166470	-0.152588	-0.097666
C31	C	1.193297	-0.189405	-0.000060
C32	C	1.223576	-0.060489	0.097685
C33	C	1.263915	-0.084518	-0.097668
C34	C	1.290747	-0.122540	0.000007
C35	C	1.198815	0.071799	-0.000038
C36	C	1.191288	-0.284874	-0.000061
C37	C	1.380006	0.430430	-0.000057
C38	C	1.492312	0.458259	-0.000068
C39	C	1.187677	0.545307	-0.000062
C40	C	1.189681	0.639019	-0.000071
N41	N	1.136871	0.428165	0.281801
N42	N	1.253235	0.358748	-0.281899
C43	C	1.334885	0.310017	0.655758
C44	C	1.360606	0.294667	0.531097
C45	C	1.304674	0.328040	0.468767
C46	C	1.223018	0.376766	0.531110
C47	C	1.197300	0.392123	0.655783
C48	C	1.167089	0.410146	0.468792
C49	C	1.085432	0.458872	0.531135
C50	C	1.059718	0.474226	0.655795
C51	C	1.115650	0.440854	0.718126
C52	C	1.192807	0.394789	0.344119
C53	C	1.055221	0.476895	0.344144
C54	C	1.029500	0.492245	0.468805
H55	H	0.718410	0.145057	-0.000019
O56	O	0.537320	0.156602	-0.000014
H57	H	0.600113	0.118835	0.000010
O58	O	1.134450	-0.205385	-0.207024
H59	H	1.054992	-0.192860	-0.206807
H60	H	0.866112	0.459956	-0.000061
H61	H	0.480236	0.594401	-0.000097
H62	H	1.371679	-0.136831	0.000060
O63	O	1.341065	-0.058592	-0.207001
H64	H	1.299666	-0.032291	-0.259751
O65	O	1.048977	-0.154453	0.206962
H66	H	1.048753	-0.224181	0.206396
O67	O	0.971691	0.526827	0.723044
H68	H	0.937126	0.547463	0.658763
H69	H	0.909859	0.192498	-0.000026
H70	H	0.789268	0.531858	-0.000082
O71	O	0.941448	0.544818	0.536050
H72	H	0.867513	0.512759	0.512159
O73	O	0.994871	0.512882	0.276935
H74	H	1.026460	0.494005	0.179774
O75	O	1.255511	-0.007832	0.207170
H76	H	1.256699	0.061812	0.206340
H77	H	1.259292	0.355116	0.293371
H78	H	0.671672	0.641854	-0.000109
H79	H	1.018477	-0.076032	0.000049
O80	O	0.402602	0.282631	-0.000031
H81	H	0.386235	0.297610	-0.080757
H82	H	1.325620	0.315540	0.367263
O83	O	1.448663	0.242108	0.463855
H84	H	1.483227	0.221473	0.528137
O85	O	1.395209	0.274027	0.722980
H86	H	1.363603	0.292890	0.820140
O87	O	1.087911	0.457421	0.852586
H88	H	1.140526	0.426031	0.885448
