data_functionalizedCrystal
_audit_creation_method	'MofGen! by Chris Wilmer'
_symmetry_space_group_name_H-M	'P1'
_symmetry_Int_Tables_number	1
_symmetry_cell_setting	triclinic
loop_
_symmetry_equiv_pos_as_xyz
  x,y,z
_cell_length_a	16.974829
_cell_length_b	16.992695
_cell_length_c	15.455313
_cell_angle_alpha	87.152573
_cell_angle_beta	96.328434
_cell_angle_gamma	87.025716
loop_
_atom_site_label
_atom_site_type_symbol
_atom_site_fract_x
_atom_site_fract_y
_atom_site_fract_z
O1	O	1.062069	0.092978	0.146683
O2	O	0.831939	0.106468	0.130531
O3	O	0.946081	-0.014415	0.138535
O4	O	0.947927	0.213861	0.138679
O5	O	0.939552	-0.007531	-0.006185
O6	O	0.825410	0.113353	-0.014189
O7	O	1.055540	0.099862	0.001963
Cu8	Cu	0.939879	0.107236	-0.019327
Cu9	Cu	0.947600	0.099094	0.151821
O10	O	0.941398	0.220746	-0.006041
C11	C	0.799092	0.109524	0.056095
C12	C	0.710945	0.108364	0.049908
C13	C	0.214385	0.102263	0.006614
C14	C	0.297209	0.103353	0.012429
C15	C	0.342180	0.100139	0.094225
C16	C	0.304323	0.095844	0.170210
C17	C	0.221501	0.094760	0.164394
C18	C	0.590265	0.102984	0.120078
C19	C	0.673093	0.104066	0.125888
C20	C	0.665973	0.111577	-0.031894
C21	C	0.583150	0.110488	-0.037703
C22	C	0.545300	0.106197	0.038283
N23	N	0.426840	0.101251	0.100170
N24	N	0.460641	0.105091	0.032336
C25	C	0.940443	-0.040175	0.066009
C26	C	0.933361	-0.127188	0.065512
C27	C	1.001692	-0.177729	0.070307
C28	C	0.995034	-0.259487	0.069848
C29	C	0.920043	-0.290702	0.064587
C30	C	0.851706	-0.240155	0.059795
C31	C	0.858366	-0.158400	0.060260
C32	C	0.892441	-0.534179	0.062662
C33	C	0.885786	-0.615942	0.062195
C34	C	1.029115	-0.635267	0.072249
C35	C	1.035768	-0.553508	0.072709
C36	C	0.967431	-0.502969	0.067921
N37	N	0.913234	-0.374271	0.064115
N38	N	0.974240	-0.419402	0.068399
C39	C	1.088387	0.096806	0.076401
C40	C	1.176534	0.097966	0.082594
C41	C	0.947036	0.246505	0.066487
C42	C	0.954118	0.333518	0.066990
N43	N	0.934454	0.112962	-0.139703
C44	C	0.982964	0.061625	-0.181695
C45	C	0.978869	0.065962	-0.272790
C46	C	0.926267	0.121641	-0.321891
C47	C	0.877751	0.172980	-0.279893
C48	C	0.881843	0.168638	-0.188800
C49	C	0.908606	0.140360	-0.594711
C50	C	0.904520	0.144699	-0.685810
C51	C	1.005638	0.037680	-0.678701
C52	C	1.009728	0.033346	-0.587607
C53	C	0.961209	0.084683	-0.545617
N54	N	0.922082	0.126077	-0.415005
N55	N	0.965390	0.080242	-0.452505
N56	N	0.953031	0.093362	0.272197
H57	H	0.709707	0.101456	0.192499
H58	H	0.546540	0.113088	-0.104310
H59	H	0.836796	-0.493039	0.058763
H60	H	0.802723	-0.117250	0.056356
H61	H	0.328024	0.106851	-0.049442
H62	H	0.696799	0.115073	-0.093757
H63	H	1.052560	-0.011991	-0.547630
H64	H	0.790647	-0.265578	0.055517
H65	H	1.050677	-0.300634	0.073751
H66	H	0.861683	0.190043	-0.725785
H67	H	1.062758	-0.152320	0.074585
H68	H	1.018370	0.024159	-0.306980
H69	H	0.869101	0.182161	-0.560530
H70	H	0.559458	0.099487	0.181951
H71	H	0.177775	0.104884	-0.059993
H72	H	0.340946	0.093232	0.236810
H73	H	1.045139	-0.004117	-0.712898
H74	H	0.834917	0.218312	-0.319877
H75	H	0.190684	0.091262	0.226265
H76	H	0.842339	0.210441	-0.154611
H77	H	1.096833	-0.528099	0.076993
H78	H	0.824716	-0.641353	0.057897
H79	H	1.084750	-0.676424	0.076149
H80	H	1.025802	0.016289	-0.141723
