data_functionalizedCrystal
_audit_creation_method	'MofGen! by Chris Wilmer'
_symmetry_space_group_name_H-M	'P1'
_symmetry_Int_Tables_number	1
_symmetry_cell_setting	triclinic
loop_
_symmetry_equiv_pos_as_xyz
  x,y,z
_cell_length_a	17.699077
_cell_length_b	17.038272
_cell_length_c	16.776229
_cell_angle_alpha	89.993292
_cell_angle_beta	89.993415
_cell_angle_gamma	87.196066
loop_
_atom_site_label
_atom_site_type_symbol
_atom_site_fract_x
_atom_site_fract_y
_atom_site_fract_z
O1	O	1.010621	0.098839	-0.066278
O2	O	1.510621	0.598839	0.433722
O3	O	0.791094	0.111705	-0.066282
O4	O	1.291094	0.611705	0.433718
O5	O	0.899553	-0.008541	-0.066274
O6	O	1.399553	0.491459	0.433726
O7	O	0.902162	0.219085	-0.066287
O8	O	1.402162	0.719085	0.433713
O9	O	0.899537	-0.008549	0.066302
O10	O	1.399537	0.491451	0.566302
O11	O	0.791078	0.111698	0.066294
O12	O	1.291078	0.611698	0.566294
O13	O	1.010606	0.098831	0.066298
O14	O	1.510606	0.598831	0.566298
Zn15	Zn	0.900839	0.105263	0.087345
Zn16	Zn	1.400839	0.605263	0.587345
Zn17	Zn	0.900860	0.105273	-0.087330
Zn18	Zn	1.400860	0.605273	0.412670
O19	O	0.902146	0.219078	0.066290
O20	O	1.402146	0.719078	0.566290
C21	C	0.762858	0.111241	0.000005
C22	C	1.262858	0.611241	0.500005
C23	C	0.678749	0.109861	0.000004
C24	C	1.178749	0.609861	0.500004
C25	C	0.639230	0.109206	0.072272
C26	C	1.139230	0.609206	0.572272
C27	C	0.560200	0.107896	0.072273
C28	C	1.060200	0.607896	0.572273
C29	C	0.520691	0.107247	0.000005
C30	C	1.020691	0.607247	0.500005
C31	C	0.560216	0.107899	-0.072269
C32	C	1.060216	0.607899	0.427731
C33	C	0.639244	0.109203	-0.072269
C34	C	1.139244	0.609203	0.427731
C35	C	0.241505	0.102638	-0.072270
C36	C	0.741505	0.602638	0.427730
C37	C	0.162471	0.101336	-0.072265
C38	C	0.662471	0.601336	0.427735
C39	C	0.162461	0.101331	0.072272
C40	C	0.662461	0.601331	0.572272
C41	C	0.241489	0.102635	0.072272
C42	C	0.741489	0.602635	0.572272
C43	C	0.281007	0.103283	-0.000001
C44	C	0.781007	0.603283	0.499999
C45	C	0.366700	0.104702	-0.000002
C46	C	0.866700	0.604702	0.499998
C47	C	0.435000	0.105833	0.000004
C48	C	0.935000	0.605833	0.500004
C49	C	0.897172	-0.037669	0.000014
C50	C	1.397172	0.462331	0.500014
C51	C	0.890091	-0.124450	0.000014
C52	C	1.390091	0.375550	0.500014
C53	C	0.955101	-0.174672	0.000016
C54	C	1.455101	0.325328	0.500016
C55	C	0.948444	-0.256212	0.000008
C56	C	1.448444	0.243788	0.500008
C57	C	0.876775	-0.287528	0.000004
C58	C	1.376775	0.212472	0.500004
C59	C	0.811759	-0.237300	-0.000000
C60	C	1.311759	0.262700	0.500000
C61	C	0.818418	-0.155762	0.000001
C62	C	1.318418	0.344238	0.500001
C63	C	0.853252	-0.533247	-0.000007
C64	C	1.353252	-0.033247	0.499993
C65	C	0.846598	-0.614791	-0.000007
C66	C	1.346598	-0.114791	0.499993
C67	C	0.983283	-0.633697	-0.000000
C68	C	1.483283	-0.133697	0.500000
C69	C	0.989935	-0.552157	0.000007
C70	C	1.489935	-0.052157	0.500007
C71	C	0.924920	-0.501936	-0.000002
C72	C	1.424920	-0.001936	0.499998
C73	C	0.869968	-0.370874	-0.000001
C74	C	1.369968	0.129126	0.499999
C75	C	0.931727	-0.418591	-0.000002
C76	C	1.431727	0.081409	0.499998
C77	C	1.038841	0.099295	0.000009
C78	C	1.538841	0.599295	0.500009
C79	C	1.122951	0.100676	0.000005
C80	C	1.622951	0.600676	0.500005
C81	C	0.904528	0.248206	-0.000000
C82	C	1.404528	0.748206	0.500000
C83	C	0.911609	0.334987	-0.000005
C84	C	1.411609	0.834987	0.499995
N85	N	0.900830	0.105256	0.206557
N86	N	1.400830	0.605256	0.706557
N87	N	0.900875	0.105274	-0.206541
N88	N	1.400875	0.605274	0.293459
C89	C	0.948873	0.052033	0.248277
C90	C	1.448873	0.552033	0.748277
C91	C	0.948877	0.052032	0.331730
C92	C	1.448877	0.552032	0.831730
C93	C	0.900842	0.105259	0.373460
C94	C	1.400842	0.605259	0.873460
C95	C	0.852794	0.158485	0.331733
C96	C	1.352794	0.658485	0.831733
C97	C	0.852786	0.158482	0.248282
C98	C	1.352786	0.658482	0.748282
C99	C	0.852822	0.158501	0.668280
C100	C	1.352822	0.658501	1.168280
C101	C	0.852835	0.158502	0.751737
C102	C	1.352835	0.658502	1.251737
C103	C	0.948913	0.052051	0.751727
C104	C	1.448913	0.552051	1.251727
C105	C	0.948906	0.052048	0.668277
C106	C	1.448906	0.552048	1.168277
C107	C	0.900855	0.105270	0.626558
C108	C	1.400855	0.605270	1.126558
C109	C	0.900850	0.105270	0.536069
C110	C	1.400850	0.605270	1.036069
C111	C	0.900850	0.105265	0.463946
C112	C	1.400850	0.605265	0.963946
H113	H	0.528028	0.107350	0.131121
H114	H	1.028028	0.607350	0.631121
F115	F	0.801666	0.215131	0.376146
F116	F	1.301666	0.715131	0.876146
H117	H	0.800311	-0.492367	-0.000014
H118	H	1.300311	0.007633	0.499986
H119	H	0.671420	0.109738	-0.131117
H120	H	1.171420	0.609738	0.368883
H121	H	0.753405	-0.262804	-0.000009
H122	H	1.253405	0.237196	0.499991
H123	H	0.813699	0.201838	0.634319
H124	H	1.313699	0.701838	1.134319
H125	H	0.273653	0.103168	0.131120
H126	H	0.773653	0.603168	0.631120
H127	H	0.811614	-0.396381	-0.000003
H128	H	1.311614	0.103619	0.499997
H129	H	0.130276	0.100800	0.131121
H130	H	0.630276	0.600800	0.631121
H131	H	0.528042	0.107365	-0.131111
H132	H	1.028042	0.607365	0.368889
F133	F	0.120424	0.100644	-0.149186
F134	F	0.620424	0.600644	0.350814
H135	H	0.988036	0.008712	0.785704
H136	H	1.488036	0.508712	1.285704
F137	F	0.801706	0.215156	0.796147
F138	F	1.301706	0.715156	1.296147
F139	F	1.031382	-0.141351	0.000028
F140	F	1.531382	0.358649	0.500028
F141	F	0.801650	0.215127	0.203881
F142	F	1.301650	0.715127	0.703881
F143	F	0.283553	0.103329	-0.149190
F144	F	0.783553	0.603329	0.350810
H145	H	0.765479	-0.114872	-0.000000
H146	H	1.265479	0.385128	0.500000
F147	F	1.017637	-0.309658	0.000012
F148	F	1.517637	0.190342	0.500012
H149	H	1.048295	-0.526666	0.000010
H150	H	1.548295	-0.026666	0.500010
H151	H	1.036215	-0.674595	0.000005
H152	H	1.536215	-0.174595	0.500005
H153	H	0.990080	-0.393090	-0.000017
H154	H	1.490080	0.106910	0.499983
H155	H	0.987992	0.008693	0.214306
H156	H	1.487992	0.508693	0.714306
F157	F	0.770315	-0.648118	-0.000007
F158	F	1.270315	-0.148118	0.499993
H159	H	0.987997	0.008693	0.365698
H160	H	1.487997	0.508693	0.865698
F161	F	1.000034	-0.004601	0.623868
F162	F	1.500034	0.495399	1.123868
H163	H	0.671392	0.109742	0.131122
H164	H	1.171392	0.609742	0.631122
