data_functionalizedCrystal
_audit_creation_method	'MofGen! by Chris Wilmer'
_symmetry_space_group_name_H-M	'P1'
_symmetry_Int_Tables_number	1
_symmetry_cell_setting	triclinic
loop_
_symmetry_equiv_pos_as_xyz
  x,y,z
_cell_length_a	12.759401
_cell_length_b	12.759400
_cell_length_c	12.759393
_cell_angle_alpha	89.968436
_cell_angle_beta	89.981504
_cell_angle_gamma	90.014845
loop_
_atom_site_label
_atom_site_type_symbol
_atom_site_fract_x
_atom_site_fract_y
_atom_site_fract_z
Zn1	Zn	1.606255	-0.418200	-0.593981
Zn2	Zn	1.606150	-0.593919	-0.418301
Zn3	Zn	1.430557	-0.418255	-0.418321
Zn4	Zn	1.430546	-0.593838	-0.593943
O5	O	1.518377	-0.506053	-0.506137
O6	O	1.753262	-0.441520	-0.570685
O7	O	1.582818	-0.570673	-0.271283
O8	O	1.453913	-0.271226	-0.441647
O9	O	1.753185	-0.570620	-0.441614
O10	O	1.582998	-0.271186	-0.570704
O11	O	1.453811	-0.441614	-0.271297
O12	O	1.283535	-0.441535	-0.441609
O13	O	1.453894	-0.570482	-0.740969
O14	O	1.283527	-0.570536	-0.570638
O15	O	1.582987	-0.441442	-0.740997
O16	O	1.582807	-0.740929	-0.441577
O17	O	1.453791	-0.740870	-0.570620
C18	C	1.245410	-0.506033	-0.506122
C19	C	1.128633	-0.506050	-0.506141
C20	C	1.073794	-0.573328	-0.573215
C21	C	0.964070	-0.573342	-0.573227
C22	C	0.964034	-0.438796	-0.439081
C23	C	1.073756	-0.438778	-0.439075
C24	C	1.128672	-0.640600	-0.640281
C25	C	1.073833	-0.707885	-0.707360
C26	C	0.964109	-0.707898	-0.707371
C27	C	0.909224	-0.640627	-0.640304
C28	C	1.518315	-0.779020	-0.506115
C29	C	1.518384	-0.895797	-0.506140
C30	C	1.585637	-0.950655	-0.439022
C31	C	1.585702	-1.060379	-0.439054
C32	C	1.451252	-1.060377	-0.573327
C33	C	1.451193	-0.950655	-0.573299
C34	C	1.652828	-0.895797	-0.371864
C35	C	1.720086	-0.950655	-0.304739
C36	C	1.720150	-1.060379	-0.304771
C37	C	1.652957	-1.115245	-0.371929
C38	C	1.792410	-0.506073	-0.506152
C39	C	1.909187	-0.506082	-0.506158
C40	C	1.518451	-0.505947	-0.780170
C41	C	1.518482	-0.505902	-0.896947
C42	C	1.518468	-0.232019	-0.506182
C43	C	1.518507	-0.115243	-0.506201
C44	C	1.585710	-0.438704	-0.951825
C45	C	1.585735	-0.438666	-1.061549
C46	C	1.451301	-0.573033	-1.061507
C47	C	1.451272	-0.573064	-0.951785
C48	C	1.652920	-0.371541	-0.896987
C49	C	1.720155	-0.304339	-0.951866
C50	C	1.720180	-0.304301	-1.061590
C51	C	1.652970	-0.371465	-1.116436
C52	C	1.518364	-0.506083	-0.233169
C53	C	1.518537	-0.505832	-0.116393
H54	H	1.118528	-0.762647	-0.761970
H55	H	1.396431	-0.905989	-0.627954
C56	C	0.903663	-0.364807	-0.365306
C57	C	0.963984	-0.290798	-0.291526
C58	C	0.903615	-0.216809	-0.217748
C59	C	0.782925	-0.216829	-0.217751
C60	C	0.722597	-0.290841	-0.291534
C61	C	0.782966	-0.364830	-0.365312
H62	H	1.053332	-0.290781	-0.291521
H63	H	0.948275	-0.162021	-0.163129
H64	H	0.738237	-0.162058	-0.163136
H65	H	0.633249	-0.290858	-0.291538
H66	H	0.738307	-0.419618	-0.419931
C67	C	0.903784	-0.781903	-0.781158
C68	C	0.964152	-0.855894	-0.854926
C69	C	0.903829	-0.929905	-0.928711
C70	C	0.783139	-0.929925	-0.928730
C71	C	0.722765	-0.855931	-0.854959
C72	C	0.783087	-0.781920	-0.781174
H73	H	1.053500	-0.855882	-0.854915
H74	H	0.948523	-0.984681	-0.983321
H75	H	0.738485	-0.984713	-0.983350
H76	H	0.633417	-0.855943	-0.854970
H77	H	0.738394	-0.727145	-0.726564
H78	H	1.396513	-0.627767	-0.907102
H79	H	1.652984	-0.371417	-1.205780
H80	H	1.774798	-0.905977	-0.250068
C81	C	1.134093	-0.364770	-0.365302
C82	C	1.119024	-0.245347	-0.374095
C83	C	1.179365	-0.171331	-0.300330
C84	C	1.254775	-0.216738	-0.217770
C85	C	1.269847	-0.336167	-0.208974
C86	C	1.209506	-0.410183	-0.282739
H87	H	1.063199	-0.211729	-0.435214
H88	H	1.168207	-0.082922	-0.306842
H89	H	1.299443	-0.161947	-0.163164
H90	H	1.325673	-0.369786	-0.147855
H91	H	1.220664	-0.498593	-0.276227
C92	C	1.377389	-0.646923	-1.121834
C93	C	1.303442	-0.720847	-1.061470
C94	C	1.229535	-0.794745	-1.121795
C95	C	1.229575	-0.794720	-1.242485
C96	C	1.303525	-0.720794	-1.302856
C97	C	1.377432	-0.646896	-1.242531
H98	H	1.303410	-0.720868	-0.972121
H99	H	1.174793	-0.849470	-1.077103
H100	H	1.174865	-0.849425	-1.287142
H101	H	1.303557	-0.720773	-1.392204
H102	H	1.432175	-0.592171	-1.287222
H103	H	1.652780	-0.806454	-0.371827
H104	H	1.774922	-1.105041	-0.250123
H105	H	1.653024	-1.204589	-0.371958
H106	H	1.774917	-0.249574	-1.106269
H107	H	1.652910	-0.371567	-0.807644
C108	C	1.794079	-0.230459	-0.891541
C109	C	1.748568	-0.147997	-0.816120
C110	C	1.822493	-0.074114	-0.755797
C111	C	1.941929	-0.082694	-0.770895
C112	C	1.987446	-0.165159	-0.846319
C113	C	1.913521	-0.239041	-0.906642
H114	H	1.660149	-0.141643	-0.804940
H115	H	1.788798	-0.013068	-0.699963
H116	H	1.996653	-0.028001	-0.726240
H117	H	2.075866	-0.171513	-0.857499
H118	H	1.947217	-0.300087	-0.962476
C119	C	1.377337	-1.120726	-0.647189
C120	C	1.377397	-1.241416	-0.647218
C121	C	1.303479	-1.301764	-0.721080
C122	C	1.229501	-1.241422	-0.794912
C123	C	1.229439	-1.120725	-0.794886
C124	C	1.303357	-1.060377	-0.721024
H125	H	1.432163	-1.286091	-0.592560
H126	H	1.303526	-1.391112	-0.721099
H127	H	1.174783	-1.286095	-0.849589
H128	H	1.174673	-1.076050	-0.849543
H129	H	1.303310	-0.971030	-0.721005
H130	H	1.218015	-0.640599	-0.640277
H131	H	0.819879	-0.640634	-0.640328
