data_functionalizedCrystal
_audit_creation_method	'MofGen! by Chris Wilmer'
_symmetry_space_group_name_H-M	'P1'
_symmetry_Int_Tables_number	1
_symmetry_cell_setting	triclinic
loop_
_symmetry_equiv_pos_as_xyz
  x,y,z
_cell_length_a	14.044220
_cell_length_b	10.489741
_cell_length_c	13.101039
_cell_angle_alpha	93.396862
_cell_angle_beta	86.340132
_cell_angle_gamma	88.864026
loop_
_atom_site_label
_atom_site_type_symbol
_atom_site_fract_x
_atom_site_fract_y
_atom_site_fract_z
O1	O	1.264971	0.301301	-0.085104
O2	O	1.514971	0.551301	0.164896
O3	O	1.764971	0.801301	0.414896
O4	O	2.014971	1.051301	0.664896
O5	O	0.988928	0.290194	-0.085130
O6	O	1.238928	0.540194	0.164870
O7	O	1.488928	0.790194	0.414870
O8	O	1.738928	1.040194	0.664870
O9	O	1.133230	0.110787	-0.085110
O10	O	1.383230	0.360787	0.164890
O11	O	1.633230	0.610787	0.414890
O12	O	1.883230	0.860787	0.664890
O13	O	1.120668	0.480707	-0.085124
O14	O	1.370668	0.730707	0.164876
O15	O	1.620668	0.980707	0.414876
O16	O	1.870668	1.230707	0.664876
O17	O	1.122877	0.123682	0.085318
O18	O	1.372877	0.373682	0.335318
O19	O	1.622877	0.623682	0.585318
O20	O	1.872877	0.873682	0.835318
O21	O	0.978574	0.303089	0.085298
O22	O	1.228574	0.553089	0.335298
O23	O	1.478574	0.803089	0.585298
O24	O	1.728574	1.053089	0.835298
O25	O	1.254618	0.314196	0.085324
O26	O	1.504618	0.564196	0.335324
O27	O	1.754618	0.814196	0.585324
O28	O	2.004618	1.064196	0.835324
Zn29	Zn	1.114952	0.310690	0.112370
Zn30	Zn	1.364952	0.560690	0.362370
Zn31	Zn	1.614952	0.810690	0.612370
Zn32	Zn	1.864952	1.060690	0.862370
Zn33	Zn	1.128593	0.293700	-0.112176
Zn34	Zn	1.378593	0.543700	0.137824
Zn35	Zn	1.628593	0.793700	0.387824
Zn36	Zn	1.878593	1.043700	0.637824
O37	O	1.110315	0.493603	0.085305
O38	O	1.360315	0.743603	0.335305
O39	O	1.610315	0.993603	0.585305
O40	O	1.860315	1.243603	0.835305
C41	C	0.948404	0.291780	0.000081
C42	C	1.198404	0.541780	0.250081
C43	C	1.448404	0.791780	0.500081
C44	C	1.698404	1.041780	0.750081
C45	C	0.843079	0.277280	0.000071
C46	C	1.093079	0.527280	0.250071
C47	C	1.343079	0.777280	0.500071
C48	C	1.593079	1.027280	0.750071
C49	C	0.650236	0.250773	0.000092
C50	C	0.900236	0.500773	0.250092
C51	C	1.150236	0.750773	0.500092
C52	C	1.400236	1.000773	0.750092
C53	C	0.593304	0.353611	0.000093
C54	C	0.843304	0.603611	0.250093
C55	C	1.093304	0.853611	0.500093
C56	C	1.343304	1.103611	0.750093
C57	C	0.486000	0.338862	0.000105
C58	C	0.736000	0.588862	0.250105
C59	C	0.986000	0.838862	0.500105
C60	C	1.236000	1.088862	0.750105
C61	C	0.757551	0.265520	0.000080
C62	C	1.007551	0.515520	0.250080
C63	C	1.257551	0.765520	0.500080
C64	C	1.507551	1.015520	0.750080
C65	C	1.127105	0.069607	0.000103
C66	C	1.377105	0.319607	0.250103
C67	C	1.627105	0.569607	0.500103
C68	C	1.877105	0.819607	0.750103
C69	C	1.124266	-0.072311	0.000101
C70	C	1.374266	0.177689	0.250101
C71	C	1.624266	0.427689	0.500101
C72	C	1.874266	0.677689	0.750101
C73	C	1.032451	-0.149765	0.000085
C74	C	1.282451	0.100235	0.250085
C75	C	1.532451	0.350235	0.500085
C76	C	1.782451	0.600235	0.750085
C77	C	1.070719	-0.231130	0.084119
C78	C	1.320719	0.018870	0.334119
C79	C	1.570719	0.268870	0.584119
C80	C	1.820719	0.518870	0.834119
C81	C	1.080948	-0.243816	-0.083910
C82	C	1.330948	0.006184	0.166090
C83	C	1.580948	0.256184	0.416090
C84	C	1.830948	0.506184	0.666090
C85	C	1.162568	-0.151801	0.084204
C86	C	1.412568	0.098199	0.334204
C87	C	1.662568	0.348199	0.584204
C88	C	1.912568	0.598199	0.834204
C89	C	1.172789	-0.164485	-0.083900
C90	C	1.422789	0.085515	0.166100
C91	C	1.672789	0.335515	0.416100
C92	C	1.922789	0.585515	0.666100
C93	C	1.211123	-0.245814	0.000155
C94	C	1.461123	0.004186	0.250155
C95	C	1.711123	0.254186	0.500155
C96	C	1.961123	0.504186	0.750155
C97	C	1.295142	0.312609	0.000111
C98	C	1.545142	0.562609	0.250111
C99	C	1.795142	0.812609	0.500111
C100	C	2.045142	1.062609	0.750111
C101	C	1.400466	0.327109	0.000114
C102	C	1.650466	0.577109	0.250114
C103	C	1.900466	0.827109	0.500114
C104	C	2.150466	1.077109	0.750114
C105	C	1.116441	0.534783	0.000089
C106	C	1.366441	0.784783	0.250089
C107	C	1.616441	1.034783	0.500089
C108	C	1.866441	1.284783	0.750089
C109	C	1.119280	0.676700	0.000084
C110	C	1.369280	0.926700	0.250084
C111	C	1.619280	1.176700	0.500084
C112	C	1.869280	1.426700	0.750084
N113	N	1.105649	0.322285	0.265618
N114	N	1.355649	0.572285	0.515618
N115	N	1.605649	0.822285	0.765618
N116	N	1.855649	1.072285	1.015618
N117	N	1.137903	0.282095	-0.265424
N118	N	1.387903	0.532095	-0.015424
N119	N	1.637903	0.782095	0.234576
N120	N	1.887903	1.032095	0.484576
C121	C	1.092993	0.338073	0.474659
C122	C	1.342993	0.588073	0.724659
C123	C	1.592993	0.838073	0.974659
C124	C	1.842993	1.088073	1.224659
C125	C	1.150557	0.266311	0.525542
C126	C	1.400557	0.516311	0.775542
C127	C	1.650557	0.766311	1.025542
C128	C	1.900557	1.016311	1.275542
C129	C	1.143515	0.275096	0.641860
C130	C	1.393515	0.525096	0.891860
C131	C	1.643515	0.775096	1.141860
C132	C	1.893515	1.025096	1.391860
C133	C	1.100034	0.329290	0.358331
C134	C	1.350034	0.579290	0.608331
C135	C	1.600034	0.829290	0.858331
C136	C	1.850034	1.079290	1.108331
H137	H	0.618389	0.151662	0.000101
H138	H	0.868389	0.401662	0.250101
H139	H	1.118389	0.651662	0.500101
H140	H	1.368389	0.901662	0.750101
H141	H	0.956955	-0.107764	0.000162
H142	H	1.206955	0.142236	0.250162
H143	H	1.456955	0.392236	0.500162
H144	H	1.706955	0.642236	0.750162
H145	H	0.625153	0.452730	0.000084
H146	H	0.875153	0.702730	0.250084
H147	H	1.125153	0.952730	0.500084
H148	H	1.375153	1.202730	0.750084
Br149	Br	1.002042	0.451467	0.547646
Br150	Br	1.252042	0.701467	0.797646
Br151	Br	1.502042	0.951467	1.047646
Br152	Br	1.752042	1.201467	1.297646
Br153	Br	1.337052	-0.315416	0.000237
Br154	Br	1.587052	-0.065416	0.250237
Br155	Br	1.837052	0.184584	0.500237
Br156	Br	2.087052	0.434584	0.750237
H157	H	1.027554	-0.260706	0.155157
H158	H	1.277554	-0.010706	0.405157
H159	H	1.527554	0.239294	0.655157
H160	H	1.777554	0.489294	0.905157
H161	H	1.197063	-0.111651	0.155329
H162	H	1.447063	0.138349	0.405329
H163	H	1.697063	0.388349	0.655329
H164	H	1.947063	0.638349	0.905329
H165	H	1.205129	0.198277	0.481747
H166	H	1.455129	0.448277	0.731747
H167	H	1.705129	0.698277	0.981747
H168	H	1.955129	0.948277	1.231747
H169	H	1.046404	-0.284097	-0.154961
H170	H	1.296404	-0.034097	0.095039
H171	H	1.546404	0.215903	0.345039
H172	H	1.796404	0.465903	0.595039
H173	H	1.215921	-0.134879	-0.154942
H174	H	1.465921	0.115121	0.095058
H175	H	1.715921	0.365121	0.345058
H176	H	1.965921	0.615121	0.595058
