data_functionalizedCrystal
_audit_creation_method	'MofGen! by Chris Wilmer'
_symmetry_space_group_name_H-M	'P1'
_symmetry_Int_Tables_number	1
_symmetry_cell_setting	triclinic
loop_
_symmetry_equiv_pos_as_xyz
  x,y,z
_cell_length_a	13.262402
_cell_length_b	11.792241
_cell_length_c	11.804365
_cell_angle_alpha	101.912841
_cell_angle_beta	93.583660
_cell_angle_gamma	84.321420
loop_
_atom_site_label
_atom_site_type_symbol
_atom_site_fract_x
_atom_site_fract_y
_atom_site_fract_z
O1	O	1.323366	0.228856	0.329617
O2	O	1.037583	0.224143	0.237048
O3	O	1.187408	0.061834	0.285587
O4	O	1.173541	0.391165	0.281078
O5	O	1.147964	0.104518	0.470864
O6	O	0.998140	0.266827	0.422326
O7	O	1.283922	0.271540	0.514894
Cu8	Cu	1.137429	0.273081	0.485527
Cu9	Cu	1.184076	0.222602	0.266415
O10	O	1.134097	0.433848	0.466356
C11	C	0.981275	0.241822	0.317836
C12	C	0.872258	0.230894	0.282524
C13	C	0.842543	0.202491	0.164937
C14	C	0.740115	0.192234	0.131762
C15	C	0.667394	0.210371	0.216170
C16	C	0.697110	0.238767	0.333760
C17	C	0.799547	0.249033	0.366939
C18	C	0.624398	0.256914	0.418172
C19	C	0.654114	0.285309	0.535762
C20	C	0.756541	0.295573	0.568935
C21	C	0.829262	0.277436	0.484526
C22	C	0.521961	0.246648	0.384994
C23	C	0.478965	0.293190	0.586996
C24	C	0.581392	0.303446	0.620171
C25	C	1.166815	0.040822	0.377943
C26	C	1.164207	-0.085381	0.377097
C27	C	1.159416	-0.316446	0.375525
C28	C	1.162078	-0.187865	0.376398
C29	C	1.340231	0.253860	0.434104
C30	C	1.449249	0.264787	0.469408
C31	C	1.154691	0.454860	0.373997
C32	C	1.157300	0.581062	0.374836
N33	N	1.104628	0.308584	0.639641
N34	N	1.216885	0.187091	0.112304
C35	C	1.295653	0.101812	1.075476
C36	C	1.320466	0.074949	0.958853
C37	C	1.266508	0.133355	0.879045
C38	C	1.187734	0.218630	0.915870
C39	C	1.162924	0.245502	1.032506
C40	C	1.133779	0.277045	0.836075
C41	C	1.055005	0.362320	0.872900
C42	C	1.030198	0.389187	0.989525
C43	C	1.084156	0.330781	1.069334
C44	C	1.158589	0.250173	0.719439
C45	C	1.025860	0.393863	0.676469
C46	C	1.001047	0.420726	0.793092
H47	H	0.901759	0.187735	0.096224
H48	H	1.339583	0.054271	1.140464
Br49	Br	0.796865	0.334138	0.728521
Br50	Br	1.050471	0.367233	1.227613
Br51	Br	0.968279	0.291350	0.529547
Br52	Br	0.952634	0.473142	0.568167
H53	H	0.497777	0.223529	0.289251
Br54	Br	0.923305	0.504933	1.039512
H55	H	0.936907	0.490159	0.823090
Br56	Br	0.621734	0.341984	0.779753
H57	H	1.286715	0.111479	0.784086
Br58	Br	0.528383	0.196450	0.171145
Br59	Br	0.380278	0.317817	0.701558
Br60	Br	1.427370	-0.040771	0.908875
H61	H	1.222728	0.180742	0.689466
H62	H	0.715928	0.169115	0.036020
