data_functionalizedCrystal
_audit_creation_method	'MofGen! by Chris Wilmer'
_symmetry_space_group_name_H-M	'P1'
_symmetry_Int_Tables_number	1
_symmetry_cell_setting	triclinic
loop_
_symmetry_equiv_pos_as_xyz
  x,y,z
_cell_length_a	18.215407
_cell_length_b	29.839131
_cell_length_c	18.215399
_cell_angle_alpha	89.969127
_cell_angle_beta	89.980167
_cell_angle_gamma	90.041868
loop_
_atom_site_label
_atom_site_type_symbol
_atom_site_fract_x
_atom_site_fract_y
_atom_site_fract_z
Zn1	Zn	1.124987	-0.178853	-0.416101
Zn2	Zn	1.124860	-0.253982	-0.293028
Zn3	Zn	1.001920	-0.178867	-0.293048
Zn4	Zn	1.001850	-0.253957	-0.416053
O5	O	1.063404	-0.216415	-0.354558
O6	O	1.227955	-0.188823	-0.399787
O7	O	1.108528	-0.244034	-0.190047
O8	O	1.018327	-0.115998	-0.309400
O9	O	1.227861	-0.244020	-0.309366
O10	O	1.108745	-0.115987	-0.399806
O11	O	1.018204	-0.188848	-0.190061
O12	O	0.898926	-0.188824	-0.309354
O13	O	1.018209	-0.243978	-0.519044
O14	O	0.898875	-0.243992	-0.399725
O15	O	1.108677	-0.188799	-0.519079
O16	O	1.108460	-0.316846	-0.309320
O17	O	1.018086	-0.316827	-0.399705
C18	C	0.872198	-0.216407	-0.354537
C19	C	0.790399	-0.216414	-0.354545
C20	C	0.602198	-0.245186	-0.401542
C21	C	0.525339	-0.245187	-0.401551
C22	C	0.525363	-0.187652	-0.307589
C23	C	0.602220	-0.187648	-0.307584
C24	C	0.640636	-0.216418	-0.354560
C25	C	0.486920	-0.216423	-0.354574
C26	C	0.403586	-0.216424	-0.354583
C27	C	0.723975	-0.216416	-0.354551
C28	C	1.063272	-0.333137	-0.354521
C29	C	1.063282	-0.383072	-0.354530
C30	C	1.110548	-0.692712	-0.307563
C31	C	1.110639	-0.880385	-0.307591
O32	O	1.150721	-0.904647	-0.267629
N33	N	1.063557	-0.903857	-0.354613
C34	C	1.016452	-0.880407	-0.401635
O35	O	0.976414	-0.904678	-0.441636
C36	C	1.016366	-0.692735	-0.401609
C37	C	1.063446	-0.669266	-0.354579
C38	C	1.157625	-0.669243	-0.260536
C39	C	1.157599	-0.622327	-0.260527
C40	C	1.110496	-0.598881	-0.307544
C41	C	1.063420	-0.622350	-0.354570
C42	C	0.969265	-0.669287	-0.448634
C43	C	0.969249	-0.622365	-0.448625
C44	C	1.016329	-0.598896	-0.401595
C45	C	1.016291	-0.551989	-0.401577
N46	N	1.063373	-0.528517	-0.354554
C47	C	1.110476	-0.551963	-0.307538
C48	C	1.016500	-0.978938	-0.401644
C49	C	1.016521	-1.025856	-0.401649
C50	C	1.110709	-1.025830	-0.307606
C51	C	1.110684	-0.978911	-0.307598
C52	C	1.063582	-0.955466	-0.354622
C53	C	1.110417	-0.453437	-0.307521
C54	C	1.110385	-0.406518	-0.307514
C55	C	1.016200	-0.406547	-0.401559
C56	C	1.016229	-0.453463	-0.401564
C57	C	1.063344	-0.476907	-0.354543
O58	O	0.976236	-0.527698	-0.441523
O59	O	1.150520	-0.527685	-0.267554
C60	C	1.110574	-0.739627	-0.307572
C61	C	1.063498	-0.763097	-0.354598
C62	C	1.016395	-0.739651	-0.401615
C63	C	1.063518	-0.810015	-0.354604
C64	C	1.110621	-0.833461	-0.307587
C65	C	1.157703	-0.809989	-0.260565
C66	C	1.157677	-0.763074	-0.260555
C67	C	0.969313	-0.763122	-0.448637
C68	C	0.969342	-0.810038	-0.448642
C69	C	1.016445	-0.833484	-0.401625
C70	C	1.255357	-0.216423	-0.354579
C71	C	1.337156	-0.216426	-0.354589
C72	C	1.063449	-0.216384	-0.546511
C73	C	1.063468	-0.216370	-0.628310
C74	C	1.063558	-0.099236	-0.354610
C75	C	1.063623	-0.049302	-0.354633
C76	C	1.110592	-0.187612	-0.816523
C77	C	1.110601	-0.187599	-0.893382
C78	C	1.016397	-0.245059	-0.893334
C79	C	1.016385	-0.245070	-0.816477
C80	C	1.063487	-0.216347	-0.778073
C81	C	1.063507	-0.216323	-0.931789
C82	C	1.063517	-0.216309	-1.015123
C83	C	1.063477	-0.216360	-0.694734
C84	C	1.063402	-0.216413	-0.163351
C85	C	1.063526	-0.216300	-0.081553
H86	H	0.494047	-0.268612	-0.439810
H87	H	1.196053	-0.829087	-0.222280
O88	O	0.639677	-0.159717	-0.262010
C89	C	0.715751	-0.165891	-0.272069
H90	H	0.726251	-0.180648	-0.328820
H91	H	0.737518	-0.189781	-0.228347
C92	C	0.742363	-0.102306	-0.195755
C93	C	0.755260	-0.120426	-0.265461
H94	H	0.766735	-0.074262	-0.191676
H95	H	0.691111	-0.098147	-0.188976
H96	H	0.760502	-0.122218	-0.159328
H97	H	0.737112	-0.100516	-0.301886
H98	H	0.806510	-0.124581	-0.272246
H99	H	0.930998	-0.829142	-0.486939
O100	O	1.156456	-0.956066	-0.262018
C101	C	1.203970	-0.928893	-0.303955
H102	H	1.177982	-0.921855	-0.359701
H103	H	1.258508	-0.946942	-0.312095
C104	C	1.249227	-0.892979	-0.194998
C105	C	1.217305	-0.884332	-0.263464
H106	H	1.257456	-0.865493	-0.170020
H107	H	1.217218	-0.911288	-0.166743
H108	H	1.294672	-0.908021	-0.201790
H109	H	1.171857	-0.869295	-0.256670
H110	H	1.249306	-0.866020	-0.291716
H111	H	1.148958	-0.164199	-0.924684
H112	H	1.196014	-0.743968	-0.222259
H113	H	1.148944	-0.164223	-0.785257
O114	O	0.970860	-1.048630	-0.447435
C115	C	0.986888	-1.037116	-0.520793
H116	H	1.045674	-1.024183	-0.524557
H117	H	0.947412	-1.009896	-0.539986
C118	C	0.906108	-1.094661	-0.565290
C119	C	0.978312	-1.078781	-0.569914
H120	H	0.900816	-1.120361	-0.595592
H121	H	0.895308	-1.102418	-0.515868
H122	H	0.873221	-1.071974	-0.581283
H123	H	1.011198	-1.101466	-0.553913
H124	H	0.989118	-1.071029	-0.619335
H125	H	0.978021	-0.268469	-0.785170
O126	O	0.487931	-0.159750	-0.261982
C127	C	0.411852	-0.165912	-0.272073
H128	H	0.401326	-0.200602	-0.296071
H129	H	0.390087	-0.139297	-0.311346
C130	C	0.385293	-0.119130	-0.168153
C131	C	0.372365	-0.161738	-0.197621
H132	H	0.360934	-0.116553	-0.122228
H133	H	0.436549	-0.114976	-0.161355
H134	H	0.367156	-0.096955	-0.200887
H135	H	0.390510	-0.183912	-0.164891
H136	H	0.321111	-0.165896	-0.204411
H137	H	1.148723	-0.387411	-0.269213
O138	O	0.923482	-0.740420	-0.494330
C139	C	0.881950	-0.771203	-0.535843
H140	H	0.879450	-0.804660	-0.505699
H141	H	0.908864	-0.776152	-0.591764
C142	C	0.806673	-0.711853	-0.583388
C143	C	0.803597	-0.752945	-0.546363
H144	H	0.758342	-0.700591	-0.589881
H145	H	0.834655	-0.691114	-0.555423
H146	H	0.829105	-0.715983	-0.629985
H147	H	0.781174	-0.748814	-0.499763
H148	H	0.775609	-0.773683	-0.574320
H149	H	0.633474	-0.268610	-0.439794
H150	H	1.148784	-0.472520	-0.269233
O151	O	0.970686	-0.273025	-0.930561
C152	C	0.986723	-0.317803	-0.911773
H153	H	1.015002	-0.318742	-0.855973
H154	H	1.024550	-0.332929	-0.955027
C155	C	0.880213	-0.343863	-0.976730
C156	C	0.914940	-0.345017	-0.908193
H157	H	0.835935	-0.360651	-0.974525
H158	H	0.869409	-0.313696	-0.989391
H159	H	0.911742	-0.356468	-1.012768
H160	H	0.883414	-0.332407	-0.872158
H161	H	0.925737	-0.375183	-0.895526
H162	H	1.195985	-0.688328	-0.222250
O163	O	1.203304	-0.599583	-0.214746
C164	C	1.187263	-0.611080	-0.141384
H165	H	1.158978	-0.645161	-0.139840
H166	H	1.149440	-0.584705	-0.116548
C167	C	1.293778	-0.571374	-0.098778
C168	C	1.259044	-0.613234	-0.096881
H169	H	1.338055	-0.572701	-0.071326
H170	H	1.304585	-0.563626	-0.148203
H171	H	1.262252	-0.549399	-0.078083
H172	H	1.290567	-0.635208	-0.117585
H173	H	1.248245	-0.620986	-0.047459
O174	O	1.156589	-1.048547	-0.261974
C175	C	1.229909	-1.037023	-0.278170
H176	H	1.231368	-1.002948	-0.306466
H177	H	1.254688	-1.063396	-0.316037
C178	C	1.272766	-1.076688	-0.171733
C179	C	1.274558	-1.034835	-0.206481
H180	H	1.300309	-1.075341	-0.127513
H181	H	1.223369	-1.084454	-0.160822
H182	H	1.293413	-1.098662	-0.203296
H183	H	1.253902	-1.012864	-0.174921
H184	H	1.323952	-1.027066	-0.217385
O185	O	0.970703	-0.956116	-0.447219
C186	C	0.923168	-0.929031	-0.405273
H187	H	0.949155	-0.922002	-0.349528
H188	H	0.868647	-0.947153	-0.397132
C189	C	0.877870	-0.893094	-0.514220
C190	C	0.909791	-0.884457	-0.445755
H191	H	0.869614	-0.865599	-0.539191
H192	H	0.909892	-0.911342	-0.542481
H193	H	0.832439	-0.908196	-0.507426
H194	H	0.955224	-0.869360	-0.452550
H195	H	0.877775	-0.866205	-0.417496
O196	O	0.923531	-0.599640	-0.494408
C197	C	0.939597	-0.611058	-0.567772
H198	H	0.967905	-0.645105	-0.569325
H199	H	0.977408	-0.584619	-0.592587
C200	C	0.833065	-0.571439	-0.610384
C201	C	0.867827	-0.613258	-0.612292
H202	H	0.788795	-0.572794	-0.637847
H203	H	0.822241	-0.563745	-0.560958
H204	H	0.864581	-0.549411	-0.631062
H205	H	0.836315	-0.635284	-0.591605
H206	H	0.878644	-0.620956	-0.661715
O207	O	0.970595	-0.476314	-0.447279
C208	C	1.012485	-0.503395	-0.494870
H209	H	1.068276	-0.510397	-0.468968
H210	H	1.020528	-0.485284	-0.549410
C211	C	0.903492	-0.539385	-0.539983
C212	C	0.972013	-0.547988	-0.508167
H213	H	0.878527	-0.566891	-0.548189
H214	H	0.875269	-0.521139	-0.507922
H215	H	0.910204	-0.524292	-0.585430
H216	H	0.965301	-0.563076	-0.462718
H217	H	1.000234	-0.566238	-0.540221
O218	O	0.970490	-0.383815	-0.447336
C219	C	0.986561	-0.395230	-0.520699
H220	H	1.014856	-0.429281	-0.522255
H221	H	1.024385	-0.368795	-0.545505
C222	C	0.880049	-0.355593	-0.563317
C223	C	0.914796	-0.397416	-0.565228
H224	H	0.835782	-0.356939	-0.590786
H225	H	0.869223	-0.347900	-0.513891
H226	H	0.911576	-0.333567	-0.583987
H227	H	0.883272	-0.419440	-0.544550
H228	H	0.925615	-0.405113	-0.614652
H229	H	0.930924	-0.688387	-0.486928
