data_functionalizedCrystal
_audit_creation_method	'MofGen! by Chris Wilmer'
_symmetry_space_group_name_H-M	'P1'
_symmetry_Int_Tables_number	1
_symmetry_cell_setting	triclinic
loop_
_symmetry_equiv_pos_as_xyz
  x,y,z
_cell_length_a	12.759401
_cell_length_b	13.897448
_cell_length_c	12.759393
_cell_angle_alpha	90.032272
_cell_angle_beta	90.020938
_cell_angle_gamma	90.019217
loop_
_atom_site_label
_atom_site_type_symbol
_atom_site_fract_x
_atom_site_fract_y
_atom_site_fract_z
Zn1	Zn	1.606245	-0.383929	0.594007
Zn2	Zn	1.606126	-0.545255	0.418322
Zn3	Zn	1.430543	-0.383980	0.418342
Zn4	Zn	1.430526	-0.545188	0.593959
O5	O	1.518360	-0.464588	0.506158
O6	O	1.753250	-0.405336	0.570714
O7	O	1.582793	-0.523912	0.271303
O8	O	1.453907	-0.248992	0.441673
O9	O	1.753163	-0.523862	0.441638
O10	O	1.582994	-0.248954	0.570734
O11	O	1.453793	-0.405423	0.271318
O12	O	1.283520	-0.405358	0.441627
O13	O	1.453878	-0.523747	0.740987
O14	O	1.283507	-0.523797	0.570652
O15	O	1.582977	-0.405271	0.741022
O16	O	1.582776	-0.680228	0.441592
O17	O	1.453763	-0.680179	0.570632
C18	C	1.245393	-0.464576	0.506137
C19	C	1.128616	-0.464595	0.506153
C20	C	1.073775	-0.526359	0.573230
C21	C	0.964051	-0.526363	0.573251
C22	C	0.964019	-0.402834	0.439108
C23	C	1.073741	-0.402827	0.439093
C24	C	1.518283	-0.715203	0.506127
C25	C	1.518347	-0.822416	0.506149
C26	C	1.518457	-1.018711	0.506215
C27	C	1.518393	-0.909479	0.506182
C28	C	1.792393	-0.464601	0.506179
C29	C	1.909170	-0.464606	0.506188
C30	C	1.518439	-0.464496	0.780191
C31	C	1.518472	-0.464456	0.896968
C32	C	1.518466	-0.212995	0.506211
C33	C	1.518511	-0.105781	0.506234
C34	C	1.518342	-0.464611	0.233190
C35	C	1.518512	-0.464379	0.116414
C36	C	1.585699	-0.402756	0.951850
C37	C	1.585717	-0.402714	1.061574
C38	C	1.451278	-0.526082	1.061524
C39	C	1.451255	-0.526118	0.951802
H40	H	0.919404	-0.576657	0.627874
C41	C	0.903653	-0.334892	0.365345
C42	C	0.963980	-0.266944	0.291568
C43	C	0.903617	-0.198999	0.217805
C44	C	0.782927	-0.199002	0.217818
C45	C	0.722594	-0.266953	0.291598
C46	C	0.782956	-0.334898	0.365361
H47	H	1.053328	-0.266939	0.291556
H48	H	0.948281	-0.148697	0.163189
H49	H	0.738243	-0.148706	0.163214
H50	H	0.633246	-0.266958	0.291610
H51	H	0.738293	-0.385200	0.419978
H52	H	1.640459	-0.352470	1.106254
C53	C	1.134140	-0.594294	0.647002
C54	C	1.119015	-0.703941	0.638226
C55	C	1.179376	-0.771876	0.712002
C56	C	1.254862	-0.730163	0.794554
C57	C	1.269990	-0.620510	0.803333
C58	C	1.209629	-0.552576	0.729557
H59	H	1.063133	-0.734825	0.577113
H60	H	1.168177	-0.853048	0.705503
H61	H	1.299546	-0.780452	0.849168
H62	H	1.325873	-0.589627	0.864446
H63	H	1.220828	-0.471403	0.736056
H64	H	1.396554	-0.576287	1.106184
C65	C	1.134072	-0.334884	0.365298
C66	C	1.119022	-0.225238	0.374078
C67	C	1.179353	-0.157297	0.300288
C68	C	1.254733	-0.199001	0.217717
C69	C	1.269786	-0.308652	0.208933
C70	C	1.209456	-0.376593	0.282723
H71	H	1.063218	-0.194361	0.435205
H72	H	1.168209	-0.076126	0.306791
H73	H	1.299393	-0.148707	0.163093
H74	H	1.325590	-0.339529	0.147806
H75	H	1.220599	-0.457765	0.276220
C76	C	1.659627	-0.334922	0.891530
C77	C	1.651099	-0.225262	0.906639
C78	C	1.725025	-0.157424	0.846322
C79	C	1.807481	-0.199247	0.770897
C80	C	1.816012	-0.308913	0.755785
C81	C	1.742085	-0.376751	0.816102
H82	H	1.590057	-0.194297	0.962476
H83	H	1.718709	-0.076241	0.857509
H84	H	1.862206	-0.149029	0.726247
H85	H	1.877054	-0.339878	0.699948
H86	H	1.748402	-0.457934	0.804915
H87	H	1.396503	-0.576361	0.907116
