data_functionalizedCrystal
_audit_creation_method	'MofGen! by Chris Wilmer'
_symmetry_space_group_name_H-M	'P1'
_symmetry_Int_Tables_number	1
_symmetry_cell_setting	triclinic
loop_
_symmetry_equiv_pos_as_xyz
  x,y,z
_cell_length_a	13.032831
_cell_length_b	19.121063
_cell_length_c	13.033109
_cell_angle_alpha	99.873837
_cell_angle_beta	76.665514
_cell_angle_gamma	85.565596
loop_
_atom_site_label
_atom_site_type_symbol
_atom_site_fract_x
_atom_site_fract_y
_atom_site_fract_z
Zn1	Zn	1.672168	-0.493728	-0.834129
Zn2	Zn	2.005501	-0.160395	-0.500796
Zn3	Zn	2.338835	0.172939	-0.167462
Zn4	Zn	1.643819	-0.594088	-0.662147
Zn5	Zn	1.977153	-0.260754	-0.328814
Zn6	Zn	2.310486	0.072579	0.004520
Zn7	Zn	1.473926	-0.459568	-0.632104
Zn8	Zn	1.807259	-0.126235	-0.298771
Zn9	Zn	2.140592	0.207098	0.034562
Zn10	Zn	1.488838	-0.594026	-0.817187
Zn11	Zn	1.822171	-0.260692	-0.483854
Zn12	Zn	2.155505	0.072641	-0.150521
O13	O	1.569688	-0.535352	-0.736392
O14	O	1.903021	-0.202019	-0.403059
O15	O	2.236354	0.131314	-0.069725
O16	O	1.816233	-0.521363	-0.830978
O17	O	2.149566	-0.188030	-0.497645
O18	O	2.482900	0.145304	-0.164312
O19	O	1.603178	-0.561973	-0.508729
O20	O	1.936511	-0.228640	-0.175395
O21	O	2.269845	0.104693	0.157938
O22	O	1.505846	-0.365828	-0.653421
O23	O	1.839179	-0.032495	-0.320087
O24	O	2.172513	0.300839	0.013246
O25	O	1.795405	-0.595097	-0.704624
O26	O	2.128739	-0.261763	-0.371290
O27	O	2.462072	0.071570	-0.037957
O28	O	1.651494	-0.390925	-0.801847
O29	O	1.984827	-0.057592	-0.468514
O30	O	2.318161	0.275742	-0.135181
O31	O	1.478358	-0.463142	-0.486657
O32	O	1.811691	-0.129809	-0.153323
O33	O	2.145024	0.203524	0.180010
O34	O	1.328078	-0.463082	-0.636993
O35	O	1.661412	-0.129749	-0.303660
O36	O	1.994745	0.203584	0.029674
O37	O	1.531262	-0.594991	-0.968868
O38	O	1.864595	-0.261658	-0.635534
O39	O	2.197928	0.071675	-0.302201
O40	O	1.339034	-0.561868	-0.772973
O41	O	1.672368	-0.228534	-0.439639
O42	O	2.005701	0.104799	-0.106306
O43	O	1.665954	-0.521303	-0.981315
O44	O	1.999287	-0.187970	-0.647981
O45	O	2.332620	0.145364	-0.314648
O46	O	1.617638	-0.692351	-0.688196
O47	O	1.950971	-0.359018	-0.354863
O48	O	2.284304	-0.025684	-0.021529
O49	O	1.503773	-0.692306	-0.802104
O50	O	1.837107	-0.358972	-0.468770
O51	O	2.170440	-0.025639	-0.135437
C52	C	1.295227	-0.508762	-0.699885
C53	C	1.628560	-0.175429	-0.366552
C54	C	1.961893	0.157904	-0.033218
C55	C	1.177813	-0.497406	-0.684294
C56	C	1.511147	-0.164073	-0.350960
C57	C	1.844480	0.169261	-0.017627
C58	C	1.130899	-0.541279	-0.744529
C59	C	1.464233	-0.207946	-0.411196
C60	C	1.797566	0.125387	-0.077862
C61	C	1.009547	-0.529543	-0.728416
C62	C	1.342880	-0.196210	-0.395083
C63	C	1.676213	0.137123	-0.061749
C64	C	1.559279	-0.717814	-0.746599
C65	C	1.892612	-0.384481	-0.413265
C66	C	2.225946	-0.051147	-0.079932
C67	C	1.554927	-0.795885	-0.751014
C68	C	1.888260	-0.462551	-0.417680
C69	C	2.221594	-0.129218	-0.084347
C70	C	1.612225	-0.832573	-0.693846
C71	C	1.945558	-0.499240	-0.360512
C72	C	2.278892	-0.165907	-0.027179
C73	C	1.608139	-0.905930	-0.698005
C74	C	1.941472	-0.572597	-0.364672
C75	C	2.274806	-0.239264	-0.031338
C76	C	1.546748	-0.942596	-0.759327
C77	C	1.880082	-0.609263	-0.425994
C78	C	2.213415	-0.275929	-0.092660
C79	C	1.489449	-0.905903	-0.816502
C80	C	1.822782	-0.572569	-0.483168
C81	C	2.156115	-0.239236	-0.149835
C82	C	1.493541	-0.832548	-0.812348
C83	C	1.826875	-0.499215	-0.479014
C84	C	2.160208	-0.165882	-0.145681
C85	C	1.531428	-1.164080	-0.774839
C86	C	1.864761	-0.830746	-0.441505
C87	C	2.198095	-0.497413	-0.108172
C88	C	1.527337	-1.237439	-0.778986
C89	C	1.860671	-0.904106	-0.445652
C90	C	2.194004	-0.570772	-0.112319
C91	C	1.646029	-1.237462	-0.660490
C92	C	1.979363	-0.904128	-0.327157
C93	C	2.312696	-0.570795	0.006176
C94	C	1.650112	-1.164105	-0.656337
C95	C	1.983445	-0.830771	-0.323003
C96	C	2.316778	-0.497438	0.010330
C97	C	1.592816	-1.127419	-0.713516
C98	C	1.926150	-0.794085	-0.380182
C99	C	2.259483	-0.460752	-0.046849
C100	C	1.542568	-1.017578	-0.763577
C101	C	1.875901	-0.684245	-0.430244
C102	C	2.209234	-0.350912	-0.096911
C103	C	1.597004	-1.052439	-0.709271
C104	C	1.930337	-0.719106	-0.375937
C105	C	2.263670	-0.385772	-0.042604
C106	C	1.845220	-0.562047	-0.773042
C107	C	2.178554	-0.228714	-0.439709
C108	C	2.511887	0.104620	-0.106375
C109	C	1.962636	-0.573423	-0.788660
C110	C	2.295969	-0.240089	-0.455327
C111	C	2.629303	0.093244	-0.121993
C112	C	1.603433	-0.561951	-1.014921
C113	C	1.936767	-0.228617	-0.681588
C114	C	2.270100	0.104716	-0.348254
C115	C	1.617814	-0.573285	-1.133613
C116	C	1.951147	-0.239952	-0.800280
C117	C	2.284480	0.093381	-0.466947
C118	C	1.580169	-0.352183	-0.726173
C119	C	1.913502	-0.018850	-0.392839
C120	C	2.246835	0.314483	-0.059506
C121	C	1.584635	-0.274128	-0.721818
C122	C	1.917968	0.059206	-0.388484
C123	C	2.251302	0.392539	-0.055151
C124	C	1.562466	-0.529439	-1.175609
C125	C	1.895800	-0.196106	-0.842276
C126	C	2.229133	0.137228	-0.508943
C127	C	1.577328	-0.541153	-1.298284
C128	C	1.910661	-0.207819	-0.964951
C129	C	2.243994	0.125514	-0.631617
C130	C	1.536137	-0.508813	-0.458952
C131	C	1.869470	-0.175480	-0.125618
C132	C	2.202804	0.157854	0.207715
C133	C	1.521973	-0.497300	-0.340276
C134	C	1.855306	-0.163967	-0.006943
C135	C	2.188639	0.169366	0.326391
H136	H	1.128138	-0.451154	-0.620799
H137	H	1.461471	-0.117820	-0.287466
H138	H	1.794804	0.215513	0.045868
Br139	Br	1.045419	-0.650505	-0.894526
Br140	Br	1.378752	-0.317171	-0.561193
Br141	Br	1.712086	0.016162	-0.227859
H142	H	1.635718	-0.587367	-1.353146
H143	H	1.969051	-0.254034	-1.019813
H144	H	2.302385	0.079300	-0.686479
H145	H	1.700101	-1.134253	-0.606404
H146	H	2.033434	-0.800920	-0.273070
H147	H	2.366767	-0.467586	0.060263
Br148	Br	1.415784	-0.782757	-0.889943
Br149	Br	1.749118	-0.449424	-0.556610
Br150	Br	2.082451	-0.116090	-0.223277
H151	H	1.463579	-0.451088	-1.285415
H152	H	1.796912	-0.117755	-0.952082
H153	H	2.130245	0.215579	-0.618748
H154	H	1.676200	-0.619496	-1.188479
H155	H	2.009533	-0.286163	-0.855145
H156	H	2.342866	0.047171	-0.521812
H157	H	1.662210	-0.802724	-0.643906
H158	H	1.995544	-0.469391	-0.310572
H159	H	2.328877	-0.136057	0.022761
H160	H	0.959875	-0.483288	-0.664917
H161	H	1.293208	-0.149954	-0.331584
H162	H	1.626541	0.183379	0.001750
Br163	Br	1.213685	-0.618371	-0.850367
Br164	Br	1.547019	-0.285038	-0.517033
Br165	Br	1.880352	0.048296	-0.183700
H166	H	1.692678	-1.267340	-0.613940
H167	H	2.026011	-0.934006	-0.280607
H168	H	2.359344	-0.600673	0.052727
Br169	Br	1.443996	-1.287196	-0.862193
Br170	Br	1.777329	-0.953863	-0.528860
Br171	Br	2.110663	-0.620530	-0.195526
Br172	Br	1.685911	-0.955721	-0.620424
Br173	Br	2.019245	-0.622387	-0.287090
Br174	Br	2.352578	-0.289054	0.046243
H175	H	1.484774	-1.134215	-0.821394
H176	H	1.818107	-0.800882	-0.488061
H177	H	2.151440	-0.467549	-0.154727
Br178	Br	1.459256	-1.067345	-0.846800
Br179	Br	1.792590	-0.734012	-0.513466
Br180	Br	2.125923	-0.400679	-0.180133
Br181	Br	1.406142	-0.955665	-0.899736
Br182	Br	1.739475	-0.622331	-0.566402
Br183	Br	2.072809	-0.288998	-0.233069
H184	H	1.646992	-1.022584	-0.659347
H185	H	1.980326	-0.689251	-0.326014
H186	H	2.313659	-0.355918	0.007320
Br187	Br	1.465161	-0.452407	-1.084175
Br188	Br	1.798494	-0.119074	-0.750842
Br189	Br	2.131827	0.214259	-0.417509
