data_functionalizedCrystal
_audit_creation_method	'MofGen! by Chris Wilmer'
_symmetry_space_group_name_H-M	'P1'
_symmetry_Int_Tables_number	1
_symmetry_cell_setting	triclinic
loop_
_symmetry_equiv_pos_as_xyz
  x,y,z
_cell_length_a	12.759401
_cell_length_b	12.759400
_cell_length_c	11.169409
_cell_angle_alpha	90.033794
_cell_angle_beta	90.021169
_cell_angle_gamma	90.013799
loop_
_atom_site_label
_atom_site_type_symbol
_atom_site_fract_x
_atom_site_fract_y
_atom_site_fract_z
Zn1	Zn	1.606271	-0.418206	0.678574
Zn2	Zn	1.606161	-0.593932	0.477885
Zn3	Zn	1.430568	-0.418265	0.477903
Zn4	Zn	1.430562	-0.593841	0.678526
O5	O	1.518390	-0.506061	0.578222
O6	O	1.753277	-0.441530	0.651965
O7	O	1.582825	-0.570692	0.309938
O8	O	1.453925	-0.271236	0.504550
O9	O	1.753196	-0.570635	0.504520
O10	O	1.583013	-0.271193	0.651982
O11	O	1.453818	-0.441630	0.309951
O12	O	1.283546	-0.441542	0.504504
O13	O	1.453913	-0.570480	0.846482
O14	O	1.283541	-0.570537	0.651900
O15	O	1.583006	-0.441442	0.846517
O16	O	1.582818	-0.740941	0.504473
O17	O	1.453806	-0.740874	0.651883
C18	C	1.245423	-0.506036	0.578199
C19	C	1.128646	-0.506051	0.578218
C20	C	1.073756	-0.438795	0.501610
C21	C	0.964032	-0.438820	0.501625
C22	C	0.964098	-0.573360	0.654867
C23	C	1.073820	-0.573340	0.654845
C24	C	1.128582	-0.371507	0.424983
C25	C	1.073692	-0.304244	0.348370
C26	C	0.963968	-0.304269	0.348385
C27	C	0.909134	-0.371557	0.425014
C28	C	1.518328	-0.779028	0.578197
C29	C	1.518397	-0.895805	0.578226
C30	C	1.585649	-0.950667	0.501555
C31	C	1.585713	-1.060391	0.501592
C32	C	1.451266	-1.060381	0.654975
C33	C	1.451208	-0.950659	0.654943
C34	C	1.652838	-0.895812	0.424838
C35	C	1.720094	-0.950674	0.348160
C36	C	1.720158	-1.060398	0.348197
C37	C	1.652967	-1.115260	0.424912
C38	C	1.792424	-0.506086	0.578246
C39	C	1.909200	-0.506097	0.578256
C40	C	1.518471	-0.505944	0.891265
C41	C	1.518505	-0.505894	1.024665
C42	C	1.518482	-0.232028	0.578273
C43	C	1.518520	-0.115251	0.578295
C44	C	1.518370	-0.506101	0.266397
C45	C	1.518540	-0.505855	0.132998
H46	H	1.118345	-0.249467	0.285975
H47	H	0.919444	-0.628141	0.717256
Cl48	Cl	1.804567	-0.881707	0.251735
H49	H	0.919279	-0.249508	0.285995
H50	H	1.774928	-1.105064	0.285770
H51	H	1.652790	-0.806470	0.424796
Cl52	Cl	1.142830	-0.657895	0.751151
H53	H	1.396562	-1.105059	0.717432
Cl54	Cl	0.771194	-0.371600	0.425013
H55	H	1.396447	-0.905990	0.717377
H56	H	1.217925	-0.371476	0.424965
Cl57	Cl	1.652617	-1.253199	0.424460
