data_functionalizedCrystal
_audit_creation_method	'MofGen! by Chris Wilmer'
_symmetry_space_group_name_H-M	'P1'
_symmetry_Int_Tables_number	1
_symmetry_cell_setting	triclinic
loop_
_symmetry_equiv_pos_as_xyz
  x,y,z
_cell_length_a	14.044191
_cell_length_b	13.101039
_cell_length_c	10.654550
_cell_angle_alpha	93.394964
_cell_angle_beta	91.161646
_cell_angle_gamma	93.662449
loop_
_atom_site_label
_atom_site_type_symbol
_atom_site_fract_x
_atom_site_fract_y
_atom_site_fract_z
O1	O	1.264870	0.085164	-0.296681
O2	O	1.764870	0.585164	0.203319
O3	O	0.988829	0.085177	-0.285737
O4	O	1.488829	0.585177	0.214263
O5	O	1.133196	0.085164	-0.109108
O6	O	1.633196	0.585164	0.390892
O7	O	1.120504	0.085177	-0.473309
O8	O	1.620504	0.585177	0.026691
O9	O	1.122838	-0.085265	-0.121804
O10	O	1.622838	0.414735	0.378196
O11	O	0.978471	-0.085252	-0.298433
O12	O	1.478471	0.414748	0.201567
O13	O	1.254512	-0.085265	-0.309376
O14	O	1.754512	0.414735	0.190624
Zn15	Zn	1.114847	-0.112318	-0.305920
Zn16	Zn	1.614847	0.387682	0.194080
Zn17	Zn	1.128494	0.112230	-0.289193
Zn18	Zn	1.628494	0.612230	0.210807
O19	O	1.110146	-0.085252	-0.486005
O20	O	1.610146	0.414748	0.013995
C21	C	0.948305	-0.000036	-0.287298
C22	C	1.448305	0.499964	0.212702
C23	C	0.842985	-0.000031	-0.273018
C24	C	1.342985	0.499969	0.226982
C25	C	0.593192	-0.000038	-0.348184
C26	C	1.093192	0.499962	0.151816
C27	C	0.650156	-0.000040	-0.246934
C28	C	1.150156	0.499960	0.253066
C29	C	0.757456	-0.000035	-0.261451
C30	C	1.257456	0.499965	0.238549
C31	C	0.485882	-0.000044	-0.333669
C32	C	0.985882	0.499956	0.166331
N33	N	1.105540	-0.265565	-0.317336
N34	N	1.605540	0.234435	0.182664
C35	C	1.092878	-0.474607	-0.332880
C36	C	1.592878	0.025393	0.167120
C37	C	1.150468	-0.525488	-0.262228
C38	C	1.650468	-0.025488	0.237772
C39	C	1.143422	-0.641805	-0.270877
C40	C	1.643422	-0.141805	0.229123
C41	C	1.099922	-0.358278	-0.324233
C42	C	1.599922	0.141722	0.175767
C43	C	1.295037	-0.000050	-0.307815
C44	C	1.795037	0.499950	0.192185
C45	C	1.400357	-0.000048	-0.322094
C46	C	1.900357	0.499952	0.177906
C47	C	1.127085	-0.000050	-0.068564
C48	C	1.627085	0.499950	0.431436
C49	C	1.124297	-0.000048	0.071159
C50	C	1.624297	0.499952	0.571159
N51	N	1.137809	0.265477	-0.277768
N52	N	1.637809	0.765477	0.222232
C53	C	1.116257	-0.000035	-0.526549
C54	C	1.616257	0.499965	-0.026549
C55	C	1.119045	-0.000030	-0.666272
C56	C	1.619045	0.499970	-0.166272
C57	C	1.209298	-0.000052	0.142100
C58	C	1.709298	0.499948	0.642100
C59	C	1.206673	-0.000039	0.273386
C60	C	1.706673	0.499961	0.773386
C61	C	1.034038	-0.000024	0.262778
C62	C	1.534038	0.499976	0.762778
C63	C	1.036664	-0.000029	0.131495
C64	C	1.536664	0.499971	0.631495
C65	C	1.310413	0.059671	0.463615
C66	C	1.810413	0.559671	0.963615
C67	C	1.395417	0.059649	0.534559
C68	C	1.895417	0.559649	1.034559
C69	C	1.468848	-0.000079	0.492192
C70	C	1.968848	0.499921	0.992192
C71	C	1.457275	-0.059812	0.378880
C72	C	1.957275	0.440188	0.878880
C73	C	1.372269	-0.059800	0.307942
C74	C	1.872269	0.440200	0.807942
C75	C	1.298843	-0.000047	0.350310
C76	C	1.798843	0.499953	0.850310
C77	C	0.932930	-0.059747	-0.058737
C78	C	1.432930	0.440253	0.441263
C79	C	0.847922	-0.059743	-0.129678
C80	C	1.347922	0.440257	0.370322
C81	C	0.774483	-0.000020	-0.087314
C82	C	1.274483	0.499980	0.412686
C83	C	0.786045	0.059697	0.026000
C84	C	1.286045	0.559697	0.526000
C85	C	0.871053	0.059692	0.096941
C86	C	1.371053	0.559692	0.596941
C87	C	0.944492	-0.000029	0.054568
C88	C	1.444492	0.499971	0.554568
H89	H	0.625008	-0.000032	-0.445762
H90	H	1.125008	0.499968	0.054238
H91	H	0.962690	-0.000010	0.311919
H92	H	1.462690	0.499990	0.811919
Br93	Br	0.597130	-0.000049	-0.084283
Br94	Br	1.097130	0.499951	0.415717
Br95	Br	1.001887	-0.547598	-0.444517
Br96	Br	1.501887	-0.047598	0.055483
H97	H	1.205064	-0.481690	-0.195248
H98	H	1.705064	0.018310	0.304752
H99	H	1.280654	-0.000065	0.092979
H100	H	1.780654	0.499935	0.592979
H101	H	1.362845	-0.108436	0.215689
H102	H	1.862845	0.391564	0.715689
Br103	Br	1.556932	-0.140887	0.321395
Br104	Br	2.056932	0.359113	0.821395
H105	H	1.538060	-0.000095	0.549964
H106	H	2.038060	0.499905	1.049964
Br107	Br	1.210767	0.140760	0.521107
Br108	Br	1.710767	0.640760	1.021107
H109	H	1.404835	0.108291	0.626817
H110	H	1.904835	0.608291	1.126817
Br111	Br	0.886745	0.140735	0.250730
Br112	Br	1.386745	0.640735	0.750730
H113	H	0.726236	0.108306	0.060512
H114	H	1.226236	0.608306	0.560512
H115	H	0.838508	-0.108381	-0.221938
H116	H	1.338508	0.391619	0.278062
H117	H	0.705260	-0.000035	-0.145077
H118	H	1.205260	0.499965	0.354923
Br119	Br	1.032603	-0.140797	-0.116246
Br120	Br	1.532603	0.359203	0.383754
