data_functionalizedCrystal
_audit_creation_method	'MofGen! by Chris Wilmer'
_symmetry_space_group_name_H-M	'P1'
_symmetry_Int_Tables_number	1
_symmetry_cell_setting	triclinic
loop_
_symmetry_equiv_pos_as_xyz
  x,y,z
_cell_length_a	27.732064
_cell_length_b	27.731994
_cell_length_c	26.210047
_cell_angle_alpha	90.002872
_cell_angle_beta	89.991443
_cell_angle_gamma	82.634978
loop_
_atom_site_label
_atom_site_type_symbol
_atom_site_fract_x
_atom_site_fract_y
_atom_site_fract_z
O1	O	0.057385	0.640952	0.042352
O2	O	0.390718	0.974285	0.375685
O3	O	0.724051	1.307618	0.709019
O4	O	0.066158	0.500155	0.042368
O5	O	0.399491	0.833488	0.375702
O6	O	0.732824	1.166822	0.709035
O7	O	-0.008626	0.574922	0.042362
O8	O	0.324708	0.908255	0.375695
O9	O	0.658041	1.241589	0.709028
O10	O	0.132168	0.566185	0.042359
O11	O	0.465502	0.899518	0.375692
O12	O	0.798835	1.232851	0.709025
O13	O	-0.008614	0.574908	-0.042496
O14	O	0.324719	0.908241	0.290837
O15	O	0.658053	1.241574	0.624170
O16	O	0.066169	0.500141	-0.042490
O17	O	0.399503	0.833474	0.290844
O18	O	0.732836	1.166807	0.624177
O19	O	0.057396	0.640937	-0.042506
O20	O	0.390730	0.974271	0.290827
O21	O	0.724063	1.307604	0.624161
Cu22	Cu	0.061784	0.570538	-0.050246
Cu23	Cu	0.395117	0.903871	0.283087
Cu24	Cu	0.728451	1.237204	0.616421
Cu25	Cu	0.061770	0.570555	0.050108
Cu26	Cu	0.395103	0.903888	0.383442
Cu27	Cu	0.728437	1.237221	0.716775
O28	O	0.132180	0.566170	-0.042499
O29	O	0.465513	0.899504	0.290834
O30	O	0.798847	1.232837	0.624167
C31	C	0.065983	0.482140	-0.000058
C32	C	0.399317	0.815474	0.333275
C33	C	0.732650	1.148807	0.666608
C34	C	0.065441	0.428484	-0.000052
C35	C	0.398774	0.761817	0.333281
C36	C	0.732108	1.095151	0.666615
C37	C	0.062032	0.095758	-0.046328
C38	C	0.395365	0.429091	0.287006
C39	C	0.728698	0.762424	0.620339
C40	C	0.059970	-0.105901	-0.046334
C41	C	0.393303	0.227433	0.287000
C42	C	0.726637	0.560766	0.620333
O43	O	0.059688	-0.131980	-0.085672
O44	O	0.393021	0.201353	0.247661
O45	O	0.726355	0.534687	0.580994
N46	N	0.059708	-0.131108	-0.000077
N47	N	0.393041	0.202226	0.333256
N48	N	0.726374	0.535559	0.666589
C49	C	0.059958	-0.105897	0.046183
C50	C	0.393291	0.227437	0.379517
C51	C	0.726624	0.560770	0.712850
O52	O	0.059682	-0.131963	0.085527
O53	O	0.393015	0.201370	0.418860
O54	O	0.726349	0.534704	0.752194
C55	C	0.062016	0.095761	0.046189
C56	C	0.395349	0.429095	0.379522
C57	C	0.728682	0.762428	0.712855
C58	C	0.062283	0.120965	-0.000071
C59	C	0.395616	0.454298	0.333263
C60	C	0.728950	0.787632	0.666596
C61	C	0.062298	0.120961	-0.092583
C62	C	0.395632	0.454295	0.240750
C63	C	0.728965	0.787628	0.574084
C64	C	0.062816	0.171373	-0.092581
C65	C	0.396150	0.504706	0.240752
C66	C	0.729483	0.838039	0.574085
C67	C	0.063068	0.196580	-0.046324
C68	C	0.396401	0.529913	0.287009
C69	C	0.729734	0.863247	0.620343
C70	C	0.062801	0.171376	-0.000069
C71	C	0.396134	0.504709	0.333265
C72	C	0.729468	0.838043	0.666598
C73	C	0.062262	0.120972	0.092449
C74	C	0.395595	0.454305	0.425782
C75	C	0.728929	0.787639	0.759116
C76	C	0.062775	0.171390	0.092446
C77	C	0.396109	0.504723	0.425779
C78	C	0.729442	0.838056	0.759113
C79	C	0.063043	0.196593	0.046187
C80	C	0.396376	0.529927	0.379520
C81	C	0.729709	0.863260	0.712854
C82	C	0.063570	0.246995	0.046191
C83	C	0.396904	0.580328	0.379524
C84	C	0.730237	0.913661	0.712857
N85	N	0.063833	0.272202	-0.000066
N86	N	0.397166	0.605535	0.333268
N87	N	0.730499	0.938868	0.666601
C88	C	0.063581	0.246994	-0.046323
C89	C	0.396915	0.580328	0.287011
C90	C	0.730248	0.913661	0.620344
C91	C	0.058878	-0.211770	0.046177
C92	C	0.392211	0.121563	0.379511
C93	C	0.725545	0.454897	0.712844
C94	C	0.058364	-0.262184	0.046176
C95	C	0.391698	0.071149	0.379510
C96	C	0.725031	0.404482	0.712843
C97	C	0.058376	-0.262185	-0.046341
C98	C	0.391709	0.071149	0.286992
C99	C	0.725043	0.404482	0.620326
C100	C	0.058893	-0.211770	-0.046339
C101	C	0.392226	0.121563	0.286994
C102	C	0.725560	0.454897	0.620327
C103	C	0.059140	-0.186563	-0.000079
C104	C	0.392474	0.146770	0.333255
C105	C	0.725807	0.480104	0.666588
C106	C	0.064670	0.352861	-0.046315
C107	C	0.398003	0.686195	0.287018
C108	C	0.731336	1.019528	0.620351
C109	C	0.065190	0.403277	-0.046309
C110	C	0.398523	0.736610	0.287024
C111	C	0.731856	1.069943	0.620357
C112	C	0.065176	0.403273	0.046207
C113	C	0.398509	0.736607	0.379541
C114	C	0.731842	1.069940	0.712874
C115	C	0.064658	0.352862	0.046202
C116	C	0.397991	0.686195	0.379535
C117	C	0.731325	1.019529	0.712868
C118	C	0.064403	0.327657	-0.000064
C119	C	0.397737	0.660991	0.333270
C120	C	0.731070	0.994324	0.666603
O121	O	0.063847	0.273106	0.085509
O122	O	0.397180	0.606439	0.418842
O123	O	0.730514	0.939772	0.752176
O124	O	0.063846	0.273071	-0.085660
O125	O	0.397180	0.606404	0.247673
O126	O	0.730513	0.939738	0.581006
C127	C	0.061514	0.045346	-0.046330
C128	C	0.394847	0.378680	0.287004
C129	C	0.728180	0.712013	0.620337
C130	C	0.061247	0.020143	-0.000074
C131	C	0.394580	0.353476	0.333259
C132	C	0.727914	0.686809	0.666592
C133	C	0.061498	0.045350	0.046183
C134	C	0.394832	0.378683	0.379516
C135	C	0.728165	0.712017	0.712850
C136	C	0.060733	-0.030272	-0.000076
C137	C	0.394067	0.303062	0.333258
C138	C	0.727400	0.636395	0.666591
C139	C	0.060482	-0.055479	-0.046333
C140	C	0.393815	0.277854	0.287001
C141	C	0.727149	0.611188	0.620334
C142	C	0.060744	-0.030272	-0.092589
C143	C	0.394078	0.303061	0.240744
C144	C	0.727411	0.636395	0.574078
C145	C	0.061262	0.020139	-0.092587
C146	C	0.394596	0.353472	0.240746
C147	C	0.727929	0.686806	0.574080
C148	C	0.061236	0.020143	0.092439
C149	C	0.394569	0.353476	0.425772
C150	C	0.727902	0.686810	0.759106
C151	C	0.060718	-0.030268	0.092433
C152	C	0.394052	0.303065	0.425767
C153	C	0.727385	0.636398	0.759100
C154	C	0.060467	-0.055476	0.046176
C155	C	0.393800	0.277858	0.379509
C156	C	0.727134	0.611191	0.712843
C157	C	-0.026627	0.574730	-0.000066
C158	C	0.306707	0.908064	0.333268
C159	C	0.640040	1.241397	0.666601
C160	C	-0.080281	0.574174	-0.000061
C161	C	0.253052	0.907508	0.333272
C162	C	0.586386	1.240841	0.666606
C163	C	-0.457344	0.526206	-0.000053
C164	C	-0.124011	0.859539	0.333280
C165	C	0.209322	1.192872	0.666613
C166	C	-0.255685	0.528252	-0.000053
C167	C	0.077649	0.861585	0.333280
C168	C	0.410982	1.194919	0.666614
O169	O	-0.224425	0.491030	-0.000028
O170	O	0.108909	0.824363	0.333305
O171	O	0.442242	1.157697	0.666638
N172	N	-0.236566	0.572588	-0.000058
N173	N	0.096768	0.905921	0.333275
N174	N	0.430101	1.239254	0.666609
C175	C	-0.267865	0.616415	-0.000060
C176	C	0.065468	0.949748	0.333274
C177	C	0.398801	1.283081	0.666607
O178	O	-0.246976	0.654172	-0.000059
O179	O	0.086357	0.987505	0.333274
O180	O	0.419690	1.320838	0.666608
C181	C	-0.469524	0.614368	-0.000057
C182	C	-0.136191	0.947701	0.333277
C183	C	0.197142	1.281034	0.666610
C184	C	-0.488640	0.570029	-0.000057
C185	C	-0.155307	0.903363	0.333277
C186	C	0.178027	1.236696	0.666610
C187	C	-0.476461	0.481871	-0.000053
C188	C	-0.143127	0.815204	0.333280
C189	C	0.190206	1.148538	0.666614
C190	C	-0.526873	0.481360	-0.000056
C191	C	-0.193540	0.814693	0.333278
C192	C	0.139794	1.148027	0.666611
C193	C	-0.558168	0.525184	-0.000059
C194	C	-0.224835	0.858517	0.333274
C195	C	0.108498	1.191850	0.666608
C196	C	-0.539052	0.569518	-0.000060
C197	C	-0.205719	0.902852	0.333274
C198	C	0.127615	1.236185	0.666607
C199	C	-0.500823	0.658194	-0.000055
C200	C	-0.167490	0.991528	0.333279
C201	C	0.165844	1.324861	0.666612
C202	C	-0.551240	0.657679	-0.000053
C203	C	-0.217907	0.991012	0.333281
C204	C	0.115426	1.324345	0.666614
C205	C	-0.570356	0.613340	-0.000053
C206	C	-0.237023	0.946674	0.333281
C207	C	0.096311	1.280007	0.666614
C208	C	-0.620760	0.612831	-0.000066
C209	C	-0.287426	0.946164	0.333268
C210	C	0.045907	1.279498	0.666601
N211	N	-0.639879	0.568495	-0.000061
N212	N	-0.306545	0.901829	0.333273
N213	N	0.026788	1.235162	0.666606
C214	C	-0.608583	0.524672	-0.000057
C215	C	-0.275250	0.858005	0.333276
C216	C	0.058084	1.191338	0.666609
C217	C	-0.161991	0.617486	-0.000063
C218	C	0.171342	0.950819	0.333271
C219	C	0.504676	1.284153	0.666604
C220	C	-0.111577	0.617998	-0.000064
C221	C	0.221757	0.951331	0.333269
C222	C	0.555090	1.284665	0.666602
C223	C	-0.099399	0.529835	-0.000056
C224	C	0.233934	0.863169	0.333277
C225	C	0.567267	1.196502	0.666610
C226	C	-0.149815	0.529324	-0.000058
C227	C	0.183519	0.862657	0.333275
C228	C	0.516852	1.195991	0.666608
C229	C	-0.181110	0.573151	-0.000057
C230	C	0.152223	0.906484	0.333276
C231	C	0.485557	1.239817	0.666609
C232	C	-0.714452	0.523602	-0.000064
C233	C	-0.381119	0.856935	0.333269
C234	C	-0.047786	1.190268	0.666603
C235	C	-0.764869	0.523095	-0.000069
C236	C	-0.431536	0.856428	0.333264
C237	C	-0.098203	1.189761	0.666598
C238	C	-0.777042	0.611257	-0.000074
C239	C	-0.443709	0.944590	0.333259
C240	C	-0.110375	1.277924	0.666593
C241	C	-0.726630	0.611764	-0.000072
C242	C	-0.393296	0.945098	0.333262
C243	C	-0.059963	1.278431	0.666595
C244	C	-0.695335	0.567933	-0.000065
C245	C	-0.362002	0.901266	0.333268
C246	C	-0.028669	1.234600	0.666602
O247	O	-0.652048	0.650033	-0.000085
O248	O	-0.318715	0.983366	0.333249
O249	O	0.014619	1.316700	0.666582
O250	O	-0.629481	0.486920	-0.000047
O251	O	-0.296148	0.820254	0.333286
O252	O	0.037185	1.153587	0.666620
C253	C	-0.406932	0.526717	-0.000050
C254	C	-0.073599	0.860050	0.333283
C255	C	0.259734	1.193384	0.666616
C256	C	-0.387816	0.571052	-0.000051
C257	C	-0.054483	0.904385	0.333282
C258	C	0.278851	1.237718	0.666616
C259	C	-0.419112	0.614875	-0.000054
C260	C	-0.085778	0.948209	0.333279
C261	C	0.247555	1.281542	0.666612
C262	C	-0.337402	0.571563	-0.000053
C263	C	-0.004068	0.904897	0.333281
C264	C	0.329265	1.238230	0.666614
C265	C	-0.306106	0.527740	-0.000049
C266	C	0.027227	0.861073	0.333284
C267	C	0.360561	1.194406	0.666617
C268	C	-0.325225	0.483404	-0.000044
C269	C	0.008109	0.816738	0.333289
C270	C	0.341442	1.150071	0.666622
C271	C	-0.375637	0.482893	-0.000047
C272	C	-0.042303	0.816227	0.333286
C273	C	0.291030	1.149560	0.666620
C274	C	-0.399993	0.659211	-0.000059
C275	C	-0.066660	0.992544	0.333274
C276	C	0.266674	1.325877	0.666607
C277	C	-0.349580	0.659718	-0.000057
C278	C	-0.016247	0.993052	0.333276
C279	C	0.317086	1.326385	0.666610
C280	C	-0.318285	0.615895	-0.000054
C281	C	0.015049	0.949228	0.333280
C282	C	0.348382	1.282561	0.666613
C283	C	0.150181	0.566362	-0.000071
C284	C	0.483514	0.899696	0.333263
C285	C	0.816847	1.233029	0.666596
C286	C	0.203835	0.566918	-0.000072
C287	C	0.537168	0.900252	0.333261
C288	C	0.870502	1.233585	0.666594
C289	C	0.057571	0.658952	-0.000078
C290	C	0.390904	0.992285	0.333255
C291	C	0.724237	1.325619	0.666589
C292	C	0.058113	0.712608	-0.000081
C293	C	0.391446	1.045942	0.333252
C294	C	0.724780	1.379275	0.666586
N295	N	0.061793	0.570529	-0.120830
N296	N	0.395127	0.903863	0.212503
N297	N	0.728460	1.237196	0.545837
C298	C	0.028663	0.603658	-0.473347
C299	C	0.361997	0.936992	-0.140014
C300	C	0.695330	1.270325	0.193320
C301	C	0.028657	0.603669	-0.687006
C302	C	0.361990	0.937002	-0.353672
C303	C	0.695323	1.270336	-0.020339
O304	O	0.000491	0.631818	-0.714630
O305	O	0.333824	0.965151	-0.381297
O306	O	0.667157	1.298484	-0.047963
N307	N	0.061760	0.570557	-0.713724
N308	N	0.395093	0.903891	-0.380391
N309	N	0.728426	1.237224	-0.047057
C310	C	0.094864	0.537439	-0.687024
C311	C	0.428198	0.870772	-0.353691
C312	C	0.761531	1.204105	-0.020358
O313	O	0.123017	0.509272	-0.714652
O314	O	0.456350	0.842606	-0.381319
O315	O	0.789683	1.175939	-0.047986
C316	C	0.094868	0.537426	-0.473367
C317	C	0.428202	0.870760	-0.140033
C318	C	0.761535	1.204093	0.193300
C319	C	0.061767	0.570543	-0.446651
C320	C	0.395100	0.903876	-0.113318
C321	C	0.728433	1.237210	0.220016
C322	C	-0.004436	0.636772	-0.446631
C323	C	0.328897	0.970105	-0.113298
C324	C	0.662231	1.303439	0.220035
C325	C	-0.004432	0.636771	-0.393220
C326	C	0.328901	0.970104	-0.059887
C327	C	0.662235	1.303437	0.273447
C328	C	0.028671	0.603656	-0.366524
C329	C	0.362004	0.936989	-0.033191
C330	C	0.695338	1.270322	0.300143
C331	C	0.061770	0.570542	-0.393240
C332	C	0.395104	0.903875	-0.059906
C333	C	0.728437	1.237208	0.273427
C334	C	0.127970	0.504306	-0.446668
C335	C	0.461304	0.837639	-0.113335
C336	C	0.794637	1.170972	0.219999
C337	C	0.127968	0.504305	-0.393250
C338	C	0.461301	0.837638	-0.059917
C339	C	0.794634	1.170971	0.273416
C340	C	0.094866	0.537422	-0.366535
C341	C	0.428199	0.870755	-0.033201
C342	C	0.761533	1.204088	0.300132
C343	C	0.094877	0.537425	-0.313132
C344	C	0.428211	0.870759	0.020201
C345	C	0.761544	1.204092	0.353534
N346	N	0.061775	0.570537	-0.286414
N347	N	0.395108	0.903870	0.046919
N348	N	0.728441	1.237204	0.380253
C349	C	0.028671	0.603652	-0.313110
C350	C	0.362005	0.936985	0.020223
C351	C	0.695338	1.270319	0.353557
C352	C	0.094860	0.537448	-0.799198
C353	C	0.428194	0.870782	-0.465864
C354	C	0.761527	1.204115	-0.132531
C355	C	0.094860	0.537452	-0.852612
C356	C	0.428193	0.870785	-0.519278
C357	C	0.761527	1.204119	-0.185945
C358	C	0.028652	0.603682	-0.852589
C359	C	0.361985	0.937015	-0.519256
C360	C	0.695318	1.270348	-0.185923
C361	C	0.028655	0.603680	-0.799174
C362	C	0.361988	0.937013	-0.465841
C363	C	0.695321	1.270347	-0.132508
C364	C	0.061758	0.570560	-0.772479
C365	C	0.395091	0.903893	-0.439146
C366	C	0.728424	1.237226	-0.105813
C367	C	0.028682	0.603647	-0.200942
C368	C	0.362015	0.936981	0.132391
C369	C	0.695349	1.270314	0.465725
C370	C	0.028690	0.603644	-0.147526
C371	C	0.362024	0.936978	0.185808
C372	C	0.695357	1.270311	0.519141
C373	C	0.094897	0.537413	-0.147553
C374	C	0.428230	0.870747	0.185780
C375	C	0.761563	1.204080	0.519114
C376	C	0.094890	0.537418	-0.200964
C377	C	0.428224	0.870751	0.132369
C378	C	0.761557	1.204084	0.465702
C379	C	0.061779	0.570536	-0.227658
C380	C	0.395112	0.903870	0.105676
C381	C	0.728446	1.237203	0.439009
O382	O	0.123025	0.509288	-0.285475
O383	O	0.456358	0.842621	0.047858
O384	O	0.789692	1.175954	0.381192
O385	O	0.000516	0.631807	-0.285473
O386	O	0.333849	0.965140	0.047861
O387	O	0.667183	1.298474	0.381194
C388	C	0.028660	0.603659	-0.526758
C389	C	0.361993	0.936993	-0.193425
C390	C	0.695326	1.270326	0.139908
C391	C	0.061759	0.570546	-0.553474
C392	C	0.395092	0.903879	-0.220141
C393	C	0.728426	1.237212	0.113193
C394	C	0.094862	0.537430	-0.526778
C395	C	0.428196	0.870764	-0.193445
C396	C	0.761529	1.204097	0.139889
C397	C	0.061759	0.570549	-0.606888
C398	C	0.395092	0.903883	-0.273555
C399	C	0.728425	1.237216	0.059779
C400	C	0.028656	0.603664	-0.633584
C401	C	0.361989	0.936998	-0.300251
C402	C	0.695322	1.270331	0.033083
C403	C	-0.004447	0.636776	-0.606866
C404	C	0.328886	0.970109	-0.273532
C405	C	0.662219	1.303442	0.059801
C406	C	-0.004443	0.636775	-0.553454
C407	C	0.328890	0.970108	-0.220121
C408	C	0.662223	1.303441	0.113212
C409	C	0.127965	0.504319	-0.553496
C410	C	0.461298	0.837652	-0.220163
C411	C	0.794632	1.170986	0.113170
C412	C	0.127959	0.504323	-0.606908
C413	C	0.461292	0.837657	-0.273575
C414	C	0.794626	1.170990	0.059759
C415	C	0.094856	0.537438	-0.633604
C416	C	0.428189	0.870772	-0.300270
C417	C	0.761522	1.204105	0.033063
N418	N	0.061757	0.570567	0.120692
N419	N	0.395090	0.903900	0.454026
N420	N	0.728424	1.237234	0.787359
H421	H	0.060505	-0.050785	0.130106
H422	H	0.393838	0.282548	0.463439
H423	H	0.727171	0.615881	0.796773
H424	H	0.065409	0.423795	-0.083981
H425	H	0.398742	0.757128	0.249353
H426	H	0.732076	1.090462	0.582686
F427	F	-0.810358	0.657895	-0.000081
F428	F	-0.477024	0.991228	0.333252
F429	F	-0.143691	1.324561	0.666585
H430	H	0.061439	0.040662	0.130108
H431	H	0.394772	0.373995	0.463441
H432	H	0.728106	0.707329	0.796775
H433	H	0.001700	0.630646	-0.777426
H434	H	0.335034	0.963980	-0.444092
H435	H	0.668367	1.297313	-0.110759
H436	H	0.064467	0.332345	-0.083989
H437	H	0.397800	0.665679	0.249344
H438	H	0.731133	0.999012	0.582678
F439	F	-0.006542	0.638894	-0.119096
F440	F	0.326792	0.972227	0.214238
F441	F	0.660125	1.305561	0.547571
F442	F	0.064381	0.326036	0.095436
F443	F	0.397715	0.659370	0.428769
F444	F	0.731048	0.992703	0.762102
F445	F	-0.091238	0.665189	-0.000072
F446	F	0.242095	0.998522	0.333262
F447	F	0.575429	1.331855	0.666595
F448	F	-0.785210	0.475902	-0.000070
F449	F	-0.451877	0.809235	0.333263
F450	F	-0.118544	1.142568	0.666596
F451	F	0.059177	-0.184951	-0.095574
F452	F	0.392510	0.148383	0.237759
F453	F	0.725843	0.481716	0.571093
F454	F	-0.006559	0.638896	-0.229343
F455	F	0.326775	0.972229	0.103990
F456	F	0.660108	1.305563	0.437324
F457	F	0.130097	0.502211	-0.881039
F458	F	0.463430	0.835544	-0.547706
F459	F	0.796764	1.168877	-0.214373
F460	F	0.062032	0.094141	-0.141821
F461	F	0.395366	0.427475	0.191512
F462	F	0.728699	0.760808	0.524846
H463	H	-0.031400	0.663741	-0.628610
H464	H	0.301934	0.997075	-0.295277
H465	H	0.635267	1.330408	0.038056
H466	H	-0.031398	0.663741	-0.531706
H467	H	0.301935	0.997075	-0.198373
H468	H	0.635269	1.330408	0.134960
H469	H	0.063031	0.191889	-0.130250
H470	H	0.396365	0.525223	0.203083
H471	H	0.729698	0.858556	0.536416
H472	H	0.059079	-0.191251	0.083850
H473	H	0.392412	0.142082	0.417184
H474	H	0.725746	0.475416	0.750517
F475	F	-0.681153	0.476951	-0.000057
F476	F	-0.347820	0.810285	0.333276
F477	F	-0.014487	1.143618	0.666610
F478	F	0.058108	-0.289021	-0.095572
F479	F	0.391442	0.044313	0.237762
F480	F	0.724775	0.377646	0.571095
H481	H	-0.187468	0.653177	-0.000063
H482	H	0.145865	0.986511	0.333271
H483	H	0.479199	1.319844	0.666604
H484	H	-0.031388	0.663736	-0.371471
H485	H	0.301946	0.997069	-0.038138
H486	H	0.635279	1.330403	0.295195
H487	H	0.058154	-0.282702	0.083845
H488	H	0.391488	0.050631	0.417178
H489	H	0.724821	0.383965	0.750512
H490	H	-0.031395	0.663738	-0.468362
H491	H	0.301939	0.997072	-0.135029
H492	H	0.635272	1.330405	0.198304
F493	F	-0.395975	0.435702	-0.000046
F494	F	-0.062641	0.769035	0.333287
F495	F	0.270692	1.102369	0.666620
F496	F	0.061977	0.094159	0.141685
F497	F	0.395310	0.427493	0.475018
F498	F	0.728643	0.760826	0.808352
F499	F	0.163195	0.469076	-0.635336
F500	F	0.496528	0.802409	-0.302002
F501	F	0.829862	1.135742	0.031331
F502	F	-0.706284	0.658954	-0.000088
F503	F	-0.372951	0.992287	0.333245
F504	F	-0.039618	1.325621	0.666579
H505	H	0.062977	0.191911	0.130118
H506	H	0.396310	0.525244	0.463451
H507	H	0.729644	0.858577	0.796785
F508	F	-0.006579	0.638925	-0.881011
F509	F	0.326754	0.972258	-0.547677
F510	F	0.660088	1.305592	-0.214344
F511	F	0.065442	0.430110	0.095435
F512	F	0.398775	0.763443	0.428769
F513	F	0.732108	1.096776	0.762102
F514	F	-0.066084	0.483195	-0.000053
F515	F	0.267250	0.816528	0.333280
F516	F	0.600583	1.149861	0.666613
F517	F	0.061547	0.046956	-0.141823
F518	F	0.394880	0.380290	0.191511
F519	F	0.728213	0.713623	0.524844
H520	H	0.060542	-0.050805	-0.130253
H521	H	0.393876	0.282528	0.203080
H522	H	0.727209	0.615862	0.536413
H523	H	0.121818	0.510477	-0.777466
H524	H	0.455151	0.843811	-0.444133
H525	H	0.788485	1.177144	-0.110799
H526	H	0.121849	0.510455	-0.222717
H527	H	0.455183	0.843789	0.110617
H528	H	0.788516	1.177122	0.443950
H529	H	0.154924	0.477339	-0.468412
H530	H	0.488258	0.810672	-0.135079
H531	H	0.821591	1.144005	0.198254
F532	F	-0.547211	0.434169	-0.000051
F533	F	-0.213877	0.767502	0.333282
F534	F	0.119456	1.100835	0.666615
F535	F	0.163199	0.469072	-0.525091
F536	F	0.496533	0.802405	-0.191757
F537	F	0.829866	1.135738	0.141576
H538	H	-0.450984	0.446182	-0.000048
H539	H	-0.117651	0.779516	0.333285
H540	H	0.215682	1.112849	0.666618
F541	F	0.163200	0.469051	-0.364843
F542	F	0.496534	0.802385	-0.031510
F543	F	0.829867	1.135718	0.301824
F544	F	-0.480490	0.705386	-0.000046
F545	F	-0.147156	1.038719	0.333288
F546	F	0.186177	1.372053	0.666621
F547	F	-0.170154	0.482134	-0.000058
F548	F	0.163179	0.815467	0.333276
F549	F	0.496512	1.148800	0.666609
H550	H	-0.576719	0.693369	-0.000049
H551	H	-0.243386	1.026702	0.333284
H552	H	0.089948	1.360035	0.666617
H553	H	0.121850	0.510453	-0.125809
H554	H	0.455184	0.843786	0.207525
H555	H	0.788517	1.177119	0.540858
F556	F	-0.291909	0.436764	-0.000043
F557	F	0.041425	0.770097	0.333290
F558	F	0.374758	1.103431	0.666624
H559	H	-0.334022	0.695827	-0.000061
H560	H	-0.000688	1.029160	0.333272
H561	H	0.332645	1.362493	0.666606
H562	H	-0.425469	0.694898	-0.000062
H563	H	-0.092136	1.028231	0.333272
H564	H	0.241197	1.361565	0.666605
