data_functionalizedCrystal
_audit_creation_method	'MofGen! by Chris Wilmer'
_symmetry_space_group_name_H-M	'P1'
_symmetry_Int_Tables_number	1
_symmetry_cell_setting	triclinic
loop_
_symmetry_equiv_pos_as_xyz
  x,y,z
_cell_length_a	17.038275
_cell_length_b	16.098538
_cell_length_c	14.971486
_cell_angle_alpha	87.274078
_cell_angle_beta	92.637799
_cell_angle_gamma	87.063517
loop_
_atom_site_label
_atom_site_type_symbol
_atom_site_fract_x
_atom_site_fract_y
_atom_site_fract_z
O1	O	-1.041091	0.069273	0.190503
O2	O	-0.541091	0.569273	0.690503
O3	O	-0.813457	0.069271	0.187421
O4	O	-0.313457	0.569271	0.687421
O5	O	-0.933375	0.069266	0.059219
O6	O	-0.433375	0.569266	0.559219
O7	O	-0.921173	0.069278	0.318705
O8	O	-0.421173	0.569278	0.818705
O9	O	-0.926370	-0.069246	0.066677
O10	O	-0.426370	0.430754	0.566677
O11	O	-0.806452	-0.069241	0.194879
O12	O	-0.306452	0.430759	0.694879
O13	O	-1.034086	-0.069239	0.197960
O14	O	-0.534086	0.430761	0.697960
Zn15	Zn	-0.919157	-0.091232	0.197604
Zn16	Zn	-0.419157	0.408768	0.697604
Zn17	Zn	-0.928386	0.091264	0.187778
Zn18	Zn	-0.428386	0.591264	0.687778
O19	O	-0.914168	-0.069234	0.326163
O20	O	-0.414168	0.430766	0.826163
C21	C	-0.780823	0.000015	0.188345
C22	C	-0.280823	0.500015	0.688345
C23	C	-0.694020	0.000014	0.179977
C24	C	-0.194020	0.500014	0.679977
C25	C	-0.203548	0.000010	0.128564
C26	C	0.296452	0.500010	0.628564
C27	C	-0.285108	0.000006	0.136435
C28	C	0.214892	0.500006	0.636435
C29	C	-0.316640	0.000014	0.221149
C30	C	0.183360	0.500014	0.721149
C31	C	-0.266608	0.000017	0.297998
C32	C	0.233392	0.500017	0.797998
C33	C	-0.185050	0.000015	0.290127
C34	C	0.314950	0.500015	0.790127
C35	C	-0.562430	0.000015	0.248955
C36	C	-0.062430	0.500015	0.748955
C37	C	-0.643995	0.000020	0.256820
C38	C	-0.143995	0.500020	0.756820
C39	C	-0.662489	0.000007	0.095256
C40	C	-0.162489	0.500007	0.595256
C41	C	-0.580928	0.000010	0.087392
C42	C	-0.080928	0.500010	0.587392
C43	C	-0.530903	0.000009	0.164242
C44	C	-0.030903	0.500009	0.664242
C45	C	-0.400007	0.000013	0.229195
C46	C	0.099993	0.500013	0.729195
C47	C	-0.447538	0.000004	0.156195
C48	C	0.052462	0.500004	0.656195
N49	N	-0.912864	-0.215781	0.204309
N50	N	-0.412864	0.284219	0.704309
C51	C	-0.963780	-0.259368	0.149917
C52	C	-0.463780	0.240632	0.649917
C53	C	-0.959385	-0.346557	0.154617
C54	C	-0.459385	0.153443	0.654617
C55	C	-0.904077	-0.390157	0.213714
C56	C	-0.404077	0.109843	0.713714
C57	C	-0.853155	-0.346564	0.268108
C58	C	-0.353155	0.153436	0.768108
C59	C	-0.857547	-0.259377	0.263403
C60	C	-0.357547	0.240623	0.763403
C61	C	-0.888156	-0.653406	0.230755
C62	C	-0.388156	-0.153406	0.730755
C63	C	-0.883769	-0.740600	0.235458
C64	C	-0.383769	-0.240600	0.735458
C65	C	-0.989999	-0.740587	0.121965
C66	C	-0.489999	-0.240587	0.621965
C67	C	-0.994390	-0.653398	0.117269
C68	C	-0.494390	-0.153398	0.617269
C69	C	-0.943465	-0.609812	0.171660
C70	C	-0.443465	-0.109812	0.671660
C71	C	-0.899585	-0.479278	0.218522
C72	C	-0.399585	0.020722	0.718522
C73	C	-0.947954	-0.520693	0.166847
C74	C	-0.447954	-0.020693	0.666847
C75	C	-0.066720	0.000017	0.197037
C76	C	0.433280	0.500017	0.697037
C77	C	-0.153523	0.000016	0.205408
C78	C	0.346477	0.500016	0.705408
C79	C	-0.929327	0.000010	0.029582
C80	C	-0.429327	0.500010	0.529582
C81	C	-0.927692	0.000011	-0.069837
C82	C	-0.427692	0.500011	0.430163
N83	N	-0.934686	0.215813	0.181066
N84	N	-0.434686	0.715813	0.681066
C85	C	-0.998140	0.000011	-0.121789
C86	C	-0.498140	0.500011	0.378211
C87	C	-0.996600	0.000019	-0.215204
C88	C	-0.496600	0.500019	0.284796
C89	C	-0.924609	0.000022	-0.256666
C90	C	-0.424609	0.500022	0.243334
C91	C	-0.854155	0.000024	-0.204707
C92	C	-0.354155	0.500024	0.295293
C93	C	-0.855697	0.000022	-0.111294
C94	C	-0.355697	0.500022	0.388706
C95	C	-0.850946	0.000027	-0.399410
C96	C	-0.350946	0.500027	0.100590
C97	C	-0.849403	0.000028	-0.492830
C98	C	-0.349403	0.500028	0.007170
C99	C	-0.991849	0.000025	-0.503320
C100	C	-0.491849	0.500025	-0.003320
C101	C	-0.993391	0.000022	-0.409907
C102	C	-0.493391	0.500022	0.090093
C103	C	-0.922936	0.000023	-0.357955
C104	C	-0.422936	0.500023	0.142045
C105	C	-0.918217	0.000023	0.355799
C106	C	-0.418217	0.500023	0.855799
C107	C	-0.919852	0.000028	0.455219
C108	C	-0.419852	0.500028	0.955219
H109	H	-0.292288	0.000019	0.366974
H110	H	0.207712	0.500019	0.866974
H111	H	-0.555261	0.000003	0.018409
H112	H	-0.055261	0.500003	0.518409
Cl113	Cl	-0.824141	-0.598619	0.299134
Cl114	Cl	-0.324141	-0.098619	0.799134
H115	H	-0.992983	-0.485191	0.118727
H116	H	-0.492983	0.014809	0.618727
Cl117	Cl	-1.088648	-0.000000	-0.069675
Cl118	Cl	-0.588648	0.500000	0.430325
Cl119	Cl	-0.122160	0.000017	0.386735
Cl120	Cl	0.377840	0.500017	0.886735
Cl121	Cl	-0.763652	0.000038	-0.256831
Cl122	Cl	-0.263652	0.500038	0.243169
H123	H	-0.669664	0.000014	0.325808
H124	H	-0.169664	0.500014	0.825808
H125	H	-0.793574	0.000030	-0.357113
H126	H	-0.293574	0.500030	0.142887
H127	H	-0.798330	0.000022	-0.068996
H128	H	-0.298330	0.500022	0.431004
Cl129	Cl	-0.163916	0.000003	0.022061
Cl130	Cl	0.336084	0.500003	0.522061
Cl131	Cl	-1.083895	0.000024	-0.357785
Cl132	Cl	-0.583895	0.500024	0.142215
H133	H	-0.808117	-0.382068	0.316224
H134	H	-0.308117	0.117932	0.816224
H135	H	-1.008822	-0.223875	0.101798
H136	H	-0.508822	0.276125	0.601798
Cl137	Cl	-0.439655	0.000033	0.335689
Cl138	Cl	0.060345	0.500033	0.835689
Cl139	Cl	-0.793531	-0.204582	0.331782
Cl140	Cl	-0.293531	0.295418	0.831782
H141	H	-1.049215	0.000027	-0.545624
H142	H	-0.549215	0.500027	-0.045624
Cl143	Cl	-0.758899	0.000031	-0.544952
Cl144	Cl	-0.258899	0.500031	-0.044952
Cl145	Cl	-1.063922	-0.598586	0.042976
Cl146	Cl	-0.563922	-0.098586	0.542976
Cl147	Cl	-0.347994	-0.000006	0.039827
Cl148	Cl	0.152006	0.499994	0.539827
Cl149	Cl	-0.407895	-0.000010	0.049701
Cl150	Cl	0.092105	0.499990	0.549701
H151	H	-0.703227	0.000007	0.032690
H152	H	-0.203227	0.500007	0.532690
H153	H	-0.854553	-0.514784	0.266642
H154	H	-0.354553	-0.014784	0.766642
H155	H	-1.053966	0.000018	-0.257500
H156	H	-0.553966	0.500018	0.242500
H157	H	-1.000845	-0.382045	0.110326
H158	H	-0.500845	0.117955	0.610326
Cl159	Cl	-1.054012	-0.795384	0.053588
Cl160	Cl	-0.554012	-0.295384	0.553588
Cl161	Cl	-0.499552	0.000026	0.345566
Cl162	Cl	0.000448	0.500026	0.845566
H163	H	-0.838728	-0.776095	0.283586
H164	H	-0.338728	-0.276095	0.783586
