data_functionalizedCrystal
_audit_creation_method	'MofGen! by Chris Wilmer'
_symmetry_space_group_name_H-M	'P1'
_symmetry_Int_Tables_number	1
_symmetry_cell_setting	triclinic
loop_
_symmetry_equiv_pos_as_xyz
  x,y,z
_cell_length_a	10.967926
_cell_length_b	19.288865
_cell_length_c	17.766277
_cell_angle_alpha	90.011603
_cell_angle_beta	102.119897
_cell_angle_gamma	96.057564
loop_
_atom_site_label
_atom_site_type_symbol
_atom_site_fract_x
_atom_site_fract_y
_atom_site_fract_z
O1	O	1.655087	-0.097406	0.152085
O2	O	1.291753	-0.106733	0.104953
O3	O	1.483919	-0.001007	0.129896
O4	O	1.462921	-0.203132	0.127143
O5	O	1.483885	-0.001002	0.255080
O6	O	1.291719	-0.106727	0.230137
O7	O	1.655053	-0.097400	0.277270
Cu8	Cu	1.473383	-0.102063	0.265134
Cu9	Cu	1.473423	-0.102070	0.117089
O10	O	1.462888	-0.203126	0.252327
C11	C	1.245253	-0.106052	0.161516
C12	C	1.106746	-0.104023	0.143549
C13	C	1.044978	-0.103115	0.200388
C14	C	0.901825	-0.101018	0.181820
C15	C	1.483226	0.024876	0.192403
C16	C	1.481198	0.101993	0.192146
C17	C	1.701554	-0.098081	0.220706
C18	C	1.840060	-0.100110	0.238667
C19	C	1.463580	-0.229010	0.189818
C20	C	1.465608	-0.306126	0.190070
N21	N	1.473364	-0.102058	0.369262
C22	C	1.593952	0.145957	0.206777
C23	C	1.592047	0.218416	0.206518
C24	C	1.477381	0.246909	0.191642
C25	C	1.364612	0.202936	0.177006
C26	C	1.366521	0.130478	0.177258
C27	C	1.387228	0.355784	0.223799
C28	C	1.385324	0.428241	0.223552
C29	C	1.471489	0.470393	0.190861
C30	C	1.559580	0.440080	0.158430
C31	C	1.561488	0.367622	0.158682
C32	C	1.475299	0.325476	0.191367
C33	C	1.582185	0.592925	0.205211
C34	C	1.580275	0.665386	0.204946
C35	C	1.352837	0.649904	0.175442
C36	C	1.354750	0.577445	0.175699
C37	C	1.469428	0.548960	0.190588
N38	N	1.473452	-0.102070	0.012962
C39	C	1.558483	-0.055266	0.419697
C40	C	1.558490	-0.055263	0.498500
C41	C	1.473391	-0.102064	0.526866
C42	C	1.388256	-0.148859	0.476419
C43	C	1.388243	-0.148857	0.397617
C44	C	1.456687	-0.165243	0.649527
C45	C	1.456708	-0.165247	0.728329
C46	C	1.473424	-0.102072	0.769916
C47	C	1.490144	-0.038892	0.732696
C48	C	1.490131	-0.038889	0.653894
C49	C	1.473395	-0.102072	0.612312
C50	C	1.558555	-0.055273	0.905799
C51	C	1.558553	-0.055269	0.984602
C52	C	1.388326	-0.148871	0.962521
C53	C	1.388321	-0.148870	0.883718
C54	C	1.473442	-0.102071	0.855363
H55	H	1.687331	0.122769	0.218897
H56	H	1.271250	0.226139	0.164893
H57	H	1.675563	0.569732	0.217330
H58	H	1.053648	-0.103245	0.081141
O59	O	1.305542	-0.194227	0.504048
C60	C	1.228774	-0.156638	0.539682
H61	H	1.278783	-0.102540	0.557980
H62	H	1.208882	-0.185530	0.592510
H63	H	1.136583	-0.151447	0.497373
H64	H	1.683868	0.254218	0.218429
O65	O	1.241372	0.677492	0.161081
C66	C	1.172652	0.655109	0.217013
H67	H	1.206363	0.604706	0.243008
H68	H	1.068693	0.645547	0.188943
H69	H	1.187329	0.696974	0.264313
O70	O	1.506241	0.022532	0.772976
C71	C	1.409525	0.063328	0.741212
H72	H	1.369122	0.046149	0.678762
H73	H	1.448869	0.120589	0.743619
H74	H	1.332378	0.056235	0.775567
O75	O	1.647091	0.338286	0.127112
C76	C	1.722761	0.391022	0.098220
H77	H	1.670486	0.439209	0.086139
H78	H	1.745317	0.371568	0.042626
H79	H	1.813666	0.404933	0.142531
H80	H	1.098078	-0.103887	0.262796
O81	O	1.643118	0.481034	0.126556
C82	C	1.577795	0.518571	0.065794
H83	H	1.480401	0.490064	0.043341
H84	H	1.631523	0.523032	0.017296
H85	H	1.568640	0.572969	0.087610
O86	O	1.689926	0.707995	0.219207
C87	C	1.791544	0.667312	0.232383
H88	H	1.759557	0.613398	0.251938
H89	H	1.870508	0.693670	0.278975
H90	H	1.826739	0.661970	0.176893
O91	O	0.903230	-0.101126	0.313154
C92	C	0.857063	-0.160718	0.348689
H93	H	0.757714	-0.179355	0.316469
H94	H	0.855981	-0.147147	0.410983
H95	H	0.920160	-0.203839	0.347349
H96	H	1.443053	-0.216690	0.615671
H97	H	1.262934	0.541649	0.163790
O98	O	1.641104	-0.009734	0.878240
C99	C	1.621283	0.059141	0.894921
H100	H	1.521410	0.060015	0.903658
H101	H	1.635815	0.093899	0.844968
H102	H	1.690592	0.079204	0.949624
O103	O	1.257101	0.087668	0.163031
C104	C	1.283375	0.017606	0.166467
H105	H	1.381372	0.014357	0.155482
H106	H	1.211490	-0.014885	0.120798
H107	H	1.278508	-0.003306	0.225898
O108	O	1.299923	0.457728	0.255160
C109	C	1.363020	0.504038	0.315629
H110	H	1.461559	0.488870	0.338251
H111	H	1.309228	0.501217	0.364112
H112	H	1.369295	0.559471	0.293424
O113	O	0.838409	-0.100216	0.107370
C114	C	0.748633	-0.159153	0.091701
H115	H	0.777811	-0.201697	0.134175
H116	H	0.742184	-0.179289	0.030506
H117	H	0.653309	-0.144130	0.097750
O118	O	1.305513	-0.194383	0.348731
C119	C	1.230375	-0.235677	0.390657
H120	H	1.281527	-0.236723	0.453458
H121	H	1.211021	-0.291050	0.365368
H122	H	1.137820	-0.212652	0.387049
H123	H	1.317059	0.321469	0.250423
H124	H	1.627790	-0.017159	0.396613
O125	O	1.641293	-0.009779	0.547402
C126	C	1.716389	0.031543	0.505473
H127	H	1.717636	0.003062	0.449455
H128	H	1.816090	0.041633	0.541165
H129	H	1.676169	0.083346	0.491894
O130	O	1.506155	0.022444	0.617634
C131	C	1.400235	0.028579	0.558361
H132	H	1.350118	-0.025491	0.540046
H133	H	1.431304	0.054800	0.506981
H134	H	1.333635	0.061391	0.580124
O135	O	1.305605	-0.194239	0.990141
C136	C	1.228830	-0.156649	1.025769
H137	H	1.278837	-0.102552	1.044068
H138	H	1.208930	-0.185542	1.078595
H139	H	1.136644	-0.151459	0.983455
O140	O	1.305599	-0.194396	0.834833
C141	C	1.230466	-0.235693	0.876761
H142	H	1.281623	-0.236739	0.939560
H143	H	1.211112	-0.291065	0.851470
H144	H	1.137910	-0.212669	0.873156
H145	H	1.627863	-0.017162	1.025668
H146	H	1.443102	-0.216692	0.758629
