data_functionalizedCrystal
_audit_creation_method	'MofGen! by Chris Wilmer'
_symmetry_space_group_name_H-M	'P1'
_symmetry_Int_Tables_number	1
_symmetry_cell_setting	triclinic
loop_
_symmetry_equiv_pos_as_xyz
  x,y,z
_cell_length_a	18.215407
_cell_length_b	13.031981
_cell_length_c	18.215398
_cell_angle_alpha	82.791416
_cell_angle_beta	89.983470
_cell_angle_gamma	97.189409
loop_
_atom_site_label
_atom_site_type_symbol
_atom_site_fract_x
_atom_site_fract_y
_atom_site_fract_z
Zn1	Zn	1.087906	-0.416214	-0.378812
Zn2	Zn	1.587906	0.083786	0.121188
Zn3	Zn	1.072210	-0.590996	-0.240105
Zn4	Zn	1.572210	-0.090996	0.259895
Zn5	Zn	0.964838	-0.416231	-0.255764
Zn6	Zn	1.464838	0.083769	0.244236
Zn7	Zn	0.949204	-0.590937	-0.363142
Zn8	Zn	1.449204	-0.090937	0.136858
O9	O	1.018539	-0.503595	-0.309456
O10	O	1.518539	-0.003595	0.190544
O11	O	1.188807	-0.439417	-0.360417
O12	O	1.688807	0.060583	0.139583
O13	O	1.057940	-0.567845	-0.139195
O14	O	1.557940	-0.067845	0.360805
O15	O	0.994275	-0.269967	-0.285199
O16	O	1.494275	0.230033	0.214801
O17	O	1.177274	-0.567829	-0.258510
O18	O	1.677274	-0.067829	0.241490
O19	O	1.084693	-0.269954	-0.375601
O20	O	1.584693	0.230046	0.124399
O21	O	0.979055	-0.439446	-0.150700
O22	O	1.479055	0.060554	0.349300
O23	O	0.859782	-0.439389	-0.270003
O24	O	1.359782	0.060611	0.229997
O25	O	0.967629	-0.567727	-0.468207
O26	O	1.467629	-0.067727	0.031793
O27	O	0.848295	-0.567744	-0.348893
O28	O	1.348295	-0.067744	0.151107
O29	O	1.069533	-0.439359	-0.479721
O30	O	1.569533	0.060641	0.020279
O31	O	1.042781	-0.737250	-0.243314
O32	O	1.542781	-0.237250	0.256686
O33	O	0.952409	-0.737206	-0.333709
O34	O	1.452409	-0.237206	0.166291
C35	C	0.827336	-0.503562	-0.309447
C36	C	1.327336	-0.003562	0.190553
C37	C	0.745536	-0.503574	-0.309459
C38	C	1.245536	-0.003574	0.190541
C39	C	0.474505	-0.570539	-0.350459
C40	C	0.974505	-0.070539	0.149541
C41	C	0.551365	-0.570530	-0.350456
C42	C	1.051365	-0.070530	0.149544
C43	C	0.563313	-0.436674	-0.268463
C44	C	1.063313	0.063326	0.231537
C45	C	0.486454	-0.436689	-0.268462
C46	C	0.986454	0.063311	0.231538
C47	C	0.442053	-0.503620	-0.309465
C48	C	0.942053	-0.003620	0.190535
C49	C	0.595771	-0.503596	-0.309463
C50	C	1.095771	-0.003596	0.190537
C51	C	0.679105	-0.503586	-0.309459
C52	C	1.179105	-0.003586	0.190541
C53	C	0.358712	-0.503631	-0.309467
C54	C	0.858712	-0.003631	0.190533
C55	C	0.994215	-0.775152	-0.285128
C56	C	1.494215	-0.275152	0.214872
C57	C	0.983876	-0.891326	-0.274745
C58	C	1.483876	-0.391326	0.225255
C59	C	1.023975	-0.943030	-0.314889
C60	C	1.523975	-0.443030	0.185111
C61	C	1.013290	-1.063101	-0.304159
C62	C	1.513290	-0.563101	0.195841
C63	C	1.210489	-0.503627	-0.309465
C64	C	1.710489	-0.003627	0.190535
C65	C	1.292287	-0.503641	-0.309468
C66	C	1.792287	-0.003641	0.190532
C67	C	1.018588	-0.503534	-0.501414
C68	C	1.518588	-0.003534	-0.001414
C69	C	1.018609	-0.503509	-0.583215
C70	C	1.518609	-0.003509	-0.083215
C71	C	1.042979	-0.230976	-0.333895
C72	C	1.542979	0.269024	0.166105
C73	C	1.053394	-0.114803	-0.344309
C74	C	1.553394	0.385197	0.155691
C75	C	1.059730	-0.570237	-0.842298
C76	C	1.559730	-0.070237	-0.342298
C77	C	1.059716	-0.570273	-0.765436
C78	C	1.559716	-0.070273	-0.265436
C79	C	0.977562	-0.436579	-0.777399
C80	C	1.477562	0.063421	-0.277399
C81	C	0.977573	-0.436549	-0.854259
C82	C	1.477573	0.063451	-0.354259
C83	C	1.018661	-0.503376	-0.886707
C84	C	1.518661	-0.003376	-0.386707
C85	C	1.018636	-0.503443	-0.732985
C86	C	1.518636	-0.003443	-0.232985
C87	C	1.018620	-0.503482	-0.649648
C88	C	1.518620	-0.003482	-0.149648
C89	C	1.018676	-0.503339	-0.970049
C90	C	1.518676	-0.003339	-0.470049
C91	C	1.018540	-0.503579	-0.118251
C92	C	1.518540	-0.003579	0.381749
C93	C	1.018688	-0.503310	-0.036476
C94	C	1.518688	-0.003310	0.463524
H95	H	0.599474	-0.382179	-0.235082
H96	H	1.099474	0.117821	0.264918
H97	H	1.095634	-1.070181	-0.386628
H98	H	1.595634	-0.570181	0.113372
O99	O	0.962838	-1.116165	-0.253666
O100	O	1.462838	-0.616165	0.246334
C101	C	0.870540	-1.105075	-0.161170
C102	C	1.370540	-0.605075	0.338830
C103	C	0.927636	-1.044850	-0.218337
C104	C	1.427636	-0.544850	0.281663
H105	H	0.842074	-1.047443	-0.132579
H106	H	1.342074	-0.547443	0.367421
H107	H	0.827474	-1.156170	-0.190355
H108	H	1.327474	-0.656170	0.309645
H109	H	0.899844	-1.156209	-0.118215
H110	H	1.399844	-0.656209	0.381785
H111	H	0.898395	-0.993659	-0.261308
H112	H	1.398395	-0.493659	0.238692
H113	H	0.970697	-0.993821	-0.189100
H114	H	1.470697	-0.493821	0.310900
H115	H	0.941633	-0.935952	-0.232436
H116	H	1.441633	-0.435952	0.267564
H117	H	0.944111	-0.382169	-0.750970
H118	H	1.444111	0.117831	-0.250970
H119	H	0.460031	-0.382193	-0.235076
H120	H	0.960031	0.117807	0.264924
H121	H	1.066212	-0.898406	-0.357206
H122	H	1.566212	-0.398406	0.142794
O123	O	1.099497	-0.635332	-0.722256
O124	O	1.599497	-0.135332	-0.222256
C125	C	1.096749	-0.776445	-0.622811
C126	C	1.596749	-0.276445	-0.122811
C127	C	1.051605	-0.702843	-0.671672
C128	C	1.551605	-0.202843	-0.171672
H129	H	1.058050	-0.831032	-0.581892
H130	H	1.558050	-0.331032	-0.081892
H131	H	1.126095	-0.824276	-0.659168
H132	H	1.626095	-0.324276	-0.159168
H133	H	1.139539	-0.728454	-0.591166
H134	H	1.639539	-0.228454	-0.091166
H135	H	1.008778	-0.750753	-0.703326
H136	H	1.508778	-0.250753	-0.203326
H137	H	1.022311	-0.655008	-0.635276
H138	H	1.522311	-0.155008	-0.135276
H139	H	0.438355	-0.625039	-0.383846
H140	H	0.938355	-0.125039	0.116154
H141	H	1.093186	-0.624654	-0.868715
H142	H	1.593186	-0.124654	-0.368715
O143	O	0.937568	-0.371646	-0.897315
O144	O	1.437568	0.128354	-0.397315
C145	C	0.816926	-0.320942	-0.925383
C146	C	1.316926	0.179058	-0.425383
C147	C	0.862146	-0.394483	-0.876562
C148	C	1.362146	0.105517	-0.376562
H149	H	0.755937	-0.339394	-0.908633
H150	H	1.255937	0.160606	-0.408633
H151	H	0.837338	-0.236651	-0.917815
H152	H	1.337338	0.263349	-0.417815
H153	H	0.824027	-0.332384	-0.985889
H154	H	1.324027	0.167616	-0.485889
H155	H	0.855065	-0.383134	-0.816039
H156	H	1.355065	0.116866	-0.316039
H157	H	0.841724	-0.478746	-0.884194
H158	H	1.341724	0.021254	-0.384194
O159	O	0.582773	-0.635566	-0.390347
O160	O	1.082773	-0.135566	0.109653
C161	C	0.562802	-0.768375	-0.471641
C162	C	1.062802	-0.268375	0.028359
C163	C	0.527140	-0.694753	-0.426510
C164	C	1.027140	-0.194753	0.073490
H165	H	0.517838	-0.816262	-0.500878
H166	H	1.017838	-0.316262	-0.000878
H167	H	0.603061	-0.720501	-0.514511
H168	H	1.103061	-0.220501	-0.014511
H169	H	0.593913	-0.822918	-0.432896
H170	H	1.093913	-0.322918	0.067104
H171	H	0.495990	-0.640195	-0.465198
H172	H	0.995990	-0.140195	0.034802
H173	H	0.486921	-0.742691	-0.383633
H174	H	0.986921	-0.242691	0.116367
