data_functionalizedCrystal
_audit_creation_method	'MofGen! by Chris Wilmer'
_symmetry_space_group_name_H-M	'P1'
_symmetry_Int_Tables_number	1
_symmetry_cell_setting	triclinic
loop_
_symmetry_equiv_pos_as_xyz
  x,y,z
_cell_length_a	16.625546
_cell_length_b	16.959455
_cell_length_c	16.959447
_cell_angle_alpha	90.022996
_cell_angle_beta	90.032298
_cell_angle_gamma	90.019488
loop_
_atom_site_label
_atom_site_type_symbol
_atom_site_fract_x
_atom_site_fract_y
_atom_site_fract_z
Zn1	Zn	-0.321049	1.208391	0.447026
Zn2	Zn	0.012284	1.541724	0.780359
Zn3	Zn	0.345618	1.875058	1.113693
Zn4	Zn	-0.455897	1.208302	0.314843
Zn5	Zn	-0.122563	1.541635	0.648176
Zn6	Zn	0.210770	1.874969	0.981510
Zn7	Zn	-0.321075	1.076214	0.314849
Zn8	Zn	0.012259	1.409547	0.648183
Zn9	Zn	0.345592	1.742880	0.981516
Zn10	Zn	-0.455836	1.076179	0.446968
Zn11	Zn	-0.122503	1.409512	0.780301
Zn12	Zn	0.210830	1.742845	1.113634
O13	O	-0.388464	1.142271	0.380921
O14	O	-0.055131	1.475605	0.714255
O15	O	0.278202	1.808938	1.047588
O16	O	-0.338951	1.318990	0.429513
O17	O	-0.005618	1.652324	0.762847
O18	O	0.327715	1.985657	1.096180
O19	O	-0.438048	1.190758	0.204233
O20	O	-0.104715	1.524091	0.537566
O21	O	0.228618	1.857424	0.870900
O22	O	-0.208239	1.093799	0.332410
O23	O	0.125094	1.427132	0.665743
O24	O	0.458428	1.760466	0.999077
O25	O	-0.438023	1.318925	0.332399
O26	O	-0.104690	1.652258	0.665732
O27	O	0.228643	1.985591	0.999066
O28	O	-0.208220	1.190909	0.429520
O29	O	0.125113	1.524243	0.762853
O30	O	0.458447	1.857576	1.096186
O31	O	-0.338995	1.093713	0.204238
O32	O	-0.005662	1.427046	0.537571
O33	O	0.327672	1.760379	0.870904
O34	O	-0.338937	0.965598	0.332354
O35	O	-0.005603	1.298931	0.665687
O36	O	0.327730	1.632265	0.999020
O37	O	-0.437921	1.093740	0.557586
O38	O	-0.104587	1.427073	0.890920
O39	O	0.228746	1.760406	1.224253
O40	O	-0.437946	0.965572	0.429420
O41	O	-0.104612	1.298906	0.762753
O42	O	0.228721	1.632239	1.096087
O43	O	-0.338893	1.190876	0.557629
O44	O	-0.005560	1.524209	0.890962
O45	O	0.327774	1.857542	1.224296
O46	O	-0.568721	1.190724	0.332342
O47	O	-0.235388	1.524057	0.665676
O48	O	0.097946	1.857390	0.999009
O49	O	-0.568677	1.093653	0.429414
O50	O	-0.235343	1.426987	0.762747
O51	O	0.097990	1.760320	1.096081
C52	C	-0.388438	0.936905	0.380882
C53	C	-0.055105	1.270238	0.714215
C54	C	0.278229	1.603572	1.047548
C55	C	-0.388446	0.849048	0.380883
C56	C	-0.055113	1.182382	0.714217
C57	C	0.278221	1.515715	1.047550
C58	C	-0.440000	0.477528	0.330328
C59	C	-0.106667	0.810862	0.663662
C60	C	0.226667	1.144195	0.996995
C61	C	-0.336996	0.477618	0.431611
C62	C	-0.003662	0.810951	0.764944
C63	C	0.329671	1.144284	1.098278
C64	C	-0.336982	0.560164	0.431592
C65	C	-0.003649	0.893497	0.764925
C66	C	0.329684	1.226830	1.098258
C67	C	-0.388479	0.601396	0.380941
C68	C	-0.055146	0.934729	0.714274
C69	C	0.278187	1.268062	1.047607
C70	C	-0.439990	0.560082	0.330309
C71	C	-0.106657	0.893415	0.663643
C72	C	0.226677	1.226748	0.996976
C73	C	-0.285479	0.601484	0.482228
C74	C	0.047855	0.934817	0.815561
C75	C	0.381188	1.268150	1.148895
C76	C	-0.285464	0.684034	0.482211
C77	C	0.047870	1.017368	0.815545
C78	C	0.381203	1.350701	1.148878
C79	C	-0.336958	0.725268	0.431556
C80	C	-0.003624	1.058601	0.764889
C81	C	0.329709	1.391935	1.098223
C82	C	-0.388469	0.683949	0.380922
C83	C	-0.055136	1.017282	0.714255
C84	C	0.278197	1.350616	1.047588
C85	C	-0.439967	0.725181	0.330271
C86	C	-0.106633	1.058514	0.663604
C87	C	0.226700	1.391848	0.996938
C88	C	-0.491475	0.683864	0.279632
C89	C	-0.158142	1.017197	0.612965
C90	C	0.175192	1.350530	0.946299
C91	C	-0.491484	0.601315	0.279654
C92	C	-0.158150	0.934649	0.612987
C93	C	0.175183	1.267982	0.946320
C94	C	-0.336949	0.807816	0.431534
C95	C	-0.003616	1.141150	0.764868
C96	C	0.329718	1.474483	1.098201
C97	C	-0.439957	0.807735	0.330252
C98	C	-0.106623	1.141068	0.663585
C99	C	0.226710	1.474401	0.996918
C100	C	-0.597955	1.142197	0.380888
C101	C	-0.264622	1.475530	0.714222
C102	C	0.068712	1.808863	1.047555
C103	C	-0.687576	1.142237	0.380901
C104	C	-0.354243	1.475570	0.714234
C105	C	-0.020910	1.808904	1.047567
C106	C	-1.015752	1.142375	0.380983
C107	C	-0.682418	1.475708	0.714316
C108	C	-0.349085	1.809041	1.047650
C109	C	-0.924443	1.142334	0.380962
C110	C	-0.591110	1.475667	0.714296
C111	C	-0.257777	1.809001	1.047629
C112	C	-0.851667	1.142305	0.380941
C113	C	-0.518334	1.475639	0.714275
C114	C	-0.185000	1.808972	1.047608
C115	C	-0.760353	1.142266	0.380922
C116	C	-0.427019	1.475599	0.714255
C117	C	-0.093686	1.808932	1.047588
C118	C	-0.178155	1.142368	0.380972
C119	C	0.155178	1.475701	0.714305
C120	C	0.488511	1.809035	1.047639
C121	C	-0.088534	1.142409	0.380994
C122	C	0.244799	1.475742	0.714327
C123	C	0.578132	1.809076	1.047660
C124	C	-0.388397	1.142314	0.587090
C125	C	-0.055064	1.475647	0.920423
C126	C	0.278269	1.808980	1.253756
C127	C	-0.388369	1.142332	0.674946
C128	C	-0.055035	1.475665	1.008280
C129	C	0.278298	1.808998	1.341613
C130	C	-0.388491	1.348440	0.380962
C131	C	-0.055158	1.681773	0.714295
C132	C	0.278175	2.015106	1.047629
C133	C	-0.388503	1.436296	0.380979
C134	C	-0.055169	1.769629	0.714312
C135	C	0.278164	2.102963	1.047646
C136	C	-0.388473	1.142275	0.175555
C137	C	-0.055140	1.475608	0.508889
C138	C	0.278194	1.808941	0.842222
C139	C	-0.388274	1.142410	0.087699
C140	C	-0.054941	1.475743	0.421032
C141	C	0.278392	1.809076	0.754366
C142	C	-0.336711	1.091875	1.046431
C143	C	-0.003378	1.425208	1.379764
C144	C	0.329955	1.758541	1.713098
C145	C	-0.439856	1.192928	1.046414
C146	C	-0.106523	1.526261	1.379747
C147	C	0.226810	1.859595	1.713080
C148	C	-0.439875	1.192914	0.963868
C149	C	-0.106542	1.526248	1.297201
C150	C	0.226792	1.859581	1.630534
C151	C	-0.388312	1.142379	0.922600
C152	C	-0.054979	1.475713	1.255933
C153	C	0.278355	1.809046	1.589266
C154	C	-0.336730	1.091858	0.963877
C155	C	-0.003397	1.425191	1.297211
C156	C	0.329936	1.758524	1.630544
C157	C	-0.491462	1.243429	0.922584
C158	C	-0.158128	1.576763	1.255917
C159	C	0.175205	1.910096	1.589250
C160	C	-0.491483	1.243417	0.840033
C161	C	-0.158150	1.576750	1.173366
C162	C	0.175184	1.910084	1.506699
C163	C	-0.439915	1.192885	0.798763
C164	C	-0.106582	1.526219	1.132096
C165	C	0.226751	1.859552	1.465430
C166	C	-0.388331	1.142362	0.840046
C167	C	-0.054998	1.475696	1.173379
C168	C	0.278336	1.809029	1.506713
C169	C	-0.336768	1.091827	0.798778
C170	C	-0.003435	1.425160	1.132111
C171	C	0.329899	1.758494	1.465445
C172	C	-0.285179	1.041308	0.840059
C173	C	0.048155	1.374641	1.173393
C174	C	0.381488	1.707974	1.506726
C175	C	-0.285162	1.041326	0.922608
C176	C	0.048171	1.374659	1.255941
C177	C	0.381504	1.707992	1.589275
C178	C	-0.439932	1.192867	0.716215
C179	C	-0.106598	1.526200	1.049548
C180	C	0.226735	1.859534	1.382881
C181	C	-0.336787	1.091810	0.716224
C182	C	-0.003453	1.425144	1.049558
C183	C	0.329880	1.758477	1.382891
H184	H	-0.243522	0.717668	0.523444
H185	H	0.089811	1.051002	0.856778
H186	H	0.423145	1.384335	1.190111
H187	H	-0.481929	1.234005	0.682607
H188	H	-0.148596	1.567338	1.015940
H189	H	0.184737	1.900671	1.349274
O190	O	-0.547110	1.297920	0.795516
O191	O	-0.213777	1.631253	1.128850
O192	O	0.119557	1.964587	1.462183
H193	H	-0.610389	1.284350	0.811337
H194	H	-0.277056	1.617683	1.144670
H195	H	0.056277	1.951017	1.478004
O196	O	-0.495499	0.852207	0.275619
O197	O	-0.162165	1.185540	0.608952
O198	O	0.171168	1.518873	0.942285
H199	H	-0.531317	0.809606	0.240416
H200	H	-0.197983	1.142940	0.573749
H201	H	0.135350	1.476273	0.907083
O202	O	-0.229562	0.986808	0.795542
O203	O	0.103772	1.320142	1.128875
O204	O	0.437105	1.653475	1.462209
H205	H	-0.243375	0.924766	0.811362
H206	H	0.089959	1.258099	1.144695
H207	H	0.423292	1.591433	1.478028
H208	H	-0.533408	0.717446	0.238396
H209	H	-0.200075	1.050779	0.571730
H210	H	0.133258	1.384112	0.905063
O211	O	-0.547039	0.556755	0.225041
O212	O	-0.213705	0.890088	0.558375
O213	O	0.119628	1.223421	0.891708
H214	H	-0.538399	0.492427	0.233572
H215	H	-0.205066	0.825760	0.566905
H216	H	0.128268	1.159093	0.900239
O217	O	-0.229508	0.986855	0.967130
O218	O	0.103826	1.320188	1.300463
O219	O	0.437159	1.653521	1.633796
H220	H	-0.238159	0.995358	1.031464
H221	H	0.095175	1.328691	1.364797
H222	H	0.428508	1.662025	1.698130
H223	H	-0.294706	1.050745	1.080046
H224	H	0.038627	1.384078	1.413379
H225	H	0.371960	1.717412	1.746713
H226	H	-0.481935	0.443884	0.289097
H227	H	-0.148601	0.777217	0.622431
H228	H	0.184732	1.110551	0.955764
O229	O	-0.495469	1.247433	1.090918
O230	O	-0.162136	1.580766	1.424251
O231	O	0.171197	1.914099	1.757584
H232	H	-0.486788	1.238959	1.155254
H233	H	-0.153454	1.572293	1.488588
H234	H	0.179879	1.905626	1.821921
O235	O	-0.547071	1.297932	0.967095
O236	O	-0.213737	1.631266	1.300428
O237	O	0.119596	1.964599	1.633762
H238	H	-0.610356	1.284337	0.951238
H239	H	-0.277023	1.617671	1.284572
H240	H	0.056311	1.951004	1.617905
H241	H	-0.295073	0.444042	0.472853
H242	H	0.038260	0.777375	0.806186
H243	H	0.371593	1.110708	1.139520
H244	H	-0.243557	0.567906	0.523470
H245	H	0.089776	0.901240	0.856803
H246	H	0.423109	1.234573	1.190137
H247	H	-0.295013	0.841453	0.472765
H248	H	0.038320	1.174787	0.806099
H249	H	0.371653	1.508120	1.139432
O250	O	-0.281167	1.037309	0.671713
O251	O	0.052167	1.370642	1.005047
O252	O	0.385500	1.703975	1.338380
H253	H	-0.245296	1.002184	0.714289
H254	H	0.088037	1.335517	1.047622
H255	H	0.421371	1.668851	1.380956
