data_functionalizedCrystal
_audit_creation_method	'MofGen! by Chris Wilmer'
_symmetry_space_group_name_H-M	'P1'
_symmetry_Int_Tables_number	1
_symmetry_cell_setting	triclinic
loop_
_symmetry_equiv_pos_as_xyz
  x,y,z
_cell_length_a	14.446369
_cell_length_b	21.606444
_cell_length_c	21.606444
_cell_angle_alpha	60.001331
_cell_angle_beta	90.002213
_cell_angle_gamma	59.997435
loop_
_atom_site_label
_atom_site_type_symbol
_atom_site_fract_x
_atom_site_fract_y
_atom_site_fract_z
Zr1	Zr	0.891754	0.677418	-0.081179
O2	O	0.743935	0.806546	-0.180005
O3	O	0.937070	0.548297	-0.050886
O4	O	0.937058	0.677421	-0.180005
O5	O	0.743955	0.677418	0.050967
O6	O	1.089395	0.677415	-0.180001
O7	O	0.743947	0.677422	-0.050887
O8	O	1.089416	0.446436	0.050968
O9	O	0.743933	0.908397	-0.180002
O10	O	1.070082	0.601400	-0.037960
O11	O	0.956400	0.601401	0.038049
O12	O	0.956387	0.753427	-0.113971
O13	O	0.842705	0.753428	-0.037961
Zr14	Zr	1.134726	0.677402	0.081273
Zr15	Zr	1.134714	0.677409	-0.081173
Zr16	Zr	0.891766	0.677411	0.081267
Zr17	Zr	0.891751	0.839859	-0.081174
Zr18	Zr	1.134729	0.514962	0.081267
O19	O	1.089411	0.806524	0.050980
O20	O	1.089393	0.806534	-0.179997
O21	O	0.743953	0.806536	0.050972
O22	O	1.282545	0.548274	0.180099
O23	O	1.282528	0.548284	-0.050878
O24	O	0.937087	0.548287	0.180090
O25	O	1.282526	0.677403	-0.050874
O26	O	1.089422	0.677400	0.180098
O27	O	0.937085	0.677405	0.180095
O28	O	1.282533	0.677398	0.050981
O29	O	0.937054	0.908390	-0.179997
O30	O	1.089426	0.446431	0.180091
O31	O	1.282547	0.446424	0.180096
O32	O	1.282537	0.446429	0.050973
O33	O	0.743943	0.908392	-0.050879
O34	O	0.937064	0.908385	-0.050875
O35	O	1.070094	0.601393	0.114065
O36	O	1.183775	0.601392	0.038055
O37	O	1.070080	0.753420	-0.037956
O38	O	0.956398	0.753421	0.038054
C39	C	1.013243	0.474222	0.000040
C40	C	1.013244	0.405262	0.000038
C41	C	0.709334	0.677422	0.000039
C42	C	0.606191	0.677425	0.000037
C43	C	1.072583	0.372864	-0.039639
C44	C	1.072587	0.308064	-0.039634
C45	C	1.013245	0.275668	0.000044
C46	C	0.953905	0.308069	0.039727
C47	C	0.953909	0.372863	0.039726
C48	C	0.953892	0.046759	0.039733
C49	C	0.953890	-0.018038	0.039729
C50	C	1.072570	-0.018040	-0.039627
C51	C	1.072573	0.046755	-0.039628
C52	C	1.013239	0.079147	0.000057
C53	C	1.013237	0.149409	0.000053
C54	C	1.013240	0.205411	0.000045
C55	C	0.387817	0.773299	-0.047661
C56	C	0.495049	0.773364	-0.047929
C57	C	0.602866	0.629802	-0.034934
C58	C	0.495097	0.630410	-0.035284
C59	C	0.496469	0.628431	0.082766
C60	C	0.602438	0.630238	0.082636
C61	C	1.317146	0.677399	0.000054
C62	C	1.420289	0.677395	0.000057
C63	C	1.013225	0.677419	-0.203148
C64	C	1.013219	0.677422	-0.272110
C65	C	1.013237	0.880598	0.000053
C66	C	1.013236	0.949559	0.000056
C67	C	0.953871	0.756778	-0.344185
C68	C	0.953881	0.756776	-0.408980
C69	C	1.013233	0.677416	-0.401698
C70	C	1.072589	0.598054	-0.329615
C71	C	1.072585	0.598057	-0.264822
C72	C	1.072607	0.598039	-0.590918
C73	C	1.072603	0.598041	-0.655719
C74	C	0.953903	0.756757	-0.735077
C75	C	0.953899	0.756761	-0.670283
C76	C	1.013259	0.677399	-0.598206
C77	C	1.013249	0.677402	-0.527949
C78	C	1.013237	0.677412	-0.471954
C79	C	1.013256	0.677402	0.203242
C80	C	1.013261	0.677399	0.272204
C81	C	1.317149	0.474211	0.000048
C82	C	1.420293	0.405247	0.000048
C83	C	1.013259	0.474214	0.203235
C84	C	1.013265	0.405251	0.272195
C85	C	1.317165	0.474202	0.203242
C86	C	1.420314	0.405236	0.272205
C87	C	0.709315	0.880618	-0.203149
C88	C	0.606166	0.949585	-0.272111
C89	C	0.709331	0.880610	0.000046
C90	C	0.606187	0.949573	0.000046
C91	C	1.013222	0.880607	-0.203141
C92	C	1.013215	0.949570	-0.272101
C93	C	1.409384	0.372865	-0.039638
C94	C	1.506290	0.308075	-0.039653
C95	C	1.614103	0.275664	0.000023
C96	C	1.625010	0.308053	0.039710
C97	C	1.528106	0.372846	0.039720
C98	C	1.072615	0.372861	0.344266
C99	C	1.072616	0.308072	0.409067
C100	C	1.013274	0.275669	0.401797
C101	C	0.953917	0.308065	0.329719
C102	C	0.953910	0.372857	0.264919
C103	C	1.528105	0.372848	0.264914
C104	C	1.625034	0.308055	0.329706
C105	C	1.614170	0.275647	0.401787
C106	C	1.506367	0.308041	0.409077
C107	C	1.409441	0.372837	0.344286
C108	C	0.498375	0.981981	-0.264821
C109	C	0.401446	1.046794	-0.329612
C110	C	0.412311	1.079205	-0.401694
C111	C	0.520113	1.046807	-0.408983
C112	C	0.617039	0.981999	-0.344192
C113	C	0.617096	0.981963	0.039725
C114	C	0.520191	1.046770	0.039722
C115	C	0.412377	1.079184	0.000044
C116	C	0.401470	1.046792	-0.039640
C117	C	0.498374	0.981990	-0.039641
C118	C	1.072569	0.981952	-0.264806
C119	C	1.072585	1.046742	-0.329596
C120	C	1.013240	1.079153	-0.401679
C121	C	0.953885	1.046764	-0.408972
C122	C	0.953876	0.981971	-0.344184
H123	H	1.120899	0.399241	-0.071954
H124	H	1.536973	0.399225	0.206228
H125	H	1.693000	0.222905	0.000010
H126	H	0.313675	1.073193	-0.071945
O127	O	0.314989	0.822930	-0.127998
H128	H	0.357958	0.844756	-0.167704
H129	H	0.493290	0.810919	-0.024654
H130	H	0.444747	0.664258	-0.096147
H131	H	1.120905	0.281685	-0.071942
H132	H	1.120890	0.073133	-0.071941
O133	O	1.013252	1.149042	-0.471552
H134	H	0.962020	1.166142	-0.522906
O135	O	1.136608	1.081665	-0.321716
H136	H	1.076704	1.153146	-0.349344
H137	H	1.712802	0.281686	0.323757
O138	O	0.889899	0.407780	0.187188
H139	H	0.899849	0.458282	0.143342
O140	O	1.494670	0.273069	0.486828
H141	H	1.447624	0.327445	0.493440
H142	H	1.712805	0.281654	0.072013
H143	H	1.693103	0.222886	0.454538
O144	O	1.539881	0.407754	0.082543
H145	H	1.586950	0.437264	0.059625
O146	O	1.136618	0.407807	0.352116
H147	H	1.177871	0.374398	0.413123
H148	H	0.905583	0.073122	0.072050
O149	O	0.531814	1.081768	-0.486733
H150	H	0.578860	1.111296	-0.493337
O151	O	0.733310	0.947048	-0.352045
H152	H	0.743160	0.917528	-0.383507
O153	O	0.889919	1.081704	-0.486724
H154	H	0.848660	1.048293	-0.480922
O155	O	0.532848	0.534844	0.130080
H156	H	0.586607	0.500712	0.188380
O157	O	1.136596	0.946999	-0.187067
H158	H	1.076695	0.959442	-0.155644
O159	O	1.293180	0.407750	0.352153
H160	H	1.301921	0.374314	0.413162
O161	O	0.889893	0.273135	0.082521
H162	H	0.899846	0.222644	0.075849
O163	O	0.733370	0.947027	0.082513
H164	H	0.743235	0.917520	0.143495
O165	O	0.889902	0.407816	0.082515
H166	H	0.848627	0.374412	0.110100
O167	O	1.136660	0.273123	0.486803
H168	H	1.177941	0.306529	0.480966
O169	O	0.889839	0.947057	-0.352055
H170	H	0.848568	0.980492	-0.413066
H171	H	0.681137	0.559261	-0.001852
H172	H	0.521754	0.560047	-0.002775
O173	O	0.486644	0.947035	-0.187079
H174	H	0.395399	0.980467	-0.192907
O175	O	0.285187	1.081711	-0.321735
H176	H	0.275345	1.111204	-0.290249
O177	O	1.136575	-0.052978	-0.082430
H178	H	1.126616	-0.103482	-0.075761
O179	O	0.889860	0.842370	-0.486718
H180	H	0.949774	0.846172	-0.518132
H181	H	0.333862	0.810936	-0.024323
O182	O	0.889859	-0.052967	0.082510
H183	H	0.848598	-0.019557	0.110105
O184	O	0.307758	1.149104	-0.471570
H185	H	0.333412	1.166208	-0.522922
H186	H	0.489476	0.955620	-0.071951
O187	O	0.531966	1.081690	0.082536
H188	H	0.623217	1.048246	0.110138
H189	H	1.497387	0.281712	-0.071971
H190	H	1.120921	0.533438	-0.323691
O191	O	0.307861	1.149053	0.000072
H192	H	0.333571	1.166111	0.034346
H193	H	0.604996	0.662883	-0.095219
O194	O	0.491804	0.823179	-0.128746
H195	H	0.489754	0.791138	-0.155425
O196	O	1.013308	0.205771	0.471691
H197	H	1.064565	0.188687	0.523025
H198	H	0.601922	0.664961	0.108761
O199	O	0.430227	0.669078	0.121466
H200	H	0.342257	0.724639	0.082175
H201	H	0.905603	0.281673	0.323810
H202	H	0.905532	0.821402	-0.350124
O203	O	0.707284	0.537516	0.133699
H204	H	0.763955	0.523553	0.100855
H205	H	0.905563	0.821384	-0.676220
H206	H	0.905572	0.821378	-0.793771
H207	H	1.120939	0.533413	-0.649782
H208	H	1.120913	0.533437	-0.206135
O209	O	1.136613	0.512446	-0.513183
H210	H	1.177870	0.457265	-0.519009
H211	H	1.321606	0.399253	-0.071956
