data_functionalizedCrystal
_audit_creation_method	'MofGen! by Chris Wilmer'
_symmetry_space_group_name_H-M	'P1'
_symmetry_Int_Tables_number	1
_symmetry_cell_setting	triclinic
loop_
_symmetry_equiv_pos_as_xyz
  x,y,z
_cell_length_a	21.295418
_cell_length_b	21.295420
_cell_length_c	11.169409
_cell_angle_alpha	90.024202
_cell_angle_beta	89.962757
_cell_angle_gamma	89.974198
loop_
_atom_site_label
_atom_site_type_symbol
_atom_site_fract_x
_atom_site_fract_y
_atom_site_fract_z
Zn1	Zn	-0.250602	-0.962356	-0.678642
Zn2	Zn	-0.355890	-0.962265	-0.477942
Zn3	Zn	-0.250634	-0.857082	-0.477961
Zn4	Zn	-0.355832	-0.857053	-0.678571
O5	O	-0.303239	-0.909689	-0.578279
O6	O	-0.264579	-1.050433	-0.652040
O7	O	-0.341965	-0.948286	-0.309994
O8	O	-0.162540	-0.871097	-0.504619
O9	O	-0.341934	-1.050366	-0.504586
O10	O	-0.162516	-0.948442	-0.652059
O11	O	-0.264634	-0.871009	-0.310009
O12	O	-0.264578	-0.768989	-0.504551
O13	O	-0.341836	-0.871047	-0.846530
O14	O	-0.341867	-0.768967	-0.651938
O15	O	-0.264523	-0.948413	-0.846582
O16	O	-0.443971	-0.948258	-0.504518
O17	O	-0.443929	-0.870959	-0.651920
C18	C	-0.303220	-0.746137	-0.578240
C19	C	-0.303227	-0.676169	-0.578251
C20	C	-0.466791	-0.909612	-0.578235
C21	C	-0.536759	-0.909637	-0.578256
C22	C	-0.343547	-0.176717	-0.654928
C23	C	-0.343548	-0.242459	-0.654917
C24	C	-0.303244	-0.275330	-0.578298
C25	C	-0.262948	-0.242453	-0.501662
C26	C	-0.262952	-0.176711	-0.501667
N27	N	-0.248130	-0.378569	-0.569270
N28	N	-0.248128	-0.441020	-0.569273
C29	C	-0.303229	-0.473404	-0.578278
N30	N	-0.358335	-0.440978	-0.587304
N31	N	-0.358337	-0.378521	-0.587307
C32	C	-0.303235	-0.346615	-0.578284
C33	C	-0.343528	-0.577559	-0.654892
C34	C	-0.343530	-0.643303	-0.654872
C35	C	-0.262924	-0.643295	-0.501624
C36	C	-0.262927	-0.577553	-0.501637
C37	C	-0.303229	-0.544689	-0.578277
C38	C	-1.036151	-0.950041	-0.655205
C39	C	-0.970409	-0.950022	-0.655186
C40	C	-0.937598	-0.909775	-0.578354
C41	C	-0.970536	-0.869554	-0.501513
C42	C	-1.036277	-0.869578	-0.501526
N43	N	-0.834427	-0.854637	-0.569027
N44	N	-0.771976	-0.854616	-0.569022
C45	C	-0.739524	-0.909701	-0.578309
N46	N	-0.771882	-0.964808	-0.587624
N47	N	-0.834340	-0.964828	-0.587636
C48	C	-0.866313	-0.909744	-0.578331
C49	C	-0.635309	-0.949902	-0.655118
C50	C	-0.569565	-0.949884	-0.655090
C51	C	-0.569693	-0.869411	-0.501425
C52	C	-0.635436	-0.869434	-0.501446
C53	C	-0.668239	-0.909678	-0.578299
C54	C	-0.139049	-0.909783	-0.578349
C55	C	-0.069081	-0.909823	-0.578379
C56	C	-0.303169	-0.909737	-0.891322
C57	C	-0.303140	-0.909758	-1.024722
C58	C	-0.303256	-0.073879	-0.578312
C59	C	-0.303253	-0.143847	-0.578307
C60	C	-0.303263	-0.909677	-0.266454
C61	C	-0.303116	-0.909778	-0.133055
H62	H	-0.376366	-0.149963	-0.717330
C63	C	-0.218591	-0.679449	-0.417339
N64	N	-0.185199	-0.706684	-0.353850
C65	C	-0.387864	-0.541407	-0.739188
N66	N	-0.421259	-0.514178	-0.802680
C67	C	-0.533343	-0.994137	-0.739595
N68	N	-0.506060	-1.027470	-0.803243
H69	H	-0.662247	-0.836682	-0.438891
C70	C	-0.934443	-0.825280	-0.417001
N71	N	-0.907258	-0.791933	-0.353341
C72	C	-0.387872	-0.278623	-0.739217
N73	N	-0.421255	-0.305859	-0.802716
H74	H	-0.230133	-0.269220	-0.439277
C75	C	-0.218619	-0.140554	-0.417383
N76	N	-0.185224	-0.113319	-0.353904
H77	H	-0.542979	-0.836643	-0.438862
H78	H	-0.376347	-0.670064	-0.717263
H79	H	-0.943593	-0.982774	-0.717748
H80	H	-0.230114	-0.550790	-0.439248
H81	H	-1.063088	-0.836827	-0.438964
C82	C	-1.072232	-0.994322	-0.739725
N83	N	-1.099409	-1.027678	-0.803380
H84	H	-0.662019	-0.982667	-0.717705
