data_functionalizedCrystal
_audit_creation_method	'MofGen! by Chris Wilmer'
_symmetry_space_group_name_H-M	'P1'
_symmetry_Int_Tables_number	1
_symmetry_cell_setting	triclinic
loop_
_symmetry_equiv_pos_as_xyz
  x,y,z
_cell_length_a	17.038272
_cell_length_b	17.019294
_cell_length_c	14.586319
_cell_angle_alpha	93.879158
_cell_angle_beta	90.000471
_cell_angle_gamma	87.244363
loop_
_atom_site_label
_atom_site_type_symbol
_atom_site_fract_x
_atom_site_fract_y
_atom_site_fract_z
O1	O	1.037223	0.171280	0.089646
O2	O	1.370556	0.504614	0.422979
O3	O	1.703890	0.837947	0.756312
O4	O	0.809595	0.168561	0.089458
O5	O	1.142928	0.501894	0.422791
O6	O	1.476261	0.835227	0.756125
O7	O	0.929758	0.055515	0.080515
O8	O	1.263092	0.388848	0.413848
O9	O	1.596425	0.722181	0.747181
O10	O	0.917059	0.284327	0.098589
O11	O	1.250392	0.617660	0.431922
O12	O	1.583726	0.950993	0.765256
O13	O	0.929744	0.055521	-0.071966
O14	O	1.263077	0.388854	0.261368
O15	O	1.596410	0.722187	0.594701
O16	O	0.809580	0.168567	-0.063022
O17	O	1.142913	0.501900	0.270311
O18	O	1.476247	0.835234	0.603644
O19	O	1.037208	0.171287	-0.062835
O20	O	1.370542	0.504620	0.270499
O21	O	1.703875	0.837953	0.603832
Cu22	Cu	0.923393	0.169927	-0.076851
Cu23	Cu	1.256726	0.503261	0.256482
Cu24	Cu	1.590059	0.836594	0.589815
Cu25	Cu	0.923410	0.169920	0.103474
Cu26	Cu	1.256743	0.503253	0.436808
Cu27	Cu	1.590077	0.836587	0.770141
O28	O	0.917044	0.284333	-0.053891
O29	O	1.250378	0.617666	0.279442
O30	O	1.583711	0.950999	0.612775
C31	C	0.780461	0.166090	0.013026
C32	C	1.113794	0.499423	0.346359
C33	C	1.447128	0.832757	0.679693
C34	C	0.693674	0.158710	0.012453
C35	C	1.027008	0.492043	0.345787
C36	C	1.360341	0.825376	0.679120
C37	C	0.929269	0.026096	0.001953
C38	C	1.262603	0.359430	0.335286
C39	C	1.595936	0.692763	0.668619
C40	C	0.927825	-0.061571	-0.004966
C41	C	1.261158	0.271763	0.328368
C42	C	1.594491	0.605096	0.661701
C43	C	0.643502	0.226470	0.017805
C44	C	0.976836	0.559803	0.351139
C45	C	1.310169	0.893136	0.684472
C46	C	0.561958	0.219530	0.017244
C47	C	0.895291	0.552864	0.350578
C48	C	1.228625	0.886197	0.683911
C49	C	0.530587	0.144830	0.011338
C50	C	0.863920	0.478164	0.344672
C51	C	1.197253	0.811497	0.678005
C52	C	0.580765	0.077065	0.005983
C53	C	0.914098	0.410399	0.339317
C54	C	1.247432	0.743732	0.672650
C55	C	0.662308	0.084005	0.006538
C56	C	0.995642	0.417339	0.339871
C57	C	1.328975	0.750672	0.673204
C58	C	0.284850	0.120313	0.009377
C59	C	0.618183	0.453646	0.342710
C60	C	0.951516	0.786979	0.676044
C61	C	0.203300	0.113378	0.008826
C62	C	0.536634	0.446711	0.342159
C63	C	0.869967	0.780044	0.675493
C64	C	0.184499	0.255843	0.020085
C65	C	0.517832	0.589177	0.353419
C66	C	0.851165	0.922510	0.686752
C67	C	0.266044	0.262777	0.020645
C68	C	0.599377	0.596110	0.353978
C69	C	0.932711	0.929443	0.687311
C70	C	0.316215	0.195012	0.015285
C71	C	0.649549	0.528345	0.348618
C72	C	0.982882	0.861678	0.681952
C73	C	0.447235	0.137736	0.010768
C74	C	0.780569	0.471069	0.344101
C75	C	1.113902	0.804402	0.677435
C76	C	0.399565	0.202107	0.015849
C77	C	0.732898	0.535441	0.349182
C78	C	1.066232	0.868774	0.682516
C79	C	0.927156	-0.102756	0.074900
C80	C	1.260489	0.230578	0.408234
C81	C	1.593822	0.563911	0.741567
C82	C	0.925793	-0.185128	0.068397
C83	C	1.259126	0.148206	0.401730
C84	C	1.592460	0.481539	0.735064
C85	C	0.925105	-0.226314	-0.017974
C86	C	1.258438	0.107020	0.315360
C87	C	1.591772	0.440353	0.648693
C88	C	0.925772	-0.185123	-0.097846
C89	C	1.259105	0.148210	0.235488
C90	C	1.592438	0.481544	0.568821
C91	C	0.927129	-0.102752	-0.091341
C92	C	1.260462	0.230581	0.241992
C93	C	1.593795	0.563915	0.575325
C94	C	0.921002	-0.475020	-0.041771
C95	C	1.254335	-0.141687	0.291563
C96	C	1.587669	0.191646	0.624896
C97	C	0.919647	-0.557397	-0.048269
C98	C	1.252981	-0.224064	0.285064
C99	C	1.586314	0.109269	0.618398
C100	C	0.919667	-0.557396	0.117974
C101	C	1.253000	-0.224063	0.451308
C102	C	1.586334	0.109271	0.784641
C103	C	0.921029	-0.475024	0.124471
C104	C	1.254362	-0.141691	0.457804
C105	C	1.587696	0.191643	0.791138
C106	C	0.921691	-0.433840	0.044599
C107	C	1.255025	-0.100507	0.377932
C108	C	1.588358	0.232827	0.711266
C109	C	0.923715	-0.310511	-0.024623
C110	C	1.257048	0.022822	0.308710
C111	C	1.590381	0.356155	0.642043
C112	C	0.923076	-0.349644	0.051249
C113	C	1.256409	-0.016310	0.384583
C114	C	1.589743	0.317023	0.717916
C115	C	1.066342	0.173757	0.013599
C116	C	1.399675	0.507091	0.346933
C117	C	1.733008	0.840424	0.680266
C118	C	1.153128	0.181138	0.014178
C119	C	1.486462	0.514471	0.347511
C120	C	1.819795	0.847804	0.680844
C121	C	0.917533	0.313751	0.024673
C122	C	1.250867	0.647084	0.358006
C123	C	1.584200	0.980418	0.691339
C124	C	0.918978	0.401418	0.031597
C125	C	1.252312	0.734751	0.364930
C126	C	1.585645	1.068085	0.698264
N127	N	0.923386	0.169932	-0.203683
N128	N	1.256720	0.503266	0.129651
N129	N	1.590053	0.836599	0.462984
C130	C	0.970760	0.220971	-0.434663
C131	C	1.304093	0.554304	-0.101330
C132	C	1.637427	0.887638	0.232003
C133	C	0.970768	0.220966	-0.530645
C134	C	1.304101	0.554299	-0.197312
C135	C	1.637435	0.887633	0.136022
C136	C	0.876047	0.118865	-0.538708
C137	C	1.209381	0.452198	-0.205374
C138	C	1.542714	0.785532	0.127959
C139	C	0.876044	0.118866	-0.442728
C140	C	1.209377	0.452200	-0.109395
C141	C	1.542710	0.785533	0.223939
C142	C	0.923399	0.169924	-0.390708
C143	C	1.256732	0.503257	-0.057375
C144	C	1.590065	0.836591	0.275959
C145	C	0.923410	0.169917	-0.582669
C146	C	1.256744	0.503251	-0.249336
C147	C	1.590077	0.836584	0.083997
C148	C	0.923419	0.169912	-0.686737
C149	C	1.256752	0.503245	-0.353404
C150	C	1.590085	0.836578	-0.020070
C151	C	0.923391	0.169929	-0.286634
C152	C	1.256725	0.503262	0.046700
C153	C	1.590058	0.836596	0.380033
N154	N	0.923423	0.169909	0.230305
N155	N	1.256756	0.503242	0.563639
N156	N	1.590089	0.836576	0.896972
H157	H	0.669038	0.287298	0.022615
H158	H	1.002371	0.620632	0.355949
H159	H	1.335705	0.953965	0.689282
Cl160	Cl	1.030298	0.285151	-0.369270
Cl161	Cl	1.363631	0.618485	-0.035937
Cl162	Cl	1.696965	0.951818	0.297396
Cl163	Cl	0.816513	0.054688	-0.604110
Cl164	Cl	1.149846	0.388021	-0.270777
Cl165	Cl	1.483179	0.721354	0.062557
H166	H	0.837476	0.077294	-0.406939
H167	H	1.170809	0.410627	-0.073606
H168	H	1.504143	0.743960	0.259727
Cl169	Cl	0.121422	0.341028	0.026819
Cl170	Cl	0.454756	0.674361	0.360152
Cl171	Cl	0.788089	1.007694	0.693486
Cl172	Cl	0.924953	-0.236900	0.168805
Cl173	Cl	1.258287	0.096434	0.502139
Cl174	Cl	1.591620	0.429767	0.835472
H175	H	0.421684	0.076914	0.005933
H176	H	0.755017	0.410248	0.339267
H177	H	1.088350	0.743581	0.672600
Cl178	Cl	0.918787	-0.609173	-0.156857
Cl179	Cl	1.252121	-0.275840	0.176476
Cl180	Cl	1.585454	0.057493	0.509809
Cl181	Cl	0.498887	0.304719	0.023978
Cl182	Cl	0.832221	0.638052	0.357312
Cl183	Cl	1.165554	0.971386	0.690645
H184	H	0.921590	-0.441496	0.194803
H185	H	1.254923	-0.108163	0.528136
H186	H	1.588257	0.225171	0.861470
Cl187	Cl	0.928026	-0.050987	0.183486
Cl188	Cl	1.261359	0.282346	0.516819
Cl189	Cl	1.594692	0.615679	0.850153
H190	H	0.919126	-0.590937	0.183001
H191	H	1.252460	-0.257604	0.516335
H192	H	1.585793	0.075730	0.849668
H193	H	1.009335	0.262533	-0.566429
H194	H	1.342669	0.595866	-0.233095
H195	H	1.676002	0.929199	0.100238
H196	H	0.291580	0.323605	0.025465
H197	H	0.624913	0.656939	0.358798
H198	H	0.958246	0.990272	0.692131
Cl199	Cl	0.163864	0.019462	0.001380
Cl200	Cl	0.497197	0.352795	0.334713
Cl201	Cl	0.830531	0.686129	0.668047
H202	H	0.425111	0.262928	0.020653
H203	H	0.758444	0.596261	0.353986
H204	H	1.091778	0.929594	0.687319
H205	H	0.921557	-0.441499	-0.106809
H206	H	1.254890	-0.108166	0.226525
H207	H	1.588224	0.225167	0.559858
Cl208	Cl	0.924897	-0.236899	-0.206427
Cl209	Cl	1.258231	0.096434	0.126907
Cl210	Cl	1.591564	0.429768	0.460240
Cl211	Cl	0.927968	-0.050976	-0.191749
Cl212	Cl	1.261302	0.282357	0.141584
Cl213	Cl	1.594635	0.615690	0.474918
H214	H	0.923157	-0.344054	-0.094946
H215	H	1.256490	-0.010721	0.238387
H216	H	1.589824	0.322612	0.571720
Cl217	Cl	0.347912	0.035121	0.002640
Cl218	Cl	0.681245	0.368454	0.335973
Cl219	Cl	1.014578	0.701788	0.669307
Cl220	Cl	0.725382	-0.001182	-0.000195
Cl221	Cl	1.058716	0.332151	0.333139
Cl222	Cl	1.392049	0.665484	0.666472
Cl223	Cl	0.541327	-0.016844	-0.001447
Cl224	Cl	0.874660	0.316490	0.331886
Cl225	Cl	1.207994	0.649823	0.665220
H226	H	0.923631	-0.316106	0.121572
H227	H	1.256964	0.017227	0.454905
H228	H	1.590298	0.350561	0.788239
