data_functionalizedCrystal
_audit_creation_method	'MofGen! by Chris Wilmer'
_symmetry_space_group_name_H-M	'P1'
_symmetry_Int_Tables_number	1
_symmetry_cell_setting	triclinic
loop_
_symmetry_equiv_pos_as_xyz
  x,y,z
_cell_length_a	10.540539
_cell_length_b	16.109301
_cell_length_c	14.586319
_cell_angle_alpha	89.994230
_cell_angle_beta	90.002078
_cell_angle_gamma	96.006514
loop_
_atom_site_label
_atom_site_type_symbol
_atom_site_fract_x
_atom_site_fract_y
_atom_site_fract_z
O1	O	1.684216	-0.117166	0.076200
O2	O	1.314646	-0.128205	0.076212
O3	O	1.509584	-0.001717	0.076197
O4	O	1.489279	-0.243654	0.076216
O5	O	1.509568	-0.001714	-0.076284
O6	O	1.314630	-0.128202	-0.076269
O7	O	1.684201	-0.117163	-0.076280
Cu8	Cu	1.499414	-0.122682	-0.090197
Cu9	Cu	1.499433	-0.122686	0.090129
O10	O	1.489263	-0.243651	-0.076265
C11	C	1.267347	-0.127376	-0.000027
C12	C	1.126434	-0.124899	-0.000023
C13	C	1.508753	0.029265	-0.000044
C14	C	1.506287	0.121575	-0.000046
N15	N	1.499410	-0.122679	-0.217029
C16	C	0.944360	-0.029989	-0.000386
C17	C	1.090943	-0.032500	-0.000033
C18	C	1.064137	-0.169367	0.087051
C19	C	0.917637	-0.166214	0.087115
C20	C	0.917104	-0.168090	-0.086285
C21	C	1.064074	-0.168941	-0.087426
C22	C	1.731500	-0.117992	-0.000039
C23	C	1.872413	-0.120469	-0.000037
C24	C	1.490093	-0.274633	-0.000022
C25	C	1.492559	-0.366943	-0.000015
C26	C	1.616226	0.343175	-0.000034
C27	C	1.613899	0.429910	-0.000027
C28	C	1.382612	0.411450	-0.000023
C29	C	1.384940	0.324717	-0.000024
C30	C	1.501751	0.290582	-0.000034
C31	C	1.497096	0.464050	-0.000026
C32	C	1.494572	0.558091	-0.000018
C33	C	1.504275	0.196535	-0.000041
C34	C	1.585762	-0.066689	-0.548030
C35	C	1.585759	-0.066689	-0.452048
C36	C	1.413090	-0.178679	-0.452045
C37	C	1.413101	-0.178682	-0.548025
C38	C	1.499435	-0.122682	-0.596015
C39	C	1.499422	-0.122679	-0.404054
C40	C	1.499418	-0.122680	-0.299987
C41	C	1.499441	-0.122682	-0.700088
N42	N	1.499446	-0.122682	0.216961
H43	H	1.134049	0.002489	-0.062452
H44	H	1.342797	-0.224272	-0.412963
F45	F	0.876426	-0.129001	-0.172554
H46	H	1.105493	-0.136455	-0.151843
F47	F	1.677643	-0.007095	-0.400982
F48	F	1.094475	-0.256994	-0.094290
H49	H	0.916289	0.006515	-0.062833
H50	H	1.342802	-0.224282	-0.587097
H51	H	0.914678	0.006358	0.061706
H52	H	1.707116	0.472728	-0.000025
H53	H	1.287509	0.439253	-0.000017
H54	H	1.656063	-0.021091	-0.587101
F55	F	1.146140	0.013366	0.081815
F56	F	0.881381	-0.123259	0.172183
F57	F	0.853696	-0.253069	0.092288
H58	H	1.085523	-0.237222	0.090296
H59	H	1.107172	-0.138479	0.151849
F60	F	0.854134	-0.255322	-0.087047
H61	H	1.711340	0.315386	-0.000041
H62	H	1.291715	0.281893	-0.000022
