data_functionalizedCrystal
_audit_creation_method	'MofGen! by Chris Wilmer'
_symmetry_space_group_name_H-M	'P1'
_symmetry_Int_Tables_number	1
_symmetry_cell_setting	triclinic
loop_
_symmetry_equiv_pos_as_xyz
  x,y,z
_cell_length_a	18.215407
_cell_length_b	18.215405
_cell_length_c	18.215399
_cell_angle_alpha	89.968171
_cell_angle_beta	89.983176
_cell_angle_gamma	90.024268
loop_
_atom_site_label
_atom_site_type_symbol
_atom_site_fract_x
_atom_site_fract_y
_atom_site_fract_z
Zn1	Zn	1.125056	-0.292966	-0.416108
Zn2	Zn	1.375056	-0.042966	-0.166108
Zn3	Zn	1.625056	0.207034	0.083892
Zn4	Zn	1.875056	0.457034	0.333892
Zn5	Zn	1.124973	-0.416042	-0.293039
Zn6	Zn	1.374973	-0.166042	-0.043039
Zn7	Zn	1.624973	0.083958	0.206961
Zn8	Zn	1.874973	0.333958	0.456961
Zn9	Zn	1.001995	-0.292995	-0.293056
Zn10	Zn	1.251995	-0.042995	-0.043056
Zn11	Zn	1.501995	0.207005	0.206944
Zn12	Zn	1.751995	0.457005	0.456944
Zn13	Zn	1.001956	-0.415996	-0.416064
Zn14	Zn	1.251956	-0.165996	-0.166064
Zn15	Zn	1.501956	0.084004	0.083936
Zn16	Zn	1.751956	0.334004	0.333936
O17	O	1.063495	-0.354500	-0.354567
O18	O	1.313495	-0.104500	-0.104567
O19	O	1.563495	0.145500	0.145433
O20	O	1.813495	0.395500	0.395433
O21	O	1.228029	-0.309299	-0.399795
O22	O	1.478029	-0.059299	-0.149795
O23	O	1.728029	0.190701	0.100205
O24	O	1.978029	0.440701	0.350205
O25	O	1.108641	-0.399751	-0.190057
O26	O	1.358641	-0.149751	0.059943
O27	O	1.608641	0.100249	0.309943
O28	O	1.858641	0.350249	0.559943
O29	O	1.018370	-0.190007	-0.309405
O30	O	1.268370	0.059993	-0.059405
O31	O	1.518370	0.309993	0.190595
O32	O	1.768370	0.559993	0.440595
O33	O	1.227968	-0.399723	-0.309376
O34	O	1.477968	-0.149723	-0.059376
O35	O	1.727968	0.100277	0.190624
O36	O	1.977968	0.350277	0.440624
O37	O	1.108782	-0.189985	-0.399811
O38	O	1.358782	0.060015	-0.149811
O39	O	1.608782	0.310015	0.100189
O40	O	1.858782	0.560015	0.350189
O41	O	1.018289	-0.309349	-0.190069
O42	O	1.268289	-0.059349	0.059931
O43	O	1.518289	0.190651	0.309931
O44	O	1.768289	0.440651	0.559931
O45	O	0.899005	-0.309304	-0.309361
O46	O	1.149005	-0.059304	-0.059361
O47	O	1.399005	0.190696	0.190639
O48	O	1.649005	0.440696	0.440639
O49	O	1.018304	-0.399644	-0.519054
O50	O	1.268304	-0.149644	-0.269054
O51	O	1.518304	0.100356	-0.019054
O52	O	1.768304	0.350356	0.230946
O53	O	0.898977	-0.399672	-0.399735
O54	O	1.148977	-0.149672	-0.149735
O55	O	1.398977	0.100328	0.100265
O56	O	1.648977	0.350328	0.350265
O57	O	1.108745	-0.309254	-0.519087
O58	O	1.358745	-0.059254	-0.269087
O59	O	1.608745	0.190746	-0.019087
O60	O	1.858745	0.440746	0.230913
O61	O	1.108604	-0.519020	-0.309333
O62	O	1.358604	-0.269020	-0.059333
O63	O	1.608604	-0.019020	0.190667
O64	O	1.858604	0.230980	0.440667
O65	O	1.018224	-0.518986	-0.399719
O66	O	1.268224	-0.268986	-0.149719
O67	O	1.518224	-0.018986	0.100281
O68	O	1.768224	0.231014	0.350281
C69	C	0.872289	-0.354487	-0.354546
C70	C	1.122289	-0.104487	-0.104546
C71	C	1.372289	0.145513	0.145454
C72	C	1.622289	0.395513	0.395454
C73	C	0.790490	-0.354499	-0.354554
C74	C	1.040490	-0.104499	-0.104554
C75	C	1.290490	0.145501	0.145446
C76	C	1.540490	0.395501	0.395446
C77	C	0.602300	-0.401628	-0.401552
C78	C	0.852300	-0.151628	-0.151552
C79	C	1.102300	0.098372	0.098448
C80	C	1.352300	0.348372	0.348448
C81	C	0.525442	-0.401630	-0.401562
C82	C	0.775442	-0.151630	-0.151562
C83	C	1.025442	0.098370	0.098438
C84	C	1.275442	0.348370	0.348438
C85	C	0.525441	-0.307384	-0.307597
C86	C	0.775441	-0.057384	-0.057597
C87	C	1.025441	0.192616	0.192403
C88	C	1.275441	0.442616	0.442403
C89	C	0.602299	-0.307379	-0.307592
C90	C	0.852299	-0.057379	-0.057592
C91	C	1.102299	0.192621	0.192408
C92	C	1.352299	0.442621	0.442408
C93	C	0.640726	-0.354505	-0.354569
C94	C	0.890726	-0.104505	-0.104569
C95	C	1.140726	0.145495	0.145431
C96	C	1.390726	0.395495	0.395431
C97	C	0.487010	-0.354513	-0.354583
C98	C	0.737010	-0.104513	-0.104583
C99	C	0.987010	0.145487	0.145417
C100	C	1.237010	0.395487	0.395417
C101	C	0.403676	-0.354515	-0.354592
C102	C	0.653676	-0.104515	-0.104592
C103	C	0.903676	0.145485	0.145408
C104	C	1.153676	0.395485	0.395408
C105	C	0.724065	-0.354502	-0.354560
C106	C	0.974065	-0.104502	-0.104560
C107	C	1.224065	0.145498	0.145440
C108	C	1.474065	0.395498	0.395440
C109	C	1.063421	-0.545706	-0.354535
C110	C	1.313421	-0.295706	-0.104535
C111	C	1.563421	-0.045706	0.145465
C112	C	1.813421	0.204294	0.395465
C113	C	1.063456	-0.627505	-0.354546
C114	C	1.313456	-0.377505	-0.104546
C115	C	1.563456	-0.127505	0.145454
C116	C	1.813456	0.122495	0.395454
C117	C	1.110655	-0.892555	-0.307582
C118	C	1.360655	-0.642555	-0.057582
C119	C	1.610655	-0.392555	0.192418
C120	C	1.860655	-0.142555	0.442418
C121	C	1.110624	-0.815697	-0.307565
C122	C	1.360624	-0.565697	-0.057565
C123	C	1.610624	-0.315697	0.192435
C124	C	1.860624	-0.065697	0.442435
C125	C	1.016426	-0.815702	-0.401602
C126	C	1.266426	-0.565702	-0.151602
C127	C	1.516426	-0.315702	0.098398
C128	C	1.766426	-0.065702	0.348398
C129	C	1.016453	-0.892560	-0.401614
C130	C	1.266453	-0.642560	-0.151614
C131	C	1.516453	-0.392560	0.098386
C132	C	1.766453	-0.142560	0.348386
C133	C	1.063572	-0.930984	-0.354605
C134	C	1.313572	-0.680984	-0.104605
C135	C	1.563572	-0.430984	0.145395
C136	C	1.813572	-0.180984	0.395395
C137	C	1.063514	-0.777268	-0.354576
C138	C	1.313514	-0.527268	-0.104576
C139	C	1.563514	-0.277268	0.145424
C140	C	1.813514	-0.027268	0.395424
C141	C	1.063481	-0.693935	-0.354558
C142	C	1.313481	-0.443935	-0.104558
C143	C	1.563481	-0.193935	0.145442
C144	C	1.813481	0.056065	0.395442
C145	C	1.063604	-1.014323	-0.354622
C146	C	1.313604	-0.764323	-0.104622
C147	C	1.563604	-0.514323	0.145378
C148	C	1.813604	-0.264323	0.395378
C149	C	1.255448	-0.354513	-0.354588
C150	C	1.505448	-0.104513	-0.104588
C151	C	1.755448	0.145487	0.145412
C152	C	2.005448	0.395487	0.395412
C153	C	1.337247	-0.354518	-0.354598
C154	C	1.587247	-0.104518	-0.104598
C155	C	1.837247	0.145482	0.145402
C156	C	2.087247	0.395482	0.395402
C157	C	1.063530	-0.354441	-0.546520
C158	C	1.313530	-0.104441	-0.296520
C159	C	1.563530	0.145559	-0.046520
C160	C	1.813530	0.395559	0.203480
C161	C	1.063544	-0.354416	-0.628319
C162	C	1.313544	-0.104416	-0.378319
C163	C	1.563544	0.145584	-0.128319
C164	C	1.813544	0.395584	0.121681
C165	C	1.063589	-0.162547	-0.354615
C166	C	1.313589	0.087453	-0.104615
C167	C	1.563589	0.337453	0.145385
C168	C	1.813589	0.587453	0.395385
C169	C	1.063630	-0.080748	-0.354635
C170	C	1.313630	0.169252	-0.104635
C171	C	1.563630	0.419252	0.145365
C172	C	1.813630	0.669252	0.395365
C173	C	1.016538	-0.307311	-0.816520
C174	C	1.266538	-0.057311	-0.566520
C175	C	1.516538	0.192689	-0.316520
C176	C	1.766538	0.442689	-0.066520
C177	C	1.016551	-0.307297	-0.893379
C178	C	1.266551	-0.057297	-0.643379
C179	C	1.516551	0.192703	-0.393379
C180	C	1.766551	0.442703	-0.143379
C181	C	1.110639	-0.401432	-0.893355
C182	C	1.360639	-0.151432	-0.643355
C183	C	1.610639	0.098568	-0.393355
C184	C	1.860639	0.348568	-0.143355
C185	C	1.110622	-0.401450	-0.816498
C186	C	1.360622	-0.151450	-0.566498
C187	C	1.610622	0.098550	-0.316498
C188	C	1.860622	0.348550	-0.066498
C189	C	1.063572	-0.354386	-0.778082
C190	C	1.313572	-0.104386	-0.528082
C191	C	1.563572	0.145614	-0.278082
C192	C	1.813572	0.395614	-0.028082
C193	C	1.063602	-0.354353	-0.931798
C194	C	1.313602	-0.104353	-0.681798
C195	C	1.563602	0.145647	-0.431798
C196	C	1.813602	0.395647	-0.181798
C197	C	1.063616	-0.354337	-1.015132
C198	C	1.313616	-0.104337	-0.765132
C199	C	1.563616	0.145663	-0.515132
C200	C	1.813616	0.395663	-0.265132
C201	C	1.063557	-0.354402	-0.694743
C202	C	1.313557	-0.104402	-0.444743
C203	C	1.563557	0.145598	-0.194743
C204	C	1.813557	0.395598	0.055257
C205	C	1.063503	-0.354505	-0.163360
C206	C	1.313503	-0.104505	0.086640
C207	C	1.563503	0.145495	0.336640
C208	C	1.813503	0.395495	0.586640
C209	C	1.063630	-0.354323	-0.081562
C210	C	1.313630	-0.104323	0.168438
C211	C	1.563630	0.145677	0.418438
C212	C	1.813630	0.395677	0.668438
H213	H	0.633586	-0.439999	-0.439806
H214	H	0.883586	-0.189999	-0.189806
H215	H	1.133586	0.060001	0.060194
H216	H	1.383586	0.310001	0.310194
H217	H	0.978109	-0.923849	-0.439908
H218	H	1.228109	-0.673849	-0.189908
H219	H	1.478109	-0.423849	0.060092
H220	H	1.728109	-0.173849	0.310092
Cl221	Cl	0.957388	-0.248148	-0.768229
Cl222	Cl	1.207388	0.001852	-0.518229
Cl223	Cl	1.457388	0.251852	-0.268229
Cl224	Cl	1.707388	0.501852	-0.018229
Cl225	Cl	0.650609	-0.248129	-0.248527
Cl226	Cl	0.900609	0.001871	0.001473
Cl227	Cl	1.150609	0.251871	0.251473
Cl228	Cl	1.400609	0.501871	0.501473
H229	H	0.978250	-0.268965	-0.924671
H230	H	1.228250	-0.018965	-0.674671
H231	H	1.478250	0.231035	-0.424671
H232	H	1.728250	0.481035	-0.174671
Cl233	Cl	1.169785	-0.460594	-0.941654
Cl234	Cl	1.419785	-0.210594	-0.691654
Cl235	Cl	1.669785	0.039406	-0.441654
Cl236	Cl	1.919785	0.289406	-0.191654
Cl237	Cl	1.169752	-0.460637	-0.768172
Cl238	Cl	1.419752	-0.210637	-0.518172
Cl239	Cl	1.669752	0.039363	-0.268172
Cl240	Cl	1.919752	0.289363	-0.018172
H241	H	0.494159	-0.440002	-0.439822
H242	H	0.744159	-0.190002	-0.189822
H243	H	0.994159	0.059998	0.060178
H244	H	1.244159	0.309998	0.310178
Cl245	Cl	1.169886	-0.940858	-0.248482
Cl246	Cl	1.419886	-0.690858	0.001518
Cl247	Cl	1.669886	-0.440858	0.251518
Cl248	Cl	1.919886	-0.190858	0.501518
Cl249	Cl	0.477127	-0.248145	-0.248542
Cl250	Cl	0.727127	0.001855	0.001458
Cl251	Cl	0.977127	0.251855	0.251458
Cl252	Cl	1.227127	0.501855	0.501458
H253	H	0.978064	-0.784409	-0.439876
H254	H	1.228064	-0.534409	-0.189876
H255	H	1.478064	-0.284409	0.060124
H256	H	1.728064	-0.034409	0.310124
H257	H	1.148963	-0.784410	-0.269273
H258	H	1.398963	-0.534410	-0.019273
H259	H	1.648963	-0.284410	0.230727
H260	H	1.898963	-0.034410	0.480727
