data_functionalizedCrystal
_audit_creation_method	'MofGen! by Chris Wilmer'
_symmetry_space_group_name_H-M	'P1'
_symmetry_Int_Tables_number	1
_symmetry_cell_setting	triclinic
loop_
_symmetry_equiv_pos_as_xyz
  x,y,z
_cell_length_a	14.044220
_cell_length_b	15.995350
_cell_length_c	12.503572
_cell_angle_alpha	93.525550
_cell_angle_beta	86.164750
_cell_angle_gamma	88.340626
loop_
_atom_site_label
_atom_site_type_symbol
_atom_site_fract_x
_atom_site_fract_y
_atom_site_fract_z
O1	O	1.263165	0.197434	-0.089196
O2	O	0.987198	0.190148	-0.089224
O3	O	1.132725	0.072467	-0.089208
O4	O	1.117638	0.315115	-0.089212
O5	O	1.121781	0.081333	0.089432
O6	O	0.976253	0.199014	0.089417
O7	O	1.252221	0.206300	0.089445
Cu8	Cu	1.113237	0.203467	0.105742
Cu9	Cu	1.126181	0.192981	-0.105521
O10	O	1.106693	0.323981	0.089429
C11	C	0.946411	0.191392	0.000093
C12	C	0.841186	0.181881	0.000082
C13	C	0.648523	0.164494	0.000104
C14	C	0.590890	0.231950	0.000107
C15	C	0.483686	0.222276	0.000119
C16	C	0.755737	0.174167	0.000092
C17	C	1.126629	0.045658	0.000110
C18	C	1.124760	-0.047432	0.000104
C19	C	1.118044	-0.385681	0.000107
C20	C	1.014426	-0.346008	-0.000304
C21	C	1.016272	-0.249158	0.000099
C22	C	1.121375	-0.217872	0.000105
C23	C	1.166245	-0.250068	0.102120
C24	C	1.163636	-0.346894	0.102206
C25	C	1.178223	-0.357175	-0.100942
C26	C	1.178281	-0.260298	-0.102290
C27	C	1.123263	-0.123033	0.000107
C28	C	1.116158	-0.480519	0.000111
C29	C	1.293007	0.205055	0.000125
C30	C	1.398233	0.214567	0.000129
C31	C	1.112789	0.350789	0.000108
C32	C	1.114659	0.443879	0.000108
N33	N	1.104141	0.210842	0.254333
N34	N	1.135285	0.185600	-0.254113
C35	C	1.090759	0.221698	0.473447
C36	C	1.148663	0.174747	0.526780
C37	C	1.141218	0.180787	0.648703
C38	C	1.098204	0.215658	0.351514
H39	H	0.617354	0.099482	0.000111
H40	H	0.622061	0.296967	0.000101
H41	H	1.203829	0.130016	0.480873
H42	H	0.980568	-0.227367	-0.073031
N43	N	0.968092	-0.377689	-0.092090
N44	N	1.010890	-0.429881	-0.158273
H45	H	0.978168	-0.452259	-0.223102
N46	N	1.021562	0.277805	0.531043
N47	N	1.015540	0.282693	0.631440
H48	H	0.966672	0.322320	0.672130
N49	N	1.258738	-0.379923	0.108032
N50	N	1.326822	-0.331453	0.112030
H51	H	1.393986	-0.354775	0.116153
N52	N	0.957104	-0.369929	0.090950
N53	N	0.992233	-0.416068	0.156287
H54	H	0.951752	-0.432965	0.220738
H55	H	1.255304	-0.239517	-0.108445
H56	H	0.971331	-0.220680	0.073345
H57	H	1.243229	-0.229986	0.105919
N58	N	1.110994	-0.368589	0.197857
N59	N	1.025734	-0.344253	0.215953
H60	H	0.988551	-0.359571	0.283508
N61	N	1.115864	-0.213062	0.197346
N62	N	1.046908	-0.162974	0.190344
H63	H	1.011319	-0.136839	0.257594
N64	N	1.141676	-0.390940	-0.197947
N65	N	1.138838	-0.468535	-0.215949
H66	H	1.113020	-0.492384	-0.284455
H67	H	1.145529	-0.239586	-0.177759
H68	H	1.254680	-0.383262	-0.101623
