data_functionalizedCrystal
_audit_creation_method	'MofGen! by Chris Wilmer'
_symmetry_space_group_name_H-M	'P1'
_symmetry_Int_Tables_number	1
_symmetry_cell_setting	triclinic
loop_
_symmetry_equiv_pos_as_xyz
  x,y,z
_cell_length_a	18.101398
_cell_length_b	18.101397
_cell_length_c	19.078593
_cell_angle_alpha	92.214579
_cell_angle_beta	92.228540
_cell_angle_gamma	90.016023
loop_
_atom_site_label
_atom_site_type_symbol
_atom_site_fract_x
_atom_site_fract_y
_atom_site_fract_z
Zn1	Zn	1.115800	-0.311351	-0.397698
Zn2	Zn	1.365800	-0.061351	-0.147698
Zn3	Zn	1.615800	0.188649	0.102302
Zn4	Zn	1.865800	0.438649	0.352302
Zn5	Zn	1.120565	-0.430337	-0.280017
Zn6	Zn	1.370565	-0.180337	-0.030017
Zn7	Zn	1.620565	0.069663	0.219983
Zn8	Zn	1.870565	0.319663	0.469983
Zn9	Zn	0.996803	-0.306506	-0.280055
Zn10	Zn	1.246803	-0.056506	-0.030055
Zn11	Zn	1.496803	0.193494	0.219945
Zn12	Zn	1.746803	0.443494	0.469945
Zn13	Zn	0.991934	-0.435144	-0.397672
Zn14	Zn	1.241934	-0.185144	-0.147672
Zn15	Zn	1.491934	0.064856	0.102328
Zn16	Zn	1.741934	0.314856	0.352328
O17	O	1.056276	-0.370834	-0.338860
O18	O	1.306276	-0.120834	-0.088860
O19	O	1.556276	0.129166	0.161140
O20	O	1.806276	0.379166	0.411140
O21	O	1.220065	-0.327150	-0.382082
O22	O	1.470065	-0.077150	-0.132082
O23	O	1.720065	0.172850	0.117918
O24	O	1.970065	0.422850	0.367918
O25	O	1.108179	-0.409871	-0.181549
O26	O	1.358179	-0.159871	0.068451
O27	O	1.608179	0.090129	0.318451
O28	O	1.858179	0.340129	0.568451
O29	O	1.012632	-0.203517	-0.295687
O30	O	1.262632	0.046483	-0.045687
O31	O	1.512632	0.296483	0.204313
O32	O	1.762632	0.546483	0.454313
O33	O	1.223566	-0.414569	-0.295623
O34	O	1.473566	-0.164569	-0.045623
O35	O	1.723566	0.085431	0.204377
O36	O	1.973566	0.335431	0.454377
O37	O	1.100059	-0.207076	-0.382119
O38	O	1.350059	0.042924	-0.132119
O39	O	1.600059	0.292924	0.117881
O40	O	1.850059	0.542924	0.367881
O41	O	1.017252	-0.318892	-0.181577
O42	O	1.267252	-0.068892	0.068423
O43	O	1.517252	0.181108	0.318423
O44	O	1.767252	0.431108	0.568423
O45	O	0.892524	-0.323554	-0.295662
O46	O	1.142524	-0.073554	-0.045662
O47	O	1.392524	0.176446	0.204338
O48	O	1.642524	0.426446	0.454338
O49	O	1.004334	-0.422763	-0.496148
O50	O	1.254334	-0.172763	-0.246148
O51	O	1.504334	0.077237	0.003852
O52	O	1.754334	0.327237	0.253852
O53	O	0.888947	-0.418064	-0.382075
O54	O	1.138947	-0.168064	-0.132075
O55	O	1.388947	0.081936	0.117925
O56	O	1.638947	0.331936	0.367925
O57	O	1.095338	-0.331812	-0.496167
O58	O	1.345338	-0.081812	-0.246167
O59	O	1.595338	0.168188	0.003833
O60	O	1.845338	0.418188	0.253833
O61	O	1.103458	-0.534606	-0.295598
O62	O	1.353458	-0.284606	-0.045598
O63	O	1.603458	-0.034606	0.204402
O64	O	1.853458	0.215394	0.454402
O65	O	1.008953	-0.538138	-0.382038
O66	O	1.258953	-0.288138	-0.132038
O67	O	1.508953	-0.038138	0.117962
O68	O	1.758953	0.211862	0.367962
C69	C	0.863865	-0.370806	-0.338870
C70	C	1.113865	-0.120806	-0.088870
C71	C	1.363865	0.129194	0.161130
C72	C	1.613865	0.379194	0.411130
C73	C	0.781550	-0.370812	-0.338891
C74	C	1.031550	-0.120812	-0.088891
C75	C	1.281550	0.129188	0.161109
C76	C	1.531550	0.379188	0.411109
C77	C	0.482460	-0.370854	-0.338862
C78	C	0.732460	-0.120854	-0.088862
C79	C	0.982460	0.129146	0.161138
C80	C	1.232460	0.379146	0.411138
C81	C	0.511570	-0.430583	-0.392962
C82	C	0.761570	-0.180583	-0.142962
C83	C	1.011570	0.069417	0.107038
C84	C	1.261570	0.319417	0.357038
C85	C	0.597179	-0.430412	-0.393184
C86	C	0.847179	-0.180412	-0.143184
C87	C	1.097179	0.069588	0.106816
C88	C	1.347179	0.319588	0.356816
C89	C	0.630842	-0.370834	-0.338876
C90	C	0.880842	-0.120834	-0.088876
C91	C	1.130842	0.129166	0.161124
C92	C	1.380842	0.379166	0.411124
C93	C	0.598938	-0.293669	-0.359146
C94	C	0.848938	-0.043669	-0.109146
C95	C	1.098938	0.206331	0.140854
C96	C	1.348938	0.456331	0.390854
C97	C	0.513278	-0.294030	-0.359530
C98	C	0.763278	-0.044030	-0.109530
C99	C	1.013278	0.205970	0.140470
C100	C	1.263278	0.455970	0.390470
C101	C	0.517079	-0.387597	-0.264362
C102	C	0.767079	-0.137597	-0.014362
C103	C	1.017079	0.112403	0.235638
C104	C	1.267079	0.362403	0.485638
C105	C	0.602713	-0.389325	-0.264760
C106	C	0.852713	-0.139325	-0.014760
C107	C	1.102713	0.110675	0.235240
C108	C	1.352713	0.360675	0.485240
C109	C	0.714701	-0.370818	-0.338883
C110	C	0.964701	-0.120818	-0.088883
C111	C	1.214701	0.129182	0.161117
C112	C	1.464701	0.379182	0.411117
C113	C	0.398601	-0.370866	-0.338856
C114	C	0.648601	-0.120866	-0.088856
C115	C	0.898601	0.129134	0.161144
C116	C	1.148601	0.379134	0.411144
C117	C	1.056214	-0.563244	-0.338826
C118	C	1.306214	-0.313244	-0.088826
C119	C	1.556214	-0.063244	0.161174
C120	C	1.806214	0.186756	0.411174
C121	C	1.056254	-0.645558	-0.338835
C122	C	1.306254	-0.395558	-0.088835
C123	C	1.556254	-0.145558	0.161165
C124	C	1.806254	0.104442	0.411165
C125	C	1.056346	-0.944652	-0.338900
C126	C	1.306346	-0.694652	-0.088900
C127	C	1.556346	-0.444652	0.161100
C128	C	1.806346	-0.194652	0.411100
C129	C	1.115652	-0.911067	-0.284368
C130	C	1.365652	-0.661067	-0.034368
C131	C	1.615652	-0.411067	0.215632
C132	C	1.865652	-0.161067	0.465632
C133	C	1.115844	-0.825455	-0.284509
C134	C	1.365844	-0.575455	-0.034509
C135	C	1.615844	-0.325455	0.215491
C136	C	1.865844	-0.075455	0.465491
C137	C	1.056300	-0.796268	-0.338867
C138	C	1.306300	-0.546268	-0.088867
C139	C	1.556300	-0.296268	0.161133
C140	C	1.806300	-0.046268	0.411133
C141	C	1.074402	-0.830340	-0.413038
C142	C	1.324402	-0.580340	-0.163038
C143	C	1.574402	-0.330340	0.086962
C144	C	1.824402	-0.080340	0.336962
C145	C	1.074856	-0.915973	-0.412741
C146	C	1.324856	-0.665973	-0.162741
C147	C	1.574856	-0.415973	0.087259
C148	C	1.824856	-0.165973	0.337259
C149	C	0.978759	-0.912370	-0.319902
C150	C	1.228759	-0.662370	-0.069902
C151	C	1.478759	-0.412370	0.180098
C152	C	1.728759	-0.162370	0.430098
C153	C	0.979214	-0.826652	-0.318247
C154	C	1.229214	-0.576652	-0.068247
C155	C	1.479214	-0.326652	0.181753
C156	C	1.729214	-0.076652	0.431753
C157	C	1.056273	-0.712408	-0.338853
C158	C	1.306273	-0.462408	-0.088853
C159	C	1.556273	-0.212408	0.161147
C160	C	1.806273	0.037592	0.411147
C161	C	1.056375	-1.028512	-0.338918
C162	C	1.306375	-0.778512	-0.088918
C163	C	1.556375	-0.528512	0.161082
C164	C	1.806375	-0.278512	0.411082
C165	C	1.249438	-0.370864	-0.338851
C166	C	1.499438	-0.120864	-0.088851
C167	C	1.749438	0.129136	0.161149
C168	C	1.999438	0.379136	0.411149
C169	C	1.331752	-0.370876	-0.338847
C170	C	1.581752	-0.120876	-0.088847
C171	C	1.831752	0.129124	0.161153
C172	C	2.081752	0.379124	0.411153
C173	C	1.048761	-0.378364	-0.522405
C174	C	1.298761	-0.128364	-0.272405
C175	C	1.548761	0.121636	-0.022405
C176	C	1.798761	0.371636	0.227595
C177	C	1.045559	-0.381573	-0.600620
C178	C	1.295559	-0.131573	-0.350620
C179	C	1.545559	0.118427	-0.100620
C180	C	1.795559	0.368427	0.149380
C181	C	1.056357	-0.177675	-0.338910
C182	C	1.306357	0.072325	-0.088910
C183	C	1.556357	0.322325	0.161090
C184	C	1.806357	0.572325	0.411090
C185	C	1.056392	-0.095361	-0.338931
C186	C	1.306392	0.154639	-0.088931
C187	C	1.556392	0.404639	0.161069
C188	C	1.806392	0.654639	0.411069
C189	C	1.063804	-0.363281	-0.156030
C190	C	1.313804	-0.113281	0.093970
C191	C	1.563804	0.136719	0.343970
C192	C	1.813804	0.386719	0.593970
C193	C	1.067149	-0.359863	-0.077815
C194	C	1.317149	-0.109863	0.172185
C195	C	1.567149	0.140137	0.422185
C196	C	1.817149	0.390137	0.672185
C197	C	1.021695	-0.405944	-0.040868
C198	C	1.271695	-0.155944	0.209132
C199	C	1.521695	0.094056	0.459132
C200	C	1.771695	0.344056	0.709132
C201	C	1.024834	-0.402727	0.032624
C202	C	1.274834	-0.152727	0.282624
C203	C	1.524834	0.097273	0.532624
C204	C	1.774834	0.347273	0.782624
C205	C	1.073432	-0.353431	0.069167
C206	C	1.323432	-0.103431	0.319167
C207	C	1.573432	0.146569	0.569167
C208	C	1.823432	0.396569	0.819167
C209	C	1.118889	-0.307345	0.032215
C210	C	1.368889	-0.057345	0.282215
C211	C	1.618889	0.192655	0.532215
C212	C	1.868889	0.442655	0.782215
C213	C	1.115745	-0.310560	-0.041276
C214	C	1.365745	-0.060560	0.208724
C215	C	1.615745	0.189440	0.458724
C216	C	1.865745	0.439440	0.708724
C217	C	1.087872	-0.338701	0.288937
C218	C	1.337872	-0.088701	0.538937
C219	C	1.587872	0.161299	0.788937
C220	C	1.837872	0.411299	1.038937
C221	C	1.091013	-0.335492	0.362433
C222	C	1.341013	-0.085492	0.612433
C223	C	1.591013	0.164508	0.862433
C224	C	1.841013	0.414508	1.112433
C225	C	0.996957	-0.430873	0.362837
C226	C	1.246957	-0.180873	0.612837
C227	C	1.496957	0.069127	0.862837
C228	C	1.746957	0.319127	1.112837
C229	C	0.993821	-0.434086	0.289345
C230	C	1.243821	-0.184086	0.539345
C231	C	1.493821	0.065914	0.789345
C232	C	1.743821	0.315914	1.039345
C233	C	1.039275	-0.387997	0.252399
C234	C	1.289275	-0.137997	0.502399
C235	C	1.539275	0.112003	0.752399
C236	C	1.789275	0.362003	1.002399
N237	N	1.076643	-0.350143	0.144287
N238	N	1.326643	-0.100143	0.394287
N239	N	1.576643	0.149857	0.644287
N240	N	1.826643	0.399857	0.894287
N241	N	1.036060	-0.391282	0.177280
N242	N	1.286060	-0.141282	0.427280
N243	N	1.536060	0.108718	0.677280
N244	N	1.786060	0.358718	0.927280
H245	H	0.491071	-0.279469	-0.413993
H246	H	0.741071	-0.029469	-0.163993
H247	H	0.991071	0.220531	0.086007
H248	H	1.241071	0.470531	0.336007
H249	H	0.982124	-0.446089	-0.070616
H250	H	1.232124	-0.196089	0.179384
H251	H	1.482124	0.053911	0.429384
H252	H	1.732124	0.303911	0.679384
H253	H	0.987828	-0.440259	0.062703
H254	H	1.237828	-0.190259	0.312703
H255	H	1.487828	0.059741	0.562703
H256	H	1.737828	0.309741	0.812703
H257	H	0.615406	-0.419578	-0.448384
H258	H	0.865406	-0.169578	-0.198384
H259	H	1.115406	0.080422	0.051616
H260	H	1.365406	0.330422	0.301616
H261	H	1.158455	-0.267205	0.061974
H262	H	1.408455	-0.017205	0.311974
H263	H	1.658455	0.232795	0.561974
H264	H	1.908455	0.482795	0.811974
H265	H	1.152757	-0.273033	-0.071357
H266	H	1.402757	-0.023033	0.178643
H267	H	1.652757	0.226967	0.428643
H268	H	1.902757	0.476967	0.678643
Cl269	Cl	0.630420	-0.518916	-0.373601
Cl270	Cl	0.880420	-0.268916	-0.123601
Cl271	Cl	1.130420	-0.018916	0.126399
Cl272	Cl	1.380420	0.231084	0.376399
H273	H	0.620866	-0.248093	-0.320971
H274	H	0.870866	0.001907	-0.070971
H275	H	1.120866	0.251907	0.179029
H276	H	1.370866	0.501907	0.429029
Cl277	Cl	1.145054	-0.280800	0.242501
Cl278	Cl	1.395054	-0.030800	0.492501
Cl279	Cl	1.645054	0.219200	0.742501
Cl280	Cl	1.895054	0.469200	0.992501
H281	H	0.491483	-0.488096	-0.380400
H282	H	0.741483	-0.238096	-0.130400
H283	H	0.991483	0.011904	0.119600
H284	H	1.241483	0.261904	0.369600
H285	H	0.494096	-0.248105	-0.321933
H286	H	0.744096	0.001895	-0.071933
H287	H	0.994096	0.251895	0.178067
H288	H	1.244096	0.501895	0.428067
H289	H	0.961701	-0.931834	-0.266756
H290	H	1.211701	-0.681834	-0.016756
H291	H	1.461701	-0.431834	0.233244
H292	H	1.711701	-0.181834	0.483244
H293	H	0.618182	-0.278780	-0.413016
H294	H	0.868182	-0.028780	-0.163016
H295	H	1.118182	0.221220	0.086984
H296	H	1.368182	0.471220	0.336984
Cl297	Cl	1.098857	-0.789580	-0.199608
Cl298	Cl	1.348857	-0.539580	0.050392
Cl299	Cl	1.598857	-0.289580	0.300392
Cl300	Cl	1.848857	-0.039580	0.550392
H301	H	1.033385	-0.938432	-0.454771
H302	H	1.283385	-0.688432	-0.204771
H303	H	1.533385	-0.438432	0.045229
H304	H	1.783385	-0.188432	0.295229
Cl305	Cl	1.009542	-0.801574	-0.477456
Cl306	Cl	1.259542	-0.551574	-0.227456
Cl307	Cl	1.509542	-0.301574	0.022544
Cl308	Cl	1.759542	-0.051574	0.272544
H309	H	1.104847	-0.929431	-0.229206
H310	H	1.354847	-0.679431	0.020794
H311	H	1.604847	-0.429431	0.270794
H312	H	1.854847	-0.179431	0.520794
Cl313	Cl	0.932732	-0.496068	0.243410
Cl314	Cl	1.182732	-0.246068	0.493410
Cl315	Cl	1.432732	0.003932	0.743410
Cl316	Cl	1.682732	0.253932	0.993410
H317	H	0.496234	-0.442743	-0.245942
H318	H	0.746234	-0.192743	0.004058
H319	H	0.996234	0.057257	0.254058
H320	H	1.246234	0.307257	0.504058
Cl321	Cl	1.204001	-0.945006	-0.303548
Cl322	Cl	1.454001	-0.695006	-0.053548
Cl323	Cl	1.704001	-0.445006	0.196452
Cl324	Cl	1.954001	-0.195006	0.446452
Cl325	Cl	0.635036	-0.476975	-0.241161
Cl326	Cl	0.885036	-0.226975	0.008839
Cl327	Cl	1.135036	0.023025	0.258839
Cl328	Cl	1.385036	0.273025	0.508839
Cl329	Cl	1.204670	-0.794540	-0.303918
Cl330	Cl	1.454670	-0.544540	-0.053918
Cl331	Cl	1.704670	-0.294540	0.196082
Cl332	Cl	1.954670	-0.044540	0.446082
H333	H	0.625854	-0.348735	-0.222286
H334	H	0.875854	-0.098735	0.027714
H335	H	1.125854	0.151265	0.277714
H336	H	1.375854	0.401265	0.527714
Cl337	Cl	0.939815	-0.488805	0.409287
Cl338	Cl	1.189815	-0.238805	0.659287
Cl339	Cl	1.439815	0.011195	0.909287
Cl340	Cl	1.689815	0.261195	1.159287
Cl341	Cl	0.488350	-0.320373	-0.202126
Cl342	Cl	0.738350	-0.070373	0.047874
Cl343	Cl	0.988350	0.179627	0.297874
Cl344	Cl	1.238350	0.429627	0.547874
H345	H	0.487798	-0.419903	-0.447842
H346	H	0.737798	-0.169903	-0.197842
H347	H	0.987798	0.080097	0.052158
H348	H	1.237798	0.330097	0.302158
H349	H	1.131477	-0.936561	-0.428834
H350	H	1.381477	-0.686561	-0.178834
H351	H	1.631477	-0.436561	0.071166
H352	H	1.881477	-0.186561	0.321166
Cl353	Cl	1.160814	-0.798189	-0.438307
Cl354	Cl	1.410814	-0.548189	-0.188307
Cl355	Cl	1.660814	-0.298189	0.061693
Cl356	Cl	1.910814	-0.048189	0.311693
Cl357	Cl	1.152115	-0.273518	0.408372
Cl358	Cl	1.402115	-0.023518	0.658372
Cl359	Cl	1.652115	0.226482	0.908372
Cl360	Cl	1.902115	0.476482	1.158372
Cl361	Cl	0.958049	-0.791887	-0.233976
Cl362	Cl	1.208049	-0.541887	0.016024
Cl363	Cl	1.458049	-0.291887	0.266024
Cl364	Cl	1.708049	-0.041887	0.516024
Cl365	Cl	0.907701	-0.795979	-0.375080
Cl366	Cl	1.157701	-0.545979	-0.125080
Cl367	Cl	1.407701	-0.295979	0.124920
Cl368	Cl	1.657701	-0.045979	0.374920
H369	H	0.934609	-0.934273	-0.359620
H370	H	1.184609	-0.684273	-0.109620
H371	H	1.434609	-0.434273	0.140380
H372	H	1.684609	-0.184273	0.390380
