data_functionalizedCrystal
_audit_creation_method	'MofGen! by Chris Wilmer'
_symmetry_space_group_name_H-M	'P1'
_symmetry_Int_Tables_number	1
_symmetry_cell_setting	triclinic
loop_
_symmetry_equiv_pos_as_xyz
  x,y,z
_cell_length_a	19.077105
_cell_length_b	25.639239
_cell_length_c	19.076919
_cell_angle_alpha	87.731593
_cell_angle_beta	89.923776
_cell_angle_gamma	87.734929
loop_
_atom_site_label
_atom_site_type_symbol
_atom_site_fract_x
_atom_site_fract_y
_atom_site_fract_z
Zn1	Zn	1.058187	-0.252939	0.440398
Zn2	Zn	1.062799	-0.337004	0.322884
Zn3	Zn	0.945407	-0.245935	0.318192
Zn4	Zn	0.940620	-0.336689	0.435637
O5	O	1.001753	-0.293142	0.379278
O6	O	1.157129	-0.267153	0.428766
O7	O	1.051160	-0.322124	0.223931
O8	O	0.960440	-0.173702	0.334431
O9	O	1.160518	-0.328916	0.342429
O10	O	1.043299	-0.178848	0.424215
O11	O	0.964912	-0.255216	0.220483
O12	O	0.846441	-0.254910	0.329815
O13	O	0.952283	-0.328378	0.534600
O14	O	0.842925	-0.321587	0.416101
O15	O	1.038658	-0.266848	0.538097
O16	O	1.046519	-0.410124	0.337813
O17	O	0.956755	-0.409893	0.420652
C18	C	0.819187	-0.287455	0.371933
C19	C	0.741083	-0.285035	0.368807
C20	C	1.001636	-0.428980	0.379241
C21	C	1.001650	-0.487094	0.379251
C22	C	0.702581	-0.318661	0.412193
C23	C	0.629194	-0.316381	0.409259
C24	C	0.594312	-0.280476	0.362936
C25	C	0.632820	-0.246846	0.319549
C26	C	0.706205	-0.249125	0.322486
C27	C	0.375028	-0.269932	0.349344
C28	C	0.301638	-0.267658	0.346409
C29	C	0.298017	-0.337192	0.436121
C30	C	0.371404	-0.339469	0.439051
C31	C	0.409905	-0.305837	0.395666
N32	N	0.519299	-0.278146	0.359935
N33	N	0.484917	-0.308166	0.398671
C34	C	1.048607	-0.847575	0.336225
C35	C	1.048634	-0.902180	0.336235
O36	O	1.088438	-0.930513	0.299613
N37	N	1.001875	-0.929386	0.379329
C38	C	0.955090	-0.901983	0.422421
O39	O	0.915321	-0.930137	0.459077
C40	C	0.955067	-0.847379	0.422413
C41	C	1.001825	-0.820176	0.379311
C42	C	1.095362	-0.820372	0.293127
C43	C	1.095334	-0.765771	0.293116
C44	C	1.048551	-0.738372	0.336202
C45	C	1.001797	-0.765574	0.379300
C46	C	0.908287	-0.819977	0.465508
C47	C	0.908268	-0.765369	0.465497
C48	C	0.955026	-0.738167	0.422395
C49	C	0.954987	-0.683574	0.422375
N50	N	1.001746	-0.656368	0.379282
C51	C	1.048528	-0.683767	0.336195
C52	C	0.955143	-1.016656	0.422434
C53	C	0.955162	-1.071259	0.422438
C54	C	1.048707	-1.071452	0.336253
C55	C	1.048684	-1.016848	0.336246
C56	C	1.001902	-0.989450	0.379340
C57	C	1.048466	-0.569100	0.336174
C58	C	1.048432	-0.514493	0.336164
C59	C	0.954890	-0.514304	0.422351
C60	C	0.954921	-0.568906	0.422359
C61	C	1.001715	-0.596303	0.379268
O62	O	0.915205	-0.655207	0.458982
O63	O	1.088298	-0.655607	0.299552
C64	C	1.185032	-0.298851	0.386652
C65	C	1.263135	-0.301284	0.389794
C66	C	0.994422	-0.298359	0.562557
C67	C	0.991298	-0.300582	0.640660
C68	C	1.001889	-0.156774	0.379331
C69	C	1.001947	-0.098662	0.379354
C70	C	1.009096	-0.287908	0.196713
C71	C	1.012356	-0.285541	0.118616
C72	C	1.034799	-0.269593	0.679175
C73	C	1.031855	-0.271680	0.752561
C74	C	0.985413	-0.304759	0.787430
C75	C	0.941907	-0.335750	0.748910
C76	C	0.944848	-0.333660	0.675526
C77	C	0.971792	-0.314442	1.006711
C78	C	0.968856	-0.316531	1.080100
C79	C	1.058803	-0.252460	1.083746
C80	C	1.061742	-0.250375	1.010361
C81	C	1.018234	-0.281364	0.971846
N82	N	0.982404	-0.306894	0.862442
N83	N	1.021240	-0.279226	0.896836
H84	H	0.730976	-0.347900	0.449912
H85	H	0.904091	-0.362682	0.777306
H86	H	0.909418	-0.358890	0.644167
O87	O	0.909516	-0.487604	0.464185
C88	C	0.868008	-0.403389	0.502333
C89	C	0.919437	-0.433564	0.454929
H90	H	0.876001	-0.359691	0.494855
H91	H	0.878045	-0.416055	0.559515
H92	H	0.811862	-0.412086	0.487685
H93	H	0.975602	-0.424882	0.469514
H94	H	0.909339	-0.420894	0.397759
O95	O	0.412391	-0.237315	0.307097
C96	C	0.439574	-0.209063	0.188532
C97	C	0.397231	-0.246042	0.236297
H98	H	0.427321	-0.216098	0.131280
H99	H	0.498029	-0.216851	0.198523
H100	H	0.424683	-0.166832	0.200438
H101	H	0.412062	-0.288286	0.224418
H102	H	0.338787	-0.238209	0.226297
O103	O	1.106809	-0.218264	0.976380
C104	C	1.151108	-0.186578	0.864940
C105	C	1.100065	-0.222987	0.903335
H106	H	1.145663	-0.190377	0.805877
H107	H	1.207213	-0.197908	0.881576
H108	H	1.138202	-0.144464	0.878949
H109	H	1.112908	-0.265113	0.889345
H110	H	1.043976	-0.211614	0.886696
H111	H	0.604413	-0.217610	0.281834
O112	O	0.743503	-0.216441	0.280266
C113	C	0.739353	-0.147215	0.190999
C114	C	0.697029	-0.184209	0.238761
H115	H	0.701796	-0.121139	0.157440
H116	H	0.775136	-0.171170	0.155526
H117	H	0.772466	-0.121925	0.224713
H118	H	0.663876	-0.209508	0.205102
H119	H	0.661290	-0.160224	0.274238
H120	H	0.597848	-0.343764	0.444588
O121	O	0.909833	-1.097741	0.464341
C122	C	0.896534	-1.161743	0.558870
C123	C	0.947943	-1.131800	0.511445
H124	H	0.927326	-1.189278	0.596975
H125	H	0.861128	-1.185321	0.525151
H126	H	0.863082	-1.132763	0.589627
H127	H	0.981442	-1.160743	0.480680
H128	H	0.983301	-1.108213	0.545203
O129	O	1.093923	-0.488151	0.294274
C130	C	1.186679	-0.494115	0.208761
C131	C	1.135211	-0.524010	0.256175
H132	H	1.220064	-0.523092	0.177934
H133	H	1.222140	-0.470588	0.242490
H134	H	1.155895	-0.466524	0.170718
H135	H	1.165938	-0.551627	0.294225
H136	H	1.099750	-0.547503	0.222402
H137	H	0.399800	-0.368707	0.476771
O138	O	1.100988	-0.222373	1.121265
C139	C	1.136351	-0.197215	1.235934
C140	C	1.088525	-0.231310	1.193531
H141	H	1.126302	-0.204436	1.294370
H142	H	1.124626	-0.154253	1.221076
H143	H	1.193574	-0.207741	1.223743
H144	H	1.031286	-0.220829	1.205701
H145	H	1.100311	-0.274263	1.208396
O146	O	1.093999	-0.595732	0.294423
C147	C	1.189281	-0.659995	0.288875
C148	C	1.137765	-0.629865	0.336239
H149	H	1.224669	-0.687606	0.322662
H150	H	1.222738	-0.631186	0.258095
H151	H	1.158535	-0.683525	0.250791
H152	H	1.168454	-0.606333	0.374363
H153	H	1.104308	-0.658701	0.366970
O154	O	0.923676	-0.348677	1.113862
C155	C	0.834798	-0.412028	1.102508
C156	C	0.885914	-0.375638	1.064183
H157	H	0.804264	-0.433844	1.062359
H158	H	0.796662	-0.387880	1.135376
H159	H	0.865668	-0.441328	1.138170
H160	H	0.855102	-0.346331	1.028485
H161	H	0.924050	-0.399820	1.031359
H162	H	1.067280	-0.246446	0.783917
O163	O	0.260509	-0.369803	0.478239
C164	C	0.145852	-0.397132	0.513450
C165	C	0.188242	-0.360161	0.465718
H166	H	0.087417	-0.389357	0.503333
H167	H	0.157981	-0.390074	0.570723
H168	H	0.160783	-0.439365	0.501595
H169	H	0.173335	-0.317914	0.477511
H170	H	0.176109	-0.367264	0.408460
H171	H	0.936374	-0.339684	0.975362
O172	O	1.140829	-0.739432	0.251234
C173	C	1.233595	-0.745407	0.165732
C174	C	1.182114	-0.775295	0.213139
H175	H	1.266978	-0.774388	0.134910
H176	H	1.269058	-0.721885	0.199467
H177	H	1.202822	-0.717812	0.127686
H178	H	1.212830	-0.802917	0.251193
H179	H	1.146651	-0.798783	0.179361
H180	H	0.273239	-0.238414	0.308691
O181	O	0.909475	-0.595254	0.464290
C182	C	0.816666	-0.589291	0.549748
C183	C	0.868101	-0.559393	0.502299
H184	H	0.783193	-0.560309	0.580480
H185	H	0.847408	-0.616850	0.587866
H186	H	0.781286	-0.612853	0.515981
H187	H	0.903494	-0.535801	0.536009
H188	H	0.837316	-0.531866	0.464177
H189	H	1.133461	-0.842675	0.258040
O190	O	1.079817	-0.237426	0.645227
C191	C	1.092653	-0.164749	0.562822
C192	C	1.041595	-0.201153	0.601206
H193	H	1.061769	-0.135406	0.527234
H194	H	1.130741	-0.188885	0.529888
H195	H	1.123250	-0.142983	0.602974
H196	H	1.010950	-0.222927	0.561103
H197	H	1.003552	-0.176989	0.634153
H198	H	1.086758	-0.994703	0.301149
O199	O	1.094275	-1.098002	0.294443
C200	C	1.215221	-1.117354	0.265315
C201	C	1.163683	-1.087259	0.312695
H202	H	1.271349	-1.108688	0.280065
H203	H	1.205262	-1.104635	0.208138
H204	H	1.207200	-1.161055	0.272696
H205	H	1.171674	-1.043553	0.305375
H206	H	1.173655	-1.100021	0.369855
H207	H	0.870208	-0.842116	0.500603
O208	O	0.909622	-0.990122	0.464311
C209	C	0.816869	-0.995706	0.549824
C210	C	0.868370	-1.025815	0.502419
H211	H	0.783513	-1.024551	0.580658
H212	H	0.781383	-0.968131	0.516086
H213	H	0.847626	-0.972143	0.587860
H214	H	0.837670	-1.049409	0.464376
H215	H	0.903856	-1.053358	0.536201
O216	O	0.862758	-0.738836	0.507382
C217	C	0.770019	-0.744414	0.592911
C218	C	0.821509	-0.774526	0.545500
H219	H	0.736666	-0.773257	0.623752
H220	H	0.734528	-0.716839	0.559177
H221	H	0.800783	-0.720850	0.630940
H222	H	0.790801	-0.798120	0.507463
H223	H	0.857000	-0.802069	0.579277
