data_functionalizedCrystal
_audit_creation_method	'MofGen! by Chris Wilmer'
_symmetry_space_group_name_H-M	'P1'
_symmetry_Int_Tables_number	1
_symmetry_cell_setting	triclinic
loop_
_symmetry_equiv_pos_as_xyz
  x,y,z
_cell_length_a	14.044191
_cell_length_b	15.186229
_cell_length_c	14.044209
_cell_angle_alpha	90.006467
_cell_angle_beta	86.810135
_cell_angle_gamma	89.999039
loop_
_atom_site_label
_atom_site_type_symbol
_atom_site_fract_x
_atom_site_fract_y
_atom_site_fract_z
O1	O	1.277169	-0.073196	-0.230199
O2	O	1.000497	-0.073207	-0.221886
O3	O	1.134681	-0.073189	-0.087706
O4	O	1.142985	-0.073214	-0.364378
O5	O	1.134671	0.073268	-0.087703
O6	O	1.000487	0.073250	-0.221883
O7	O	1.277159	0.073261	-0.230196
Zn8	Zn	1.138821	0.096509	-0.226039
Zn9	Zn	1.138834	-0.096455	-0.226043
O10	O	1.142975	0.073243	-0.364375
C11	C	0.964870	0.000020	-0.218248
C12	C	0.858727	0.000017	-0.207401
N13	N	1.138819	0.228201	-0.226036
N14	N	1.138843	-0.228148	-0.226038
C15	C	0.613268	0.000020	-0.264501
C16	C	0.664394	0.000026	-0.187585
C17	C	0.772531	0.000021	-0.198613
C18	C	0.505121	0.000025	-0.253474
C19	C	1.312786	0.000032	-0.233834
C20	C	1.418929	0.000029	-0.244681
C21	C	1.131041	0.000041	-0.052083
C22	C	1.120197	0.000044	0.054060
C23	C	1.198260	0.453932	-0.166645
C24	C	1.198263	0.546122	-0.166643
C25	C	1.079396	0.546115	-0.285432
C26	C	1.079389	0.453927	-0.285428
C27	C	1.138826	0.407838	-0.226037
C28	C	1.138836	0.592216	-0.226038
C29	C	1.138839	0.692172	-0.226036
C30	C	1.138823	0.307876	-0.226037
C31	C	1.100372	0.000036	0.248398
C32	C	1.177287	0.000038	0.299526
C33	C	1.166257	0.000033	0.407663
C34	C	1.111402	0.000041	0.140252
C35	C	1.146617	0.000018	0.600001
C36	C	1.157467	0.000030	0.493859
H37	H	0.650708	0.000011	-0.338628
O38	O	1.256017	0.409297	-0.108859
C39	C	1.308491	0.469754	-0.056456
H40	H	1.269261	0.535472	-0.052050
H41	H	1.316606	0.443129	0.018551
H42	H	1.382034	0.479549	-0.093490
O43	O	1.255860	0.590937	-0.108847
C44	C	1.199760	0.644288	-0.045608
H45	H	1.124331	0.616512	-0.037584
H46	H	1.232301	0.645338	0.026960
H47	H	1.197286	0.714153	-0.075060
O48	O	1.265780	0.000169	0.254974
C49	C	1.315637	0.076038	0.281708
H50	H	1.283888	0.101316	0.353025
H51	H	1.393995	0.058991	0.288672
H52	H	1.309345	0.129155	0.225047
O53	O	1.012006	0.000076	0.293208
C54	C	1.020528	0.000053	0.392765
H55	H	1.093092	0.027775	0.409726
H56	H	0.961780	0.042577	0.428198
H57	H	1.013601	-0.070210	0.420876
O58	O	1.021618	0.590987	-0.342993
C59	C	0.958387	0.644311	-0.286850
H60	H	0.990098	0.658127	-0.215380
H61	H	0.946662	0.709134	-0.325416
H62	H	0.887275	0.608792	-0.274358
H63	H	1.030986	0.416395	-0.333792
O64	O	0.619581	-0.000014	-0.099213
C65	C	0.520023	0.000007	-0.107728
H66	H	0.503062	-0.027715	-0.180295
H67	H	0.484601	-0.042518	-0.048985
H68	H	0.491900	0.070269	-0.100789
