data_functionalizedCrystal
_audit_creation_method	'MofGen! by Chris Wilmer'
_symmetry_space_group_name_H-M	'P1'
_symmetry_Int_Tables_number	1
_symmetry_cell_setting	triclinic
loop_
_symmetry_equiv_pos_as_xyz
  x,y,z
_cell_length_a	15.944499
_cell_length_b	10.723024
_cell_length_c	9.798715
_cell_angle_alpha	90.002215
_cell_angle_beta	89.993958
_cell_angle_gamma	96.027261
loop_
_atom_site_label
_atom_site_type_symbol
_atom_site_fract_x
_atom_site_fract_y
_atom_site_fract_z
O1	O	1.115470	-0.160625	-0.113569
O2	O	1.615470	0.339375	0.386431
O3	O	0.871028	-0.180534	-0.113554
O4	O	1.371028	0.319466	0.386446
O5	O	0.998887	0.011070	-0.113557
O6	O	1.498887	0.511070	0.386443
O7	O	0.987610	-0.352228	-0.113566
O8	O	1.487610	0.147772	0.386434
O9	O	0.998878	0.011071	0.113425
O10	O	1.498878	0.511071	0.613425
O11	O	0.871019	-0.180532	0.113428
O12	O	1.371019	0.319468	0.613428
O13	O	1.115461	-0.160623	0.113413
O14	O	1.615461	0.339377	0.613413
Zn15	Zn	0.993238	-0.170578	0.149459
Zn16	Zn	1.493238	0.329422	0.649459
Zn17	Zn	0.993250	-0.170579	-0.149600
Zn18	Zn	1.493250	0.329421	0.350400
O19	O	0.987601	-0.352227	0.113416
O20	O	1.487601	0.147773	0.613416
C21	C	0.839724	-0.179718	-0.000061
C22	C	1.339724	0.320282	0.499939
C23	C	0.746462	-0.177274	-0.000055
C24	C	1.246462	0.322726	0.499945
C25	C	0.455563	-0.288591	-0.000078
C26	C	0.955563	0.211409	0.499922
C27	C	0.516265	-0.230726	-0.111993
C28	C	1.016265	0.269274	0.388007
C29	C	0.410774	-0.168396	-0.000086
C30	C	0.910774	0.331604	0.499914
C31	C	0.516242	-0.230693	0.111794
C32	C	1.016242	0.269307	0.611794
C33	C	0.575708	-0.172765	-0.000068
C34	C	1.075708	0.327235	0.499932
C35	C	0.470249	-0.110498	-0.112094
C36	C	0.970249	0.389502	0.387906
C37	C	0.470219	-0.110481	0.111794
C38	C	0.970219	0.389519	0.611794
C39	C	0.530903	-0.052530	-0.000149
C40	C	1.030903	0.447470	0.499851
C41	C	0.315760	-0.165883	-0.000097
C42	C	0.815760	0.334117	0.499903
C43	C	0.670722	-0.175268	-0.000067
C44	C	1.170722	0.324732	0.499933
C45	C	1.146765	-0.161439	-0.000083
C46	C	1.646765	0.338561	0.499917
C47	C	1.240027	-0.163883	-0.000098
C48	C	1.740027	0.336117	0.499902
C49	C	0.998062	0.057560	-0.000067
C50	C	1.498062	0.557560	0.499933
C51	C	0.995607	0.196082	-0.000072
C52	C	1.495607	0.696082	0.499928
N53	N	0.993237	-0.170576	0.353559
N54	N	1.493237	0.329424	0.853559
C55	C	0.988427	-0.398716	-0.000077
C56	C	1.488427	0.101284	0.499923
C57	C	0.990882	-0.537239	-0.000081
C58	C	1.490882	-0.037239	0.499919
C59	C	1.067150	0.271988	-0.000078
C60	C	1.567150	0.771988	0.499922
C61	C	1.064614	0.415159	-0.000083
C62	C	1.564614	0.915159	0.499917
N63	N	0.993259	-0.170571	-0.353700
N64	N	1.493259	0.329429	0.146300
C65	C	1.047054	-0.089952	0.578489
C66	C	1.547054	0.410048	1.078489
C67	C	1.047043	-0.089954	0.421326
C68	C	1.547043	0.410046	0.921326
H69	H	0.449983	-0.059708	-0.206815
H70	H	0.949983	0.440292	0.293185
H71	H	0.947197	-0.239599	0.588006
H72	H	1.447197	0.260401	1.088006
Cl73	Cl	0.547741	-0.309213	-0.258079
Cl74	Cl	1.047741	0.190787	0.241921
H75	H	0.929632	0.397545	-0.000066
H76	H	1.429632	0.897545	0.499934
H77	H	1.093096	-0.020927	0.363012
H78	H	1.593096	0.479073	0.863012
H79	H	1.130278	0.230981	-0.000074
H80	H	1.630278	0.730981	0.499926
Cl81	Cl	0.581255	0.101607	-0.000237
Cl82	Cl	1.081255	0.601607	0.499763
H83	H	1.093123	-0.020933	0.636782
H84	H	1.593123	0.479067	1.136782
H85	H	0.422804	-0.388340	-0.000189
H86	H	0.922804	0.111660	0.499811
Cl87	Cl	1.159180	0.515852	-0.000081
Cl88	Cl	1.659180	1.015852	0.499919
Cl89	Cl	0.922119	-0.277142	0.443578
Cl90	Cl	1.422119	0.222858	0.943578
Cl91	Cl	0.438701	-0.032055	0.257882
Cl92	Cl	0.938701	0.467945	0.757882
Cl93	Cl	0.547684	-0.309210	0.257864
Cl94	Cl	1.047684	0.190790	0.757864
H95	H	0.932479	0.237089	-0.000077
H96	H	1.432479	0.737089	0.499923
