data_functionalizedCrystal
_audit_creation_method	'MofGen! by Chris Wilmer'
_symmetry_space_group_name_H-M	'P1'
_symmetry_Int_Tables_number	1
_symmetry_cell_setting	triclinic
loop_
_symmetry_equiv_pos_as_xyz
  x,y,z
_cell_length_a	14.853569
_cell_length_b	14.519709
_cell_length_c	13.330367
_cell_angle_alpha	90.003343
_cell_angle_beta	90.005718
_cell_angle_gamma	83.657855
loop_
_atom_site_label
_atom_site_type_symbol
_atom_site_fract_x
_atom_site_fract_y
_atom_site_fract_z
O1	O	1.196415	0.120408	0.083380
O2	O	1.696415	0.620408	0.583380
O3	O	0.933961	0.134750	0.083392
O4	O	1.433961	0.634750	0.583392
O5	O	1.072147	-0.006662	0.083377
O6	O	1.572147	0.493338	0.583377
O7	O	1.058230	0.261821	0.083395
O8	O	1.558230	0.761821	0.583395
O9	O	1.072126	-0.006659	-0.083471
O10	O	1.572126	0.493341	0.416529
O11	O	0.933940	0.134753	-0.083455
O12	O	1.433940	0.634753	0.416545
O13	O	1.196394	0.120411	-0.083467
O14	O	1.696394	0.620411	0.416533
Cu15	Cu	1.065165	0.127583	-0.098696
Cu16	Cu	1.565165	0.627583	0.401304
Cu17	Cu	1.065190	0.127579	0.098620
Cu18	Cu	1.565190	0.627579	0.598620
O19	O	1.058209	0.261823	-0.083452
O20	O	1.558209	0.761823	0.416548
C21	C	0.900362	0.134102	-0.000030
C22	C	1.400362	0.634102	0.499970
C23	C	0.800278	0.132153	-0.000026
C24	C	1.300278	0.632153	0.499974
C25	C	0.763868	0.047238	-0.000028
C26	C	1.263868	0.547238	0.499972
C27	C	0.742644	0.215239	-0.000027
C28	C	1.242644	0.715239	0.499973
C29	C	0.648609	0.213412	-0.000029
C30	C	1.148609	0.713412	0.499971
C31	C	0.612199	0.128496	-0.000031
C32	C	1.112199	0.628496	0.499969
C33	C	0.669825	0.045407	-0.000032
C34	C	1.169825	0.545407	0.499968
C35	C	0.590977	0.296498	-0.000038
C36	C	1.090977	0.796498	0.499962
C37	C	0.496936	0.294674	-0.000040
C38	C	0.996936	0.794674	0.499960
C39	C	0.460525	0.209757	-0.000035
C40	C	0.960525	0.709757	0.499965
C41	C	0.518156	0.126666	-0.000035
C42	C	1.018156	0.626666	0.499965
C43	C	0.481747	0.041750	-0.000038
C44	C	0.981747	0.541750	0.499962
C45	C	0.539377	-0.041343	-0.000031
C46	C	1.039377	0.458657	0.499969
C47	C	0.633414	-0.039509	-0.000027
C48	C	1.133414	0.460491	0.499973
C49	C	0.366487	0.207924	-0.000039
C50	C	0.866487	0.707924	0.499961
C51	C	0.387703	0.039920	-0.000042
C52	C	0.887703	0.539920	0.499958
C53	C	1.071488	-0.041020	-0.000047
C54	C	1.571488	0.458980	0.499953
C55	C	1.069544	-0.143400	-0.000048
C56	C	1.569544	0.356600	0.499952
C57	C	1.062389	-0.518293	-0.000021
C58	C	1.562389	-0.018293	0.499979
C59	C	1.064376	-0.413986	-0.000029
C60	C	1.564376	0.086014	0.499971
C61	C	1.065966	-0.330850	-0.000035
C62	C	1.565966	0.169150	0.499965
C63	C	1.067954	-0.226536	-0.000041
C64	C	1.567954	0.273464	0.499959
C65	C	1.229994	0.121060	-0.000043
C66	C	1.729994	0.621060	0.499957
C67	C	1.330078	0.123008	-0.000041
C68	C	1.830078	0.623008	0.499959
C69	C	1.058868	0.296182	-0.000026
C70	C	1.558868	0.796182	0.499974
C71	C	1.060811	0.398562	-0.000019
C72	C	1.560811	0.898562	0.499981
N73	N	1.065154	0.127584	-0.237477
N74	N	1.565154	0.627584	0.262523
C75	C	1.010392	0.071547	-0.290004
C76	C	1.510392	0.571547	0.209996
C77	C	1.119927	0.183617	-0.289979
C78	C	1.619927	0.683617	0.210021
C79	C	1.119938	0.183616	-0.394997
C80	C	1.619938	0.683616	0.105003
C81	C	1.065176	0.127579	-0.447524
C82	C	1.565176	0.627579	0.052476
C83	C	1.010403	0.071543	-0.395032
C84	C	1.510403	0.571543	0.104968
C85	C	1.174717	0.239645	-0.447497
C86	C	1.674717	0.739645	0.052503
C87	C	1.174730	0.239645	-0.552522
C88	C	1.674730	0.739645	-0.052522
C89	C	1.119962	0.183613	-0.605050
C90	C	1.619962	0.683613	-0.105050
C91	C	1.065187	0.127575	-0.552552
C92	C	1.565187	0.627575	-0.052552
C93	C	1.010425	0.071538	-0.605078
C94	C	1.510425	0.571538	-0.105078
C95	C	0.955643	0.015504	-0.552582
C96	C	1.455643	0.515504	-0.052582
C97	C	0.955635	0.015510	-0.447560
C98	C	1.455635	0.515510	0.052440
C99	C	1.119970	0.183607	-0.710072
C100	C	1.619970	0.683607	-0.210072
C101	C	1.010436	0.071534	-0.710106
C102	C	1.510436	0.571534	-0.210106
N103	N	1.065208	0.127570	0.237402
N104	N	1.565208	0.627570	0.737402
H105	H	0.358067	-0.029230	-0.000039
H106	H	0.858067	0.470770	0.499961
H107	H	0.911037	-0.030111	-0.404808
H108	H	1.411037	0.469889	0.095192
H109	H	0.772295	0.284374	-0.000032
H110	H	1.272295	0.784374	0.499968
H111	H	0.620629	0.365632	-0.000042
H112	H	1.120629	0.865632	0.499958
H113	H	1.219307	0.285260	-0.404722
H114	H	1.719307	0.785260	0.095278
H115	H	1.164518	0.229234	-0.247205
H116	H	1.664518	0.729234	0.252795
H117	H	0.319569	0.275577	-0.000053
H118	H	0.819569	0.775577	0.499947
H119	H	0.509720	-0.110482	-0.000026
H120	H	1.009720	0.389518	0.499974
H121	H	0.450021	0.362334	-0.000044
H122	H	0.950021	0.862334	0.499956
H123	H	0.965788	0.025929	-0.247256
H124	H	1.465788	0.525929	0.252744
H125	H	1.219336	0.285272	-0.595255
H126	H	1.719336	0.785272	-0.095255
H127	H	0.680344	-0.107159	-0.000024
H128	H	1.180344	0.392841	0.499976
H129	H	0.911060	-0.030125	-0.595363
H130	H	1.411060	0.469875	-0.095363
H131	H	0.965837	0.025905	-0.752866
H132	H	1.465837	0.525905	-0.252866
H133	H	1.164576	0.229225	-0.752809
H134	H	1.664576	0.729225	-0.252809
H135	H	0.810794	-0.020414	-0.000018
H136	H	1.310794	0.479586	0.499982
