data_functionalizedCrystal
_audit_creation_method	'MofGen! by Chris Wilmer'
_symmetry_space_group_name_H-M	'P1'
_symmetry_Int_Tables_number	1
_symmetry_cell_setting	triclinic
loop_
_symmetry_equiv_pos_as_xyz
  x,y,z
_cell_length_a	14.044220
_cell_length_b	9.065215
_cell_length_c	7.540329
_cell_angle_alpha	90.001076
_cell_angle_beta	89.997811
_cell_angle_gamma	90.898213
loop_
_atom_site_label
_atom_site_type_symbol
_atom_site_fract_x
_atom_site_fract_y
_atom_site_fract_z
O1	O	-0.139127	1.975816	0.147458
O2	O	0.360873	2.475816	0.647458
O3	O	-0.150543	1.547796	0.147466
O4	O	0.349457	2.047796	0.647466
O5	O	-0.006796	1.755382	0.147454
O6	O	0.493204	2.255382	0.647454
O7	O	-0.282875	1.768231	0.147470
O8	O	0.217125	2.268231	0.647470
O9	O	-0.006794	1.755374	-0.147511
O10	O	0.493206	2.255374	0.352489
O11	O	-0.150542	1.547788	-0.147499
O12	O	0.349458	2.047788	0.352501
O13	O	-0.139126	1.975808	-0.147507
O14	O	0.360874	2.475808	0.352493
Cu15	Cu	-0.144834	1.761798	-0.174436
Cu16	Cu	0.355166	2.261798	0.325564
Cu17	Cu	-0.144835	1.761807	0.174394
Cu18	Cu	0.355165	2.261807	0.674394
O19	O	-0.282874	1.768223	-0.147496
O20	O	0.217126	2.268223	0.352504
C21	C	-0.149446	1.492684	-0.000016
C22	C	0.350554	1.992684	0.499984
C23	C	-0.146168	1.328478	-0.000013
C24	C	0.353832	1.828478	0.499987
C25	C	-0.318237	1.773851	-0.000011
C26	C	0.181763	2.273851	0.499989
C27	C	-0.423607	1.790628	-0.000005
C28	C	0.076393	2.290628	0.499995
C29	C	-0.616531	1.821300	-0.000013
C30	C	-0.116531	2.321300	0.499987
C31	C	-0.673144	1.702311	-0.000013
C32	C	-0.173144	2.202311	0.499987
C33	C	-0.780494	1.719377	-0.000017
C34	C	-0.280494	2.219377	0.499983
C35	C	-0.509171	1.804236	-0.000009
C36	C	-0.009171	2.304236	0.499991
C37	C	0.028568	1.749753	-0.000027
C38	C	0.528568	2.249753	0.499973
C39	C	0.133937	1.732976	-0.000021
C40	C	0.633937	2.232976	0.499979
C41	C	-0.140223	2.030921	-0.000022
C42	C	0.359777	2.530921	0.499978
C43	C	-0.143502	2.195127	-0.000013
C44	C	0.356498	2.695127	0.499987
N45	N	-0.144833	1.761802	-0.419784
N46	N	0.355167	2.261802	0.080216
N47	N	-0.144829	1.761814	0.419743
N48	N	0.355171	2.261814	0.919743
H49	H	-0.648684	1.935978	-0.000022
H50	H	-0.148684	2.435978	0.499978
N51	N	-0.630558	1.550393	-0.000058
N52	N	-0.130558	2.050393	0.499942
H53	H	-0.683299	1.473359	-0.000072
H54	H	-0.183299	1.973359	0.499928
H55	H	-0.589907	1.538133	0.109279
H56	H	-0.089907	2.038133	0.609279
