data_functionalizedCrystal
_audit_creation_method	'MofGen! by Chris Wilmer'
_symmetry_space_group_name_H-M	'P1'
_symmetry_Int_Tables_number	1
_symmetry_cell_setting	triclinic
loop_
_symmetry_equiv_pos_as_xyz
  x,y,z
_cell_length_a	16.974897
_cell_length_b	14.519709
_cell_length_c	15.455450
_cell_angle_alpha	87.021976
_cell_angle_beta	89.339242
_cell_angle_gamma	96.460201
loop_
_atom_site_label
_atom_site_type_symbol
_atom_site_fract_x
_atom_site_fract_y
_atom_site_fract_z
O1	O	1.043084	-0.110355	-0.145287
O2	O	1.376417	0.222978	0.188046
O3	O	1.709750	0.556311	0.521380
O4	O	0.813590	-0.126115	-0.129198
O5	O	1.146923	0.207218	0.204135
O6	O	1.480256	0.540551	0.537468
O7	O	0.934422	0.016042	-0.137645
O8	O	1.267756	0.349376	0.195688
O9	O	1.601089	0.682709	0.529022
O10	O	0.922251	-0.252513	-0.136840
O11	O	1.255584	0.080820	0.196493
O12	O	1.588918	0.414154	0.529826
O13	O	0.940566	0.008867	0.006182
O14	O	1.273899	0.342200	0.339515
O15	O	1.607233	0.675534	0.672848
O16	O	0.819733	-0.133291	0.014628
O17	O	1.153066	0.200043	0.347962
O18	O	1.486400	0.533376	0.681295
O19	O	1.049227	-0.117531	-0.001460
O20	O	1.382561	0.215803	0.331873
O21	O	1.715894	0.549136	0.665206
Cu22	Cu	0.935041	-0.126066	0.019717
Cu23	Cu	1.268374	0.207268	0.353050
Cu24	Cu	1.601708	0.540601	0.686383
Cu25	Cu	0.927776	-0.117580	-0.150375
Cu26	Cu	1.261109	0.215753	0.182958
Cu27	Cu	1.594442	0.549086	0.516292
O28	O	0.928394	-0.259688	0.006986
O29	O	1.261728	0.073645	0.340320
O30	O	1.595061	0.406978	0.673653
C31	C	0.787291	-0.129234	-0.055226
C32	C	1.120624	0.204099	0.278108
C33	C	1.453957	0.537432	0.611441
C34	C	0.699775	-0.127827	-0.049089
C35	C	1.033108	0.205506	0.284244
C36	C	1.366442	0.538839	0.617577
C37	C	0.655304	-0.123258	-0.124600
C38	C	0.988638	0.210076	0.208733
C39	C	1.321971	0.543409	0.542067
C40	C	0.573073	-0.121951	-0.118821
C41	C	0.906406	0.211383	0.214512
C42	C	1.239740	0.544716	0.547845
C43	C	0.535315	-0.125207	-0.037531
C44	C	0.868648	0.208126	0.295802
C45	C	1.201982	0.541460	0.629135
C46	C	0.579792	-0.129780	0.037985
C47	C	0.913125	0.203553	0.371318
C48	C	1.246458	0.536887	0.704652
C49	C	0.662021	-0.131093	0.032206
C50	C	0.995354	0.202240	0.365539
C51	C	1.328687	0.535573	0.698872
C52	C	0.289747	-0.121705	-0.011840
C53	C	0.623080	0.211629	0.321493
C54	C	0.956413	0.544962	0.654827
C55	C	0.207512	-0.120388	-0.006066
C56	C	0.540845	0.212945	0.327267
C57	C	0.874179	0.546279	0.660600
C58	C	0.200799	-0.112561	-0.162873
C59	C	0.534132	0.220773	0.170460
C60	C	0.867466	0.554106	0.503793
C61	C	0.283030	-0.113869	-0.168645
C62	C	0.616364	0.219464	0.164688
C63	C	0.949697	0.552798	0.498021
C64	C	0.327499	-0.118447	-0.093129
C65	C	0.660833	0.214887	0.240204
C66	C	0.994166	0.548220	0.573538
N67	N	0.451262	-0.123868	-0.031623
N68	N	0.784595	0.209465	0.301710
N69	N	1.117929	0.542798	0.635044
N70	N	0.411550	-0.119792	-0.099038
N71	N	0.744883	0.213542	0.234295
N72	N	1.078217	0.546875	0.567628
C73	C	0.936927	0.046810	-0.065688
C74	C	1.270260	0.380144	0.267646
C75	C	1.603594	0.713477	0.600979
C76	C	0.935228	0.149180	-0.065555
C77	C	1.268562	0.482513	0.267778
C78	C	1.601895	0.815846	0.601111
C79	C	0.928973	0.524033	-0.065093
C80	C	1.262306	0.857366	0.268240
C81	C	1.595639	1.190700	0.601573
C82	C	0.930710	0.419737	-0.065221
C83	C	1.264043	0.753070	0.268112
C84	C	1.597376	1.086403	0.601445
C85	C	0.932100	0.336610	-0.065323
C86	C	1.265434	0.669943	0.268010
C87	C	1.598767	1.003276	0.601343
C88	C	0.933838	0.232307	-0.065453
C89	C	1.267171	0.565640	0.267880
C90	C	1.600504	0.898974	0.601213
C91	C	1.075526	-0.114411	-0.075435
C92	C	1.408859	0.218922	0.257899
C93	C	1.742193	0.552255	0.591232
C94	C	1.163041	-0.115818	-0.081577
C95	C	1.496375	0.217515	0.251756
C96	C	1.829708	0.550848	0.585090
C97	C	0.925891	0.709542	-0.064942
C98	C	1.259224	1.042875	0.268391
C99	C	1.592558	1.376209	0.601725
C100	C	0.927593	0.607169	-0.064988
C101	C	1.260927	0.940502	0.268345
C102	C	1.594260	1.273835	0.601678
N103	N	0.940157	-0.132033	0.139350
N104	N	1.273490	0.201300	0.472683
N105	N	1.606824	0.534633	0.806016
N106	N	0.922666	-0.111605	-0.270009
N107	N	1.255999	0.221728	0.063325
N108	N	1.589333	0.555061	0.396658
C109	C	0.894221	-0.078551	0.187999
C110	C	1.227554	0.254782	0.521333
C111	C	1.560887	0.588115	0.854666
C112	C	0.898109	-0.083075	0.278532
C113	C	1.231442	0.250258	0.611865
C114	C	1.564775	0.583592	0.945198
C115	C	0.947938	-0.141076	0.320412
C116	C	1.281271	0.192257	0.653746
C117	C	1.614605	0.525590	0.987079
C118	C	0.993876	-0.194564	0.271756
C119	C	1.327209	0.138769	0.605089
C120	C	1.660543	0.472103	0.938423
C121	C	0.989983	-0.190045	0.181226
C122	C	1.323317	0.143289	0.514559
C123	C	1.656650	0.476622	0.847892
C124	C	0.964711	-0.160574	0.590805
C125	C	1.298045	0.172759	0.924138
C126	C	1.631378	0.506093	1.257472
C127	C	0.968602	-0.165087	0.681342
C128	C	1.301936	0.168246	1.014675
C129	C	1.635269	0.501579	1.348008
C130	C	0.872833	-0.053599	0.688111
C131	C	1.206167	0.279734	1.021444
C132	C	1.539500	0.613068	1.354778
C133	C	0.868949	-0.049081	0.597578
C134	C	1.202282	0.284253	0.930912
C135	C	1.535615	0.617586	1.264245
C136	C	0.914884	-0.102572	0.548930
C137	C	1.248217	0.230761	0.882264
C138	C	1.581550	0.564094	1.215597
N139	N	0.951915	-0.145699	0.412951
N140	N	1.285249	0.187634	0.746284
N141	N	1.618582	0.520967	1.079617
N142	N	0.910901	-0.097953	0.456394
N143	N	1.244235	0.235380	0.789727
N144	N	1.577568	0.568713	1.123061
H145	H	0.325944	-0.125426	0.049651
H146	H	0.659278	0.207907	0.382984
H147	H	0.992611	0.541241	0.716318
Cl148	Cl	1.047736	-0.257280	0.120065
Cl149	Cl	1.381070	0.076054	0.453399
Cl150	Cl	1.714403	0.409387	0.786732
Cl151	Cl	0.831582	-0.005623	0.135358
Cl152	Cl	1.164915	0.327710	0.468691
Cl153	Cl	1.498249	0.661043	0.802025
H154	H	0.313768	-0.111211	-0.234840
H155	H	0.647101	0.222123	0.098493
H156	H	0.980434	0.555456	0.431826
H157	H	0.860703	-0.039524	0.318138
H158	H	1.194036	0.293809	0.651472
H159	H	1.527369	0.627143	0.984805
Cl160	Cl	0.160048	-0.124463	0.096135
Cl161	Cl	0.493382	0.208870	0.429468
Cl162	Cl	0.826715	0.542203	0.762801
Cl163	Cl	0.532323	-0.133881	0.140179
Cl164	Cl	0.865657	0.199452	0.473512
Cl165	Cl	1.198990	0.532786	0.806846
H166	H	0.828375	-0.001847	0.563486
H167	H	1.161708	0.331486	0.896819
H168	H	1.495041	0.664819	1.230152
H169	H	1.002118	-0.204127	0.551206
H170	H	1.335452	0.129207	0.884540
H171	H	1.668785	0.462540	1.217873
H172	H	0.698228	-0.134818	0.093695
H173	H	1.031561	0.198515	0.427028
H174	H	1.364894	0.531848	0.760361
H175	H	1.009180	-0.212322	0.715438
H176	H	1.342514	0.121011	1.048771
H177	H	1.675847	0.454344	1.382105
H178	H	0.686041	-0.120603	-0.190795
H179	H	1.019374	0.212730	0.142538
H180	H	1.352708	0.546064	0.475872
Cl181	Cl	0.815086	0.013637	0.749274
Cl182	Cl	1.148419	0.346971	1.082607
Cl183	Cl	1.481752	0.680304	1.415940
Cl184	Cl	1.056512	-0.267488	0.324407
Cl185	Cl	1.389846	0.065845	0.657740
Cl186	Cl	1.723179	0.399178	0.991073
H187	H	0.164584	-0.108836	-0.224354
H188	H	0.497917	0.224497	0.108979
H189	H	0.831250	0.557831	0.442312
Cl190	Cl	0.517170	-0.116206	-0.213754
Cl191	Cl	0.850503	0.217127	0.119579
Cl192	Cl	1.183837	0.550460	0.452913
