data_functionalizedCrystal
_audit_creation_method	'MofGen! by Chris Wilmer'
_symmetry_space_group_name_H-M	'P1'
_symmetry_Int_Tables_number	1
_symmetry_cell_setting	triclinic
loop_
_symmetry_equiv_pos_as_xyz
  x,y,z
_cell_length_a	17.000371
_cell_length_b	7.540329
_cell_length_c	9.065218
_cell_angle_alpha	89.998243
_cell_angle_beta	80.307566
_cell_angle_gamma	89.996638
loop_
_atom_site_label
_atom_site_type_symbol
_atom_site_fract_x
_atom_site_fract_y
_atom_site_fract_z
O1	O	1.056484	-0.147488	0.053109
O2	O	1.389817	0.185845	0.386442
O3	O	1.723150	0.519179	0.719775
O4	O	0.825137	-0.147488	0.106602
O5	O	1.158470	0.185846	0.439936
O6	O	1.491803	0.519179	0.773269
O7	O	0.945592	-0.147484	-0.135526
O8	O	1.278926	0.185849	0.197808
O9	O	1.612259	0.519182	0.531141
O10	O	0.936028	-0.147491	0.295237
O11	O	1.269362	0.185842	0.628570
O12	O	1.602695	0.519175	0.961904
O13	O	0.945585	0.147481	-0.135528
O14	O	1.278918	0.480814	0.197806
O15	O	1.612252	0.814148	0.531139
O16	O	0.825129	0.147477	0.106601
O17	O	1.158463	0.480811	0.439934
O18	O	1.491796	0.814144	0.773267
O19	O	1.056477	0.147477	0.053107
O20	O	1.389810	0.480811	0.386440
O21	O	1.723143	0.814144	0.719774
Cu22	Cu	0.940802	0.174410	0.079854
Cu23	Cu	1.274136	0.507743	0.413187
Cu24	Cu	1.607469	0.841077	0.746520
Cu25	Cu	0.940811	-0.174420	0.079856
Cu26	Cu	1.274144	0.158913	0.413189
Cu27	Cu	1.607478	0.492246	0.746522
O28	O	0.936021	0.147474	0.295235
O29	O	1.269354	0.480807	0.628568
O30	O	1.602688	0.814140	0.961902
C31	C	0.795500	-0.000005	0.109475
C32	C	1.128833	0.333328	0.442808
C33	C	1.462167	0.666661	0.776142
C34	C	0.707203	-0.000005	0.118019
C35	C	1.040536	0.333328	0.451352
C36	C	1.373870	0.666661	0.784685
N37	N	0.940802	0.419758	0.079850
N38	N	1.274135	0.753092	0.413184
N39	N	1.607469	1.086425	0.746517
C40	C	0.944669	-0.000005	-0.190371
C41	C	1.278003	0.333329	0.142962
C42	C	1.611336	0.666662	0.476295
C43	C	0.941921	-0.000013	-0.353789
C44	C	1.275254	0.333320	-0.020456
C45	C	1.608588	0.666654	0.312877
C46	C	0.674230	-0.000000	-0.013461
C47	C	1.007563	0.333333	0.319872
C48	C	1.340896	0.666667	0.653205
C49	C	0.591265	-0.000013	-0.005425
C50	C	0.924598	0.333320	0.327909
C51	C	1.257931	0.666654	0.661242
C52	C	0.541274	-0.000019	0.134094
C53	C	0.874608	0.333315	0.467427
C54	C	1.207941	0.666648	0.800760
C55	C	0.574253	-0.000029	0.265583
C56	C	0.907586	0.333304	0.598917
C57	C	1.240920	0.666637	0.932250
C58	C	0.657217	-0.000029	0.257545
C59	C	0.990550	0.333304	0.590879
C60	C	1.323883	0.666638	0.924212
C61	C	0.290352	-0.000031	0.165142
C62	C	0.623686	0.333302	0.498476
C63	C	0.957019	0.666636	0.831809
C64	C	0.207384	-0.000026	0.173171
C65	C	0.540717	0.333307	0.506504
C66	C	0.874050	0.666641	0.839837
C67	C	0.224401	-0.000013	-0.097839
C68	C	0.557734	0.333320	0.235495
C69	C	0.891068	0.666654	0.568828
C70	C	0.307365	-0.000002	-0.105864
C71	C	0.640699	0.333331	0.227469
C72	C	0.974032	0.666665	0.560802
C73	C	0.340337	-0.000022	0.025625
C74	C	0.673670	0.333311	0.358959
C75	C	1.007003	0.666644	0.692292
C76	C	0.456471	-0.000026	0.142312
C77	C	0.789804	0.333307	0.475645
C78	C	1.123137	0.666640	0.808978
C79	C	0.425139	-0.000027	0.017406
C80	C	0.758472	0.333306	0.350739
C81	C	1.091806	0.666639	0.684072
C82	C	1.086113	-0.000009	0.050234
C83	C	1.419447	0.333324	0.383568
C84	C	1.752780	0.666658	0.716901
C85	C	1.174410	-0.000021	0.041691
C86	C	1.507744	0.333313	0.375024
C87	C	1.841077	0.666646	0.708357
N88	N	0.940817	-0.419769	0.079846
N89	N	1.274151	-0.086436	0.413180
N90	N	1.607484	0.246898	0.746513
C91	C	0.936944	-0.000010	0.350081
C92	C	1.270277	0.333323	0.683414
C93	C	1.603611	0.666657	1.016747
C94	C	0.939692	-0.000013	0.513499
C95	C	1.273025	0.333320	0.846832
C96	C	1.606359	0.666654	1.180165
H97	H	0.714927	0.000012	-0.127072
H98	H	1.048260	0.333345	0.206261
H99	H	1.381593	0.666678	0.539594
F100	F	0.403261	-0.000034	0.290793
F101	F	0.736594	0.333300	0.624127
F102	F	1.069927	0.666633	0.957460
F103	F	0.521047	-0.000052	0.414070
F104	F	0.854381	0.333282	0.747403
F105	F	1.187714	0.666615	1.080737
H106	H	0.564422	-0.000010	-0.112490
H107	H	0.897756	0.333323	0.220844
H108	H	1.231089	0.666656	0.554177
F109	F	0.360563	0.000014	-0.254359
F110	F	0.693897	0.333348	0.078974
F111	F	1.027230	0.666681	0.412308
H112	H	0.197546	-0.000017	-0.204890
H113	H	0.530880	0.333317	0.128443
H114	H	0.864213	0.666650	0.461777
F115	F	0.154181	-0.000018	0.321672
F116	F	0.487514	0.333315	0.655005
F117	F	0.820848	0.666648	0.988339
H118	H	0.317187	-0.000059	0.272211
H119	H	0.650520	0.333274	0.605544
H120	H	0.983854	0.666607	0.938877
F121	F	0.692308	-0.000041	0.397485
F122	F	1.025642	0.333292	0.730818
F123	F	1.358975	0.666625	1.064151
F124	F	0.478344	-0.000029	-0.131075
F125	F	0.811677	0.333304	0.202259
F126	F	1.145010	0.666638	0.535592
