data_functionalizedCrystal
_audit_creation_method	'MofGen! by Chris Wilmer'
_symmetry_space_group_name_H-M	'P1'
_symmetry_Int_Tables_number	1
_symmetry_cell_setting	triclinic
loop_
_symmetry_equiv_pos_as_xyz
  x,y,z
_cell_length_a	19.121102
_cell_length_b	19.121411
_cell_length_c	19.121510
_cell_angle_alpha	90.220995
_cell_angle_beta	85.140415
_cell_angle_gamma	94.959226
loop_
_atom_site_label
_atom_site_type_symbol
_atom_site_fract_x
_atom_site_fract_y
_atom_site_fract_z
Zn1	Zn	1.107224	0.344565	-0.429609
Zn2	Zn	1.106573	0.456970	-0.307351
Zn3	Zn	0.983982	0.334302	-0.307364
Zn4	Zn	0.994099	0.456749	-0.419974
O5	O	1.047970	0.398147	-0.366074
O6	O	1.205785	0.363864	-0.417418
O7	O	1.085805	0.436496	-0.209059
O8	O	0.996369	0.237377	-0.327618
O9	O	1.205307	0.446448	-0.327595
O10	O	1.086914	0.244918	-0.417431
O11	O	0.995738	0.346372	-0.209069
O12	O	0.886677	0.346157	-0.318275
O13	O	1.013611	0.446070	-0.519545
O14	O	0.894109	0.436118	-0.401009
O15	O	1.096724	0.363649	-0.526625
O16	O	1.095615	0.555227	-0.318252
O17	O	1.012981	0.555065	-0.400996
C18	C	0.864815	0.390000	-0.358598
C19	C	0.786462	0.386533	-0.355416
C20	C	1.055345	0.580632	-0.358593
C21	C	1.058565	0.658704	-0.355419
C22	C	1.056369	0.405980	-0.549284
C23	C	1.059948	0.409318	-0.627357
C24	C	0.753539	0.431807	-0.396923
C25	C	0.679918	0.428540	-0.393936
C26	C	0.639221	0.380002	-0.349439
C27	C	0.672148	0.334723	-0.307930
C28	C	0.745768	0.337987	-0.310921
C29	C	0.416742	0.367796	-0.338261
C30	C	0.343117	0.364537	-0.335272
C31	C	0.350892	0.458353	-0.421279
C32	C	0.424513	0.461616	-0.424263
C33	C	0.457434	0.416335	-0.382757
C34	C	0.563968	0.376663	-0.346383
C35	C	0.532685	0.419671	-0.385817
C36	C	1.231840	0.406325	-0.373580
C37	C	1.310194	0.409811	-0.376779
C38	C	1.078955	1.100266	-0.335289
C39	C	1.075922	1.026909	-0.338273
C40	C	1.031350	0.990171	-0.382809
C41	C	0.989801	1.026793	-0.424359
C42	C	0.992830	1.100148	-0.421371
C43	C	1.020046	0.768681	-0.393981
C44	C	1.017022	0.695321	-0.396968
C45	C	1.103142	0.695442	-0.310879
C46	C	1.106171	0.768799	-0.307898
C47	C	1.064620	0.805415	-0.349446
C48	C	1.028251	0.915188	-0.385862
C49	C	1.067715	0.880396	-0.346389
C50	C	1.040579	1.214950	-0.373608
C51	C	1.037411	1.136883	-0.376837
C52	C	1.039642	0.390295	-0.183581
C53	C	1.036191	0.386766	-0.105522
C54	C	1.014360	0.364378	0.335957
C55	C	1.017592	0.367712	0.262613
C56	C	1.066416	0.415984	0.225957
C57	C	1.112006	0.460929	0.262649
C58	C	1.108770	0.457597	0.335991
C59	C	1.078545	0.428379	0.004512
C60	C	1.081779	0.431706	-0.068836
C61	C	0.987364	0.338490	-0.068866
C62	C	0.984135	0.335159	0.004477
C63	C	1.029723	0.380106	0.041162
C64	C	1.069722	0.419392	0.150988
C65	C	1.026412	0.376701	0.116130
H66	H	0.786670	0.471334	-0.433155
H67	H	1.151756	0.500236	0.232798
Cl68	Cl	0.291955	0.303518	-0.279323
H69	H	0.959005	1.129961	-0.455209
H70	H	0.944376	0.295853	0.034318
H71	H	1.136970	0.665623	-0.277052
Cl72	Cl	0.952981	0.303686	0.382031
H73	H	1.115658	0.464985	0.034373
Cl74	Cl	1.166080	0.514099	0.382112
Cl75	Cl	0.930056	0.281991	-0.114989
Cl76	Cl	0.458119	0.310869	-0.286084
Cl77	Cl	0.965038	0.316017	0.162213
Cl78	Cl	1.123746	0.926582	-0.290401
Cl79	Cl	1.162210	0.814979	-0.251910
H80	H	0.991960	0.885270	-0.422126
Cl81	Cl	0.933767	0.980607	-0.480349
H82	H	1.109474	0.458696	0.121135
Cl83	Cl	0.638533	0.485458	-0.446119
H84	H	0.457644	0.501142	-0.460495
H85	H	0.324079	0.495217	-0.455072
H86	H	0.639007	0.295200	-0.271703
Cl87	Cl	0.960247	0.311245	0.216499
Cl88	Cl	0.787157	0.281068	-0.258741
H89	H	0.565824	0.459187	-0.422049
H90	H	1.121540	0.471015	-0.098679
H91	H	0.530824	0.337144	-0.310152
Cl92	Cl	1.134995	1.146444	-0.279300
H93	H	0.980724	0.665412	-0.433237
Cl94	Cl	1.128159	0.980880	-0.286045
Cl95	Cl	0.967823	0.814704	-0.446225
