data_functionalizedCrystal
_audit_creation_method	'MofGen! by Chris Wilmer'
_symmetry_space_group_name_H-M	'P1'
_symmetry_Int_Tables_number	1
_symmetry_cell_setting	triclinic
loop_
_symmetry_equiv_pos_as_xyz
  x,y,z
_cell_length_a	13.032831
_cell_length_b	29.839131
_cell_length_c	13.034059
_cell_angle_alpha	97.066338
_cell_angle_beta	76.580318
_cell_angle_gamma	82.845366
loop_
_atom_site_label
_atom_site_type_symbol
_atom_site_fract_x
_atom_site_fract_y
_atom_site_fract_z
Zn1	Zn	1.700860	-0.315346	-0.806360
Zn2	Zn	2.200860	0.184654	-0.306360
Zn3	Zn	1.677893	-0.379639	-0.628709
Zn4	Zn	2.177893	0.120361	-0.128709
Zn5	Zn	1.500442	-0.293610	-0.606247
Zn6	Zn	2.000442	0.206390	-0.106247
Zn7	Zn	1.523112	-0.379512	-0.783764
Zn8	Zn	2.023112	0.120488	-0.283764
O9	O	1.600577	-0.342027	-0.706270
O10	O	2.100577	0.157973	-0.206270
O11	O	1.846465	-0.333025	-0.801652
O12	O	2.346465	0.166975	-0.301652
O13	O	1.635254	-0.359184	-0.477090
O14	O	2.135254	0.140816	0.022910
O15	O	1.527152	-0.233636	-0.632848
O16	O	2.027152	0.266364	-0.132848
O17	O	1.829591	-0.380261	-0.671132
O18	O	2.329591	0.119739	-0.171132
O19	O	1.674398	-0.249605	-0.779871
O20	O	2.174398	0.250395	-0.279871
O21	O	1.504882	-0.295978	-0.460587
O22	O	2.004882	0.204022	0.039413
O23	O	1.354797	-0.295855	-0.610938
O24	O	1.854797	0.204145	-0.110938
O25	O	1.565790	-0.380044	-0.935401
O26	O	2.065790	0.119956	-0.435401
O27	O	1.371453	-0.358967	-0.741359
O28	O	1.871453	0.141033	-0.241359
O29	O	1.696381	-0.332901	-0.952003
O30	O	2.196381	0.167099	-0.452003
O31	O	1.657237	-0.442480	-0.649222
O32	O	2.157237	0.057520	-0.149222
O33	O	1.543520	-0.442386	-0.763140
O34	O	2.043520	0.057614	-0.263140
C35	C	1.324582	-0.325039	-0.671259
C36	C	1.824582	0.174961	-0.171259
C37	C	1.206513	-0.317784	-0.656307
C38	C	1.706513	0.182216	-0.156307
C39	C	1.600378	-0.458734	-0.706193
C40	C	2.100378	0.041266	-0.206193
C41	C	1.600395	-0.508671	-0.706208
C42	C	2.100395	-0.008671	-0.206208
C43	C	1.162130	-0.345813	-0.714074
C44	C	1.662130	0.154187	-0.214074
C45	C	1.040100	-0.338316	-0.698621
C46	C	1.540100	0.161684	-0.198621
C47	C	1.659925	-0.818377	-0.647068
C48	C	2.159925	-0.318377	-0.147068
C49	C	1.660062	-1.006061	-0.647126
C50	C	2.160062	-0.506061	-0.147126
O51	O	1.710519	-1.030367	-0.596783
O52	O	2.210519	-0.530367	-0.096783
N53	N	1.600807	-1.029487	-0.706378
N54	N	2.100807	-0.529487	-0.206378
C55	C	1.541520	-1.005991	-0.765626
C56	C	2.041520	-0.505991	-0.265626
O57	O	1.491133	-1.030224	-0.816034
O58	O	1.991133	-0.530224	-0.316034
C59	C	1.541391	-0.818309	-0.765574
C60	C	2.041391	-0.318309	-0.265574
C61	C	1.600640	-0.794884	-0.706309
C62	C	2.100640	-0.294884	-0.206309
C63	C	1.719171	-0.794952	-0.587809
C64	C	2.219171	-0.294952	-0.087809
C65	C	1.719132	-0.748033	-0.587790
C66	C	2.219132	-0.248033	-0.087790
C67	C	1.659847	-0.724540	-0.647031
C68	C	2.159847	-0.224540	-0.147031
C69	C	1.600601	-0.747965	-0.706290
C70	C	2.100601	-0.247965	-0.206290
C71	C	1.482110	-0.794814	-0.824827
C72	C	1.982110	-0.294814	-0.324827
C73	C	1.482085	-0.747891	-0.824811
C74	C	1.982085	-0.247891	-0.324811
C75	C	1.541335	-0.724465	-0.765546
C76	C	2.041335	-0.224465	-0.265546
C77	C	1.541276	-0.677553	-0.765512
C78	C	2.041276	-0.177553	-0.265512
N79	N	1.600531	-0.654126	-0.706260
N80	N	2.100531	-0.154126	-0.206260
C81	C	1.659816	-0.677620	-0.647019
C82	C	2.159816	-0.177620	-0.147019
C83	C	1.541591	-1.104527	-0.765648
C84	C	2.041591	-0.604527	-0.265648
C85	C	1.541622	-1.151447	-0.765660
C86	C	2.041622	-0.651447	-0.265660
C87	C	1.660165	-1.151513	-0.647160
C88	C	2.160165	-0.651513	-0.147160
C89	C	1.660127	-1.104592	-0.647143
C90	C	2.160127	-0.604592	-0.147143
C91	C	1.600845	-1.081100	-0.706395
C92	C	2.100845	-0.581100	-0.206395
C93	C	1.659728	-0.579087	-0.646984
C94	C	2.159728	-0.079087	-0.146984
C95	C	1.659680	-0.532164	-0.646967
C96	C	2.159680	-0.032164	-0.146967
C97	C	1.541142	-0.532102	-0.765470
C98	C	2.041142	-0.032102	-0.265470
C99	C	1.541185	-0.579021	-0.765483
C100	C	2.041185	-0.079021	-0.265483
C101	C	1.600486	-0.602512	-0.706237
C102	C	2.100486	-0.102512	-0.206237
O103	O	1.490855	-0.653219	-0.815838
O104	O	1.990855	-0.153219	-0.315838
O105	O	1.710215	-0.653380	-0.596637
O106	O	2.210215	-0.153380	-0.096637
C107	C	1.659965	-0.865295	-0.647086
C108	C	2.159965	-0.365295	-0.147086
C109	C	1.600719	-0.888721	-0.706345
C110	C	2.100719	-0.388721	-0.206345
C111	C	1.541434	-0.865227	-0.765586
C112	C	2.041434	-0.365227	-0.265586
C113	C	1.600750	-0.935641	-0.706357
C114	C	2.100750	-0.435641	-0.206357
C115	C	1.660035	-0.959134	-0.647116
C116	C	2.160035	-0.459134	-0.147116
C117	C	1.719289	-0.935707	-0.587864
C118	C	2.219289	-0.435707	-0.087864
C119	C	1.719250	-0.888789	-0.587845
C120	C	2.219250	-0.388789	-0.087845
C121	C	1.482179	-0.888654	-0.824839
C122	C	1.982179	-0.388654	-0.324839
C123	C	1.482223	-0.935573	-0.824851
C124	C	1.982223	-0.435573	-0.324851
C125	C	1.541508	-0.959066	-0.765611
C126	C	2.041508	-0.459066	-0.265611
C127	C	1.877650	-0.359082	-0.741418
C128	C	2.377650	0.140918	-0.241418
C129	C	1.995722	-0.366349	-0.756396
C130	C	2.495722	0.133651	-0.256396
C131	C	1.636176	-0.358883	-0.983320
C132	C	2.136176	0.141117	-0.483320
C133	C	1.651346	-0.366066	-1.101382
C134	C	2.151346	0.133934	-0.601382
C135	C	1.600808	-0.224867	-0.706374
C136	C	2.100808	0.275133	-0.206374
C137	C	1.600907	-0.174940	-0.706419
C138	C	2.100907	0.325060	-0.206419
C139	C	1.565177	-0.325208	-0.430306
C140	C	2.065177	0.174792	0.069694
C141	C	1.550213	-0.317911	-0.312270
C142	C	2.050213	0.182089	0.187730
C143	C	1.608508	-0.345757	-0.267822
C144	C	2.108508	0.154243	0.232178
C145	C	1.593043	-0.338216	-0.145827
C146	C	2.093043	0.161784	0.354173
H147	H	1.214476	-0.375360	-0.774974
H148	H	1.714476	0.124640	-0.274974
Cl149	Cl	1.498298	-0.292787	-0.065148
Cl150	Cl	1.998298	0.207213	0.434852
H151	H	1.048062	-0.395898	-0.817304
H152	H	1.548062	0.104102	-0.317304
H153	H	1.488852	-0.288489	-0.260007
H154	H	1.988852	0.211511	0.239993
Cl155	Cl	1.407641	-0.859127	-0.899321
Cl156	Cl	1.907641	-0.359127	-0.399321
Cl157	Cl	1.746083	-0.411499	-0.182057
Cl158	Cl	2.246083	0.088501	0.317943
Cl159	Cl	0.959297	-0.292689	-0.604600
Cl160	Cl	1.459297	0.207311	-0.104600
H161	H	1.767381	-0.728963	-0.539535
H162	H	2.267381	-0.228963	-0.039535
Cl163	Cl	1.125706	-0.272159	-0.562290
Cl164	Cl	1.625706	0.227841	-0.062290
H165	H	1.492869	-0.512966	-0.813700
H166	H	1.992869	-0.012966	-0.313700
Cl167	Cl	1.734171	-0.502718	-0.572457
Cl168	Cl	2.234171	-0.002718	-0.072457
Cl169	Cl	1.734277	-0.608612	-0.572501
Cl170	Cl	2.234277	-0.108612	-0.072501
Cl171	Cl	1.734617	-1.075148	-0.572638
Cl172	Cl	2.234617	-0.575148	-0.072638
Cl173	Cl	1.793712	-0.824478	-0.513324
Cl174	Cl	2.293712	-0.324478	-0.013324
H175	H	1.708437	-1.170650	-0.598925
H176	H	2.208437	-0.670650	-0.098925
H177	H	1.493363	-1.170514	-0.813908
H178	H	1.993363	-0.670514	-0.313908
Cl179	Cl	1.703236	-0.391189	-0.348503
Cl180	Cl	2.203236	0.108811	0.151497
Cl181	Cl	1.407634	-0.824253	-0.899351
Cl182	Cl	1.907634	-0.324253	-0.399351
Cl183	Cl	1.467054	-1.075000	-0.840141
Cl184	Cl	1.967054	-0.575000	-0.340141
H185	H	1.433812	-0.728766	-0.873064
H186	H	1.933812	-0.228766	-0.373064
Cl187	Cl	1.793816	-0.965251	-0.513388
Cl188	Cl	2.293816	-0.465251	-0.013388
H189	H	1.492943	-0.598095	-0.813745
H190	H	1.992943	-0.098095	-0.313745
Cl191	Cl	1.793745	-0.859348	-0.513342
Cl192	Cl	2.293745	-0.359348	-0.013342
Cl193	Cl	1.407728	-0.965016	-0.899363
Cl194	Cl	1.907728	-0.465016	-0.399363
