data_functionalizedCrystal
_audit_creation_method	'MofGen! by Chris Wilmer'
_symmetry_space_group_name_H-M	'P1'
_symmetry_Int_Tables_number	1
_symmetry_cell_setting	triclinic
loop_
_symmetry_equiv_pos_as_xyz
  x,y,z
_cell_length_a	27.732064
_cell_length_b	27.732048
_cell_length_c	26.809956
_cell_angle_alpha	89.999364
_cell_angle_beta	89.998878
_cell_angle_gamma	82.646040
loop_
_atom_site_label
_atom_site_type_symbol
_atom_site_fract_x
_atom_site_fract_y
_atom_site_fract_z
O1	O	0.640926	0.057548	-0.041396
O2	O	0.500133	0.066285	-0.041417
O3	O	0.574902	-0.008480	-0.041396
O4	O	0.566157	0.132313	-0.041417
O5	O	0.574888	-0.008468	0.041563
O6	O	0.500119	0.066297	0.041542
O7	O	0.640912	0.057560	0.041563
Zn8	Zn	0.570513	0.061930	0.054724
Zn9	Zn	0.570532	0.061915	-0.054578
O10	O	0.566143	0.132325	0.041543
C11	C	0.482120	0.066106	0.000060
C12	C	0.428465	0.065551	0.000052
C13	C	0.574712	-0.026481	0.000085
C14	C	0.574159	-0.080136	0.000089
C15	C	0.051392	0.017583	0.000087
C16	C	0.253053	0.019630	0.000074
O17	O	0.284305	-0.017591	0.000098
N18	N	0.272180	0.063964	0.000066
C19	C	0.240889	0.107790	0.000064
O20	O	0.261785	0.145546	0.000061
C21	C	0.039230	0.105743	0.000080
C22	C	0.020105	0.061406	0.000084
C23	C	0.032267	-0.026750	0.000092
C24	C	-0.018145	-0.027261	0.000092
C25	C	-0.049432	0.016561	0.000089
C26	C	-0.030307	0.060895	0.000085
C27	C	0.007940	0.149568	0.000082
C28	C	-0.042478	0.149053	0.000087
C29	C	-0.061602	0.104716	0.000091
C30	C	-0.112006	0.104206	0.000082
N31	N	-0.131134	0.059872	0.000090
C32	C	-0.099846	0.016049	0.000094
C33	C	0.346763	0.108861	0.000054
C34	C	0.397178	0.109373	0.000049
C35	C	0.409338	0.021213	0.000060
C36	C	0.358923	0.020701	0.000062
C37	C	0.327636	0.064527	0.000062
C38	C	-0.205716	0.014979	0.000095
C39	C	-0.256133	0.014472	0.000093
C40	C	-0.268289	0.102632	0.000084
C41	C	-0.217876	0.103140	0.000083
C42	C	-0.186590	0.059309	0.000090
O43	O	-0.143287	0.141407	0.000063
O44	O	-0.120752	-0.021701	0.000107
C45	C	0.101804	0.018094	0.000087
C46	C	0.120930	0.062428	0.000083
C47	C	0.089642	0.106250	0.000079
C48	C	0.171344	0.062940	0.000078
C49	C	0.202631	0.019117	0.000081
C50	C	0.183504	-0.025217	0.000090
C51	C	0.133092	-0.025728	0.000090
C52	C	0.108770	0.150585	0.000071
C53	C	0.159183	0.151092	0.000069
C54	C	0.190470	0.107270	0.000073
C55	C	0.614862	-0.418948	0.000069
C56	C	0.612811	-0.620608	0.000062
O57	O	0.650032	-0.651862	0.000046
N58	N	0.568476	-0.639735	0.000056
C59	C	0.524651	-0.608442	0.000048
O60	O	0.486895	-0.629338	0.000037
C61	C	0.526703	-0.406784	0.000052
C62	C	0.571040	-0.387660	0.000063
C63	C	0.659196	-0.399824	0.000080
C64	C	0.659709	-0.349412	0.000084
C65	C	0.615887	-0.318124	0.000078
C66	C	0.571553	-0.337248	0.000067
C67	C	0.482878	-0.375493	0.000040
C68	C	0.483395	-0.325075	0.000040
C69	C	0.527733	-0.305952	0.000051
C70	C	0.528243	-0.255548	0.000066
N71	N	0.572578	-0.236422	0.000072
C72	C	0.616400	-0.267710	0.000078
C73	C	0.523577	-0.714317	0.000047
C74	C	0.523064	-0.764731	0.000047
C75	C	0.611225	-0.776893	0.000060
C76	C	0.611737	-0.726478	0.000064
C77	C	0.567912	-0.695190	0.000053
C78	C	0.617472	-0.161841	0.000088
C79	C	0.617981	-0.111424	0.000095
C80	C	0.529821	-0.099266	0.000079
C81	C	0.529312	-0.149679	0.000075
C82	C	0.573142	-0.180965	0.000078
O83	O	0.491043	-0.224267	0.000076
O84	O	0.654151	-0.246805	0.000078
C85	C	0.614350	-0.469360	0.000065
C86	C	0.570016	-0.488484	0.000054
C87	C	0.526194	-0.457196	0.000048
C88	C	0.569503	-0.538899	0.000054
C89	C	0.613325	-0.570187	0.000060
C90	C	0.657660	-0.551060	0.000066
C91	C	0.658172	-0.500648	0.000071
C92	C	0.481859	-0.476323	0.000041
C93	C	0.481351	-0.526735	0.000037
C94	C	0.525172	-0.558023	0.000044
C95	C	0.658925	0.057739	0.000085
C96	C	0.712580	0.058295	0.000090
C97	C	0.566333	0.150326	0.000060
C98	C	0.566886	0.203981	0.000053
N99	N	0.570504	0.061940	0.129320
N100	N	0.570545	0.061901	-0.129174
C101	C	0.603635	0.028817	0.473955
C102	C	0.603647	0.028810	0.682833
O103	O	0.631796	0.000651	0.709845
N104	N	0.570534	0.061904	0.708947
C105	C	0.537415	0.095001	0.682839
O106	O	0.509248	0.123147	0.709843
C107	C	0.537402	0.095006	0.473962
C108	C	0.570519	0.061912	0.447851
C109	C	0.636750	-0.004274	0.447844
C110	C	0.636748	-0.004270	0.395628
C111	C	0.603632	0.028825	0.369523
C112	C	0.570518	0.061916	0.395634
C113	C	0.504280	0.128100	0.447855
C114	C	0.504279	0.128097	0.395632
C115	C	0.537397	0.095004	0.369521
C116	C	0.537400	0.095015	0.317313
N117	N	0.570512	0.061921	0.291199
C118	C	0.603628	0.028826	0.317304
C119	C	0.537425	0.094997	0.792502
C120	C	0.537429	0.094996	0.844721
C121	C	0.603660	0.028804	0.844712
C122	C	0.603658	0.028808	0.792492
C123	C	0.570537	0.061902	0.766388
C124	C	0.603623	0.028837	0.207646
C125	C	0.603620	0.028845	0.155425
C126	C	0.537387	0.095035	0.155439
C127	C	0.537392	0.095029	0.207655
C128	C	0.570512	0.061926	0.233757
O129	O	0.509262	0.123156	0.290269
O130	O	0.631784	0.000677	0.290290
C131	C	0.603637	0.028813	0.526172
C132	C	0.570522	0.061904	0.552283
C133	C	0.537406	0.095000	0.526178
C134	C	0.570526	0.061904	0.604502
C135	C	0.603642	0.028809	0.630607
C136	C	0.636754	-0.004286	0.604493
C137	C	0.636753	-0.004282	0.552277
C138	C	0.504294	0.128094	0.552293
C139	C	0.504298	0.128088	0.604509
C140	C	0.537414	0.094993	0.630614
H141	H	-0.271701	-0.021634	0.000095
C142	C	0.660511	-0.705447	0.000072
N143	N	0.697250	-0.689610	0.000076
H144	H	0.630592	0.001881	0.228893
C145	C	0.474289	-0.785761	0.000041
N146	N	0.437550	-0.801598	0.000033
C147	C	0.467863	0.164495	0.633226
N148	N	0.440418	0.191914	0.654853
C149	C	0.640087	-0.007601	0.763774
N150	N	0.667525	-0.035026	0.742147
H151	H	-0.180248	-0.020712	0.000100
H152	H	0.630590	0.001896	0.134167
H153	H	0.487888	-0.688846	0.000039
H154	H	0.653163	-0.187309	0.000089
C155	C	0.312354	0.157076	0.000056
N156	N	0.286438	0.193392	0.000057
H157	H	0.510426	0.121982	0.134176
C158	C	0.467847	0.164510	0.366921
N159	N	0.440409	0.191939	0.345297
C160	C	0.673180	-0.040688	0.476551
N161	N	0.700622	-0.068117	0.498170
C162	C	0.640085	-0.007603	0.873437
N163	N	0.667517	-0.035026	0.895075
H164	H	0.446173	-0.450852	0.000035
H165	H	-0.067950	0.184742	0.000090
C166	C	0.673175	-0.040681	0.366912
N167	N	0.700612	-0.068110	0.345286
H168	H	0.057737	-0.062438	0.000096
H169	H	0.694883	-0.425295	0.000083
H170	H	-0.293772	0.138311	0.000079
H171	H	0.646906	-0.802377	0.000065
H172	H	0.493209	-0.165249	0.000080
C173	C	0.028965	0.198344	0.000086
N174	N	0.044800	0.235084	0.000093
C175	C	0.112062	-0.074503	0.000101
N176	N	0.096226	-0.111243	0.000112
H177	H	0.693341	-0.576544	0.000074
C178	C	-0.196839	0.151912	0.000074
N179	N	-0.180997	0.188649	0.000071
H180	H	0.446774	-0.391054	0.000028
H181	H	0.447706	-0.299603	0.000031
H182	H	-0.033711	-0.063365	0.000097
H183	H	0.510466	0.121949	0.865977
H184	H	0.412744	0.145477	0.000039
C185	C	0.337891	-0.028072	0.000071
N186	N	0.322053	-0.064811	0.000081
H187	H	0.494142	-0.073782	0.000076
C188	C	0.217929	-0.073422	0.000097
N189	N	0.243861	-0.109727	0.000106
H190	H	0.694276	-0.485083	0.000080
H191	H	0.445243	-0.542300	0.000033
H192	H	0.510453	0.121948	0.771252
H193	H	0.510429	0.121981	0.228916
H194	H	0.434821	-0.014469	0.000061
C195	C	0.467895	0.164537	0.523585
N196	N	0.440491	0.192002	0.501964
C197	C	0.180213	0.199870	0.000068
N198	N	0.196051	0.236609	0.000072
C199	C	0.673181	-0.040692	0.633218
N200	N	0.700613	-0.068113	0.654857
H201	H	0.083300	0.186271	0.000068
C202	C	0.666758	-0.090392	0.000106
N203	N	0.703495	-0.074552	0.000113
H204	H	0.477313	0.155047	0.469107
H205	H	0.695813	-0.333847	0.000092
H206	H	0.663720	-0.031230	0.531020
