data_functionalizedCrystal
_audit_creation_method	'MofGen! by Chris Wilmer'
_symmetry_space_group_name_H-M	'P1'
_symmetry_Int_Tables_number	1
_symmetry_cell_setting	triclinic
loop_
_symmetry_equiv_pos_as_xyz
  x,y,z
_cell_length_a	14.560438
_cell_length_b	18.426585
_cell_length_c	14.560438
_cell_angle_alpha	89.999331
_cell_angle_beta	59.999258
_cell_angle_gamma	59.998545
loop_
_atom_site_label
_atom_site_type_symbol
_atom_site_fract_x
_atom_site_fract_y
_atom_site_fract_z
Zr1	Zr	1.005365	0.699062	-0.120567
O2	O	1.196971	0.583176	-0.267216
O3	O	0.813756	0.734594	-0.075609
O4	O	1.005369	0.734584	-0.267217
O5	O	1.005355	0.583186	0.075533
O6	O	1.005376	0.854010	-0.267221
O7	O	1.005358	0.583186	-0.075608
O8	O	0.662614	0.854027	0.075531
O9	O	1.348117	0.583169	-0.267219
O10	O	0.892573	0.838866	-0.056441
O11	O	0.892566	0.749740	0.056357
O12	O	1.118167	0.749729	-0.169237
O13	O	1.118160	0.660603	-0.056439
Zr14	Zr	1.005371	0.889533	0.120479
Zr15	Zr	1.005375	0.889533	-0.120573
Zr16	Zr	1.005360	0.699062	0.120485
Zr17	Zr	1.246424	0.699051	-0.120572
Zr18	Zr	0.764311	0.889545	0.120483
O19	O	1.196980	0.854001	0.075521
O20	O	1.196986	0.854001	-0.267224
O21	O	1.196965	0.583177	0.075530
O22	O	0.813764	1.005419	0.267127
O23	O	0.813770	1.005418	-0.075618
O24	O	0.813749	0.734594	0.267136
O25	O	1.005380	1.005409	-0.075621
O26	O	1.005366	0.854011	0.267129
O27	O	1.005360	0.734585	0.267133
O28	O	1.005378	1.005409	0.075519
O29	O	1.348125	0.734568	-0.267223
O30	O	0.662610	0.854027	0.267135
O31	O	0.662618	1.005426	0.267130
O32	O	0.662622	1.005426	0.075526
O33	O	1.348114	0.583169	-0.075614
O34	O	1.348122	0.734568	-0.075619
O35	O	0.892569	0.838866	0.169149
O36	O	0.892576	0.927992	0.056351
O37	O	1.118169	0.838855	-0.056445
O38	O	1.118163	0.749729	0.056353
C39	C	0.703839	0.794312	-0.000039
C40	C	0.601503	0.794317	-0.000037
C41	C	1.005355	0.556048	-0.000036
C42	C	1.005351	0.475188	-0.000034
C43	C	0.374013	0.860086	0.083218
C44	C	0.470148	0.860107	0.083224
C45	C	0.636722	0.728506	-0.083315
C46	C	0.540588	0.728489	-0.083324
C47	C	1.005390	0.179074	-0.000054
C48	C	1.005384	0.261460	-0.000051
C49	C	1.005370	0.327128	-0.000045
C50	C	1.005364	0.409520	-0.000040
C51	C	1.306897	0.794283	-0.000050
C52	C	1.409233	0.794278	-0.000052
C53	C	1.005373	0.794297	-0.301564
C54	C	1.005375	0.794297	-0.403897
C55	C	1.005380	1.032547	-0.000052
C56	C	1.005385	1.113407	-0.000054
C57	C	1.005379	0.860090	-0.451975
C58	C	1.005368	0.860092	-0.548121
C59	C	1.005352	0.728502	-0.548105
C60	C	1.005354	0.728504	-0.451956
C61	C	1.005362	0.794298	0.301475
C62	C	1.005361	0.794298	0.403808
C63	C	0.703852	1.032562	-0.000046
C64	C	0.601520	1.113426	-0.000047
C65	C	0.703833	0.794312	0.301481
C66	C	0.601495	0.794317	0.403816
C67	C	0.703846	1.032562	0.301473
C68	C	0.601513	1.113427	0.403806
C69	C	1.306889	0.556033	-0.301562
C70	C	1.409223	0.475168	-0.403894
C71	C	1.306884	0.556034	-0.000042
C72	C	1.409216	0.475169	-0.000041
C73	C	1.306902	0.794283	-0.301569
C74	C	1.409240	0.794278	-0.403904
C75	C	0.553462	1.104878	-0.058934
C76	C	0.457324	1.180852	-0.058957
C77	C	0.409238	1.265373	-0.000086
C78	C	0.457305	1.273919	0.058802
C79	C	0.553449	1.197946	0.058818
C80	C	0.553459	1.197933	0.392983
C81	C	0.457319	1.273921	0.489126
C82	C	0.409228	1.265401	0.596090
C83	C	0.457291	1.180887	0.606911
C84	C	0.553436	1.104900	0.510769
C85	C	1.457288	0.390663	-0.393071
C86	C	1.553458	0.314674	-0.489214
C87	C	1.601554	0.323194	-0.596179
C88	C	1.553485	0.407708	-0.606999
C89	C	1.457323	0.483695	-0.510857
C90	C	1.457283	0.483717	0.058835
C91	C	1.553448	0.407743	0.058832
C92	C	1.601537	0.323222	-0.000042
C93	C	1.553465	0.314676	-0.058926
C94	C	1.457309	0.390649	-0.058929
C95	C	0.553416	0.840842	0.510769
C96	C	0.457268	0.840837	0.606920
C97	C	0.457283	0.747781	0.489150
C98	C	0.553436	0.747782	0.393002
H99	H	0.267061	0.913657	0.151024
O100	O	1.005170	0.664705	-0.594814
C101	C	0.893271	0.704975	-0.594464
H102	H	0.855974	0.776839	-0.590221
H103	H	0.918433	0.667185	-0.674658
H104	H	0.814922	0.703462	-0.518234
O105	O	1.005409	0.664501	-0.405419
C106	C	1.005369	0.606438	-0.468441
H107	H	1.046271	0.609559	-0.557435
H108	H	1.068081	0.535641	-0.472010
H109	H	0.901726	0.627161	-0.426843
O110	O	0.600315	1.206208	0.115862
C111	C	0.735056	1.165024	0.040310
H112	H	0.761415	1.161504	-0.048410
H113	H	0.762677	1.205322	0.065850
H114	H	0.790031	1.094948	0.042397
H115	H	0.418199	1.173876	-0.106910
H116	H	0.418139	0.709895	0.480359
H117	H	1.418133	0.383709	-0.305984
H118	H	0.418196	1.342730	0.480295
O119	O	0.600016	0.886047	0.521471
C120	C	0.536940	0.927123	0.636493
H121	H	0.497312	0.890633	0.687765
H122	H	0.609071	0.924609	0.649896
H123	H	0.453433	0.999340	0.664828
H124	H	1.679854	0.261313	-0.674454
H125	H	0.418128	0.878720	0.694003
H126	H	1.679834	0.261368	-0.000031
H127	H	0.592585	0.709891	0.305909
O128	O	0.600060	1.022847	-0.116225
C129	C	0.536992	1.031612	-0.168177
H130	H	0.497379	1.099412	-0.179835
H131	H	0.609125	0.977119	-0.253707
H132	H	0.453476	1.025392	-0.113003
H133	H	0.592601	1.204886	0.305895
O134	O	1.599949	0.232651	-0.478488
C135	C	1.536880	0.241435	-0.363460
H136	H	1.439425	0.309241	-0.312206
H137	H	1.520295	0.186953	-0.350048
H138	H	1.599918	0.235215	-0.335110
H139	H	1.418175	0.383676	-0.106870
H140	H	0.569277	0.674899	-0.151139
H141	H	0.592548	1.036095	0.519597
H142	H	0.441459	0.913695	0.151030
H143	H	1.005369	0.913667	-0.587262
H144	H	0.330951	1.327227	-0.000107
H145	H	0.418140	1.342746	0.106732
O146	O	1.410548	0.565849	-0.521179
C147	C	1.315343	0.631101	-0.413395
H148	H	1.331093	0.601507	-0.349638
H149	H	1.323180	0.689676	-0.414474
H150	H	1.214772	0.654884	-0.388915
H151	H	0.418121	1.173963	0.694014
O152	O	0.764361	0.664711	-0.164222
C153	C	0.824947	0.704980	-0.225162
H154	H	0.767037	0.776849	-0.171518
H155	H	0.927798	0.667201	-0.247810
H156	H	0.829000	0.703451	-0.305433
H157	H	1.592658	0.414635	-0.694101
O158	O	1.005330	0.924091	-0.405397
C159	C	1.005362	0.982148	-0.468469
H160	H	0.964460	0.979017	-0.516555
H161	H	0.942645	1.052948	-0.409333
H162	H	1.109003	0.961429	-0.530519
O163	O	1.600072	0.232636	-0.116200
C164	C	1.537006	0.241368	-0.168145
H165	H	1.497392	0.309156	-0.179833
H166	H	1.609142	0.186857	-0.253659
H167	H	1.453491	0.235152	-0.112949
H168	H	0.330941	1.327282	0.674366
H169	H	1.418137	0.552531	0.106785
H170	H	1.592572	0.414719	0.106786
