data_functionalizedCrystal
_audit_creation_method	'MofGen! by Chris Wilmer'
_symmetry_space_group_name_H-M	'P1'
_symmetry_Int_Tables_number	1
_symmetry_cell_setting	triclinic
loop_
_symmetry_equiv_pos_as_xyz
  x,y,z
_cell_length_a	16.120530
_cell_length_b	12.594516
_cell_length_c	16.120297
_cell_angle_alpha	92.877768
_cell_angle_beta	90.128140
_cell_angle_gamma	87.111852
loop_
_atom_site_label
_atom_site_type_symbol
_atom_site_fract_x
_atom_site_fract_y
_atom_site_fract_z
Zn1	Zn	1.247493	-0.539249	-0.534603
Zn2	Zn	1.747493	-0.039249	-0.034603
Zn3	Zn	1.254461	-0.708692	-0.395557
Zn4	Zn	1.754461	-0.208692	0.104443
Zn5	Zn	1.115482	-0.521263	-0.388519
Zn6	Zn	1.615482	-0.021263	0.111481
Zn7	Zn	1.108417	-0.707712	-0.527526
Zn8	Zn	1.608417	-0.207712	-0.027526
O9	O	1.181463	-0.619229	-0.461551
O10	O	1.681463	-0.119229	0.038449
O11	O	1.364785	-0.569664	-0.522065
O12	O	1.864785	-0.069664	-0.022065
O13	O	1.241897	-0.676712	-0.278258
O14	O	1.741897	-0.176712	0.221742
O15	O	1.133034	-0.374707	-0.407914
O16	O	1.633034	0.125293	0.092086
O17	O	1.369904	-0.694153	-0.419909
O18	O	1.869904	-0.194153	0.080091
O19	O	1.230022	-0.387921	-0.515241
O20	O	1.730022	0.112079	-0.015241
O21	O	1.139790	-0.539009	-0.273087
O22	O	1.639790	-0.039009	0.226913
O23	O	0.998178	-0.538058	-0.401052
O24	O	1.498178	-0.038058	0.098948
O25	O	1.120993	-0.692482	-0.644831
O26	O	1.620993	-0.192482	-0.144831
O27	O	0.992987	-0.675042	-0.503180
O28	O	1.492987	-0.175042	-0.003180
O29	O	1.223172	-0.568713	-0.650030
O30	O	1.723172	-0.068713	-0.150030
O31	O	1.235047	-0.857504	-0.413047
O32	O	1.735047	-0.357504	0.086953
O33	O	1.127749	-0.856784	-0.510004
O34	O	1.627749	-0.356784	-0.010004
C35	C	0.965410	-0.604493	-0.450585
C36	C	1.465410	-0.104493	0.049415
C37	C	0.872980	-0.598215	-0.445913
C38	C	1.372980	-0.098215	0.054087
C39	C	0.703749	-0.586730	-0.437391
C40	C	1.203749	-0.086730	0.062609
C41	C	0.660015	-0.651810	-0.485772
C42	C	1.160015	-0.151810	0.014228
C43	C	0.565849	-0.645420	-0.481031
C44	C	1.065849	-0.145420	0.018969
C45	C	0.797924	-0.593119	-0.442132
C46	C	1.297924	-0.093119	0.057868
C47	C	1.181409	-0.895766	-0.461540
C48	C	1.681409	-0.395766	0.038460
C49	C	1.181461	-1.014076	-0.461567
C50	C	1.681461	-0.514076	0.038433
C51	C	1.123098	-1.082974	-0.514263
C52	C	1.623098	-0.582974	-0.014263
C53	C	1.106686	-1.147787	-0.437359
C54	C	1.606686	-0.647787	0.062641
C55	C	1.197948	-1.160068	-0.538488
C56	C	1.697948	-0.660068	-0.038488
C57	C	1.165010	-1.077326	-0.384621
C58	C	1.665010	-0.577326	0.115379
C59	C	1.256305	-1.089606	-0.485803
C60	C	1.756305	-0.589606	0.014197
C61	C	1.239924	-1.154387	-0.408848
C62	C	1.739924	-0.654387	0.091152
C63	C	1.398360	-0.634024	-0.472561
C64	C	1.898360	-0.134024	0.027439
C65	C	1.490789	-0.640328	-0.477253
C66	C	1.990789	-0.140328	0.022747
C67	C	1.170517	-0.632495	-0.678446
C68	C	1.670517	-0.132495	-0.178446
C69	C	1.165853	-0.638148	-0.770874
C70	C	1.665853	-0.138148	-0.270874
C71	C	1.181539	-0.341615	-0.461582
C72	C	1.681539	0.158385	0.038418
C73	C	1.181572	-0.223313	-0.461595
C74	C	1.681572	0.276687	0.038405
C75	C	1.157306	-0.648443	-0.940100
C76	C	1.657306	-0.148443	-0.440100
C77	C	1.205784	-0.589708	-0.983863
C78	C	1.705784	-0.089708	-0.483863
C79	C	1.201029	-0.595436	-1.078026
C80	C	1.701029	-0.095436	-0.578026
C81	C	1.162061	-0.642716	-0.845928
C82	C	1.662061	-0.142716	-0.345928
C83	C	1.192414	-0.605942	-0.245502
C84	C	1.692414	-0.105942	0.254498
C85	C	1.197240	-0.600000	-0.153083
C86	C	1.697240	-0.100000	0.346917
H87	H	0.693293	-0.712326	-0.530755
H88	H	1.193293	-0.212326	-0.030755
H89	H	0.670473	-0.526218	-0.392412
H90	H	1.170473	-0.026218	0.107588
O91	O	1.214685	-1.203144	-0.616062
O92	O	1.714685	-0.703144	-0.116062
C93	C	1.311759	-1.220961	-0.729961
C94	C	1.811759	-0.720961	-0.229961
C95	C	1.292927	-1.172138	-0.642101
C96	C	1.792927	-0.672138	-0.142101
H97	H	1.375010	-1.195893	-0.751047
H98	H	1.875010	-0.695893	-0.251047
H99	H	1.312312	-1.311454	-0.729138
H100	H	1.812312	-0.811454	-0.229138
H101	H	1.261858	-1.191620	-0.774769
H102	H	1.761858	-0.691620	-0.274769
H103	H	1.342807	-1.201396	-0.597243
H104	H	1.842807	-0.701396	-0.097243
H105	H	1.292344	-1.081650	-0.642990
H106	H	1.792344	-0.581650	-0.142990
O107	O	1.259474	-0.524426	-0.944242
O108	O	1.759474	-0.024426	-0.444242
C109	C	1.301256	-0.344543	-0.919583
C110	C	1.801256	0.155457	-0.419583
C111	C	1.240388	-0.418346	-0.964486
C112	C	1.740388	0.081654	-0.464486
H113	H	1.285859	-0.258765	-0.935948
H114	H	1.785859	0.241235	-0.435948
H115	H	1.295566	-0.351364	-0.849595
H116	H	1.795566	0.148636	-0.349595
H117	H	1.367453	-0.368884	-0.940011
H118	H	1.867453	0.131116	-0.440011
H119	H	1.174165	-0.394054	-0.944127
H120	H	1.674165	0.105946	-0.444127
H121	H	1.246151	-0.411516	-1.034467
H122	H	1.746151	0.088484	-0.534467
H123	H	1.112236	-0.703026	-0.973349
H124	H	1.612236	-0.203026	-0.473349
O125	O	1.064064	-1.045735	-0.567347
O126	O	1.564064	-0.545735	-0.067347
C127	C	0.955461	-1.089500	-0.664228
C128	C	1.455461	-0.589500	-0.164228
C129	C	1.022273	-1.131815	-0.604130
C130	C	1.522273	-0.631815	-0.104130
H131	H	0.921667	-1.159075	-0.693997
H132	H	1.421667	-0.659075	-0.193997
H133	H	0.909058	-1.033252	-0.628557
H134	H	1.409058	-0.533252	-0.128557
H135	H	0.986243	-1.044839	-0.714669
H136	H	1.486243	-0.544839	-0.214669
H137	H	0.991564	-1.176524	-0.553676
H138	H	1.491564	-0.676524	-0.053676
H139	H	1.068669	-1.188008	-0.639859
H140	H	1.568669	-0.688008	-0.139859
O141	O	1.031297	-1.178714	-0.412892
O142	O	1.531297	-0.678714	0.087108
C143	C	0.947124	-1.325587	-0.384874
C144	C	1.447124	-0.825587	0.115126
C145	C	1.032548	-1.290714	-0.412567
C146	C	1.532548	-0.790714	0.087433
H147	H	0.948102	-1.416142	-0.384619
H148	H	1.448102	-0.916142	0.115381
H149	H	0.932612	-1.290237	-0.319721
H150	H	1.432612	-0.790237	0.180279
H151	H	0.897394	-1.296191	-0.429840
H152	H	1.397394	-0.796191	0.070160
H153	H	1.082334	-1.320100	-0.367660
H154	H	1.582334	-0.820100	0.132340
H155	H	1.046989	-1.326052	-0.477738
H156	H	1.546989	-0.826052	0.022262
O157	O	1.148195	-1.034306	-0.307047
O158	O	1.648195	-0.534306	0.192953
C159	C	1.056530	-0.918762	-0.221200
C160	C	1.556530	-0.418762	0.278800
C161	C	1.075470	-0.967429	-0.309086
C162	C	1.575470	-0.467429	0.190914
H163	H	0.997742	-0.864665	-0.222823
H164	H	1.497742	-0.364665	0.277177
H165	H	1.047087	-0.985172	-0.177160
H166	H	1.547087	-0.485172	0.322840
H167	H	1.110785	-0.870364	-0.198563
H168	H	1.610785	-0.370364	0.301437
H169	H	1.021241	-1.015817	-0.331800
H170	H	1.521241	-0.515817	0.168200
H171	H	1.084945	-0.900970	-0.353072
H172	H	1.584945	-0.400970	0.146928
O173	O	1.298777	-1.191493	-0.355521
O174	O	1.798777	-0.691493	0.144479
C175	C	1.347950	-1.190978	-0.214237
C176	C	1.847950	-0.690978	0.285763
C177	C	1.281240	-1.148893	-0.274538
C178	C	1.781240	-0.648893	0.225462
H179	H	1.333805	-1.156537	-0.148753
H180	H	1.833805	-0.656537	0.351247
H181	H	1.347936	-1.281538	-0.214969
H182	H	1.847936	-0.781538	0.285031
H183	H	1.411537	-1.165958	-0.234368
H184	H	1.911537	-0.665958	0.265632
H185	H	1.217621	-1.173836	-0.254450
H186	H	1.717621	-0.673836	0.245550
H187	H	1.281328	-1.058339	-0.273799
H188	H	1.781328	-0.558339	0.226201
H189	H	1.319532	-1.063819	-0.506317
H190	H	1.819532	-0.563819	-0.006317
