data_functionalizedCrystal
_audit_creation_method	'MofGen! by Chris Wilmer'
_symmetry_space_group_name_H-M	'P1'
_symmetry_Int_Tables_number	1
_symmetry_cell_setting	triclinic
loop_
_symmetry_equiv_pos_as_xyz
  x,y,z
_cell_length_a	17.699104
_cell_length_b	19.188924
_cell_length_c	16.776229
_cell_angle_alpha	89.991401
_cell_angle_beta	89.991556
_cell_angle_gamma	83.216741
loop_
_atom_site_label
_atom_site_type_symbol
_atom_site_fract_x
_atom_site_fract_y
_atom_site_fract_z
O1	O	1.003950	0.088364	-0.066308
O2	O	0.783559	0.099836	-0.066306
O3	O	0.900117	-0.007549	-0.066298
O4	O	0.887392	0.195748	-0.066317
O5	O	0.900101	-0.007555	0.066279
O6	O	0.783542	0.099830	0.066270
O7	O	1.003934	0.088357	0.066269
Zn8	Zn	0.893736	0.094093	0.087319
Zn9	Zn	0.893757	0.094101	-0.087357
O10	O	0.887375	0.195742	0.066260
C11	C	0.755354	0.099419	-0.000018
C12	C	0.671339	0.098178	-0.000017
C13	C	0.899698	-0.033563	-0.000009
C14	C	0.898463	-0.111070	-0.000007
C15	C	0.146393	0.154214	-0.000031
C16	C	0.225335	0.155376	-0.000033
C17	C	0.274037	0.092337	-0.000027
C18	C	0.243793	0.028133	-0.000027
C19	C	0.164853	0.026972	-0.000030
C20	C	0.562153	0.032812	-0.000014
C21	C	0.641099	0.033978	-0.000009
C22	C	0.622635	0.161216	-0.000017
C23	C	0.543694	0.160056	-0.000021
C24	C	0.513458	0.095852	-0.000025
C25	C	0.427860	0.094593	-0.000023
C26	C	0.359634	0.093595	-0.000022
C27	C	0.897896	-0.147466	-0.072274
C28	C	0.896726	-0.220290	-0.072280
C29	C	0.896137	-0.256717	-0.000015
C30	C	0.896700	-0.220311	0.072262
C31	C	0.897863	-0.147488	0.072266
N32	N	0.937375	-0.376334	0.053771
N33	N	0.936272	-0.445513	0.053762
C34	C	0.892632	-0.476130	-0.000022
N35	N	0.850146	-0.434955	-0.053810
N36	N	0.851253	-0.365770	-0.053803
C37	C	0.894876	-0.335682	-0.000011
C38	C	0.890794	-0.591490	-0.072302
C39	C	0.889619	-0.664315	-0.072305
C40	C	0.889601	-0.664336	0.072240
C41	C	0.890769	-0.591512	0.072241
C42	C	0.891369	-0.555094	-0.000032
C43	C	1.032138	0.088774	-0.000022
C44	C	1.116154	0.090015	-0.000028
C45	C	0.887795	0.221757	-0.000031
C46	C	0.889029	0.299263	-0.000038
N47	N	0.893726	0.094086	0.206530
C48	C	0.945354	0.046556	0.248251
C49	C	0.945357	0.046556	0.331703
C50	C	0.893737	0.094090	0.373433
C51	C	0.842104	0.141622	0.331706
C52	C	0.842097	0.141619	0.248255
C53	C	0.842129	0.141637	0.668253
C54	C	0.842141	0.141638	0.751710
C55	C	0.945389	0.046574	0.751701
C56	C	0.945382	0.046570	0.668250
C57	C	0.893747	0.094100	0.626531
C58	C	0.893743	0.094099	0.536042
C59	C	0.893744	0.094095	0.463920
N60	N	0.893765	0.094104	0.793432
H61	H	0.106744	0.205548	-0.000029
H62	H	0.140234	-0.025306	-0.000029
N63	N	0.491186	0.228059	-0.000020
H64	H	0.458026	0.230430	-0.049165
H65	H	0.458067	0.230377	0.049160
H66	H	0.987431	0.007870	0.785678
H67	H	0.537544	-0.019466	-0.000015
H68	H	0.987392	0.007852	0.214280
H69	H	0.647263	0.213495	-0.000018
N70	N	0.786408	0.192883	0.203258
H71	H	0.794955	0.242430	0.217764
H72	H	0.794261	0.185606	0.144075
H73	H	0.987396	0.007853	0.365672
N74	N	0.786441	0.192909	0.623273
H75	H	0.815251	0.223793	0.588635
H76	H	0.753026	0.166219	0.588712
N77	N	0.693634	-0.034015	-0.000012
H78	H	0.726787	-0.036373	0.049137
H79	H	0.662451	-0.074827	-0.000048
H80	H	0.283453	-0.023195	-0.000027
H81	H	0.800102	0.180347	0.785685
H82	H	0.889116	-0.693994	0.131081
N83	N	0.898556	-0.108198	-0.150229
H84	H	0.945954	-0.083731	-0.153440
H85	H	0.897997	-0.142360	-0.195957
N86	N	0.896108	-0.259557	-0.150229
H87	H	0.896662	-0.225436	-0.196012
H88	H	0.942535	-0.295510	-0.153374
N89	N	0.896071	-0.259596	0.150207
H90	H	0.895253	-0.311253	0.139240
H91	H	0.943180	-0.252605	0.181762
H92	H	0.891237	-0.561879	0.131090
H93	H	0.898322	-0.117854	0.131117
N94	N	0.891438	-0.552204	-0.150248
H95	H	0.890895	-0.586314	-0.196032
H96	H	0.845015	-0.516248	-0.153394
H97	H	0.889153	-0.693947	-0.131156
H98	H	0.987419	0.007866	0.634276
H99	H	0.249951	0.207653	-0.000043
N100	N	0.786420	0.192887	0.376710
H101	H	0.794258	0.185679	0.435907
H102	H	0.794991	0.242409	0.362108
