data_functionalizedCrystal
_audit_creation_method	'MofGen! by Chris Wilmer'
_symmetry_space_group_name_H-M	'P1'
_symmetry_Int_Tables_number	1
_symmetry_cell_setting	triclinic
loop_
_symmetry_equiv_pos_as_xyz
  x,y,z
_cell_length_a	13.897448
_cell_length_b	13.897449
_cell_length_c	13.897441
_cell_angle_alpha	89.979267
_cell_angle_beta	90.030599
_cell_angle_gamma	89.981028
loop_
_atom_site_label
_atom_site_type_symbol
_atom_site_fract_x
_atom_site_fract_y
_atom_site_fract_z
Zn1	Zn	-0.383951	-1.474703	0.545381
Zn2	Zn	-0.050618	-1.141369	0.878715
Zn3	Zn	0.282715	-0.808036	1.212048
Zn4	Zn	-0.545273	-1.474597	0.384083
Zn5	Zn	-0.211940	-1.141263	0.717416
Zn6	Zn	0.121394	-0.807930	1.050749
Zn7	Zn	-0.383997	-1.313392	0.384100
Zn8	Zn	-0.050664	-0.980058	0.717433
Zn9	Zn	0.282670	-0.646725	1.050766
Zn10	Zn	-0.545210	-1.313373	0.545335
Zn11	Zn	-0.211876	-0.980040	0.878669
Zn12	Zn	0.121457	-0.646707	1.212002
O13	O	-0.464608	-1.394016	0.464725
O14	O	-0.131274	-1.060683	0.798058
O15	O	0.202059	-0.727349	1.131391
O16	O	-0.405358	-1.609670	0.523997
O17	O	-0.072025	-1.276337	0.857330
O18	O	0.261308	-0.943003	1.190663
O19	O	-0.523925	-1.453176	0.249103
O20	O	-0.190592	-1.119842	0.582436
O21	O	0.142742	-0.786509	0.915770
O22	O	-0.249009	-1.334842	0.405520
O23	O	0.084324	-1.001509	0.738854
O24	O	0.417657	-0.668175	1.072187
O25	O	-0.523881	-1.609592	0.405491
O26	O	-0.190547	-1.276259	0.738825
O27	O	0.142786	-0.942926	1.072158
O28	O	-0.248976	-1.453356	0.524013
O29	O	0.084358	-1.120023	0.857347
O30	O	0.417691	-0.786690	1.190680
O31	O	-0.405436	-1.334739	0.249116
O32	O	-0.072103	-1.001406	0.582449
O33	O	0.261230	-0.668073	0.915782
O34	O	-0.405375	-1.178408	0.405476
O35	O	-0.072042	-0.845074	0.738809
O36	O	0.261292	-0.511741	1.072142
O37	O	-0.523773	-1.334811	0.680323
O38	O	-0.190439	-1.001477	1.013656
O39	O	0.142894	-0.668144	1.346990
O40	O	-0.523817	-1.178394	0.523935
O41	O	-0.190484	-0.845061	0.857268
O42	O	0.142850	-0.511728	1.190601
O43	O	-0.405297	-1.453339	0.680357
O44	O	-0.071963	-1.120005	1.013690
O45	O	0.261370	-0.786672	1.347023
O46	O	-0.680246	-1.453158	0.405447
O47	O	-0.346913	-1.119825	0.738780
O48	O	-0.013579	-0.786491	1.072113
O49	O	-0.680200	-1.334708	0.523918
O50	O	-0.346866	-1.001375	0.857252
O51	O	-0.013533	-0.668041	1.190585
C52	C	-0.715222	-1.393946	0.464697
C53	C	-0.381889	-1.060612	0.798030
C54	C	-0.048555	-0.727279	1.131363
C55	C	-0.822436	-1.394004	0.464717
C56	C	-0.489103	-1.060671	0.798050
C57	C	-0.155769	-0.727337	1.131384
C58	C	-0.464595	-1.143402	0.464703
C59	C	-0.131261	-0.810068	0.798036
C60	C	0.202072	-0.476735	1.131369
C61	C	-0.464613	-1.036188	0.464716
C62	C	-0.131279	-0.702855	0.798049
C63	C	0.202054	-0.369521	1.131383
C64	C	-1.018731	-1.394105	0.464778
C65	C	-0.685398	-1.060772	0.798111
C66	C	-0.352064	-0.727438	1.131444
C67	C	-0.909499	-1.394046	0.464747
C68	C	-0.576165	-1.060713	0.798080
C69	C	-0.242832	-0.727379	1.131413
C70	C	-0.464522	-1.394085	0.716318
C71	C	-0.131189	-1.060751	1.049651
C72	C	0.202144	-0.727418	1.382984
C73	C	-0.464486	-1.394114	0.823532
C74	C	-0.131153	-1.060780	1.156865
C75	C	0.202181	-0.727447	1.490198
C76	C	-0.213015	-1.394113	0.464774
C77	C	0.120319	-1.060780	0.798107
C78	C	0.453652	-0.727446	1.131440
C79	C	-0.105801	-1.394154	0.464795
C80	C	0.227533	-1.060821	0.798128
C81	C	0.560866	-0.727488	1.131461
C82	C	-0.464621	-1.645609	0.464747
C83	C	-0.131288	-1.312276	0.798081
C84	C	0.202045	-0.978942	1.131414
C85	C	-0.464627	-1.752823	0.464757
C86	C	-0.131294	-1.419490	0.798090
C87	C	0.202040	-1.086156	1.131424
C88	C	-0.464616	-0.839893	0.464741
C89	C	-0.131283	-0.506559	0.798075
C90	C	0.202051	-0.173226	1.131408
C91	C	-0.464611	-0.949125	0.464725
C92	C	-0.131278	-0.615792	0.798058
C93	C	0.202056	-0.282459	1.131391
C94	C	-0.464623	-1.394003	0.214110
C95	C	-0.131290	-1.060670	0.547444
C96	C	0.202044	-0.727337	0.880777
C97	C	-0.464388	-1.394161	0.106897
C98	C	-0.131054	-1.060828	0.440230
C99	C	0.202279	-0.727494	0.773564
C100	C	-0.464421	-1.394140	1.019827
C101	C	-0.131088	-1.060807	1.353160
C102	C	0.202246	-0.727473	1.686494
C103	C	-0.464460	-1.394122	0.910594
C104	C	-0.131126	-1.060789	1.243928
C105	C	0.202207	-0.727456	1.577261
