data_functionalizedCrystal
_audit_creation_method	'MofGen! by Chris Wilmer'
_symmetry_space_group_name_H-M	'P1'
_symmetry_Int_Tables_number	1
_symmetry_cell_setting	triclinic
loop_
_symmetry_equiv_pos_as_xyz
  x,y,z
_cell_length_a	19.077105
_cell_length_b	19.121063
_cell_length_c	19.120915
_cell_angle_alpha	85.261346
_cell_angle_beta	89.774073
_cell_angle_gamma	90.263052
loop_
_atom_site_label
_atom_site_type_symbol
_atom_site_fract_x
_atom_site_fract_y
_atom_site_fract_z
Zn1	Zn	1.041977	-0.340790	0.453353
Zn2	Zn	1.041894	-0.453439	0.340701
Zn3	Zn	0.929935	-0.331098	0.331020
Zn4	Zn	0.919439	-0.453278	0.453199
O5	O	0.983311	-0.394651	0.394568
O6	O	1.140104	-0.359857	0.442526
O7	O	1.031400	-0.433222	0.241139
O8	O	0.949224	-0.234107	0.343261
O9	O	1.140043	-0.442620	0.359760
O10	O	1.031541	-0.241227	0.433138
O11	O	0.949144	-0.343338	0.234026
O12	O	0.830404	-0.343181	0.343111
O13	O	0.931336	-0.442345	0.551497
O14	O	0.822693	-0.432946	0.432875
O15	O	1.021364	-0.359700	0.551610
O16	O	1.021223	-0.551695	0.359611
O17	O	0.931256	-0.551576	0.442263
C18	C	0.801103	-0.386995	0.386926
C19	C	0.723151	-0.383737	0.383675
C20	C	0.682534	-0.429008	0.428814
C21	C	0.609290	-0.425938	0.425762
C22	C	0.576667	-0.377600	0.377566
C23	C	0.617290	-0.332325	0.332424
C24	C	0.690532	-0.335392	0.335480
C25	C	0.358046	-0.363405	0.363424
C26	C	0.284799	-0.360343	0.360370
C27	C	0.276804	-0.453955	0.453709
C28	C	0.350048	-0.457021	0.456758
C29	C	0.390665	-0.411743	0.411619
N30	N	0.501800	-0.374462	0.374443
N31	N	0.465530	-0.414878	0.414745
C32	C	0.975110	-0.577119	0.401987
C33	C	0.971664	-0.655183	0.405186
C34	C	1.016920	-0.691899	0.363696
C35	C	1.013684	-0.765249	0.366710
C36	C	0.965188	-0.801881	0.411211
C37	C	0.919930	-0.765160	0.452706
C38	C	0.923170	-0.691812	0.449695
C39	C	0.953062	-1.023343	0.422455
C40	C	0.949824	-1.096696	0.425461
C41	C	1.043579	-1.096780	0.339465
C42	C	1.046812	-1.023431	0.336455
C43	C	1.001557	-0.986716	0.377953
C44	C	0.961877	-0.876856	0.414291
C45	C	1.004871	-0.911743	0.374876
C46	C	1.166231	-0.402338	0.402240
C47	C	1.244181	-0.405613	0.405509
C48	C	0.975189	-0.402086	0.577748
C49	C	0.971727	-0.405254	0.655809
C50	C	0.991563	-0.211472	0.387137
C51	C	0.995079	-0.133413	0.383970
C52	C	0.991445	-0.387197	0.212100
C53	C	0.995051	-0.383836	0.134037
C54	C	0.949804	-0.425370	1.097303
C55	C	0.953054	-0.422383	1.023956
C56	C	1.001555	-0.377865	0.987346
C57	C	1.046804	-0.336326	1.024085
C58	C	1.043550	-0.339310	1.097430
C59	C	1.013722	-0.366699	0.765894
C60	C	1.016974	-0.363720	0.692544
C61	C	0.923223	-0.449776	0.692420
C62	C	0.919976	-0.452759	0.765766
C63	C	0.965222	-0.411218	0.802499
C64	C	1.004880	-0.374812	0.912374
C65	C	0.961894	-0.414267	0.877470
H66	H	0.709090	-0.468372	0.468059
C67	C	1.099381	-0.287874	0.984366
C68	C	1.086442	-0.218468	0.998736
C69	C	1.134858	-0.173815	0.962154
H70	H	1.145534	-0.300530	0.998747
H71	H	1.094836	-0.291999	0.935414
H72	H	1.090993	-0.214346	1.047677
H73	H	1.040298	-0.205790	0.984352
H74	H	1.130313	-0.177940	0.913202
H75	H	1.181008	-0.186478	0.976538
H76	H	1.126082	-0.126718	0.971894
C77	C	1.069532	-0.315344	0.652690
C78	C	1.033729	-0.266965	0.607070
C79	C	1.082123	-0.222407	0.570337
H80	H	1.096043	-0.290960	0.684983
H81	H	1.100132	-0.342323	0.626413
H82	H	1.003142	-0.239989	0.633345
H83	H	1.007221	-0.291330	0.574764
H84	H	1.112723	-0.249386	0.544060
H85	H	1.108631	-0.198027	0.602634
H86	H	1.057838	-0.189581	0.539375
H87	H	0.258239	-0.320973	0.321126
C88	C	0.402016	-0.314212	0.314334
C89	C	0.357766	-0.271239	0.271461
C90	C	0.398250	-0.225917	0.226224
H91	H	0.430777	-0.285877	0.341121
H92	H	0.430727	-0.340959	0.285931
H93	H	0.329068	-0.244495	0.299861
H94	H	0.329005	-0.299555	0.244659
H95	H	0.426961	-0.252663	0.197821
H96	H	0.427009	-0.197586	0.253017
H97	H	0.368232	-0.196758	0.197125
H98	H	0.590722	-0.292965	0.293184
H99	H	0.886385	-0.483595	0.662504
H100	H	1.056408	-0.662078	0.327455
H101	H	1.050569	-0.332877	0.795793
C102	C	1.092563	-0.294126	1.137345
C103	C	1.053014	-0.249143	1.175948
C104	C	1.098139	-0.207499	1.212717
H105	H	1.120653	-0.323360	1.168382
H106	H	1.121904	-0.267145	1.105058
H107	H	1.023685	-0.276122	1.208232
H108	H	1.024925	-0.219895	1.144927
H109	H	1.127480	-0.180518	1.180430
H110	H	1.126227	-0.236738	1.243751
H111	H	1.071312	-0.176969	1.238908
H112	H	0.880481	-0.489011	0.795570
C113	C	1.062853	-0.804983	0.321579
C114	C	1.106000	-0.757202	0.281945
C115	C	1.151299	-0.793779	0.240354
H116	H	1.091002	-0.835933	0.350844
H117	H	1.036158	-0.831250	0.290973
H118	H	1.132692	-0.730947	0.312547
H119	H	1.077870	-0.726251	0.252666
H120	H	1.124605	-0.820045	0.209749
H121	H	1.179444	-0.824727	0.269625
H122	H	1.180576	-0.761364	0.213453
H123	H	0.922401	-0.450510	0.907281
H124	H	1.086301	-0.993606	0.300219
H125	H	0.576222	-0.462802	0.462519
C126	C	1.092834	-1.136557	0.294460
C127	C	1.162317	-1.122165	0.311976
C128	C	1.207716	-1.158785	0.270526
H129	H	1.084061	-1.185500	0.302583
H130	H	1.085276	-1.122206	0.246333
H131	H	1.169872	-1.136520	0.360092
H132	H	1.171112	-1.073229	0.303850
H133	H	1.200158	-1.144434	0.222399
H134	H	1.198936	-1.207727	0.278653
H135	H	1.254865	-1.149020	0.282401
H136	H	0.376605	-0.496384	0.496003
C137	C	0.897148	-1.136346	0.473855
C138	C	0.858223	-1.088496	0.509569
C139	C	0.809702	-1.124996	0.554160
H140	H	0.866472	-1.162627	0.446939
H141	H	0.921320	-1.167277	0.506805
H142	H	0.834052	-1.057577	0.476624
H143	H	0.888880	-1.062214	0.536499
H144	H	0.833874	-1.155928	0.587110
H145	H	0.779030	-1.151276	0.527238
H146	H	0.783289	-1.092536	0.578402
H147	H	0.243726	-0.490816	0.490460
H148	H	0.922390	-0.906690	0.450522
H149	H	0.880446	-0.794992	0.488942
H150	H	0.886319	-0.661918	0.483482
C151	C	0.897072	-0.473724	1.136919
C152	C	0.858130	-0.509443	1.089045
C153	C	0.809538	-0.553985	1.125511
H154	H	0.921167	-0.506676	1.167897
H155	H	0.866420	-0.446750	1.163146
H156	H	0.888777	-0.536415	1.062830
H157	H	0.834020	-0.476508	1.058066
H158	H	0.778886	-0.527011	1.151737
H159	H	0.833639	-0.586933	1.156487
H160	H	0.783105	-0.578221	1.093034
H161	H	0.723602	-0.298525	0.298726
H162	H	1.044372	-0.338567	0.882557
C163	C	0.903894	-0.983387	0.467381
C164	C	0.862614	-0.937819	0.423968
C165	C	0.817317	-0.900988	0.465329
H166	H	0.874480	-1.015624	0.494323
H167	H	0.930586	-0.957065	0.497939
H168	H	0.835924	-0.964140	0.393422
H169	H	0.892009	-0.905568	0.397026
H170	H	0.844009	-0.874666	0.495887
H171	H	0.787908	-0.933231	0.492269
H172	H	0.789308	-0.870061	0.435880
C173	C	0.904039	-0.467522	0.983997
C174	C	0.943578	-0.512483	0.945359
C175	C	0.898445	-0.554070	0.908537
H176	H	0.874678	-0.494524	1.016233
H177	H	0.875970	-0.438228	0.952980
H178	H	0.971635	-0.541774	0.976373
H179	H	0.972938	-0.485500	0.913111
H180	H	0.870376	-0.524776	0.877520
H181	H	0.869086	-0.581068	0.940779
H182	H	0.925265	-0.584576	0.882312
H183	H	1.044360	-0.881915	0.338646
