data_functionalizedCrystal
_audit_creation_method	'MofGen! by Chris Wilmer'
_symmetry_space_group_name_H-M	'P1'
_symmetry_Int_Tables_number	1
_symmetry_cell_setting	triclinic
loop_
_symmetry_equiv_pos_as_xyz
  x,y,z
_cell_length_a	16.109301
_cell_length_b	16.109301
_cell_length_c	14.586319
_cell_angle_alpha	90.001321
_cell_angle_beta	90.002176
_cell_angle_gamma	96.538519
loop_
_atom_site_label
_atom_site_type_symbol
_atom_site_fract_x
_atom_site_fract_y
_atom_site_fract_z
O1	O	-1.103127	0.106869	0.076173
O2	O	-0.603127	0.606869	0.576173
O3	O	-0.861065	0.120168	0.076186
O4	O	-0.361065	0.620168	0.576186
O5	O	-0.988746	-0.007512	0.076184
O6	O	-0.488746	0.492488	0.576184
O7	O	-0.975446	0.234550	0.076175
O8	O	-0.475446	0.734550	0.576175
O9	O	-0.988745	-0.007520	-0.076297
O10	O	-0.488745	0.492480	0.423703
O11	O	-0.861064	0.120160	-0.076295
O12	O	-0.361064	0.620160	0.423705
O13	O	-1.103126	0.106861	-0.076308
O14	O	-0.603126	0.606861	0.423692
Cu15	Cu	-0.982095	0.113510	-0.090224
Cu16	Cu	-0.482095	0.613510	0.409776
Cu17	Cu	-0.982096	0.113520	0.090102
Cu18	Cu	-0.482096	0.613520	0.590102
O19	O	-0.975445	0.234542	-0.076306
O20	O	-0.475445	0.734542	0.423694
C21	C	-0.830090	0.119626	-0.000052
C22	C	-0.330090	0.619626	0.499948
C23	C	-0.737794	0.118011	-0.000047
C24	C	-0.237794	0.618011	0.499953
C25	C	-0.988206	-0.038491	-0.000053
C26	C	-0.488206	0.461509	0.499947
C27	C	-0.986591	-0.130786	-0.000044
C28	C	-0.486591	0.369214	0.499956
N29	N	-0.982097	0.113520	0.216934
N30	N	-0.482097	0.613520	0.716934
C31	C	-1.134101	0.107404	-0.000067
C32	C	-0.634101	0.607404	0.499933
C33	C	-1.226397	0.109019	-0.000067
C34	C	-0.726397	0.609019	0.499933
C35	C	-0.515522	0.190018	-0.000060
C36	C	-0.015522	0.690018	0.499940
C37	C	-0.428801	0.188494	-0.000066
C38	C	0.071199	0.688494	0.499934
C39	C	-0.448676	0.037006	-0.000057
C40	C	0.051324	0.537006	0.499943
C41	C	-0.535394	0.038530	-0.000057
C42	C	-0.035394	0.538530	0.499943
C43	C	-0.568815	0.115039	-0.000054
C44	C	-0.068815	0.615039	0.499946
C45	C	-0.395376	0.111990	-0.000059
C46	C	0.104624	0.611990	0.499941
C47	C	-0.301350	0.110337	-0.000066
C48	C	0.198650	0.610337	0.499934
C49	C	-0.662847	0.116693	-0.000050
C50	C	-0.162847	0.616693	0.499950
C51	C	-0.975984	0.265521	-0.000066
C52	C	-0.475984	0.765521	0.499934
C53	C	-0.977600	0.357816	-0.000070
C54	C	-0.477600	0.857816	0.499930
C55	C	-0.905592	0.580088	-0.000053
C56	C	-0.405592	1.080088	0.499947
C57	C	-0.907116	0.666809	-0.000046
C58	C	-0.407116	1.166809	0.499954
C59	C	-1.058605	0.646934	-0.000058
C60	C	-0.558605	1.146934	0.499942
C61	C	-1.057080	0.560216	-0.000059
C62	C	-0.557080	1.060216	0.499941
C63	C	-0.980571	0.526795	-0.000060
C64	C	-0.480571	1.026795	0.499940
C65	C	-0.983620	0.700234	-0.000053
C66	C	-0.483620	1.200234	0.499947
C67	C	-0.985273	0.794260	-0.000046
C68	C	-0.485273	1.294260	0.499954
C69	C	-0.978917	0.432763	-0.000066
C70	C	-0.478917	0.932763	0.499934
N71	N	-0.982100	0.113503	-0.217056
N72	N	-0.482100	0.613503	0.282944
C73	C	-1.038743	0.057093	0.451939
C74	C	-0.538743	0.557093	0.951939
C75	C	-1.038746	0.057091	0.547921
C76	C	-0.538746	0.557091	1.047921
C77	C	-0.925451	0.169936	0.547932
C78	C	-0.425451	0.669936	1.047932
C79	C	-0.925453	0.169942	0.451953
C80	C	-0.425453	0.669942	0.951953
C81	C	-0.982099	0.113515	0.403959
C82	C	-0.482099	0.613515	0.903959
C83	C	-0.982099	0.113508	0.595919
C84	C	-0.482099	0.613508	1.095919
C85	C	-0.982101	0.113506	0.699987
C86	C	-0.482101	0.613506	1.199987
C87	C	-0.982098	0.113518	0.299885
C88	C	-0.482098	0.613518	0.799885
H89	H	-0.542730	0.252317	-0.000065
H90	H	-0.042730	0.752317	0.499935
F91	F	-1.099032	-0.002959	0.400864
F92	F	-0.599032	0.497041	0.900864
H93	H	-0.843293	0.552881	-0.000057
H94	H	-0.343293	1.052881	0.499943
F95	F	-1.099037	-0.002960	0.598981
F96	F	-0.599037	0.497040	1.098981
H97	H	-0.385413	0.249550	-0.000072
H98	H	0.114587	0.749550	0.499928
H99	H	-0.421454	-0.025285	-0.000064
H100	H	0.078546	0.474715	0.499936
H101	H	-0.846060	0.710197	-0.000038
H102	H	-0.346060	1.210197	0.499962
F103	F	-0.592117	-0.041277	-0.000057
F104	F	-0.092117	0.458723	0.499943
H105	H	-1.120896	0.674156	-0.000066
H106	H	-0.620896	1.174156	0.499934
H107	H	-1.118140	0.516822	-0.000061
H108	H	-0.618140	1.016822	0.499939
H109	H	-0.879331	0.215876	0.587018
H110	H	-0.379331	0.715876	1.087018
H111	H	-0.879326	0.215891	0.412884
H112	H	-0.379326	0.715891	0.912884
