data_functionalizedCrystal
_audit_creation_method	'MofGen! by Chris Wilmer'
_symmetry_space_group_name_H-M	'P1'
_symmetry_Int_Tables_number	1
_symmetry_cell_setting	triclinic
loop_
_symmetry_equiv_pos_as_xyz
  x,y,z
_cell_length_a	11.026607
_cell_length_b	11.792241
_cell_length_c	9.482900
_cell_angle_alpha	99.398500
_cell_angle_beta	78.636152
_cell_angle_gamma	96.389716
loop_
_atom_site_label
_atom_site_type_symbol
_atom_site_fract_x
_atom_site_fract_y
_atom_site_fract_z
O1	O	1.632118	0.461983	-0.120906
O2	O	1.278456	0.407791	-0.120907
O3	O	1.463868	0.271422	-0.120897
O4	O	1.446706	0.598353	-0.120917
O5	O	1.426207	0.299264	0.120894
O6	O	1.240795	0.435633	0.120883
O7	O	1.594458	0.489825	0.120884
Cu8	Cu	1.414188	0.465271	0.142961
Cu9	Cu	1.458726	0.432345	-0.142984
O10	O	1.409046	0.626195	0.120873
C11	C	1.214349	0.411715	-0.000012
C12	C	1.079439	0.381912	-0.000012
C13	C	1.006176	0.464202	-0.000018
C14	C	0.866739	0.433401	-0.000018
C15	C	1.443960	0.242838	-0.000002
C16	C	1.440733	0.116183	-0.000003
C17	C	1.434802	-0.115710	-0.000028
C18	C	1.438097	0.013331	-0.000014
C19	C	1.658565	0.485901	-0.000014
C20	C	1.793477	0.515703	-0.000024
C21	C	1.428955	0.654778	-0.000025
C22	C	1.432183	0.781432	-0.000033
N23	N	1.382871	0.488431	0.344079
N24	N	1.490052	0.409178	-0.344102
C25	C	1.449480	0.439169	0.416282
C26	C	1.423433	0.458448	0.583698
H27	H	1.525786	0.382714	0.354159
C28	C	1.281211	0.563708	0.427166
C29	C	1.275615	0.567896	0.576700
C30	C	1.181990	0.637243	0.653279
H31	H	1.203741	0.532195	0.402488
H32	H	1.298983	0.639437	0.402371
H33	H	1.257835	0.492183	0.601484
H34	H	1.353061	0.599420	0.601421
H35	H	1.199762	0.712972	0.628485
H36	H	1.104527	0.605723	0.628589
H37	H	1.178188	0.640103	0.754746
H38	H	1.038939	0.288655	-0.000043
H39	H	1.046680	0.557456	-0.000015
H40	H	0.833974	0.608964	-0.000020
C41	C	0.812526	0.309106	-0.000087
C42	C	0.685011	0.303261	-0.000124
C43	C	0.635032	0.188781	-0.000209
H44	H	0.825652	0.281923	0.084208
H45	H	0.851985	0.262598	-0.084438
H46	H	0.645564	0.349752	0.084218
H47	H	0.671851	0.330421	-0.084413
H48	H	0.674491	0.142273	-0.084560
H49	H	0.648166	0.161607	0.084088
H50	H	0.548511	0.184798	-0.000248
C51	C	1.591533	0.333690	0.572820
C52	C	1.597051	0.329408	0.423285
C53	C	1.690409	0.259759	0.346711
H54	H	1.573566	0.258015	0.597707
H55	H	1.669099	0.365041	0.597410
H56	H	1.519504	0.298054	0.398706
H57	H	1.615035	0.405065	0.398355
H58	H	1.767974	0.291110	0.371300
H59	H	1.672433	0.184089	0.371609
H60	H	1.694173	0.256853	0.245244
H61	H	1.347114	0.514896	0.645818
