data_functionalizedCrystal
_audit_creation_method	'MofGen! by Chris Wilmer'
_symmetry_space_group_name_H-M	'P1'
_symmetry_Int_Tables_number	1
_symmetry_cell_setting	triclinic
loop_
_symmetry_equiv_pos_as_xyz
  x,y,z
_cell_length_a	14.519709
_cell_length_b	10.540539
_cell_length_c	13.596369
_cell_angle_alpha	89.996161
_cell_angle_beta	90.000291
_cell_angle_gamma	84.102818
loop_
_atom_site_label
_atom_site_type_symbol
_atom_site_fract_x
_atom_site_fract_y
_atom_site_fract_z
O1	O	1.224765	0.166400	-0.081658
O2	O	1.724765	0.666400	0.418342
O3	O	0.956394	0.185995	-0.081688
O4	O	1.456394	0.685995	0.418312
O5	O	1.096702	-0.008572	-0.081671
O6	O	1.596702	0.491428	0.418329
O7	O	1.084457	0.360966	-0.081675
O8	O	1.584457	0.860966	0.418325
O9	O	1.096688	-0.008582	0.081912
O10	O	1.596688	0.491418	0.581912
O11	O	0.956380	0.185985	0.081895
O12	O	1.456380	0.685985	0.581895
O13	O	1.224751	0.166389	0.081924
O14	O	1.724751	0.666389	0.581924
Zn15	Zn	1.090563	0.176185	0.107882
Zn16	Zn	1.590563	0.676185	0.607882
Zn17	Zn	1.090582	0.176199	-0.107646
Zn18	Zn	1.590582	0.676199	0.392354
O19	O	1.084442	0.360956	0.081908
O20	O	1.584442	0.860956	0.581908
C21	C	0.922022	0.185077	0.000100
C22	C	1.422022	0.685077	0.500100
C23	C	0.819626	0.182340	0.000088
C24	C	1.319626	0.682340	0.500088
C25	C	1.095777	-0.055870	0.000118
C26	C	1.595777	0.444130	0.500118
C27	C	1.093029	-0.196790	0.000113
C28	C	1.593029	0.303210	0.500113
C29	C	0.444676	0.172265	0.000133
C30	C	0.944676	0.672265	0.500133
C31	C	0.548999	0.175063	0.000120
C32	C	1.048999	0.675063	0.500120
C33	C	0.632148	0.177303	0.000110
C34	C	1.132148	0.677303	0.500110
C35	C	0.736477	0.180101	0.000099
C36	C	1.236477	0.680101	0.500099
C37	C	0.987750	-0.379142	-0.000266
C38	C	1.487750	0.120858	0.499734
C39	C	0.990535	-0.232553	0.000102
C40	C	1.490535	0.267447	0.500102
C41	C	1.142346	-0.258957	0.093532
C42	C	1.642346	0.241043	0.593532
C43	C	1.138848	-0.405466	0.093610
C44	C	1.638848	0.094534	0.593610
C45	C	1.140949	-0.405994	-0.092414
C46	C	1.640949	0.094006	0.407586
C47	C	1.141893	-0.259022	-0.093649
C48	C	1.641893	0.240978	0.406351
C49	C	1.259123	0.167308	0.000135
C50	C	1.759123	0.667308	0.500135
C51	C	1.361519	0.170044	0.000140
C52	C	1.861519	0.670044	0.500140
C53	C	1.085368	0.408255	0.000116
C54	C	1.585368	0.908255	0.500116
C55	C	1.088115	0.549175	0.000115
C56	C	1.588115	1.049175	0.500115
N57	N	1.090557	0.176175	0.254974
N58	N	1.590557	0.676175	0.754974
N59	N	1.090595	0.176199	-0.254737
N60	N	1.590595	0.676199	0.245263
C61	C	1.090580	0.176200	0.656265
C62	C	1.590580	0.676200	1.156265
C63	C	1.090571	0.176198	0.544613
C64	C	1.590571	0.676198	1.044613
C65	C	1.090569	0.176189	0.455623
C66	C	1.590569	0.676189	0.955623
C67	C	1.090559	0.176184	0.343964
C68	C	1.590559	0.676184	0.843964
H69	H	0.951729	-0.189549	-0.066865
H70	H	1.451729	0.310451	0.433135
C71	C	0.906136	-0.312036	0.147428
C72	C	1.406136	0.187964	0.647428
C73	C	0.933296	-0.419354	0.089651
C74	C	1.433296	0.080646	0.589651
H75	H	0.872514	-0.336864	0.202935
H76	H	1.372514	0.163136	0.702935
H77	H	0.959462	-0.274722	0.168919
H78	H	1.459462	0.225278	0.668919
H79	H	0.867999	-0.251749	0.109616
H80	H	1.367999	0.248251	0.609616
H81	H	0.971439	-0.479638	0.127461
H82	H	1.471439	0.020362	0.627461
H83	H	0.879962	-0.456687	0.068161
H84	H	1.379962	0.043313	0.568161
C85	C	0.906501	-0.308672	-0.147395
C86	C	1.406501	0.191328	0.352605
C87	C	0.933097	-0.417188	-0.090704
C88	C	1.433097	0.082812	0.409296
H89	H	0.872767	-0.332170	-0.203234
H90	H	1.372767	0.167830	0.296766
H91	H	0.868628	-0.248741	-0.109034
H92	H	1.368628	0.251259	0.390966
H93	H	0.960076	-0.271524	-0.168378
H94	H	1.460076	0.228476	0.331622
H95	H	0.879522	-0.454331	-0.069715
H96	H	1.379522	0.045669	0.430285
H97	H	0.970972	-0.477140	-0.129073
H98	H	1.470972	0.022860	0.370927
H99	H	0.951446	-0.190402	0.067172
H100	H	1.451446	0.309598	0.567172
C101	C	1.263565	-0.155429	0.017038
C102	C	1.763565	0.344571	0.517038
C103	C	1.243955	-0.229814	0.098245
C104	C	1.743955	0.270186	0.598245
H105	H	1.326292	-0.137431	0.019952
H106	H	1.826292	0.362569	0.519952
H107	H	1.253625	-0.200629	-0.041809
H108	H	1.753625	0.299371	0.458191
H109	H	1.224084	-0.077769	0.017909
H110	H	1.724084	0.422231	0.517909
H111	H	1.283431	-0.307479	0.097370
H112	H	1.783431	0.192521	0.597370
H113	H	1.253903	-0.184615	0.157107
H114	H	1.753903	0.315385	0.657107
C115	C	1.239476	-0.603321	-0.096806
C116	C	1.739476	-0.103321	0.403194
C117	C	1.240886	-0.470771	-0.093266
C118	C	1.740886	0.029229	0.406734
H119	H	1.301171	-0.643313	-0.097334
H120	H	1.801171	-0.143313	0.402666
H121	H	1.207906	-0.630767	-0.040738
H122	H	1.707906	-0.130767	0.459262
H123	H	1.208405	-0.625778	-0.154760
H124	H	1.708405	-0.125778	0.345240
H125	H	1.271950	-0.448313	-0.035308
H126	H	1.771950	0.051687	0.464692
H127	H	1.272469	-0.443315	-0.149339
H128	H	1.772469	0.056685	0.350661
H129	H	1.212560	-0.454188	0.097856
H130	H	1.712560	0.045812	0.597856
H131	H	1.108076	-0.216013	0.163044
H132	H	1.608076	0.283987	0.663044
H133	H	1.102389	-0.433298	0.163435
H134	H	1.602389	0.066702	0.663435
H135	H	1.107782	-0.437204	-0.163219
H136	H	1.607782	0.062796	0.336781
H137	H	1.105808	-0.217791	-0.162758
H138	H	1.605808	0.282209	0.337242
H139	H	1.216619	-0.235563	-0.099282
H140	H	1.716619	0.264437	0.400718
