data_functionalizedCrystal
_audit_creation_method	'MofGen! by Chris Wilmer'
_symmetry_space_group_name_H-M	'P1'
_symmetry_Int_Tables_number	1
_symmetry_cell_setting	triclinic
loop_
_symmetry_equiv_pos_as_xyz
  x,y,z
_cell_length_a	25.639242
_cell_length_b	25.639239
_cell_length_c	25.639234
_cell_angle_alpha	90.024905
_cell_angle_beta	90.029352
_cell_angle_gamma	90.034213
loop_
_atom_site_label
_atom_site_type_symbol
_atom_site_fract_x
_atom_site_fract_y
_atom_site_fract_z
Zn1	Zn	0.799262	-0.208245	0.295742
Zn2	Zn	0.799175	-0.295673	0.208307
Zn3	Zn	0.711827	-0.208247	0.208306
Zn4	Zn	0.711784	-0.295644	0.295696
O5	O	0.755512	-0.251952	0.252013
O6	O	0.872416	-0.219854	0.284163
O7	O	0.787570	-0.284089	0.135141
O8	O	0.723481	-0.135081	0.219924
O9	O	0.872351	-0.284087	0.219924
O10	O	0.787719	-0.135080	0.284163
O11	O	0.723396	-0.219857	0.135141
O12	O	0.638656	-0.219829	0.219880
O13	O	0.723406	-0.284038	0.368868
O14	O	0.638624	-0.284040	0.284085
O15	O	0.787676	-0.219826	0.368901
O16	O	0.787527	-0.368835	0.219880
O17	O	0.723321	-0.368813	0.284085
C18	C	0.619669	-0.251932	0.251977
C19	C	0.561555	-0.251935	0.251975
C20	C	0.201184	-0.285443	0.285413
C21	C	0.146580	-0.285446	0.285421
O22	O	0.118337	-0.313909	0.313821
N23	N	0.119273	-0.251967	0.252047
C24	C	0.146573	-0.218478	0.218666
O25	O	0.118332	-0.190002	0.190280
C26	C	0.201176	-0.218473	0.218661
C27	C	0.228481	-0.251958	0.252034
C28	C	0.228489	-0.318925	0.318783
C29	C	0.283089	-0.318922	0.318774
C30	C	0.310385	-0.285437	0.285395
C31	C	0.283081	-0.251955	0.252024
C32	C	0.228475	-0.184982	0.185283
C33	C	0.283082	-0.184980	0.185281
C34	C	0.310387	-0.218465	0.218654
C35	C	0.364978	-0.218468	0.218636
N36	N	0.392285	-0.251947	0.252010
C37	C	0.364989	-0.285432	0.285389
C38	C	0.031902	-0.218492	0.218680
C39	C	-0.022700	-0.218499	0.218683
C40	C	-0.022689	-0.285466	0.285438
C41	C	0.031914	-0.285461	0.285433
C42	C	0.059209	-0.251971	0.252054
C43	C	0.479654	-0.285424	0.285368
C44	C	0.534259	-0.285420	0.285354
C45	C	0.534243	-0.218451	0.218601
C46	C	0.479643	-0.218457	0.218612
C47	C	0.452349	-0.251945	0.252000
O48	O	0.393256	-0.190018	0.190252
O49	O	0.393236	-0.313899	0.313776
C50	C	0.755424	-0.387795	0.251989
C51	C	0.755434	-0.445909	0.251996
C52	C	0.789031	-0.806270	0.218638
C53	C	0.789051	-0.860875	0.218645
O54	O	0.817526	-0.889110	0.190257
N55	N	0.755604	-0.888191	0.252048
C56	C	0.722138	-0.860901	0.285449
O57	O	0.693690	-0.889150	0.313861
C58	C	0.722120	-0.806298	0.285444
C59	C	0.755566	-0.778984	0.252036
C60	C	0.822475	-0.778957	0.185233
C61	C	0.822454	-0.724356	0.185226
C62	C	0.788989	-0.697069	0.218623
C63	C	0.755545	-0.724383	0.252028
C64	C	0.688657	-0.779008	0.318847
C65	C	0.688643	-0.724401	0.318840
C66	C	0.722089	-0.697087	0.285432
C67	C	0.722059	-0.642496	0.285418
N68	N	0.755507	-0.615179	0.252016
C69	C	0.788972	-0.642466	0.218619
C70	C	0.722177	-0.975571	0.285457
C71	C	0.722191	-1.030174	0.285459
C72	C	0.789106	-1.030144	0.218656
C73	C	0.789089	-0.975541	0.218652
C74	C	0.755625	-0.948255	0.252055
C75	C	0.788925	-0.527801	0.218605
C76	C	0.788899	-0.473196	0.218599
C77	C	0.721987	-0.473230	0.285403
C78	C	0.722010	-0.527831	0.285408
C79	C	0.755483	-0.555115	0.252007
O80	O	0.693601	-0.614226	0.313794
O81	O	0.817419	-0.614210	0.190216
C82	C	0.891885	-0.251973	0.252049
C83	C	0.949999	-0.251982	0.252064
C84	C	0.755546	-0.251928	0.388386
C85	C	0.755560	-0.251918	0.446500
C86	C	0.755614	-0.115579	0.252048
C87	C	0.755658	-0.057465	0.252064
C88	C	0.755508	-0.251938	0.116170
C89	C	0.755595	-0.251801	0.058057
C90	C	0.722160	-0.218411	0.806869
C91	C	0.722163	-0.218401	0.861473
O92	O	0.693738	-0.189969	0.889714
N93	N	0.755578	-0.251836	0.888783
C94	C	0.788988	-0.285287	0.861485
O95	O	0.817411	-0.313726	0.889728
C96	C	0.788983	-0.285299	0.806882
C97	C	0.755569	-0.251857	0.779575
C98	C	0.688749	-0.184972	0.779562
C99	C	0.688747	-0.184981	0.724961
C100	C	0.722156	-0.218428	0.697668
C101	C	0.755567	-0.251866	0.724974
C102	C	0.822390	-0.318752	0.779585
C103	C	0.822381	-0.318761	0.724978
C104	C	0.788968	-0.285319	0.697672
C105	C	0.788974	-0.285322	0.643080
N106	N	0.755559	-0.251887	0.615771
C107	C	0.722150	-0.218440	0.643064
C108	C	0.788998	-0.285260	0.976156
C109	C	0.789006	-0.285246	1.030758
C110	C	0.722180	-0.218361	1.030742
C111	C	0.722174	-0.218373	0.976139
C112	C	0.755583	-0.251825	0.948846
C113	C	0.722149	-0.218461	0.528399
C114	C	0.722151	-0.218471	0.473794
C115	C	0.788976	-0.285358	0.473814
C116	C	0.788975	-0.285346	0.528415
C117	C	0.755558	-0.251896	0.555706
O118	O	0.817383	-0.313741	0.614804
O119	O	0.693728	-0.190011	0.614814
H120	H	-0.044924	-0.312730	0.312619
H121	H	0.206253	-0.157717	0.158106
H122	H	0.305303	-0.157704	0.158103
H123	H	0.206270	-0.346192	0.345967
F124	F	0.824551	-0.556831	0.183056
H125	H	0.694942	-0.191237	0.451563
H126	H	0.816209	-0.312498	0.953938
F127	F	0.857939	-0.354368	0.695935
H128	H	0.556488	-0.312690	0.312530
F129	F	0.857951	-0.354348	0.808636
H130	H	0.457411	-0.191192	0.191436
F131	F	0.824546	-0.320930	0.557478
H132	H	0.457438	-0.312692	0.312556
F133	F	0.563304	-0.182817	0.183077
H134	H	0.694922	-0.953358	0.312656
F135	F	-0.051754	-0.182866	0.183157
F136	F	0.686584	-0.182857	0.557436
F137	F	0.824498	-0.444129	0.183039
H138	H	0.849690	-0.702120	0.158024
F139	F	0.858097	-0.807989	0.149685
H140	H	0.054123	-0.191221	0.191496
F141	F	0.653181	-0.149391	0.695906
H142	H	0.816324	-0.953305	0.191448
H143	H	0.816221	-0.312472	1.052987
F144	F	0.686374	-0.444180	0.320947
F145	F	0.824722	-1.059194	0.183111
H146	H	0.661540	-0.157736	0.801778
F147	F	0.686587	-1.059237	0.321011
F148	F	0.686611	-0.182781	0.947082
H149	H	0.054142	-0.312727	0.312609
F150	F	0.653063	-0.808066	0.354410
H151	H	0.816178	-0.312589	0.451582
H152	H	0.305316	-0.346188	0.345950
H153	H	0.661393	-0.702188	0.346042
H154	H	0.694777	-0.550071	0.312613
H155	H	0.694976	-0.191127	1.052975
