data_functionalizedCrystal
_audit_creation_method	'MofGen! by Chris Wilmer'
_symmetry_space_group_name_H-M	'P1'
_symmetry_Int_Tables_number	1
_symmetry_cell_setting	triclinic
loop_
_symmetry_equiv_pos_as_xyz
  x,y,z
_cell_length_a	10.654550
_cell_length_b	10.654550
_cell_length_c	9.130313
_cell_angle_alpha	89.999890
_cell_angle_beta	89.996220
_cell_angle_gamma	84.484903
loop_
_atom_site_label
_atom_site_type_symbol
_atom_site_fract_x
_atom_site_fract_y
_atom_site_fract_z
O1	O	-1.667834	-0.176393	0.121916
O2	O	-1.302356	-0.193199	0.121892
O3	O	-1.493498	-0.002057	0.121899
O4	O	-1.476692	-0.367535	0.121909
O5	O	-1.493496	-0.002062	-0.121700
O6	O	-1.302353	-0.193204	-0.121707
O7	O	-1.667832	-0.176398	-0.121683
Cu8	Cu	-1.485092	-0.184802	-0.143937
Cu9	Cu	-1.485095	-0.184796	0.144146
O10	O	-1.476689	-0.367540	-0.121690
C11	C	-1.255556	-0.191968	0.000089
C12	C	-1.116113	-0.188276	0.000080
N13	N	-1.485099	-0.184805	-0.346560
C14	C	-1.492263	0.044739	0.000101
C15	C	-1.488571	0.184182	0.000106
C16	C	-1.714631	-0.177630	0.000123
C17	C	-1.854074	-0.181321	0.000141
C18	C	-1.036627	-0.300817	0.000105
C19	C	-0.905607	-0.297341	0.000130
C20	C	-0.933570	-0.068771	0.000113
C21	C	-1.064588	-0.072249	0.000077
C22	C	-1.020482	-0.432780	0.000121
C23	C	-0.889461	-0.429304	0.000146
C24	C	-1.477925	-0.414336	0.000111
C25	C	-1.481616	-0.553779	0.000116
C26	C	-1.601112	0.263668	0.000109
C27	C	-1.597636	0.394688	0.000119
C28	C	-1.369066	0.366725	0.000117
C29	C	-1.372544	0.235707	0.000118
C30	C	-1.733075	0.279813	0.000104
C31	C	-1.729599	0.410834	0.000114
C32	C	-1.569759	-0.100196	-0.423209
C33	C	-1.569756	-0.100181	-0.576546
C34	C	-1.400429	-0.269395	-0.576571
C35	C	-1.400427	-0.269403	-0.423237
C36	C	-1.667523	-0.002506	-0.423195
C37	C	-1.667519	-0.002491	-0.576532
N38	N	-1.485098	-0.184782	0.346769
H39	H	-1.129302	0.019393	0.000036
O40	O	-1.062943	-0.483124	0.125502
C41	C	-1.006693	-0.607599	0.141986
H42	H	-0.974872	-0.646741	0.030403
H43	H	-1.078069	-0.668798	0.191070
H44	H	-0.921656	-0.607911	0.217811
H45	H	-1.274601	0.408693	0.000128
H46	H	-1.769481	0.456479	0.105296
H47	H	-0.843789	-0.469187	-0.105021
O48	O	-1.263254	0.158444	0.000391
C49	C	-1.258457	0.081805	0.126539
H50	H	-1.322277	0.129223	0.214708
H51	H	-1.157426	0.067960	0.168901
H52	H	-1.291786	-0.013738	0.098015
H53	H	-1.764031	-0.024009	-0.618142
O54	O	-1.776294	-0.039184	-0.366635
C55	C	-1.792380	-0.162439	-0.414466
H56	H	-1.736758	-0.183050	-0.519817
H57	H	-1.896654	-0.170927	-0.435762
H58	H	-1.756740	-0.233006	-0.326501
H59	H	-0.847729	-0.479023	0.102101
H60	H	-0.891602	0.025694	0.000132
H61	H	-1.331490	-0.338271	-0.639019
O62	O	-1.794472	0.244609	0.121765
C63	C	-1.712715	0.161123	0.205662
H64	H	-1.635381	0.114246	0.132159
H65	H	-1.768291	0.085848	0.256387
H66	H	-1.668363	0.215764	0.296279
O67	O	-1.318134	-0.351704	-0.349007
C68	C	-1.243384	-0.426344	-0.449569
H69	H	-1.294888	-0.428245	-0.558866
H70	H	-1.225075	-0.526467	-0.405274
H71	H	-1.149747	-0.384679	-0.465885
H72	H	-1.775096	0.244184	-0.105075
H73	H	-1.049812	-0.484393	-0.101829
O74	O	-1.641708	0.112603	-0.373614
C75	C	-1.522340	0.139040	-0.425253
H76	H	-1.463470	0.046958	-0.452505
H77	H	-1.472555	0.191601	-0.337121
H78	H	-1.534468	0.199940	-0.527885
H79	H	-1.779319	0.452592	-0.101827
H80	H	-1.637006	0.088732	-0.624084
