data_functionalizedCrystal
_audit_creation_method	'MofGen! by Chris Wilmer'
_symmetry_space_group_name_H-M	'P1'
_symmetry_Int_Tables_number	1
_symmetry_cell_setting	triclinic
loop_
_symmetry_equiv_pos_as_xyz
  x,y,z
_cell_length_a	12.970454
_cell_length_b	14.809374
_cell_length_c	12.970454
_cell_angle_alpha	89.999789
_cell_angle_beta	60.000396
_cell_angle_gamma	52.847198
loop_
_atom_site_label
_atom_site_type_symbol
_atom_site_fract_x
_atom_site_fract_y
_atom_site_fract_z
Zr1	Zr	0.879505	0.991007	-0.010788
O2	O	1.135865	0.826752	-0.196046
O3	O	0.651765	1.041359	0.046002
O4	O	0.866852	1.041361	-0.169086
O5	O	0.920779	0.826748	0.188708
O6	O	0.824316	1.210649	-0.147818
O7	O	0.920778	0.826749	0.019042
O8	O	0.439564	1.210645	0.236934
O9	O	1.305531	0.826752	-0.196044
O10	O	0.703094	1.189172	0.086096
O11	O	0.734839	1.062833	0.196844
O12	O	0.988076	1.062836	-0.056394
O13	O	1.019822	0.936497	0.054354
Zr14	Zr	0.811667	1.261000	0.293730
Zr15	Zr	0.811665	1.261002	0.023132
Zr16	Zr	0.879507	0.991005	0.259810
Zr17	Zr	1.150103	0.991008	-0.010786
Zr18	Zr	0.541069	1.260999	0.293727
O19	O	1.039407	1.210648	0.236940
O20	O	1.039405	1.210650	-0.147816
O21	O	1.135868	0.826749	0.188710
O22	O	0.555307	1.425255	0.478987
O23	O	0.555304	1.425257	0.094231
O24	O	0.651767	1.041356	0.430758
O25	O	0.770393	1.425258	0.094233
O26	O	0.824320	1.210645	0.452027
O27	O	0.866856	1.041357	0.430760
O28	O	0.770394	1.425257	0.263900
O29	O	1.251607	1.041363	-0.169082
O30	O	0.439565	1.210644	0.452024
O31	O	0.385641	1.425254	0.478986
O32	O	0.385640	1.425256	0.263896
O33	O	1.305532	0.826751	0.019045
O34	O	1.251608	1.041361	0.046007
O35	O	0.703095	1.189170	0.339336
O36	O	0.671350	1.315509	0.228588
O37	O	0.956333	1.189173	0.086098
O38	O	0.988078	1.062834	0.196846
C39	C	0.507110	1.126002	0.141468
C40	C	0.392234	1.126002	0.141467
C41	C	0.930444	0.788280	0.099042
C42	C	0.959244	0.673660	0.084642
C43	C	0.830713	0.685230	0.148907
C44	C	0.860476	0.566766	0.134026
C45	C	1.184062	1.126004	0.141474
C46	C	1.298938	1.126005	0.141475
C47	C	0.845584	1.126006	-0.197006
C48	C	0.845583	1.126006	-0.311883
C49	C	0.760728	1.463726	0.183899
C50	C	0.731928	1.578346	0.198299
C51	C	0.845588	1.126001	0.479948
C52	C	0.845589	1.126000	0.594824
C53	C	0.422252	1.463725	0.183896
C54	C	0.278576	1.578345	0.198295
C55	C	0.507112	1.126000	0.479945
C56	C	0.392237	1.125998	0.594820
C57	C	0.422254	1.463723	0.522373
C58	C	0.278579	1.578341	0.651648
C59	C	1.268918	0.788284	-0.239432
C60	C	1.412593	0.673665	-0.368707
C61	C	1.268920	0.788282	0.099045
C62	C	1.412596	0.673662	0.084646
C63	C	1.184060	1.126007	-0.197003
C64	C	1.298934	1.126008	-0.311878
C65	C	0.227674	1.566225	0.130666
C66	C	0.092693	1.673912	0.144169
C67	C	0.008609	1.793717	0.225308
C68	C	0.059522	1.805835	0.292939
C69	C	0.194508	1.698149	0.279428
C70	C	0.194535	1.698127	0.654549
C71	C	0.059549	1.805833	0.776008
C72	C	0.008604	1.793753	0.894564
C73	C	0.092662	1.673955	0.891659
C74	C	0.227653	1.566251	0.770202
C75	C	1.496650	0.553880	-0.371608
C76	C	1.631669	0.446173	-0.493066
C77	C	1.682620	0.458254	-0.611622
C78	C	1.598555	0.578052	-0.608717
C79	C	1.463546	0.685756	-0.487260
C80	C	1.463509	0.685782	0.152264
C81	C	1.598520	0.578095	0.138732
C82	C	1.682608	0.458289	0.057588
C83	C	1.631690	0.446171	-0.010037
C84	C	1.496688	0.553857	0.003488
H85	H	0.698639	0.782838	0.214949
H86	H	1.640057	0.587873	-0.705260
H87	H	0.051162	1.664137	0.988204
H88	H	0.992560	0.469157	0.067987
Cl89	Cl	0.527996	0.729040	0.300253
H90	H	1.700174	0.348611	-0.076104
H91	H	0.296068	1.468720	0.767858
H92	H	1.700096	0.348639	-0.495406
H93	H	-0.008959	1.903395	0.359002
H94	H	0.235934	1.708035	0.334509
H95	H	1.091318	0.576052	0.018608
Cl96	Cl	1.432628	0.538659	-0.222583
Cl97	Cl	1.852349	0.322840	-0.764302
H98	H	1.395106	0.783287	-0.484913
Cl99	Cl	0.333360	1.415624	0.028647
H100	H	1.395053	0.783324	0.218347
H101	H	1.455242	0.543971	-0.051572
Cl102	Cl	-0.161090	1.929083	0.242282
Cl103	Cl	0.258559	1.713347	0.505525
H104	H	0.051259	1.664021	0.089093
Cl105	Cl	-0.161106	1.929166	1.047244
H106	H	1.639953	0.587986	0.193808
Cl107	Cl	1.852320	0.322923	0.040602
H108	H	-0.008879	1.903368	0.778350
