data_functionalizedCrystal
_audit_creation_method	'MofGen! by Chris Wilmer'
_symmetry_space_group_name_H-M	'P1'
_symmetry_Int_Tables_number	1
_symmetry_cell_setting	triclinic
loop_
_symmetry_equiv_pos_as_xyz
  x,y,z
_cell_length_a	16.109318
_cell_length_b	10.065918
_cell_length_c	10.967953
_cell_angle_alpha	92.243172
_cell_angle_beta	95.898092
_cell_angle_gamma	99.858763
loop_
_atom_site_label
_atom_site_type_symbol
_atom_site_fract_x
_atom_site_fract_y
_atom_site_fract_z
O1	O	1.111157	0.073162	-0.170986
O2	O	0.868776	0.068652	-0.190277
O3	O	0.999557	0.112229	-0.004912
O4	O	0.980377	0.029585	-0.356351
O5	O	0.978259	-0.107349	0.026589
O6	O	0.847479	-0.150926	-0.158776
O7	O	1.089859	-0.146416	-0.139485
Zn8	Zn	0.965288	-0.183534	-0.144129
Zn9	Zn	0.993348	0.105770	-0.185633
O10	O	0.959079	-0.189993	-0.324850
C11	C	0.827167	-0.040949	-0.173742
C12	C	0.734912	-0.040386	-0.171390
N13	N	0.946144	-0.380976	-0.115803
C14	C	0.447573	0.081070	-0.180957
C15	C	0.534258	0.080561	-0.183162
C16	C	0.511058	-0.158832	-0.148801
C17	C	0.424375	-0.158318	-0.146588
C18	C	0.392635	-0.038365	-0.162673
C19	C	0.566002	-0.039388	-0.167090
C20	C	0.659990	-0.039942	-0.169480
C21	C	0.298641	-0.037810	-0.160281
C22	C	0.986682	-0.462864	-0.175778
C23	C	0.971955	-0.614900	-0.153966
C24	C	1.131469	-0.036812	-0.156021
C25	C	1.223724	-0.037367	-0.158374
C26	C	0.989122	0.013018	0.055809
C27	C	0.989750	0.044539	0.189808
N28	N	1.012499	0.303214	-0.213949
C29	C	0.969514	-0.090780	-0.385571
C30	C	0.968887	-0.122291	-0.519571
C31	C	0.979641	-0.022597	0.404365
C32	C	0.978995	-0.055170	0.265870
H33	H	0.421733	0.178745	-0.194053
N34	N	0.593517	0.209373	-0.202893
H35	H	0.638001	0.232090	-0.129793
H36	H	0.560192	0.285353	-0.212781
N37	N	0.365114	-0.287142	-0.126857
H38	H	0.398459	-0.363014	-0.116183
H39	H	0.320979	-0.310226	-0.200338
H40	H	1.032294	-0.420413	-0.243267
H41	H	0.969313	-0.164645	0.228467
H42	H	0.926346	-0.657342	-0.086463
H43	H	0.959206	-0.231759	0.443019
N44	N	1.002588	0.189555	0.239337
H45	H	1.001233	0.192273	0.331252
H46	H	0.955886	0.234395	0.200084
N47	N	0.545288	-0.288212	-0.131476
H48	H	0.533140	-0.322865	-0.048800
H49	H	0.608528	-0.270320	-0.135719
H50	H	1.058113	-0.654345	-0.281446
H51	H	0.900537	-0.423424	-0.048305
H52	H	0.989330	0.086871	0.441776
