data_functionalizedCrystal
_audit_creation_method	'MofGen! by Chris Wilmer'
_symmetry_space_group_name_H-M	'P1'
_symmetry_Int_Tables_number	1
_symmetry_cell_setting	triclinic
loop_
_symmetry_equiv_pos_as_xyz
  x,y,z
_cell_length_a	14.971486
_cell_length_b	15.944551
_cell_length_c	14.048226
_cell_angle_alpha	89.992615
_cell_angle_beta	89.998499
_cell_angle_gamma	83.556434
loop_
_atom_site_label
_atom_site_type_symbol
_atom_site_fract_x
_atom_site_fract_y
_atom_site_fract_z
O1	O	1.186829	0.109463	-0.079053
O2	O	0.926415	0.122572	-0.079079
O3	O	1.063733	-0.006251	-0.079057
O4	O	1.049510	0.238286	-0.079076
O5	O	1.063717	-0.006258	0.079264
O6	O	0.926398	0.122564	0.079242
O7	O	1.186812	0.109456	0.079268
Zn8	Zn	1.056603	0.116009	0.104392
Zn9	Zn	1.056624	0.116019	-0.104203
O10	O	1.049494	0.238278	0.079246
C11	C	0.893082	0.121982	0.000078
C12	C	0.793787	0.120225	0.000068
C13	C	0.736480	0.195904	0.000064
C14	C	0.643182	0.194249	0.000078
C15	C	0.607194	0.116913	0.000090
C16	C	0.664508	0.041227	0.000097
C17	C	0.757804	0.042884	0.000090
C18	C	0.470049	0.037780	0.000111
C19	C	0.376747	0.036123	0.000116
C20	C	0.355428	0.189145	0.000099
C21	C	0.448724	0.190801	0.000092
C22	C	0.506032	0.115116	0.000097
C23	C	1.063134	-0.037549	0.000104
C24	C	1.061364	-0.130797	0.000104
C25	C	0.972017	-0.345738	0.000082
C26	C	1.013499	-0.406720	0.078148
C27	C	1.058162	-0.301526	0.000096
C28	C	1.013535	-0.406696	-0.077944
C29	C	1.055062	-0.466441	0.000085
C30	C	1.099667	-0.361279	0.078227
C31	C	1.099692	-0.361248	-0.077935
C32	C	1.141236	-0.422212	0.000150
C33	C	1.059945	-0.206522	0.000104
C34	C	1.053286	-0.561444	0.000084
C35	C	1.220145	0.110046	0.000109
C36	C	1.319440	0.111802	0.000112
C37	C	1.050093	0.269576	0.000083
C38	C	1.051863	0.362824	0.000076
N39	N	1.056594	0.116001	0.246753
N40	N	1.056640	0.116019	-0.246564
C41	C	1.117418	0.058982	0.296581
C42	C	1.117424	0.058982	0.396238
C43	C	1.056610	0.116005	0.446066
C44	C	0.995780	0.173027	0.396231
C45	C	0.995770	0.173022	0.296575
C46	C	0.995806	0.173033	0.603945
C47	C	0.995816	0.173038	0.703608
C48	C	1.117459	0.058992	0.703608
C49	C	1.117450	0.058988	0.603952
C50	C	1.056621	0.116011	0.554124
H51	H	0.347448	-0.026851	0.000127
O52	O	1.183042	-0.002501	0.449985
H53	H	1.225341	-0.042141	0.398594
H54	H	1.166943	0.012551	0.256017
H55	H	0.804463	-0.018742	0.000093
H56	H	0.596526	0.255875	0.000074
O57	O	0.965234	-0.433404	0.165567
H58	H	0.906514	-0.465538	0.143580
H59	H	0.516708	-0.023852	0.000117
O60	O	0.487547	0.274211	0.000074
H61	H	0.529553	0.278613	0.064596
O62	O	1.183037	-0.002516	0.550203
H63	H	1.225330	-0.042174	0.601592
H64	H	0.946294	0.219472	0.744173
O65	O	1.183079	-0.002509	0.757340
H66	H	1.171698	-0.068011	0.738219
O67	O	0.293625	0.270782	0.000104
H68	H	0.222704	0.256640	0.000125
O69	O	0.930194	0.234536	0.449975
H70	H	0.887894	0.274182	0.398581
O71	O	0.930203	0.234538	0.550196
H72	H	0.887924	0.274199	0.601585
O73	O	0.625694	-0.042187	0.000120
H74	H	0.648716	-0.078560	-0.064401
H75	H	0.946240	0.219452	0.256006
O76	O	0.775294	0.279319	0.000049
H77	H	0.817298	0.283725	0.064571
O78	O	1.236030	-0.466055	0.000159
H79	H	1.246442	-0.506547	0.064365
H80	H	0.900512	-0.312499	0.000153
H81	H	1.136103	-0.341080	-0.143930
O82	O	1.147878	-0.334769	0.165753
H83	H	1.148777	-0.265259	0.165090
H84	H	0.977095	-0.426804	-0.143948
