data_functionalizedCrystal
_audit_creation_method	'MofGen! by Chris Wilmer'
_symmetry_space_group_name_H-M	'P1'
_symmetry_Int_Tables_number	1
_symmetry_cell_setting	triclinic
loop_
_symmetry_equiv_pos_as_xyz
  x,y,z
_cell_length_a	19.188933
_cell_length_b	12.837942
_cell_length_c	11.892095
_cell_angle_alpha	85.697431
_cell_angle_beta	86.115576
_cell_angle_gamma	91.012745
loop_
_atom_site_label
_atom_site_type_symbol
_atom_site_fract_x
_atom_site_fract_y
_atom_site_fract_z
O1	O	0.939039	-0.122746	-0.093965
O2	O	1.272372	0.210588	0.239369
O3	O	1.605706	0.543921	0.572702
O4	O	0.736923	-0.140159	-0.093975
O5	O	1.070256	0.193174	0.239358
O6	O	1.403589	0.526507	0.572692
O7	O	0.833499	0.019430	-0.093963
O8	O	1.166832	0.352763	0.239370
O9	O	1.500165	0.686096	0.572704
O10	O	0.842463	-0.282335	-0.093977
O11	O	1.175796	0.050999	0.239357
O12	O	1.509129	0.384332	0.572690
O13	O	0.825445	0.006144	0.094043
O14	O	1.158778	0.339477	0.427377
O15	O	1.492112	0.672810	0.760710
O16	O	0.728869	-0.153445	0.094031
O17	O	1.062202	0.179888	0.427365
O18	O	1.395536	0.513222	0.760698
O19	O	0.930985	-0.136031	0.094042
O20	O	1.264319	0.197302	0.427375
O21	O	1.597652	0.530635	0.760708
Zn22	Zn	0.828648	-0.146848	0.123887
Zn23	Zn	1.161982	0.186486	0.457220
Zn24	Zn	1.495315	0.519819	0.790553
Zn25	Zn	0.839259	-0.129343	-0.123820
Zn26	Zn	1.172593	0.203990	0.209513
Zn27	Zn	1.505926	0.537324	0.542847
O28	O	0.834409	-0.295620	0.094030
O29	O	1.167742	0.037713	0.427363
O30	O	1.501076	0.371046	0.760697
C31	C	0.706846	-0.146238	0.000027
C32	C	1.040180	0.187095	0.333360
C33	C	1.373513	0.520429	0.666694
C34	C	0.629226	-0.144544	0.000023
C35	C	0.962559	0.188790	0.333356
C36	C	1.295892	0.522123	0.666690
C37	C	0.079531	-0.125213	-0.102447
C38	C	0.412864	0.208120	0.230887
C39	C	0.746197	0.541454	0.564220
C40	C	0.152464	-0.126798	-0.102451
C41	C	0.485797	0.206535	0.230882
C42	C	0.819131	0.539869	0.564216
C43	C	0.184545	-0.134838	0.000031
C44	C	0.517879	0.198496	0.333364
C45	C	0.851212	0.531829	0.666697
C46	C	0.143688	-0.141266	0.102525
C47	C	0.477021	0.192067	0.435858
C48	C	0.810355	0.525401	0.769192
C49	C	0.070757	-0.139670	0.102526
C50	C	0.404090	0.193663	0.435860
C51	C	0.737423	0.526996	0.769193
N52	N	0.294514	-0.201703	0.076310
N53	N	0.627848	0.131630	0.409643
N54	N	0.961181	0.464963	0.742977
N55	N	0.363796	-0.203221	0.076302
N56	N	0.697130	0.130112	0.409635
N57	N	1.030463	0.463446	0.742968
C58	C	0.404284	-0.139644	0.000033
C59	C	0.737617	0.193690	0.333366
C60	C	1.070950	0.527023	0.666699
N61	N	0.372872	-0.074503	-0.076245
N62	N	0.706205	0.258830	0.257088
N63	N	1.039539	0.592164	0.590421
N64	N	0.303584	-0.072990	-0.076240
N65	N	0.636917	0.260344	0.257093
N66	N	0.970250	0.593677	0.590427
C67	C	0.263627	-0.136568	0.000041
C68	C	0.596960	0.196765	0.333374
C69	C	0.930294	0.530099	0.666707
C70	C	0.524215	-0.134927	-0.102460
C71	C	0.857548	0.198406	0.230874
C72	C	1.190881	0.531740	0.564207
C73	C	0.597149	-0.136506	-0.102460
C74	C	0.930482	0.196827	0.230873
C75	C	1.263816	0.530161	0.564207
C76	C	0.588372	-0.150984	0.102519
C77	C	0.921705	0.182349	0.435852
C78	C	1.255038	0.515682	0.769186
C79	C	0.515439	-0.149395	0.102516
C80	C	0.848772	0.183939	0.435849
C81	C	1.182106	0.517272	0.769183
C82	C	0.483365	-0.141371	0.000024
C83	C	0.816698	0.191962	0.333357
C84	C	1.150031	0.525296	0.666690
C85	C	0.826444	0.051394	0.000039
C86	C	1.159777	0.384727	0.333373
C87	C	1.493111	0.718060	0.666706
C88	C	0.817413	0.166430	0.000037
C89	C	1.150747	0.499763	0.333370
C90	C	1.484080	0.833097	0.666704
C91	C	0.961062	-0.129953	0.000037
C92	C	1.294395	0.203381	0.333371
C93	C	1.627728	0.536714	0.666704
C94	C	1.038683	-0.131646	0.000034
C95	C	1.372016	0.201687	0.333367
C96	C	1.705349	0.535020	0.666700
C97	C	0.841464	-0.327584	0.000025
C98	C	1.174797	0.005749	0.333358
C99	C	1.508131	0.339082	0.666692
C100	C	0.850495	-0.442620	0.000020
C101	C	1.183828	-0.109287	0.333353
C102	C	1.517162	0.224047	0.666686
N103	N	0.821412	-0.158793	0.292940
N104	N	1.154745	0.174540	0.626273
N105	N	1.488078	0.507873	0.959607
C106	C	0.925982	0.407881	0.000019
C107	C	1.259315	0.741214	0.333352
C108	C	1.592648	1.074547	0.666686
C109	C	0.917500	0.515968	0.000017
C110	C	1.250833	0.849302	0.333350
C111	C	1.584166	1.182635	0.666683
C112	C	0.791968	0.490696	0.000022
C113	C	1.125302	0.824029	0.333355
C114	C	1.458635	1.157362	0.666689
C115	C	0.800450	0.382608	0.000024
C116	C	1.133784	0.715941	0.333358
C117	C	1.467117	1.049275	0.666691
C118	C	0.867459	0.341205	0.000024
C119	C	1.200792	0.674538	0.333358
C120	C	1.534126	1.007871	0.666691
C121	C	0.875940	0.233114	0.000035
C122	C	1.209273	0.566448	0.333368
C123	C	1.542607	0.899781	0.666702
C124	C	0.750409	0.207844	0.000032
C125	C	1.083743	0.541178	0.333365
C126	C	1.417076	0.874511	0.666699
C127	C	0.741928	0.315932	0.000030
C128	C	1.075261	0.649265	0.333363
C129	C	1.408594	0.982599	0.666696
N130	N	0.846501	-0.117389	-0.292873
N131	N	1.179834	0.215944	0.040460
N132	N	1.513168	0.549278	0.373793
C133	C	0.896854	-0.034205	0.529597
C134	C	1.230187	0.299128	0.862930
C135	C	1.563520	0.632461	1.196264
C136	C	0.891801	-0.042563	0.647938
C137	C	1.225134	0.290770	0.981272
C138	C	1.558468	0.624104	1.314605
C139	C	0.806250	-0.183860	0.647966
C140	C	1.139583	0.149473	0.981299
C141	C	1.472916	0.482806	1.314632
C142	C	0.811303	-0.175503	0.529625
C143	C	1.144636	0.157830	0.862958
C144	C	1.477969	0.491164	1.196291
C145	C	0.856607	-0.100674	0.470444
C146	C	1.189940	0.232659	0.803778
C147	C	1.523274	0.565993	1.137111
C148	C	0.861663	-0.092322	0.352101
C149	C	1.194996	0.241011	0.685434
C150	C	1.528330	0.574345	1.018768
C151	C	0.776109	-0.233614	0.352131
C152	C	1.109442	0.099719	0.685464
C153	C	1.442775	0.433053	1.018797
C154	C	0.771056	-0.241971	0.470472
C155	C	1.104389	0.091362	0.803805
C156	C	1.437723	0.424695	1.137138
H157	H	0.185729	-0.121565	-0.185906
H158	H	0.519062	0.211769	0.147428
H159	H	0.852395	0.545102	0.480761
F160	F	0.733277	-0.304363	0.289164
F161	F	1.066610	0.028971	0.622498
F162	F	1.399944	0.362304	0.955831
H163	H	0.980542	0.374169	0.000030
H164	H	1.313876	0.707502	0.333364
H165	H	1.647209	1.040836	0.666697
H166	H	0.933747	0.026716	0.481412
H167	H	1.267081	0.360050	0.814745
H168	H	1.600414	0.693383	1.148078
H169	H	0.965155	0.570253	0.000009
H170	H	1.298489	0.903587	0.333342
H171	H	1.631822	1.236920	0.666675
H172	H	0.614492	-0.157526	0.185962
H173	H	0.947825	0.175807	0.519295
H174	H	1.281158	0.509140	0.852628
H175	H	0.734168	-0.302893	0.518670
H176	H	1.067501	0.030440	0.852003
H177	H	1.400835	0.363773	1.185337
H178	H	0.769359	-0.244777	0.696166
H179	H	1.102693	0.088556	1.029499
H180	H	1.436026	0.421889	1.362832
H181	H	0.053421	-0.118675	-0.185904
H182	H	0.386754	0.214658	0.147429
H183	H	0.720087	0.547992	0.480762
H184	H	0.687371	0.349658	0.000025
H185	H	1.020704	0.682991	0.333359
H186	H	1.354038	1.016325	0.666692
F187	F	0.720660	0.534780	-0.000006
F188	F	1.053993	0.868114	0.333327
F189	F	1.387326	1.201447	0.666660
H190	H	0.169814	-0.147810	0.185966
H191	H	0.503147	0.185523	0.519300
H192	H	0.836480	0.518857	0.852633
F193	F	0.027281	-0.146521	0.211605
F194	F	0.360615	0.186813	0.544938
F195	F	0.693948	0.520146	0.878272
H196	H	0.924573	0.011563	0.696097
H197	H	1.257906	0.344897	1.029431
H198	H	1.591240	0.678230	1.362764
H199	H	0.702756	0.153543	0.000046
H200	H	1.036089	0.486877	0.333379
H201	H	1.369422	0.820210	0.666712
H202	H	0.630407	-0.131259	-0.185915
H203	H	0.963741	0.202074	0.147418
H204	H	1.297074	0.535408	0.480751
F205	F	0.490077	-0.126381	-0.211540
F206	F	0.823410	0.206952	0.121794
F207	F	1.156743	0.540285	0.455127
H208	H	0.482179	-0.154637	0.185967
H209	H	0.815513	0.178696	0.519300
H210	H	1.148846	0.512029	0.852634
F211	F	0.947255	0.189051	0.000042
F212	F	1.280589	0.522384	0.333376
F213	F	1.613922	0.855718	0.666709
H214	H	0.898554	-0.031396	0.303917
H215	H	1.231887	0.301938	0.637251
H216	H	1.565220	0.635271	0.970584
