data_functionalizedCrystal
_audit_creation_method	'MofGen! by Chris Wilmer'
_symmetry_space_group_name_H-M	'P1'
_symmetry_Int_Tables_number	1
_symmetry_cell_setting	triclinic
loop_
_symmetry_equiv_pos_as_xyz
  x,y,z
_cell_length_a	10.489741
_cell_length_b	10.654550
_cell_length_c	9.130313
_cell_angle_alpha	90.004369
_cell_angle_beta	90.000826
_cell_angle_gamma	84.512052
loop_
_atom_site_label
_atom_site_type_symbol
_atom_site_fract_x
_atom_site_fract_y
_atom_site_fract_z
O1	O	-1.693966	-0.177192	-0.121708
O2	O	-1.322763	-0.193824	-0.121731
O3	O	-1.516899	-0.002773	-0.121710
O4	O	-1.499830	-0.368243	-0.121729
O5	O	-1.516886	-0.002767	0.121889
O6	O	-1.322749	-0.193819	0.121868
O7	O	-1.693953	-0.177186	0.121890
Cu8	Cu	-1.508350	-0.185502	0.144122
Cu9	Cu	-1.508366	-0.185509	-0.143962
O10	O	-1.499816	-0.368238	0.121869
C11	C	-1.275225	-0.192565	0.000065
C12	C	-1.133597	-0.188807	0.000057
C13	C	-1.515639	0.044029	0.000089
C14	C	-1.511889	0.183474	0.000086
C15	C	-1.741491	-0.178445	0.000091
C16	C	-1.883118	-0.182204	0.000090
C17	C	-1.065516	-0.067246	0.000077
C18	C	-0.973368	-0.124673	-0.120030
C19	C	-0.973389	-0.124697	0.120140
C20	C	-1.043315	-0.246284	-0.120149
C21	C	-1.043345	-0.246290	0.120128
C22	C	-0.951224	-0.303805	-0.000008
C23	C	-1.501076	-0.415039	0.000068
C24	C	-1.504826	-0.554484	0.000060
N25	N	-1.508348	-0.185497	0.346744
C26	C	-1.626194	0.262906	0.000093
C27	C	-1.622663	0.393928	0.000074
C28	C	-1.390513	0.366074	0.000050
C29	C	-1.394045	0.235054	0.000057
N30	N	-1.508378	-0.185504	-0.346585
C31	C	-1.594341	-0.100935	0.423405
C32	C	-1.594353	-0.100935	0.576742
C33	C	-1.422375	-0.270070	0.576743
C34	C	-1.422358	-0.270062	0.423409
H35	H	-1.115254	0.032684	-0.000068
H36	H	-1.664375	-0.032076	0.639156
H37	H	-0.901752	-0.403841	-0.000079
H38	H	-1.722150	0.220914	0.000113
H39	H	-1.352366	-0.338923	0.639179
H40	H	-1.664357	-0.032074	0.360988
H41	H	-1.074361	-0.297681	0.221671
H42	H	-1.352326	-0.338923	0.360987
H43	H	-0.942384	-0.073241	-0.221568
H44	H	-1.715742	0.458597	0.000077
H45	H	-1.294568	0.408087	0.000029
H46	H	-0.942430	-0.073237	0.221681
H47	H	-1.074123	-0.297681	-0.221805
H48	H	-1.300959	0.170376	0.000048
