data_functionalizedCrystal
_audit_creation_method	'MofGen! by Chris Wilmer'
_symmetry_space_group_name_H-M	'P1'
_symmetry_Int_Tables_number	1
_symmetry_cell_setting	triclinic
loop_
_symmetry_equiv_pos_as_xyz
  x,y,z
_cell_length_a	10.489746
_cell_length_b	10.489716
_cell_length_c	11.892095
_cell_angle_alpha	93.932635
_cell_angle_beta	86.064002
_cell_angle_gamma	84.535218
loop_
_atom_site_label
_atom_site_type_symbol
_atom_site_fract_x
_atom_site_fract_y
_atom_site_fract_z
O1	O	1.702108	0.171929	-0.093916
O2	O	1.330914	0.188814	-0.093934
O3	O	1.524974	-0.005229	-0.093929
O4	O	1.508048	0.365971	-0.093922
O5	O	1.508793	0.010925	0.094078
O6	O	1.314733	0.204967	0.094073
O7	O	1.685928	0.188083	0.094091
Zn8	Zn	1.497761	0.199090	0.123932
Zn9	Zn	1.519080	0.177806	-0.123775
O10	O	1.491867	0.382125	0.094085
C11	C	1.275292	0.195613	0.000067
C12	C	1.133664	0.191793	0.000060
C13	C	0.980816	0.066069	0.000073
C14	C	1.050227	0.136891	0.092768
C15	C	1.066135	0.120994	-0.092592
C16	C	0.950717	0.255882	0.092859
C17	C	0.966627	0.239960	-0.092585
C18	C	1.035986	0.310871	0.000133
C19	C	1.515612	-0.044684	0.000071
C20	C	1.511808	-0.186316	0.000061
C21	C	1.630811	-0.283987	0.000077
C22	C	1.575905	-0.369313	-0.092621
C23	C	1.559924	-0.353351	0.092739
C24	C	1.456958	-0.269784	-0.092713
C25	C	1.440988	-0.253809	0.092730
C26	C	1.385996	-0.339088	0.000010
C27	C	1.741550	0.181283	0.000087
C28	C	1.883178	0.185102	0.000087
C29	C	1.501229	0.421580	0.000083
C30	C	1.505034	0.563212	0.000086
N31	N	1.483221	0.213614	0.292986
N32	N	1.533630	0.163272	-0.292829
C33	C	1.634806	0.062130	0.529638
C34	C	1.624652	0.072292	0.647979
C35	C	1.452754	0.244093	0.648013
C36	C	1.462908	0.233931	0.529671
C37	C	1.553938	0.142948	0.470488
C38	C	1.564098	0.132793	0.352144
C39	C	1.392194	0.304587	0.352179
C40	C	1.382040	0.314749	0.470521
H41	H	0.900681	0.312838	0.171316
Br42	Br	1.329201	0.367546	0.728344
H43	H	1.307921	0.388823	0.518722
H44	H	1.734332	-0.259316	-0.000012
Br45	Br	1.282452	0.414285	0.271894
H46	H	1.603441	-0.390089	0.171106
H47	H	0.956096	-0.037425	0.000164
Br48	Br	1.670871	-0.453031	-0.223236
Br49	Br	1.111450	0.064370	0.223390
H50	H	1.690501	0.006481	0.696136
H51	H	1.060449	0.414456	0.000186
H52	H	0.929867	0.283431	-0.170955
Br53	Br	1.384529	-0.208856	-0.223481
H54	H	1.708935	-0.011943	0.481450
Br55	Br	1.213346	-0.379824	-0.000074
Br56	Br	1.149797	0.025985	-0.223209
Br57	Br	1.346115	-0.170017	0.223352
H58	H	1.638222	0.058714	0.303958
