data_functionalizedCrystal
_audit_creation_method	'MofGen! by Chris Wilmer'
_symmetry_space_group_name_H-M	'P1'
_symmetry_Int_Tables_number	1
_symmetry_cell_setting	triclinic
loop_
_symmetry_equiv_pos_as_xyz
  x,y,z
_cell_length_a	16.109302
_cell_length_b	10.654551
_cell_length_c	14.586319
_cell_angle_alpha	89.999036
_cell_angle_beta	89.994552
_cell_angle_gamma	83.973571
loop_
_atom_site_label
_atom_site_type_symbol
_atom_site_fract_x
_atom_site_fract_y
_atom_site_fract_z
O1	O	1.104091	0.161423	-0.076276
O2	O	0.862148	0.181511	-0.076268
O3	O	0.988682	-0.011348	-0.076272
O4	O	0.977557	0.354282	-0.076271
O5	O	0.988673	-0.011350	0.076208
O6	O	0.862139	0.181508	0.076213
O7	O	1.104082	0.161420	0.076205
Cu8	Cu	0.983110	0.171464	0.090132
Cu9	Cu	0.983120	0.171467	-0.090195
O10	O	0.977548	0.354279	0.076210
C11	C	0.831164	0.180695	-0.000027
C12	C	0.738854	0.178255	-0.000024
C13	C	0.526475	0.172612	0.083084
C14	C	0.439741	0.170306	0.083081
C15	C	0.439761	0.170315	-0.083162
C16	C	0.526494	0.172612	-0.083158
C17	C	0.569848	0.173767	-0.000032
C18	C	0.396382	0.169164	-0.000039
C19	C	0.302341	0.166664	-0.000043
C20	C	0.663895	0.176265	-0.000027
C21	C	0.987860	-0.058136	-0.000034
C22	C	0.985416	-0.197546	-0.000040
C23	C	0.984274	-0.263041	-0.083156
C24	C	0.981970	-0.394030	-0.083152
C25	C	0.981954	-0.394018	0.083091
C26	C	0.984251	-0.263031	0.083086
C27	C	0.985438	-0.197556	-0.166282
C28	C	0.984297	-0.263051	-0.249405
C29	C	0.981994	-0.394041	-0.249400
C30	C	0.980831	-0.459534	-0.166274
C31	C	1.135066	0.162236	-0.000038
C32	C	1.227376	0.164676	-0.000047
C33	C	0.978370	0.401067	-0.000031
C34	C	0.980814	0.540477	-0.000031
N35	N	0.983108	0.171461	0.216963
N36	N	0.983128	0.171460	-0.217026
C37	C	1.039156	0.086092	0.451968
C38	C	1.039159	0.086089	0.547949
C39	C	0.927074	0.256834	0.547963
C40	C	0.927068	0.256830	0.451983
C41	C	0.983114	0.171460	0.403988
C42	C	0.983122	0.171461	0.595949
C43	C	0.983124	0.171458	0.700016
C44	C	0.983111	0.171461	0.299914
H45	H	0.561810	0.173550	-0.150845
H46	H	0.985236	-0.209716	-0.317083
F47	F	0.980770	-0.463740	-0.337865
F48	F	0.393584	0.169078	0.171545
F49	F	0.393616	0.169062	-0.171625
F50	F	0.980717	-0.463726	0.171554
H51	H	1.084792	0.016572	0.587011
H52	H	0.978943	-0.566192	-0.166277
F53	F	0.985471	-0.193323	0.171547
H54	H	0.987317	-0.090899	-0.166295
F55	F	1.098803	-0.004769	0.400892
H56	H	0.881444	0.326341	0.587050
F57	F	0.867415	0.347690	0.400916
H58	H	0.561771	0.173552	0.150771
