data_functionalizedCrystal
_audit_creation_method	'MofGen! by Chris Wilmer'
_symmetry_space_group_name_H-M	'P1'
_symmetry_Int_Tables_number	1
_symmetry_cell_setting	triclinic
loop_
_symmetry_equiv_pos_as_xyz
  x,y,z
_cell_length_a	6.817900
_cell_length_b	13.563541
_cell_length_c	13.561464
_cell_angle_alpha	123.322033
_cell_angle_beta	104.692446
_cell_angle_gamma	104.704624
loop_
_atom_site_label
_atom_site_type_symbol
_atom_site_fract_x
_atom_site_fract_y
_atom_site_fract_z
V1	V	-4.178075	-0.286699	-0.434096
O2	O	-4.114778	-0.106779	-0.372374
O3	O	-4.174653	-0.452529	-0.482542
O4	O	-4.174636	-0.335186	-0.599964
O5	O	-4.114796	-0.224933	-0.254139
V6	V	-4.650048	-0.258928	-0.406326
O7	O	-4.464667	-0.347616	-0.495012
O8	O	-4.813653	-0.198010	-0.345410
O9	O	-4.430263	-0.093098	-0.357880
O10	O	-4.830742	-0.438847	-0.468048
O11	O	-4.830724	-0.320693	-0.586283
O12	O	-4.430280	-0.210440	-0.240459
C13	C	-4.029141	-0.491302	-0.488961
C14	C	-4.107931	-0.627211	-0.529676
C15	C	-4.026731	-0.802665	-0.174016
C16	C	-3.952689	-0.674970	-0.135759
C17	C	-3.991496	-0.663023	-0.234235
C18	C	-4.104351	-0.778785	-0.370975
C19	C	-4.178384	-0.906492	-0.409236
C20	C	-4.143149	-0.766850	-0.469454
C21	C	-4.256005	-0.882612	-0.606194
C22	C	-4.330030	-1.010305	-0.644448
C23	C	-4.291223	-1.022252	-0.545972
C24	C	-4.069116	-0.639144	-0.431194
C25	C	-4.220770	-0.742970	-0.666413
C26	C	-4.294811	-0.870665	-0.704670
C27	C	-4.029118	-0.341618	-0.638742
C28	C	-4.107888	-0.382359	-0.774677
C29	C	-4.026699	-0.026550	-0.949933
C30	C	-3.952625	0.011657	-0.822244
C31	C	-3.991435	-0.086843	-0.810345
C32	C	-4.104330	-0.223558	-0.926150
C33	C	-4.178428	-0.261770	-1.053852
C34	C	-4.143164	-0.322064	-0.914264
C35	C	-4.256059	-0.458778	-1.030069
C36	C	-4.330146	-0.496983	-1.157757
C37	C	-4.291335	-0.398482	-1.169656
C38	C	-4.069067	-0.283852	-0.786562
C39	C	-4.220796	-0.519072	-0.890481
C40	C	-4.294869	-0.557279	-1.018170
C41	C	-4.239118	-0.054330	-0.351460
C42	C	-4.139570	0.081575	-0.310753
C43	C	-4.239140	-0.204010	-0.201675
C44	C	-4.139607	-0.163262	-0.065737
H45	H	-3.995135	-0.812408	-0.093851
H46	H	-3.931116	-0.055727	-0.706372
C47	C	-4.372820	-0.440505	-1.310117
C48	C	-4.278609	-0.518565	-1.401255
C49	C	-4.360089	-0.560581	-1.541714
C50	C	-4.535781	-0.524536	-1.591035
C51	C	-4.630002	-0.446472	-1.499896
C52	C	-4.548522	-0.404457	-1.359437
H53	H	-4.148543	-0.545251	-1.364746
H54	H	-4.290340	-0.618369	-1.609181
H55	H	-4.596097	-0.555639	-1.695011
H56	H	-4.760068	-0.419786	-1.536405
H57	H	-4.618272	-0.346668	-1.291970
H58	H	-3.860714	0.122970	-0.727964
C59	C	-3.944998	-0.511817	-0.280789
C60	C	-4.069341	-0.494284	-0.196673
C61	C	-3.945221	-0.366953	-0.046259
C62	C	-3.696759	-0.257156	0.020039
C63	C	-3.572402	-0.274685	-0.064078
C64	C	-3.696522	-0.402016	-0.214492
H65	H	-4.253280	-0.575566	-0.245750
H66	H	-4.037280	-0.353977	0.016010
H67	H	-3.604878	-0.162898	0.131385
H68	H	-3.388463	-0.193404	-0.015001
H69	H	-3.604463	-0.414992	-0.276761
H70	H	-3.977152	-0.172538	-0.692284
H71	H	-4.351520	-1.126227	-0.577115
H72	H	-4.421899	-1.104558	-0.755790
H73	H	-4.422096	-0.608306	-1.252047
C74	C	-3.828603	-0.547662	0.014652
C75	C	-3.953003	-0.530173	0.098734
C76	C	-3.828931	-0.402869	0.249157
C77	C	-3.580459	-0.293054	0.315498
C78	C	-3.456044	-0.310540	0.231415
C79	C	-3.580117	-0.437844	0.080992
H80	H	-4.136950	-0.611467	0.049624
H81	H	-3.921032	-0.389925	0.311400
H82	H	-3.488613	-0.198816	0.426850
H83	H	-3.272098	-0.229245	0.280525
H84	H	-3.488016	-0.450787	0.018749
H85	H	-3.995129	0.053634	-0.959639
C86	C	-4.419065	-0.707660	-1.145565
C87	C	-4.648152	-0.807078	-1.178560
C88	C	-4.772344	-0.957457	-1.305957
C89	C	-4.667450	-1.008419	-1.400360
C90	C	-4.438351	-0.908999	-1.367368
C91	C	-4.314158	-0.758620	-1.239970
H92	H	-4.725812	-0.769355	-1.108675
H93	H	-4.941939	-1.031054	-1.330380
H94	H	-4.759384	-1.119738	-1.494667
H95	H	-4.360690	-0.946722	-1.437253
H96	H	-4.144564	-0.685024	-1.215548
H97	H	-3.931195	-0.559045	-0.203077
H98	H	-4.386704	-0.964935	-0.816006
H99	H	-4.252367	-0.733247	-0.746601
H100	H	-4.252402	-0.599280	-0.880797
