data_functionalizedCrystal
_audit_creation_method	'MofGen! by Chris Wilmer'
_symmetry_space_group_name_H-M	'P1'
_symmetry_Int_Tables_number	1
_symmetry_cell_setting	triclinic
loop_
_symmetry_equiv_pos_as_xyz
  x,y,z
_cell_length_a	19.077105
_cell_length_b	12.759394
_cell_length_c	12.759387
_cell_angle_alpha	89.968340
_cell_angle_beta	87.679737
_cell_angle_gamma	87.711291
loop_
_atom_site_label
_atom_site_type_symbol
_atom_site_fract_x
_atom_site_fract_y
_atom_site_fract_z
Zn1	Zn	1.076065	-0.482841	-0.658523
Zn2	Zn	1.075991	-0.658554	-0.482837
Zn3	Zn	0.958359	-0.475824	-0.475802
Zn4	Zn	0.958354	-0.651409	-0.651422
O5	O	1.017192	-0.567157	-0.567146
O6	O	1.174547	-0.512077	-0.641134
O7	O	1.060359	-0.634368	-0.334881
O8	O	0.974006	-0.329736	-0.500069
O9	O	1.174493	-0.641172	-0.512058
O10	O	1.060484	-0.334891	-0.634313
O11	O	0.973935	-0.500117	-0.329713
O12	O	0.859867	-0.493189	-0.493183
O13	O	0.973997	-0.628995	-0.799387
O14	O	0.859863	-0.622191	-0.622210
O15	O	1.060479	-0.505149	-0.804604
O16	O	1.060353	-0.804625	-0.505172
O17	O	0.973926	-0.799376	-0.629031
C18	C	0.834327	-0.556154	-0.556163
C19	C	0.756096	-0.551472	-0.551489
C20	C	0.719360	-0.616538	-0.616365
C21	C	0.645854	-0.612125	-0.611979
C22	C	0.609086	-0.542650	-0.542710
C23	C	0.645828	-0.477578	-0.477831
C24	C	0.719332	-0.481986	-0.482224
C25	C	0.389249	-0.522247	-0.522386
C26	C	0.315739	-0.517846	-0.517996
C27	C	0.315770	-0.652392	-0.652145
C28	C	0.389276	-0.656799	-0.656527
C29	C	0.426012	-0.591723	-0.591652
N30	N	0.533951	-0.538140	-0.538222
N31	N	0.501145	-0.596228	-0.596146
C32	C	1.017150	-0.840122	-0.567118
C33	C	1.017196	-0.956902	-0.567145
C34	C	1.107261	-0.962319	-0.438276
C35	C	1.152312	-1.019889	-0.373855
C36	C	1.152353	-1.129613	-0.373886
C37	C	1.107340	-1.181769	-0.438347
C38	C	1.062290	-1.124199	-0.502768
C39	C	1.062252	-1.014472	-0.502728
C40	C	0.972230	-1.118782	-0.631642
C41	C	0.972184	-1.009058	-0.631607
C42	C	0.927217	-1.170938	-0.696103
C43	C	0.882161	-1.113367	-0.760521
C44	C	0.882122	-1.003637	-0.760486
C45	C	0.927133	-0.951487	-0.696028
C46	C	1.200772	-0.578204	-0.578173
C47	C	1.279002	-0.582912	-0.582872
C48	C	1.017246	-0.567057	-0.841183
C49	C	1.017268	-0.567015	-0.957961
C50	C	1.017254	-0.293128	-0.567198
C51	C	1.017280	-0.176352	-0.567221
C52	C	1.107328	-0.438063	-0.963414
C53	C	1.152367	-0.373572	-1.021002
C54	C	1.152384	-0.373535	-1.130725
C55	C	1.107356	-0.437993	-1.182862
C56	C	1.062316	-0.502484	-1.125274
C57	C	1.062305	-0.502517	-1.015549
C58	C	0.972254	-0.631429	-1.119821
C59	C	0.972239	-0.631473	-1.010098
C60	C	0.927225	-0.695887	-1.171958
C61	C	0.882188	-0.760385	-1.114370
C62	C	0.882173	-0.760421	-1.004641
C63	C	0.927200	-0.695964	-0.952510
C64	C	1.017180	-0.567183	-0.294178
C65	C	1.017294	-0.566938	-0.177409
H66	H	0.615946	-0.665109	-0.664807
H67	H	1.189055	-0.321014	-1.177613
H68	H	1.189028	-0.321090	-0.978540
O69	O	1.107478	-0.437857	-1.289452
C70	C	1.156868	-0.367088	-1.329099
H71	H	1.197988	-0.354878	-1.268351
H72	H	1.183574	-0.400370	-1.404110
H73	H	1.128982	-0.288791	-1.346898
O74	O	0.927244	-0.696046	-1.278542
C75	C	0.945310	-0.797812	-1.316259
H76	H	0.933256	-0.857618	-1.252287
H77	H	0.913570	-0.814549	-1.387750
H78	H	1.003712	-0.803559	-1.339239
H79	H	0.845439	-0.956769	-0.812950
H80	H	0.615885	-0.421006	-0.421436
H81	H	0.845526	-0.812856	-1.156828
H82	H	0.285853	-0.705373	-0.704964
H83	H	0.285804	-0.461260	-0.461595
O84	O	0.425026	-0.724390	-0.723674
C85	C	0.467531	-0.794707	-0.666285
H86	H	0.445349	-0.799780	-0.582204
H87	H	0.468375	-0.875652	-0.704201
H88	H	0.523239	-0.765550	-0.666044
H89	H	0.845519	-1.155842	-0.813005
O90	O	1.196193	-1.185590	-0.311467
C91	C	1.241642	-1.251701	-0.374086
H92	H	1.245950	-1.218816	-0.457086
H93	H	1.295821	-1.256170	-0.339406
H94	H	1.219909	-1.333575	-0.376400
H95	H	0.927100	-0.862144	-0.695987
O96	O	0.424818	-0.458994	-0.459264
C97	C	0.376601	-0.396714	-0.397206
H98	H	0.324201	-0.436609	-0.390356
H99	H	0.397813	-0.386668	-0.315717
H100	H	0.368800	-0.316504	-0.435359
H101	H	1.107325	-0.438098	-0.874073
H102	H	0.845489	-0.812925	-0.957758
O103	O	1.107221	-0.855733	-0.438432
C104	C	1.125274	-0.820046	-0.540206
H105	H	1.113258	-0.882515	-0.600011
H106	H	1.093494	-0.744755	-0.556914
H107	H	1.183665	-0.804010	-0.545991
H108	H	0.927195	-0.695991	-0.863169
O109	O	0.927387	-1.277531	-0.696147
C110	C	0.994844	-1.318138	-0.727284
H111	H	1.035366	-1.257308	-0.711792
H112	H	1.007393	-1.392321	-0.680681
H113	H	0.996319	-1.337622	-0.814554
O114	O	1.195968	-0.969058	-0.311268
C115	C	1.186287	-0.859868	-0.325067
H116	H	1.131955	-0.841654	-0.356151
H117	H	1.191067	-0.818516	-0.246651
H118	H	1.228008	-0.831139	-0.383556
H119	H	0.749291	-0.673115	-0.672768
H120	H	1.107384	-1.271113	-0.438376
O121	O	0.754912	-0.418747	-0.419091
C122	C	0.706699	-0.356466	-0.357026
H123	H	0.654295	-0.396350	-0.350185
H124	H	0.727911	-0.346437	-0.275535
H125	H	0.698906	-0.276249	-0.395169
