data_functionalizedCrystal
_audit_creation_method	'MofGen! by Chris Wilmer'
_symmetry_space_group_name_H-M	'P1'
_symmetry_Int_Tables_number	1
_symmetry_cell_setting	triclinic
loop_
_symmetry_equiv_pos_as_xyz
  x,y,z
_cell_length_a	10.654550
_cell_length_b	10.654551
_cell_length_c	9.130313
_cell_angle_alpha	90.001552
_cell_angle_beta	89.996220
_cell_angle_gamma	84.485132
loop_
_atom_site_label
_atom_site_type_symbol
_atom_site_fract_x
_atom_site_fract_y
_atom_site_fract_z
O1	O	1.667835	0.176393	-0.121910
O2	O	1.302356	0.193199	-0.121885
O3	O	1.493498	0.002057	-0.121899
O4	O	1.476693	0.367535	-0.121896
O5	O	1.493496	0.002062	0.121700
O6	O	1.302354	0.193204	0.121713
O7	O	1.667832	0.176398	0.121689
Cu8	Cu	1.485093	0.184802	0.143944
Cu9	Cu	1.485096	0.184796	-0.144140
O10	O	1.476691	0.367540	0.121703
C11	C	1.255557	0.191968	-0.000083
C12	C	1.116114	0.188276	-0.000074
C13	C	1.036629	0.300817	-0.000095
C14	C	0.905608	0.297341	-0.000120
C15	C	0.933570	0.068771	-0.000110
C16	C	1.064589	0.072249	-0.000074
C17	C	1.088154	0.416844	-0.000094
C18	C	1.008667	0.529395	-0.000116
C19	C	0.877647	0.525918	-0.000142
C20	C	0.826112	0.409891	-0.000145
C21	C	1.492263	-0.044739	-0.000103
C22	C	1.488570	-0.184182	-0.000112
C23	C	1.486839	-0.249696	-0.132895
C24	C	1.483359	-0.380717	-0.132888
C25	C	1.483346	-0.380697	0.132696
C26	C	1.486817	-0.249678	0.132688
C27	C	1.488592	-0.184201	-0.265696
C28	C	1.486863	-0.249716	-0.398490
C29	C	1.483382	-0.380736	-0.398483
C30	C	1.481632	-0.446241	-0.265682
C31	C	1.714632	0.177629	-0.000117
C32	C	1.854075	0.181321	-0.000135
C33	C	1.477926	0.414336	-0.000097
C34	C	1.481619	0.553779	-0.000097
N35	N	1.485100	0.184805	0.346566
N36	N	1.485098	0.184782	-0.346763
C37	C	1.569760	0.100196	0.423212
C38	C	1.569756	0.100181	0.576549
C39	C	1.400430	0.269395	0.576581
C40	C	1.400428	0.269403	0.423246
C41	C	1.654431	0.015599	0.346532
C42	C	1.739099	-0.069016	0.423178
C43	C	1.739095	-0.069031	0.576515
C44	C	1.654425	0.015569	0.653206
H45	H	0.812931	0.617562	-0.000145
C46	C	0.630842	0.467118	-0.125410
C47	C	0.682092	0.406062	-0.000174
H48	H	0.541933	0.464745	-0.125435
H49	H	0.650147	0.552314	-0.125390
H50	H	0.665677	0.425685	-0.210341
H51	H	0.647264	0.447501	0.084758
H52	H	0.662776	0.320850	-0.000181
H53	H	0.891600	-0.025693	-0.000137
H54	H	1.194836	0.419687	-0.000080
C55	C	1.139802	0.665904	-0.125329
C56	C	1.065304	0.656929	-0.000114
H57	H	1.174757	0.744645	-0.125329
H58	H	1.205890	0.599387	-0.125304
H59	H	1.089274	0.659787	-0.210275
H60	H	1.115835	0.663037	0.084832
H61	H	0.999207	0.723465	-0.000126
C62	C	1.079079	-0.154032	-0.000102
C63	C	1.151969	-0.051457	-0.000071
H64	H	1.133027	-0.230402	-0.000107
H65	H	1.027380	-0.150641	0.084829
H66	H	1.027410	-0.150626	-0.085068
H67	H	1.203631	-0.054858	0.084901
H68	H	1.203689	-0.054850	-0.085011
H69	H	1.491429	-0.077518	-0.265716
C70	C	1.595701	-0.222561	-0.624876
C71	C	1.488774	-0.177709	-0.544454
H72	H	1.596870	-0.178109	-0.714992
H73	H	1.669367	-0.210023	-0.570324
H74	H	1.593368	-0.309966	-0.643874
H75	H	1.491111	-0.090305	-0.525447
H76	H	1.415089	-0.190236	-0.599018
H77	H	1.481961	-0.434073	-0.506609
H78	H	1.478779	-0.552925	-0.265687
H79	H	1.481921	-0.434042	0.240816
C80	C	1.772985	0.042058	0.126886
C81	C	1.654441	0.015608	0.177983
H82	H	1.772992	0.042057	0.022832
H83	H	1.790843	0.122483	0.161581
H84	H	1.835514	-0.020446	0.161575
H85	H	1.591913	0.078116	0.143303
H86	H	1.636569	-0.064829	0.143274
H87	H	1.488200	-0.196331	0.240812
H88	H	1.808028	-0.137901	0.360729
H89	H	1.808026	-0.137936	0.638919
C90	C	1.628053	-0.103028	0.872837
C91	C	1.654412	0.015546	0.821757
H92	H	1.628055	-0.103040	0.976892
H93	H	1.547646	-0.120946	0.838149
H94	H	1.690599	-0.165513	0.838130
H95	H	1.591861	0.078030	0.856456
H96	H	1.734830	0.033478	0.856461
H97	H	1.331496	0.338274	0.639032
C98	C	1.233071	0.436678	0.438667
C99	C	1.307377	0.362413	0.338986
H100	H	1.175629	0.494101	0.386644
H101	H	1.187444	0.383978	0.498467
H102	H	1.285750	0.482336	0.498478
H103	H	1.254699	0.316747	0.279182
H104	H	1.353008	0.415120	0.279161
