data_functionalizedCrystal
_audit_creation_method	'MofGen! by Chris Wilmer'
_symmetry_space_group_name_H-M	'P1'
_symmetry_Int_Tables_number	1
_symmetry_cell_setting	triclinic
loop_
_symmetry_equiv_pos_as_xyz
  x,y,z
_cell_length_a	17.699104
_cell_length_b	16.176319
_cell_length_c	17.699083
_cell_angle_alpha	89.992304
_cell_angle_beta	96.712734
_cell_angle_gamma	90.009138
loop_
_atom_site_label
_atom_site_type_symbol
_atom_site_fract_x
_atom_site_fract_y
_atom_site_fract_z
O1	O	-1.004069	-0.068781	0.095788
O2	O	-0.504069	0.431219	0.595788
O3	O	-0.783693	-0.068776	0.108224
O4	O	-0.283693	0.431224	0.608224
O5	O	-0.900107	-0.068771	-0.008183
O6	O	-0.400107	0.431229	0.491817
O7	O	-0.887655	-0.068785	0.212195
O8	O	-0.387655	0.431215	0.712195
O9	O	-0.900091	0.068722	-0.008190
O10	O	-0.400091	0.568722	0.491810
O11	O	-0.783677	0.068718	0.108217
O12	O	-0.283677	0.568718	0.608217
O13	O	-1.004053	0.068712	0.095781
O14	O	-0.504053	0.568712	0.595781
Cu15	Cu	-0.893863	0.081269	0.101998
Cu16	Cu	-0.393863	0.581269	0.601998
Cu17	Cu	-0.893882	-0.081332	0.102007
Cu18	Cu	-0.393882	0.418668	0.602007
O19	O	-0.887639	0.068708	0.212187
O20	O	-0.387639	0.568708	0.712187
C21	C	-0.755488	-0.000028	0.107772
C22	C	-0.255488	0.499972	0.607772
C23	C	-0.671471	-0.000026	0.106427
C24	C	-0.171471	0.499974	0.606427
N25	N	-0.893856	0.195634	0.101991
N26	N	-0.393856	0.695634	0.601991
C27	C	-0.146600	-0.000030	0.167171
C28	C	0.353400	0.499970	0.667171
C29	C	-0.225543	-0.000034	0.168430
C30	C	0.274457	0.499966	0.668430
C31	C	-0.274161	-0.000030	0.100095
C32	C	0.225839	0.499970	0.600095
C33	C	-0.243831	-0.000031	0.030496
C34	C	0.256169	0.499969	0.530496
C35	C	-0.164889	-0.000033	0.029238
C36	C	0.335111	0.499967	0.529238
C37	C	-0.562197	-0.000023	0.035569
C38	C	-0.062197	0.499977	0.535569
C39	C	-0.641144	-0.000018	0.036833
C40	C	-0.141144	0.499982	0.536833
C41	C	-0.622852	-0.000024	0.174762
C42	C	-0.122852	0.499976	0.674762
C43	C	-0.543909	-0.000026	0.173503
C44	C	-0.043909	0.499974	0.673503
C45	C	-0.513587	-0.000031	0.103905
C46	C	-0.013587	0.499969	0.603905
C47	C	-0.427987	-0.000029	0.102541
C48	C	0.072013	0.499971	0.602541
C49	C	-0.359759	-0.000027	0.101459
C50	C	0.140241	0.499973	0.601459
C51	C	-0.899653	-0.000024	-0.036383
C52	C	-0.399653	0.499976	0.463617
C53	C	-0.898314	-0.000024	-0.120402
C54	C	-0.398314	0.499976	0.379598
C55	C	-0.032258	-0.000033	0.096233
C56	C	0.467742	0.499967	0.596233
C57	C	-0.116275	-0.000029	0.097578
C58	C	0.383725	0.499971	0.597578
N59	N	-0.893896	-0.195698	0.102007
N60	N	-0.393896	0.304302	0.602007
C61	C	-0.945419	0.238901	0.050468
C62	C	-0.445419	0.738901	0.550468
C63	C	-0.945423	0.325448	0.050467
C64	C	-0.445423	0.825448	0.550467
C65	C	-0.893866	0.368727	0.101994
C66	C	-0.393866	0.868727	0.601994
C67	C	-0.842297	0.325455	0.153520
C68	C	-0.342297	0.825455	0.653520
C69	C	-0.842290	0.238909	0.153517
C70	C	-0.342290	0.738909	0.653517
C71	C	-0.842323	0.674483	0.153535
C72	C	-0.342323	1.174483	0.653535
C73	C	-0.842335	0.761035	0.153536
C74	C	-0.342335	1.261035	0.653536
C75	C	-0.945456	0.761021	0.050484
C76	C	-0.445456	1.261021	0.550484
C77	C	-0.945449	0.674476	0.050481
C78	C	-0.445449	1.174476	0.550481
C79	C	-0.893877	0.631211	0.102004
C80	C	-0.393877	1.131211	0.602004
C81	C	-0.893873	0.537367	0.102004
C82	C	-0.393873	1.037367	0.602004
C83	C	-0.893874	0.462570	0.101999
C84	C	-0.393874	0.962570	0.601999
C85	C	-0.966647	-0.000024	-0.169017
C86	C	-0.466647	0.499976	0.330983
C87	C	-0.965385	-0.000032	-0.247961
C88	C	-0.465385	0.499968	0.252039
C89	C	-0.895789	-0.000033	-0.278287
C90	C	-0.395789	0.499967	0.221713
C91	C	-0.827451	-0.000035	-0.229665
C92	C	-0.327451	0.499965	0.270335
C93	C	-0.828714	-0.000033	-0.150723
C94	C	-0.328714	0.499967	0.349277
C95	C	-0.822356	-0.000041	-0.548028
C96	C	-0.322356	0.499959	-0.048028
C97	C	-0.821098	-0.000040	-0.626976
C98	C	-0.321098	0.499960	-0.126976
C99	C	-0.959026	-0.000040	-0.645266
C100	C	-0.459026	0.499960	-0.145266
C101	C	-0.960289	-0.000038	-0.566324
C102	C	-0.460289	0.499962	-0.066324
C103	C	-0.891952	-0.000045	-0.517709
C104	C	-0.391952	0.499955	-0.017709
C105	C	-0.893321	-0.000038	-0.432110
C106	C	-0.393321	0.499962	0.067890
C107	C	-0.894419	-0.000033	-0.363885
C108	C	-0.394419	0.499967	0.136115
C109	C	-0.888093	-0.000041	0.240388
C110	C	-0.388093	0.499959	0.740388
C111	C	-0.889431	-0.000047	0.324406
C112	C	-0.389431	0.499953	0.824406
H113	H	-0.107020	-0.000027	0.222818
H114	H	0.392980	0.499973	0.722818
H115	H	-0.250230	-0.000043	0.225100
H116	H	0.249770	0.499957	0.725100
N117	N	-0.296263	-0.000020	-0.043211
N118	N	0.203737	0.499980	0.456789
H119	H	-0.286533	-0.050988	-0.073579
H120	H	0.213467	0.449012	0.426421
H121	H	-0.350853	0.000016	-0.031794
H122	H	0.149147	0.500016	0.468206
N123	N	-0.752385	-0.000041	-0.262369
N124	N	-0.252385	0.499959	0.237631
H125	H	-0.761952	-0.000039	-0.319755
H126	H	-0.261952	0.499961	0.180245
H127	H	-0.722484	0.050929	-0.244580
H128	H	-0.222484	0.550929	0.255420
H129	H	-0.537518	-0.000025	-0.021102
H130	H	-0.037518	0.499975	0.478898
H131	H	-0.800301	0.203683	0.195472
H132	H	-0.300301	0.703683	0.695472
N133	N	-0.755013	-0.000038	-0.098283
N134	N	-0.255013	0.499962	0.401717
H135	H	-0.710732	-0.000038	-0.129472
H136	H	-0.210732	0.499962	0.370528
H137	H	-0.752524	0.050932	-0.065135
H138	H	-0.252524	0.550932	0.434865
H139	H	-0.680728	-0.000017	-0.018817
H140	H	-0.180728	0.499983	0.481183
H141	H	-0.504328	-0.000025	0.229149
H142	H	-0.004328	0.499975	0.729149
N143	N	-1.001022	0.192213	-0.005106
N144	N	-0.501022	0.692213	0.494894
H145	H	-1.054723	0.207254	0.003544
H146	H	-0.554723	0.707254	0.503544
H147	H	-0.992341	0.207303	-0.058789
H148	H	-0.492341	0.707303	0.441211
H149	H	-0.140200	-0.000033	-0.027432
H150	H	0.359800	0.499967	0.472568
H151	H	-0.766711	-0.000046	-0.508455
H152	H	-0.266711	0.499954	-0.008455
N153	N	-0.786690	0.372126	0.209102
N154	N	-0.286690	0.872126	0.709102
H155	H	-0.732991	0.357083	0.200447
H156	H	-0.232991	0.857083	0.700447
H157	H	-0.794583	0.433504	0.201264
H158	H	-0.294583	0.933504	0.701264
H159	H	-0.647550	-0.000023	0.231432
H160	H	-0.147550	0.499977	0.731432
N161	N	-1.035356	-0.000033	-0.533621
N162	N	-0.535356	0.499967	-0.033621
H163	H	-1.065292	-0.051003	-0.551351
H164	H	-0.565292	0.448997	-0.051351
H165	H	-1.025725	0.000001	-0.476240
H166	H	-0.525725	0.500001	0.023760
H167	H	-0.987410	0.360675	0.008512
H168	H	-0.487410	0.860675	0.508512
H169	H	-1.014670	-0.000039	-0.684858
H170	H	-0.514670	0.499961	-0.184858
H171	H	-1.023320	-0.000019	-0.144333
H172	H	-0.523320	0.499981	0.355667
H173	H	-0.987434	0.639241	0.008525
H174	H	-0.487434	1.139241	0.508525
H175	H	-0.764421	-0.000039	-0.651664
H176	H	-0.264421	0.499961	-0.151664
H177	H	-0.800333	0.639264	0.195488
H178	H	-0.300333	1.139264	0.695488
H179	H	-1.021028	-0.000030	-0.287541
H180	H	-0.521028	0.499970	0.212459
H181	H	-0.987446	0.796257	0.008529
H182	H	-0.487446	1.296257	0.508529
N183	N	-0.786721	0.807718	0.209109
N184	N	-0.286721	1.307718	0.709109
H185	H	-0.754046	0.767178	0.241746
H186	H	-0.254046	1.267178	0.741746
H187	H	-0.753329	0.843641	0.180164
H188	H	-0.253329	1.343641	0.680164
