data_functionalizedCrystal
_audit_creation_method	'MofGen! by Chris Wilmer'
_symmetry_space_group_name_H-M	'P1'
_symmetry_Int_Tables_number	1
_symmetry_cell_setting	triclinic
loop_
_symmetry_equiv_pos_as_xyz
  x,y,z
_cell_length_a	27.435584
_cell_length_b	27.434948
_cell_length_c	27.431174
_cell_angle_alpha	60.005483
_cell_angle_beta	60.011353
_cell_angle_gamma	59.993028
loop_
_atom_site_label
_atom_site_type_symbol
_atom_site_fract_x
_atom_site_fract_y
_atom_site_fract_z
O1	O	0.067437	-0.712144	0.595551
O2	O	0.567437	-0.212144	1.095551
O3	O	0.025356	-0.554453	0.479848
O4	O	0.525356	-0.054453	0.979848
O5	O	0.125206	-0.654236	0.479781
O6	O	0.625206	-0.154236	0.979781
O7	O	-0.032412	-0.612361	0.595618
O8	O	0.467588	-0.112361	1.095618
O9	O	0.158328	-0.621117	0.512835
O10	O	0.658328	-0.121117	1.012835
O11	O	0.058479	-0.521333	0.512902
O12	O	0.558479	-0.021333	1.012902
O13	O	0.100560	-0.679025	0.628605
O14	O	0.600560	-0.179025	1.128605
Zn15	Zn	0.084778	-0.594921	0.576001
Zn16	Zn	0.584778	-0.094921	1.076001
Zn17	Zn	0.041138	-0.638557	0.532452
Zn18	Zn	0.541138	-0.138557	1.032452
O19	O	0.000710	-0.579241	0.628672
O20	O	0.500710	-0.079241	1.128672
N21	N	0.114563	-0.565144	0.605726
N22	N	0.614563	-0.065144	1.105726
N23	N	0.011358	-0.668338	0.502727
N24	N	0.511358	-0.168338	1.002727
C25	C	0.156385	-0.523520	0.904506
C26	C	0.656385	-0.023520	1.404506
C27	C	0.413419	-0.523497	0.647322
C28	C	0.913419	-0.023497	1.147322
C29	C	0.156253	-0.523488	0.647384
C30	C	0.656253	-0.023488	1.147384
C31	C	0.156238	-0.266354	0.647407
C32	C	0.656238	0.233646	1.147407
C33	C	0.197637	-0.390463	0.688753
C34	C	0.697637	0.109537	1.188753
C35	C	0.197646	-0.482126	0.688741
C36	C	0.697646	0.017874	1.188741
C37	C	0.220575	-0.459215	0.711654
C38	C	0.720575	0.040785	1.211654
C39	C	0.320555	-0.441991	0.659023
C40	C	0.820555	0.058009	1.159023
C41	C	0.383051	-0.462825	0.638179
C42	C	0.883051	0.037175	1.138179
C43	C	0.383069	-0.563942	0.676737
C44	C	0.883069	-0.063942	1.176737
C45	C	0.320575	-0.543107	0.697583
C46	C	0.820575	-0.043107	1.197583
C47	C	0.212704	-0.359206	0.627313
C48	C	0.712704	0.140794	1.127313
C49	C	0.191849	-0.296705	0.606496
C50	C	0.691849	0.203295	1.106496
C51	C	0.140866	-0.296722	0.708562
C52	C	0.640866	0.203278	1.208562
C53	C	0.161721	-0.359223	0.729379
C54	C	0.661721	0.140777	1.229379
C55	C	0.136200	-0.467030	0.703858
C56	C	0.636200	0.032970	1.203858
C57	C	0.115361	-0.487857	0.683021
C58	C	0.615361	0.012143	1.183021
C59	C	0.217408	-0.538877	0.631968
C60	C	0.717408	-0.038877	1.131968
C61	C	0.238249	-0.518050	0.652796
C62	C	0.738249	-0.018050	1.152796
C63	C	0.136259	-0.467047	0.811668
C64	C	0.636259	0.032953	1.311668
C65	C	0.115461	-0.487892	0.874167
C66	C	0.615461	0.012108	1.374167
C67	C	0.217537	-0.538923	0.874131
C68	C	0.717537	-0.038923	1.374131
C69	C	0.238333	-0.518080	0.811631
C70	C	0.738333	-0.018080	1.311631
C71	C	0.197693	-0.482140	0.780401
C72	C	0.697693	0.017860	1.280401
C73	C	0.289320	-0.482131	0.688723
C74	C	0.789320	0.017869	1.188723
C75	C	0.132699	-0.546027	0.973247
C76	C	0.632699	-0.046027	1.473247
C77	C	0.482158	-0.545613	0.624075
C78	C	0.982158	-0.045613	1.124075
C79	C	0.132521	-0.546006	0.624886
C80	C	0.632521	-0.046006	1.124886
C81	C	0.132917	-0.197607	0.625310
C82	C	0.632917	0.302393	1.125310
C83	C	-0.098217	-0.686189	0.484419
C84	C	0.401783	-0.186189	0.984419
C85	C	-0.006438	-0.686322	0.392891
C86	C	0.493562	-0.186322	0.892891
C87	C	-0.006621	-0.777944	0.484592
C88	C	0.493379	-0.277944	0.984592
C89	C	-0.006606	-0.686315	0.484649
C90	C	0.493394	-0.186315	0.984649
C91	C	-0.029470	-0.709193	0.461638
C92	C	0.470530	-0.209193	0.961638
N93	N	0.538410	-0.565162	0.605628
N94	N	1.038410	-0.065162	1.105628
O95	O	0.742647	-0.575135	0.458625
O96	O	1.242647	-0.075135	0.958625
O97	O	0.742821	-0.691181	0.616169
O98	O	1.242821	-0.191181	1.116169
O99	O	0.742757	-0.690917	0.516248
O100	O	1.242757	-0.190917	1.016248
O101	O	0.742711	-0.575399	0.558546
O102	O	1.242711	-0.075399	1.058546
O103	O	0.643472	-0.657878	0.549405
O104	O	1.143472	-0.157878	1.049405
O105	O	0.643536	-0.658142	0.649326
O106	O	1.143536	-0.158142	1.149326
O107	O	0.643362	-0.542096	0.491782
O108	O	1.143362	-0.042096	0.991782
Zn109	Zn	0.627685	-0.594873	0.575818
Zn110	Zn	1.127685	-0.094873	1.075818
Zn111	Zn	0.758498	-0.638404	0.532133
Zn112	Zn	1.258498	-0.138404	1.032133
O113	O	0.643426	-0.542360	0.591702
O114	O	1.143426	-0.042360	1.091702
N115	N	0.847774	-0.668115	0.502317
N116	N	1.347774	-0.168115	1.002317
N117	N	0.114542	-0.141354	0.605766
N118	N	0.614542	0.358646	1.105766
O119	O	-0.032397	0.062987	0.595660
O120	O	0.467603	0.562987	1.095660
O121	O	0.125155	0.062987	0.479633
O122	O	0.625155	0.562987	0.979633
O123	O	0.025219	0.062974	0.479910
O124	O	0.525219	0.562974	0.979910
O125	O	0.067539	0.063001	0.595383
O126	O	0.567539	0.563001	1.095383
O127	O	0.058343	-0.036320	0.513009
O128	O	0.558343	0.463680	1.013009
O129	O	0.158279	-0.036306	0.512732
O130	O	0.658279	0.463694	1.012732
O131	O	0.000728	-0.036306	0.628759
O132	O	0.500728	0.463694	1.128759
Zn133	Zn	0.084763	-0.052071	0.576000
Zn134	Zn	0.584763	0.447929	1.076000
Zn135	Zn	0.041120	0.078752	0.532392
Zn136	Zn	0.541120	0.578752	1.032392
O137	O	0.100664	-0.036292	0.628482
O138	O	0.600664	0.463708	1.128482
N139	N	0.011333	0.168036	0.502628
N140	N	0.511333	0.668036	1.002628
N141	N	0.114782	-0.565197	1.029501
N142	N	0.614782	-0.065197	1.529501
O143	O	0.104681	-0.712124	1.233827
O144	O	0.604681	-0.212124	1.733827
O145	O	-0.011334	-0.554523	1.233839
O146	O	0.488666	-0.054523	1.733839
O147	O	-0.011066	-0.654443	1.233797
O148	O	0.488934	-0.154443	1.733797
O149	O	0.104414	-0.612204	1.233869
O150	O	0.604414	-0.112204	1.733869
O151	O	0.022028	-0.621336	1.134509
O152	O	0.522028	-0.121336	1.634509
O153	O	0.021760	-0.521417	1.134551
O154	O	0.521760	-0.021417	1.634551
O155	O	0.137775	-0.679018	1.134539
O156	O	0.637775	-0.179018	1.634539
Zn157	Zn	0.085022	-0.594961	1.118780
Zn158	Zn	0.585022	-0.094961	1.618780
Zn159	Zn	0.041420	-0.638580	1.249597
Zn160	Zn	0.541420	-0.138580	1.749597
O161	O	0.137508	-0.579098	1.134580
O162	O	0.637508	-0.079098	1.634580
N163	N	0.011658	-0.668350	1.338876
N164	N	0.511658	-0.168350	1.838876
C165	C	0.037974	-0.518023	0.480435
C166	C	0.537974	-0.018023	0.980435
C167	C	0.161625	-0.641592	0.480351
C168	C	0.661625	-0.141592	0.980351
C169	C	0.087941	-0.715455	0.628017
C170	C	0.587941	-0.215455	1.128017
C171	C	-0.035710	-0.591885	0.628101
C172	C	0.464290	-0.091885	1.128101
C173	C	0.693199	-0.690642	0.652596
C174	C	1.193199	-0.190642	1.152596
C175	C	0.693122	-0.690315	0.528855
C176	C	1.193122	-0.190315	1.028855
C177	C	0.692981	-0.542634	0.455356
C178	C	1.192981	-0.042634	0.955356
C179	C	0.693062	-0.542961	0.579095
C180	C	1.193062	-0.042961	1.079095
C181	C	0.161524	0.013463	0.480164
C182	C	0.661524	0.513463	0.980164
C183	C	0.037807	0.013324	0.480547
C184	C	0.537807	0.513324	0.980547
C185	C	-0.035683	0.013341	0.628188
C186	C	0.464317	0.513341	1.128188
C187	C	0.088076	0.013357	0.627845
C188	C	0.588076	0.513357	1.127845
C189	C	-0.010764	-0.518114	1.184196
C190	C	0.489236	-0.018114	1.684196
C191	C	-0.010426	-0.641846	1.184125
C192	C	0.489574	-0.141846	1.684125
C193	C	0.137205	-0.715426	1.184182
C194	C	0.637205	-0.215426	1.684182
C195	C	0.136875	-0.591687	1.184231
C196	C	0.636875	-0.091687	1.684231
H197	H	0.065433	-0.475593	0.899616
H198	H	0.565433	0.024407	1.399616
H199	H	-0.046689	-0.650868	1.184063
H200	H	0.453311	-0.150868	1.684063
H201	H	-0.080982	-0.582959	0.664476
H202	H	0.419018	-0.082959	1.164476
O203	O	0.180735	-0.769381	1.184153
O204	O	0.680735	-0.269381	1.684153
C205	C	0.232108	-0.769386	1.184193
C206	C	0.732108	-0.269386	1.684193
H207	H	0.231400	-0.721499	1.165411
H208	H	0.731400	-0.221499	1.665411
H209	H	0.232806	-0.790730	1.231833
H210	H	0.732806	-0.290730	1.731833
C211	C	0.289112	-0.864065	1.168324
C212	C	0.789112	-0.364065	1.668324
C213	C	0.288244	-0.805249	1.145251
C214	C	0.788244	-0.305249	1.645251
H215	H	0.323739	-0.886188	1.144305
H216	H	0.823739	-0.386188	1.644305
H217	H	0.254500	-0.864063	1.168299
H218	H	0.754500	-0.364063	1.668299
H219	H	0.289690	-0.881843	1.208023
H220	H	0.789690	-0.381843	1.708023
H221	H	0.287657	-0.787469	1.105555
H222	H	0.787657	-0.287469	1.605555
H223	H	0.322857	-0.805248	1.145268
H224	H	0.822857	-0.305248	1.645268
H225	H	0.692924	-0.506199	0.410112
H226	H	1.192924	-0.006199	0.910112
O227	O	0.215634	-0.652140	0.436931
O228	O	0.715634	-0.152140	0.936931
C229	C	0.242114	-0.611159	0.420874
C230	C	0.742114	-0.111159	0.920874
H231	H	0.205940	-0.569849	0.432894
H232	H	0.705940	-0.069849	0.932894
H233	H	0.274664	-0.632787	0.445972
H234	H	0.774664	-0.132787	0.945972
C235	C	0.320365	-0.643714	0.338433
C236	C	0.820365	-0.143714	0.838433
C237	C	0.275934	-0.592975	0.353191
C238	C	0.775934	-0.092975	0.853191
H239	H	0.341229	-0.632499	0.296684
H240	H	0.841229	-0.132499	0.796684
H241	H	0.302526	-0.671326	0.349251
H242	H	0.802526	-0.171326	0.849251
H243	H	0.347483	-0.661733	0.359352
H244	H	0.847483	-0.161733	0.859352
H245	H	0.248813	-0.574962	0.332278
H246	H	0.748813	-0.074962	0.832278
H247	H	0.293769	-0.565360	0.342367
H248	H	0.793769	-0.065360	0.842367
H249	H	-0.047187	-0.472851	1.184199
H250	H	0.452813	0.027149	1.684199
O251	O	0.180102	-0.580804	1.184221
O252	O	0.680102	-0.080804	1.684221
C253	C	0.158354	-0.522122	1.184249
C254	C	0.658354	-0.022122	1.684249
H255	H	0.120031	-0.493866	1.165446
H256	H	0.620031	0.006134	1.665446
H257	H	0.141704	-0.523001	1.231888
H258	H	0.641704	-0.023001	1.731888
C259	C	0.255925	-0.529703	1.168423
C260	C	0.755925	-0.029703	1.668423
C261	C	0.208859	-0.494999	1.145324
C262	C	0.708859	0.005001	1.645324
H263	H	0.287079	-0.512973	1.144414
H264	H	0.787079	-0.012973	1.644414
H265	H	0.270577	-0.569240	1.168407
H266	H	0.770577	-0.069240	1.668407
H267	H	0.242042	-0.530434	1.208122
H268	H	0.742042	-0.030434	1.708122
H269	H	0.222740	-0.494275	1.105629
H270	H	0.722740	0.005725	1.605629
H271	H	0.194211	-0.455461	1.145333
H272	H	0.694211	0.044539	1.645333
H273	H	0.097136	0.013366	0.664120
H274	H	0.597136	0.513366	1.164120
H275	H	-0.080930	0.013340	0.664614
H276	H	0.419070	0.513340	1.164614
O277	O	0.247562	-0.389461	0.587771
O278	O	0.747562	0.110539	1.087771
C279	C	0.256393	-0.348468	0.529077
C280	C	0.756393	0.151532	1.029077
H281	H	0.218707	-0.303918	0.529204
H282	H	0.718707	0.196082	1.029204
H283	H	0.300911	-0.341818	0.511157
H284	H	0.800911	0.158182	1.011157
C285	C	0.303098	-0.427570	0.488843
C286	C	0.803098	0.072430	0.988843
C287	C	0.256808	-0.372854	0.488998
C288	C	0.756808	0.127146	0.988998
H289	H	0.303357	-0.442613	0.464119
H290	H	0.803357	0.057387	0.964119
H291	H	0.297151	-0.455188	0.528386
H292	H	0.797151	0.044812	1.028386
H293	H	0.340192	-0.422021	0.473910
H294	H	0.840192	0.077979	0.973910
H295	H	0.219716	-0.378405	0.503937
H296	H	0.719716	0.121595	1.003937
H297	H	0.262750	-0.345237	0.449456
H298	H	0.762750	0.154763	0.949456
H299	H	0.028745	0.013321	0.444270
H300	H	0.528745	0.513321	0.944270
O301	O	0.027193	-0.464011	0.437063
O302	O	0.527193	0.035989	0.937063
C303	C	-0.021150	-0.453347	0.423327
C304	C	0.478850	0.046653	0.923327
H305	H	-0.025898	-0.497690	0.436496
H306	H	0.474102	0.002310	0.936496
H307	H	-0.063946	-0.424593	0.449015
H308	H	0.436054	0.075407	0.949015
C309	C	-0.003900	-0.366177	0.339660
C310	C	0.496100	0.133823	0.839660
C311	C	-0.009729	-0.420640	0.355829
C312	C	0.490271	0.079360	0.855829
H313	H	0.003143	-0.345999	0.298025
H314	H	0.503143	0.154001	0.798025
H315	H	0.028668	-0.373359	0.348915
H316	H	0.528668	0.126641	0.848915
H317	H	-0.039565	-0.342222	0.361071
H318	H	0.460435	0.157778	0.861071
H319	H	0.025938	-0.444596	0.334424
H320	H	0.525938	0.055404	0.834424
H321	H	-0.042291	-0.413461	0.346569
H322	H	0.457709	0.086539	0.846569
O323	O	0.693034	-0.733557	0.518068
O324	O	1.193034	-0.233557	1.018068
C325	C	0.641599	-0.713009	0.504030
C326	C	1.141599	-0.213009	1.004030
H327	H	0.605649	-0.675952	0.523319
H328	H	1.105649	-0.175952	1.023319
H329	H	0.653182	-0.694988	0.453475
H330	H	1.153182	-0.194988	0.953475
C331	C	0.662485	-0.810479	0.507241
C332	C	1.162485	-0.310479	1.007241
C333	C	0.618328	-0.764968	0.530937
C334	C	1.118328	-0.264968	1.030937
H335	H	0.648131	-0.842529	0.523835
H336	H	1.148131	-0.342529	1.023835
H337	H	0.697139	-0.824322	0.516696
H338	H	1.197139	-0.324322	1.016696
H339	H	0.672133	-0.795454	0.465113
H340	H	1.172133	-0.295454	0.965113
H341	H	0.608686	-0.779991	0.573063
H342	H	1.108686	-0.279991	1.073063
H343	H	0.583672	-0.751128	0.521489
H344	H	1.083672	-0.251128	1.021489
O345	O	0.693153	-0.499684	0.589826
O346	O	1.193153	0.000316	1.089826
C347	C	0.744531	-0.483578	0.548873
C348	C	1.244531	0.016422	1.048873
H349	H	0.780481	-0.521812	0.531349
H350	H	1.280481	-0.021812	1.031349
H351	H	0.732855	-0.442001	0.510027
H352	H	1.232855	0.057999	1.010027
C353	C	0.723712	-0.423540	0.601809
C354	C	1.223712	0.076460	1.101809
C355	C	0.767868	-0.470502	0.580290
C356	C	1.267868	0.029498	1.080290
H357	H	0.738106	-0.415471	0.621186
H358	H	1.238106	0.084529	1.121186
H359	H	0.689096	-0.434389	0.629398
H360	H	1.189096	0.065611	1.129398
H361	H	0.713986	-0.388898	0.569433
H362	H	1.213986	0.111102	1.069433
H363	H	0.777588	-0.505145	0.612666
H364	H	1.277588	-0.005145	1.112666
H365	H	0.802486	-0.459658	0.552706
H366	H	1.302486	0.040342	1.052706
O367	O	0.096697	-0.432163	0.781424
O368	O	0.596697	0.067837	1.281424
C369	C	0.038012	-0.423296	0.822423
C370	C	0.538012	0.076704	1.322423
H371	H	0.038149	-0.460980	0.866967
H372	H	0.538149	0.039020	1.366967
H373	H	0.020108	-0.378775	0.829077
H374	H	0.520108	0.121225	1.329077
C375	C	-0.002258	-0.376561	0.743336
C376	C	0.497742	0.123439	1.243336
C377	C	-0.002090	-0.422849	0.798044
C378	C	0.497910	0.077151	1.298044
H379	H	-0.026996	-0.376283	0.728298
H380	H	0.473004	0.123717	1.228298
H381	H	0.037279	-0.382533	0.715714
H382	H	0.537279	0.117467	1.215714
H383	H	-0.017177	-0.339465	0.748889
H384	H	0.482823	0.160535	1.248889
H385	H	0.012836	-0.459944	0.792489
H386	H	0.512836	0.040056	1.292489
H387	H	-0.041625	-0.416883	0.825665
H388	H	0.458375	0.083117	1.325665
O389	O	0.098747	-0.769536	0.671297
O390	O	0.598747	-0.269536	1.171297
C391	C	0.157422	-0.806567	0.649650
C392	C	0.657422	-0.306567	1.149650
H393	H	0.173175	-0.790301	0.598798
H394	H	0.673175	-0.290301	1.098798
H395	H	0.188305	-0.804926	0.664762
H396	H	0.688305	-0.304926	1.164762
C397	C	0.139167	-0.891187	0.736738
C398	C	0.639167	-0.391187	1.236738
C399	C	0.158514	-0.871211	0.674282
C400	C	0.658514	-0.371211	1.174282
H401	H	0.139843	-0.931062	0.751934
H402	H	0.639843	-0.431062	1.251934
H403	H	0.099638	-0.866238	0.751323
H404	H	0.599638	-0.366238	1.251323
H405	H	0.164906	-0.889814	0.749323
H406	H	0.664906	-0.389814	1.249323
H407	H	0.132772	-0.872577	0.661698
H408	H	0.632772	-0.372577	1.161698
H409	H	0.198040	-0.896161	0.659695
H410	H	0.698040	-0.396161	1.159695
H411	H	0.288361	-0.530376	0.786177
H412	H	0.788361	-0.030376	1.286177
O413	O	0.257097	-0.573840	0.904371
O414	O	0.757097	-0.073840	1.404371
C415	C	0.315779	-0.582672	0.863369
C416	C	0.815779	-0.082672	1.363369
H417	H	0.315643	-0.575686	0.818824
H418	H	0.815643	-0.075686	1.318824
H419	H	0.333675	-0.549402	0.856719
H420	H	0.833675	-0.049402	1.356719
C421	C	0.356060	-0.655280	0.942449
C422	C	0.856060	-0.155280	1.442449
C423	C	0.355893	-0.646704	0.887739
C424	C	0.855893	-0.146704	1.387739
H425	H	0.380805	-0.694777	0.957481
H426	H	0.880805	-0.194777	1.457481
H427	H	0.316525	-0.649328	0.970073
H428	H	0.816525	-0.149328	1.470073
H429	H	0.370972	-0.627551	0.936899
H430	H	0.870972	-0.127551	1.436899
H431	H	0.340974	-0.674428	0.893290
H432	H	0.840974	-0.174428	1.393290
H433	H	0.395427	-0.652662	0.860116
H434	H	0.895427	-0.152662	1.360116
O435	O	0.055688	-0.473303	0.697725
O436	O	0.555688	0.026697	1.197725
C437	C	0.040609	-0.525820	0.729190
C438	C	0.540609	-0.025820	1.229190
H439	H	0.081800	-0.565086	0.717899
H440	H	0.581800	-0.065086	1.217899
H441	H	0.023476	-0.534612	0.779212
H442	H	0.523476	-0.034612	1.279212
C443	C	-0.058953	-0.470043	0.725107
C444	C	0.441047	0.029957	1.225107
C445	C	-0.008362	-0.518269	0.711236
C446	C	0.491638	-0.018269	1.211236
H447	H	-0.089163	-0.465385	0.714034
H448	H	0.410837	0.034615	1.214034
H449	H	-0.048795	-0.434661	0.703910
H450	H	0.451205	0.065339	1.203910
H451	H	-0.073223	-0.477375	0.766792
H452	H	0.426777	0.022625	1.266792
H453	H	0.005911	-0.510933	0.669550
H454	H	0.505911	-0.010933	1.169550
H455	H	-0.018519	-0.553651	0.732425
H456	H	0.481481	-0.053651	1.232425
H457	H	0.103135	-0.437780	0.733124
H458	H	0.603135	0.062220	1.233124
H459	H	0.250475	-0.568133	0.602707
H460	H	0.750475	-0.068133	1.102707
O461	O	0.693152	-0.734093	0.706597
O462	O	1.193152	-0.234093	1.206597
C463	C	0.641766	-0.750165	0.733029
C464	C	1.141766	-0.250165	1.233029
H465	H	0.605790	-0.711831	0.713309
H466	H	1.105790	-0.211831	1.213309
H467	H	0.653413	-0.791612	0.723884
H468	H	1.153413	-0.291612	1.223884
C469	C	0.662688	-0.810595	0.825114
C470	C	1.162688	-0.310595	1.325114
C471	C	0.618499	-0.763511	0.800897
C472	C	1.118499	-0.263511	1.300897
H473	H	0.648336	-0.818831	0.866978
H474	H	1.148336	-0.318831	1.366978
H475	H	0.697309	-0.799769	0.807306
H476	H	1.197309	-0.299769	1.307306
H477	H	0.672389	-0.845129	0.817487
H478	H	1.172389	-0.345129	1.317487
H479	H	0.608803	-0.728977	0.808517
H480	H	1.108803	-0.228977	1.308517
H481	H	0.583876	-0.774331	0.818707
H482	H	1.083876	-0.274331	1.318707
H483	H	0.295144	-0.575796	0.721768
H484	H	0.795144	-0.075796	1.221768
O485	O	0.297957	-0.532772	0.638066
O486	O	0.797957	-0.032772	1.138066
C487	C	0.329328	-0.568924	0.601851
C488	C	0.829328	-0.068924	1.101851
H489	H	0.299535	-0.591663	0.609841
H490	H	0.799535	-0.091663	1.109841
H491	H	0.342753	-0.540071	0.552902
H492	H	0.842753	-0.040071	1.052902
C493	C	0.422300	-0.588744	0.607808
C494	C	0.922300	-0.088744	1.107808
C495	C	0.385710	-0.616676	0.617625
C496	C	0.885710	-0.116676	1.117625
H497	H	0.457080	-0.618198	0.617536
H498	H	0.957080	-0.118198	1.117536
H499	H	0.401165	-0.564386	0.632205
H500	H	0.901165	-0.064386	1.132205
H501	H	0.433481	-0.564701	0.567017
H502	H	0.933481	-0.064701	1.067017
H503	H	0.374524	-0.640712	0.658417
H504	H	0.874524	-0.140712	1.158417
H505	H	0.406844	-0.641039	0.593236
H506	H	0.906844	-0.141039	1.093236
O507	O	0.413528	-0.623152	0.685267
O508	O	0.913528	-0.123152	1.185267
C509	C	0.475386	-0.632935	0.660513
C510	C	0.975386	-0.132935	1.160513
H511	H	0.483903	-0.589924	0.624690
H512	H	0.983903	-0.089924	1.124690
H513	H	0.493140	-0.647340	0.697089
H514	H	0.993140	-0.147340	1.197089
C515	C	0.497005	-0.735093	0.676455
C516	C	0.997005	-0.235093	1.176455
C517	C	0.507466	-0.682266	0.632453
C518	C	1.007466	-0.182266	1.132453
H519	H	0.516795	-0.765524	0.659149
H520	H	1.016795	-0.265524	1.159149
H521	H	0.455330	-0.728503	0.693134
H522	H	0.955330	-0.228503	1.193134
H523	H	0.511801	-0.747088	0.706932
H524	H	1.011801	-0.247088	1.206932
H525	H	0.492664	-0.670268	0.601981
H526	H	0.992664	-0.170268	1.101981
H527	H	0.549140	-0.688855	0.615768
H528	H	1.049140	-0.188855	1.115768
O529	O	0.215444	0.013713	0.436671
O530	O	0.715444	0.513713	0.936671
C531	C	0.260668	-0.037602	0.456843
C532	C	0.760668	0.462398	0.956843
H533	H	0.244407	-0.054937	0.507728
H534	H	0.744407	0.445063	1.007728
H535	H	0.271980	-0.073556	0.439754
H536	H	0.771980	0.426444	0.939754
C537	C	0.336725	-0.000381	0.370725
C538	C	0.836725	0.499619	0.870725
C539	C	0.316755	-0.021669	0.433224
C540	C	0.816755	0.478331	0.933224
H541	H	0.371323	0.009446	0.356154
H542	H	0.871323	0.509446	0.856154
H543	H	0.306257	0.034190	0.357134
H544	H	0.806257	0.534190	0.857134
H545	H	0.346147	-0.030346	0.356493
H546	H	0.846147	0.469654	0.856493
H547	H	0.307326	0.008299	0.447455
H548	H	0.807326	0.508299	0.947455
H549	H	0.347222	-0.056235	0.446817
H550	H	0.847222	0.443765	0.946817
O551	O	0.413365	-0.423795	0.609236
O552	O	0.913365	0.076205	1.109236
C553	C	0.398055	-0.381359	0.557725
C554	C	0.898055	0.118641	1.057725
H555	H	0.380866	-0.400616	0.543366
H556	H	0.880866	0.099384	1.043366
H557	H	0.361777	-0.339228	0.567949
H558	H	0.861777	0.160772	1.067949
C559	C	0.474666	-0.342251	0.524676
C560	C	0.974666	0.157749	1.024676
C561	C	0.453559	-0.365905	0.507038
C562	C	0.953559	0.134095	1.007038
H563	H	0.508903	-0.332716	0.493411
H564	H	1.008903	0.167284	0.993411
H565	H	0.484980	-0.370840	0.559382
H566	H	0.984980	0.129160	1.059382
H567	H	0.444429	-0.307145	0.533197
H568	H	0.944429	0.192855	1.033197
H569	H	0.483793	-0.401014	0.498525
H570	H	0.983793	0.098986	0.998525
H571	H	0.443252	-0.337322	0.472330
H572	H	0.943252	0.162678	0.972330
O573	O	0.206380	-0.266311	0.546816
O574	O	0.706380	0.233689	1.046816
C575	C	0.153852	-0.230145	0.531733
C576	C	0.653852	0.269855	1.031733
H577	H	0.116322	-0.248986	0.566971
H578	H	0.616322	0.251014	1.066971
H579	H	0.140693	-0.182780	0.529667
H580	H	0.640693	0.317220	1.029667
C581	C	0.211041	-0.206028	0.427164
C582	C	0.711041	0.293972	0.927164
C583	C	0.164948	-0.229172	0.470442
C584	C	0.664948	0.270828	0.970442
H585	H	0.217885	-0.205426	0.389357
H586	H	0.717885	0.294574	0.889357
H587	H	0.246430	-0.230392	0.437326
H588	H	0.746430	0.269608	0.937326
H589	H	0.200069	-0.166560	0.425451
H590	H	0.700069	0.333440	0.925451
H591	H	0.175923	-0.268642	0.472161
H592	H	0.675923	0.231358	0.972161
H593	H	0.129560	-0.204815	0.460279
H594	H	0.629560	0.295185	0.960279
H595	H	0.111630	-0.271286	0.741644
H596	H	0.611630	0.228714	1.241644
O597	O	0.147157	-0.389564	0.789070
O598	O	0.647157	0.110436	1.289070
C599	C	0.168528	-0.374287	0.815027
C600	C	0.668528	0.125713	1.315027
H601	H	0.207059	-0.357099	0.779440
H602	H	0.707059	0.142901	1.279440
H603	H	0.131035	-0.338015	0.834767
H604	H	0.631035	0.161985	1.334767
C605	C	0.143147	-0.450926	0.908495
C606	C	0.643147	0.049074	1.408495
C607	C	0.190475	-0.429819	0.864787
C608	C	0.690475	0.070181	1.364787
H609	H	0.156682	-0.485179	0.939191
H610	H	0.656682	0.014821	1.439191
H611	H	0.128747	-0.461217	0.891008
H612	H	0.628747	0.038783	1.391008
H613	H	0.111907	-0.420694	0.924938
H614	H	0.611907	0.079306	1.424938
H615	H	0.221711	-0.460048	0.848339
H616	H	0.721711	0.039952	1.348339
H617	H	0.204881	-0.419535	0.882272
H618	H	0.704881	0.080465	1.382272
H619	H	0.295112	-0.392340	0.651807
H620	H	0.795112	0.107660	1.151807
