data_functionalizedCrystal
_audit_creation_method	'MofGen! by Chris Wilmer'
_symmetry_space_group_name_H-M	'P1'
_symmetry_Int_Tables_number	1
_symmetry_cell_setting	triclinic
loop_
_symmetry_equiv_pos_as_xyz
  x,y,z
_cell_length_a	10.967819
_cell_length_b	11.026607
_cell_length_c	7.088929
_cell_angle_alpha	82.408099
_cell_angle_beta	84.222558
_cell_angle_gamma	96.381100
loop_
_atom_site_label
_atom_site_type_symbol
_atom_site_fract_x
_atom_site_fract_y
_atom_site_fract_z
O1	O	1.649730	0.225306	-0.702524
O2	O	1.297412	0.232575	-0.586448
O3	O	1.444372	0.051288	-0.634859
O4	O	1.502771	0.406592	-0.654113
O5	O	1.463999	0.027004	-0.323349
O6	O	1.317040	0.208291	-0.274938
O7	O	1.669358	0.201022	-0.391014
Cu8	Cu	1.494991	0.202439	-0.304533
Cu9	Cu	1.471779	0.231158	-0.672929
O10	O	1.522398	0.382309	-0.342603
C11	C	1.261421	0.218068	-0.415602
C12	C	1.124932	0.211007	-0.370634
C13	C	0.912851	0.213156	-0.465517
C14	C	1.053920	0.220444	-0.511982
C15	C	1.443412	-0.006433	-0.475557
C16	C	1.411295	-0.142244	-0.464982
C17	C	1.499974	-0.213017	-0.494201
C18	C	1.466782	-0.353386	-0.483273
C19	C	1.705349	0.215529	-0.561864
C20	C	1.841837	0.222592	-0.606845
C21	C	1.523358	0.440030	-0.501910
C22	C	1.555474	0.575843	-0.512497
N23	N	1.511325	0.182240	-0.045426
N24	N	1.455452	0.251348	-0.932039
H25	H	1.081301	0.197539	-0.215228
C26	C	0.854825	0.194995	-0.258214
C27	C	0.883181	0.083973	-0.162893
C28	C	0.829765	0.067210	0.028086
H29	H	0.767735	0.192401	-0.254254
H30	H	0.886467	0.261527	-0.197272
H31	H	0.851533	0.017458	-0.223818
H32	H	0.970260	0.086541	-0.166800
H33	H	0.861407	0.133742	0.089028
H34	H	0.742678	0.064621	0.032027
H35	H	0.849006	-0.008113	0.092790
C36	C	1.332726	-0.411041	-0.439507
C37	C	1.264528	-0.361114	-0.580652
C38	C	1.141038	-0.414209	-0.540415
H39	H	1.299776	-0.394267	-0.317895
H40	H	1.328167	-0.497707	-0.438115
H41	H	1.269079	-0.274469	-0.582025
H42	H	1.297439	-0.377886	-0.702278
H43	H	1.136480	-0.500875	-0.539023
H44	H	1.108101	-0.397432	-0.418800
H45	H	1.094753	-0.380350	-0.636184
H46	H	1.097554	0.233926	-0.667388
H47	H	1.397545	0.322963	0.005391
C48	C	0.900194	0.240748	-0.813973
C49	C	0.982464	0.349952	-0.851033
C50	C	1.036254	0.366710	-1.041815
H51	H	0.837485	0.245805	-0.896823
H52	H	0.943607	0.172983	-0.835390
H53	H	0.939052	0.417700	-0.829636
H54	H	1.045195	0.344921	-0.768231
H55	H	1.079667	0.298945	-1.063232
H56	H	0.973536	0.371762	-1.124649
H57	H	1.092088	0.440799	-1.066980
C58	C	1.633911	-0.155034	-0.538228
C59	C	1.640209	-0.027341	-0.540251
C60	C	1.763575	0.026108	-0.580776
H61	H	1.666823	-0.171703	-0.659925
H62	H	1.680411	-0.188716	-0.442617
H63	H	1.593727	0.006330	-0.635856
H64	H	1.607323	-0.010636	-0.418570
H65	H	1.810075	-0.007574	-0.485165
H66	H	1.796477	0.009430	-0.702472
H67	H	1.767866	0.112751	-0.582136
H68	H	1.655967	-0.380826	-0.545749
H69	H	1.310799	-0.185571	-0.431885
C70	C	1.588430	0.086564	0.037796
C71	C	1.539154	-0.030550	0.005453
C72	C	1.610156	-0.118713	0.082070
H73	H	1.587370	0.087782	0.171681
H74	H	1.671084	0.104976	-0.022211
H75	H	1.456522	-0.048957	0.065466
H76	H	1.540217	-0.031809	-0.128415
H77	H	1.692810	-0.100302	0.022062
H78	H	1.609091	-0.117484	0.215951
H79	H	1.576739	-0.198184	0.060121
