data_functionalizedCrystal
_audit_creation_method	'MofGen! by Chris Wilmer'
_symmetry_space_group_name_H-M	'P1'
_symmetry_Int_Tables_number	1
_symmetry_cell_setting	triclinic
loop_
_symmetry_equiv_pos_as_xyz
  x,y,z
_cell_length_a	10.686220
_cell_length_b	12.759394
_cell_length_c	10.686551
_cell_angle_alpha	94.406554
_cell_angle_beta	89.691918
_cell_angle_gamma	94.396533
loop_
_atom_site_label
_atom_site_type_symbol
_atom_site_fract_x
_atom_site_fract_y
_atom_site_fract_z
Zn1	Zn	1.972288	-0.256139	0.562381
Zn2	Zn	1.956059	-0.446299	0.352619
Zn3	Zn	1.746406	-0.283015	0.368698
Zn4	Zn	1.762489	-0.444170	0.578397
O5	O	1.859311	-0.357405	0.465524
O6	O	2.145677	-0.271007	0.521124
O7	O	1.914725	-0.436778	0.179206
O8	O	1.776431	-0.132423	0.394417
O9	O	2.133754	-0.410717	0.367013
O10	O	1.942386	-0.112677	0.536715
O11	O	1.760695	-0.316813	0.191020
O12	O	1.572998	-0.314749	0.409947
O13	O	1.803842	-0.407088	0.751818
O14	O	1.584814	-0.433149	0.564012
O15	O	1.957980	-0.268943	0.740052
O16	O	1.930320	-0.593043	0.382543
O17	O	1.788105	-0.591479	0.548421
C18	C	1.533390	-0.376635	0.490463
C19	C	1.393962	-0.384885	0.501162
C20	C	1.859233	-0.630379	0.465499
C21	C	1.859318	-0.747149	0.465522
C22	C	2.007536	-0.748709	0.292904
C23	C	2.081679	-0.804347	0.206608
C24	C	2.081755	-0.914062	0.206636
C25	C	2.007683	-0.968141	0.292973
C26	C	1.933540	-0.912503	0.379270
C27	C	1.933469	-0.802786	0.379229
C28	C	1.785331	-0.910942	0.551891
C29	C	1.785246	-0.801228	0.551859
C30	C	1.711259	-0.965022	0.638228
C31	C	1.637107	-0.909384	0.724521
C32	C	1.637033	-0.799663	0.724488
C33	C	1.711103	-0.745590	0.638155
C34	C	2.186504	-0.338102	0.440489
C35	C	2.325934	-0.329875	0.429820
C36	C	1.884515	-0.334780	0.792725
C37	C	1.895256	-0.325138	0.932158
C38	C	1.859425	-0.083362	0.465573
C39	C	1.859473	0.033420	0.465595
C40	C	1.834276	-0.379863	0.139591
C41	C	1.823778	-0.389194	0.000139
H42	H	2.141990	-0.760306	0.136315
C43	C	1.259493	-0.396662	0.681060
C44	C	1.328594	-0.456990	0.594673
H45	H	1.219145	-0.441177	0.738793
H46	H	1.198141	-0.363270	0.637734
H47	H	1.314340	-0.344635	0.725255
H48	H	1.273746	-0.509013	0.550471
H49	H	1.389954	-0.490399	0.638004
C50	C	1.592121	-0.754779	0.941545
C51	C	1.555536	-0.738509	0.819353
H52	H	1.541802	-0.717031	1.000110
H53	H	1.677788	-0.730477	0.953495
H54	H	1.581565	-0.827864	0.953901
H55	H	1.566101	-0.665424	0.806993
H56	H	1.469848	-0.762805	0.807398
C57	C	1.460407	-0.318101	0.249934
C58	C	1.391302	-0.257772	0.336317
H59	H	1.500773	-0.273584	0.192215
H60	H	1.405571	-0.370117	0.205734
H61	H	1.521758	-0.351502	0.293273
H62	H	1.329944	-0.224377	0.292979
H63	H	1.446143	-0.205737	0.380522
C64	C	1.923975	-0.172691	1.078345
C65	C	1.988967	-0.241135	0.997581
H66	H	1.981828	-0.120828	1.118726
H67	H	1.880591	-0.211584	1.139672
H68	H	1.865444	-0.139229	1.031403
H69	H	2.047493	-0.274603	1.044524
H70	H	2.032373	-0.202236	0.936246
C71	C	2.088112	-0.592393	0.198864
C72	C	2.007446	-0.628110	0.292864
H73	H	2.088061	-0.517939	0.198845
H74	H	2.060251	-0.624137	0.119574
H75	H	2.170738	-0.610867	0.214438
H76	H	1.924818	-0.609642	0.277285
H77	H	2.035302	-0.596355	0.372172
C78	C	2.228249	-0.904597	0.035991
C79	C	2.163250	-0.975226	0.111777
H80	H	2.278553	-0.942361	-0.022574
H81	H	2.280381	-0.855142	0.086997
H82	H	2.169891	-0.868402	-0.007864
H83	H	2.221608	-1.011416	0.155640
H84	H	2.111114	-1.024700	0.060764
H85	H	1.754370	-0.451414	0.951670
C86	C	2.129589	-1.115938	0.315955
C87	C	2.007781	-1.088740	0.293009
H88	H	2.129648	-1.190392	0.315969
H89	H	2.157422	-1.084196	0.395255
H90	H	2.184301	-1.091683	0.252185
H91	H	1.953070	-1.112988	0.356784
H92	H	1.979932	-1.120494	0.213698
C93	C	1.630686	-1.121333	0.732278
C94	C	1.711349	-1.085621	0.638273
H95	H	1.630748	-1.195786	0.732310
H96	H	1.548068	-1.102868	0.716707
H97	H	1.658552	-1.089577	0.811574
H98	H	1.683476	-1.117371	0.558975
H99	H	1.793983	-1.104097	0.653836
C100	C	1.429373	-0.951623	0.801750
C101	C	1.555697	-0.968824	0.819419
H102	H	1.379115	-0.988316	0.860343
H103	H	1.404605	-0.976569	0.718867
H104	H	1.418725	-0.878316	0.814078
H105	H	1.566346	-1.042130	0.807081
H106	H	1.580472	-0.943883	0.902321
H107	H	1.711041	-0.656256	0.638113
