data_functionalizedCrystal
_audit_creation_method	'MofGen! by Chris Wilmer'
_symmetry_space_group_name_H-M	'P1'
_symmetry_Int_Tables_number	1
_symmetry_cell_setting	triclinic
loop_
_symmetry_equiv_pos_as_xyz
  x,y,z
_cell_length_a	23.096457
_cell_length_b	18.760492
_cell_length_c	18.760487
_cell_angle_alpha	90.032206
_cell_angle_beta	60.020851
_cell_angle_gamma	59.999895
loop_
_atom_site_label
_atom_site_type_symbol
_atom_site_fract_x
_atom_site_fract_y
_atom_site_fract_z
Zr1	Zr	0.633729	-0.093087	0.686708
O2	O	0.754515	-0.206967	0.572901
O3	O	0.512943	-0.058181	0.721593
O4	O	0.633729	-0.206882	0.721604
O5	O	0.633728	0.059037	0.572883
O6	O	0.633728	-0.206810	0.838907
O7	O	0.633729	-0.058266	0.572889
O8	O	0.417664	0.059189	0.838887
O9	O	0.849793	-0.206962	0.572904
O10	O	0.562623	-0.043235	0.824016
O11	O	0.562623	0.044253	0.736470
O12	O	0.704833	-0.130823	0.736483
O13	O	0.704833	-0.043335	0.648937
Zr14	Zr	0.633728	0.094113	0.873782
Zr15	Zr	0.633728	-0.092972	0.873792
Zr16	Zr	0.633728	0.093998	0.686698
Zr17	Zr	0.785686	-0.093079	0.686712
Zr18	Zr	0.481771	0.094105	0.873778
O19	O	0.754514	0.059207	0.838897
O20	O	0.754514	-0.206803	0.838911
O21	O	0.754514	0.059043	0.572887
O22	O	0.512942	0.207993	0.987589
O23	O	0.512942	-0.058017	0.987603
O24	O	0.512942	0.207829	0.721579
O25	O	0.633728	-0.058011	0.987607
O26	O	0.633728	0.207908	0.838886
O27	O	0.633728	0.207836	0.721583
O28	O	0.633728	0.059292	0.987601
O29	O	0.849792	-0.206871	0.721611
O30	O	0.417664	0.207896	0.838879
O31	O	0.417664	0.207988	0.987586
O32	O	0.417664	0.059281	0.987594
O33	O	0.849792	-0.058255	0.572896
O34	O	0.849792	-0.058163	0.721603
O35	O	0.562623	0.131849	0.824007
O36	O	0.562623	0.044361	0.911553
O37	O	0.704833	-0.043227	0.824020
O38	O	0.704833	0.044261	0.736474
C39	C	0.443653	0.000503	0.780239
C40	C	0.379143	0.000500	0.780237
C41	C	0.633729	0.000369	0.546231
C42	C	0.633729	0.000320	0.466808
C43	C	0.633728	0.234527	0.780233
C44	C	0.633728	0.313949	0.780229
C45	C	0.348842	-0.045171	0.825929
C46	C	0.288220	-0.045164	0.825938
C47	C	0.257912	0.000502	0.780237
C48	C	0.288217	0.046183	0.734543
C49	C	0.348833	0.046182	0.734543
N50	N	0.195517	-0.005880	0.705872
N51	N	0.137936	-0.005883	0.705873
C52	C	0.075280	0.000510	0.780236
N53	N	0.072388	0.006891	0.854596
N54	N	0.129977	0.006890	0.854593
C55	C	0.192185	0.000509	0.780233
C56	C	-0.020755	-0.045155	0.825942
C57	C	-0.081382	-0.045142	0.825953
C58	C	-0.081378	0.046200	0.734549
C59	C	-0.020757	0.046192	0.734547
C60	C	0.009553	0.000510	0.780241
C61	C	0.823804	0.000523	0.780251
C62	C	0.888314	0.000526	0.780253
C63	C	0.633729	-0.233501	0.780257
C64	C	0.633729	-0.312923	0.780261
C65	C	0.559493	0.695487	0.825952
C66	C	0.707963	0.604039	0.734566
C67	C	0.707964	0.529417	0.734557
C68	C	0.633729	0.537827	0.780248
C69	C	0.559492	0.620859	0.825947
C70	C	0.782200	0.446379	0.688866
C71	C	0.782204	0.371751	0.688857
C72	C	0.707967	0.380160	0.734543
C73	C	0.633728	0.463199	0.780243
C74	C	0.559492	0.471609	0.825933
C75	C	0.485252	0.554648	0.871628
C76	C	0.485256	0.629269	0.871632
C77	C	0.707963	0.305539	0.734538
C78	C	0.559491	0.396982	0.825928
C79	C	0.707963	-0.045055	0.085300
C80	C	0.559494	0.046388	0.176691
C81	C	0.559492	0.046313	0.251313
C82	C	0.633728	0.000552	0.242931
C83	C	0.707964	-0.045134	0.159928
C84	C	0.485257	0.091991	0.334321
C85	C	0.485253	0.091917	0.408949
C86	C	0.559489	0.046161	0.400569
C87	C	0.633729	0.000474	0.317559
C88	C	0.707964	-0.045287	0.309177
C89	C	0.782205	-0.090970	0.226168
C90	C	0.782201	-0.090890	0.151547
C91	C	0.559493	0.046081	0.475190
C92	C	0.707965	-0.045366	0.383805
C93	C	0.633728	0.000657	1.014259
C94	C	0.633728	0.000706	1.093682
C95	C	0.443653	0.000647	1.014253
C96	C	0.379143	0.000693	1.093674
C97	C	0.443653	0.234517	0.780227
C98	C	0.379143	0.313936	0.780221
C99	C	0.443652	0.234661	1.014241
C100	C	0.379142	0.314129	1.093657
C101	C	0.823804	-0.233635	0.546249
C102	C	0.888314	-0.313103	0.466833
C103	C	0.823804	0.000379	0.546237
C104	C	0.888314	0.000333	0.466816
C105	C	0.823804	-0.233491	0.780263
C106	C	0.888314	-0.312910	0.780269
C107	C	0.348848	-0.045018	1.085277
C108	C	0.288243	-0.044993	1.159893
C109	C	0.257928	0.000749	1.242906
C110	C	0.288229	0.046461	1.251301
C111	C	0.348838	0.046430	1.176686
C112	C	0.348848	0.396964	0.825911
C113	C	0.288243	0.471594	0.825902
C114	C	0.257929	0.463194	0.780207
C115	C	0.288229	0.380157	0.734511
C116	C	0.348838	0.305529	0.734515
C117	C	0.348848	0.305780	1.176658
C118	C	0.288242	0.380441	1.251285
C119	C	0.257928	0.463451	1.242910
C120	C	0.288229	0.471798	1.159900
C121	C	0.348837	0.397138	1.085275
C122	C	0.918616	-0.304754	0.383832
C123	C	0.979241	-0.379415	0.309205
C124	C	1.009558	-0.462425	0.317580
C125	C	0.979254	-0.470772	0.400590
C126	C	0.918634	-0.396112	0.475215
C127	C	0.918615	0.046036	0.475213
C128	C	0.979237	0.045990	0.400597
C129	C	1.009553	0.000246	0.317584
C130	C	0.979250	-0.045462	0.309189
C131	C	0.918633	-0.045421	0.383804
C132	C	0.918609	-0.304482	0.825973
C133	C	0.979215	-0.379098	0.825996
C134	C	1.009529	-0.462140	0.780309
C135	C	0.979228	-0.470566	0.734604
C136	C	0.918619	-0.395952	0.734587
H137	H	0.373517	-0.082366	0.863139
H138	H	0.499048	0.083283	0.542772
Br139	Br	0.389979	0.193134	1.188050
H140	H	0.263577	0.373629	1.318869
Br141	Br	1.091828	-0.563743	0.216293
Br142	Br	0.808714	-0.107042	-0.027348
H143	H	0.208577	0.524237	1.303682
Br144	Br	0.247077	-0.107138	0.887966
H145	H	1.058912	0.000220	0.256834
H146	H	0.893936	0.083292	0.542800
Br147	Br	1.020385	-0.583274	0.672596
Br148	Br	0.389957	0.108171	0.672529
H149	H	0.373495	0.403948	1.017695
Br150	Br	1.020348	0.108030	0.412011
H151	H	0.208577	0.523968	0.780211
Br152	Br	0.882956	0.259065	0.626840
Br153	Br	0.458738	0.408405	0.887931
H154	H	0.842638	0.439540	0.651675
H155	H	0.424809	0.561485	0.908833
Br156	Br	0.882949	-0.153076	0.214805
Br157	Br	0.020379	-0.107145	0.887960
Br158	Br	0.882946	-0.152882	0.038894
Br159	Br	0.247077	0.108537	1.363969
Br160	Br	0.877519	-0.407406	0.672545
Br161	Br	1.020400	-0.107537	0.196521
H162	H	1.058881	-0.522889	0.780330
Br163	Br	0.808709	0.192853	0.672539
H164	H	0.263538	0.539394	1.153093
Br165	Br	0.247132	0.584275	0.887925
Br166	Br	0.877513	-0.407458	0.587857
Br167	Br	0.877514	-0.107448	0.372393
Br168	Br	0.247080	0.368772	0.672500
Br169	Br	0.877482	-0.191791	0.887984
Br170	Br	-0.122505	-0.107132	0.887968
Br171	Br	0.389941	0.192851	0.672504
Br172	Br	0.877483	-0.192108	0.372441
Br173	Br	1.020354	-0.368067	0.196560
H174	H	1.003879	-0.372220	0.863214
Br175	Br	0.458751	0.108482	0.188062
H176	H	0.373529	-0.082277	1.017690
H177	H	0.263536	0.083366	0.697334
H178	H	-0.106053	0.083382	0.697339
H179	H	0.003917	0.083379	0.697336
H180	H	0.424813	0.696882	0.908837
H181	H	0.263579	-0.082216	1.153041
Br182	Br	0.175673	0.000782	1.344163
H183	H	0.499048	0.763099	0.863153
Br184	Br	0.808706	0.592628	0.672570
H185	H	0.768418	-0.082621	0.376970
H186	H	0.424819	0.129247	0.341137
Br187	Br	0.384501	0.153915	0.521596
H188	H	0.373523	0.403820	0.863122
Br189	Br	0.389940	0.108477	1.188097
H190	H	1.003946	-0.538367	0.407399
