data_functionalizedCrystal
_audit_creation_method	'MofGen! by Chris Wilmer'
_symmetry_space_group_name_H-M	'P1'
_symmetry_Int_Tables_number	1
_symmetry_cell_setting	triclinic
loop_
_symmetry_equiv_pos_as_xyz
  x,y,z
_cell_length_a	17.699083
_cell_length_b	16.176319
_cell_length_c	17.699083
_cell_angle_alpha	90.007696
_cell_angle_beta	96.716985
_cell_angle_gamma	89.998611
loop_
_atom_site_label
_atom_site_type_symbol
_atom_site_fract_x
_atom_site_fract_y
_atom_site_fract_z
O1	O	1.004079	-0.068632	-0.095713
O2	O	0.783700	-0.068660	-0.108166
O3	O	0.900116	-0.068638	0.008250
O4	O	0.887663	-0.068654	-0.212129
O5	O	0.900100	0.068855	0.008257
O6	O	0.783684	0.068834	-0.108158
O7	O	1.004063	0.068861	-0.095706
Cu8	Cu	0.893872	0.081401	-0.101931
Cu9	Cu	0.893891	-0.081200	-0.101940
O10	O	0.887647	0.068839	-0.212121
C11	C	0.755495	0.000084	-0.107716
C12	C	0.671477	0.000073	-0.106377
N13	N	0.893864	0.195767	-0.101925
N14	N	0.893905	-0.195565	-0.101941
C15	C	0.622856	0.000069	-0.174710
C16	C	0.543913	0.000079	-0.173448
C17	C	0.513592	0.000089	-0.103852
C18	C	0.562219	0.000096	-0.035513
C19	C	0.641161	0.000091	-0.036776
C20	C	0.243856	0.000117	-0.030418
C21	C	0.164908	0.000120	-0.029160
C22	C	0.146608	0.000105	-0.167090
C23	C	0.225550	0.000100	-0.168353
C24	C	0.274170	0.000112	-0.100015
C25	C	0.359769	0.000102	-0.101384
C26	C	0.427995	0.000093	-0.102481
C27	C	1.032268	0.000116	-0.096156
C28	C	1.116286	0.000121	-0.097494
C29	C	0.899662	0.000109	0.036451
C30	C	0.898323	0.000109	0.120469
C31	C	0.945429	0.239040	-0.050397
C32	C	0.945432	0.325588	-0.050396
C33	C	0.893875	0.368859	-0.101927
C34	C	0.842305	0.325579	-0.153457
C35	C	0.842299	0.239034	-0.153454
C36	C	0.842331	0.674608	-0.153472
C37	C	0.842344	0.761159	-0.153473
C38	C	0.945465	0.761161	-0.050414
C39	C	0.945458	0.674616	-0.050410
C40	C	0.893886	0.631344	-0.101937
C41	C	0.893882	0.537499	-0.101937
C42	C	0.893883	0.462702	-0.101932
C43	C	0.888102	0.000091	-0.240322
C44	C	0.889440	0.000085	-0.324340
C45	C	0.966656	0.000119	0.169090
C46	C	0.965394	0.000111	0.248033
C47	C	0.895798	0.000100	0.278354
C48	C	0.827459	0.000088	0.229727
C49	C	0.828722	0.000089	0.150785
C50	C	0.822364	0.000080	0.548090
C51	C	0.821106	0.000081	0.627038
C52	C	0.959036	0.000102	0.645338
C53	C	0.960299	0.000104	0.566396
C54	C	0.891961	0.000087	0.517776
C55	C	0.893330	0.000094	0.432177
C56	C	0.894427	0.000099	0.363951
H57	H	0.504328	0.000075	-0.229092
H58	H	0.987416	0.203814	-0.008438
C59	C	0.234240	-0.070592	-0.286316
C60	C	0.258871	0.000088	-0.244859
H61	H	0.254805	-0.070593	-0.333551
H62	H	0.250942	-0.118528	-0.258190
H63	H	0.180265	-0.070580	-0.295333
H64	H	0.312845	0.000074	-0.235837
H65	H	0.242173	0.048037	-0.272991
C66	C	0.797646	0.647961	-0.284555
C67	C	0.785651	0.627054	-0.210119
H68	H	0.762655	0.618597	-0.319528
H69	H	0.790276	0.705691	-0.291920
H70	H	0.848141	0.633759	-0.292699
H71	H	0.735157	0.641261	-0.201973
H72	H	0.793014	0.569311	-0.202750
C73	C	0.631547	-0.070622	-0.292674
C74	C	0.656178	0.000057	-0.251216
H75	H	0.652114	-0.070623	-0.339909
H76	H	0.648249	-0.118559	-0.264549
H77	H	0.577573	-0.070610	-0.301692
H78	H	0.710152	0.000042	-0.242193
H79	H	0.639480	0.048007	-0.279347
H80	H	0.537526	0.000116	0.021154
C81	C	0.017468	0.000117	-0.226411
C82	C	0.093162	0.000104	-0.242211
H83	H	-0.015524	0.000119	-0.272788
H84	H	0.008290	-0.047822	-0.197874
H85	H	0.008301	0.048072	-0.197867
H86	H	0.102330	-0.047855	-0.270751
H87	H	0.102343	0.048048	-0.270760
C88	C	0.990162	0.787818	0.080675
C89	C	1.002147	0.808729	0.006237
H90	H	1.025158	0.817181	0.115645
H91	H	0.939675	0.802012	0.088826
H92	H	0.997539	0.730081	0.088038
H93	H	0.994764	0.866466	-0.001129
H94	H	1.052647	0.794541	-0.001917
H95	H	0.987444	0.639387	-0.008451
C96	C	1.095509	0.000128	0.655497
C97	C	1.034158	0.000111	0.698783
H98	H	1.141884	0.000140	0.688492
H99	H	1.093139	-0.047815	0.624321
H100	H	1.093118	0.048080	0.624331
H101	H	1.036546	-0.047844	0.729945
H102	H	1.036529	0.048059	0.729972
C103	C	0.796531	0.458245	-0.199231
C104	C	0.785633	0.373142	-0.210104
H105	H	0.761547	0.487605	-0.234208
H106	H	0.788406	0.472437	-0.148735
H107	H	0.847030	0.472409	-0.207389
H108	H	0.735136	0.358977	-0.201940
H109	H	0.793753	0.358944	-0.260612
C110	C	0.651327	0.000093	0.099693
C111	C	0.694609	0.000089	0.038338
H112	H	0.684324	0.000088	0.146066
H113	H	0.620160	0.048039	0.097321
H114	H	0.620151	-0.047855	0.097307
H115	H	0.725780	0.048041	0.040720
H116	H	0.725788	-0.047862	0.040711
C117	C	0.746031	-0.070602	0.307883
C118	C	0.750958	0.000076	0.263056
H119	H	0.698803	-0.070603	0.328462
H120	H	0.749392	-0.118540	0.277462
H121	H	0.786553	-0.070587	0.348136
H122	H	0.710439	0.000057	0.222800
H123	H	0.747590	0.048026	0.293479
H124	H	0.764429	0.000074	0.651721
C125	C	0.190924	0.000153	0.107063
C126	C	0.131579	0.000139	0.047346
H127	H	0.170345	0.000169	0.154291
H128	H	0.221332	-0.047792	0.103708
H129	H	0.221334	0.048102	0.103696
H130	H	0.101171	-0.047814	0.050711
H131	H	0.101157	0.048089	0.050703
H132	H	0.766718	0.000067	0.508512
H133	H	1.023330	0.000133	0.144409
H134	H	0.773078	0.000081	0.111198
C135	C	0.740371	0.247719	-0.255333
C136	C	0.785621	0.191464	-0.210099
H137	H	0.705382	0.218350	-0.290305
H138	H	0.713211	0.281483	-0.223864
H139	H	0.771834	0.281467	-0.282519
H140	H	0.754159	0.157720	-0.182908
H141	H	0.812783	0.157686	-0.241572
C142	C	1.047386	0.316897	0.051455
C143	C	1.002125	0.373154	0.006233
H144	H	1.082392	0.346264	0.086411
H145	H	1.015938	0.283156	0.078651
H146	H	1.074534	0.283126	0.019969
H147	H	0.974973	0.406921	0.037719
H148	H	1.033577	0.406909	-0.020965
C149	C	0.372988	0.000115	0.028900
C150	C	0.297294	0.000118	0.044698
H151	H	0.405979	0.000118	0.075277
H152	H	0.382161	-0.047830	0.000357
H153	H	0.382162	0.048065	0.000363
H154	H	0.288119	-0.047836	0.073231
H155	H	0.288118	0.048067	0.073254
C156	C	0.711236	0.787830	-0.198066
C157	C	0.785662	0.808728	-0.210112
H158	H	0.676247	0.817202	-0.233029
H159	H	0.703852	0.730101	-0.205444
H160	H	0.703133	0.802027	-0.147558
H161	H	0.793767	0.794525	-0.260619
H162	H	0.793049	0.866469	-0.202741
C163	C	1.082590	-0.070541	0.287917
C164	C	1.040512	0.000127	0.301473
H165	H	1.128969	-0.070528	0.320905
H166	H	1.054057	-0.118486	0.297094
H167	H	1.093290	-0.070527	0.236559
H168	H	1.029806	0.000109	0.352829
H169	H	1.069050	0.048084	0.292301
C170	C	1.041741	-0.070565	0.488226
C171	C	1.036800	0.000114	0.533067
H172	H	1.088969	-0.070557	0.467648
H173	H	1.038389	-0.118502	0.518637
H174	H	1.001220	-0.070559	0.447973
H175	H	1.077319	0.000105	0.573323
H176	H	1.040159	0.048064	0.502653
