data_functionalizedCrystal
_audit_creation_method	'MofGen! by Chris Wilmer'
_symmetry_space_group_name_H-M	'P1'
_symmetry_Int_Tables_number	1
_symmetry_cell_setting	triclinic
loop_
_symmetry_equiv_pos_as_xyz
  x,y,z
_cell_length_a	13.032831
_cell_length_b	12.645330
_cell_length_c	13.032268
_cell_angle_alpha	97.151313
_cell_angle_beta	90.886977
_cell_angle_gamma	82.822813
loop_
_atom_site_label
_atom_site_type_symbol
_atom_site_fract_x
_atom_site_fract_y
_atom_site_fract_z
Zn1	Zn	1.498478	-0.715929	-0.780858
Zn2	Zn	1.998478	-0.215929	-0.280858
Zn3	Zn	1.520220	-0.873876	-0.608884
Zn4	Zn	2.020220	-0.373876	-0.108884
Zn5	Zn	1.348336	-0.671644	-0.587098
Zn6	Zn	1.848336	-0.171644	-0.087098
Zn7	Zn	1.326468	-0.868144	-0.759009
Zn8	Zn	1.826468	-0.368144	-0.259009
O9	O	1.423375	-0.782398	-0.683962
O10	O	1.923375	-0.282398	-0.183962
O11	O	1.645282	-0.757814	-0.776307
O12	O	2.145282	-0.257814	-0.276307
O13	O	1.515670	-0.830915	-0.462076
O14	O	2.015670	-0.330915	0.037924
O15	O	1.368306	-0.529182	-0.612827
O16	O	1.868306	-0.029182	-0.112827
O17	O	1.661256	-0.873856	-0.649958
O18	O	2.161256	-0.373856	-0.149958
O19	O	1.478614	-0.561718	-0.755182
O20	O	1.978614	-0.061718	-0.255182
O21	O	1.389388	-0.682336	-0.446071
O22	O	1.889388	-0.182336	0.053929
O23	O	1.201515	-0.676778	-0.591641
O24	O	1.701515	-0.176778	-0.091641
O25	O	1.331034	-0.864087	-0.905824
O26	O	1.831034	-0.364087	-0.405824
O27	O	1.185448	-0.821146	-0.717943
O28	O	1.685448	-0.321146	-0.217943
O29	O	1.457409	-0.752256	-0.921877
O30	O	1.957409	-0.252256	-0.421877
O31	O	1.494465	-1.021452	-0.628771
O32	O	1.994465	-0.521452	-0.128771
O33	O	1.352116	-1.017241	-0.739067
O34	O	1.852116	-0.517241	-0.239067
C35	C	1.156164	-0.743535	-0.650057
C36	C	1.656164	-0.243535	-0.150057
C37	C	1.041847	-0.726938	-0.635577
C38	C	1.541847	-0.226938	-0.135577
C39	C	0.982971	-0.791061	-0.691519
C40	C	1.482971	-0.291061	-0.191519
C41	C	0.864818	-0.773908	-0.676555
C42	C	1.364818	-0.273908	-0.176555
C43	C	1.423302	-1.057816	-0.683938
C44	C	1.923302	-0.557816	-0.183938
C45	C	1.423360	-1.175658	-0.683974
C46	C	1.923360	-0.675658	-0.183974
C47	C	1.334105	-1.340692	-0.753648
C48	C	1.834105	-0.840692	-0.253648
C49	C	1.333733	-1.218045	-0.753341
C50	C	1.833733	-0.718045	-0.253341
C51	C	1.407793	-1.203807	-0.571873
C52	C	1.907793	-0.703807	-0.071873
C53	C	1.407248	-1.326389	-0.572295
C54	C	1.907248	-0.826389	-0.072295
C55	C	1.528779	-1.361707	-0.725584
C56	C	2.028779	-0.861707	-0.225584
C57	C	1.527810	-1.239270	-0.727870
C58	C	2.027810	-0.739270	-0.227870
C59	C	1.691630	-0.821414	-0.718000
C60	C	2.191630	-0.321414	-0.218000
C61	C	1.805944	-0.838040	-0.732505
C62	C	2.305944	-0.338040	-0.232505
C63	C	1.389357	-0.812472	-0.952210
C64	C	1.889357	-0.312472	-0.452210
C65	C	1.374860	-0.825288	-1.066522
C66	C	1.874860	-0.325288	-0.566522
C67	C	1.423474	-0.505912	-0.684012
C68	C	1.923474	-0.005912	-0.184012
C69	C	1.423516	-0.388090	-0.684033
C70	C	1.923516	0.111910	-0.184033
C71	C	1.430925	-0.775669	-1.125428
C72	C	1.930925	-0.275669	-0.625428
C73	C	1.415944	-0.788914	-1.243575
C74	C	1.915944	-0.288914	-0.743575
C75	C	1.457320	-0.752374	-0.416765
C76	C	1.957320	-0.252374	0.083235
C77	C	1.472016	-0.739288	-0.302479
C78	C	1.972016	-0.239288	0.197521
H79	H	1.341878	-1.199591	-0.836032
H80	H	1.841878	-0.699591	-0.336032
H81	H	1.470292	-1.357178	-0.517917
H82	H	1.970292	-0.857178	-0.017917
O83	O	1.344256	-1.395598	-0.863366
O84	O	1.844256	-0.895598	-0.363366
H85	H	1.413181	-1.457200	-0.869476
H86	H	1.913181	-0.957200	-0.369476
O87	O	1.337657	-0.858171	-1.292612
O88	O	1.837657	-0.358171	-0.792612
H89	H	1.377503	-0.924251	-1.347386
H90	H	1.877503	-0.424251	-0.847386
O91	O	1.305868	-1.345587	-0.527788
O92	O	1.805868	-0.845587	-0.027788
H93	H	1.304476	-1.433152	-0.527640
H94	H	1.804476	-0.933152	-0.027640
H95	H	1.595223	-1.392760	-0.675049
H96	H	2.095223	-0.892760	-0.175049
H97	H	1.004781	-0.659337	-0.576608
H98	H	1.504781	-0.159337	-0.076608
O99	O	0.855027	-0.927584	-0.810633
O100	O	1.355027	-0.427584	-0.310633
H101	H	0.793923	-0.971940	-0.849341
H102	H	1.293923	-0.471940	-0.349341
O103	O	1.509198	-0.706408	-1.076377
O104	O	2.009198	-0.206408	-0.576377
H105	H	1.547983	-0.672069	-1.137498
H106	H	2.047983	-0.172069	-0.637498
O107	O	1.032061	-0.880600	-0.769642
O108	O	1.532061	-0.380600	-0.269642
H109	H	0.970960	-0.924958	-0.808351
H110	H	1.470960	-0.424958	-0.308351
H111	H	1.256264	-1.357903	-0.725332
H112	H	1.756264	-0.857903	-0.225332
O113	O	1.296578	-0.894542	-1.115564
O114	O	1.796578	-0.394542	-0.615564
H115	H	1.336424	-0.960621	-1.170337
H116	H	1.836424	-0.460621	-0.670337
O117	O	1.550297	-0.670025	-1.253438
O118	O	2.050297	-0.170025	-0.753438
H119	H	1.628417	-0.702234	-1.284244
H120	H	2.128417	-0.202234	-0.784244
H121	H	1.332138	-1.159066	-0.537955
H122	H	1.832138	-0.659066	-0.037955
O123	O	0.815743	-0.684375	-0.598411
O124	O	1.315743	-0.184375	-0.098411
H125	H	0.730645	-0.684964	-0.598905
H126	H	1.230645	-0.184964	-0.098905
H127	H	1.255418	-1.175020	-0.724725
H128	H	1.755418	-0.675020	-0.224725
O129	O	1.492117	-1.166871	-0.500475
O130	O	1.992117	-0.666871	-0.000475
H131	H	1.546143	-1.127962	-0.544236
H132	H	2.046143	-0.627962	-0.044236
H133	H	1.539800	-1.222299	-0.810438
H134	H	2.039800	-0.722299	-0.310438
O135	O	1.551150	-1.419265	-0.832993
O136	O	2.051150	-0.919265	-0.332993
H137	H	1.625102	-1.473274	-0.832416
H138	H	2.125102	-0.973274	-0.332416
O139	O	1.619226	-1.202657	-0.667015
O140	O	2.119226	-0.702657	-0.167015
H141	H	1.621375	-1.115852	-0.671333
H142	H	2.121375	-0.615852	-0.171333
