data_functionalizedCrystal
_audit_creation_method	'MofGen! by Chris Wilmer'
_symmetry_space_group_name_H-M	'P1'
_symmetry_Int_Tables_number	1
_symmetry_cell_setting	triclinic
loop_
_symmetry_equiv_pos_as_xyz
  x,y,z
_cell_length_a	19.805407
_cell_length_b	19.805405
_cell_length_c	19.805399
_cell_angle_alpha	90.026615
_cell_angle_beta	90.019573
_cell_angle_gamma	90.026726
loop_
_atom_site_label
_atom_site_type_symbol
_atom_site_fract_x
_atom_site_fract_y
_atom_site_fract_z
Zn1	Zn	1.034734	-0.269479	0.382724
Zn2	Zn	1.284734	-0.019479	0.632724
Zn3	Zn	1.534734	0.230521	0.882724
Zn4	Zn	1.784734	0.480521	1.132724
Zn5	Zn	1.034648	-0.382667	0.269538
Zn6	Zn	1.284648	-0.132667	0.519538
Zn7	Zn	1.534648	0.117333	0.769538
Zn8	Zn	1.784648	0.367333	1.019538
Zn9	Zn	0.921549	-0.269498	0.269549
Zn10	Zn	1.171549	-0.019498	0.519549
Zn11	Zn	1.421549	0.230502	0.769549
Zn12	Zn	1.671549	0.480502	1.019549
Zn13	Zn	0.921512	-0.382631	0.382685
Zn14	Zn	1.171512	-0.132631	0.632685
Zn15	Zn	1.421512	0.117369	0.882685
Zn16	Zn	1.671512	0.367369	1.132685
O17	O	0.978111	-0.326069	0.326124
O18	O	1.228111	-0.076069	0.576124
O19	O	1.478111	0.173931	0.826124
O20	O	1.728111	0.423931	1.076124
O21	O	1.129439	-0.284501	0.367722
O22	O	1.379439	-0.034501	0.617722
O23	O	1.629439	0.215499	0.867722
O24	O	1.879439	0.465499	1.117722
O25	O	1.019625	-0.367678	0.174823
O26	O	1.269625	-0.117678	0.424823
O27	O	1.519625	0.132322	0.674823
O28	O	1.769625	0.382322	0.924823
O29	O	0.936615	-0.174778	0.284583
O30	O	1.186615	0.075222	0.534583
O31	O	1.436615	0.325222	0.784583
O32	O	1.686615	0.575222	1.034583
O33	O	1.129376	-0.367660	0.284564
O34	O	1.379376	-0.117660	0.534564
O35	O	1.629376	0.132340	0.784564
O36	O	1.879376	0.382340	1.034564
O37	O	1.019771	-0.174765	0.367732
O38	O	1.269771	0.075235	0.617732
O39	O	1.519771	0.325235	0.867732
O40	O	1.769771	0.575235	1.117732
O41	O	0.936531	-0.284533	0.174831
O42	O	1.186531	-0.034533	0.424831
O43	O	1.436531	0.215467	0.674831
O44	O	1.686531	0.465467	0.924831
O45	O	0.826827	-0.284498	0.284544
O46	O	1.076827	-0.034498	0.534544
O47	O	1.326827	0.215502	0.784544
O48	O	1.576827	0.465502	1.034544
O49	O	0.936551	-0.367598	0.477406
O50	O	1.186551	-0.117598	0.727406
O51	O	1.436551	0.132402	0.977406
O52	O	1.686551	0.382402	1.227406
O53	O	0.826800	-0.367617	0.367665
O54	O	1.076800	-0.117617	0.617665
O55	O	1.326800	0.132383	0.867665
O56	O	1.576800	0.382383	1.117665
O57	O	1.019735	-0.284466	0.477436
O58	O	1.269735	-0.034466	0.727436
O59	O	1.519735	0.215534	0.977436
O60	O	1.769735	0.465534	1.227436
O61	O	1.019589	-0.477379	0.284526
O62	O	1.269589	-0.227379	0.534526
O63	O	1.519589	0.022621	0.784526
O64	O	1.769589	0.272621	1.034526
O65	O	0.936468	-0.477353	0.367654
O66	O	1.186468	-0.227353	0.617654
O67	O	1.436468	0.022647	0.867654
O68	O	1.686468	0.272647	1.117654
C69	C	0.802255	-0.326056	0.326102
C70	C	1.052255	-0.076056	0.576102
C71	C	1.302255	0.173944	0.826102
C72	C	1.552255	0.423944	1.076102
C73	C	0.727023	-0.326067	0.326109
C74	C	0.977023	-0.076067	0.576109
C75	C	1.227023	0.173933	0.826109
C76	C	1.477023	0.423933	1.076109
C77	C	0.691682	-0.369412	0.369319
C78	C	0.941682	-0.119412	0.619319
C79	C	1.191682	0.130588	0.869319
C80	C	1.441682	0.380588	1.119319
C81	C	0.620994	-0.369413	0.369329
C82	C	0.870994	-0.119413	0.619329
C83	C	1.120994	0.130587	0.869329
C84	C	1.370994	0.380587	1.119329
C85	C	0.585647	-0.326072	0.326124
C86	C	0.835647	-0.076072	0.576124
C87	C	1.085647	0.173928	0.826124
C88	C	1.335647	0.423928	1.076124
C89	C	0.620993	-0.282722	0.282911
C90	C	0.870993	-0.032722	0.532911
C91	C	1.120993	0.217278	0.782911
C92	C	1.370993	0.467278	1.032911
C93	C	0.691680	-0.282718	0.282906
C94	C	0.941680	-0.032718	0.532906
C95	C	1.191680	0.217282	0.782906
C96	C	1.441680	0.467282	1.032906
C97	C	0.335920	-0.282737	0.282934
C98	C	0.585920	-0.032737	0.532934
C99	C	0.835920	0.217263	0.782934
C100	C	1.085920	0.467263	1.032934
C101	C	0.265227	-0.282746	0.282941
C102	C	0.515227	-0.032746	0.532941
C103	C	0.765227	0.217254	0.782941
C104	C	1.015227	0.467254	1.032941
C105	C	0.265233	-0.369432	0.369357
C106	C	0.515233	-0.119432	0.619357
C107	C	0.765233	0.130568	0.869357
C108	C	1.015233	0.380568	1.119357
C109	C	0.335920	-0.369428	0.369351
C110	C	0.585920	-0.119428	0.619351
C111	C	0.835920	0.130572	0.869351
C112	C	1.085920	0.380572	1.119351
C113	C	0.371260	-0.326076	0.326142
C114	C	0.621260	-0.076076	0.576142
C115	C	0.871260	0.173924	0.826142
C116	C	1.121260	0.423924	1.076142
C117	C	0.447908	-0.326074	0.326133
C118	C	0.697908	-0.076074	0.576133
C119	C	0.947908	0.173926	0.826133
C120	C	1.197908	0.423926	1.076133
C121	C	0.509000	-0.326076	0.326129
C122	C	0.759000	-0.076076	0.576129
C123	C	1.009000	0.173924	0.826129
C124	C	1.259000	0.423924	1.076129
C125	C	0.978034	-0.501925	0.326099
C126	C	1.228034	-0.251925	0.576099
C127	C	1.478034	-0.001925	0.826099
C128	C	1.728034	0.248075	1.076099
C129	C	0.978063	-0.577157	0.326112
C130	C	1.228063	-0.327157	0.576112
C131	C	1.478063	-0.077157	0.826112
C132	C	1.728063	0.172843	1.076112
C133	C	1.021337	-0.612436	0.369441
C134	C	1.271337	-0.362436	0.619441
C135	C	1.521337	-0.112436	0.869441
C136	C	1.771337	0.137564	1.119441
C137	C	1.021361	-0.683124	0.369454
C138	C	1.271361	-0.433124	0.619454
C139	C	1.521361	-0.183124	0.869454
C140	C	1.771361	0.066876	1.119454
C141	C	0.978114	-0.718532	0.326133
C142	C	1.228114	-0.468532	0.576133
C143	C	1.478114	-0.218532	0.826133
C144	C	1.728114	0.031468	1.076133
C145	C	0.934835	-0.683249	0.282801
C146	C	1.184835	-0.433249	0.532801
C147	C	1.434835	-0.183249	0.782801
C148	C	1.684835	0.066751	1.032801
C149	C	0.934808	-0.612561	0.282792
C150	C	1.184808	-0.362561	0.532792
C151	C	1.434808	-0.112561	0.782792
C152	C	1.684808	0.137439	1.032792
C153	C	0.934944	-0.968322	0.282836
C154	C	1.184944	-0.718322	0.532836
C155	C	1.434944	-0.468322	0.782836
C156	C	1.684944	-0.218322	1.032836
C157	C	0.934976	-1.039014	0.282846
C158	C	1.184976	-0.789014	0.532846
C159	C	1.434976	-0.539014	0.782846
C160	C	1.684976	-0.289014	1.032846
C161	C	1.021497	-1.038884	0.369497
C162	C	1.271497	-0.788884	0.619497
C163	C	1.521497	-0.538884	0.869497
C164	C	1.771497	-0.288884	1.119497
C165	C	1.021470	-0.968197	0.369489
C166	C	1.271470	-0.718197	0.619489
C167	C	1.521470	-0.468197	0.869489
C168	C	1.771470	-0.218197	1.119489
C169	C	0.978189	-0.932920	0.326160
C170	C	1.228189	-0.682920	0.576160
C171	C	1.478189	-0.432920	0.826160
C172	C	1.728189	-0.182920	1.076160
C173	C	0.978162	-0.856271	0.326147
C174	C	1.228162	-0.606271	0.576147
C175	C	1.478162	-0.356271	0.826147
C176	C	1.728162	-0.106271	1.076147
C177	C	0.978144	-0.795179	0.326141
C178	C	1.228144	-0.545179	0.576141
C179	C	1.478144	-0.295179	0.826141
C180	C	1.728144	-0.045179	1.076141
C181	C	1.154653	-0.326082	0.326146
C182	C	1.404653	-0.076082	0.576146
C183	C	1.654653	0.173918	0.826146
C184	C	1.904653	0.423918	1.076146
C185	C	1.229885	-0.326088	0.326156
C186	C	1.479885	-0.076088	0.576156
C187	C	1.729885	0.173912	0.826156
C188	C	1.979885	0.423912	1.076156
C189	C	0.978149	-0.326026	0.502667
C190	C	1.228149	-0.076026	0.752667
C191	C	1.478149	0.173974	1.002667
C192	C	1.728149	0.423974	1.252667
C193	C	0.978165	-0.326008	0.577899
C194	C	1.228165	-0.076008	0.827899
C195	C	1.478165	0.173992	1.077899
C196	C	1.728165	0.423992	1.327899
C197	C	0.978207	-0.149526	0.326163
C198	C	1.228207	0.100474	0.576163
C199	C	1.478207	0.350474	0.826163
C200	C	1.728207	0.600474	1.076163
C201	C	0.978248	-0.074294	0.326180
C202	C	1.228248	0.175706	0.576180
C203	C	1.478248	0.425706	0.826180
C204	C	1.728248	0.675706	1.076180
C205	C	0.978112	-0.326062	0.150268
C206	C	1.228112	-0.076062	0.400268
C207	C	1.478112	0.173938	0.650268
C208	C	1.728112	0.423938	0.900268
C209	C	0.978227	-0.325890	0.075036
C210	C	1.228227	-0.075890	0.325036
C211	C	1.478227	0.174110	0.575036
C212	C	1.728227	0.424110	0.825036
C213	C	1.021480	-0.282719	0.613259
C214	C	1.271480	-0.032719	0.863259
C215	C	1.521480	0.217281	1.113259
C216	C	1.771480	0.467281	1.363259
C217	C	1.021487	-0.282699	0.683948
C218	C	1.271487	-0.032699	0.933948
C219	C	1.521487	0.217301	1.183948
C220	C	1.771487	0.467301	1.433948
C221	C	0.978182	-0.325973	0.719274
C222	C	1.228182	-0.075973	0.969274
C223	C	1.478182	0.174027	1.219274
C224	C	1.728182	0.424027	1.469274
C225	C	0.934862	-0.369264	0.683909
C226	C	1.184862	-0.119264	0.933909
C227	C	1.434862	0.130736	1.183909
C228	C	1.684862	0.380736	1.433909
C229	C	0.934852	-0.369279	0.613222
C230	C	1.184852	-0.119279	0.863222
C231	C	1.434852	0.130721	1.113222
C232	C	1.684852	0.380721	1.363222
C233	C	0.934900	-0.369201	0.968982
C234	C	1.184900	-0.119201	1.218982
C235	C	1.434900	0.130799	1.468982
C236	C	1.684900	0.380799	1.718982
C237	C	0.934915	-0.369183	1.039675
C238	C	1.184915	-0.119183	1.289675
C239	C	1.434915	0.130817	1.539675
C240	C	1.684915	0.380817	1.789675
C241	C	1.021535	-0.282620	1.039708
C242	C	1.271535	-0.032620	1.289708
C243	C	1.521535	0.217380	1.539708
C244	C	1.771535	0.467380	1.789708
C245	C	1.021525	-0.282636	0.969021
C246	C	1.271525	-0.032636	1.219021
C247	C	1.521525	0.217364	1.469021
C248	C	1.771525	0.467364	1.719021
C249	C	0.978203	-0.325924	0.933662
C250	C	1.228203	-0.075924	1.183662
C251	C	1.478203	0.174076	1.433662
C252	C	1.728203	0.424076	1.683662
C253	C	0.978195	-0.325944	0.857013
C254	C	1.228195	-0.075944	1.107013
C255	C	1.478195	0.174056	1.357013
C256	C	1.728195	0.424056	1.607013
C257	C	0.978193	-0.325957	0.795922
C258	C	1.228193	-0.075957	1.045922
C259	C	1.478193	0.174043	1.295922
C260	C	1.728193	0.424043	1.545922
H261	H	0.236451	-0.404729	0.404543
H262	H	0.486451	-0.154729	0.654543
H263	H	0.736451	0.095271	0.904543
H264	H	0.986451	0.345271	1.154543
H265	H	1.056737	-1.067616	0.404780
H266	H	1.306737	-0.817616	0.654780
H267	H	1.556737	-0.567616	0.904780
H268	H	1.806737	-0.317616	1.154780
H269	H	0.236450	-0.247448	0.247758
H270	H	0.486450	0.002552	0.497758
H271	H	0.736450	0.252552	0.747758
H272	H	0.986450	0.502552	0.997758
H273	H	0.899574	-0.404523	0.584432
H274	H	1.149574	-0.154523	0.834432
H275	H	1.399574	0.095477	1.084432
H276	H	1.649574	0.345477	1.334432
N277	N	1.068251	-0.235923	1.077853
N278	N	1.318251	0.014077	1.327853
N279	N	1.568251	0.264077	1.577853
N280	N	1.818251	0.514077	1.827853
H281	H	1.057764	-0.187565	1.065557
H282	H	1.307764	0.062435	1.315557
H283	H	1.557764	0.312435	1.565557
H284	H	1.807764	0.562435	1.815557
H285	H	1.116586	-0.246499	1.065547
H286	H	1.366586	0.003501	1.315547
H287	H	1.616586	0.253501	1.565547
H288	H	1.866586	0.503501	1.815547
N289	N	0.582868	-0.235988	0.236301
N290	N	0.832868	0.014012	0.486301
N291	N	1.082868	0.264012	0.736301
N292	N	1.332868	0.514012	0.986301
H293	H	0.553555	-0.204660	0.263855
H294	H	0.803555	0.045340	0.513855
H295	H	1.053555	0.295340	0.763855
H296	H	1.303555	0.545340	1.013855
H297	H	0.553563	-0.263519	0.204903
H298	H	0.803563	-0.013519	0.454903
H299	H	1.053563	0.236481	0.704903
H300	H	1.303563	0.486481	0.954903
H301	H	1.056746	-0.247482	0.584501
H302	H	1.306746	0.002518	0.834501
H303	H	1.556746	0.252518	1.084501
H304	H	1.806746	0.502518	1.334501
H305	H	1.056791	-0.247400	0.940261
H306	H	1.306791	0.002600	1.190261
H307	H	1.556791	0.252600	1.440261
H308	H	1.806791	0.502600	1.690261
H309	H	0.899756	-1.067841	0.247568
H310	H	1.149756	-0.817841	0.497568
H311	H	1.399756	-0.567841	0.747568
H312	H	1.649756	-0.317841	0.997568
H313	H	1.056605	-0.711845	0.404732
H314	H	1.306605	-0.461845	0.654732
H315	H	1.556605	-0.211845	0.904732
H316	H	1.806605	0.038155	1.154732
N317	N	0.888195	-0.721438	0.236071
N318	N	1.138195	-0.471438	0.486071
N319	N	1.388195	-0.221438	0.736071
N320	N	1.638195	0.028562	0.986071
H321	H	0.860776	-0.688360	0.208621
H322	H	1.110776	-0.438360	0.458621
H323	H	1.360776	-0.188360	0.708621
H324	H	1.610776	0.061640	0.958621
H325	H	0.856867	-0.750779	0.263595
H326	H	1.106867	-0.500779	0.513595
H327	H	1.356867	-0.250779	0.763595
H328	H	1.606867	-0.000779	1.013595
H329	H	1.056760	-0.247450	0.712735
H330	H	1.306760	0.002550	0.962735
H331	H	1.556760	0.252550	1.212735
H332	H	1.806760	0.502550	1.462735
H333	H	0.720456	-0.404707	0.404500
H334	H	0.970456	-0.154707	0.654500
H335	H	1.220456	0.095293	0.904500
H336	H	1.470456	0.345293	1.154500
N337	N	0.888204	-0.415852	1.077786
N338	N	1.138204	-0.165852	1.327786
N339	N	1.388204	0.084148	1.577786
N340	N	1.638204	0.334148	1.827786
H341	H	0.898679	-0.464219	1.065478
H342	H	1.148679	-0.214219	1.315478
H343	H	1.398679	0.035781	1.565478
H344	H	1.648679	0.285781	1.815478
H345	H	0.839865	-0.405275	1.065469
H346	H	1.089865	-0.155275	1.315469
H347	H	1.339865	0.094725	1.565469
H348	H	1.589865	0.344725	1.815469
N349	N	0.582875	-0.416173	0.415925
N350	N	0.832875	-0.166173	0.665925
N351	N	1.082875	0.083827	0.915925
N352	N	1.332875	0.333827	1.165925
H353	H	0.615993	-0.443635	0.443287
H354	H	0.865993	-0.193635	0.693287
H355	H	1.115993	0.056365	0.943287
H356	H	1.365993	0.306365	1.193287
H357	H	0.553527	-0.447455	0.388308
H358	H	0.803527	-0.197455	0.638308
H359	H	1.053527	0.052545	0.888308
H360	H	1.303527	0.302545	1.138308
H361	H	1.056688	-0.939370	0.404762
H362	H	1.306688	-0.689370	0.654762
H363	H	1.556688	-0.439370	0.904762
H364	H	1.806688	-0.189370	1.154762
N365	N	0.374031	-0.235970	0.236342
N366	N	0.624031	0.014030	0.486342
N367	N	0.874031	0.264030	0.736342
N368	N	1.124031	0.514030	0.986342
H369	H	0.340911	-0.208514	0.208976
H370	H	0.590911	0.041486	0.458976
H371	H	0.840911	0.291486	0.708976
H372	H	1.090911	0.541486	0.958976
H373	H	0.403343	-0.263465	0.204962
H374	H	0.653343	-0.013465	0.454962
H375	H	0.903343	0.236535	0.704962
H376	H	1.153343	0.486535	0.954962
H377	H	0.720453	-0.247418	0.247723
H378	H	0.970453	0.002582	0.497723
H379	H	1.220453	0.252582	0.747723
H380	H	1.470453	0.502582	0.997723
N381	N	0.374044	-0.416178	0.415946
N382	N	0.624044	-0.166178	0.665946
N383	N	0.874044	0.083822	0.915946
N384	N	1.124044	0.333822	1.165946
H385	H	0.340929	-0.443638	0.443323
H386	H	0.590929	-0.193638	0.693323
H387	H	0.840929	0.056362	0.943323
H388	H	1.090929	0.306362	1.193323
H389	H	0.403398	-0.388666	0.447315
H390	H	0.653398	-0.138666	0.697315
H391	H	0.903398	0.111334	0.947315
H392	H	1.153398	0.361334	1.197315
N393	N	0.888271	-0.930277	0.236098
N394	N	1.138271	-0.680277	0.486098
N395	N	1.388271	-0.430277	0.736098
N396	N	1.638271	-0.180277	0.986098
H397	H	0.860884	-0.963437	0.208653
H398	H	1.110884	-0.713437	0.458653
H399	H	1.360884	-0.463437	0.708653
H400	H	1.610884	-0.213437	0.958653
H401	H	0.915834	-0.900946	0.204799
H402	H	1.165834	-0.650946	0.454799
H403	H	1.415834	-0.400946	0.704799
H404	H	1.665834	-0.150946	0.954799
N405	N	0.888150	-0.415942	0.721999
N406	N	1.138150	-0.165942	0.971999
N407	N	1.388150	0.084058	1.221999
N408	N	1.638150	0.334058	1.471999
H409	H	0.839795	-0.405425	0.709686
H410	H	1.089795	-0.155425	0.959686
H411	H	1.339795	0.094575	1.209686
H412	H	1.589795	0.344575	1.459686
H413	H	0.894781	-0.409351	0.772134
H414	H	1.144781	-0.159351	1.022134
H415	H	1.394781	0.090649	1.272134
H416	H	1.644781	0.340649	1.522134
H417	H	1.056556	-0.583611	0.404715
H418	H	1.306556	-0.333611	0.654715
H419	H	1.556556	-0.083611	0.904715
H420	H	1.806556	0.166389	1.154715
N421	N	0.888132	-0.574507	0.236060
N422	N	1.138132	-0.324507	0.486060
N423	N	1.388132	-0.074507	0.736060
N424	N	1.638132	0.175493	0.986060
H425	H	0.860740	-0.607663	0.208617
H426	H	1.110740	-0.357663	0.458617
H427	H	1.360740	-0.107663	0.708617
H428	H	1.610740	0.142337	0.958617
H429	H	0.915689	-0.545172	0.204760
H430	H	1.165689	-0.295172	0.454760
H431	H	1.415689	-0.045172	0.704760
H432	H	1.665689	0.204828	0.954760
H433	H	0.899635	-0.404459	0.940201
H434	H	1.149635	-0.154459	1.190201
H435	H	1.399635	0.095541	1.440201
H436	H	1.649635	0.345541	1.690201
