data_functionalizedCrystal
_audit_creation_method	'MofGen! by Chris Wilmer'
_symmetry_space_group_name_H-M	'P1'
_symmetry_Int_Tables_number	1
_symmetry_cell_setting	triclinic
loop_
_symmetry_equiv_pos_as_xyz
  x,y,z
_cell_length_a	17.640280
_cell_length_b	12.759401
_cell_length_c	12.759393
_cell_angle_alpha	89.980198
_cell_angle_beta	78.768965
_cell_angle_gamma	78.799985
loop_
_atom_site_label
_atom_site_type_symbol
_atom_site_fract_x
_atom_site_fract_y
_atom_site_fract_z
Zn1	Zn	-0.314651	1.690833	-0.509514
Zn2	Zn	-0.446846	1.726253	-0.298344
Zn3	Zn	-0.314688	1.515141	-0.333843
Zn4	Zn	-0.446785	1.550636	-0.474001
O5	O	-0.380742	1.620716	-0.403925
O6	O	-0.332197	1.842555	-0.481508
O7	O	-0.429355	1.698217	-0.156021
O8	O	-0.204076	1.508769	-0.386865
O9	O	-0.429320	1.868578	-0.326362
O10	O	-0.204049	1.637849	-0.515930
O11	O	-0.332260	1.543115	-0.182102
O12	O	-0.332201	1.372826	-0.352429
O13	O	-0.429216	1.569265	-0.625744
O14	O	-0.429252	1.398904	-0.455403
O15	O	-0.332138	1.672267	-0.651835
O16	O	-0.557445	1.732635	-0.291926
O17	O	-0.557400	1.603610	-0.420981
C18	C	-0.380724	1.347743	-0.403915
C19	C	-0.380735	1.230970	-0.403930
C20	C	-0.330273	1.052851	-0.484796
C21	C	-0.330258	1.162571	-0.484793
C22	C	-0.431237	1.189646	-0.323071
C23	C	-0.431256	1.079929	-0.323079
C24	C	-0.586101	1.675846	-0.348771
C25	C	-0.673955	1.699527	-0.325211
C26	C	-0.962915	1.441244	-0.583292
C27	C	-1.045466	1.463498	-0.561120
C28	C	-1.045448	1.597935	-0.426872
C29	C	-0.962894	1.575696	-0.449036
C30	C	-0.921634	1.497348	-0.527246
C31	C	-0.921614	1.631800	-0.392990
C32	C	-0.839068	1.609559	-0.415149
C33	C	-0.797802	1.531213	-0.493354
C34	C	-0.839088	1.475107	-0.549405
C35	C	-0.962875	1.710142	-0.314775
C36	C	-0.921595	1.766247	-0.258729
C37	C	-0.839047	1.744011	-0.280893
C38	C	-0.797781	1.665664	-0.359097
C39	C	-0.797761	1.800116	-0.224841
C40	C	-0.715215	1.777875	-0.247000
C41	C	-0.715235	1.643423	-0.381256
C42	C	-0.174582	1.565399	-0.459318
C43	C	-0.086728	1.541826	-0.482923
C44	C	-0.380667	1.620774	-0.677979
C45	C	-0.380634	1.620799	-0.794765
C46	C	-0.380761	1.894754	-0.403936
C47	C	-0.380770	2.011533	-0.403941
C48	C	-0.330078	1.674435	-0.863216
C49	C	-0.330044	1.674443	-0.972949
C50	C	-0.431129	1.567179	-0.945768
C51	C	-0.431159	1.567165	-0.836038
C52	C	-0.380761	1.620703	-0.130953
C53	C	-0.380571	1.620822	-0.014228
H54	H	-0.289163	0.997165	-0.550639
C55	C	-0.793691	1.388924	-0.635437
C56	C	-0.805105	1.272567	-0.623694
C57	C	-0.759705	1.186387	-0.709719
C58	C	-0.702891	1.216564	-0.807485
C59	C	-0.691475	1.332926	-0.819232
C60	C	-0.736874	1.419106	-0.733208
H61	H	-0.847164	1.250223	-0.551318
H62	H	-0.768157	1.100247	-0.701022
H63	H	-0.669284	1.152768	-0.871166
H64	H	-0.649415	1.355270	-0.891609
H65	H	-0.728422	1.505246	-0.741905
H66	H	-0.472267	1.523515	-0.979386
C67	C	-0.707000	1.506819	-0.517736
C68	C	-0.661601	1.595584	-0.557071
C69	C	-0.570800	1.571228	-0.581456
C70	C	-0.525397	1.458107	-0.566506
C71	C	-0.570795	1.369334	-0.527169
C72	C	-0.661597	1.393691	-0.502784
H73	H	-0.695211	1.679330	-0.568140
H74	H	-0.537193	1.636944	-0.610575
H75	H	-0.458180	1.440077	-0.584557
H76	H	-0.537185	1.285589	-0.516101
H77	H	-0.695204	1.327975	-0.473665
C78	C	-0.486765	1.264882	-0.234120
C79	C	-0.486745	1.385567	-0.234103
C80	C	-0.542272	1.460800	-0.145148
C81	C	-0.597820	1.415349	-0.056210
C82	C	-0.597843	1.294659	-0.056224
C83	C	-0.542315	1.219425	-0.145179
H84	H	-0.445623	1.419218	-0.299943
H85	H	-0.542255	1.550144	-0.145139
H86	H	-0.638925	1.471042	0.009639
H87	H	-0.638965	1.261007	0.009616
H88	H	-0.542332	1.130082	-0.145188
C89	C	-0.274708	1.208019	-0.573733
C90	C	-0.219178	1.132783	-0.662675
C91	C	-0.163626	1.178230	-0.751619
C92	C	-0.163605	1.298915	-0.751622
C93	C	-0.219137	1.374158	-0.662677
C94	C	-0.274688	1.328711	-0.573732
H95	H	-0.219192	1.043439	-0.662675
H96	H	-0.122518	1.122529	-0.817462
H97	H	-0.122482	1.332558	-0.817464
H98	H	-0.219122	1.463503	-0.662676
H99	H	-0.315797	1.384412	-0.507890
H100	H	-0.831367	1.863899	-0.161155
H101	H	-0.472328	1.523480	-0.780302
H102	H	-0.681640	1.579632	-0.444951
H103	H	-0.955200	1.830034	-0.195047
H104	H	-0.929319	1.377453	-0.646987
C105	C	-0.486806	1.034473	-0.234131
C106	C	-0.480249	1.047733	-0.116468
C107	C	-0.535799	1.002277	-0.027528
C108	C	-0.597907	0.943561	-0.056252
C109	C	-0.604467	0.930298	-0.173921
C110	C	-0.548917	0.975754	-0.262861
H111	H	-0.434270	1.091200	-0.095200
H112	H	-0.530942	1.012095	0.059579
H113	H	-0.639028	0.909912	0.009586
H114	H	-0.650445	0.886831	-0.195189
H115	H	-0.553774	0.965936	-0.349967
C116	C	-1.090839	1.684116	-0.340845
C117	C	-1.147648	1.653946	-0.243069
C118	C	-1.193039	1.740131	-0.157045
C119	C	-1.181620	1.856485	-0.168796
C120	C	-1.124808	1.886661	-0.266576
C121	C	-1.079418	1.800476	-0.352601
H122	H	-1.156103	1.567808	-0.234367
H123	H	-1.235094	1.717792	-0.084661
H124	H	-1.215221	1.920285	-0.105115
H125	H	-1.116353	1.972799	-0.275279
H126	H	-1.037362	1.822815	-0.424984
C127	C	-0.274496	1.733420	-0.817815
C128	C	-0.184637	1.700735	-0.857044
C129	C	-0.129052	1.759719	-0.811647
C130	C	-0.163325	1.851387	-0.727020
C131	C	-0.253188	1.884077	-0.687786
C132	C	-0.308774	1.825094	-0.733184
H133	H	-0.159262	1.632872	-0.919694
H134	H	-0.062529	1.735519	-0.840691
H135	H	-0.122177	1.895051	-0.693415
H136	H	-0.278564	1.951940	-0.625137
H137	H	-0.375297	1.849293	-0.704140
H138	H	-1.079074	1.417818	-0.606778
H139	H	-0.681604	1.823560	-0.201361
H140	H	-0.288874	1.718117	-1.028680
H141	H	-1.030090	1.728251	-0.296738
