data_functionalizedCrystal
_audit_creation_method	'MofGen! by Chris Wilmer'
_symmetry_space_group_name_H-M	'P1'
_symmetry_Int_Tables_number	1
_symmetry_cell_setting	triclinic
loop_
_symmetry_equiv_pos_as_xyz
  x,y,z
_cell_length_a	15.625950
_cell_length_b	14.750779
_cell_length_c	11.026607
_cell_angle_alpha	74.520220
_cell_angle_beta	84.187730
_cell_angle_gamma	59.909492
loop_
_atom_site_label
_atom_site_type_symbol
_atom_site_fract_x
_atom_site_fract_y
_atom_site_fract_z
O1	O	1.292716	-0.370012	-0.036669
O2	O	1.014797	-0.273301	-0.087390
O3	O	1.130723	-0.313645	0.112022
O4	O	1.176789	-0.329668	-0.236081
O5	O	1.163496	-0.484700	0.168387
O6	O	1.047569	-0.444356	-0.031025
O7	O	1.325489	-0.541067	0.019697
Zn8	Zn	1.191732	-0.519870	0.003285
Zn9	Zn	1.148553	-0.294497	-0.070979
O10	O	1.209562	-0.500723	-0.179716
C11	C	0.995050	-0.346255	-0.062492
C12	C	0.887383	-0.308789	-0.072265
N13	N	1.221207	-0.673684	0.053970
C14	C	0.622495	-0.651656	0.049113
C15	C	0.521318	-0.616404	0.039890
C16	C	0.485641	-0.429944	-0.021553
C17	C	0.586817	-0.465181	-0.012342
C18	C	0.655237	-0.576038	0.022993
C19	C	0.619559	-0.389562	-0.038461
C20	C	0.720726	-0.424796	-0.029244
C21	C	0.789151	-0.535649	0.006092
C22	C	0.756404	-0.611272	0.032210
C23	C	0.551138	-0.278705	-0.073787
C24	C	0.583880	-0.203087	-0.099907
C25	C	0.685049	-0.238321	-0.090699
C26	C	0.753474	-0.349173	-0.055362
C27	C	0.717797	-0.162697	-0.116816
C28	C	0.818963	-0.197931	-0.107599
C29	C	0.854641	-0.384407	-0.046145
C30	C	1.036754	-0.961310	-0.263157
C31	C	1.057417	-1.069000	-0.227647
C32	C	1.160108	-1.104701	-0.051124
C33	C	1.139450	-0.997010	-0.086616
C34	C	1.077773	-0.925323	-0.192634
C35	C	1.180469	-0.961023	-0.016093
C36	C	1.159817	-0.853343	-0.051585
C37	C	1.098145	-0.781651	-0.157601
C38	C	1.057121	-0.817643	-0.228127
C39	C	1.242151	-1.032714	0.089920
C40	C	1.283170	-0.996727	0.160443
C41	C	1.262512	-0.889043	0.124956
C42	C	1.200841	-0.817351	0.018940
C43	C	1.303536	-0.853051	0.195481
C44	C	1.282884	-0.745371	0.159988
C45	C	1.180188	-0.709671	-0.016553
C46	C	1.345235	-0.468111	-0.005203
C47	C	1.452900	-0.505570	0.004568
C48	C	1.138611	-0.396214	0.184455
C49	C	1.113275	-0.387394	0.316305
N50	N	1.119084	-0.140686	-0.121654
C51	C	1.201674	-0.418152	-0.252149
C52	C	1.227008	-0.426965	-0.384001
C53	C	1.183228	-0.411735	0.398015
C54	C	1.157045	-0.402620	0.534289
H55	H	0.910354	-0.474678	-0.017391
H56	H	0.429921	-0.339683	-0.050317
H57	H	1.262503	-0.439327	0.367083
H58	H	1.077765	-0.375026	0.565214
O59	O	1.363353	-0.922558	0.298584
C60	C	1.321695	-0.883533	0.405925
H61	H	1.269487	-0.792409	0.375835
H62	H	1.383215	-0.901492	0.471456
H63	H	1.278698	-0.925142	0.457281
O64	O	1.017398	-1.103859	-0.296061
C65	C	0.913282	-1.043076	-0.296146
H66	H	0.890241	-1.007425	-0.210711
H67	H	0.880802	-1.097875	-0.291919
H68	H	0.884611	-0.974780	-0.385876
O69	O	0.517390	-0.095422	-0.134443
C70	C	0.465128	-0.072030	-0.245795
H71	H	0.510871	-0.137346	-0.298407
H72	H	0.450665	0.009973	-0.308060
H73	H	0.391589	-0.069800	-0.220962
H74	H	0.871527	-0.564334	0.013597
H75	H	0.468763	-0.250021	-0.081296
H76	H	1.034000	-0.359801	0.347236
H77	H	0.678208	-0.741928	0.077867
O78	O	0.822824	-0.718966	0.066749
C79	C	0.801604	-0.764537	0.187377
H80	H	0.758217	-0.698516	0.239701
H81	H	0.873766	-0.829137	0.242351
H82	H	0.755673	-0.802808	0.177624
H83	H	1.210329	-1.163081	0.035194
H84	H	1.306273	-0.454475	0.585048
H85	H	1.316287	-0.716072	0.217415
O86	O	0.489684	-0.690013	0.065254
C87	C	0.571768	-0.795408	0.098451
H88	H	0.641337	-0.794125	0.057919
H89	H	0.559129	-0.851871	0.058869
H90	H	0.581212	-0.825453	0.205404
O91	O	0.651304	-0.055033	-0.151342
C92	C	0.599034	-0.031631	-0.262691
H93	H	0.644773	-0.096939	-0.315315
H94	H	0.584565	0.050377	-0.324947
H95	H	0.525498	-0.029406	-0.237852
H96	H	0.845622	-0.136355	-0.128875
H97	H	1.081334	-0.693973	-0.186501
O98	O	1.120252	-0.639869	-0.119467
C99	C	1.110845	-0.537121	-0.135684
H100	H	1.127368	-0.529141	-0.041895
H101	H	1.032176	-0.471567	-0.170605
H102	H	1.165380	-0.527568	-0.207663
O103	O	0.997337	-0.748083	-0.331248
C104	C	1.038956	-0.787134	-0.438584
H105	H	1.122088	-0.843676	-0.420737
H106	H	1.024853	-0.716137	-0.522872
H107	H	1.003582	-0.833163	-0.458938
O108	O	0.976701	-0.891575	-0.366001
C109	C	0.893868	-0.804616	-0.329500
H110	H	0.881826	-0.830711	-0.225164
H111	H	0.825445	-0.779682	-0.387050
H112	H	0.907350	-0.733139	-0.346772
O113	O	1.262184	-1.137304	0.124623
C114	C	1.229404	-1.159472	0.247199
H115	H	1.224871	-1.099974	0.299054
H116	H	1.283724	-1.245591	0.300323
H117	H	1.153111	-1.150778	0.241339
O118	O	1.342980	-1.066230	0.263553
C119	C	1.301311	-1.027193	0.370883
H120	H	1.249107	-0.936069	0.340781
H121	H	1.362826	-1.045149	0.436423
H122	H	1.258308	-1.068795	0.422236
