data_functionalizedCrystal
_audit_creation_method	'MofGen! by Chris Wilmer'
_symmetry_space_group_name_H-M	'P1'
_symmetry_Int_Tables_number	1
_symmetry_cell_setting	triclinic
loop_
_symmetry_equiv_pos_as_xyz
  x,y,z
_cell_length_a	10.686220
_cell_length_b	12.827892
_cell_length_c	10.685314
_cell_angle_alpha	85.660270
_cell_angle_beta	98.357367
_cell_angle_gamma	85.601134
loop_
_atom_site_label
_atom_site_type_symbol
_atom_site_fract_x
_atom_site_fract_y
_atom_site_fract_z
Zn1	Zn	1.885474	0.332140	-0.569045
Zn2	Zn	1.901608	0.492428	-0.356827
Zn3	Zn	1.689484	0.332227	-0.373079
Zn4	Zn	1.673192	0.521373	-0.585267
O5	O	1.787439	0.419542	-0.471054
O6	O	2.065229	0.341253	-0.527303
O7	O	1.887040	0.459100	-0.181368
O8	O	1.715548	0.185976	-0.399087
O9	O	2.077083	0.459016	-0.371387
O10	O	1.859541	0.185912	-0.543062
O11	O	1.731193	0.341401	-0.193308
O12	O	1.509707	0.369467	-0.414817
O13	O	1.687781	0.508348	-0.760730
O14	O	1.497737	0.508432	-0.570710
O15	O	1.843743	0.369320	-0.748812
O16	O	1.871242	0.642507	-0.387117
O17	O	1.703426	0.663773	-0.554951
C18	C	1.457668	0.442101	-0.496288
C19	C	1.316589	0.451779	-0.507113
C20	C	1.787349	0.691058	-0.471056
C21	C	1.787423	0.807208	-0.471090
C22	C	1.870547	0.848435	-0.388122
C23	C	1.870626	0.968483	-0.388156
C24	C	2.118498	0.396896	-0.445723
C25	C	2.259575	0.387246	-0.434928
C26	C	1.762145	0.442053	-0.802112
C27	C	1.751366	0.451646	-0.943189
C28	C	1.787551	1.146967	-0.471095
C29	C	1.787569	1.030817	-0.471153
C30	C	1.812708	0.397038	-0.141279
C31	C	1.823733	0.387135	-0.000184
H32	H	1.941660	0.794859	-0.317069
H33	H	1.318701	0.324593	-0.364834
N34	N	1.916734	0.304247	-0.921858
H35	H	1.963496	0.262563	-0.979934
H36	H	1.869243	0.255718	-0.870822
H37	H	1.716321	0.860787	-0.542150
H38	H	1.681160	0.514214	-1.002322
H39	H	1.941788	1.003978	-0.317121
N40	N	1.238285	0.534777	-0.599943
H41	H	1.178805	0.500119	-0.663019
H42	H	1.296457	0.576442	-0.646484
N43	N	1.693289	0.983812	-0.565241
H44	H	1.740346	0.938937	-0.620093
H45	H	1.637893	1.041965	-0.620548
