data_functionalizedCrystal
_audit_creation_method	'MofGen! by Chris Wilmer'
_symmetry_space_group_name_H-M	'P1'
_symmetry_Int_Tables_number	1
_symmetry_cell_setting	triclinic
loop_
_symmetry_equiv_pos_as_xyz
  x,y,z
_cell_length_a	6.817900
_cell_length_b	11.102289
_cell_length_c	12.908943
_cell_angle_alpha	94.412341
_cell_angle_beta	100.860631
_cell_angle_gamma	108.605707
loop_
_atom_site_label
_atom_site_type_symbol
_atom_site_fract_x
_atom_site_fract_y
_atom_site_fract_z
V1	V	-4.022089	-0.174253	-0.328682
O2	O	-3.982824	0.010006	-0.322425
O3	O	-3.999478	-0.347084	-0.326434
O4	O	-3.959861	-0.170856	-0.472031
O5	O	-4.022714	-0.167442	-0.175820
V6	V	-4.504167	-0.152298	-0.310398
O7	O	-4.286517	-0.222412	-0.368788
O8	O	-4.689936	-0.104138	-0.270292
O9	O	-4.303571	0.020533	-0.312646
O10	O	-4.660828	-0.336557	-0.316655
O11	O	-4.620938	-0.159109	-0.463260
O12	O	-4.343188	-0.155695	-0.167049
C13	C	-3.851199	-0.389239	-0.321248
C14	C	-3.913907	-0.530526	-0.320366
C15	C	-3.800664	-0.164441	-0.506971
C16	C	-3.831240	-0.162808	-0.624160
C17	C	-4.125943	-0.603351	-0.325210
C18	C	-4.184854	-0.736106	-0.324390
C19	C	-3.819670	-0.723199	-0.313877
C20	C	-3.760765	-0.590447	-0.314705
C21	C	-4.336778	-0.610803	-0.331275
C22	C	-4.395690	-0.743558	-0.330455
C23	C	-4.253829	-0.172350	-0.855107
C24	C	-4.282568	-0.170816	-0.965217
C25	C	-3.917455	-0.158196	-0.954491
C26	C	-3.888716	-0.159730	-0.844381
C27	C	-4.056912	-0.166809	-0.794693
C28	C	-4.028175	-0.168353	-0.684583
C29	C	-3.663060	-0.155723	-0.673857
C30	C	-3.691799	-0.154189	-0.783967
C31	C	-4.115193	0.062681	-0.317829
C32	C	-4.031723	0.203967	-0.318718
C33	C	-4.165728	-0.162114	-0.132103
C34	C	-4.114390	-0.163741	-0.014913
H35	H	-3.588114	-0.531160	-0.310772
H36	H	-3.694996	-0.772003	-0.309269
H37	H	-4.357072	-0.557934	-0.256948
C38	C	-3.449471	-0.150011	-0.608212
C39	C	-3.475372	-0.260339	-0.558936
C40	C	-3.278682	-0.255164	-0.498469
H41	H	-3.353334	-0.145670	-0.653499
H42	H	-3.394630	-0.076005	-0.555314
H43	H	-3.530183	-0.334325	-0.611827
H44	H	-3.571473	-0.264702	-0.513631
H45	H	-3.223840	-0.181157	-0.445571
H46	H	-3.182559	-0.250820	-0.543763
H47	H	-3.296232	-0.330013	-0.465020
H48	H	-4.427782	-0.591212	-0.407942
H49	H	-4.165134	-0.174122	-0.644130
C50	C	-4.543177	-0.819999	-0.434644
C51	C	-4.580823	-0.735319	-0.504509
C52	C	-4.716689	-0.805690	-0.600491
H53	H	-4.479073	-0.873498	-0.465940
H54	H	-4.673938	-0.871665	-0.421064
H55	H	-4.450087	-0.683675	-0.518091
H56	H	-4.644954	-0.681818	-0.473248
H57	H	-4.847450	-0.857357	-0.586911
H58	H	-4.652571	-0.859187	-0.631777
H59	H	-4.742265	-0.748246	-0.647903
C60	C	-4.490063	-0.777062	-0.234349
C61	C	-4.488896	-0.664838	-0.176384
C62	C	-4.575783	-0.695649	-0.087841
H63	H	-4.631953	-0.834794	-0.257725
H64	H	-4.407870	-0.816341	-0.190218
H65	H	-4.571090	-0.625578	-0.220507
H66	H	-4.347032	-0.607092	-0.152982
H67	H	-4.493590	-0.734928	-0.043710
H68	H	-4.717667	-0.753382	-0.111226
H69	H	-4.574985	-0.619510	-0.048495
H70	H	-4.442914	-0.175328	-1.014402
H71	H	-4.390788	-0.178128	-0.814652
H72	H	-3.780523	-0.152424	-0.994965
H73	H	-3.554864	-0.148421	-0.824438
