data_functionalizedCrystal
_audit_creation_method	'MofGen! by Chris Wilmer'
_symmetry_space_group_name_H-M	'P1'
_symmetry_Int_Tables_number	1
_symmetry_cell_setting	triclinic
loop_
_symmetry_equiv_pos_as_xyz
  x,y,z
_cell_length_a	15.944551
_cell_length_b	15.944493
_cell_length_c	9.130307
_cell_angle_alpha	89.999396
_cell_angle_beta	89.999495
_cell_angle_gamma	83.486891
loop_
_atom_site_label
_atom_site_type_symbol
_atom_site_fract_x
_atom_site_fract_y
_atom_site_fract_z
O1	O	1.114501	0.108336	0.121627
O2	O	1.614501	0.608336	0.621627
O3	O	0.869948	0.121692	0.121661
O4	O	1.369948	0.621692	0.621661
O5	O	0.998928	-0.007264	0.121656
O6	O	1.498928	0.492736	0.621656
O7	O	0.985521	0.237292	0.121633
O8	O	1.485521	0.737292	0.621633
O9	O	0.998919	-0.007270	-0.121943
O10	O	1.498919	0.492730	0.378057
O11	O	0.869939	0.121687	-0.121938
O12	O	1.369939	0.621687	0.378062
O13	O	1.114491	0.108330	-0.121972
O14	O	1.614491	0.608330	0.378028
Cu15	Cu	0.992214	0.115008	-0.144197
Cu16	Cu	1.492214	0.615008	0.355803
Cu17	Cu	0.992226	0.115014	0.143887
Cu18	Cu	1.492226	0.615014	0.643887
O19	O	0.985511	0.237287	-0.121966
O20	O	1.485511	0.737287	0.378034
C21	C	0.838650	0.121135	-0.000133
C22	C	1.338650	0.621135	0.499867
C23	C	0.745404	0.119473	-0.000119
C24	C	1.245404	0.619473	0.499881
C25	C	0.998375	-0.038562	-0.000138
C26	C	1.498375	0.461438	0.499862
C27	C	0.996733	-0.131810	-0.000119
C28	C	1.496733	0.368190	0.499881
C29	C	0.530565	0.035566	-0.000140
C30	C	1.030565	0.535566	0.499860
C31	C	0.469541	0.074532	0.119963
C32	C	0.969541	0.574532	0.619963
C33	C	0.574679	0.116465	-0.000136
C34	C	1.074679	0.616465	0.499864
C35	C	0.469554	0.074546	-0.120206
C36	C	0.969554	0.574546	0.379794
C37	C	0.409767	0.113555	-0.000159
C38	C	0.909767	0.613555	0.499841
C39	C	0.514884	0.155454	0.120066
C40	C	1.014884	0.655454	0.620066
C41	C	0.514903	0.155456	-0.120211
C42	C	1.014903	0.655456	0.379789
C43	C	0.453897	0.194481	-0.000078
C44	C	0.953897	0.694481	0.499922
C45	C	0.669681	0.118140	-0.000122
C46	C	1.169681	0.618140	0.499878
C47	C	0.314766	0.111886	-0.000163
C48	C	0.814766	0.611886	0.499837
C49	C	1.072653	-0.367570	-0.000157
C50	C	1.572653	0.132430	0.499843
C51	C	1.031717	-0.418136	0.119955
C52	C	1.531717	0.081864	0.619955
C53	C	0.993688	-0.302531	-0.000136
C54	C	1.493688	0.197469	0.499864
C55	C	1.031689	-0.418117	-0.120215
C56	C	1.531689	0.081883	0.379785
C57	C	0.990754	-0.467441	-0.000160
C58	C	1.490754	0.032559	0.499840
C59	C	0.952774	-0.351868	0.120075
C60	C	1.452774	0.148132	0.620075
C61	C	0.952757	-0.351846	-0.120203
C62	C	1.452757	0.148154	0.379797
C63	C	0.911763	-0.402379	-0.000061
C64	C	1.411763	0.097621	0.499939
C65	C	0.995381	-0.207531	-0.000122
C66	C	1.495381	0.292469	0.499878
C67	C	0.989055	-0.562438	-0.000164
C68	C	1.489055	-0.062438	0.499836
C69	C	1.145790	0.108887	-0.000174
C70	C	1.645790	0.608887	0.499826
C71	C	1.239036	0.110550	-0.000178
C72	C	1.739036	0.610550	0.499822
C73	C	0.986064	0.268584	-0.000170
C74	C	1.486064	0.768584	0.499830
C75	C	0.987707	0.361833	-0.000179
C76	C	1.487707	0.861833	0.499821
N77	N	0.992212	0.115003	-0.346820
N78	N	1.492212	0.615003	0.153180
C79	C	0.890357	0.013036	-0.346855
C80	C	1.390357	0.513036	0.153145
C81	C	0.839439	-0.037950	-0.423539
C82	C	1.339439	0.462050	0.076461
C83	C	0.839451	-0.037950	-0.576872
C84	C	1.339451	0.462050	-0.076872
C85	C	0.890385	0.013042	-0.653525
C86	C	1.390385	0.513042	-0.153525
C87	C	0.941304	0.064028	-0.576841
C88	C	1.441304	0.564028	-0.076841
C89	C	0.941288	0.064021	-0.423504
C90	C	1.441288	0.564021	0.076496
C91	C	1.043153	0.165998	-0.576806
C92	C	1.543153	0.665998	-0.076806
C93	C	1.043146	0.165996	-0.423473
C94	C	1.543146	0.665996	0.076527
C95	C	1.094087	0.216991	-0.653459
C96	C	1.594087	0.716991	-0.153459
C97	C	1.145011	0.267973	-0.576775
C98	C	1.645011	0.767973	-0.076775
C99	C	1.144997	0.267971	-0.423432
C100	C	1.644997	0.767971	0.076568
C101	C	1.094065	0.216981	-0.346789
C102	C	1.594065	0.716981	0.153211
N103	N	0.992234	0.115013	0.346510
N104	N	1.492234	0.615013	0.846510
H105	H	0.563912	-0.031574	0.000015
H106	H	1.063912	0.468426	0.500015
O107	O	0.821590	-0.422846	0.000022
O108	O	1.321590	0.077154	0.500022
H109	H	0.810439	-0.460588	0.098837
H110	H	1.310439	0.039412	0.598837
O111	O	1.199916	0.322964	-0.340722
O112	O	1.699916	0.822964	0.159278
H113	H	1.235335	0.358415	-0.419789
H114	H	1.735335	0.858415	0.080211
H115	H	1.065049	-0.447050	-0.221753
H116	H	1.565049	0.052950	0.278247
H117	H	0.890349	0.013025	-0.222003
H118	H	1.390349	0.513025	0.277997
H119	H	1.094089	0.216991	-0.778311
H120	H	1.594089	0.716991	-0.278311
H121	H	0.797968	-0.079465	-0.361111
H122	H	1.297968	0.420535	0.138889
H123	H	0.919449	-0.323046	0.221729
H124	H	1.419449	0.176954	0.721729
H125	H	0.797985	-0.079463	-0.639308
H126	H	1.297985	0.420537	-0.139308
H127	H	0.449442	0.040317	0.221509
H128	H	0.949442	0.540317	0.721509
H129	H	0.890383	0.013045	-0.778377
H130	H	1.390383	0.513045	-0.278377
H131	H	0.534868	0.189647	0.221715
H132	H	1.034868	0.689647	0.721715
H133	H	0.420724	0.261690	-0.000017
H134	H	0.920724	0.761690	0.499983
H135	H	0.919434	-0.322888	-0.221744
H136	H	1.419434	0.177112	0.278256
O137	O	1.199951	0.322960	-0.659442
O138	O	1.699951	0.822960	-0.159442
H139	H	1.191408	0.314391	-0.778947
H140	H	1.691408	0.814391	-0.278947
O141	O	1.094048	0.216985	-0.181407
O142	O	1.594048	0.716985	0.318593
H143	H	1.050071	0.172968	-0.140996
H144	H	1.550071	0.672968	0.359004
H145	H	0.535023	0.189643	-0.221761
H146	H	1.035023	0.689643	0.278239
O147	O	0.442955	0.029212	-0.254715
O148	O	0.942955	0.529212	0.245285
H149	H	0.473973	-0.036726	-0.254446
H150	H	0.973973	0.463274	0.245554
H151	H	1.140671	-0.351942	-0.000046
H152	H	1.640671	0.148058	0.499954
O153	O	1.075890	-0.456495	0.254441
O154	O	1.575890	0.043505	0.754441
H155	H	1.142627	-0.442866	0.254184
H156	H	1.642627	0.057134	0.754184
