data_functionalizedCrystal
_audit_creation_method	'MofGen! by Chris Wilmer'
_symmetry_space_group_name_H-M	'P1'
_symmetry_Int_Tables_number	1
_symmetry_cell_setting	triclinic
loop_
_symmetry_equiv_pos_as_xyz
  x,y,z
_cell_length_a	19.121063
_cell_length_b	19.077241
_cell_length_c	19.121242
_cell_angle_alpha	85.148886
_cell_angle_beta	85.049781
_cell_angle_gamma	85.144908
loop_
_atom_site_label
_atom_site_type_symbol
_atom_site_fract_x
_atom_site_fract_y
_atom_site_fract_z
Zn1	Zn	-0.255515	-1.084325	0.451571
Zn2	Zn	0.077818	-0.750992	0.784904
Zn3	Zn	0.411152	-0.417659	1.118237
Zn4	Zn	-0.368540	-1.074582	0.338545
Zn5	Zn	-0.035206	-0.741249	0.671879
Zn6	Zn	0.298127	-0.407915	1.005212
Zn7	Zn	-0.255233	-0.961419	0.329185
Zn8	Zn	0.078100	-0.628086	0.662519
Zn9	Zn	0.411433	-0.294753	0.995852
Zn10	Zn	-0.377857	-0.961366	0.451802
Zn11	Zn	-0.044524	-0.628032	0.785135
Zn12	Zn	0.288809	-0.294699	1.118469
O13	O	-0.314286	-1.020423	0.392776
O14	O	0.019047	-0.687090	0.726109
O15	O	0.352380	-0.353756	1.059443
O16	O	-0.266727	-1.181851	0.440398
O17	O	0.066607	-0.848518	0.773731
O18	O	0.399940	-0.515184	1.107065
O19	O	-0.349492	-1.055516	0.238687
O20	O	-0.016159	-0.722182	0.572020
O21	O	0.317175	-0.388849	0.905354
O22	O	-0.156651	-0.981823	0.341406
O23	O	0.176683	-0.648490	0.674739
O24	O	0.510016	-0.315156	1.008073
O25	O	-0.349765	-1.174693	0.357359
O26	O	-0.016432	-0.841359	0.690692
O27	O	0.316901	-0.508026	1.024026
O28	O	-0.156858	-1.072121	0.431322
O29	O	0.176475	-0.738788	0.764655
O30	O	0.509809	-0.405455	1.097989
O31	O	-0.266246	-0.972375	0.231810
O32	O	0.067087	-0.639042	0.565143
O33	O	0.400420	-0.305709	0.898477
O34	O	-0.275281	-0.862594	0.341630
O35	O	0.058052	-0.529261	0.674964
O36	O	0.391386	-0.195927	1.008297
O37	O	-0.365646	-0.981732	0.550388
O38	O	-0.032312	-0.648398	0.883722
O39	O	0.301021	-0.315065	1.217055
O40	O	-0.365372	-0.862555	0.431716
O41	O	-0.032039	-0.529221	0.765050
O42	O	0.301294	-0.195888	1.098383
O43	O	-0.275761	-1.072069	0.550218
O44	O	0.057572	-0.738736	0.883552
O45	O	0.390905	-0.405403	1.216885
O46	O	-0.468396	-1.055464	0.357583
O47	O	-0.135062	-0.722130	0.690917
O48	O	0.198271	-0.388797	1.024250
O49	O	-0.475241	-0.972284	0.440792
O50	O	-0.141908	-0.638951	0.774126
O51	O	0.191426	-0.305617	1.107459
C52	C	-0.321308	-0.836952	0.385683
C53	C	0.012026	-0.503619	0.719016
C54	C	0.345359	-0.170285	1.052350
C55	C	-0.324329	-0.758462	0.382666
C56	C	0.009004	-0.425129	0.715999
C57	C	0.342338	-0.091795	1.049333
C58	C	-0.282589	-0.725315	0.424554
C59	C	0.050744	-0.391982	0.757888
C60	C	0.384078	-0.058648	1.091221
C61	C	-0.285424	-0.651565	0.421714
C62	C	0.047909	-0.318232	0.755047
C63	C	0.381242	0.015101	1.088380
C64	C	-0.330004	-0.610964	0.376987
C65	C	0.003330	-0.277631	0.710321
C66	C	0.336663	0.055702	1.043654
C67	C	-0.371745	-0.644116	0.335094
C68	C	-0.038412	-0.310783	0.668428
C69	C	0.294921	0.022550	1.001761
C70	C	-0.368906	-0.717865	0.337932
C71	C	-0.035573	-0.384531	0.671265
C72	C	0.297761	-0.051198	1.004599
C73	C	-0.343120	-0.390000	0.363853
C74	C	-0.009787	-0.056667	0.697187
C75	C	0.323546	0.276666	1.030520
C76	C	-0.345958	-0.316247	0.361020
C77	C	-0.012625	0.017086	0.694354
C78	C	0.320708	0.350419	1.027687
C79	C	-0.259636	-0.323701	0.447639
C80	C	0.073697	0.009632	0.780972
C81	C	0.407031	0.342965	1.114305
C82	C	-0.256804	-0.397451	0.450476
C83	C	0.076530	-0.064117	0.783809
C84	C	0.409863	0.269216	1.117142
C85	C	-0.298542	-0.430596	0.408580
C86	C	0.034791	-0.097263	0.741913
C87	C	0.368124	0.236070	1.075247
N88	N	-0.332905	-0.535580	0.374084
N89	N	0.000429	-0.202247	0.707417
N90	N	0.333762	0.131086	1.040751
N91	N	-0.295637	-0.505979	0.411480
N92	N	0.037696	-0.172646	0.744813
N93	N	0.371029	0.160688	1.078147
C94	C	-0.497389	-1.012831	0.400245
C95	C	-0.164056	-0.679497	0.733578
C96	C	0.169277	-0.346164	1.066911
C97	C	-0.575720	-1.009648	0.403466
C98	C	-0.242387	-0.676315	0.736799
C99	C	0.090947	-0.342981	1.070133
C100	C	-0.608933	-1.051497	0.361696
C101	C	-0.275599	-0.718163	0.695029
C102	C	0.057734	-0.384830	1.028362
C103	C	-0.682533	-1.048508	0.364729
C104	C	-0.349199	-0.715175	0.698063
C105	C	-0.015866	-0.381841	1.031396
C106	C	-0.722919	-1.003666	0.409531
C107	C	-0.389586	-0.670333	0.742864
C108	C	-0.056252	-0.337000	1.076197
C109	C	-0.689701	-0.961816	0.451306
C110	C	-0.356368	-0.628483	0.784639
C111	C	-0.023035	-0.295149	1.117972
C112	C	-0.616102	-0.964809	0.448275
C113	C	-0.282769	-0.631476	0.781608
C114	C	0.050564	-0.298142	1.114942
C115	C	-0.945320	-0.992464	0.420850
C116	C	-0.611986	-0.659131	0.754183
C117	C	-0.278653	-0.325798	1.087517
C118	C	-1.018923	-0.989473	0.423876
C119	C	-0.685590	-0.656140	0.757209
C120	C	-0.352257	-0.322806	1.090543
C121	C	-1.011750	-1.076166	0.337300
C122	C	-0.678416	-0.742833	0.670634
C123	C	-0.345083	-0.409500	1.003967
C124	C	-0.938150	-1.079152	0.334271
C125	C	-0.604816	-0.745819	0.667604
C126	C	-0.271483	-0.412485	1.000937
C127	C	-0.904939	-1.037305	0.376048
C128	C	-0.571605	-0.703971	0.709382
C129	C	-0.238272	-0.370638	1.042715
C130	C	-0.798150	-1.000608	0.412631
C131	C	-0.464817	-0.667275	0.745964
C132	C	-0.131484	-0.333942	1.079298
C133	C	-0.829708	-1.040366	0.372951
C134	C	-0.496375	-0.707033	0.706284
C135	C	-0.163042	-0.373700	1.039618
C136	C	-0.130468	-1.028065	0.385294
C137	C	0.202865	-0.694732	0.718627
C138	C	0.536198	-0.361398	1.051961
C139	C	-0.052136	-1.031322	0.382106
C140	C	0.281197	-0.697988	0.715439
C141	C	0.614531	-0.364655	1.048772
C142	C	-0.321774	-1.027981	0.576588
C143	C	0.011559	-0.694648	0.909922
C144	C	0.344892	-0.361315	1.243255
C145	C	-0.324965	-1.031202	0.654918
C146	C	0.008368	-0.697869	0.988252
C147	C	0.341702	-0.364536	1.321585
C148	C	-0.307234	-0.204611	0.399891
C149	C	0.026099	0.128723	0.733224
C150	C	0.359433	0.462056	1.066558
C151	C	-0.304218	-0.283100	0.402909
C152	C	0.029115	0.050233	0.736242
C153	C	0.362448	0.383567	1.069575
C154	C	-0.306775	-1.012937	0.209678
C155	C	0.026558	-0.679604	0.543011
C156	C	0.359892	-0.346270	0.876345
C157	C	-0.303380	-1.009861	0.131345
C158	C	0.029953	-0.676528	0.464679
C159	C	0.363286	-0.343194	0.798012
C160	C	-0.345220	-1.051628	1.098119
C161	C	-0.011887	-0.718295	1.431453
C162	C	0.321446	-0.384962	1.764786
C163	C	-0.342218	-1.048592	1.024520
C164	C	-0.008885	-0.715258	1.357853
C165	C	0.324448	-0.381925	1.691186
C166	C	-0.297372	-1.003791	0.984147
C167	C	0.035961	-0.670458	1.317480
C168	C	0.369295	-0.337124	1.650814
C169	C	-0.255531	-0.962019	1.017378
C170	C	0.077803	-0.628686	1.350711
C171	C	0.411136	-0.295352	1.684045
C172	C	-0.258537	-0.965052	1.090976
C173	C	0.074796	-0.631719	1.424310
C174	C	0.408130	-0.298386	1.757643
C175	C	-0.286130	-0.992464	0.761748
C176	C	0.047203	-0.659130	1.095081
C177	C	0.380537	-0.325797	1.428415
C178	C	-0.283125	-0.989435	0.688144
C179	C	0.050208	-0.656102	1.021478
C180	C	0.383541	-0.322768	1.354811
C181	C	-0.369814	-1.076007	0.695291
C182	C	-0.036481	-0.742674	1.028625
C183	C	0.296852	-0.409340	1.361958
C184	C	-0.372813	-1.079039	0.768891
C185	C	-0.039480	-0.745706	1.102224
C186	C	0.293853	-0.412373	1.435558
C187	C	-0.330975	-1.037265	0.802115
C188	C	0.002359	-0.703931	1.135449
C189	C	0.335692	-0.370598	1.468782
C190	C	-0.294301	-1.000688	0.908916
C191	C	0.039033	-0.667354	1.242249
C192	C	0.372366	-0.334021	1.575583
C193	C	-0.334050	-1.040365	0.877345
C194	C	-0.000717	-0.707031	1.210678
C195	C	0.332616	-0.373698	1.544012
H196	H	-0.251436	-0.624580	0.455825
H197	H	0.081897	-0.291247	0.789158
H198	H	0.415230	0.042086	1.122492
H199	H	-0.722590	-0.925308	0.487787
H200	H	-0.389256	-0.591975	0.821120
H201	H	-0.055923	-0.258641	1.154454
Cl202	Cl	-0.848927	-0.944237	0.468950
Cl203	Cl	-0.515594	-0.610904	0.802284
Cl204	Cl	-0.182261	-0.277570	1.135617
H205	H	-0.589062	-0.930732	0.482290
H206	H	-0.255728	-0.597399	0.815623
H207	H	0.077605	-0.264066	1.148957
Cl208	Cl	-1.053505	-1.128776	0.284788
Cl209	Cl	-0.720172	-0.795442	0.618121
Cl210	Cl	-0.386839	-0.462109	0.951455
Cl211	Cl	-1.069694	-0.933087	0.480192
Cl212	Cl	-0.736361	-0.599753	0.813526
Cl213	Cl	-0.403027	-0.266420	1.146859
H214	H	-0.576055	-1.088008	0.325211
H215	H	-0.242721	-0.754675	0.658544
H216	H	0.090612	-0.421342	0.991877
H217	H	-0.246289	-0.758367	0.460977
H218	H	0.087044	-0.425034	0.794311
H219	H	0.420377	-0.091701	1.127644
Cl220	Cl	-0.233565	-0.939913	0.803506
Cl221	Cl	0.099768	-0.606580	1.136840
Cl222	Cl	0.433102	-0.273247	1.470173
H223	H	-0.905268	-1.115666	0.297790
H224	H	-0.571935	-0.782332	0.631123
H225	H	-0.238602	-0.448999	0.964457
H226	H	-0.409333	-1.115520	0.801758
H227	H	-0.075999	-0.782187	1.135091
H228	H	0.257334	-0.448854	1.468424
H229	H	-0.709571	-1.082585	0.330715
H230	H	-0.376238	-0.749252	0.664048
H231	H	-0.042904	-0.415918	0.997382
H232	H	-0.246601	-0.952954	0.655274
H233	H	0.086732	-0.619621	0.988608
H234	H	0.420066	-0.286287	1.321941
H235	H	-0.220505	-0.430504	0.486899
H236	H	0.112828	-0.097170	0.820232
H237	H	0.446162	0.236163	1.153566
H238	H	-0.403878	-1.110017	0.668232
H239	H	-0.070544	-0.776683	1.001565
H240	H	0.262789	-0.443350	1.334898
H241	H	-0.219019	-0.925538	0.984501
H242	H	0.114314	-0.592205	1.317834
H243	H	0.447647	-0.258871	1.651167
H244	H	-0.381736	-1.088113	1.130986
H245	H	-0.048402	-0.754780	1.464319
H246	H	0.284931	-0.421447	1.797653
Cl247	Cl	-0.402023	-0.265206	0.304806
Cl248	Cl	-0.068689	0.068127	0.638139
Cl249	Cl	0.264644	0.401460	0.971473
Cl250	Cl	-0.903578	-0.939854	0.473370
Cl251	Cl	-0.570245	-0.606521	0.806703
Cl252	Cl	-0.236911	-0.273187	1.140037
Cl253	Cl	-0.778936	-1.096740	0.316635
Cl254	Cl	-0.445603	-0.763406	0.649968
Cl255	Cl	-0.112270	-0.430073	0.983301
Cl256	Cl	-0.394818	-1.101103	0.982753
Cl257	Cl	-0.061485	-0.767770	1.316086
Cl258	Cl	0.271849	-0.434437	1.649420
Cl259	Cl	-0.395577	-0.431660	0.311168
Cl260	Cl	-0.062244	-0.098326	0.644502
Cl261	Cl	0.271090	0.235007	0.977835
H262	H	-0.224466	-0.931042	1.118028
H263	H	0.108868	-0.597708	1.451361
H264	H	0.442201	-0.264375	1.784694
H265	H	-0.225654	-0.296706	0.481747
H266	H	0.107680	0.036627	0.815080
H267	H	0.441013	0.369961	1.148414
H268	H	-0.370565	-1.076840	0.910220
H269	H	-0.037232	-0.743506	1.243553
H270	H	0.296101	-0.410173	1.576886
H271	H	-0.408039	-0.611053	0.298674
H272	H	-0.074706	-0.277720	0.632007
H273	H	0.258627	0.055614	0.965341
Cl274	Cl	-0.421382	-0.759535	0.285271
Cl275	Cl	-0.088049	-0.426202	0.618604
Cl276	Cl	0.245285	-0.092869	0.951937
H277	H	-0.257786	-0.964212	0.876036
H278	H	0.075547	-0.630878	1.209370
H279	H	0.408881	-0.297545	1.542703
