data_functionalizedCrystal
_audit_creation_method	'MofGen! by Chris Wilmer'
_symmetry_space_group_name_H-M	'P1'
_symmetry_Int_Tables_number	1
_symmetry_cell_setting	triclinic
loop_
_symmetry_equiv_pos_as_xyz
  x,y,z
_cell_length_a	10.654550
_cell_length_b	10.654550
_cell_length_c	9.130313
_cell_angle_alpha	89.996647
_cell_angle_beta	89.999724
_cell_angle_gamma	84.484917
loop_
_atom_site_label
_atom_site_type_symbol
_atom_site_fract_x
_atom_site_fract_y
_atom_site_fract_z
O1	O	1.667839	0.176399	-0.121686
O2	O	1.302361	0.193205	-0.121712
O3	O	1.493503	0.002063	-0.121693
O4	O	1.476697	0.367541	-0.121705
O5	O	1.493490	0.002057	0.121906
O6	O	1.302348	0.193199	0.121886
O7	O	1.667826	0.176393	0.121913
Cu8	Cu	1.485086	0.184796	0.144142
Cu9	Cu	1.485101	0.184802	-0.143942
O10	O	1.476684	0.367535	0.121894
C11	C	1.255556	0.191968	0.000084
C12	C	1.116113	0.188276	0.000073
C13	C	1.036627	0.300818	0.000074
C14	C	0.905607	0.297341	0.000100
C15	C	0.933570	0.068772	0.000118
C16	C	1.064588	0.072250	0.000103
C17	C	1.492263	-0.044738	0.000104
C18	C	1.488571	-0.184181	0.000099
C19	C	1.601112	-0.263667	0.000112
C20	C	1.597636	-0.394688	0.000101
C21	C	1.369066	-0.366725	0.000072
C22	C	1.372544	-0.235706	0.000072
C23	C	1.717139	-0.212142	0.000139
C24	C	1.829690	-0.291629	0.000153
C25	C	1.826213	-0.422650	0.000143
C26	C	1.710186	-0.474184	0.000118
C27	C	1.714631	0.177630	0.000114
C28	C	1.854074	0.181322	0.000114
C29	C	1.477924	0.414336	0.000093
C30	C	1.481616	0.553779	0.000089
N31	N	1.485084	0.184790	0.346765
N32	N	1.485113	0.184798	-0.346564
C33	C	1.569751	0.100188	0.423425
C34	C	1.569763	0.100189	0.576762
C35	C	1.400437	0.269404	0.576765
C36	C	1.400420	0.269396	0.423431
H37	H	0.891602	-0.025693	0.000151
F38	F	1.659874	0.010142	0.658345
H39	H	1.719983	-0.105460	0.000152
H40	H	1.331468	0.338290	0.361009
H41	H	1.280903	-0.170986	0.000063
F42	F	1.149188	-0.047539	0.000112
H43	H	1.917857	-0.487366	0.000139
F44	F	1.953167	-0.236781	0.000163
F45	F	1.706492	-0.613630	0.000155
H46	H	1.331508	0.338290	0.639201
F47	F	1.245591	-0.421576	0.000047
H48	H	0.840894	0.388984	0.000103
H49	H	1.078574	0.395294	0.000061
F50	F	1.659854	0.010140	0.341838
