data_functionalizedCrystal
_audit_creation_method	'MofGen! by Chris Wilmer'
_symmetry_space_group_name_H-M	'P1'
_symmetry_Int_Tables_number	1
_symmetry_cell_setting	triclinic
loop_
_symmetry_equiv_pos_as_xyz
  x,y,z
_cell_length_a	14.044191
_cell_length_b	10.489741
_cell_length_c	13.101039
_cell_angle_alpha	93.396862
_cell_angle_beta	86.337551
_cell_angle_gamma	88.865475
loop_
_atom_site_label
_atom_site_type_symbol
_atom_site_fract_x
_atom_site_fract_y
_atom_site_fract_z
O1	O	1.264977	0.301339	-0.085164
O2	O	1.764977	0.801339	0.414836
O3	O	0.988932	0.290224	-0.085177
O4	O	1.488932	0.790224	0.414823
O5	O	1.133235	0.110821	-0.085164
O6	O	1.633235	0.610821	0.414836
O7	O	1.120673	0.480741	-0.085176
O8	O	1.620673	0.980741	0.414824
O9	O	1.122882	0.123716	0.085265
O10	O	1.622882	0.623716	0.585265
O11	O	0.978579	0.303119	0.085252
O12	O	1.478579	0.803119	0.585252
O13	O	1.254623	0.314234	0.085265
O14	O	1.754623	0.814234	0.585265
Zn15	Zn	1.114957	0.310724	0.112318
Zn16	Zn	1.614957	0.810724	0.612318
Zn17	Zn	1.128598	0.293734	-0.112229
Zn18	Zn	1.628598	0.793734	0.387771
O19	O	1.110320	0.493637	0.085252
O20	O	1.610320	0.993637	0.585252
C21	C	0.948408	0.291809	0.000036
C22	C	1.448408	0.791809	0.500036
C23	C	0.843083	0.277305	0.000031
C24	C	1.343083	0.777305	0.500031
C25	C	0.593317	0.353651	0.000039
C26	C	1.093317	0.853651	0.500039
C27	C	0.650244	0.250811	0.000041
C28	C	1.150244	0.750811	0.500041
C29	C	0.757550	0.265556	0.000036
C30	C	1.257550	0.765556	0.500036
C31	C	0.486002	0.338909	0.000044
C32	C	0.986002	0.838909	0.500044
C33	C	1.127110	0.069641	0.000050
C34	C	1.627110	0.569641	0.500050
C35	C	1.124271	-0.072277	0.000048
C36	C	1.624271	0.427723	0.500048
C37	C	1.032455	-0.149733	0.000036
C38	C	1.532455	0.350267	0.500036
C39	C	1.070724	-0.231097	0.084069
C40	C	1.570724	0.268903	0.584069
C41	C	1.080953	-0.243783	-0.083961
C42	C	1.580953	0.256217	0.416039
C43	C	1.162573	-0.151766	0.084150
C44	C	1.662573	0.348234	0.584150
C45	C	1.172794	-0.164450	-0.083955
C46	C	1.672794	0.335550	0.416045
C47	C	1.211128	-0.245778	0.000098
C48	C	1.711128	0.254222	0.500098
C49	C	1.295148	0.312649	0.000050
C50	C	1.795148	0.812649	0.500050
C51	C	1.400473	0.327152	0.000048
C52	C	1.900473	0.827152	0.500048
C53	C	1.116446	0.534817	0.000036
C54	C	1.616446	1.034817	0.500036
C55	C	1.119285	0.676734	0.000032
C56	C	1.619285	1.176734	0.500032
N57	N	1.105654	0.322319	0.265566
N58	N	1.605654	0.822319	0.765566
N59	N	1.137908	0.282129	-0.265477
N60	N	1.637908	0.782129	0.234523
C61	C	1.092998	0.338106	0.474607
C62	C	1.592998	0.838106	0.974607
C63	C	1.150562	0.266346	0.525488
C64	C	1.650562	0.766346	1.025488
C65	C	1.143520	0.275130	0.641806
C66	C	1.643520	0.775130	1.141806
C67	C	1.100039	0.329324	0.358279
C68	C	1.600039	0.829324	0.858279
H69	H	0.625168	0.452761	0.000033
H70	H	1.125168	0.952761	0.500033
H71	H	0.618396	0.151688	-0.000028
H72	H	1.118396	0.651688	0.499972
Br73	Br	0.906626	-0.079736	0.000161
Br74	Br	1.406626	0.420264	0.500161
H75	H	1.205134	0.198314	0.481691
H76	H	1.705134	0.698314	0.981691
Br77	Br	0.998784	-0.280394	0.202476
Br78	Br	1.498784	0.219606	0.702476
H79	H	1.197068	-0.111614	0.155272
H80	H	1.697068	0.388386	0.655272
Br81	Br	1.002047	0.451497	0.547599
Br82	Br	1.502047	0.951497	1.047599
H83	H	1.215927	-0.134842	-0.154999
H84	H	1.715927	0.365158	0.345001
Br85	Br	1.023367	-0.310962	-0.202362
Br86	Br	1.523367	0.189038	0.297638
H87	H	1.286684	-0.287532	0.000148
H88	H	1.786684	0.212468	0.500148
