data_functionalizedCrystal
_audit_creation_method	'MofGen! by Chris Wilmer'
_symmetry_space_group_name_H-M	'P1'
_symmetry_Int_Tables_number	1
_symmetry_cell_setting	triclinic
loop_
_symmetry_equiv_pos_as_xyz
  x,y,z
_cell_length_a	9.065215
_cell_length_b	11.792254
_cell_length_c	7.540329
_cell_angle_alpha	89.996229
_cell_angle_beta	89.997574
_cell_angle_gamma	84.606648
loop_
_atom_site_label
_atom_site_type_symbol
_atom_site_fract_x
_atom_site_fract_y
_atom_site_fract_z
O1	O	1.958851	0.166413	-0.147463
O2	O	1.529439	0.180068	-0.147471
O3	O	1.754556	0.008129	-0.147454
O4	O	1.733734	0.338353	-0.147480
O5	O	1.754542	0.008127	0.147511
O6	O	1.529425	0.180066	0.147494
O7	O	1.958838	0.166411	0.147502
Cu8	Cu	1.744130	0.173238	0.174431
Cu9	Cu	1.744146	0.173241	-0.174400
O10	O	1.733720	0.338350	0.147485
C11	C	1.474457	0.178755	0.000011
C12	C	1.310651	0.174834	0.000008
C13	C	1.753237	-0.034170	0.000028
C14	C	1.749311	-0.160205	0.000026
C15	C	1.746122	-0.262559	0.000020
C16	C	1.742133	-0.390968	0.000003
C17	C	2.013819	0.167724	0.000017
C18	C	2.177625	0.171645	0.000008
C19	C	1.735039	0.380649	-0.000001
C20	C	1.738965	0.506684	-0.000011
N21	N	1.744130	0.173236	0.419779
N22	N	1.744158	0.173234	-0.419748
