data_functionalizedCrystal
_audit_creation_method	'MofGen! by Chris Wilmer'
_symmetry_space_group_name_H-M	'P1'
_symmetry_Int_Tables_number	1
_symmetry_cell_setting	triclinic
loop_
_symmetry_equiv_pos_as_xyz
  x,y,z
_cell_length_a	16.120484
_cell_length_b	12.759401
_cell_length_c	12.759393
_cell_angle_alpha	90.020938
_cell_angle_beta	92.864008
_cell_angle_gamma	87.073008
loop_
_atom_site_label
_atom_site_type_symbol
_atom_site_fract_x
_atom_site_fract_y
_atom_site_fract_z
Zn1	Zn	-0.331832	-1.584985	-0.615183
Zn2	Zn	-0.471268	-1.575933	-0.448395
Zn3	Zn	-0.331877	-1.409280	-0.439521
Zn4	Zn	-0.471209	-1.400336	-0.624029
O5	O	-0.401546	-1.492634	-0.531782
O6	O	-0.350334	-1.730804	-0.593070
O7	O	-0.452820	-1.553781	-0.300200
O8	O	-0.215205	-1.440119	-0.455406
O9	O	-0.452777	-1.724154	-0.470532
O10	O	-0.215173	-1.569208	-0.584465
O11	O	-0.350410	-1.431342	-0.293680
O12	O	-0.350354	-1.261073	-0.463984
O13	O	-0.452678	-1.424875	-0.769874
O14	O	-0.452721	-1.254502	-0.599541
O15	O	-0.350278	-1.560535	-0.763375
O16	O	-0.587925	-1.545108	-0.479110
O17	O	-0.587883	-1.416098	-0.608147
C18	C	-0.618154	-1.478679	-0.545574
C19	C	-0.710820	-1.472805	-0.551509
C20	C	-0.401536	-1.219667	-0.531760
C21	C	-0.401552	-1.102889	-0.531777
C22	C	-0.401466	-1.492717	-0.805810
C23	C	-0.401432	-1.492753	-0.922585
C24	C	-0.880481	-1.462088	-0.562368
C25	C	-0.921772	-1.523367	-0.501213
C26	C	-1.016177	-1.517404	-0.507255
C27	C	-0.786067	-1.468050	-0.556327
C28	C	-0.184093	-1.506671	-0.517959
C29	C	-0.091427	-1.512653	-0.512068
C30	C	-0.401557	-1.766666	-0.531804
C31	C	-0.401562	-1.883442	-0.531814
C32	C	-0.454936	-1.044628	-0.602261
C33	C	-0.454939	-0.934904	-0.602282
C34	C	-0.348172	-0.941712	-0.461326
C35	C	-0.348166	-1.051434	-0.461311
C36	C	-0.348104	-1.563397	-0.974064
C37	C	-0.348068	-1.563417	-1.083786
C38	C	-0.454696	-1.422146	-1.090540
C39	C	-0.454727	-1.422122	-0.980820
C40	C	-0.401566	-1.492614	-0.258816
C41	C	-0.401365	-1.492797	-0.142027
H42	H	-0.886221	-1.580308	-0.444319
C43	C	-0.927833	-1.386293	-0.638392
C44	C	-0.906665	-1.410431	-0.741041
C45	C	-0.950289	-1.340640	-0.811098
H46	H	-0.913713	-1.316547	-0.622201
H47	H	-0.985911	-1.392337	-0.632487
H48	H	-0.848600	-1.404377	-0.746942
H49	H	-0.920787	-1.480165	-0.757264
H50	H	-1.008367	-1.346684	-0.805193
H51	H	-0.936165	-1.270898	-0.794898
H52	H	-0.935938	-1.357014	-0.880754
C53	C	-0.512754	-1.100638	-0.678826
C54	C	-0.465608	-1.166719	-0.743234
C55	C	-0.518841	-1.218340	-0.813773
H56	H	-0.544565	-1.050341	-0.720910
H57	H	-0.549027	-1.141146	-0.640896
H58	H	-0.429349	-1.126214	-0.781161
H59	H	-0.433798	-1.217036	-0.701179
H60	H	-0.555114	-1.258847	-0.775843
H61	H	-0.550650	-1.168035	-0.855849
H62	H	-0.486861	-1.263189	-0.857475
C63	C	-0.290139	-1.640237	-1.139486
C64	C	-0.243490	-1.702100	-1.064998
C65	C	-0.190122	-1.772889	-1.116270
H66	H	-0.253722	-1.602527	-1.179969
H67	H	-0.322003	-1.684019	-1.184301
H68	H	-0.211629	-1.658323	-1.020202
H69	H	-0.279885	-1.739832	-1.024511
H70	H	-0.221986	-1.816671	-1.161084
H71	H	-0.153711	-1.735170	-1.156751
H72	H	-0.158470	-1.814878	-1.065738
H73	H	-0.498408	-0.887472	-0.659679
C74	C	-0.290305	-0.885648	-0.384866
C75	C	-0.301750	-0.777086	-0.399945
C76	C	-0.248464	-0.725410	-0.329519
H77	H	-0.234270	-0.907120	-0.396726
H78	H	-0.302443	-0.902752	-0.314997
H79	H	-0.289607	-0.759990	-0.469799
H80	H	-0.357774	-0.755584	-0.388077
H81	H	-0.260602	-0.742513	-0.259649
H82	H	-0.192432	-0.746890	-0.341385
H83	H	-0.256228	-0.651745	-0.339734
C84	C	-0.290235	-1.114885	-0.384895
C85	C	-0.301640	-1.221989	-0.399987
C86	C	-0.248283	-1.280472	-0.329628
H87	H	-0.302316	-1.096221	-0.315007
H88	H	-0.234217	-1.100581	-0.396834
H89	H	-0.357646	-1.236287	-0.388040
H90	H	-0.289554	-1.240685	-0.469861
H91	H	-0.192264	-1.266167	-0.341567
H92	H	-0.260368	-1.261799	-0.259745
H93	H	-0.256008	-1.353148	-0.339865
H94	H	-0.304706	-1.620907	-0.926651
H95	H	-0.498088	-1.364643	-1.137969
C96	C	-0.512770	-1.345541	-0.924984
C97	C	-0.595254	-1.363113	-0.956894
C98	C	-0.648741	-1.292598	-0.905468
H99	H	-0.500671	-1.275697	-0.942138
H100	H	-0.505209	-1.355647	-0.851292
H101	H	-0.602811	-1.352998	-1.030569
H102	H	-0.607378	-1.432943	-0.939738
H103	H	-0.641180	-1.302705	-0.831777
H104	H	-0.636635	-1.222758	-0.922626
H105	H	-0.704712	-1.304517	-0.927104
