data_functionalizedCrystal
_audit_creation_method	'MofGen! by Chris Wilmer'
_symmetry_space_group_name_H-M	'P1'
_symmetry_Int_Tables_number	1
_symmetry_cell_setting	triclinic
loop_
_symmetry_equiv_pos_as_xyz
  x,y,z
_cell_length_a	12.594516
_cell_length_b	17.077404
_cell_length_c	17.077396
_cell_angle_alpha	90.017442
_cell_angle_beta	89.976020
_cell_angle_gamma	89.986879
loop_
_atom_site_label
_atom_site_type_symbol
_atom_site_fract_x
_atom_site_fract_y
_atom_site_fract_z
Zn1	Zn	-0.423817	-1.200074	-0.443876
Zn2	Zn	0.076183	-0.700074	0.056124
Zn3	Zn	-0.601820	-1.200002	-0.312622
Zn4	Zn	-0.101820	-0.700002	0.187378
Zn5	Zn	-0.423847	-1.068811	-0.312623
Zn6	Zn	0.076153	-0.568811	0.187377
Zn7	Zn	-0.601744	-1.068790	-0.443845
Zn8	Zn	-0.101744	-0.568790	0.056155
O9	O	-0.512807	-1.134419	-0.378242
O10	O	-0.012807	-0.634419	0.121758
O11	O	-0.447448	-1.309912	-0.426477
O12	O	0.052552	-0.809912	0.073523
O13	O	-0.578256	-1.182578	-0.202775
O14	O	-0.078256	-0.682578	0.297225
O15	O	-0.274897	-1.086263	-0.330048
O16	O	0.225103	-0.586263	0.169952
O17	O	-0.578226	-1.309859	-0.330046
O18	O	-0.078226	-0.809859	0.169954
O19	O	-0.274875	-1.182701	-0.426478
O20	O	0.225125	-0.682701	0.073522
O21	O	-0.447500	-1.086193	-0.202776
O22	O	0.052500	-0.586193	0.297224
O23	O	-0.447426	-0.958962	-0.330018
O24	O	0.052574	-0.458962	0.169982
O25	O	-0.578098	-1.086226	-0.553696
O26	O	-0.078098	-0.586226	-0.053696
O27	O	-0.578127	-0.958946	-0.426426
O28	O	-0.078127	-0.458946	0.073574
O29	O	-0.447375	-1.182680	-0.553719
O30	O	0.052625	-0.682680	-0.053719
O31	O	-0.750756	-1.182558	-0.330016
O32	O	-0.250756	-0.682558	0.169984
O33	O	-0.750700	-1.086156	-0.426425
O34	O	-0.250700	-0.586156	0.073575
C35	C	-0.512772	-0.930472	-0.378219
C36	C	-0.012772	-0.430472	0.121781
C37	C	-0.512783	-0.843222	-0.378228
C38	C	-0.012783	-0.343222	0.121772
C39	C	-0.444807	-0.802260	-0.428516
C40	C	0.055193	-0.302260	0.071484
C41	C	-0.444812	-0.720280	-0.428518
C42	C	0.055188	-0.220280	0.071482
C43	C	-0.512800	-0.679262	-0.378235
C44	C	-0.012800	-0.179262	0.121765
C45	C	-0.580779	-0.720230	-0.327942
C46	C	-0.080779	-0.220230	0.172058
C47	C	-0.580767	-0.802209	-0.327937
C48	C	-0.080767	-0.302209	0.172063
C49	C	-0.580799	-0.549360	-0.327958
C50	C	-0.080799	-0.049360	0.172042
C51	C	-0.580812	-0.467375	-0.327963
C52	C	-0.080812	0.032625	0.172037
C53	C	-0.444844	-0.467431	-0.428538
C54	C	0.055156	0.032569	0.071462
C55	C	-0.444833	-0.549410	-0.428533
C56	C	0.055167	-0.049410	0.071467
C57	C	-0.512814	-0.590371	-0.378241
C58	C	-0.012814	-0.090371	0.121759
C59	C	-0.789348	-1.134368	-0.378234
C60	C	-0.289348	-0.634368	0.121766
C61	C	-0.907653	-1.134418	-0.378257
C62	C	-0.407653	-0.634418	0.121743
C63	C	-0.976915	-1.081980	-0.430657
C64	C	-0.476915	-0.581980	0.069343
C65	C	-1.047775	-1.062859	-0.359029
C66	C	-0.547775	-0.562859	0.140971
C67	C	-1.047592	-1.153611	-0.449897
C68	C	-0.547592	-0.653611	0.050103
C69	C	-0.976955	-1.115259	-0.306591
C70	C	-0.476955	-0.615259	0.193409
C71	C	-0.976766	-1.206044	-0.397507
C72	C	-0.476766	-0.706044	0.102493
C73	C	-1.047594	-1.186950	-0.325830
C74	C	-0.547594	-0.686950	0.174170
C75	C	-0.235186	-1.134493	-0.378267
C76	C	0.264814	-0.634493	0.121733
C77	C	-0.116881	-1.134524	-0.378277
C78	C	0.383119	-0.634524	0.121723
C79	C	-0.512724	-1.134459	-0.582986
C80	C	-0.012724	-0.634459	-0.082986
C81	C	-0.512689	-1.134476	-0.670236
C82	C	-0.012689	-0.634476	-0.170236
C83	C	-0.512837	-0.339164	-0.378259
C84	C	-0.012837	0.160836	0.121741
C85	C	-0.512836	-0.426414	-0.378251
C86	C	-0.012836	0.073586	0.121749
C87	C	-0.444596	-1.084303	-0.711226
C88	C	0.055404	-0.584303	-0.211226
C89	C	-0.444572	-1.084316	-0.793206
C90	C	0.055428	-0.584316	-0.293206
C91	C	-0.512636	-1.134506	-0.834195
C92	C	-0.012636	-0.634506	-0.334195
C93	C	-0.580737	-1.184681	-0.793200
C94	C	-0.080737	-0.684681	-0.293200
C95	C	-0.580766	-1.184663	-0.711221
C96	C	-0.080766	-0.684663	-0.211221
C97	C	-0.580670	-1.184715	-0.964070
C98	C	-0.080670	-0.684715	-0.464070
C99	C	-0.580640	-1.184733	-1.046054
C100	C	-0.080640	-0.684733	-0.546054
C101	C	-0.444477	-1.084367	-1.046056
C102	C	0.055523	-0.584367	-0.546056
C103	C	-0.444506	-1.084350	-0.964077
C104	C	0.055494	-0.584350	-0.464077
C105	C	-0.512605	-1.134526	-0.923086
C106	C	-0.012605	-0.634526	-0.423086
C107	C	-0.512812	-1.134425	-0.174294
C108	C	-0.012812	-0.634425	0.325706
C109	C	-0.512548	-1.134561	-0.087044
C110	C	-0.012548	-0.634561	0.412956
H111	H	-0.636130	-0.686827	-0.286997
H112	H	-0.136130	-0.186827	0.213003
H113	H	-0.946056	-1.098998	-0.245998
H114	H	-0.446056	-0.598998	0.254002
H115	H	-1.078620	-1.169801	-0.510474
H116	H	-0.578620	-0.669801	-0.010474
Br117	Br	-1.098995	-1.260941	-0.251907
Br118	Br	-0.598995	-0.760941	0.248093
H119	H	-0.389077	-1.043484	-0.930706
H120	H	0.110923	-0.543484	-0.430706
Br121	Br	-0.673022	-0.857801	-0.259685
Br122	Br	-0.173022	-0.357801	0.240315
Br123	Br	-0.925185	-1.007943	-0.504410
Br124	Br	-0.425185	-0.507943	-0.004410
H125	H	-0.389128	-1.043457	-0.826577
H126	H	0.110872	-0.543457	-0.326577
H127	H	-0.636154	-0.582709	-0.287002
H128	H	-0.136154	-0.082709	0.212998
H129	H	-0.945555	-1.266553	-0.413807
H130	H	-0.445555	-0.766553	0.086193
Br131	Br	-0.352051	-1.016275	-1.101684
Br132	Br	0.147949	-0.516275	-0.601684
Br133	Br	-0.352210	-1.016190	-0.655606
Br134	Br	0.147790	-0.516190	-0.155606
H135	H	-0.636064	-1.225602	-1.079425
H136	H	-0.136064	-0.725602	-0.579425
Br137	Br	-0.352576	-0.605076	-0.496783
Br138	Br	0.147424	-0.105076	0.003217
Br139	Br	-0.673098	-1.252806	-0.908441
Br140	Br	-0.173098	-0.752806	-0.408441
Br141	Br	-0.673121	-1.252790	-0.848827
Br142	Br	-0.173121	-0.752790	-0.348827
Br143	Br	-0.352584	-0.411841	-0.496792
Br144	Br	0.147416	0.088159	0.003208
H145	H	-1.078989	-1.002336	-0.342764
H146	H	-0.578989	-0.502336	0.157236
H147	H	-0.389447	-0.835650	-0.469464
H148	H	0.110553	-0.335650	0.030536
Br149	Br	-0.352556	-0.664691	-0.496769
Br150	Br	0.147444	-0.164691	0.003231
H151	H	-0.636206	-1.225525	-0.677848
H152	H	-0.136206	-0.725525	-0.177848
H153	H	-0.636174	-0.433981	-0.287019
H154	H	-0.136174	0.066019	0.212981
