data_functionalizedCrystal
_audit_creation_method	'MofGen! by Chris Wilmer'
_symmetry_space_group_name_H-M	'P1'
_symmetry_Int_Tables_number	1
_symmetry_cell_setting	triclinic
loop_
_symmetry_equiv_pos_as_xyz
  x,y,z
_cell_length_a	16.109318
_cell_length_b	10.654551
_cell_length_c	14.586319
_cell_angle_alpha	89.999036
_cell_angle_beta	90.000075
_cell_angle_gamma	83.976962
loop_
_atom_site_label
_atom_site_type_symbol
_atom_site_fract_x
_atom_site_fract_y
_atom_site_fract_z
O1	O	1.104083	0.161523	-0.076158
O2	O	1.604083	0.661523	0.423842
O3	O	0.862142	0.181588	-0.076176
O4	O	1.362142	0.681588	0.423824
O5	O	0.988674	-0.011259	-0.076167
O6	O	1.488674	0.488741	0.423833
O7	O	0.977550	0.354369	-0.076167
O8	O	1.477550	0.854369	0.423833
O9	O	0.988666	-0.011262	0.076314
O10	O	1.488666	0.488738	0.576314
O11	O	0.862133	0.181585	0.076305
O12	O	1.362133	0.681585	0.576305
O13	O	1.104074	0.161520	0.076323
O14	O	1.604074	0.661520	0.576323
Cu15	Cu	0.983103	0.171552	0.090236
Cu16	Cu	1.483103	0.671552	0.590236
Cu17	Cu	0.983113	0.171556	-0.090090
Cu18	Cu	1.483113	0.671556	0.409910
O19	O	0.977541	0.354367	0.076314
O20	O	1.477541	0.854367	0.576314
C21	C	0.831158	0.180770	0.000062
C22	C	1.331158	0.680770	0.500062
C23	C	0.738849	0.178322	0.000055
C24	C	1.238849	0.678322	0.500055
C25	C	0.439733	0.170416	-0.083046
C26	C	0.939733	0.670416	0.416954
C27	C	0.526468	0.172708	-0.083052
C28	C	1.026468	0.672708	0.416948
C29	C	0.526477	0.172688	0.083191
C30	C	1.026477	0.672688	0.583191
C31	C	0.439744	0.170387	0.083196
C32	C	0.939744	0.670387	0.583196
C33	C	0.396374	0.169257	0.000074
C34	C	0.896374	0.669257	0.500074
C35	C	0.569842	0.173850	0.000064
C36	C	1.069842	0.673850	0.500064
C37	C	0.663883	0.176336	0.000059
C38	C	1.163883	0.676336	0.500059
C39	C	0.302326	0.166770	0.000079
C40	C	0.802326	0.666770	0.500079
C41	C	0.987853	-0.058047	0.000071
C42	C	1.487853	0.441953	0.500071
C43	C	0.985409	-0.197457	0.000065
C44	C	1.485409	0.302543	0.500065
C45	C	0.984267	-0.262952	-0.083051
C46	C	1.484267	0.237048	0.416949
C47	C	0.981963	-0.393942	-0.083047
C48	C	1.481963	0.106058	0.416953
C49	C	0.981946	-0.393930	0.083196
C50	C	1.481946	0.106070	0.583196
C51	C	0.984244	-0.262942	0.083191
C52	C	1.484244	0.237058	0.583191
C53	C	0.985431	-0.197468	-0.166177
C54	C	1.485431	0.302532	0.333823
C55	C	0.984290	-0.262963	-0.249300
C56	C	1.484290	0.237037	0.250700
C57	C	0.981986	-0.393952	-0.249296
C58	C	1.481986	0.106048	0.250704
C59	C	0.980823	-0.459446	-0.166169
C60	C	1.480823	0.040554	0.333831
C61	C	1.135058	0.162338	0.000083
C62	C	1.635058	0.662338	0.500083
C63	C	1.227367	0.164786	0.000084
C64	C	1.727367	0.664786	0.500084
C65	C	0.978363	0.401155	0.000073
C66	C	1.478363	0.901155	0.500073
C67	C	0.980807	0.540565	0.000074
C68	C	1.480807	1.040565	0.500074
N69	N	0.983101	0.171549	0.217068
N70	N	1.483101	0.671549	0.717068
N71	N	0.983121	0.171549	-0.216922
N72	N	1.483121	0.671549	0.283078
C73	C	1.039149	0.086185	0.452078
C74	C	1.539149	0.586185	0.952078
C75	C	1.039151	0.086182	0.548060
C76	C	1.539151	0.586182	1.048060
C77	C	0.927067	0.256917	0.548061
C78	C	1.427067	0.756917	1.048061
C79	C	0.927062	0.256913	0.452082
C80	C	1.427062	0.756913	0.952082
C81	C	0.983107	0.171549	0.404093
C82	C	1.483107	0.671549	0.904093
C83	C	0.983115	0.171549	0.596054
C84	C	1.483115	0.671549	1.096054
C85	C	0.983117	0.171547	0.700121
C86	C	1.483117	0.671547	1.200121
C87	C	0.983104	0.171549	0.300019
C88	C	1.483104	0.671549	0.800019
H89	H	0.404441	0.169442	0.150887
H90	H	0.904441	0.669442	0.650887
Br91	Br	0.980426	-0.482834	-0.362102
Br92	Br	1.480426	0.017166	0.137898
H93	H	0.404424	0.169495	-0.150729
H94	H	0.904424	0.669495	0.349271
H95	H	0.985229	-0.209627	-0.316978
H96	H	1.485229	0.290373	0.183022
Br97	Br	0.988566	-0.019699	-0.166187
Br98	Br	1.488566	0.480301	0.333813
Br99	Br	0.585310	0.174271	-0.195863
Br100	Br	1.085310	0.674271	0.304137
H101	H	0.881438	0.326421	0.587143
H102	H	1.381438	0.826421	1.087143
Br103	Br	1.115208	-0.029669	0.386954
Br104	Br	1.615208	0.470331	0.886954
Br105	Br	0.585341	0.174232	0.195993
Br106	Br	1.085341	0.674232	0.695993
Br107	Br	0.977685	-0.637217	-0.166166
Br108	Br	1.477685	-0.137217	0.333834
H109	H	0.881422	0.326427	0.413009
H110	H	1.381422	0.826427	0.913009
Br111	Br	0.980368	-0.482814	0.196003
Br112	Br	1.480368	0.017186	0.696003
H113	H	1.084784	0.016670	0.587127
H114	H	1.584784	0.516670	1.087127
H115	H	0.985156	-0.209611	0.150871
H116	H	1.485156	0.290389	0.650871
