data_functionalizedCrystal
_audit_creation_method	'MofGen! by Chris Wilmer'
_symmetry_space_group_name_H-M	'P1'
_symmetry_Int_Tables_number	1
_symmetry_cell_setting	triclinic
loop_
_symmetry_equiv_pos_as_xyz
  x,y,z
_cell_length_a	17.038272
_cell_length_b	10.723024
_cell_length_c	9.198806
_cell_angle_alpha	90.002012
_cell_angle_beta	90.001650
_cell_angle_gamma	92.210287
loop_
_atom_site_label
_atom_site_type_symbol
_atom_site_fract_x
_atom_site_fract_y
_atom_site_fract_z
O1	O	1.038865	-0.271121	-0.120705
O2	O	1.538865	0.228879	0.379295
O3	O	0.811211	-0.266816	-0.120747
O4	O	1.311211	0.233184	0.379253
O5	O	0.930289	-0.087878	-0.120720
O6	O	1.430289	0.412122	0.379280
O7	O	0.919787	-0.450059	-0.120732
O8	O	1.419787	0.049941	0.379268
O9	O	0.930279	-0.087877	0.121065
O10	O	1.430279	0.412123	0.621065
O11	O	0.811201	-0.266815	0.121038
O12	O	1.311201	0.233185	0.621038
O13	O	1.038856	-0.271120	0.121081
O14	O	1.538856	0.228880	0.621081
Cu15	Cu	0.925027	-0.268967	0.143136
Cu16	Cu	1.425027	0.231033	0.643136
Cu17	Cu	0.925039	-0.268969	-0.142803
Cu18	Cu	1.425039	0.231031	0.357197
O19	O	0.919777	-0.450058	0.121053
O20	O	1.419777	0.049942	0.621053
C21	C	0.782056	-0.262900	0.000140
C22	C	1.282056	0.237100	0.500140
C23	C	0.695198	-0.251218	0.000123
C24	C	1.195198	0.248782	0.500123
N25	N	0.925025	-0.268966	0.344250
N26	N	1.425025	0.231034	0.844250
C27	C	0.929520	-0.041307	0.000171
C28	C	1.429520	0.458693	0.500171
C29	C	0.927233	0.097459	0.000166
C30	C	1.427233	0.597459	0.500166
C31	C	0.645677	-0.358473	0.000121
C32	C	1.145677	0.141527	0.500121
C33	C	0.564066	-0.347489	0.000141
C34	C	1.064066	0.152511	0.500141
C35	C	0.531977	-0.229248	0.000154
C36	C	1.031977	0.270752	0.500154
C37	C	0.581505	-0.121985	0.000161
C38	C	1.081505	0.378015	0.500161
C39	C	0.663115	-0.132970	0.000151
C40	C	1.163115	0.367030	0.500151
C41	C	0.286005	-0.190440	0.000194
C42	C	0.786005	0.309560	0.500194
C43	C	0.204389	-0.179463	0.000200
C44	C	0.704389	0.320537	0.500200
C45	C	0.186955	-0.404968	0.000183
C46	C	0.686955	0.095032	0.500183
C47	C	0.268567	-0.415943	0.000164
C48	C	0.768567	0.084057	0.500164
C49	C	0.318088	-0.308679	0.000179
C50	C	0.818088	0.191321	0.500179
C51	C	0.448558	-0.218018	0.000170
C52	C	0.948558	0.281982	0.500170
C53	C	0.401506	-0.319911	0.000173
C54	C	0.901506	0.180089	0.500173
C55	C	1.068010	-0.275036	0.000190
C56	C	1.568010	0.224964	0.500190
C57	C	1.154868	-0.286718	0.000197
C58	C	1.654868	0.213282	0.500197
C59	C	0.920546	-0.496629	0.000159
C60	C	1.420546	0.003371	0.500159
C61	C	0.922833	-0.635394	0.000155
C62	C	1.422833	-0.135394	0.500155
C63	C	0.993863	0.166278	0.000176
C64	C	1.493863	0.666278	0.500176
C65	C	0.991501	0.309700	0.000170
C66	C	1.491501	0.809700	0.500170
N67	N	0.925047	-0.268961	-0.343917
N68	N	1.425047	0.231039	0.156083
C69	C	0.975023	-0.193483	0.416459
C70	C	1.475023	0.306517	0.916459
C71	C	0.975035	-0.193480	0.583871
C72	C	1.475035	0.306520	1.083871
H73	H	0.671797	-0.454757	0.000109
H74	H	1.171797	0.045243	0.500109
H75	H	0.178266	-0.083172	0.000209
H76	H	0.678266	0.416828	0.500209
Cl77	Cl	0.858944	-0.368734	0.440145
Cl78	Cl	1.358944	0.131266	0.940145
H79	H	0.294687	-0.512227	0.000137
H80	H	0.794687	-0.012227	0.500137
Cl81	Cl	0.834758	0.273287	0.000152
Cl82	Cl	1.334758	0.773287	0.500152
Cl83	Cl	1.079573	0.401026	0.000195
Cl84	Cl	1.579573	0.901026	0.500195
H85	H	0.146627	-0.492295	0.000174
H86	H	0.646627	0.007705	0.500174
Cl87	Cl	1.084640	0.093322	0.000184
Cl88	Cl	1.584640	0.593322	0.500184
H89	H	1.017816	-0.128856	0.354342
H90	H	1.517816	0.371144	0.854342
H91	H	0.326315	-0.103097	0.000207
H92	H	0.826315	0.396903	0.500207
Cl93	Cl	0.836457	0.170414	0.000134
Cl94	Cl	1.336457	0.670414	0.500134
H95	H	0.523748	-0.434828	0.000137
H96	H	1.023748	0.065172	0.500137
Cl97	Cl	1.041130	-0.093708	0.679737
Cl98	Cl	1.541130	0.406292	1.179737
Cl99	Cl	0.858958	-0.368750	0.560227
Cl100	Cl	1.358958	0.131250	1.060227
Cl101	Cl	0.541165	0.026662	0.000186
Cl102	Cl	1.041165	0.526662	0.500186
Cl103	Cl	0.441847	-0.468551	0.000161
Cl104	Cl	0.941847	0.031449	0.500161
Cl105	Cl	0.725371	0.001872	0.000160
Cl106	Cl	1.225371	0.501872	0.500160
Cl107	Cl	0.408211	-0.069377	0.000179
Cl108	Cl	0.908211	0.430623	0.500179
