data_functionalizedCrystal
_audit_creation_method	'MofGen! by Chris Wilmer'
_symmetry_space_group_name_H-M	'P1'
_symmetry_Int_Tables_number	1
_symmetry_cell_setting	triclinic
loop_
_symmetry_equiv_pos_as_xyz
  x,y,z
_cell_length_a	12.759401
_cell_length_b	11.169416
_cell_length_c	12.759393
_cell_angle_alpha	89.970523
_cell_angle_beta	89.980548
_cell_angle_gamma	90.010380
loop_
_atom_site_label
_atom_site_type_symbol
_atom_site_fract_x
_atom_site_fract_y
_atom_site_fract_z
Zn1	Zn	1.606287	-0.477725	-0.594030
Zn2	Zn	1.606196	-0.678459	-0.418358
Zn3	Zn	1.430589	-0.477789	-0.418366
Zn4	Zn	1.430592	-0.678365	-0.593996
O5	O	1.518416	-0.578085	-0.506188
O6	O	1.753296	-0.504365	-0.570738
O7	O	1.582862	-0.651906	-0.271338
O8	O	1.453933	-0.309831	-0.441687
O9	O	1.753229	-0.651843	-0.441672
O10	O	1.583018	-0.309784	-0.570746
O11	O	1.453845	-0.504474	-0.271344
O12	O	1.283569	-0.504384	-0.441653
O13	O	1.453937	-0.651684	-0.741022
O14	O	1.283570	-0.651746	-0.570687
O15	O	1.583020	-0.504274	-0.741047
O16	O	1.582864	-0.846396	-0.441639
O17	O	1.453848	-0.846328	-0.570679
C18	C	1.245449	-0.578063	-0.506168
C19	C	1.128672	-0.578082	-0.506185
C20	C	1.073779	-0.654751	-0.438888
C21	C	0.964055	-0.654772	-0.438907
C22	C	0.964127	-0.501445	-0.573520
C23	C	1.073849	-0.501431	-0.573507
C24	C	1.073736	-0.743270	-0.361167
C25	C	0.964012	-0.743291	-0.361185
C26	C	1.518375	-0.889909	-0.506177
C27	C	1.518454	-1.023309	-0.506208
C28	C	1.792449	-0.578107	-0.506208
C29	C	1.909226	-0.578117	-0.506217
C30	C	1.518489	-0.577962	-0.780221
C31	C	1.518520	-0.577909	-0.896998
C32	C	1.518485	-0.265042	-0.506221
C33	C	1.518515	-0.131642	-0.506235
C34	C	1.451388	-0.501097	-1.061596
C35	C	1.451362	-0.501131	-0.951871
C36	C	1.585715	-0.654650	-0.951854
C37	C	1.585746	-0.654609	-1.061576
C38	C	1.373818	-0.412468	-1.061605
C39	C	1.373791	-0.412502	-0.951880
C40	C	1.518404	-0.578120	-0.233220
C41	C	1.518576	-0.577835	-0.116444
H42	H	1.107735	-0.709865	-0.283920
O43	O	1.127010	-0.426848	-0.638917
C44	C	1.115499	-0.274830	-0.772489
C45	C	1.055163	-0.359218	-0.698446
H46	H	1.057437	-0.220148	-0.820654
H47	H	1.166820	-0.211917	-0.724396
H48	H	1.166919	-0.330024	-0.827287
H49	H	1.003686	-0.304121	-0.643634
H50	H	1.003908	-0.422135	-0.746604
O51	O	0.923588	-0.848780	-0.395772
C52	C	0.960025	-1.046924	-0.460892
C53	C	1.005946	-0.927535	-0.421720
H54	H	1.026588	-1.110621	-0.481902
H55	H	0.909742	-1.088614	-0.396640
H56	H	0.909734	-1.029884	-0.533208
H57	H	1.056284	-0.944472	-0.349423
H58	H	1.056169	-0.885882	-0.486035
O59	O	1.651104	-0.729106	-0.898602
C60	C	1.829791	-0.787449	-0.865087
C61	C	1.755859	-0.703029	-0.925437
H62	H	1.914499	-0.766413	-0.886777
H63	H	1.818324	-0.774294	-0.777231
H64	H	1.811267	-0.884206	-0.886631
H65	H	1.774337	-0.606239	-0.903980
H66	H	1.767340	-0.716287	-1.013279
O67	O	0.928309	-0.713312	-0.264246
C68	C	0.826669	-0.574745	-0.161233
C69	C	0.867009	-0.608579	-0.271070
H70	H	0.777118	-0.490052	-0.166709
H71	H	0.776949	-0.650985	-0.128650
H72	H	0.896148	-0.558111	-0.107006
H73	H	0.797594	-0.625194	-0.325376
H74	H	0.916761	-0.532320	-0.303567
O75	O	0.910707	-0.427024	-0.638811
C76	C	0.741707	-0.359150	-0.698545
C77	C	0.802070	-0.443475	-0.624532
H78	H	0.653864	-0.372439	-0.687041
H79	H	0.763195	-0.262319	-0.680235
H80	H	0.763386	-0.380326	-0.783214
H81	H	0.780424	-0.422407	-0.539838
H82	H	0.780577	-0.540281	-0.642931
H83	H	1.103516	-0.836250	-0.382816
H84	H	1.640466	-0.717086	-1.106230
O85	O	1.281614	-0.452336	-1.102073
C86	C	1.158678	-0.615566	-1.113862
C87	C	1.263104	-0.570551	-1.067946
H88	H	1.143690	-0.711157	-1.086306
H89	H	1.092108	-0.555251	-1.086251
H90	H	1.162964	-0.613637	-1.203093
H91	H	1.258920	-0.572481	-0.978714
H92	H	1.329631	-0.630877	-1.095639
O93	O	1.399912	-0.301515	-1.096980
C94	C	1.447290	-0.099352	-1.051199
C95	C	1.417775	-0.224951	-1.010994
H96	H	1.461718	-0.037408	-0.981700
H97	H	1.521436	-0.105326	-1.100800
H98	H	1.380484	-0.062319	-1.100874
H99	H	1.484512	-0.262057	-0.961275
H100	H	1.343596	-0.218902	-0.961450
H101	H	1.402945	-0.324214	-0.917868
O102	O	1.276790	-0.442360	-0.916201
C103	C	1.173515	-0.580827	-0.814553
C104	C	1.283420	-0.547131	-0.854872
H105	H	1.178834	-0.665550	-0.764979
H106	H	1.141048	-0.504564	-0.764862
H107	H	1.119278	-0.597353	-0.884043
H108	H	1.337736	-0.530624	-0.785446
H109	H	1.315801	-0.623413	-0.904596
