data_functionalizedCrystal
_audit_creation_method	'MofGen! by Chris Wilmer'
_symmetry_space_group_name_H-M	'P1'
_symmetry_Int_Tables_number	1
_symmetry_cell_setting	triclinic
loop_
_symmetry_equiv_pos_as_xyz
  x,y,z
_cell_length_a	18.215407
_cell_length_b	16.120531
_cell_length_c	18.215398
_cell_angle_alpha	87.131202
_cell_angle_beta	89.980536
_cell_angle_gamma	87.067235
loop_
_atom_site_label
_atom_site_type_symbol
_atom_site_fract_x
_atom_site_fract_y
_atom_site_fract_z
Zn1	Zn	1.110174	0.331928	-0.430943
Zn2	Zn	1.610174	0.831928	0.069057
Zn3	Zn	1.103827	0.471344	-0.314104
Zn4	Zn	1.603827	0.971344	0.185896
Zn5	Zn	0.987107	0.331949	-0.307891
Zn6	Zn	1.487107	0.831949	0.192109
Zn7	Zn	0.980818	0.471303	-0.437127
Zn8	Zn	1.480818	0.971303	0.062873
O9	O	1.045482	0.401631	-0.372516
O10	O	1.545482	0.901631	0.127484
O11	O	1.212316	0.350430	-0.415456
O12	O	1.712316	0.850430	0.084544
O13	O	1.088319	0.452878	-0.210297
O14	O	1.588319	0.952878	0.289703
O15	O	1.008720	0.215280	-0.319026
O16	O	1.508720	0.715280	0.180974
O17	O	1.207653	0.452858	-0.329615
O18	O	1.707653	0.952858	0.170385
O19	O	1.099137	0.215265	-0.409431
O20	O	1.599137	0.715265	0.090569
O21	O	1.002565	0.350466	-0.205732
O22	O	1.502565	0.850466	0.294268
O23	O	0.883289	0.350427	-0.325023
O24	O	1.383289	0.850427	0.174977
O25	O	0.998002	0.452789	-0.539290
O26	O	1.498002	0.952789	-0.039290
O27	O	0.878669	0.452810	-0.419972
O28	O	1.378669	0.952810	0.080028
O29	O	1.093039	0.350391	-0.534746
O30	O	1.593039	0.850391	-0.034746
O31	O	1.082222	0.588005	-0.335612
O32	O	1.582222	1.088005	0.164388
O33	O	0.991848	0.587975	-0.425997
O34	O	1.491848	1.087975	0.074003
C35	C	0.854276	0.401617	-0.372495
C36	C	1.354276	0.901617	0.127505
C37	C	0.772476	0.401631	-0.372504
C38	C	1.272476	0.901631	0.127496
C39	C	1.035684	0.618240	-0.382166
C40	C	1.535684	1.118240	0.117834
C41	C	1.031559	0.710906	-0.386318
C42	C	1.531559	1.210906	0.113682
C43	C	0.581892	0.455025	-0.421889
C44	C	1.081892	0.955025	0.078111
C45	C	0.505033	0.455028	-0.421898
C46	C	1.005033	0.955028	0.078102
C47	C	0.509822	0.348252	-0.323161
C48	C	1.009822	0.848252	0.176839
C49	C	0.586680	0.348246	-0.323156
C50	C	1.086680	0.848246	0.176844
C51	C	0.622713	0.401637	-0.372519
C52	C	1.122713	0.901637	0.127481
C53	C	0.468996	0.401646	-0.372533
C54	C	0.968996	0.901646	0.127467
C55	C	0.385662	0.401648	-0.372543
C56	C	0.885662	0.901648	0.127457
C57	C	0.706052	0.401634	-0.372510
C58	C	1.206052	0.901634	0.127490
C59	C	1.024034	0.880569	-0.393915
C60	C	1.524034	1.380569	0.106085
C61	C	1.066957	0.921853	-0.351077
C62	C	1.566957	1.421853	0.148923
C63	C	1.062770	1.016259	-0.355303
C64	C	1.562770	1.516259	0.144697
C65	C	1.028220	0.786154	-0.389689
C66	C	1.528220	1.286154	0.110311
C67	C	1.237434	0.401646	-0.372539
C68	C	1.737434	0.901646	0.127461
C69	C	1.319232	0.401652	-0.372548
C70	C	1.819232	0.901652	0.127452
C71	C	1.045527	0.401583	-0.564467
C72	C	1.545527	0.901583	-0.064467
C73	C	1.045547	0.401563	-0.646265
C74	C	1.545547	0.901563	-0.146265
C75	C	1.055312	1.184176	-0.362832
C76	C	1.555312	1.684176	0.137168
C77	C	1.059434	1.091510	-0.358671
C78	C	1.559434	1.591510	0.141329
C79	C	1.090237	0.454786	-0.913700
C80	C	1.590237	0.954786	-0.413700
C81	C	1.090225	0.454815	-0.836842
C82	C	1.590225	0.954815	-0.336842
C83	C	1.000919	0.348179	-0.832073
C84	C	1.500919	0.848179	-0.332073
C85	C	1.000928	0.348154	-0.908929
C86	C	1.500928	0.848154	-0.408929
C87	C	1.045592	0.401457	-0.949740
C88	C	1.545592	0.901457	-0.449740
C89	C	1.045570	0.401510	-0.796027
C90	C	1.545570	0.901510	-0.296027
C91	C	1.045556	0.401541	-0.712694
C92	C	1.545556	0.901541	-0.212694
C93	C	1.045605	0.401427	-1.033078
C94	C	1.545605	0.901427	-0.533078
C95	C	1.045481	0.401619	-0.181310
C96	C	1.545481	0.901619	0.318690
C97	C	1.045615	0.401404	-0.099502
C98	C	1.545615	0.901404	0.400498
H99	H	0.471801	0.498501	-0.462101
H100	H	0.971801	0.998501	0.037899
H101	H	1.106849	0.886297	-0.311227
H102	H	1.606849	1.386297	0.188773
N103	N	0.955298	0.293723	-0.790398
N104	N	1.455298	0.793723	-0.290398
N105	N	0.887141	0.299242	-0.799212
N106	N	1.387141	0.799242	-0.299212
H107	H	0.854921	0.260777	-0.769782
H108	H	1.354921	0.760777	-0.269782
H109	H	0.984144	0.916123	-0.433760
H110	H	1.484144	1.416123	0.066240
H111	H	1.126604	0.498189	-0.946926
H112	H	1.626604	0.998189	-0.446926
N113	N	1.135830	0.509299	-0.800040
N114	N	1.635830	1.009299	-0.300040
N115	N	1.175698	0.556887	-0.836490
N116	N	1.675698	1.056887	-0.336490
H117	H	1.207908	0.595371	-0.810500
H118	H	1.707908	1.095371	-0.310500
N119	N	0.955323	0.293663	-0.945735
N120	N	1.455323	0.793663	-0.445735
N121	N	0.963685	0.216737	-0.933727
N122	N	1.463685	0.716737	-0.433727
H123	H	0.931476	0.178254	-0.959720
H124	H	1.431476	0.678254	-0.459720
N125	N	0.473002	0.293722	-0.272746
N126	N	0.973002	0.793722	0.227254
N127	N	0.404380	0.293734	-0.272756
N128	N	0.904380	0.793734	0.227244
H129	H	0.378375	0.255222	-0.237148
H130	H	0.878375	0.755222	0.262852
H131	H	0.619917	0.304765	-0.282953
H132	H	1.119917	0.804765	0.217047
N133	N	0.618688	0.509568	-0.472313
N134	N	1.118688	1.009568	0.027687
N135	N	0.582228	0.557232	-0.516389
N136	N	1.082228	1.057232	-0.016389
H137	H	0.608213	0.595754	-0.552004
H138	H	1.108213	1.095754	-0.052004
