data_functionalizedCrystal
_audit_creation_method	'MofGen! by Chris Wilmer'
_symmetry_space_group_name_H-M	'P1'
_symmetry_Int_Tables_number	1
_symmetry_cell_setting	triclinic
loop_
_symmetry_equiv_pos_as_xyz
  x,y,z
_cell_length_a	17.077404
_cell_length_b	18.101395
_cell_length_c	17.077404
_cell_angle_alpha	90.011303
_cell_angle_beta	90.005946
_cell_angle_gamma	90.031329
loop_
_atom_site_label
_atom_site_type_symbol
_atom_site_fract_x
_atom_site_fract_y
_atom_site_fract_z
Zn1	Zn	1.199905	-0.294943	0.443848
Zn2	Zn	1.699905	0.205057	0.943848
Zn3	Zn	1.199824	-0.418757	0.312584
Zn4	Zn	1.699824	0.081243	0.812584
Zn5	Zn	1.068668	-0.294934	0.312596
Zn6	Zn	1.568668	0.205066	0.812596
Zn7	Zn	1.068586	-0.418748	0.443808
Zn8	Zn	1.568586	0.081252	0.943808
O9	O	1.134246	-0.356846	0.378209
O10	O	1.634246	0.143154	0.878209
O11	O	1.309741	-0.311375	0.426447
O12	O	1.809741	0.188625	0.926447
O13	O	1.182426	-0.402332	0.202739
O14	O	1.682426	0.097668	0.702739
O15	O	1.086145	-0.191303	0.330028
O16	O	1.586145	0.308697	0.830028
O17	O	1.309682	-0.402340	0.330009
O18	O	1.809682	0.097660	0.830009
O19	O	1.182564	-0.191309	0.426459
O20	O	1.682564	0.308691	0.926459
O21	O	1.086066	-0.311360	0.202748
O22	O	1.586066	0.188640	0.702748
O23	O	0.958810	-0.311351	0.329990
O24	O	1.458810	0.188649	0.829990
O25	O	1.086005	-0.402325	0.553660
O26	O	1.586005	0.097675	1.053660
O27	O	0.958750	-0.402316	0.426390
O28	O	1.458750	0.097684	0.926390
O29	O	1.182484	-0.311366	0.553690
O30	O	1.682484	0.188634	1.053690
O31	O	1.182347	-0.522389	0.329970
O32	O	1.682347	-0.022389	0.829970
O33	O	1.085927	-0.522382	0.426379
O34	O	1.585927	-0.022382	0.926379
C35	C	0.930298	-0.356832	0.378187
C36	C	1.430298	0.143168	0.878187
C37	C	0.843048	-0.356844	0.378197
C38	C	1.343048	0.143156	0.878197
C39	C	0.802047	-0.404281	0.428312
C40	C	1.302047	0.095719	0.928312
C41	C	0.720066	-0.404283	0.428325
C42	C	1.220066	0.095717	0.928325
C43	C	0.679088	-0.356851	0.378217
C44	C	1.179088	0.143149	0.878217
C45	C	0.720095	-0.309408	0.328100
C46	C	1.220095	0.190592	0.828100
C47	C	0.802074	-0.309404	0.328092
C48	C	1.302074	0.190596	0.828092
C49	C	0.549225	-0.309423	0.328119
C50	C	1.049225	0.190577	0.828119
C51	C	0.467240	-0.309429	0.328125
C52	C	0.967240	0.190571	0.828125
C53	C	0.467217	-0.404302	0.428352
C54	C	0.967217	0.095698	0.928352
C55	C	0.549196	-0.404298	0.428344
C56	C	1.049196	0.095702	0.928344
C57	C	0.590197	-0.356856	0.378225
C58	C	1.090197	0.143144	0.878225
C59	C	1.134141	-0.549256	0.378186
C60	C	1.634141	-0.049256	0.878186
C61	C	1.134167	-0.631570	0.378202
C62	C	1.634167	-0.131570	0.878202
C63	C	1.134340	-0.930661	0.378245
C64	C	1.634340	-0.430661	0.878245
C65	C	1.073815	-0.899363	0.439053
C66	C	1.573815	-0.399363	0.939053
C67	C	1.073528	-0.813745	0.438863
C68	C	1.573528	-0.313745	0.938863
C69	C	1.134254	-0.782279	0.378224
C70	C	1.634254	-0.282279	0.878224
C71	C	1.111877	-0.813408	0.295495
C72	C	1.611877	-0.313408	0.795495
C73	C	1.111487	-0.899054	0.295859
C74	C	1.611487	-0.399054	0.795859
C75	C	1.217374	-0.899010	0.399437
C76	C	1.717374	-0.399010	0.899437
C77	C	1.216885	-0.813360	0.401251
C78	C	1.716885	-0.313360	0.901251
C79	C	1.134207	-0.698419	0.378208
C80	C	1.634207	-0.198419	0.878208
C81	C	1.134385	-1.014521	0.378256
C82	C	1.634385	-0.514521	0.878256
C83	C	1.338990	-0.356860	0.378231
C84	C	1.838990	0.143140	0.878231
C85	C	1.426240	-0.356866	0.378241
C86	C	1.926240	0.143134	0.878241
C87	C	1.134245	-0.356846	0.582953
C88	C	1.634245	0.143154	1.082953
C89	C	1.134244	-0.356846	0.670203
C90	C	1.634244	0.143154	1.170203
C91	C	1.134372	-0.163684	0.378249
C92	C	1.634372	0.336316	0.878249
C93	C	1.134426	-0.081370	0.378267
C94	C	1.634426	0.418630	0.878267
C95	C	1.084077	-0.309482	0.711197
C96	C	1.584077	0.190518	1.211197
C97	C	1.084073	-0.309489	0.793178
C98	C	1.584073	0.190511	1.293178
C99	C	1.134242	-0.356855	0.834162
C100	C	1.634242	0.143145	1.334162
C101	C	1.184412	-0.404223	0.793163
C102	C	1.684412	0.095777	1.293163
C103	C	1.184410	-0.404220	0.711184
C104	C	1.684410	0.095780	1.211184
C105	C	1.184412	-0.404225	0.964033
C106	C	1.684412	0.095775	1.464033
C107	C	1.184414	-0.404227	1.046017
C108	C	1.684414	0.095773	1.546017
C109	C	1.084075	-0.309493	1.046026
C110	C	1.584075	0.190507	1.546026
C111	C	1.084074	-0.309490	0.964048
C112	C	1.584074	0.190510	1.464048
C113	C	1.134245	-0.356858	0.923053
C114	C	1.634245	0.143142	1.423053
C115	C	1.134242	-0.356863	1.174261
C116	C	1.634242	0.143137	1.674261
C117	C	1.134247	-0.356864	1.087011
C118	C	1.634247	0.143136	1.587011
H119	H	0.835405	-0.442909	0.469113
H120	H	1.335405	0.057091	0.969113
C121	C	1.028887	-0.257383	0.918966
C122	C	1.528887	0.242617	1.418966
N123	N	0.987317	-0.218138	0.885010
N124	N	1.487317	0.281862	1.385010
H125	H	1.087674	-0.919927	0.500595
H126	H	1.587674	-0.419927	1.000595
C127	C	1.239601	-0.456334	0.918941
C128	C	1.739601	0.043666	1.418941
N129	N	1.281171	-0.495580	0.884978
N130	N	1.781171	0.004420	1.384978
H131	H	1.225266	-0.442797	1.079385
H132	H	1.725266	0.057203	1.579385
H133	H	1.043225	-0.270924	1.079408
H134	H	1.543225	0.229076	1.579408
C135	C	0.991169	-0.928510	0.420322
C136	C	1.491169	-0.428510	0.920322
N137	N	0.928920	-0.950462	0.406209
N138	N	1.428920	-0.450462	0.906209
H139	H	1.225256	-0.442793	0.826539
H140	H	1.725256	0.057207	1.326539
C141	C	0.422166	-0.257248	0.273008
C142	C	0.922166	0.242752	0.773008
N143	N	0.388216	-0.217944	0.231493
N144	N	0.888216	0.282056	0.731493
C145	C	0.990366	-0.786146	0.419956
C146	C	1.490366	-0.286146	0.919956
N147	N	0.927721	-0.765359	0.405734
N148	N	1.427721	-0.265359	0.905734
C149	C	1.029486	-0.926127	0.271612
C150	C	1.529486	-0.426127	0.771612
N151	N	0.967720	-0.946514	0.253351
N152	N	1.467720	-0.446514	0.753351
H153	H	1.153659	-0.919758	0.249007
H154	H	1.653659	-0.419758	0.749007
H155	H	0.835456	-0.270772	0.287287
H156	H	1.335456	0.229228	0.787287
H157	H	1.225268	-0.442783	0.677808
H158	H	1.725268	0.057217	1.177808
C159	C	1.028886	-0.257375	0.666121
C160	C	1.528886	0.242625	1.166121
N161	N	0.987312	-0.218128	0.632172
N162	N	1.487312	0.281872	1.132172
H163	H	1.051823	-0.792019	0.277221
H164	H	1.551823	-0.292019	0.777221
C165	C	0.674969	-0.456482	0.483441
C166	C	1.174969	0.043518	0.983441
N167	N	0.641002	-0.495805	0.524951
N168	N	1.141002	0.004195	1.024951
H169	H	0.582559	-0.442925	0.469141
H170	H	1.082559	0.057075	0.969141
C171	C	1.092436	-0.785308	0.521736
C172	C	1.592436	-0.285308	1.021736
N173	N	1.106674	-0.763893	0.584160
N174	N	1.606674	-0.263893	1.084160
H175	H	1.154574	-0.793026	0.248952
H176	H	1.654574	-0.293026	0.748952
C177	C	1.244938	-0.928137	0.479550
C178	C	1.744938	-0.428137	0.979550
N179	N	1.265691	-0.950074	0.539894
N180	N	1.765691	-0.450074	1.039894
H181	H	1.233761	-0.793013	0.462136
H182	H	1.733761	-0.293013	0.962136
H183	H	1.264363	-0.791936	0.360190
H184	H	1.764363	-0.291936	0.860190
H185	H	0.582606	-0.270785	0.287313
H186	H	1.082606	0.229215	0.787313
H187	H	0.433831	-0.442929	0.469162
H188	H	0.933831	0.057071	0.969162
C189	C	0.675016	-0.257231	0.272983
C190	C	1.175016	0.242769	0.772983
N191	N	0.641064	-0.217931	0.231466
N192	N	1.141064	0.282069	0.731466
H193	H	1.262467	-0.919248	0.355148
H194	H	1.762467	-0.419248	0.855148
H195	H	1.043219	-0.270923	0.826551
H196	H	1.543219	0.229077	1.326551
