data_functionalizedCrystal
_audit_creation_method	'MofGen! by Chris Wilmer'
_symmetry_space_group_name_H-M	'P1'
_symmetry_Int_Tables_number	1
_symmetry_cell_setting	triclinic
loop_
_symmetry_equiv_pos_as_xyz
  x,y,z
_cell_length_a	12.837943
_cell_length_b	10.868271
_cell_length_c	12.837942
_cell_angle_alpha	90.004531
_cell_angle_beta	94.828940
_cell_angle_gamma	90.003083
loop_
_atom_site_label
_atom_site_type_symbol
_atom_site_fract_x
_atom_site_fract_y
_atom_site_fract_z
O1	O	1.402335	0.102299	0.272141
O2	O	1.099202	0.102306	0.258698
O3	O	1.244047	0.102295	0.113853
O4	O	1.257490	0.102310	0.416986
O5	O	1.244033	-0.102349	0.113845
O6	O	1.099188	-0.102338	0.258690
O7	O	1.402322	-0.102345	0.272133
Zn8	Zn	1.250753	-0.134834	0.265411
Zn9	Zn	1.250771	0.134795	0.265421
O10	O	1.257477	-0.102334	0.416979
C11	C	1.060126	-0.000015	0.254153
C12	C	0.943711	-0.000012	0.240608
N13	N	1.250748	-0.318848	0.265404
C14	C	0.718837	-0.000022	0.403437
C15	C	0.609454	-0.000020	0.390716
C16	C	0.615562	-0.000017	0.202445
C17	C	0.724944	-0.000018	0.215166
C18	C	0.776578	-0.000019	0.315666
C19	C	0.885962	-0.000012	0.328386
C20	C	0.892067	-0.000017	0.140116
C21	C	0.782685	-0.000015	0.127395
C22	C	1.250765	-0.569854	0.265418
C23	C	1.250753	-0.430176	0.265413
C24	C	1.441398	-0.000021	0.276679
C25	C	1.557813	-0.000016	0.290223
C26	C	1.239499	-0.000026	0.074780
C27	C	1.225954	-0.000024	-0.041635
N28	N	1.250783	0.318809	0.265420
C29	C	1.388784	-0.000002	-0.266510
C30	C	1.376062	0.000000	-0.375892
C31	C	1.187791	-0.000008	-0.369785
C32	C	1.200513	-0.000010	-0.260402
C33	C	1.301012	-0.000009	-0.208769
C34	C	1.313732	-0.000020	-0.099384
C35	C	1.125462	-0.000020	-0.093279
C36	C	1.112741	-0.000017	-0.202661
C37	C	1.262025	-0.000010	0.456052
C38	C	1.275569	-0.000004	0.572467
H39	H	0.928000	-0.000014	0.410218
H40	H	1.053992	-0.000035	-0.046254
C41	C	0.930950	0.105192	-0.016432
C42	C	0.955538	-0.000011	0.043627
H43	H	0.970139	0.105201	-0.075994
H44	H	0.858424	0.105179	-0.038385
H45	H	0.947628	0.176546	0.024350
H46	H	0.938851	-0.071366	0.002847
H47	H	1.028080	-0.000010	0.065579
C48	C	0.948354	0.105179	-0.231131
C49	C	1.002277	-0.000016	-0.259427
H50	H	0.880160	0.105179	-0.266180
H51	H	0.943368	0.105164	-0.157732
H52	H	0.984959	0.176539	-0.250307
H53	H	0.965676	-0.071376	-0.240243
H54	H	1.007259	-0.000012	-0.332841
C55	C	0.632572	-0.000016	0.017621
C56	C	0.558794	-0.000019	0.091982
H57	H	0.597524	-0.000023	-0.050573
H58	H	0.675106	0.071346	0.026501
H59	H	0.675109	-0.071383	0.026497
H60	H	0.516262	0.071353	0.083112
H61	H	0.516242	-0.071388	0.083098
C62	C	1.573605	0.000008	-0.283528
C63	C	1.499248	0.000003	-0.209746
H64	H	1.641801	0.000020	-0.248484
H65	H	1.564728	-0.071354	-0.326065
H66	H	1.564721	0.071375	-0.326063
H67	H	1.508126	-0.071370	-0.167216
H68	H	1.508129	0.071371	-0.167192
H69	H	0.562446	-0.000026	0.462189
H70	H	1.447536	0.000010	-0.422901
C71	C	1.084706	-0.000004	-0.534755
C72	C	1.077329	-0.000010	-0.426553
H73	H	1.016510	-0.000013	-0.569799
H74	H	1.121294	0.071360	-0.553916
H75	H	1.121303	-0.071368	-0.553930
H76	H	1.040739	0.071360	-0.407376
H77	H	1.040725	-0.071381	-0.407384
H78	H	0.740630	-0.000028	0.045571
H79	H	1.395564	-0.000024	-0.057346
C80	C	0.701818	-0.000014	0.588258
C81	C	0.775600	-0.000018	0.513902
H82	H	0.736862	-0.000018	0.656454
H83	H	0.659289	0.071346	0.579384
H84	H	0.659275	-0.071383	0.579372
H85	H	0.818138	0.071356	0.522783
H86	H	0.818146	-0.071385	0.522780
