data_functionalizedCrystal
_audit_creation_method	'MofGen! by Chris Wilmer'
_symmetry_space_group_name_H-M	'P1'
_symmetry_Int_Tables_number	1
_symmetry_cell_setting	triclinic
loop_
_symmetry_equiv_pos_as_xyz
  x,y,z
_cell_length_a	14.044220
_cell_length_b	17.038272
_cell_length_c	13.101039
_cell_angle_alpha	93.604737
_cell_angle_beta	86.340132
_cell_angle_gamma	92.150217
loop_
_atom_site_label
_atom_site_type_symbol
_atom_site_fract_x
_atom_site_fract_y
_atom_site_fract_z
O1	O	1.277881	0.185592	-0.085106
O2	O	1.001361	0.178751	-0.085132
O3	O	1.137977	0.068241	-0.085111
O4	O	1.141265	0.296101	-0.085127
O5	O	1.128176	0.076185	0.085317
O6	O	0.991560	0.186694	0.085296
O7	O	1.268080	0.193535	0.085322
Zn8	Zn	1.128264	0.191376	0.112368
Zn9	Zn	1.141177	0.180910	-0.112178
O10	O	1.131464	0.304045	0.085301
C11	C	0.960905	0.179728	0.000079
C12	C	0.854960	0.170796	0.000069
C13	C	0.660980	0.154468	0.000091
C14	C	0.608455	0.217813	0.000090
C15	C	0.500518	0.208729	0.000102
C16	C	0.768927	0.163552	0.000079
C17	C	1.130087	0.042876	0.000103
C18	C	1.121168	-0.044541	0.000101
C19	C	1.203056	-0.088926	0.000110
C20	C	1.194670	-0.171064	0.000100
C21	C	1.104396	-0.208815	0.000088
C22	C	1.022502	-0.164424	0.000076
C23	C	1.030889	-0.082288	0.000079
C24	C	1.074767	-0.456646	0.000071
C25	C	1.066386	-0.538788	0.000071
C26	C	1.238555	-0.545423	0.000093
C27	C	1.246934	-0.463285	0.000102
C28	C	1.165040	-0.418901	0.000085
C29	C	1.095822	-0.292773	0.000080
C30	C	1.173615	-0.334945	0.000085
C31	C	1.308536	0.192558	0.000109
C32	C	1.414482	0.201490	0.000112
C33	C	1.139354	0.329410	0.000085
C34	C	1.148273	0.416827	0.000080
N35	N	1.119458	0.198518	0.265616
N36	N	1.149990	0.173762	-0.265426
C37	C	1.107478	0.208243	0.474656
C38	C	1.161967	0.164040	0.525540
C39	C	1.155301	0.169451	0.641858
C40	C	1.114143	0.202833	0.358328
H41	H	0.644550	0.278868	0.000081
H42	H	0.624887	0.093419	0.000100
C43	C	1.231765	0.107434	0.466379
N44	N	1.284339	0.064804	0.421814
C45	C	1.328632	-0.594251	0.000102
N46	N	1.396482	-0.631030	0.000104
C47	C	1.037695	0.264853	0.533818
N48	N	0.985137	0.307492	0.578390
C49	C	1.302366	-0.047408	0.000123
N50	N	1.377169	-0.016140	0.000129
C51	C	0.940805	-0.033465	0.000072
N52	N	0.872951	0.003308	0.000064
H53	H	1.261352	-0.207199	0.000109
C54	C	0.967073	-0.580312	0.000050
N55	N	0.892274	-0.611588	0.000034
C56	C	1.346242	-0.421765	0.000116
N57	N	1.421043	-0.390492	0.000131
C58	C	0.984680	-0.407835	0.000046
N59	N	0.916823	-0.371068	0.000025
H60	H	0.948998	-0.195167	0.000060
C61	C	1.272914	-0.293417	0.000103
N62	N	1.347707	-0.262130	0.000124
H63	H	1.022320	-0.323518	0.000073
