data_functionalizedCrystal
_audit_creation_method	'MofGen! by Chris Wilmer'
_symmetry_space_group_name_H-M	'P1'
_symmetry_Int_Tables_number	1
_symmetry_cell_setting	triclinic
loop_
_symmetry_equiv_pos_as_xyz
  x,y,z
_cell_length_a	14.853567
_cell_length_b	14.853566
_cell_length_c	9.730223
_cell_angle_alpha	90.000442
_cell_angle_beta	89.999394
_cell_angle_gamma	96.365328
loop_
_atom_site_label
_atom_site_type_symbol
_atom_site_fract_x
_atom_site_fract_y
_atom_site_fract_z
O1	O	0.117698	-1.196364	-0.114187
O2	O	0.131721	-0.933904	-0.114208
O3	O	-0.006520	-1.072145	-0.114201
O4	O	0.255940	-1.058123	-0.114194
O5	O	-0.006524	-1.072136	0.114379
O6	O	0.131717	-0.933895	0.114371
O7	O	0.117695	-1.196355	0.114393
Zn8	Zn	0.124705	-1.065124	0.150674
Zn9	Zn	0.124710	-1.065135	-0.150490
O10	O	0.255936	-1.058115	0.114386
C11	C	-0.040111	-1.071505	0.000084
C12	C	-0.140194	-1.069601	0.000072
C13	C	0.131084	-0.900311	0.000079
C14	C	0.129181	-0.800227	0.000070
C15	C	0.118332	-1.229948	0.000103
C16	C	0.120235	-1.330032	0.000102
C17	C	-0.552728	-0.979435	0.000091
C18	C	-0.574009	-1.143668	0.000104
C19	C	-0.479976	-1.145458	0.000097
C20	C	-0.422313	-1.064236	0.000088
C21	C	-0.458685	-0.981223	0.000087
C22	C	-0.443597	-1.228470	0.000111
C23	C	-0.349558	-1.230263	0.000105
C24	C	-0.291894	-1.149040	0.000086
C25	C	-0.328271	-1.066023	0.000084
C26	C	-0.270608	-0.984801	0.000076
C27	C	-0.306984	-0.901784	0.000064
C28	C	-0.401021	-0.899999	0.000069
C29	C	-0.197856	-1.150824	0.000081
C30	C	-0.176566	-0.986588	0.000072
C31	C	0.289526	-1.058754	0.000097
C32	C	0.389610	-1.060658	0.000100
C33	C	0.121132	-0.377047	-0.124505
C34	C	0.121129	-0.377059	0.124702
C35	C	0.122916	-0.471093	0.124697
C36	C	0.123813	-0.518108	0.000090
C37	C	0.122922	-0.471090	-0.124513
C38	C	0.123816	-0.518118	0.249298
C39	C	0.125604	-0.612157	0.249299
C40	C	0.126495	-0.659175	0.124690
C41	C	0.125603	-0.612151	0.000082
C42	C	0.126500	-0.659166	-0.124525
C43	C	0.125602	-0.612144	-0.249135
C44	C	0.123813	-0.518108	-0.249122
C45	C	0.128284	-0.753212	0.124677
C46	C	0.128290	-0.753209	-0.124533
N47	N	0.124702	-1.065122	0.356210
N48	N	0.124707	-1.065144	-0.356026
C49	C	0.063514	-1.126356	0.428140
C50	C	0.063514	-1.126365	0.572023
C51	C	0.185897	-1.003904	0.572035
C52	C	0.185892	-1.003891	0.428154
H53	H	-0.129622	-0.920446	0.000059
H54	H	0.123092	-0.479830	0.350747
H55	H	-0.490552	-1.294597	0.000131
H56	H	0.235719	-0.954052	0.630626
C57	C	0.126589	-0.663867	-0.386194
H58	H	0.127782	-0.726606	-0.368343
H59	H	0.178825	-0.641645	-0.437397
H60	H	0.073756	-0.655274	-0.437388
H61	H	-0.168244	-1.218415	0.000100
H62	H	-0.430646	-0.832411	0.000061
H63	H	0.126334	-0.650435	0.350764
C64	C	0.129249	-0.804935	0.261729
H65	H	0.128450	-0.763467	0.335941
H66	H	0.182470	-0.834823	0.266925
H67	H	0.077400	-0.848418	0.266886
C68	C	-0.637434	-1.233005	0.000117
H69	H	-0.698649	-1.220051	0.000113
H70	H	-0.626393	-1.267038	0.079826
H71	H	-0.626400	-1.267038	-0.079605
H72	H	0.235719	-0.954023	0.369586
H73	H	-0.319950	-1.297861	0.000113
H74	H	0.129017	-0.791482	-0.226005
H75	H	0.123080	-0.479814	-0.350572
H76	H	-0.260023	-0.835653	0.000066
H77	H	-0.582349	-0.911845	0.000076
C78	C	0.120148	-0.325329	-0.261565
H79	H	0.118958	-0.262589	-0.243721
H80	H	0.067913	-0.347552	-0.312767
H81	H	0.172982	-0.333928	-0.312756
C82	C	0.120023	-0.325360	0.261757
H83	H	0.118789	-0.262626	0.243916
H84	H	0.172807	-0.333926	0.313077
H85	H	0.067740	-0.347630	0.312829
C86	C	-0.003790	-1.193720	0.651145
H87	H	0.004967	-1.184954	0.747140
H88	H	0.006111	-1.253895	0.627555
H89	H	-0.063981	-1.183851	0.627568
H90	H	0.013688	-1.176213	0.369566
