data_functionalizedCrystal
_audit_creation_method	'MofGen! by Chris Wilmer'
_symmetry_space_group_name_H-M	'P1'
_symmetry_Int_Tables_number	1
_symmetry_cell_setting	triclinic
loop_
_symmetry_equiv_pos_as_xyz
  x,y,z
_cell_length_a	17.077404
_cell_length_b	29.839131
_cell_length_c	17.077396
_cell_angle_alpha	89.968087
_cell_angle_beta	89.980499
_cell_angle_gamma	90.041645
loop_
_atom_site_label
_atom_site_type_symbol
_atom_site_fract_x
_atom_site_fract_y
_atom_site_fract_z
Zn1	Zn	1.199954	-0.178851	-0.443824
Zn2	Zn	1.199818	-0.253981	-0.312550
Zn3	Zn	1.068685	-0.178866	-0.312572
Zn4	Zn	1.068611	-0.253955	-0.443774
O5	O	1.134267	-0.216413	-0.378180
O6	O	1.309782	-0.188821	-0.426422
O7	O	1.182398	-0.244035	-0.202706
O8	O	1.086186	-0.115997	-0.330013
O9	O	1.309683	-0.244020	-0.329976
O10	O	1.182628	-0.115986	-0.426443
O11	O	1.086055	-0.188848	-0.202722
O12	O	0.958829	-0.188822	-0.329964
O13	O	1.086059	-0.243974	-0.553627
O14	O	0.958774	-0.243989	-0.426358
O15	O	1.182556	-0.188796	-0.553664
O16	O	1.182325	-0.316845	-0.329927
O17	O	1.085928	-0.316825	-0.426336
C18	C	0.930319	-0.216405	-0.378158
C19	C	0.843069	-0.216412	-0.378168
C20	C	0.802071	-0.245181	-0.428279
C21	C	0.720091	-0.245182	-0.428292
C22	C	0.679110	-0.216416	-0.378188
C23	C	0.720114	-0.187644	-0.328074
C24	C	0.802093	-0.187641	-0.328066
C25	C	0.549244	-0.187653	-0.328093
C26	C	0.467259	-0.187657	-0.328100
C27	C	0.467242	-0.245194	-0.428319
C28	C	0.549221	-0.245191	-0.428311
C29	C	0.590219	-0.216420	-0.378196
C30	C	1.134125	-0.333136	-0.378141
C31	C	1.134136	-0.383070	-0.378151
C32	C	1.184552	-0.692711	-0.328053
C33	C	1.184649	-0.880384	-0.328083
O34	O	1.227402	-0.904647	-0.285459
N35	N	1.134430	-0.903855	-0.378239
C36	C	1.084186	-0.880405	-0.428394
O37	O	1.041479	-0.904675	-0.471061
C38	C	1.084094	-0.692733	-0.428367
C39	C	1.134311	-0.669264	-0.378203
C40	C	1.234766	-0.669242	-0.277893
C41	C	1.234738	-0.622327	-0.277883
C42	C	1.184497	-0.598880	-0.328033
C43	C	1.134283	-0.622349	-0.378193
C44	C	1.033855	-0.669284	-0.478526
C45	C	1.033837	-0.622363	-0.478516
C46	C	1.084055	-0.598894	-0.428352
C47	C	1.084014	-0.551987	-0.428332
N48	N	1.134233	-0.528516	-0.378177
C49	C	1.184475	-0.551962	-0.328027
C50	C	1.084237	-0.978936	-0.428404
C51	C	1.084259	-1.025854	-0.428410
C52	C	1.184723	-1.025829	-0.328100
C53	C	1.184697	-0.978911	-0.328090
C54	C	1.134457	-0.955465	-0.378248
C55	C	1.184412	-0.453437	-0.328009
C56	C	1.184378	-0.406517	-0.328001
C57	C	1.083917	-0.406545	-0.428314
C58	C	1.083948	-0.453461	-0.428319
C59	C	1.134202	-0.476905	-0.378164
O60	O	1.041290	-0.527695	-0.470941
O61	O	1.227188	-0.527685	-0.285378
C62	C	1.184580	-0.739627	-0.328063
C63	C	1.134366	-0.763095	-0.378223
C64	C	1.084125	-0.739649	-0.428373
C65	C	1.134388	-0.810013	-0.378229
C66	C	1.184630	-0.833460	-0.328079
C67	C	1.234849	-0.809989	-0.277923
C68	C	1.234822	-0.763073	-0.277913
C69	C	1.033905	-0.763120	-0.478529
C70	C	1.033937	-0.810035	-0.478534
C71	C	1.084178	-0.833482	-0.428384
C72	C	1.339011	-0.216422	-0.378202
C73	C	1.426261	-0.216425	-0.378212
C74	C	1.134314	-0.216380	-0.582924
C75	C	1.134335	-0.216366	-0.670174
C76	C	1.134431	-0.099235	-0.378236
C77	C	1.134500	-0.049300	-0.378260
C78	C	1.184582	-0.187632	-0.711185
C79	C	1.184592	-0.187617	-0.793165
C80	C	1.134357	-0.216339	-0.834134
C81	C	1.084104	-0.245074	-0.793117
C82	C	1.084091	-0.245086	-0.711138
C83	C	1.084135	-0.245047	-0.963987
C84	C	1.084149	-0.245035	-1.045972
C85	C	1.184636	-0.187578	-1.046014
C86	C	1.184624	-0.187590	-0.964035
C87	C	1.134371	-0.216326	-0.923025
C88	C	1.134265	-0.216414	-0.174232
C89	C	1.134397	-0.216301	-0.086983
H90	H	0.835472	-0.164213	-0.287265
H91	H	1.225271	-0.387410	-0.287148
F92	F	1.030760	-0.953989	-0.481792
H93	H	0.582622	-0.164220	-0.287291
H94	H	1.225534	-0.164205	-0.930681
H95	H	1.043360	-1.044958	-0.469252
F96	F	1.238054	-0.157064	-0.667590
H97	H	1.225511	-0.164220	-0.826553
F98	F	0.423646	-0.157043	-0.274771
F99	F	1.237898	-0.478381	-0.274628
H100	H	1.275632	-0.603222	-0.237037
F101	F	0.980429	-0.738172	-0.531909
H102	H	1.225552	-0.164179	-1.079409
H103	H	0.992958	-0.688384	-0.519372
H104	H	1.043242	-0.268422	-1.079326
F105	F	1.288246	-0.694189	-0.224513
H106	H	0.686741	-0.164221	-0.287283
H107	H	1.043202	-0.268440	-0.930599
F108	F	1.030637	-0.275640	-0.836721
F109	F	1.238193	-1.050791	-0.274724
F110	F	0.845679	-0.275801	-0.481603
F111	F	0.676461	-0.275802	-0.481628
H112	H	1.043008	-0.387448	-0.469143
H113	H	1.043166	-0.268480	-0.677748
F114	F	1.238145	-0.953938	-0.274699
H115	H	0.582585	-0.268617	-0.469105
H116	H	0.992926	-0.603275	-0.519363
H117	H	1.043059	-0.472570	-0.469170
H118	H	1.275713	-0.743969	-0.237065
F119	F	0.423608	-0.275810	-0.481664
H120	H	1.275756	-0.829087	-0.237087
H121	H	0.993037	-0.829139	-0.519383
