data_functionalizedCrystal
_audit_creation_method	'MofGen! by Chris Wilmer'
_symmetry_space_group_name_H-M	'P1'
_symmetry_Int_Tables_number	1
_symmetry_cell_setting	triclinic
loop_
_symmetry_equiv_pos_as_xyz
  x,y,z
_cell_length_a	15.297327
_cell_length_b	12.759401
_cell_length_c	12.759393
_cell_angle_alpha	90.020011
_cell_angle_beta	99.641734
_cell_angle_gamma	80.297219
loop_
_atom_site_label
_atom_site_type_symbol
_atom_site_fract_x
_atom_site_fract_y
_atom_site_fract_z
Zn1	Zn	-0.359196	-1.533780	-0.666356
Zn2	Zn	-0.510082	-1.503230	-0.521060
Zn3	Zn	-0.359233	-1.358075	-0.490698
Zn4	Zn	-0.510002	-1.327642	-0.696681
O5	O	-0.434628	-1.430682	-0.593699
O6	O	-0.379230	-1.676745	-0.647098
O7	O	-0.490120	-1.483926	-0.370021
O8	O	-0.232985	-1.406904	-0.488602
O9	O	-0.490085	-1.654300	-0.540350
O10	O	-0.232958	-1.535994	-0.617657
O11	O	-0.379292	-1.377280	-0.347714
O12	O	-0.379214	-1.207020	-0.518007
O13	O	-0.489948	-1.355036	-0.839670
O14	O	-0.489983	-1.184662	-0.669341
O15	O	-0.379152	-1.506485	-0.817390
O16	O	-0.636314	-1.454417	-0.569754
O17	O	-0.636256	-1.325413	-0.698782
C18	C	-0.434595	-1.157721	-0.593671
C19	C	-0.434602	-1.040943	-0.593688
C20	C	-0.376987	-0.997740	-0.649396
C21	C	-0.376999	-0.888013	-0.649402
C22	C	-0.492250	-0.864701	-0.537991
C23	C	-0.492233	-0.974427	-0.537979
C24	C	-0.319356	-1.064256	-0.705104
C25	C	-0.261736	-1.021053	-0.760818
C26	C	-0.261749	-0.911326	-0.760824
C27	C	-0.319381	-0.844803	-0.705117
C28	C	-0.669019	-1.383326	-0.640877
C29	C	-0.769292	-1.363163	-0.661095
C30	C	-1.051943	-1.575222	-0.449556
C31	C	-0.957731	-1.594165	-0.430555
C32	C	-0.910617	-1.536417	-0.488188
C33	C	-0.957723	-1.459721	-0.564826
C34	C	-1.051944	-1.440770	-0.583823
C35	C	-0.910618	-1.401965	-0.622455
C36	C	-0.957724	-1.325269	-0.699093
C37	C	-1.051936	-1.306322	-0.718087
C38	C	-1.099050	-1.364070	-0.660454
C39	C	-0.816397	-1.420916	-0.603458
C40	C	-0.816398	-1.286464	-0.737725
C41	C	-0.910610	-1.267521	-0.756726
C42	C	-0.199322	-1.478251	-0.546360
C43	C	-0.099049	-1.498522	-0.526187
C44	C	-0.434537	-1.430774	-0.867714
C45	C	-0.434498	-1.430813	-0.984483
C46	C	-0.434651	-0.704710	-0.593719
C47	C	-0.434632	-0.821491	-0.593706
C48	C	-0.376801	-1.509682	-1.027744
C49	C	-0.376769	-1.509714	-1.137462
C50	C	-0.492138	-1.352002	-1.160648
C51	C	-0.492165	-1.351967	-1.050932
C52	C	-0.319134	-1.588528	-0.961296
C53	C	-0.261433	-1.667405	-1.004557
C54	C	-0.261401	-1.667437	-1.114274
C55	C	-0.319069	-1.588591	-1.180731
C56	C	-0.434654	-1.430664	-0.320737
C57	C	-0.434438	-1.430879	-0.203917
H58	H	-0.778051	-1.483362	-0.541059
H59	H	-0.833905	-1.551844	-0.472712
H60	H	-0.539173	-0.810529	-0.492639
O61	O	-0.318954	-1.588804	-1.287294
C62	C	-0.255573	-1.675352	-1.432013
C63	C	-0.255622	-1.675244	-1.311318
H64	H	-0.204361	-1.745218	-1.451472
H65	H	-0.325404	-1.683105	-1.475900
H66	H	-0.236875	-1.597753	-1.458011
H67	H	-0.274281	-1.752826	-1.285223
H68	H	-0.185782	-1.667434	-1.267501
H69	H	-0.319156	-1.588513	-0.871957
O70	O	-0.205671	-1.085523	-0.814945
C71	C	-0.091401	-1.097054	-0.925507
C72	C	-0.154834	-1.023927	-0.864230
H73	H	-0.050296	-1.047281	-0.965388
H74	H	-0.044111	-1.157923	-0.867898
H75	H	-0.132887	-1.140098	-0.988665
H76	H	-0.113420	-0.980813	-0.801072
H77	H	-0.202126	-0.963125	-0.921905
H78	H	-1.090312	-1.622226	-0.402633
H79	H	-0.214476	-1.731592	-0.950440
O80	O	-0.548290	-1.016221	-0.483857
C81	C	-0.662577	-0.981535	-0.373313
C82	C	-0.599153	-0.934060	-0.434585
H83	H	-0.703703	-0.915134	-0.333443
H84	H	-0.709847	-1.023356	-0.430924
H85	H	-0.621081	-1.041285	-0.310148
H86	H	-0.640577	-0.874269	-0.497751
H87	H	-0.551881	-0.892306	-0.376909
H88	H	-0.919380	-1.656609	-0.368156
O89	O	-0.205683	-0.869329	-0.814769
C90	C	-0.083952	-0.769974	-0.804660
C91	C	-0.147372	-0.817501	-0.743425
H92	H	-0.036805	-0.728040	-0.747008
H93	H	-0.042696	-0.836331	-0.844440
H94	H	-0.125457	-0.710298	-0.867889
H95	H	-0.105937	-0.877164	-0.680146
H96	H	-0.188632	-0.751086	-0.703719
O97	O	-0.956334	-1.193137	-0.831308
C98	C	-0.985046	-1.136233	-1.015761
C99	C	-0.933224	-1.220560	-0.931411
H100	H	-0.966366	-1.158362	-1.096710
H101	H	-1.060486	-1.132617	-1.019528
H102	H	-0.966604	-1.055241	-0.993467
H103	H	-0.951591	-1.301596	-0.953644
H104	H	-0.857797	-1.224083	-0.927661
O105	O	-0.205322	-1.744154	-1.156131
C106	C	-0.090860	-1.900545	-1.121541
C107	C	-0.154336	-1.813734	-1.074004
H108	H	-0.049608	-1.956810	-1.055161
H109	H	-0.132230	-1.947197	-1.181207
H110	H	-0.043703	-1.861843	-1.163449
H111	H	-0.201506	-1.852349	-1.032041
H112	H	-0.112910	-1.767090	-1.014393
H113	H	-0.539133	-1.287731	-1.015705
H114	H	-0.319367	-0.755461	-0.705100
O115	O	-1.190570	-1.345769	-0.679083
C116	C	-1.325682	-1.345496	-0.807097
C117	C	-1.222036	-1.366275	-0.786141
H118	H	-1.351154	-1.362044	-0.893657
H119	H	-1.351304	-1.399979	-0.752816
H120	H	-1.351319	-1.258997	-0.790340
H121	H	-1.196322	-1.452745	-0.802909
H122	H	-1.196475	-1.311723	-0.840412
O123	O	-0.770502	-1.230490	-0.793657
C124	C	-0.625355	-1.200056	-0.823851
C125	C	-0.677226	-1.263535	-0.760460
H126	H	-0.549932	-1.226734	-0.797019
H127	H	-0.643744	-1.214764	-0.912314
H128	H	-0.643996	-1.111611	-0.809097
H129	H	-0.658612	-1.352000	-0.775124
H130	H	-0.658832	-1.248739	-0.672017
O131	O	-0.548131	-1.275529	-1.225358
C132	C	-0.599186	-1.205661	-1.404654
C133	C	-0.535739	-1.292341	-1.331497
H134	H	-0.589176	-1.219211	-1.490479
H135	H	-0.671957	-1.209398	-1.397791
H136	H	-0.583351	-1.124150	-1.379832
H137	H	-0.551493	-1.373893	-1.356270
H138	H	-0.462987	-1.288511	-1.338369
H139	H	-0.319339	-1.153602	-0.705105
H140	H	-1.090288	-1.243859	-0.780478
