data_functionalizedCrystal
_audit_creation_method	'MofGen! by Chris Wilmer'
_symmetry_space_group_name_H-M	'P1'
_symmetry_Int_Tables_number	1
_symmetry_cell_setting	triclinic
loop_
_symmetry_equiv_pos_as_xyz
  x,y,z
_cell_length_a	10.968094
_cell_length_b	9.482900
_cell_length_c	19.288865
_cell_angle_alpha	99.296723
_cell_angle_beta	96.058560
_cell_angle_gamma	87.451690
loop_
_atom_site_label
_atom_site_type_symbol
_atom_site_fract_x
_atom_site_fract_y
_atom_site_fract_z
O1	O	1.609526	-0.282267	-0.122569
O2	O	2.109526	0.217733	0.377431
O3	O	1.260309	-0.194786	-0.124096
O4	O	1.760309	0.305214	0.375904
O5	O	1.445004	-0.241082	-0.022498
O6	O	1.945004	0.258918	0.477502
O7	O	1.424831	-0.235971	-0.224166
O8	O	1.924831	0.264029	0.275834
O9	O	1.407488	-0.473471	-0.043222
O10	O	1.907488	0.026529	0.456778
O11	O	1.222793	-0.427174	-0.144820
O12	O	1.722793	0.072826	0.355180
O13	O	1.572010	-0.514656	-0.143292
O14	O	2.072010	-0.014656	0.356708
Cu15	Cu	1.393976	-0.492134	-0.145948
Cu16	Cu	1.893976	0.007866	0.354052
Cu17	Cu	1.438343	-0.217308	-0.121440
Cu18	Cu	1.938343	0.282692	0.378560
O19	O	1.387315	-0.468360	-0.244890
O20	O	1.887315	0.031640	0.255110
C21	C	1.196874	-0.299788	-0.132782
C22	C	1.696874	0.200212	0.367218
C23	C	1.063749	-0.266440	-0.127779
C24	C	1.563749	0.233560	0.372221
N25	N	1.362779	-0.685434	-0.163186
N26	N	1.862779	-0.185434	0.336814
C27	C	0.847367	-0.337482	-0.131106
C28	C	1.347367	0.162518	0.368894
C29	C	0.984955	-0.371962	-0.136283
C30	C	1.484955	0.128038	0.363717
C31	C	1.429133	-0.774266	-0.126520
C32	C	1.929133	-0.274266	0.373480
C33	C	1.403186	-0.935179	-0.140868
C34	C	1.903186	-0.435179	0.359132
C35	C	1.635446	-0.409650	-0.134606
C36	C	2.135446	0.090350	0.365394
C37	C	1.768572	-0.442989	-0.139608
C38	C	2.268572	0.057011	0.360392
C39	C	1.425596	-0.357118	-0.006965
C40	C	1.925596	0.142882	0.493035
C41	C	1.423645	-0.356642	0.070194
C42	C	1.923645	0.143358	0.570194
N43	N	1.469549	-0.024010	-0.104197
N44	N	1.969549	0.475990	0.395803
C45	C	1.406724	-0.352321	-0.260423
C46	C	1.906724	0.147679	0.239577
C47	C	1.408677	-0.352788	-0.337581
C48	C	1.908677	0.147212	0.162419
C49	C	1.532016	-0.383797	0.111737
C50	C	2.032016	0.116203	0.611737
C51	C	1.530189	-0.383316	0.184239
C52	C	2.030189	0.116684	0.684239
C53	C	1.419978	-0.355706	0.215193
C54	C	1.919978	0.144294	0.715193
C55	C	1.311593	-0.328540	0.173642
C56	C	1.811593	0.171460	0.673642
C57	C	1.313427	-0.329007	0.101143
C58	C	1.813427	0.170993	0.601143
C59	C	1.320199	-0.415403	0.318743
C60	C	1.820199	0.084597	0.818743
C61	C	1.318369	-0.414946	0.391240
C62	C	1.818369	0.085054	0.891240
C63	C	1.414321	-0.354257	0.438807
C64	C	1.914321	0.145743	0.938807
C65	C	1.512120	-0.294049	0.413865
C66	C	2.012120	0.205951	0.913865
C67	C	1.513953	-0.294516	0.341366
C68	C	2.013953	0.205484	0.841366
C69	C	1.417979	-0.355195	0.293807
C70	C	1.917979	0.144805	0.793807
C71	C	1.520719	-0.380890	0.558965
C72	C	2.020719	0.119110	1.058965
C73	C	1.518888	-0.380400	0.631469
C74	C	2.018888	0.119600	1.131469
C75	C	1.300287	-0.325637	0.620870
C76	C	1.800287	0.174363	1.120870
C77	C	1.302123	-0.326114	0.548368
C78	C	1.802123	0.173886	1.048368
C79	C	1.412341	-0.353748	0.517420
C80	C	1.912341	0.146252	1.017420
H81	H	0.812967	-0.221627	-0.119990
H82	H	1.312967	0.278373	0.380010
Cl83	Cl	1.038051	-0.550848	-0.153433
Cl84	Cl	1.538051	-0.050848	0.346567
H85	H	1.029356	-0.150577	-0.116668
H86	H	1.529356	0.349423	0.383332
H87	H	1.505147	-0.731192	-0.084505
H88	H	2.005147	-0.231192	0.415495
Cl89	Cl	1.245404	-0.751926	-0.228048
Cl90	Cl	1.745404	-0.251926	0.271952
H91	H	0.802974	-0.558844	-0.150716
H92	H	1.302974	-0.058844	0.349284
Cl93	Cl	1.285806	-1.001664	-0.205733
Cl94	Cl	1.785806	-0.501664	0.294267
H95	H	1.210553	-0.303150	0.646073
H96	H	1.710553	0.196850	1.146073
Cl97	Cl	1.670582	-0.418498	0.072837
Cl98	Cl	2.170582	0.081502	0.572837
Cl99	Cl	1.666438	-0.417456	0.236474
Cl100	Cl	2.166438	0.082544	0.736474
H101	H	1.593583	-0.245490	0.321062
H102	H	2.093583	0.254510	0.821062
H103	H	1.590253	-0.244629	0.452593
H104	H	2.090253	0.255371	0.952593
H105	H	1.610466	-0.403386	0.533766
H106	H	2.110466	0.096614	1.033766
H107	H	1.213874	-0.304009	0.514543
H108	H	1.713874	0.195991	1.014543
H109	H	1.607142	-0.402506	0.665293
H110	H	2.107142	0.097494	1.165293
Cl111	Cl	1.587179	-0.957591	-0.039483
Cl112	Cl	2.087179	-0.457591	0.460517
H113	H	1.238731	-0.463961	0.411542
H114	H	1.738731	0.036039	0.911542
Cl115	Cl	1.199563	-0.491711	0.258951
Cl116	Cl	1.699563	0.008289	0.758951
H117	H	1.221860	-0.306057	0.198850
H118	H	1.721860	0.193943	0.698850
H119	H	1.225174	-0.306894	0.067319
H120	H	1.725174	0.193106	0.567319
