data_functionalizedCrystal
_audit_creation_method	'MofGen! by Chris Wilmer'
_symmetry_space_group_name_H-M	'P1'
_symmetry_Int_Tables_number	1
_symmetry_cell_setting	triclinic
loop_
_symmetry_equiv_pos_as_xyz
  x,y,z
_cell_length_a	19.077105
_cell_length_b	13.897447
_cell_length_c	19.076919
_cell_angle_alpha	92.274152
_cell_angle_beta	90.076224
_cell_angle_gamma	87.715989
loop_
_atom_site_label
_atom_site_type_symbol
_atom_site_fract_x
_atom_site_fract_y
_atom_site_fract_z
Zn1	Zn	1.058299	-0.466652	-0.440432
Zn2	Zn	1.558299	0.033348	0.059568
Zn3	Zn	1.062948	-0.621745	-0.322930
Zn4	Zn	1.562948	-0.121745	0.177070
Zn5	Zn	0.945516	-0.453730	-0.318225
Zn6	Zn	1.445516	0.046270	0.181775
Zn7	Zn	0.940770	-0.621163	-0.435682
Zn8	Zn	1.440770	-0.121163	0.064318
O9	O	1.001883	-0.540823	-0.379317
O10	O	1.501883	-0.040823	0.120683
O11	O	1.157248	-0.492877	-0.428802
O12	O	1.657248	0.007123	0.071198
O13	O	1.051303	-0.594293	-0.223974
O14	O	1.551303	-0.094293	0.276026
O15	O	0.960517	-0.320466	-0.334455
O16	O	1.460517	0.179534	0.165545
O17	O	1.160664	-0.606823	-0.342473
O18	O	1.660664	-0.106823	0.157527
O19	O	1.043378	-0.329959	-0.424240
O20	O	1.543378	0.170041	0.075760
O21	O	0.965026	-0.470853	-0.220518
O22	O	1.465026	0.029147	0.279482
O23	O	0.846554	-0.470289	-0.329849
O24	O	1.346554	0.029711	0.170151
O25	O	0.952429	-0.605831	-0.534644
O26	O	1.452429	-0.105831	-0.034644
O27	O	0.843068	-0.593302	-0.416145
O28	O	1.343068	-0.093302	0.083855
O29	O	1.038777	-0.492313	-0.538133
O30	O	1.538777	0.007687	-0.038133
O31	O	1.046701	-0.756646	-0.337868
O32	O	1.546701	-0.256646	0.162132
O33	O	0.956937	-0.756219	-0.420707
O34	O	1.456937	-0.256219	0.079293
C35	C	0.819315	-0.530331	-0.371971
C36	C	1.319315	-0.030331	0.128029
C37	C	0.741210	-0.525867	-0.368845
C38	C	1.241210	-0.025867	0.131155
C39	C	0.702722	-0.587905	-0.412236
C40	C	1.202722	-0.087905	0.087764
C41	C	0.629335	-0.583697	-0.409302
C42	C	1.129335	-0.083697	0.090698
C43	C	0.594436	-0.517456	-0.362974
C44	C	1.094436	-0.017456	0.137026
C45	C	0.632929	-0.455412	-0.319582
C46	C	1.132929	0.044588	0.180418
C47	C	0.706316	-0.459615	-0.322520
C48	C	1.206316	0.040385	0.177480
C49	C	0.375148	-0.498003	-0.349381
C50	C	0.875148	0.001997	0.150619
C51	C	0.301757	-0.493807	-0.346445
C52	C	0.801757	0.006193	0.153555
C53	C	0.298167	-0.622092	-0.436166
C54	C	0.798167	-0.122092	0.063834
C55	C	0.371555	-0.626293	-0.439097
C56	C	0.871555	-0.126293	0.060903
C57	C	0.410041	-0.564245	-0.395707
C58	C	0.910041	-0.064245	0.104293
N59	N	0.519423	-0.513156	-0.359972
N60	N	1.019423	-0.013156	0.140028
N61	N	0.485054	-0.568541	-0.398713
N62	N	0.985054	-0.068541	0.101287
C63	C	1.001827	-0.791433	-0.379299
C64	C	1.501827	-0.291433	0.120701
C65	C	1.001866	-0.898650	-0.379317
C66	C	1.501866	-0.398650	0.120683
C67	C	1.001899	-0.985722	-0.379334
C68	C	1.501899	-0.485722	0.120666
C69	C	1.001948	-1.094959	-0.379354
C70	C	1.501948	-0.594959	0.120646
C71	C	1.185165	-0.551356	-0.386692
C72	C	1.685165	-0.051356	0.113308
C73	C	1.263269	-0.555845	-0.389835
C74	C	1.763269	-0.055845	0.110165
C75	C	0.994555	-0.550448	-0.562598
C76	C	1.494555	-0.050448	-0.062598
C77	C	0.991431	-0.554550	-0.640701
C78	C	1.491431	-0.054550	-0.140701
C79	C	1.001959	-0.289236	-0.379352
C80	C	1.501959	0.210764	0.120648
C81	C	1.001991	-0.182024	-0.379367
C82	C	1.501991	0.317976	0.120633
C83	C	1.034919	-0.497377	-0.679212
C84	C	1.534919	0.002623	-0.179212
C85	C	1.031976	-0.501227	-0.752598
C86	C	1.531976	-0.001227	-0.252598
C87	C	0.985548	-0.562256	-0.787472
C88	C	1.485548	-0.062256	-0.287472
C89	C	0.942056	-0.619432	-0.748955
C90	C	1.442056	-0.119432	-0.248955
C91	C	0.944996	-0.615576	-0.675571
C92	C	1.444996	-0.115576	-0.175571
C93	C	0.971932	-0.580121	-1.006753
C94	C	1.471932	-0.080121	-0.506753
C95	C	0.968996	-0.583974	-1.080143
C96	C	1.468996	-0.083974	-0.580143
C97	C	1.058915	-0.465768	-1.083780
C98	C	1.558915	0.034232	-0.583780
C99	C	1.061854	-0.461922	-1.010394
C100	C	1.561854	0.038078	-0.510394
C101	C	1.018359	-0.519094	-0.971884
C102	C	1.518359	-0.019094	-0.471884
N103	N	0.982541	-0.566195	-0.862484
N104	N	1.482541	-0.066195	-0.362484
N105	N	1.021364	-0.515149	-0.896873
N106	N	1.521364	-0.015149	-0.396873
C107	C	1.009224	-0.531167	-0.196751
C108	C	1.509224	-0.031167	0.303249
C109	C	1.012483	-0.526801	-0.118654
C110	C	1.512483	-0.026801	0.381346
H111	H	0.266824	-0.672606	-0.471492
H112	H	0.766824	-0.172606	0.028508
H113	H	0.406475	-0.447487	-0.314045
H114	H	0.906475	0.052513	0.185955
N115	N	1.078875	-0.439541	-0.794123
N116	N	1.578875	0.060459	-0.294123
H117	H	1.129590	-0.456733	-0.783376
H118	H	1.629590	0.043267	-0.283376
H119	H	1.069912	-0.451251	-0.845890
H120	H	1.569912	0.048749	-0.345890
N121	N	0.264104	-0.422373	-0.296470
N122	N	0.764104	0.077627	0.203530
H123	H	0.276434	-0.354777	-0.307975
H124	H	0.776434	0.145223	0.192025
H125	H	0.211789	-0.429235	-0.301223
H126	H	0.711789	0.070765	0.198777
N127	N	1.085002	-0.431564	-0.641601
N128	N	1.585002	0.068436	-0.141601
H129	H	1.057686	-0.383623	-0.610003
H130	H	1.557686	0.116377	-0.110003
H131	H	1.118759	-0.471119	-0.612506
H132	H	1.618759	0.028881	-0.112506
N133	N	0.924999	-0.641749	-0.965222
N134	N	1.424999	-0.141749	-0.465222
H135	H	0.895137	-0.680985	-0.998452
H136	H	1.395137	-0.180985	-0.498452
H137	H	0.954782	-0.686442	-0.935904
H138	H	1.454782	-0.186442	-0.435904
H139	H	0.399964	-0.680236	-0.476820
H140	H	0.899964	-0.180236	0.023180
H141	H	1.094325	-0.419221	-1.115143
H142	H	1.594325	0.080779	-0.615143
H143	H	0.904252	-0.669120	-0.777355
H144	H	1.404252	-0.169120	-0.277355
N145	N	0.918892	-0.649766	-1.117756
N146	N	1.418892	-0.149766	-0.617756
H147	H	0.923628	-0.643525	-1.170088
H148	H	1.423628	-0.143525	-0.670088
H149	H	0.930296	-0.718620	-1.105369
H150	H	1.430296	-0.218620	-0.605369
N151	N	0.898086	-0.677232	-0.634030
N152	N	1.398086	-0.177232	-0.134030
H153	H	0.868228	-0.716478	-0.667256
H154	H	1.368228	-0.216478	-0.167256
H155	H	0.927890	-0.721916	-0.604724
H156	H	1.427890	-0.221916	-0.104724
N157	N	0.747829	-0.392709	-0.275714
N158	N	1.247829	0.107291	0.224286
H159	H	0.799614	-0.405420	-0.284606
H160	H	1.299614	0.094580	0.215394
H161	H	0.734576	-0.323688	-0.286225
H162	H	1.234576	0.176312	0.213775
N163	N	0.740360	-0.659357	-0.462199
N164	N	1.240360	-0.159357	0.037801
H165	H	0.704840	-0.698018	-0.489242
H166	H	1.204840	-0.198018	0.010758
H167	H	0.769522	-0.623620	-0.495987
H168	H	1.269522	-0.123620	0.004013
N169	N	0.587826	-0.650623	-0.456094
N170	N	1.087826	-0.150623	0.043906
H171	H	0.556089	-0.611474	-0.487496
H172	H	1.056089	-0.111474	0.012504
H173	H	0.621120	-0.693213	-0.485836
H174	H	1.121120	-0.193213	0.014164
N175	N	0.595294	-0.383982	-0.269600
N176	N	1.095294	0.116018	0.230400
H177	H	0.542964	-0.390741	-0.274314
H178	H	1.042964	0.109259	0.225686
H179	H	0.610126	-0.397009	-0.219916
H180	H	1.110126	0.102991	0.280084
N181	N	1.111931	-0.396101	-0.972782
N182	N	1.611931	0.103899	-0.472782
H183	H	1.139034	-0.360465	-1.008314
H184	H	1.639034	0.139535	-0.508314
H185	H	1.084562	-0.348219	-0.941186
H186	H	1.584562	0.151781	-0.441186
