data_functionalizedCrystal
_audit_creation_method	'MofGen! by Chris Wilmer'
_symmetry_space_group_name_H-M	'P1'
_symmetry_Int_Tables_number	1
_symmetry_cell_setting	triclinic
loop_
_symmetry_equiv_pos_as_xyz
  x,y,z
_cell_length_a	19.076808
_cell_length_b	19.077241
_cell_length_c	19.076919
_cell_angle_alpha	89.886096
_cell_angle_beta	90.121640
_cell_angle_gamma	85.481199
loop_
_atom_site_label
_atom_site_type_symbol
_atom_site_fract_x
_atom_site_fract_y
_atom_site_fract_z
Zn1	Zn	-0.255486	-1.048451	0.429892
Zn2	Zn	-0.368269	-1.048747	0.307674
Zn3	Zn	-0.255115	-0.935681	0.307685
Zn4	Zn	-0.377656	-0.926205	0.420017
O5	O	-0.314131	-0.989771	0.366317
O6	O	-0.266673	-1.146969	0.417808
O7	O	-0.349175	-1.037839	0.209515
O8	O	-0.156680	-0.954482	0.328033
O9	O	-0.349535	-1.147187	0.328014
O10	O	-0.156952	-1.037333	0.417818
O11	O	-0.266041	-0.954769	0.209524
O12	O	-0.275144	-0.835945	0.318458
O13	O	-0.365534	-0.938332	0.519487
O14	O	-0.365174	-0.828983	0.400988
O15	O	-0.275776	-1.028145	0.526742
O16	O	-0.467998	-1.028650	0.318439
O17	O	-0.474895	-0.938619	0.400977
C18	C	-0.321138	-0.806930	0.358653
C19	C	-0.324153	-0.728708	0.355391
C20	C	-0.282502	-0.691841	0.400674
C21	C	-0.285331	-0.618344	0.397602
C22	C	-0.329815	-0.581714	0.349250
C23	C	-0.371468	-0.618587	0.303962
C24	C	-0.368634	-0.692083	0.307031
C25	C	-0.342904	-0.361917	0.335049
C26	C	-0.345736	-0.288416	0.331985
C27	C	-0.259598	-0.288178	0.425625
C28	C	-0.256772	-0.361675	0.428692
C29	C	-0.298421	-0.398541	0.383402
N30	N	-0.332710	-0.506588	0.346111
N31	N	-0.295522	-0.473666	0.386538
C32	C	-0.496982	-0.982657	0.358652
C33	C	-0.575205	-0.979677	0.355398
C34	C	-0.612039	-1.021379	0.400651
C35	C	-0.685538	-1.018576	0.397596
C36	C	-0.722202	-0.974075	0.349283
C37	C	-0.685363	-0.932369	0.304029
C38	C	-0.611866	-0.935169	0.307088
C39	C	-0.942006	-0.961076	0.335120
C40	C	-1.015508	-0.958282	0.332062
C41	C	-1.015678	-1.044488	0.425630
C42	C	-0.942179	-1.047286	0.428683
C43	C	-0.905347	-1.005578	0.383431
N44	N	-0.797329	-0.971210	0.346157
N45	N	-0.830221	-1.008439	0.386560
C46	C	-0.130566	-0.996931	0.374029
C47	C	-0.052342	-0.999983	0.377315
C48	C	-0.321743	-0.982148	0.549278
C49	C	-0.324987	-0.978900	0.627245
C50	C	-0.307094	-0.173327	0.374006
C51	C	-0.304085	-0.251549	0.377269
C52	C	-0.306497	-0.997407	0.184072
C53	C	-0.303050	-1.000799	0.106119
C54	C	-0.279780	-1.024133	0.667653
C55	C	-0.282826	-1.021072	0.740911
C56	C	-0.331081	-0.972782	0.773760
C57	C	-0.376289	-0.927544	0.733348
C58	C	-0.373240	-0.930602	0.660091
C59	C	-0.345209	-0.958619	0.992449
C60	C	-0.348256	-0.955567	1.065711
C61	C	-0.254791	-1.049094	1.073270
C62	C	-0.251749	-1.052150	1.000011
C63	C	-0.296955	-1.006910	0.959605
N64	N	-0.334197	-0.969654	0.848642
N65	N	-0.293835	-1.010035	0.884725
H66	H	-0.407684	-0.588758	0.264590
C67	C	-0.205060	-1.098846	1.117722
N68	N	-0.167597	-1.136318	1.151205
C69	C	-0.233565	-0.732126	0.453865
N70	N	-0.196701	-0.762467	0.493927
C71	C	-0.414455	-0.732636	0.257217
N72	N	-0.448968	-0.763180	0.219695
H73	H	-0.415578	-0.888223	0.760099
C74	C	-0.422972	-0.880844	0.615643
N75	N	-0.460430	-0.843363	0.582165
H76	H	-0.246016	-1.057907	0.773808
C77	C	-0.239514	-0.577793	0.447420
N78	N	-0.205002	-0.547251	0.484945
H79	H	-0.220551	-0.391493	0.468068
H80	H	-0.387553	-0.916241	1.092455
H81	H	-0.715524	-1.052539	0.434440
H82	H	-0.225688	-0.258153	0.462497
C83	C	-0.901502	-0.915179	0.285356
N84	N	-0.870992	-0.880600	0.247877
H85	H	-0.376819	-0.391925	0.298171
C86	C	-0.394674	-0.248125	0.278793
N87	N	-0.431534	-0.217778	0.238731
H88	H	-0.582192	-1.057619	0.439989
H89	H	-0.912329	-1.083523	0.468022
C90	C	-1.056199	-1.090359	0.475409
N91	N	-1.086720	-1.124909	0.512907
C92	C	-1.055837	-0.909322	0.278915
N93	N	-1.086213	-0.872448	0.238887
H94	H	-0.715221	-0.896132	0.264694
C95	C	-0.571349	-0.889294	0.257306
N96	N	-0.540833	-0.854739	0.219810
C97	C	-0.394935	-0.908852	0.948012
N98	N	-0.432390	-0.871363	0.914539
C99	C	-0.226694	-1.077256	0.631526
N100	N	-0.186706	-1.117267	0.604317
H101	H	-0.212456	-1.091475	0.973271
