data_functionalizedCrystal
_audit_creation_method	'MofGen! by Chris Wilmer'
_symmetry_space_group_name_H-M	'P1'
_symmetry_Int_Tables_number	1
_symmetry_cell_setting	triclinic
loop_
_symmetry_equiv_pos_as_xyz
  x,y,z
_cell_length_a	25.639239
_cell_length_b	19.805407
_cell_length_c	19.805399
_cell_angle_alpha	90.016510
_cell_angle_beta	89.969866
_cell_angle_gamma	89.965164
loop_
_atom_site_label
_atom_site_type_symbol
_atom_site_fract_x
_atom_site_fract_y
_atom_site_fract_z
Zn1	Zn	-0.208209	-1.034660	-0.382707
Zn2	Zn	0.041791	-0.784660	-0.132707
Zn3	Zn	0.291791	-0.534660	0.117293
Zn4	Zn	0.541791	-0.284660	0.367293
Zn5	Zn	-0.295646	-1.034556	-0.269517
Zn6	Zn	-0.045646	-0.784556	-0.019517
Zn7	Zn	0.204354	-0.534556	0.230483
Zn8	Zn	0.454354	-0.284556	0.480483
Zn9	Zn	-0.208220	-0.921480	-0.269533
Zn10	Zn	0.041780	-0.671480	-0.019533
Zn11	Zn	0.291780	-0.421480	0.230467
Zn12	Zn	0.541780	-0.171480	0.480467
Zn13	Zn	-0.295610	-0.921414	-0.382664
Zn14	Zn	-0.045610	-0.671414	-0.132664
Zn15	Zn	0.204390	-0.421414	0.117336
Zn16	Zn	0.454390	-0.171414	0.367336
O17	O	-0.251921	-0.978027	-0.326105
O18	O	-0.001921	-0.728027	-0.076105
O19	O	0.248079	-0.478027	0.173895
O20	O	0.498079	-0.228027	0.423895
O21	O	-0.219818	-1.129363	-0.367704
O22	O	0.030182	-0.879363	-0.117704
O23	O	0.280182	-0.629363	0.132296
O24	O	0.530182	-0.379363	0.382296
O25	O	-0.284068	-1.019540	-0.174802
O26	O	-0.034068	-0.769540	0.075198
O27	O	0.215932	-0.519540	0.325198
O28	O	0.465932	-0.269540	0.575198
O29	O	-0.135053	-0.936565	-0.284570
O30	O	0.114947	-0.686565	-0.034570
O31	O	0.364947	-0.436565	0.215430
O32	O	0.614947	-0.186565	0.465430
O33	O	-0.284057	-1.129286	-0.284543
O34	O	-0.034057	-0.879286	-0.034543
O35	O	0.215943	-0.629286	0.215457
O36	O	0.465943	-0.379286	0.465457
O37	O	-0.135046	-1.019718	-0.367719
O38	O	0.114954	-0.769718	-0.117719
O39	O	0.364954	-0.519718	0.132281
O40	O	0.614954	-0.269718	0.382281
O41	O	-0.219837	-0.936464	-0.174814
O42	O	0.030163	-0.686464	0.075186
O43	O	0.280163	-0.436464	0.325186
O44	O	0.530163	-0.186464	0.575186
O45	O	-0.219802	-0.826755	-0.284529
O46	O	0.030198	-0.576755	-0.034529
O47	O	0.280198	-0.326755	0.215471
O48	O	0.530198	-0.076755	0.465471
O49	O	-0.283996	-0.936452	-0.477387
O50	O	-0.033996	-0.686452	-0.227387
O51	O	0.216004	-0.436452	0.022613
O52	O	0.466004	-0.186452	0.272613
O53	O	-0.284007	-0.826706	-0.367646
O54	O	-0.034007	-0.576706	-0.117646
O55	O	0.215993	-0.326706	0.132354
O56	O	0.465993	-0.076706	0.382354
O57	O	-0.219784	-1.019654	-0.477418
O58	O	0.030216	-0.769654	-0.227418
O59	O	0.280216	-0.519654	0.022582
O60	O	0.530216	-0.269654	0.272582
O61	O	-0.368806	-1.019476	-0.284502
O62	O	-0.118806	-0.769476	-0.034502
O63	O	0.131194	-0.519476	0.215498
O64	O	0.381194	-0.269476	0.465498
O65	O	-0.368780	-0.936351	-0.367630
O66	O	-0.118780	-0.686351	-0.117630
O67	O	0.131220	-0.436351	0.132370
O68	O	0.381220	-0.186351	0.382370
C69	C	-0.251902	-0.802171	-0.326085
C70	C	-0.001902	-0.552171	-0.076085
C71	C	0.248098	-0.302171	0.173915
C72	C	0.498098	-0.052171	0.423915
C73	C	-0.251906	-0.726939	-0.326092
C74	C	-0.001906	-0.476939	-0.076092
C75	C	0.248094	-0.226939	0.173908
C76	C	0.498094	0.023061	0.423908
C77	C	-0.218516	-0.691636	-0.369459
C78	C	0.031484	-0.441636	-0.119459
C79	C	0.281484	-0.191636	0.130541
C80	C	0.531484	0.058364	0.380541
C81	C	-0.218517	-0.620947	-0.369459
C82	C	0.031483	-0.370947	-0.119459
C83	C	0.281483	-0.120947	0.130541
C84	C	0.531483	0.129053	0.380541
C85	C	-0.251913	-0.585564	-0.326097
C86	C	-0.001913	-0.335564	-0.076097
C87	C	0.248087	-0.085564	0.173903
C88	C	0.498087	0.164436	0.423903
C89	C	-0.285305	-0.620872	-0.282725
C90	C	-0.035305	-0.370872	-0.032725
C91	C	0.214695	-0.120872	0.217275
C92	C	0.464695	0.129128	0.467275
C93	C	-0.285300	-0.691560	-0.282721
C94	C	-0.035300	-0.441560	-0.032721
C95	C	0.214700	-0.191560	0.217279
C96	C	0.464700	0.058440	0.467279
C97	C	-0.285324	-0.335799	-0.282739
C98	C	-0.035324	-0.085799	-0.032739
C99	C	0.214676	0.164201	0.217261
C100	C	0.464676	0.414201	0.467261
C101	C	-0.285327	-0.265107	-0.282747
C102	C	-0.035327	-0.015107	-0.032747
C103	C	0.214673	0.234893	0.217253
C104	C	0.464673	0.484893	0.467253
C105	C	-0.218541	-0.265187	-0.369477
C106	C	0.031459	-0.015187	-0.119477
C107	C	0.281459	0.234813	0.130523
C108	C	0.531459	0.484813	0.380523
C109	C	-0.218536	-0.335874	-0.369473
C110	C	0.031464	-0.085874	-0.119473
C111	C	0.281464	0.164126	0.130527
C112	C	0.531464	0.414126	0.380527
C113	C	-0.251926	-0.371176	-0.326100
C114	C	-0.001926	-0.121176	-0.076100
C115	C	0.248074	0.128824	0.173900
C116	C	0.498074	0.378824	0.423900
C117	C	-0.251924	-0.447825	-0.326098
C118	C	-0.001924	-0.197825	-0.076098
C119	C	0.248076	0.052175	0.173902
C120	C	0.498076	0.302175	0.423902
C121	C	-0.251919	-0.508917	-0.326101
C122	C	-0.001919	-0.258917	-0.076101
C123	C	0.248081	-0.008917	0.173899
C124	C	0.498081	0.241083	0.423899
C125	C	-0.387764	-0.977914	-0.326074
C126	C	-0.137764	-0.727914	-0.076074
C127	C	0.112236	-0.477914	0.173926
C128	C	0.362236	-0.227914	0.423926
C129	C	-0.445878	-0.977927	-0.326084
C130	C	-0.195878	-0.727927	-0.076084
C131	C	0.054122	-0.477927	0.173916
C132	C	0.304122	-0.227927	0.423916
C133	C	-0.806242	-1.021423	-0.282894
C134	C	-0.556242	-0.771423	-0.032894
C135	C	-0.306242	-0.521423	0.217106
C136	C	-0.056242	-0.271423	0.467106
C137	C	-0.860846	-1.021450	-0.282903
C138	C	-0.610846	-0.771450	-0.032903
C139	C	-0.360846	-0.521450	0.217097
C140	C	-0.110846	-0.271450	0.467097
O141	O	-0.889084	-1.058314	-0.246147
O142	O	-0.639084	-0.808314	0.003853
O143	O	-0.389084	-0.558314	0.253853
O144	O	-0.139084	-0.308314	0.503853
N145	N	-0.888160	-0.978146	-0.326150
N146	N	-0.638160	-0.728146	-0.076150
N147	N	-0.388160	-0.478146	0.173850
N148	N	-0.138160	-0.228146	0.423850
C149	C	-0.860867	-0.934819	-0.369396
C150	C	-0.610867	-0.684819	-0.119396
C151	C	-0.360867	-0.434819	0.130604
C152	C	-0.110867	-0.184819	0.380604
O153	O	-0.889114	-0.897989	-0.406183
O154	O	-0.639114	-0.647989	-0.156183
O155	O	-0.389114	-0.397989	0.093817
O156	O	-0.139114	-0.147989	0.343817
C157	C	-0.806264	-0.934796	-0.369390
C158	C	-0.556264	-0.684796	-0.119390
C159	C	-0.306264	-0.434796	0.130610
C160	C	-0.056264	-0.184796	0.380610
C161	C	-0.778953	-0.978098	-0.326135
C162	C	-0.528953	-0.728098	-0.076135
C163	C	-0.278953	-0.478098	0.173865
C164	C	-0.028953	-0.228098	0.423865
C165	C	-0.778931	-1.064722	-0.239643
C166	C	-0.528931	-0.814722	0.010357
C167	C	-0.278931	-0.564722	0.260357
C168	C	-0.028931	-0.314722	0.510357
C169	C	-0.724330	-1.064695	-0.239633
C170	C	-0.474330	-0.814695	0.010367
C171	C	-0.224330	-0.564695	0.260367
C172	C	0.025670	-0.314695	0.510367
C173	C	-0.697041	-1.021369	-0.282874
C174	C	-0.447041	-0.771369	-0.032874
C175	C	-0.197041	-0.521369	0.217126
C176	C	0.052959	-0.271369	0.467126
C177	C	-0.724352	-0.978071	-0.326125
C178	C	-0.474352	-0.728071	-0.076125
C179	C	-0.224352	-0.478071	0.173875
C180	C	0.025648	-0.228071	0.423875
C181	C	-0.778972	-0.891473	-0.412639
C182	C	-0.528972	-0.641473	-0.162639
C183	C	-0.278972	-0.391473	0.087361
C184	C	-0.028972	-0.141473	0.337361
C185	C	-0.724365	-0.891455	-0.412629
C186	C	-0.474365	-0.641455	-0.162629
C187	C	-0.224365	-0.391455	0.087371
C188	C	0.025635	-0.141455	0.337371
C189	C	-0.697053	-0.934756	-0.369374
C190	C	-0.447053	-0.684756	-0.119374
C191	C	-0.197053	-0.434756	0.130626
C192	C	0.052947	-0.184756	0.380626
C193	C	-0.642462	-0.934718	-0.369357
C194	C	-0.392462	-0.684718	-0.119357
C195	C	-0.142462	-0.434718	0.130643
C196	C	0.107538	-0.184718	0.380643
N197	N	-0.615148	-0.978021	-0.326109
N198	N	-0.365148	-0.728021	-0.076109
N199	N	-0.115148	-0.478021	0.173891
N200	N	0.134852	-0.228021	0.423891
C201	C	-0.642438	-1.021347	-0.282868
C202	C	-0.392438	-0.771347	-0.032868
C203	C	-0.142438	-0.521347	0.217132
C204	C	0.107562	-0.271347	0.467132
C205	C	-0.975538	-0.934870	-0.369407
C206	C	-0.725538	-0.684870	-0.119407
C207	C	-0.475538	-0.434870	0.130593
C208	C	-0.225538	-0.184870	0.380593
C209	C	-1.030140	-0.934888	-0.369410
C210	C	-0.780140	-0.684888	-0.119410
C211	C	-0.530140	-0.434888	0.130590
C212	C	-0.280140	-0.184888	0.380590
C213	C	-1.030115	-1.021520	-0.282917
C214	C	-0.780115	-0.771520	-0.032917
C215	C	-0.530115	-0.521520	0.217083
C216	C	-0.280115	-0.271520	0.467083
C217	C	-0.975512	-1.021498	-0.282911
C218	C	-0.725512	-0.771498	-0.032911
C219	C	-0.475512	-0.521498	0.217089
C220	C	-0.225512	-0.271498	0.467089
C221	C	-0.948224	-0.978173	-0.326159
C222	C	-0.698224	-0.728173	-0.076159
C223	C	-0.448224	-0.478173	0.173841
C224	C	-0.198224	-0.228173	0.423841
C225	C	-0.527772	-1.021286	-0.282851
C226	C	-0.277772	-0.771286	-0.032851
C227	C	-0.027772	-0.521286	0.217149
C228	C	0.222228	-0.271286	0.467149
C229	C	-0.473167	-1.021252	-0.282843
C230	C	-0.223167	-0.771252	-0.032843
C231	C	0.026833	-0.521252	0.217157
C232	C	0.276833	-0.271252	0.467157
C233	C	-0.473196	-0.934623	-0.369337
C234	C	-0.223196	-0.684623	-0.119337
C235	C	0.026804	-0.434623	0.130663
C236	C	0.276804	-0.184623	0.380663
C237	C	-0.527797	-0.934654	-0.369343
C238	C	-0.277797	-0.684654	-0.119343
C239	C	-0.027797	-0.434654	0.130657
C240	C	0.222203	-0.184654	0.380657
C241	C	-0.555084	-0.977990	-0.326097
C242	C	-0.305084	-0.727990	-0.076097
C243	C	-0.055084	-0.477990	0.173903
C244	C	0.194916	-0.227990	0.423903
O245	O	-0.614190	-0.897874	-0.406095
O246	O	-0.364190	-0.647874	-0.156095
O247	O	-0.114190	-0.397874	0.093905
O248	O	0.135810	-0.147874	0.343905
O249	O	-0.614184	-1.058177	-0.246094
O250	O	-0.364184	-0.808177	0.003906
O251	O	-0.114184	-0.558177	0.253906
O252	O	0.135816	-0.308177	0.503906
C253	C	-0.115548	-0.978160	-0.326151
C254	C	0.134452	-0.728160	-0.076151
C255	C	0.384452	-0.478160	0.173849
C256	C	0.634452	-0.228160	0.423849
C257	C	-0.057434	-0.978217	-0.326171
C258	C	0.192566	-0.728217	-0.076171
C259	C	0.442566	-0.478217	0.173829
C260	C	0.692566	-0.228217	0.423829
C261	C	-0.251885	-0.978057	-0.502648
C262	C	-0.001885	-0.728057	-0.252648
C263	C	0.248115	-0.478057	-0.002648
C264	C	0.498115	-0.228057	0.247352
C265	C	-0.251869	-0.978070	-0.577880
C266	C	-0.001869	-0.728070	-0.327880
C267	C	0.248131	-0.478070	-0.077880
C268	C	0.498131	-0.228070	0.172120
C269	C	-0.251937	-0.154570	-0.326120
C270	C	-0.001937	0.095430	-0.076120
C271	C	0.248063	0.345430	0.173880
C272	C	0.498063	0.595430	0.423880
C273	C	-0.251933	-0.229802	-0.326111
C274	C	-0.001933	0.020198	-0.076111
C275	C	0.248067	0.270198	0.173889
C276	C	0.498067	0.520198	0.423889
C277	C	-0.218421	-0.934824	-0.613230
C278	C	0.031579	-0.684824	-0.363230
C279	C	0.281579	-0.434824	-0.113230
C280	C	0.531579	-0.184824	0.136770
C281	C	-0.218411	-0.934834	-0.683918
C282	C	0.031589	-0.684834	-0.433918
C283	C	0.281589	-0.434834	-0.183918
C284	C	0.531589	-0.184834	0.066082
C285	C	-0.251847	-0.978092	-0.719256
C286	C	-0.001847	-0.728092	-0.469256
C287	C	0.248153	-0.478092	-0.219256
C288	C	0.498153	-0.228092	0.030744
C289	C	-0.285299	-1.021340	-0.683901
C290	C	-0.035299	-0.771340	-0.433901
C291	C	0.214701	-0.521340	-0.183901
C292	C	0.464701	-0.271340	0.066099
C293	C	-0.285311	-1.021327	-0.613214
C294	C	-0.035311	-0.771327	-0.363214
C295	C	0.214689	-0.521327	-0.113214
C296	C	0.464689	-0.271327	0.136786
C297	C	-0.285250	-1.021393	-0.968975
C298	C	-0.035250	-0.771393	-0.718975
C299	C	0.214750	-0.521393	-0.468975
C300	C	0.464750	-0.271393	-0.218975
C301	C	-0.285234	-1.021405	-1.039667
C302	C	-0.035234	-0.771405	-0.789667
C303	C	0.214766	-0.521405	-0.539667
C304	C	0.464766	-0.271405	-0.289667
C305	C	-0.218350	-0.934900	-1.039679
C306	C	0.031650	-0.684900	-0.789679
C307	C	0.281650	-0.434900	-0.539679
C308	C	0.531650	-0.184900	-0.289679
C309	C	-0.218362	-0.934887	-0.968992
C310	C	0.031638	-0.684887	-0.718992
C311	C	0.281638	-0.434887	-0.468992
C312	C	0.531638	-0.184887	-0.218992
C313	C	-0.251816	-0.978132	-0.933643
C314	C	-0.001816	-0.728132	-0.683643
C315	C	0.248184	-0.478132	-0.433643
C316	C	0.498184	-0.228132	-0.183643
C317	C	-0.251827	-0.978120	-0.856995
C318	C	-0.001827	-0.728120	-0.606995
C319	C	0.248173	-0.478120	-0.356995
C320	C	0.498173	-0.228120	-0.106995
C321	C	-0.251833	-0.978108	-0.795903
C322	C	-0.001833	-0.728108	-0.545903
C323	C	0.248167	-0.478108	-0.295903
C324	C	0.498167	-0.228108	-0.045903
C325	C	-0.251920	-0.978037	-0.150249
C326	C	-0.001920	-0.728037	0.099751
C327	C	0.248080	-0.478037	0.349751
C328	C	0.498080	-0.228037	0.599751
C329	C	-0.251788	-0.978155	-0.075018
C330	C	-0.001788	-0.728155	0.174982
C331	C	0.248212	-0.478155	0.424982
C332	C	0.498212	-0.228155	0.674982
H333	H	-0.312512	-0.364534	-0.247422
H334	H	-0.062512	-0.114534	0.002578
H335	H	0.187488	0.135466	0.252578
H336	H	0.437488	0.385466	0.502578
Br337	Br	-1.067198	-0.876110	-0.428105
Br338	Br	-0.817198	-0.626110	-0.178105
Br339	Br	-0.567198	-0.376110	0.071895
Br340	Br	-0.317198	-0.126110	0.321895
H341	H	-0.312526	-1.056558	-0.712679
H342	H	-0.062526	-0.806558	-0.462679
H343	H	0.187474	-0.556558	-0.212679
H344	H	0.437474	-0.306558	0.037321
H345	H	-0.191191	-0.899602	-0.584463
H346	H	0.058809	-0.649602	-0.334463
H347	H	0.308809	-0.399602	-0.084463
H348	H	0.558809	-0.149602	0.165537
Br349	Br	-0.436150	-0.875830	-0.428022
Br350	Br	-0.186150	-0.625830	-0.178022
Br351	Br	0.063850	-0.375830	0.071978
Br352	Br	0.313850	-0.125830	0.321978
H353	H	-0.191176	-0.899616	-0.712697
H354	H	0.058824	-0.649616	-0.462697
H355	H	0.308824	-0.399616	-0.212697
H356	H	0.558824	-0.149616	0.037303
H357	H	-0.191328	-0.592206	-0.404774
H358	H	0.058672	-0.342206	-0.154774
H359	H	0.308672	-0.092206	0.095226
H360	H	0.558672	0.157794	0.345226
H361	H	-0.191344	-0.364680	-0.404786
H362	H	0.058656	-0.114680	-0.154786
H363	H	0.308656	0.135320	0.095214
H364	H	0.558656	0.385320	0.345214
H365	H	-0.312493	-0.592058	-0.247415
H366	H	-0.062493	-0.342058	0.002585
H367	H	0.187507	-0.092058	0.252585
H368	H	0.437507	0.157942	0.502585
H369	H	-0.953322	-0.899584	-0.404622
H370	H	-0.703322	-0.649584	-0.154622
H371	H	-0.453322	-0.399584	0.095378
H372	H	-0.203322	-0.149584	0.345378
Br373	Br	-0.687274	-1.123474	-0.180937
Br374	Br	-0.437274	-0.873474	0.069063
Br375	Br	-0.187274	-0.623474	0.319063
Br376	Br	0.062726	-0.373474	0.569063
H377	H	-0.801144	-1.100006	-0.204431
H378	H	-0.551144	-0.850006	0.045569
H379	H	-0.301144	-0.600006	0.295569
H380	H	-0.051144	-0.350006	0.545569
H381	H	-0.191133	-0.899664	-0.940224
H382	H	0.058867	-0.649664	-0.690224
H383	H	0.308867	-0.399664	-0.440224
H384	H	0.558867	-0.149664	-0.190224
H385	H	-0.312496	-1.056599	-0.940202
H386	H	-0.062496	-0.806599	-0.690202
H387	H	0.187504	-0.556599	-0.440202
H388	H	0.437504	-0.306599	-0.190202
H389	H	-0.191323	-0.720440	-0.404772
H390	H	0.058677	-0.470440	-0.154772
H391	H	0.308677	-0.220440	0.095228
H392	H	0.558677	0.029560	0.345228
Br393	Br	-0.330614	-1.080118	-1.087625
Br394	Br	-0.080614	-0.830118	-0.837625
Br395	Br	0.169386	-0.580118	-0.587625
Br396	Br	0.419386	-0.330118	-0.337625
H397	H	-0.191112	-0.899687	-1.068468
H398	H	0.058888	-0.649687	-0.818468
H399	H	0.308888	-0.399687	-0.568468
H400	H	0.558888	-0.149687	-0.318468
Br401	Br	-0.330617	-0.739473	-0.223863
Br402	Br	-0.080617	-0.489473	0.026137
Br403	Br	0.169383	-0.239473	0.276137
Br404	Br	0.419383	0.010527	0.526137
H405	H	-0.312544	-1.056547	-0.584433
H406	H	-0.062544	-0.806547	-0.334433
H407	H	0.187456	-0.556547	-0.084433
H408	H	0.437456	-0.306547	0.165567
H409	H	-0.191352	-0.236435	-0.404792
H410	H	0.058648	0.013565	-0.154792
H411	H	0.308648	0.263565	0.095208
H412	H	0.558648	0.513565	0.345208
H413	H	-0.312523	-0.236300	-0.247434
H414	H	-0.062523	0.013700	0.002566
H415	H	0.187477	0.263700	0.252566
H416	H	0.437477	0.513700	0.502566
Br417	Br	-0.436105	-1.080021	-0.224134
Br418	Br	-0.186105	-0.830021	0.025866
Br419	Br	0.063895	-0.580021	0.275866
Br420	Br	0.313895	-0.330021	0.525866
H421	H	-0.953279	-1.056758	-0.247690
H422	H	-0.703279	-0.806758	0.002310
H423	H	-0.453279	-0.556758	0.252310
H424	H	-0.203279	-0.306758	0.502310
Br425	Br	-1.067161	-1.080317	-0.224229
Br426	Br	-0.817161	-0.830317	0.025771
Br427	Br	-0.567161	-0.580317	0.275771
Br428	Br	-0.317161	-0.330317	0.525771
Br429	Br	-0.564796	-1.080100	-0.224160
Br430	Br	-0.314796	-0.830100	0.025840
Br431	Br	-0.064796	-0.580100	0.275840
Br432	Br	0.185204	-0.330100	0.525840
H433	H	-0.801199	-0.856209	-0.447859
H434	H	-0.551199	-0.606209	-0.197859
H435	H	-0.301199	-0.356209	0.052141
H436	H	-0.051199	-0.106209	0.302141
H437	H	-0.702149	-0.856175	-0.447849
H438	H	-0.452149	-0.606175	-0.197849
H439	H	-0.202149	-0.356175	0.052151
H440	H	0.047851	-0.106175	0.302151
H441	H	-0.550035	-0.899396	-0.404567
H442	H	-0.300035	-0.649396	-0.154567
H443	H	-0.050035	-0.399396	0.095433
H444	H	0.199965	-0.149396	0.345433
