data_functionalizedCrystal
_audit_creation_method	'MofGen! by Chris Wilmer'
_symmetry_space_group_name_H-M	'P1'
_symmetry_Int_Tables_number	1
_symmetry_cell_setting	triclinic
loop_
_symmetry_equiv_pos_as_xyz
  x,y,z
_cell_length_a	15.944551
_cell_length_b	9.065218
_cell_length_c	8.140239
_cell_angle_alpha	90.001686
_cell_angle_beta	89.998231
_cell_angle_gamma	84.257312
loop_
_atom_site_label
_atom_site_type_symbol
_atom_site_fract_x
_atom_site_fract_y
_atom_site_fract_z
O1	O	-1.115964	-0.190270	-0.136435
O2	O	-0.871592	-0.213728	-0.136475
O3	O	-0.998829	0.012762	-0.136451
O4	O	-0.988727	-0.416759	-0.136459
O5	O	-0.998822	0.012764	0.136776
O6	O	-0.871585	-0.213725	0.136752
O7	O	-1.115956	-0.190267	0.136792
Zn8	Zn	-0.993769	-0.201996	0.180152
Zn9	Zn	-0.993779	-0.201999	-0.179836
O10	O	-0.988719	-0.416757	0.136768
C11	C	-0.997854	0.067727	0.000160
C12	C	-0.994951	0.231502	0.000151
C13	C	-0.840287	-0.212753	0.000133
C14	C	-0.747019	-0.209833	0.000118
C15	C	-1.147261	-0.191242	0.000180
C16	C	-1.240530	-0.194162	0.000185
C17	C	-0.531045	-0.062466	0.000152
C18	C	-0.470547	-0.130900	-0.134564
C19	C	-0.576253	-0.204551	0.000137
C20	C	-0.470563	-0.130931	0.134816
C21	C	-0.411301	-0.199439	0.000163
C22	C	-0.516983	-0.273024	-0.134691
C23	C	-0.517005	-0.273035	0.134811
C24	C	-0.456525	-0.341573	0.000061
C25	C	-0.671277	-0.207493	0.000121
C26	C	-0.316278	-0.196509	0.000168
C27	C	-0.989694	-0.471722	0.000153
C28	C	-0.992597	-0.635497	0.000151
N29	N	-0.993769	-0.201993	0.425835
N30	N	-0.993786	-0.201991	-0.425519
H31	H	-0.449985	-0.070804	-0.248456
H32	H	-0.537429	-0.333077	-0.248707
O33	O	-0.413791	-0.497933	-0.000008
H34	H	-0.432396	-0.556546	-0.111935
O35	O	-0.573962	0.093768	-0.000034
H36	H	-0.643346	0.090274	0.001111
O37	O	-0.443353	-0.051313	0.285691
H38	H	-0.473479	0.064496	0.285399
O39	O	-0.544292	-0.352566	0.285669
H40	H	-0.525900	-0.293352	0.397340
