data_functionalizedCrystal
_audit_creation_method	'MofGen! by Chris Wilmer'
_symmetry_space_group_name_H-M	'P1'
_symmetry_Int_Tables_number	1
_symmetry_cell_setting	triclinic
loop_
_symmetry_equiv_pos_as_xyz
  x,y,z
_cell_length_a	21.295418
_cell_length_b	21.295417
_cell_length_c	16.120297
_cell_angle_alpha	92.867002
_cell_angle_beta	92.858291
_cell_angle_gamma	90.046319
loop_
_atom_site_label
_atom_site_type_symbol
_atom_site_fract_x
_atom_site_fract_y
_atom_site_fract_z
Zn1	Zn	0.944261	-0.268427	-0.471775
Zn2	Zn	0.949511	-0.368356	-0.332355
Zn3	Zn	0.844332	-0.263133	-0.332334
Zn4	Zn	0.838957	-0.373687	-0.471671
O5	O	0.894265	-0.318401	-0.402034
O6	O	1.033045	-0.281667	-0.453332
O7	O	0.940005	-0.349951	-0.215692
O8	O	0.857640	-0.175747	-0.350866
O9	O	1.036902	-0.355085	-0.350901
O10	O	0.931057	-0.179637	-0.453312
O11	O	0.862731	-0.272644	-0.215677
O12	O	0.755532	-0.277814	-0.350766
O13	O	0.848480	-0.364171	-0.588345
O14	O	0.751583	-0.359038	-0.453136
O15	O	0.925846	-0.286837	-0.588421
O16	O	0.934793	-0.457151	-0.350801
O17	O	0.853570	-0.461068	-0.453156
C18	C	0.730717	-0.318430	-0.401938
C19	C	0.660750	-0.318459	-0.401917
C20	C	0.625847	-0.360802	-0.455141
C21	C	0.560103	-0.360788	-0.455178
C22	C	0.529265	-0.318437	-0.401977
C23	C	0.564177	-0.276085	-0.348748
C24	C	0.629919	-0.276096	-0.348718
N25	N	0.428786	-0.310726	-0.329062
N26	N	0.366333	-0.310719	-0.329092
C27	C	0.331187	-0.318400	-0.402065
N28	N	0.360853	-0.326100	-0.475007
N29	N	0.423311	-0.326110	-0.474975
C30	C	0.457979	-0.318420	-0.402004
C31	C	0.224997	-0.360731	-0.455334
C32	C	0.159251	-0.360712	-0.455373
C33	C	0.163327	-0.276012	-0.348936
C34	C	0.229071	-0.276027	-0.348905
C35	C	0.259902	-0.318390	-0.402103
C36	C	0.894185	-0.481951	-0.401988
C37	C	0.894207	-0.551919	-0.401996
C38	C	0.936533	-0.582727	-0.348754
C39	C	0.936562	-0.648471	-0.348773
C40	C	0.894253	-0.683403	-0.402025
C41	C	0.851923	-0.652587	-0.455276
C42	C	0.851900	-0.586845	-0.455262
N43	N	0.838944	-0.786926	-0.408348
N44	N	0.838968	-0.849378	-0.408356
C45	C	0.894322	-0.881479	-0.402072
N46	N	0.949653	-0.848769	-0.395763
N47	N	0.949628	-0.786311	-0.395750
C48	C	0.894274	-0.754689	-0.402046
C49	C	0.936683	-0.983574	-0.348848
C50	C	0.936713	-1.049318	-0.348873
C51	C	0.852069	-1.053433	-0.455372
C52	C	0.852045	-0.987690	-0.455352
C53	C	0.894351	-0.952764	-0.402085
C54	C	1.058452	-0.318372	-0.402131
C55	C	1.128418	-0.318359	-0.402172
C56	C	0.885978	-0.326689	-0.619478
C57	C	0.882446	-0.330221	-0.712139
C58	C	0.894363	-0.154213	-0.402098
C59	C	0.894404	-0.084246	-0.402126
C60	C	0.875975	-0.336656	-0.881793
C61	C	0.912680	-0.299957	-0.923126
C62	C	0.909080	-0.303537	-1.017528
C63	C	0.879574	-0.333077	-0.787383
C64	C	0.902557	-0.310099	-0.185436
C65	C	0.906211	-0.306390	-0.092775
H66	H	0.257489	-0.241550	-0.305559
F67	F	0.257811	-0.405813	-0.511955
F68	F	0.807044	-1.090606	-0.512052
F69	F	0.831370	-0.381236	-0.928206
H70	H	0.946808	-0.265849	-0.887615
F71	F	0.522949	-0.405858	-0.511830
F72	F	0.658655	-0.405887	-0.511762
H73	H	0.130834	-0.395192	-0.498720
H74	H	0.138220	-0.241526	-0.305622
H75	H	0.658337	-0.241613	-0.305377
F76	F	0.531356	-0.231009	-0.292131
F77	F	0.981566	-0.545561	-0.292072
F78	F	0.981613	-0.681266	-0.292103
F79	F	0.981769	-1.082107	-0.292208
H80	H	0.817576	-0.962604	-0.498703
H81	H	0.817477	-0.681033	-0.498636
H82	H	0.971134	-0.955136	-0.305478
F83	F	0.806848	-0.554056	-0.511931
