data_functionalizedCrystal
_audit_creation_method	'MofGen! by Chris Wilmer'
_symmetry_space_group_name_H-M	'P1'
_symmetry_Int_Tables_number	1
_symmetry_cell_setting	triclinic
loop_
_symmetry_equiv_pos_as_xyz
  x,y,z
_cell_length_a	13.339070
_cell_length_b	10.654550
_cell_length_c	9.130313
_cell_angle_alpha	90.000276
_cell_angle_beta	89.997998
_cell_angle_gamma	79.942888
loop_
_atom_site_label
_atom_site_type_symbol
_atom_site_fract_x
_atom_site_fract_y
_atom_site_fract_z
O1	O	0.142435	-1.715933	-0.121681
O2	O	0.156005	-1.355037	-0.121708
O3	O	0.001665	-1.494066	-0.121693
O4	O	0.296774	-1.576904	-0.121696
O5	O	0.001661	-1.494051	0.121906
O6	O	0.156000	-1.355022	0.121891
O7	O	0.142430	-1.715918	0.121917
Cu8	Cu	0.149215	-1.535469	0.144147
Cu9	Cu	0.149220	-1.535486	-0.143937
O10	O	0.296769	-1.576889	0.121903
C11	C	0.155006	-1.307895	0.000088
C12	C	0.152025	-1.167445	0.000078
C13	C	-0.036124	-1.480065	0.000103
C14	C	-0.148719	-1.438355	0.000094
C15	C	0.143429	-1.763060	0.000118
C16	C	0.146410	-1.903510	0.000119
C17	C	-0.511236	-1.762670	0.000119
C18	C	-0.405448	-1.801862	0.000135
C19	C	-0.341261	-1.710989	0.000124
C20	C	-0.382871	-1.580916	0.000098
C21	C	-0.488669	-1.541720	0.000093
C22	C	-0.318694	-1.490039	0.000099
C23	C	-0.360304	-1.359966	0.000073
C24	C	-0.466092	-1.320776	0.000066
C25	C	-0.530280	-1.411650	0.000077
C26	C	-0.212896	-1.529235	0.000104
C27	C	-0.190329	-1.308285	0.000078
C28	C	-0.296117	-1.269093	0.000062
C29	C	0.334559	-1.590890	0.000103
C30	C	0.447153	-1.632600	0.000103
N31	N	0.149210	-1.535465	0.346770
C32	C	0.242897	-1.118643	0.000082
C33	C	0.240090	-0.986674	0.000107
C34	C	0.055530	-0.952320	0.000120
C35	C	0.058338	-1.084286	0.000105
N36	N	0.149216	-1.535497	-0.346560
C37	C	0.080898	-1.597066	0.423428
C38	C	0.080898	-1.597078	0.576765
C39	C	0.217532	-1.473888	0.576771
C40	C	0.217526	-1.473869	0.423437
H41	H	-0.179028	-1.635141	0.000126
H42	H	-0.255124	-1.742907	0.000138
F43	F	-0.361171	-1.940289	0.000139
H44	H	-0.563506	-1.836644	0.000139
F45	F	-0.038386	-1.136227	0.000111
F46	F	0.008187	-1.662619	0.341838
H47	H	0.273155	-1.423700	0.361018
F48	F	0.008189	-1.662639	0.658345
F49	F	-0.642874	-1.369943	-0.000079
F50	F	0.336810	-0.934742	0.000113
H51	H	-0.499968	-1.214863	0.000056
H52	H	-0.020746	-0.884597	0.000150
H53	H	-0.330011	-1.163185	0.000041
F54	F	0.290238	-1.408340	0.658377
H55	H	0.319183	-1.186348	0.000071
F56	F	-0.122021	-1.211564	0.000076
