data_functionalizedCrystal
_audit_creation_method	'MofGen! by Chris Wilmer'
_symmetry_space_group_name_H-M	'P1'
_symmetry_Int_Tables_number	1
_symmetry_cell_setting	triclinic
loop_
_symmetry_equiv_pos_as_xyz
  x,y,z
_cell_length_a	10.654541
_cell_length_b	15.500227
_cell_length_c	10.654545
_cell_angle_alpha	87.142000
_cell_angle_beta	84.484678
_cell_angle_gamma	92.870557
loop_
_atom_site_label
_atom_site_type_symbol
_atom_site_fract_x
_atom_site_fract_y
_atom_site_fract_z
O1	O	1.673633	0.071913	0.170607
O2	O	1.308155	0.071920	0.187416
O3	O	1.499296	0.071916	-0.003728
O4	O	1.482492	0.071917	0.361751
O5	O	1.487697	-0.071973	0.007826
O6	O	1.296556	-0.071969	0.198969
O7	O	1.662034	-0.071976	0.182160
Cu8	Cu	1.478236	-0.085110	0.191620
Cu9	Cu	1.491953	0.085054	0.177957
O10	O	1.470893	-0.071971	0.373304
C11	C	1.255557	-0.000023	0.191959
C12	C	1.116114	-0.000021	0.188268
N13	N	1.468597	-0.204795	0.201229
C14	C	1.088145	-0.000009	0.416831
C15	C	1.008652	0.000001	0.529374
C16	C	0.877634	0.000001	0.525898
C17	C	0.826108	-0.000010	0.409868
C18	C	0.905601	-0.000019	0.297326
C19	C	1.036620	-0.000017	0.300814
C20	C	0.933569	-0.000037	0.068766
C21	C	1.064588	-0.000032	0.072238
C22	C	0.882042	-0.000048	-0.047265
C23	C	0.961536	-0.000051	-0.159810
C24	C	1.092561	-0.000051	-0.156330
C25	C	1.144081	-0.000041	-0.040305
C26	C	1.549619	-0.250073	0.120265
C27	C	1.542340	-0.340646	0.127544
C28	C	1.454046	-0.385939	0.215794
C29	C	1.373015	-0.340654	0.296761
C30	C	1.380288	-0.250083	0.289475
C31	C	1.427845	-0.659405	0.242019
C32	C	1.420580	-0.749982	0.249302
C33	C	1.589905	-0.749968	0.080082
C34	C	1.597175	-0.659396	0.072809
C35	C	1.516140	-0.614119	0.153772
C36	C	1.446607	-0.478519	0.223239
C37	C	1.523574	-0.521541	0.146320
C38	C	1.714632	-0.000031	0.177617
C39	C	1.854076	-0.000028	0.181308
N40	N	1.501602	0.204739	0.168338
C41	C	1.492263	-0.000027	-0.044749
C42	C	1.488571	-0.000022	-0.184193
C43	C	1.501232	0.156850	-0.196797
C44	C	1.505832	0.235285	-0.268609
C45	C	1.502363	0.235286	-0.399628
C46	C	1.494289	0.156843	-0.458836
C47	C	1.489689	0.078408	-0.387024
C48	C	1.493162	0.078415	-0.256004
C49	C	1.477019	-0.078462	-0.374419
C50	C	1.480497	-0.078465	-0.243402
C51	C	1.468945	-0.156905	-0.433628
C52	C	1.464353	-0.235342	-0.361817
C53	C	1.467824	-0.235340	-0.230791
C54	C	1.475896	-0.156900	-0.171590
C55	C	1.477927	-0.000027	0.414325
C56	C	1.481619	-0.000026	0.553769
H57	H	1.194827	0.000010	0.419671
O58	O	0.800345	-0.000142	0.635197
C59	C	0.717692	-0.074649	0.645998
H60	H	0.760914	-0.126742	0.586389
H61	H	0.701813	-0.099655	0.749047
H62	H	0.623515	-0.057801	0.611294
O63	O	1.682585	-0.615169	-0.013025
C64	C	1.764904	-0.562469	0.050255
H65	H	1.766505	-0.589752	0.151412
H66	H	1.864136	-0.561065	-0.000743
H67	H	1.730640	-0.493976	0.051263
H68	H	1.506098	0.299155	-0.458096
O69	O	1.349080	-0.615565	0.320802
C70	C	1.269576	-0.674966	0.400234
H71	H	1.315901	-0.739519	0.407321
H72	H	1.253383	-0.648794	0.498253
H73	H	1.175155	-0.684620	0.359363
O74	O	0.754797	-0.000083	-0.050868
C75	C	0.726371	-0.000070	-0.177408
H76	H	0.807594	-0.027322	-0.237922
H77	H	0.636196	-0.041839	-0.183320
H78	H	0.712335	0.068960	-0.213305
O79	O	1.360786	-0.522616	0.308803
C80	C	1.278502	-0.575005	0.245028
H81	H	1.326578	-0.588562	0.148300
H82	H	1.253988	-0.638699	0.302376
H83	H	1.188406	-0.540118	0.232841
H84	H	1.157278	-0.000062	-0.247976
O85	O	1.465735	-0.157019	-0.560910
C86	C	1.569696	-0.200039	-0.614496
H87	H	1.604191	-0.245838	-0.539733
H88	H	1.539844	-0.238602	-0.696063
H89	H	1.649118	-0.150466	-0.651024
O90	O	1.456341	-0.311478	-0.419452
C91	C	1.345354	-0.316172	-0.481547
H92	H	1.314131	-0.248067	-0.502210
H93	H	1.364644	-0.349368	-0.574003
H94	H	1.267541	-0.354874	-0.418642
H95	H	1.621523	-0.213202	0.048408
O96	O	1.271370	0.000112	-0.037000
C97	C	1.328828	0.074615	-0.104548
H98	H	1.257279	0.126703	-0.108735
H99	H	1.412470	0.099632	-0.054989
H100	H	1.363197	0.057755	-0.204537
O101	O	1.058781	0.000164	0.642036
C102	C	1.139762	0.074674	0.644882
H103	H	1.112411	0.126756	0.574794
H104	H	1.130899	0.099694	0.743987
H105	H	1.241456	0.057823	0.618170
O106	O	0.698841	0.000137	0.406546
C107	C	0.653391	0.074647	0.462111
H108	H	0.733332	0.126738	0.457913
H109	H	0.573775	0.099654	0.408536
H110	H	0.616315	0.057801	0.564814
O111	O	1.463385	-0.311611	-0.161229
C112	C	1.455473	-0.380838	-0.241584
H113	H	1.494557	-0.357850	-0.341678
H114	H	1.512894	-0.435710	-0.206763
H115	H	1.352573	-0.404934	-0.241289
H116	H	1.504071	0.156857	-0.090117
H117	H	1.478729	-0.156891	-0.064909
O118	O	1.513531	0.311422	-0.210922
C119	C	1.407339	0.316149	-0.122243
H120	H	1.366137	0.248056	-0.092724
H121	H	1.436905	0.349331	-0.035762
H122	H	1.333106	0.354880	-0.166533
H123	H	1.491450	0.156851	-0.565518
H124	H	0.919572	-0.000060	-0.254273
H125	H	1.608314	-0.377511	0.061616
H126	H	1.655879	-0.786841	0.014165
H127	H	1.301117	-0.377536	0.368612
O128	O	1.334741	-0.794081	0.334860
C129	C	1.252472	-0.846475	0.271079
H130	H	1.300563	-0.860035	0.174358
H131	H	1.227955	-0.910168	0.328430
H132	H	1.162376	-0.811593	0.258874
H133	H	1.595460	-0.484661	0.074462
O134	O	1.301530	-0.206231	0.368258
C135	C	1.222018	-0.265626	0.447693
H136	H	1.268336	-0.330181	0.454786
H137	H	1.205826	-0.239450	0.545709
H138	H	1.127598	-0.275276	0.406820
