data_functionalizedCrystal
_audit_creation_method	'MofGen! by Chris Wilmer'
_symmetry_space_group_name_H-M	'P1'
_symmetry_Int_Tables_number	1
_symmetry_cell_setting	triclinic
loop_
_symmetry_equiv_pos_as_xyz
  x,y,z
_cell_length_a	8.597340
_cell_length_b	10.654555
_cell_length_c	7.088929
_cell_angle_alpha	83.718185
_cell_angle_beta	103.954719
_cell_angle_gamma	84.912411
loop_
_atom_site_label
_atom_site_type_symbol
_atom_site_fract_x
_atom_site_fract_y
_atom_site_fract_z
O1	O	2.103286	0.172467	0.187499
O2	O	1.638831	0.192967	0.110986
O3	O	1.881728	-0.000106	0.151001
O4	O	1.860389	0.365540	0.147484
O5	O	1.914188	-0.025967	0.474323
O6	O	1.671291	0.167106	0.434309
O7	O	2.135746	0.146606	0.510821
Cu8	Cu	1.906483	0.154495	0.502087
Cu9	Cu	1.868095	0.185078	0.119721
O10	O	1.892849	0.339680	0.470807
C11	C	1.595590	0.179276	0.262850
C12	C	1.418383	0.176993	0.233658
C13	C	1.896387	-0.059822	0.312399
C14	C	1.891687	-0.199226	0.311613
C15	C	1.918259	-0.489382	0.662671
C16	C	1.938153	-0.437982	0.839279
C17	C	1.942561	-0.306998	0.840006
C18	C	1.927068	-0.227409	0.664104
C19	C	1.907173	-0.278810	0.487495
C20	C	1.902772	-0.409798	0.486788
C21	C	1.871793	-0.250626	0.135004
C22	C	1.867396	-0.381611	0.134275
C23	C	1.856300	-0.171038	-0.040898
C24	C	1.836416	-0.222439	-0.217509
C25	C	1.832011	-0.353431	-0.218228
C26	C	1.847502	-0.433011	-0.042333
C27	C	2.178987	0.160298	0.358953
C28	C	2.356193	0.162581	0.388133
C29	C	1.878190	0.399395	0.309404
C30	C	1.882889	0.538801	0.310178
N31	N	1.933494	0.132984	0.771025
N32	N	1.841096	0.206580	-0.149215
H33	H	1.336048	0.187587	0.079054
H34	H	1.950762	-0.502796	0.982494
C35	C	1.467399	0.148265	0.596989
C36	C	1.476160	0.027341	0.741466
C37	C	1.587378	0.013025	0.950326
C38	C	1.689835	0.119632	1.014709
C39	C	1.681078	0.240564	0.870229
C40	C	1.569860	0.254881	0.661370
H41	H	1.400311	-0.051584	0.693808
H42	H	1.593860	-0.076498	1.057278
H43	H	1.772166	0.109034	1.169320
H44	H	1.756927	0.319489	0.917887
H45	H	1.563378	0.344403	0.554417
H46	H	1.843923	-0.539668	-0.042900
C47	C	1.711717	0.309609	0.719184
C48	C	1.689760	0.327677	0.495411
C49	C	1.560378	0.430708	0.363796
C50	C	1.452955	0.515671	0.455955
C51	C	1.474909	0.497605	0.679740
C52	C	1.604290	0.394574	0.811355
H53	H	1.769284	0.264780	0.427178
H54	H	1.544127	0.444081	0.198134
H55	H	1.357179	0.591941	0.358525
H56	H	1.395385	0.560502	0.747972
H57	H	1.620542	0.381201	0.977016
C58	C	1.964440	-0.250449	1.034271
C59	C	1.981474	-0.337979	1.227753
C60	C	2.003351	-0.281429	1.422017
C61	C	2.008194	-0.137350	1.422798
C62	C	1.991159	-0.049811	1.229308
C63	C	1.969282	-0.106361	1.035045
H64	H	1.977889	-0.444643	1.227182
H65	H	2.015961	-0.346232	1.565250
H66	H	2.024388	-0.095489	1.566603
H67	H	1.994744	0.056853	1.229880
H68	H	1.956672	-0.041558	0.891811
H69	H	1.914689	-0.596039	0.662100
H70	H	1.930639	-0.120755	0.664708
H71	H	1.859882	-0.064384	-0.040295
H72	H	1.823792	-0.157627	-0.360715
H73	H	1.815797	-0.395270	-0.362047
H74	H	2.029272	0.056721	0.868459
