data_functionalizedCrystal
_audit_creation_method	'MofGen! by Chris Wilmer'
_symmetry_space_group_name_H-M	'P1'
_symmetry_Int_Tables_number	1
_symmetry_cell_setting	triclinic
loop_
_symmetry_equiv_pos_as_xyz
  x,y,z
_cell_length_a	15.944551
_cell_length_b	15.944551
_cell_length_c	15.021413
_cell_angle_alpha	89.996935
_cell_angle_beta	89.997174
_cell_angle_gamma	96.501262
loop_
_atom_site_label
_atom_site_type_symbol
_atom_site_fract_x
_atom_site_fract_y
_atom_site_fract_z
O1	O	1.114529	-0.108321	-0.073941
O2	O	0.869979	-0.121677	-0.073964
O3	O	0.998932	0.007276	-0.073944
O4	O	0.985576	-0.237274	-0.073961
O5	O	0.998912	0.007257	0.074121
O6	O	0.869959	-0.121695	0.074101
O7	O	1.114508	-0.108339	0.074123
Zn8	Zn	0.992230	-0.115020	0.097620
Zn9	Zn	0.992257	-0.114996	-0.097461
O10	O	0.985555	-0.237292	0.074103
C11	C	0.838675	-0.121132	0.000066
C12	C	0.745429	-0.119470	0.000057
C13	C	0.530572	-0.035565	0.000081
C14	C	0.469562	-0.074518	-0.072926
C15	C	0.574703	-0.116462	0.000068
C16	C	0.469564	-0.074556	0.073054
C17	C	0.409790	-0.113551	0.000083
C18	C	0.514921	-0.155438	-0.072998
C19	C	0.514930	-0.155464	0.073047
C20	C	0.453937	-0.194476	0.000023
C21	C	0.669705	-0.118137	0.000059
C22	C	0.314789	-0.111883	0.000085
C23	C	0.998367	0.038561	0.000089
C24	C	0.996705	0.131807	0.000089
C25	C	1.145813	-0.108885	0.000092
C26	C	1.239059	-0.110547	0.000094
C27	C	0.986120	-0.268577	0.000069
C28	C	0.987782	-0.361823	0.000063
N29	N	0.992218	-0.115036	0.230758
C30	C	0.912801	0.346663	0.000069
C31	C	0.951753	0.407672	0.073077
C32	C	0.993698	0.302533	0.000082
C33	C	0.951792	0.407673	-0.072903
C34	C	0.990787	0.467445	0.000071
C35	C	1.032672	0.362313	0.073150
C36	C	1.032700	0.362308	-0.072895
C37	C	1.071711	0.423298	0.000131
C38	C	0.995372	0.207530	0.000089
C39	C	0.989119	0.562446	0.000070
N40	N	0.992276	-0.114973	-0.230598
C41	C	0.932581	-0.174636	0.470432
C42	C	1.008481	-0.190943	0.529772
C43	C	0.992239	-0.115015	0.412365
C44	C	0.916360	-0.098727	0.529766
C45	C	0.992253	-0.114997	0.587789
C46	C	1.068178	-0.131360	0.470398
C47	C	0.976006	-0.039111	0.470387
C48	C	1.051962	-0.055386	0.529701
C49	C	0.992230	-0.115028	0.311307
C50	C	0.992271	-0.114984	0.688844
H51	H	0.534918	-0.189621	-0.134787
O52	O	0.910792	0.431601	0.146638
C53	C	0.827049	0.392181	0.146385
H54	H	0.807564	0.373943	0.075341
H55	H	0.783222	0.437627	0.173958
H56	H	0.822642	0.333099	0.189650
H57	H	0.420779	-0.261683	-0.000023
H58	H	1.066851	0.342314	0.134941
O59	O	1.151836	0.462986	0.000119
C60	C	1.149419	0.551105	-0.000601
H61	H	1.086458	0.565911	-0.029030
H62	H	1.203112	0.582169	-0.043614
H63	H	1.156733	0.576490	0.070257
H64	H	0.845652	0.313356	0.000136
O65	O	1.073373	0.338316	-0.146614
C66	C	1.030524	0.361181	-0.223440
H67	H	0.962041	0.367944	-0.205956
H68	H	1.032584	0.310261	-0.276417
H69	H	1.062298	0.423824	-0.250073
O70	O	0.910859	0.431532	-0.146512
C71	C	0.827106	0.392137	-0.146227
H72	H	0.823074	0.332733	-0.103488
H73	H	0.806982	0.374435	-0.217226
H74	H	0.783538	0.437385	-0.117739
H75	H	0.563905	0.031573	-0.000005
O76	O	0.872545	-0.234940	0.439417
C77	C	0.889983	-0.314854	0.469696
H78	H	0.959967	-0.312487	0.486336
H79	H	0.873137	-0.363850	0.415425
H80	H	0.850946	-0.332844	0.531808
H81	H	0.535052	-0.189659	0.134767
H82	H	0.852184	-0.084959	0.555847
H83	H	0.449461	-0.040295	-0.134642
H84	H	1.132368	-0.145206	0.444430
H85	H	1.022224	-0.255126	0.555856
O86	O	1.112327	0.004688	0.560519
C87	C	1.192179	-0.012785	0.530086
H88	H	1.189780	-0.082789	0.513527
H89	H	1.241287	0.004127	0.584231
H90	H	1.210040	0.026178	0.467892
O91	O	0.959438	0.037399	0.439278
C92	C	0.879338	0.054325	0.469492
H93	H	0.839473	-0.007600	0.486178
H94	H	0.846755	0.088640	0.415165
H95	H	0.887016	0.095620	0.531563
H96	H	0.449470	-0.040332	0.134773
