data_functionalizedCrystal
_audit_creation_method	'MofGen! by Chris Wilmer'
_symmetry_space_group_name_H-M	'P1'
_symmetry_Int_Tables_number	1
_symmetry_cell_setting	triclinic
loop_
_symmetry_equiv_pos_as_xyz
  x,y,z
_cell_length_a	23.532407
_cell_length_b	16.109301
_cell_length_c	15.186229
_cell_angle_alpha	90.005167
_cell_angle_beta	90.001988
_cell_angle_gamma	96.844921
loop_
_atom_site_label
_atom_site_type_symbol
_atom_site_fract_x
_atom_site_fract_y
_atom_site_fract_z
O1	O	0.755631	-0.100924	-0.073122
O2	O	0.589822	-0.115528	-0.073148
O3	O	0.677281	0.012841	-0.073125
O4	O	0.668171	-0.229293	-0.073144
O5	O	0.677275	0.012843	0.073332
O6	O	0.589816	-0.115526	0.073310
O7	O	0.755625	-0.100923	0.073336
Zn8	Zn	0.672720	-0.108224	0.096576
Zn9	Zn	0.672727	-0.108226	-0.096388
O10	O	0.668165	-0.229291	0.073313
C11	C	0.568601	-0.115155	0.000078
C12	C	0.505380	-0.114037	0.000068
C13	C	0.676909	0.043814	0.000104
C14	C	0.675803	0.136100	0.000105
N15	N	0.672718	-0.108222	0.228269
C16	C	0.106531	-0.182990	0.000102
C17	C	0.047127	-0.181951	0.000108
O18	O	0.010619	-0.245872	0.000135
N19	N	0.024220	-0.105636	0.000112
C20	C	0.060719	-0.030355	0.000121
O21	O	0.035780	0.034652	0.000126
C22	C	0.120122	-0.031395	0.000121
C23	C	0.143027	-0.107715	0.000108
C24	C	0.129436	-0.259304	0.000090
C25	C	0.188836	-0.260342	0.000083
C26	C	0.225331	-0.185066	0.000088
C27	C	0.202427	-0.108753	0.000101
C28	C	0.156621	0.043886	0.000136
C29	C	0.216027	0.042840	0.000137
C30	C	0.238932	-0.033480	0.000124
C31	C	0.298322	-0.034516	0.000099
N32	N	0.321229	-0.110831	0.000094
C33	C	0.284734	-0.186106	0.000089
C34	C	-0.064031	-0.028178	0.000120
C35	C	-0.123433	-0.027138	0.000113
C36	C	-0.137021	-0.178734	0.000102
C37	C	-0.077618	-0.179774	0.000103
C38	C	-0.041123	-0.104493	0.000116
C39	C	0.409479	-0.188281	0.000073
C40	C	0.468885	-0.189312	0.000062
C41	C	0.482468	-0.037716	0.000078
C42	C	0.423067	-0.036684	0.000084
C43	C	0.386574	-0.111973	0.000085
O44	O	0.334865	0.029371	0.000076
O45	O	0.309682	-0.251102	0.000095
C46	C	0.776846	-0.101295	0.000108
C47	C	0.840067	-0.102414	0.000112
C48	C	0.668537	-0.260264	0.000082
C49	C	0.669644	-0.352551	0.000075
C50	C	0.725127	0.358760	0.000099
C51	C	0.724083	0.445473	0.000092
C52	C	0.620315	0.424782	0.000079
C53	C	0.621360	0.338072	0.000080
C54	C	0.673768	0.305063	0.000094
C55	C	0.671679	0.478486	0.000086
C56	C	0.670547	0.572503	0.000078
C57	C	0.674900	0.211040	0.000101
N58	N	0.672733	-0.108222	-0.228081
C59	C	0.711459	-0.051399	0.454002
C60	C	0.711461	-0.051397	0.546191
C61	C	0.633988	-0.165047	0.546180
C62	C	0.633984	-0.165044	0.453992
C63	C	0.672723	-0.108222	0.407905
C64	C	0.672729	-0.108222	0.592283
C65	C	0.672730	-0.108220	0.692239
C66	C	0.672720	-0.108222	0.307943
H67	H	0.379772	-0.249588	0.000076
C68	C	0.562670	0.461097	0.000071
C69	C	0.520009	0.440648	0.076117
C70	C	0.462363	0.476962	0.076112
C71	C	0.447379	0.533726	0.000061
C72	C	0.490041	0.554178	-0.075991
C73	C	0.547687	0.517864	-0.075986
H74	H	0.531100	0.398625	0.132419
H75	H	0.430781	0.461821	0.132410
H76	H	0.404706	0.560608	0.000057
H77	H	0.478950	0.596201	-0.132293
H78	H	0.579269	0.533005	-0.132284
C79	C	-0.023889	0.054638	0.000119
C80	C	0.018819	0.074787	0.076170
C81	C	0.058957	0.157602	0.076170
C82	C	0.056387	0.220268	0.000119
C83	C	0.013676	0.200121	-0.075937
C84	C	-0.026461	0.117306	-0.075937
H85	H	0.020723	0.028396	0.132473
H86	H	0.090574	0.172516	0.132473
H87	H	0.086099	0.281573	0.000119
H88	H	0.011772	0.246512	-0.132240
H89	H	-0.058078	0.102392	-0.132240
H90	H	0.137983	0.106033	0.000148
H91	H	0.767801	0.331888	0.000109
C92	C	0.564861	0.278997	0.000076
C93	C	0.551311	0.216543	0.076123
C94	C	0.494815	0.157468	0.076115
C95	C	0.451869	0.160846	0.000059
C96	C	0.465418	0.223302	-0.075994
C97	C	0.521914	0.282378	-0.075986
H98	H	0.583103	0.214040	0.132429
H99	H	0.484786	0.111234	0.132415
H100	H	0.410048	0.117115	0.000053
H101	H	0.433626	0.225806	-0.132300
H102	H	0.531943	0.328612	-0.132286
C103	C	-0.052426	-0.263726	0.000095
C104	C	-0.013459	-0.285293	0.076146
C105	C	0.011730	-0.369248	0.076140
C106	C	-0.002049	-0.431637	0.000083
C107	C	-0.041018	-0.410071	-0.075974
C108	C	-0.066207	-0.326116	-0.075968
H109	H	-0.003257	-0.239108	0.132453
H110	H	0.040577	-0.385212	0.132443
H111	H	0.016597	-0.493786	0.000079
H112	H	-0.051220	-0.456256	-0.132281
H113	H	-0.095054	-0.310152	-0.132270
H114	H	0.765906	0.489190	0.000093
C115	C	0.754072	0.011105	0.596898
C116	C	0.796686	0.073599	0.546202
C117	C	0.839299	0.136105	0.596910
C118	C	0.839298	0.136118	0.698313
C119	C	0.796683	0.073622	0.749014
C120	C	0.754070	0.011116	0.698307
H121	H	0.796688	0.073592	0.471133
H122	H	0.870846	0.182369	0.559376
H123	H	0.870843	0.182389	0.735849
H124	H	0.796681	0.073630	0.824084
H125	H	0.722523	-0.035148	0.735840
C126	C	0.256171	0.125652	0.000148
C127	C	0.253611	0.188324	0.076208
C128	C	0.293754	0.271135	0.076216
C129	C	0.336456	0.291273	0.000165
C130	C	0.339018	0.228600	-0.075901
C131	C	0.298876	0.145789	-0.075909
H132	H	0.221998	0.173418	0.132511
H133	H	0.291857	0.317530	0.132525
H134	H	0.366172	0.352575	0.000171
H135	H	0.370631	0.243506	-0.132204
H136	H	0.300773	0.099394	-0.132218
H137	H	0.743001	-0.005129	0.416480
H138	H	0.602449	-0.211312	0.583713
C139	C	0.591372	-0.227553	0.403278
C140	C	0.548782	-0.290088	0.453966
C141	C	0.506171	-0.352591	0.403251
C142	C	0.506150	-0.352559	0.301848
C143	C	0.548742	-0.290022	0.251154
C144	C	0.591353	-0.227519	0.301869
H145	H	0.548797	-0.290114	0.529036
H146	H	0.474642	-0.398885	0.440778
H147	H	0.474607	-0.398827	0.264305
H148	H	0.548728	-0.289996	0.176084
H149	H	0.622882	-0.181225	0.264342
C150	C	-0.177172	-0.261541	0.000105
C151	C	-0.219887	-0.281672	-0.075942
C152	C	-0.260039	-0.364474	-0.075940
C153	C	-0.257477	-0.427145	0.000108
C154	C	-0.214761	-0.407016	0.076161
C155	C	-0.174609	-0.324214	0.076159
H156	H	-0.221785	-0.235278	-0.132243
H157	H	-0.291660	-0.379374	-0.132239
H158	H	-0.287200	-0.488439	0.000110
H159	H	-0.212863	-0.453410	0.132462
H160	H	-0.142987	-0.309313	0.132458
H161	H	0.487530	-0.251464	0.000051
H162	H	0.207479	-0.322489	0.000071
H163	H	0.099727	-0.320606	0.000088
C164	C	0.522621	0.045083	0.000087
C165	C	0.565330	0.065199	0.076143
C166	C	0.605485	0.147998	0.076159
C167	C	0.602931	0.210681	0.000119
C168	C	0.560220	0.190566	-0.075942
C169	C	0.520065	0.107767	-0.075958
H170	H	0.567222	0.018796	0.132437
H171	H	0.637103	0.162888	0.132465
H172	H	0.632656	0.271973	0.000131
H173	H	0.558327	0.236969	-0.132236
H174	H	0.488447	0.092877	-0.132264
H175	H	-0.142076	0.035010	0.000110
H176	H	0.404418	0.025462	0.000083
