data_functionalizedCrystal
_audit_creation_method	'MofGen! by Chris Wilmer'
_symmetry_space_group_name_H-M	'P1'
_symmetry_Int_Tables_number	1
_symmetry_cell_setting	triclinic
loop_
_symmetry_equiv_pos_as_xyz
  x,y,z
_cell_length_a	12.645331
_cell_length_b	12.594516
_cell_length_c	12.645323
_cell_angle_alpha	89.976054
_cell_angle_beta	89.977324
_cell_angle_gamma	90.015032
loop_
_atom_site_label
_atom_site_type_symbol
_atom_site_fract_x
_atom_site_fract_y
_atom_site_fract_z
Zn1	Zn	1.620743	-0.423763	-0.599453
Zn2	Zn	1.620630	-0.601766	-0.422196
Zn3	Zn	1.443458	-0.423799	-0.422197
Zn4	Zn	1.443445	-0.601696	-0.599411
O5	O	1.532069	-0.512756	-0.510814
O6	O	1.769076	-0.447389	-0.575956
O7	O	1.597086	-0.578202	-0.273849
O8	O	1.467028	-0.274848	-0.445729
O9	O	1.768992	-0.578167	-0.445726
O10	O	1.597279	-0.274822	-0.575958
O11	O	1.466918	-0.447451	-0.273850
O12	O	1.295109	-0.447383	-0.445688
O13	O	1.467006	-0.578049	-0.747764
O14	O	1.295099	-0.578084	-0.575887
O15	O	1.597266	-0.447322	-0.747795
O16	O	1.597073	-0.750702	-0.445686
O17	O	1.466896	-0.750651	-0.575885
C18	C	1.256639	-0.512731	-0.510784
C19	C	1.138809	-0.512745	-0.510796
C20	C	0.971216	-0.430143	-0.429340
C21	C	1.093776	-0.430357	-0.428981
C22	C	1.094292	-0.624870	-0.480283
C23	C	0.971694	-0.624419	-0.479727
C24	C	0.971659	-0.484290	-0.623079
C25	C	1.094265	-0.481785	-0.622456
C26	C	1.532000	-0.789297	-0.510804
C27	C	1.532067	-0.907602	-0.510835
C28	C	1.461256	-0.976866	-0.581601
C29	C	1.435425	-1.047727	-0.484868
C30	C	1.557995	-1.047540	-0.607584
C31	C	1.506184	-0.976905	-0.414051
C32	C	1.628799	-0.976712	-0.536833
C33	C	1.603004	-1.047541	-0.440033
C34	C	1.808574	-0.512782	-0.510846
C35	C	1.926404	-0.512793	-0.510859
C36	C	1.532147	-0.512674	-0.787320
C37	C	1.532180	-0.512639	-0.905150
C38	C	1.532168	-0.235135	-0.510848
C39	C	1.532210	-0.116830	-0.510862
C40	C	1.449981	-0.594491	-1.072695
C41	C	1.450196	-0.594897	-0.950135
C42	C	1.643881	-0.543081	-0.949670
C43	C	1.643430	-0.543595	-1.072269
C44	C	1.503736	-0.399885	-1.072346
C45	C	1.501244	-0.400561	-0.949740
C46	C	1.532052	-0.512761	-0.235385
C47	C	1.532224	-0.512496	-0.117555
H48	H	0.941749	-0.346749	-0.448260
N49	N	1.132696	-0.551847	-0.702695
N50	N	1.229858	-0.559495	-0.719232
H51	H	1.256987	-0.609009	-0.775885
H52	H	1.469003	-0.678380	-0.920822
N53	N	1.332880	-1.086846	-0.457274
N54	N	1.259403	-1.023256	-0.438338
H55	H	1.186978	-1.050879	-0.418855
H56	H	1.123366	-0.399274	-0.645464
H57	H	1.667577	-0.625916	-1.100881
N58	N	0.932529	-0.453503	-0.325625
N59	N	0.995964	-0.474170	-0.252684
H60	H	0.968640	-0.490668	-0.179434
H61	H	1.423702	-0.372136	-1.103250
N62	N	0.935307	-0.559784	-0.699298
N63	N	0.962512	-0.551248	-0.793963
H64	H	0.936833	-0.604566	-0.847787
H65	H	1.710519	-0.945498	-0.558846
H66	H	1.419042	-0.377603	-0.920640
H67	H	1.468604	-0.677453	-1.103515
H68	H	1.579868	-1.078568	-0.689393
N69	N	1.722909	-0.471925	-1.109490
N70	N	1.778538	-0.421693	-1.044920
H71	H	1.834671	-0.371078	-1.071202
H72	H	0.942051	-0.688084	-0.536513
H73	H	1.556770	-0.336240	-0.919117
N74	N	1.678198	-1.086220	-0.364882
N75	N	1.668528	-1.063373	-0.269182
H76	H	1.721629	-1.090692	-0.216102
H77	H	1.367366	-0.575846	-0.920033
H78	H	1.123054	-0.449196	-0.345821
H79	H	1.484217	-0.946006	-0.332220
N80	N	1.345764	-0.570809	-1.109665
N81	N	1.330884	-0.493228	-1.169512
H82	H	1.257279	-0.476501	-1.195631
N83	N	1.578860	-0.323228	-1.108740
N84	N	1.570275	-0.228205	-1.081573
H85	H	1.623334	-0.174071	-1.107280
N86	N	1.722808	-0.470525	-0.913118
N87	N	1.697553	-0.395392	-0.853705
H88	H	1.753293	-0.344146	-0.827888
H89	H	1.668442	-0.624540	-0.918983
N90	N	1.131525	-0.326042	-0.452941
N91	N	1.067325	-0.252571	-0.470045
H92	H	1.093979	-0.178890	-0.486953
H93	H	1.401267	-0.945833	-0.641358
H94	H	0.943049	-0.648590	-0.397688
N95	N	1.130888	-0.704180	-0.552436
N96	N	1.190331	-0.678889	-0.627330
H97	H	1.216178	-0.734899	-0.678292
H98	H	0.940760	-0.403956	-0.650830
N99	N	1.132754	-0.655706	-0.378471
N100	N	1.192937	-0.595299	-0.328209
H101	H	1.220100	-0.617071	-0.256301
