data_functionalizedCrystal
_audit_creation_method	'MofGen! by Chris Wilmer'
_symmetry_space_group_name_H-M	'P1'
_symmetry_Int_Tables_number	1
_symmetry_cell_setting	triclinic
loop_
_symmetry_equiv_pos_as_xyz
  x,y,z
_cell_length_a	9.065215
_cell_length_b	17.038272
_cell_length_c	8.140239
_cell_angle_alpha	89.996147
_cell_angle_beta	89.997810
_cell_angle_gamma	88.063127
loop_
_atom_site_label
_atom_site_type_symbol
_atom_site_fract_x
_atom_site_fract_y
_atom_site_fract_z
O1	O	1.971909	0.114731	-0.136597
O2	O	1.543568	0.124145	-0.136604
O3	O	1.755193	0.005604	-0.136587
O4	O	1.760285	0.233272	-0.136613
O5	O	1.755180	0.005603	0.136640
O6	O	1.543556	0.124144	0.136623
O7	O	1.971897	0.114729	0.136631
Zn8	Zn	1.757724	0.119436	0.180007
Zn9	Zn	1.757741	0.119438	-0.179981
O10	O	1.760272	0.233270	0.136614
C11	C	1.488485	0.123240	0.000009
C12	C	1.324370	0.120536	0.000006
C13	C	1.750556	-0.023558	0.000026
C14	C	1.736740	-0.110451	0.000025
C15	C	1.863588	-0.159650	0.000029
C16	C	1.850597	-0.241294	0.000013
C17	C	1.710758	-0.273738	0.000005
C18	C	1.583900	-0.224532	-0.000004
C19	C	1.596892	-0.142890	0.000000
C20	C	1.664860	-0.519827	-0.000018
C21	C	1.651877	-0.601476	-0.000017
C22	C	1.918576	-0.618232	-0.000003
C23	C	1.931556	-0.536587	0.000011
C24	C	1.804698	-0.487389	-0.000007
C25	C	1.697476	-0.357191	-0.000006
C26	C	1.817981	-0.403937	-0.000008
C27	C	2.026980	0.115634	0.000014
C28	C	2.191095	0.118338	0.000006
C29	C	1.764909	0.262433	-0.000003
C30	C	1.778725	0.349325	-0.000013
N31	N	1.757724	0.119435	0.425690
N32	N	1.757752	0.119434	-0.425664
H33	H	1.977460	-0.133241	0.000046
H34	H	1.493598	-0.102832	-0.000003
H35	H	1.470039	-0.250954	-0.000021
H36	H	1.931838	-0.377518	-0.000037
O37	O	2.041948	-0.665910	0.000067
C38	C	2.168157	-0.619767	0.000026
H39	H	2.138322	-0.559116	0.051762
H40	H	2.210538	-0.613652	-0.131056
C41	C	2.325718	-0.734045	0.043622
C42	C	2.289077	-0.659554	0.107178
H43	H	2.400310	-0.758588	0.109711
H44	H	2.240689	-0.765133	0.043644
H45	H	2.361027	-0.728939	-0.065612
H46	H	2.253751	-0.664662	0.216402
H47	H	2.374102	-0.628467	0.107178
O48	O	1.973969	-0.288973	0.000101
C49	C	2.100179	-0.242830	0.000083
H50	H	2.070337	-0.182178	0.051810
H51	H	2.142582	-0.236718	-0.130991
C52	C	2.257730	-0.357109	0.043717
C53	C	2.221080	-0.282617	0.107261
H54	H	2.332311	-0.381651	0.109822
H55	H	2.172701	-0.388197	0.043723
H56	H	2.293057	-0.352005	-0.065511
H57	H	2.185737	-0.287722	0.216478
H58	H	2.306107	-0.251530	0.107276
O59	O	1.561720	-0.388803	-0.000218
C60	C	1.546224	-0.435504	-0.141749
H61	H	1.660058	-0.454999	-0.188934
H62	H	1.485414	-0.399904	-0.240830
C63	C	1.317856	-0.484332	-0.040812
C64	C	1.457670	-0.508282	-0.098758
H65	H	1.263226	-0.529223	-0.014298
H66	H	1.328292	-0.452866	0.054538
H67	H	1.267200	-0.454664	-0.123390
H68	H	1.508330	-0.537940	-0.016174
H69	H	1.447240	-0.539754	-0.194094
H70	H	2.045428	-0.510178	0.000017
H71	H	1.561562	-0.479779	-0.000032
H72	H	1.537997	-0.627888	0.000003
