data_functionalizedCrystal
_audit_creation_method	'MofGen! by Chris Wilmer'
_symmetry_space_group_name_H-M	'P1'
_symmetry_Int_Tables_number	1
_symmetry_cell_setting	triclinic
loop_
_symmetry_equiv_pos_as_xyz
  x,y,z
_cell_length_a	12.784890
_cell_length_b	23.532357
_cell_length_c	11.892095
_cell_angle_alpha	93.858312
_cell_angle_beta	86.513306
_cell_angle_gamma	77.967425
loop_
_atom_site_label
_atom_site_type_symbol
_atom_site_fract_x
_atom_site_fract_y
_atom_site_fract_z
O1	O	1.417116	-0.000413	-0.093968
O2	O	1.917116	0.499587	0.406032
O3	O	1.107396	0.023990	-0.093983
O4	O	1.607396	0.523990	0.406017
O5	O	1.271622	-0.071580	-0.093952
O6	O	1.771622	0.428420	0.406048
O7	O	1.252891	0.095157	-0.093999
O8	O	1.752891	0.595157	0.406001
O9	O	1.257929	-0.063623	0.094053
O10	O	1.757929	0.436377	0.594053
O11	O	1.093703	0.031947	0.094022
O12	O	1.593703	0.531947	0.594022
O13	O	1.403424	0.007544	0.094037
O14	O	1.903424	0.507544	0.594037
Zn15	Zn	1.246389	0.021009	0.123879
Zn16	Zn	1.746389	0.521009	0.623879
Zn17	Zn	1.264430	0.010525	-0.123825
Zn18	Zn	1.764430	0.510525	0.376175
O19	O	1.239198	0.103114	0.094006
O20	O	1.739198	0.603114	0.594006
C21	C	1.060933	0.029556	0.000018
C22	C	1.560933	0.529556	0.500018
C23	C	0.942888	0.034279	0.000014
C24	C	1.442888	0.534279	0.500014
C25	C	0.763268	0.093466	-0.000005
C26	C	1.263268	0.593466	0.499995
C27	C	0.874181	0.089032	-0.000004
C28	C	1.374181	0.589032	0.499996
C29	C	0.900675	-0.016045	0.000026
C30	C	1.400675	0.483955	0.500026
C31	C	0.789761	-0.011612	0.000025
C32	C	1.289761	0.488388	0.500025
C33	C	0.721061	0.043146	0.000011
C34	C	1.221061	0.543146	0.500011
C35	C	0.610146	0.047579	0.000018
C36	C	1.110146	0.547579	0.500018
C37	C	0.636642	-0.057498	0.000039
C38	C	1.136642	0.442502	0.500039
C39	C	0.747555	-0.061932	0.000040
C40	C	1.247555	0.438068	0.500040
C41	C	1.264307	-0.088796	0.000054
C42	C	1.764307	0.411204	0.500054
C43	C	1.262897	-0.151948	0.000065
C44	C	1.762897	0.348052	0.500065
C45	C	1.261520	-0.547889	-0.102478
C46	C	1.761520	-0.047889	0.397522
C47	C	1.260181	-0.607226	-0.102485
C48	C	1.760181	-0.107226	0.397515
O49	O	1.265801	-0.641597	-0.189641
O50	O	1.765801	-0.141597	0.310359
N51	N	1.252054	-0.632569	-0.000005
N52	N	1.752054	-0.132569	0.499995
C53	C	1.245253	-0.598570	0.102488
C54	C	1.745253	-0.098570	0.602488
O55	O	1.238216	-0.625574	0.189655
O56	O	1.738216	-0.125574	0.689655
C57	C	1.246584	-0.539232	0.102494
C58	C	1.746584	-0.039232	0.602494
C59	C	1.254724	-0.513894	0.000007
C60	C	1.754724	-0.013894	0.500007
C61	C	1.269658	-0.522550	-0.204957
C62	C	1.769658	-0.022550	0.295043
C63	C	1.270998	-0.463217	-0.204950
C64	C	1.770998	0.036783	0.295050
C65	C	1.264202	-0.429222	-0.102464
C66	C	1.764202	0.070778	0.397536
C67	C	1.256064	-0.454561	0.000014
C68	C	1.756064	0.045439	0.500014
C69	C	1.239777	-0.505233	0.204986
C70	C	1.739777	-0.005233	0.704986
C71	C	1.241108	-0.445892	0.204982
C72	C	1.741108	0.054108	0.704982
C73	C	1.249247	-0.420554	0.102496
C74	C	1.749247	0.079446	0.602496
C75	C	1.250608	-0.361234	0.102506
C76	C	1.750608	0.138766	0.602506
N77	N	1.258736	-0.335891	0.000026
N78	N	1.758736	0.164109	0.500026
C79	C	1.265533	-0.369885	-0.102459
C80	C	1.765533	0.130115	0.397541
C81	C	1.242456	-0.723182	0.102469
C82	C	1.742456	-0.223182	0.602469
C83	C	1.241132	-0.782519	0.102465
C84	C	1.741132	-0.282519	0.602465
C85	C	1.256059	-0.791171	-0.102508
C86	C	1.756059	-0.291171	0.397492
C87	C	1.257390	-0.731834	-0.102503
C88	C	1.757390	-0.231834	0.397497
C89	C	1.250584	-0.697839	-0.000011
C90	C	1.750584	-0.197839	0.499989
C91	C	1.268349	-0.245281	-0.102437
C92	C	1.768349	0.254719	0.397563
C93	C	1.269694	-0.185943	-0.102421
C94	C	1.769694	0.314057	0.397579
C95	C	1.254762	-0.177295	0.102552
C96	C	1.754762	0.322705	0.602552
C97	C	1.253423	-0.236629	0.102537
C98	C	1.753423	0.263371	0.602537
C99	C	1.260213	-0.270620	0.000033
C100	C	1.760213	0.229380	0.500033
O101	O	1.244989	-0.326826	0.189618
O102	O	1.744989	0.173174	0.689618
O103	O	1.272555	-0.342871	-0.189611
O104	O	1.772555	0.157129	0.310389
C105	C	1.449887	0.001978	0.000033
C106	C	1.949887	0.501978	0.500033
C107	C	1.567933	-0.002745	0.000030
C108	C	2.067933	0.497255	0.500030
C109	C	1.246513	0.120330	-0.000003
C110	C	1.746513	0.620330	0.499997
C111	C	1.247923	0.183482	-0.000021
C112	C	1.747923	0.683482	0.499979
N113	N	1.234085	0.028163	0.292931
N114	N	1.734085	0.528163	0.792931
N115	N	1.276743	0.003366	-0.292877
N116	N	1.776743	0.503366	0.207123
C117	C	1.362364	-0.046450	0.529603
C118	C	1.862364	0.453550	1.029603
C119	C	1.353771	-0.041445	0.647943
C120	C	1.853771	0.458555	1.147943
C121	C	1.208301	0.043174	0.647954
C122	C	1.708301	0.543174	1.147954
C123	C	1.216894	0.038170	0.529614
C124	C	1.716894	0.538170	1.029614
C125	C	1.293929	-0.006643	0.470442
C126	C	1.793929	0.493357	0.970442
C127	C	1.302527	-0.011645	0.352100
C128	C	1.802527	0.488355	0.852100
C129	C	1.157053	0.072971	0.352113
C130	C	1.657053	0.572971	0.852113
C131	C	1.148459	0.077976	0.470453
C132	C	1.648459	0.577976	0.970453
H133	H	0.602273	-0.098476	-0.000038
H134	H	1.102273	0.401524	0.499962
H135	H	1.101331	0.105386	0.303931
H136	H	1.601331	0.605386	0.803931
C137	C	1.429047	-0.085230	0.713022
C138	C	1.929047	0.414770	1.213022
H139	H	1.412893	-0.075836	0.791976
H140	H	1.912893	0.424164	1.291976
H141	H	1.501362	-0.083360	0.693612
H142	H	2.001362	0.416640	1.193612
H143	H	1.419310	-0.123512	0.693638
H144	H	1.919310	0.376488	1.193638
H145	H	1.246805	-0.257261	0.185990
H146	H	1.746805	0.242739	0.685990
H147	H	1.085736	0.114461	0.518644
H148	H	1.585736	0.614461	1.018644
C149	C	0.534578	0.107808	-0.000007
C150	C	1.034578	0.607808	0.499993
H151	H	0.575606	0.137141	-0.000030
H152	H	1.075606	0.637141	0.499970
H153	H	0.485982	0.114502	0.065550
H154	H	0.985982	0.614502	0.565550
H155	H	0.495540	0.108943	-0.065581
H156	H	0.995540	0.608943	0.434419
H157	H	1.145574	0.079656	0.696146
H158	H	1.645574	0.579656	1.196146
C159	C	1.387264	-0.060932	0.287007
C160	C	1.887264	0.439068	0.787007
H161	H	1.382592	-0.058209	0.208054
H162	H	1.882592	0.441791	0.708054
H163	H	1.374726	-0.097575	0.306409
H164	H	1.874726	0.402425	0.806409
H165	H	1.456762	-0.057413	0.306392
H166	H	1.956762	0.442587	0.806392
C167	C	1.447100	-0.095738	0.464511
C168	C	1.947100	0.404262	0.964511
H169	H	1.486626	-0.118731	0.516695
H170	H	1.986626	0.381269	1.016695
H171	H	1.494492	-0.079371	0.418331
H172	H	1.994492	0.420629	0.918331
H173	H	1.412450	-0.119530	0.418363
H174	H	1.912450	0.380470	0.918363
H175	H	0.908540	0.130008	-0.000014
H176	H	1.408540	0.630008	0.499986
H177	H	0.707330	0.138052	-0.000002
H178	H	1.207330	0.638052	0.499998
H179	H	0.956629	-0.060626	0.000028
H180	H	1.456629	0.439374	0.500028
C181	C	1.278641	-0.158073	-0.215160
C182	C	1.778641	0.341927	0.284840
H183	H	1.282484	-0.186819	-0.276195
H184	H	1.782484	0.313181	0.223805
H185	H	1.341496	-0.142525	-0.219422
H186	H	1.841496	0.357475	0.280578
H187	H	1.217440	-0.127687	-0.219422
H188	H	1.717440	0.372313	0.280578
H189	H	0.803505	-0.106514	0.000048
H190	H	1.303505	0.393486	0.500048
C191	C	1.230812	-0.533091	0.317723
C192	C	1.730812	-0.033091	0.817723
H193	H	1.226941	-0.504338	0.378750
H194	H	1.726941	-0.004338	0.878750
H195	H	1.291999	-0.563477	0.322008
H196	H	1.791999	-0.063477	0.822008
H197	H	1.167945	-0.548636	0.321975
H198	H	1.667945	-0.048636	0.821975
H199	H	1.273874	-0.272950	-0.185905
H200	H	1.773874	0.227050	0.314095
C201	C	1.279946	-0.435349	-0.317683
C202	C	1.779946	0.064651	0.182317
H203	H	1.279778	-0.395141	-0.303017
H204	H	1.779778	0.104859	0.196983
H205	H	1.220771	-0.439437	-0.359796
H206	H	1.720771	0.060563	0.140204
H207	H	1.344826	-0.454274	-0.359783
H208	H	1.844826	0.045726	0.140217
C209	C	1.277146	-0.559936	-0.317701
C210	C	1.777146	-0.059936	0.182299
H211	H	1.282191	-0.536340	-0.378722
H212	H	1.782191	-0.036340	0.121278
H213	H	1.214920	-0.575852	-0.321989
H214	H	1.714920	-0.075852	0.178011
H215	H	1.338974	-0.590677	-0.321959
H216	H	1.838974	-0.090677	0.178041
H217	H	1.264016	-0.711207	-0.185957
H218	H	1.764016	-0.211207	0.314043
C219	C	1.233622	-0.408499	0.317724
C220	C	1.733622	0.091501	0.817724
H221	H	1.235575	-0.369529	0.303058
H222	H	1.735575	0.130471	0.803058
H223	H	1.292355	-0.423865	0.359841
H224	H	1.792355	0.076135	0.859841
H225	H	1.168301	-0.409028	0.359819
H226	H	1.668301	0.090972	0.859819
C227	C	1.263523	-0.828571	-0.215242
C228	C	1.763523	-0.328571	0.284758
H229	H	1.261551	-0.867536	-0.200559
H230	H	1.761551	-0.367536	0.299441
H231	H	1.328829	-0.828047	-0.257357
H232	H	1.828829	-0.328047	0.242643
H233	H	1.204773	-0.813207	-0.257347
H234	H	1.704773	-0.313207	0.242653
C235	C	1.232189	-0.810386	0.215200
C236	C	1.732189	-0.310386	0.715200
H237	H	1.228326	-0.781636	0.276232
H238	H	1.728326	-0.281636	0.776232
H239	H	1.293377	-0.840773	0.219471
H240	H	1.793377	-0.340773	0.719471
H241	H	1.169322	-0.825930	0.219457
H242	H	1.669322	-0.325930	0.719457
H243	H	1.249233	-0.149607	0.185993
H244	H	1.749233	0.350393	0.685993
C245	C	1.234989	-0.685795	0.215218
C246	C	1.734989	-0.185795	0.715218
H247	H	1.229968	-0.709392	0.276243
H248	H	1.729968	-0.209392	0.776243
H249	H	1.173177	-0.655049	0.219491
H250	H	1.673177	-0.155049	0.719491
H251	H	1.297233	-0.669888	0.219485
H252	H	1.797233	-0.169888	0.719485
