data_functionalizedCrystal
_audit_creation_method	'MofGen! by Chris Wilmer'
_symmetry_space_group_name_H-M	'P1'
_symmetry_Int_Tables_number	1
_symmetry_cell_setting	triclinic
loop_
_symmetry_equiv_pos_as_xyz
  x,y,z
_cell_length_a	19.121102
_cell_length_b	19.121449
_cell_length_c	18.215399
_cell_angle_alpha	92.467880
_cell_angle_beta	92.458396
_cell_angle_gamma	85.039789
loop_
_atom_site_label
_atom_site_type_symbol
_atom_site_fract_x
_atom_site_fract_y
_atom_site_fract_z
Zn1	Zn	1.087630	-0.326089	0.450102
Zn2	Zn	1.587630	0.173911	0.950102
Zn3	Zn	1.092558	-0.443752	0.321999
Zn4	Zn	1.592558	0.056248	0.821999
Zn5	Zn	0.969965	-0.321083	0.322020
Zn6	Zn	1.469965	0.178917	0.822020
Zn7	Zn	0.974946	-0.438687	0.440000
Zn8	Zn	1.474946	0.061313	0.940000
O9	O	1.031275	-0.382403	0.383530
O10	O	1.531275	0.117597	0.883530
O11	O	1.186747	-0.345912	0.437328
O12	O	1.686747	0.154088	0.937328
O13	O	1.076274	-0.427505	0.219016
O14	O	1.576274	0.072495	0.719016
O15	O	0.981426	-0.223287	0.343247
O16	O	1.481426	0.276713	0.843247
O17	O	1.190369	-0.432359	0.343211
O18	O	1.690369	0.067641	0.843211
O19	O	1.067874	-0.226965	0.437348
O20	O	1.567874	0.273035	0.937348
O21	O	0.986205	-0.337381	0.219031
O22	O	1.486205	0.162619	0.719031
O23	O	0.872162	-0.332469	0.333452
O24	O	1.372162	0.167531	0.833452
O25	O	0.989916	-0.423726	0.544327
O26	O	1.489916	0.076274	1.044327
O27	O	0.875821	-0.418872	0.420131
O28	O	1.375821	0.081128	0.920131
O29	O	1.072704	-0.341000	0.551748
O30	O	1.572704	0.159000	1.051748
O31	O	1.081104	-0.541541	0.333416
O32	O	1.581104	-0.041541	0.833416
O33	O	0.994695	-0.537819	0.420110
O34	O	1.494695	-0.037819	0.920110
C35	C	0.848461	-0.374578	0.375698
C36	C	1.348461	0.125422	0.875698
C37	C	0.770253	-0.371248	0.372364
C38	C	1.270253	0.128752	0.872364
C39	C	0.735437	-0.414736	0.415850
C40	C	1.235437	0.085264	0.915850
C41	C	0.661952	-0.411598	0.412721
C42	C	1.161952	0.088402	0.912721
C43	C	0.623284	-0.364973	0.366101
C44	C	1.123284	0.135027	0.866101
C45	C	0.658105	-0.321480	0.322614
C46	C	1.158105	0.178520	0.822614
C47	C	0.731589	-0.324616	0.325747
C48	C	1.231589	0.175384	0.825747
C49	C	0.401315	-0.353249	0.354391
C50	C	0.901315	0.146751	0.854391
C51	C	0.327827	-0.350118	0.351259
C52	C	0.827827	0.149882	0.851259
C53	C	0.331679	-0.440235	0.441368
C54	C	0.831679	0.059765	0.941368
C55	C	0.405164	-0.443369	0.444493
C56	C	0.905164	0.056631	0.944493
C57	C	0.439978	-0.399873	0.401009
C58	C	0.939978	0.100127	0.901009
C59	C	0.548171	-0.361766	0.362900
C60	C	1.048171	0.138234	0.862900
C61	C	0.515090	-0.403078	0.404214
C62	C	1.015090	0.096922	0.904214
C63	C	1.038994	-0.565210	0.375682
C64	C	1.538994	-0.065210	0.875682
C65	C	1.042361	-0.643419	0.372351
C66	C	1.542361	-0.143419	0.872351
C67	C	0.998923	-0.678248	0.415883
C68	C	1.498923	-0.178248	0.915883
C69	C	1.002089	-0.751733	0.412751
C70	C	1.502089	-0.251733	0.912751
C71	C	1.048698	-0.790388	0.366090
C72	C	1.548698	-0.290388	0.866090
C73	C	1.092137	-0.755554	0.322553
C74	C	1.592137	-0.255554	0.822553
C75	C	1.088967	-0.682070	0.325682
C76	C	1.588967	-0.182070	0.825682
C77	C	1.060519	-1.012359	0.354384
C78	C	1.560519	-0.512359	0.854384
C79	C	1.063688	-1.085848	0.351260
C80	C	1.563688	-0.585848	0.851260
C81	C	0.973639	-1.082022	0.441457
C82	C	1.473639	-0.582022	0.941457
C83	C	0.970476	-1.008537	0.444585
C84	C	1.470476	-0.508537	0.944585
C85	C	1.013913	-0.973709	0.401045
C86	C	1.513913	-0.473709	0.901045
C87	C	1.051937	-0.865502	0.362889
C88	C	1.551937	-0.365502	0.862889
C89	C	1.010669	-0.898596	0.404243
C90	C	1.510669	-0.398596	0.904243
C91	C	1.214803	-0.390259	0.391394
C92	C	1.714803	0.109741	0.891394
C93	C	1.293011	-0.393607	0.394745
C94	C	1.793011	0.106393	0.894745
C95	C	1.031316	-0.382356	0.575487
C96	C	1.531316	0.117644	1.075487
C97	C	1.031333	-0.382336	0.657288
C98	C	1.531333	0.117664	1.157288
C99	C	1.023545	-0.198883	0.391427
C100	C	1.523545	0.301117	0.891427
C101	C	1.020250	-0.120677	0.394792
C102	C	1.520250	0.379323	0.894792
C103	C	1.031272	-0.382400	0.192324
C104	C	1.531272	0.117600	0.692324
C105	C	1.031383	-0.382228	0.110538
C106	C	1.531383	0.117772	0.610538
C107	C	1.074455	-0.339220	0.849350
C108	C	1.574455	0.160780	1.349350
C109	C	1.074463	-0.339200	0.926210
C110	C	1.574463	0.160800	1.426210
C111	C	0.988256	-0.425346	0.918470
C112	C	1.488256	0.074654	1.418470
C113	C	0.988245	-0.425362	0.841612
C114	C	1.488245	0.074638	1.341612
C115	C	1.031349	-0.382300	0.807054
C116	C	1.531349	0.117700	1.307054
C117	C	1.031367	-0.382264	0.960772
C118	C	1.531367	0.117736	1.460772
C119	C	1.031375	-0.382243	1.044107
C120	C	1.531375	0.117757	1.544107
C121	C	1.031340	-0.382321	0.723714
C122	C	1.531340	0.117679	1.223714
H123	H	0.303326	-0.475646	0.476771
H124	H	0.803326	0.024354	0.976771
F125	F	1.120328	-0.293388	0.812574
F126	F	1.620328	0.206612	1.312574
F127	F	0.920871	-0.967403	0.494251
F128	F	1.420871	-0.467403	0.994251
F129	F	0.942360	-0.471213	0.796594
F130	F	1.442360	0.028787	1.296594
H131	H	0.766916	-0.452705	0.453809
H132	H	1.266916	0.047295	0.953809
H133	H	0.953164	-0.460407	0.946617
H134	H	1.453164	0.039593	1.446617
H135	H	0.633609	-0.447011	0.448131
H136	H	1.133609	0.052989	0.948131
H137	H	1.109563	-0.304118	0.960645
H138	H	1.609563	0.195882	1.460645
F139	F	1.106758	-0.975302	0.308054
F140	F	1.606758	-0.475302	0.808054
F141	F	1.135196	-0.645003	0.279345
F142	F	1.635196	-0.145003	0.779345
F143	F	0.446312	-0.492995	0.494110
F144	F	0.946312	0.007005	0.994110
H145	H	0.429652	-0.317837	0.318977
H146	H	0.929652	0.182163	0.818977
F147	F	0.616950	-0.271855	0.273003
F148	F	1.116950	0.228145	0.773003
F149	F	0.286675	-0.300496	0.301634
F150	F	0.786675	0.199504	0.801634
F151	F	0.768641	-0.278328	0.279465
F152	F	1.268641	0.221672	0.779465
H153	H	0.546576	-0.441036	0.442174
H154	H	1.046576	0.058964	0.942174
F155	F	1.113297	-1.126986	0.301594
F156	F	1.613297	-0.626986	0.801594
F157	F	0.927413	-1.119094	0.487791
F158	F	1.427413	-0.619094	0.987791
H159	H	0.960973	-0.646780	0.453883
H160	H	1.460973	-0.146780	0.953883
F161	F	0.955863	-0.788798	0.459091
F162	F	1.455863	-0.288798	0.959091
H163	H	1.130083	-0.787033	0.284557
H164	H	1.630083	-0.287033	0.784557
F165	F	0.507011	-0.312146	0.313286
F166	F	1.007011	0.187854	0.813286
H167	H	1.089886	-0.896983	0.324898
H168	H	1.589886	-0.396983	0.824898
F169	F	0.961065	-0.857455	0.453899
F170	F	1.461065	-0.357455	0.953899
