data_functionalizedCrystal
_audit_creation_method	'MofGen! by Chris Wilmer'
_symmetry_space_group_name_H-M	'P1'
_symmetry_Int_Tables_number	1
_symmetry_cell_setting	triclinic
loop_
_symmetry_equiv_pos_as_xyz
  x,y,z
_cell_length_a	10.489741
_cell_length_b	16.098524
_cell_length_c	10.489741
_cell_angle_alpha	86.960832
_cell_angle_beta	95.460826
_cell_angle_gamma	93.036829
loop_
_atom_site_label
_atom_site_type_symbol
_atom_site_fract_x
_atom_site_fract_y
_atom_site_fract_z
O1	O	1.699188	0.069205	-0.185102
O2	O	1.327994	0.069218	-0.201996
O3	O	1.522037	0.069206	-0.007951
O4	O	1.505145	0.069216	-0.379147
O5	O	1.511743	-0.069308	0.002331
O6	O	1.317700	-0.069296	-0.191714
O7	O	1.688894	-0.069309	-0.174820
Zn8	Zn	1.501662	-0.091294	-0.181634
Zn9	Zn	1.515226	0.091203	-0.195181
O10	O	1.494851	-0.069297	-0.368865
C11	C	1.275315	-0.000038	-0.195579
C12	C	1.133686	-0.000033	-0.191762
N13	N	1.492415	-0.215844	-0.172388
C14	C	1.065545	-0.000044	-0.068297
C15	C	0.978494	0.068250	-0.131690
C16	C	0.968379	-0.068313	-0.121582
C17	C	1.048504	0.068318	-0.255210
C18	C	1.038394	-0.068307	-0.245081
C19	C	0.951371	0.000004	-0.308565
C20	C	1.567252	-0.259426	-0.247278
C21	C	1.560800	-0.346615	-0.240801
C22	C	1.479504	-0.390221	-0.159441
C23	C	1.404665	-0.346632	-0.084543
C24	C	1.411124	-0.259445	-0.091013
C25	C	1.456102	-0.653472	-0.135990
C26	C	1.449646	-0.740665	-0.129528
C27	C	1.605784	-0.740642	-0.285785
C28	C	1.612230	-0.653453	-0.292255
C29	C	1.537396	-0.609872	-0.217351
C30	C	1.472905	-0.479342	-0.152822
C31	C	1.544003	-0.520752	-0.223964
C32	C	1.741573	-0.000052	-0.181237
C33	C	1.883203	-0.000051	-0.185054
C34	C	1.515614	-0.000050	0.044722
C35	C	1.511797	-0.000049	0.186351
N36	N	1.524483	0.215753	-0.204418
C37	C	1.501274	-0.000039	-0.421538
C38	C	1.505091	-0.000035	-0.563168
C39	C	1.388333	-0.000038	0.254491
C40	C	1.441581	-0.068335	0.351683
C41	C	1.451760	0.068229	0.341520
C42	C	1.565092	-0.068401	0.281682
C43	C	1.575257	0.068223	0.271506
C44	C	1.628594	-0.000090	0.368672
H45	H	1.115241	0.000039	0.033193
H46	H	1.610198	-0.485245	-0.290203
H47	H	1.065149	-0.126045	-0.292992
H48	H	1.385049	-0.126071	0.386980
O49	O	0.926129	-0.137222	-0.054301
C50	C	0.790839	-0.262962	-0.058108
C51	C	0.838550	-0.184955	-0.134454
H52	H	0.720044	-0.301585	-0.122886
H53	H	0.741385	-0.243311	0.026901
H54	H	0.875852	-0.301772	-0.021831
H55	H	0.753607	-0.146110	-0.170818
H56	H	0.888045	-0.204663	-0.219398
H57	H	1.633444	-0.223928	-0.313538
O58	O	1.633535	-0.388821	-0.313685
C59	C	1.789125	-0.379597	-0.469312
C60	C	1.706798	-0.331696	-0.386859
H61	H	1.848399	-0.333432	-0.528474
H62	H	1.724064	-0.420395	-0.536201
H63	H	1.855929	-0.420436	-0.404221
H64	H	1.639984	-0.290812	-0.451851
H65	H	1.771935	-0.290950	-0.319959
O66	O	1.691318	-0.611226	-0.371307
C67	C	1.845454	-0.620407	-0.525660
C68	C	1.755968	-0.668332	-0.436162
H69	H	1.897727	-0.666556	-0.578138
H70	H	1.918434	-0.579609	-0.466693
H71	H	1.786371	-0.579565	-0.598476
H72	H	1.814945	-0.709219	-0.363329
H73	H	1.682985	-0.709077	-0.495213
H74	H	1.666711	-0.776135	-0.346766
H75	H	1.403795	0.125973	0.368198
O76	O	1.370647	-0.782894	-0.050375
C77	C	1.216412	-0.773714	0.103879
C78	C	1.305842	-0.725788	0.014325
H79	H	1.163973	-0.727565	0.156192
H80	H	1.275426	-0.814513	0.176822
H81	H	1.143560	-0.814555	0.044841
H82	H	1.378710	-0.684903	0.073256
H83	H	1.246744	-0.685043	-0.058622
H84	H	1.338478	-0.382143	-0.018291
H85	H	1.350184	-0.223961	-0.030030
O86	O	0.946758	0.137216	-0.074614
C87	C	0.953312	0.287186	-0.079229
C88	C	0.989342	0.209156	-0.143990
H89	H	0.987702	0.345369	-0.135307
H90	H	1.000705	0.287163	0.023190
H91	H	0.844761	0.286788	-0.077672
H92	H	1.097874	0.209502	-0.145641
H93	H	0.941858	0.209208	-0.246373
H94	H	1.395167	-0.617999	-0.074997
O95	O	1.267196	-0.000259	0.195322
C96	C	1.059936	-0.072483	0.169104
C97	C	1.197085	-0.072343	0.236179
H98	H	1.003204	-0.130749	0.202131
H99	H	1.063942	-0.071943	0.060834
H100	H	1.011102	-0.014820	0.194756
H101	H	1.245999	-0.129997	0.210630
H102	H	1.192990	-0.072840	0.344432
H103	H	1.406713	-0.514855	-0.086579
H104	H	1.612991	-0.126205	0.255141
O105	O	1.749808	-0.000283	0.427603
C106	C	1.946440	-0.072439	0.464036
C107	C	1.809186	-0.072329	0.397244
H108	H	1.994497	-0.130673	0.439493
H109	H	1.942762	-0.071939	0.572261
H110	H	2.003708	-0.014744	0.429727
H111	H	1.751840	-0.130014	0.431447
H112	H	1.812960	-0.072785	0.289028
O113	O	1.090618	0.137255	-0.322513
C114	C	1.272176	0.214575	-0.401688
C115	C	1.224656	0.136481	-0.325420
H116	H	1.380547	0.213967	-0.404086
H117	H	1.247150	0.272732	-0.353728
H118	H	1.223984	0.214813	-0.503803
H119	H	1.272822	0.136163	-0.223297
H120	H	1.249663	0.078359	-0.373482
O121	O	1.642479	0.137125	0.229167
C122	C	1.639167	0.262027	0.091969
C123	C	1.562914	0.184011	0.139792
H124	H	1.574863	0.299965	0.019721
H125	H	1.725251	0.242396	0.044186
H126	H	1.673824	0.301507	0.176681
H127	H	1.528169	0.144497	0.055150
H128	H	1.476893	0.203700	0.187616
O129	O	0.892469	0.000195	-0.429808
C130	C	0.866754	0.072349	-0.637160
C131	C	0.933528	0.072241	-0.499889
H132	H	0.899944	0.130583	-0.693867
H133	H	0.758454	0.071847	-0.633408
H134	H	0.892496	0.014654	-0.685856
H135	H	0.907888	0.129927	-0.451113
H136	H	1.041811	0.072700	-0.503729
