data_functionalizedCrystal
_audit_creation_method	'MofGen! by Chris Wilmer'
_symmetry_space_group_name_H-M	'P1'
_symmetry_Int_Tables_number	1
_symmetry_cell_setting	triclinic
loop_
_symmetry_equiv_pos_as_xyz
  x,y,z
_cell_length_a	23.532407
_cell_length_b	22.610064
_cell_length_c	23.532416
_cell_angle_alpha	90.006497
_cell_angle_beta	97.149538
_cell_angle_gamma	90.002839
loop_
_atom_site_label
_atom_site_type_symbol
_atom_site_fract_x
_atom_site_fract_y
_atom_site_fract_z
O1	O	0.755266	0.049108	-0.069127
O2	O	1.005266	0.299108	0.180873
O3	O	1.255266	0.549108	0.430873
O4	O	1.505266	0.799108	0.680873
O5	O	0.589403	0.049125	-0.079130
O6	O	0.839403	0.299125	0.170870
O7	O	1.089403	0.549125	0.420870
O8	O	1.339403	0.799125	0.670870
O9	O	0.677333	0.049116	0.008803
O10	O	0.927333	0.299116	0.258803
O11	O	1.177333	0.549116	0.508803
O12	O	1.427333	0.799116	0.758803
O13	O	0.667335	0.049117	-0.157060
O14	O	0.917335	0.299117	0.092940
O15	O	1.167335	0.549117	0.342940
O16	O	1.417335	0.799117	0.592940
O17	O	0.677318	-0.049254	0.008790
O18	O	0.927318	0.200746	0.258790
O19	O	1.177318	0.450746	0.508790
O20	O	1.427318	0.700746	0.758790
O21	O	0.589387	-0.049244	-0.079143
O22	O	0.839387	0.200756	0.170857
O23	O	1.089387	0.450756	0.420857
O24	O	1.339387	0.700756	0.670857
O25	O	0.755250	-0.049261	-0.069140
O26	O	1.005250	0.200739	0.180860
O27	O	1.255250	0.450739	0.430860
O28	O	1.505250	0.700739	0.680860
Zn29	Zn	0.672316	-0.064871	-0.074143
Zn30	Zn	0.922316	0.185129	0.175857
Zn31	Zn	1.172316	0.435129	0.425857
Zn32	Zn	1.422316	0.685129	0.675857
Zn33	Zn	0.672337	0.064734	-0.074126
Zn34	Zn	0.922337	0.314734	0.175874
Zn35	Zn	1.172337	0.564734	0.425874
Zn36	Zn	1.422337	0.814734	0.675874
O37	O	0.667320	-0.049252	-0.157073
O38	O	0.917320	0.200748	0.092927
O39	O	1.167320	0.450748	0.342927
O40	O	1.417320	0.700748	0.592927
C41	C	0.568179	-0.000058	-0.078882
C42	C	0.818179	0.249942	0.171118
C43	C	1.068179	0.499942	0.421118
C44	C	1.318179	0.749942	0.671118
C45	C	0.504962	-0.000051	-0.078116
C46	C	0.754962	0.249949	0.171884
C47	C	1.004962	0.499949	0.421884
C48	C	1.254962	0.749949	0.671884
N49	N	0.672306	-0.153324	-0.074154
N50	N	0.922306	0.096676	0.175846
N51	N	1.172306	0.346676	0.425846
N52	N	1.422306	0.596676	0.675846
C53	C	0.105860	-0.000078	-0.125349
C54	C	0.355860	0.249922	0.124651
C55	C	0.605860	0.499922	0.374651
C56	C	0.855860	0.749922	0.624651
C57	C	0.046460	-0.000081	-0.124638
C58	C	0.296460	0.249919	0.125362
C59	C	0.546460	0.499919	0.375362
C60	C	0.796460	0.749919	0.625362
O61	O	0.009717	-0.000102	-0.168423
O62	O	0.259717	0.249898	0.081577
O63	O	0.509717	0.499898	0.331577
O64	O	0.759717	0.749898	0.581577
N65	N	0.023832	-0.000081	-0.072361
N66	N	0.273832	0.249919	0.177639
N67	N	0.523832	0.499919	0.427639
N68	N	0.773832	0.749919	0.677639
C69	C	0.060608	-0.000082	-0.020793
C70	C	0.310608	0.249918	0.229207
C71	C	0.560608	0.499918	0.479207
C72	C	0.810608	0.749918	0.729207
O73	O	0.035907	-0.000083	0.023737
O74	O	0.285907	0.249917	0.273737
O75	O	0.535907	0.499917	0.523737
O76	O	0.785907	0.749917	0.773737
C77	C	0.120007	-0.000083	-0.021506
C78	C	0.370007	0.249917	0.228494
C79	C	0.620007	0.499917	0.478494
C80	C	0.870007	0.749917	0.728494
C81	C	0.142631	-0.000078	-0.073785
C82	C	0.392631	0.249922	0.176215
C83	C	0.642631	0.499922	0.426215
C84	C	0.892631	0.749922	0.676215
C85	C	0.128485	-0.000073	-0.177624
C86	C	0.378485	0.249927	0.072376
C87	C	0.628485	0.499927	0.322376
C88	C	0.878485	0.749927	0.572376
C89	C	0.187881	-0.000068	-0.178335
C90	C	0.437881	0.249932	0.071665
C91	C	0.687881	0.499932	0.321665
C92	C	0.937881	0.749932	0.571665
C93	C	0.224652	-0.000068	-0.126771
C94	C	0.474652	0.249932	0.123229
C95	C	0.724652	0.499932	0.373229
C96	C	0.974652	0.749932	0.623229
C97	C	0.202028	-0.000073	-0.074496
C98	C	0.452028	0.249927	0.175504
C99	C	0.702028	0.499927	0.425504
C100	C	0.952028	0.749927	0.675504
C101	C	0.156782	-0.000089	0.030062
C102	C	0.406782	0.249911	0.280062
C103	C	0.656782	0.499911	0.530062
C104	C	0.906782	0.749911	0.780062
C105	C	0.216184	-0.000090	0.029345
C106	C	0.466184	0.249910	0.279345
C107	C	0.716184	0.499910	0.529345
C108	C	0.966184	0.749910	0.779345
C109	C	0.238809	-0.000085	-0.022934
C110	C	0.488809	0.249915	0.227066
C111	C	0.738809	0.499915	0.477066
C112	C	0.988809	0.749915	0.727066
C113	C	0.298195	-0.000068	-0.023643
C114	C	0.548195	0.249932	0.226357
C115	C	0.798195	0.499932	0.476357
C116	C	1.048195	0.749932	0.726357
N117	N	0.320823	-0.000069	-0.075919
N118	N	0.570823	0.249931	0.174081
N119	N	0.820823	0.499931	0.424081
N120	N	1.070823	0.749931	0.674081
C121	C	0.284052	-0.000069	-0.127483
C122	C	0.534052	0.249931	0.122517
C123	C	0.784052	0.499931	0.372517
C124	C	1.034052	0.749931	0.622517
C125	C	-0.064135	-0.000082	-0.019302
C126	C	0.185865	0.249918	0.230698
C127	C	0.435865	0.499918	0.480698
C128	C	0.685865	0.749918	0.730698
C129	C	-0.123532	-0.000077	-0.018589
C130	C	0.126468	0.249923	0.231411
C131	C	0.376468	0.499923	0.481411
C132	C	0.626468	0.749923	0.731411
C133	C	-0.137677	-0.000077	-0.122434
C134	C	0.112323	0.249923	0.127566
C135	C	0.362323	0.499923	0.377566
C136	C	0.612323	0.749923	0.627566
C137	C	-0.078278	-0.000078	-0.123146
C138	C	0.171722	0.249922	0.126854
C139	C	0.421722	0.499922	0.376854
C140	C	0.671722	0.749922	0.626854
C141	C	-0.041507	-0.000083	-0.071578
C142	C	0.208493	0.249917	0.178422
C143	C	0.458493	0.499917	0.428422
C144	C	0.708493	0.749917	0.678422
C145	C	0.408788	-0.000058	-0.128973
C146	C	0.658788	0.249942	0.121027
C147	C	0.908788	0.499942	0.371027
C148	C	1.158788	0.749942	0.621027
C149	C	0.468190	-0.000051	-0.129680
C150	C	0.718190	0.249949	0.120320
C151	C	0.968190	0.499949	0.370320
C152	C	1.218190	0.749949	0.620320
C153	C	0.482329	-0.000054	-0.025836
C154	C	0.732329	0.249946	0.224164
C155	C	0.982329	0.499946	0.474164
C156	C	1.232329	0.749946	0.724164
C157	C	0.422933	-0.000058	-0.025129
C158	C	0.672933	0.249942	0.224871
C159	C	0.922933	0.499942	0.474871
C160	C	1.172933	0.749942	0.724871
C161	C	0.386163	-0.000062	-0.076702
C162	C	0.636163	0.249938	0.173298
C163	C	0.886163	0.499938	0.423298
C164	C	1.136163	0.749938	0.673298
O165	O	0.334973	-0.000050	0.020119
O166	O	0.584973	0.249950	0.270119
O167	O	0.834973	0.499950	0.520119
O168	O	1.084973	0.749950	0.770119
O169	O	0.308761	-0.000076	-0.172006
O170	O	0.558761	0.249924	0.077994
O171	O	0.808761	0.499924	0.327994
O172	O	1.058761	0.749924	0.577994
C173	C	0.711274	-0.561969	-0.035196
C174	C	0.961274	-0.311969	0.214804
C175	C	1.211274	-0.061969	0.464804
C176	C	1.461274	0.188031	0.714804
C177	C	0.711277	-0.623889	-0.035191
C178	C	0.961277	-0.373889	0.214809
C179	C	1.211277	-0.123889	0.464809
C180	C	1.461277	0.126111	0.714809
O181	O	0.744384	-0.655911	-0.002076
O182	O	0.994384	-0.405911	0.247924
O183	O	1.244384	-0.155911	0.497924
O184	O	1.494384	0.094089	0.747924
N185	N	0.672336	-0.654861	-0.074114
N186	N	0.922336	-0.404861	0.175886
N187	N	1.172336	-0.154861	0.425886
N188	N	1.422336	0.095139	0.675886
C189	C	0.633386	-0.623909	-0.113040
C190	C	0.883386	-0.373909	0.136960
C191	C	1.133386	-0.123909	0.386960
C192	C	1.383386	0.126091	0.636960
O193	O	0.600264	-0.655939	-0.146147
O194	O	0.850264	-0.405939	0.103853
O195	O	1.100264	-0.155939	0.353853
O196	O	1.350264	0.094061	0.603853
C197	C	0.633381	-0.561991	-0.113041
C198	C	0.883381	-0.311991	0.136959
C199	C	1.133381	-0.061991	0.386959
C200	C	1.383381	0.188009	0.636959
C201	C	0.672328	-0.531022	-0.074120
C202	C	0.922328	-0.281022	0.175880
C203	C	1.172328	-0.031022	0.425880
C204	C	1.422328	0.218978	0.675880
C205	C	0.750217	-0.531000	0.003724
C206	C	1.000217	-0.281000	0.253724
C207	C	1.250217	-0.031000	0.503724
C208	C	1.500217	0.219000	0.753724
C209	C	0.750215	-0.469085	0.003719
C210	C	1.000215	-0.219085	0.253719
C211	C	1.250215	0.030915	0.503719
C212	C	1.500215	0.280915	0.753719
C213	C	0.711269	-0.438138	-0.035206
C214	C	0.961269	-0.188138	0.214794
C215	C	1.211269	0.061862	0.464794
C216	C	1.461269	0.311862	0.714794
C217	C	0.672326	-0.469106	-0.074125
C218	C	0.922326	-0.219106	0.175875
C219	C	1.172326	0.030894	0.425875
C220	C	1.422326	0.280894	0.675875
C221	C	0.594429	-0.531040	-0.151964
C222	C	0.844429	-0.281040	0.098036
C223	C	1.094429	-0.031040	0.348036
C224	C	1.344429	0.218960	0.598036
C225	C	0.594427	-0.469117	-0.151961
C226	C	0.844427	-0.219117	0.098039
C227	C	1.094427	0.030883	0.348039
C228	C	1.344427	0.280883	0.598039
C229	C	0.633374	-0.438149	-0.113040
C230	C	0.883374	-0.188149	0.136960
C231	C	1.133374	0.061851	0.386960
C232	C	1.383374	0.311851	0.636960
C233	C	0.633378	-0.376244	-0.113054
C234	C	0.883378	-0.126244	0.136946
C235	C	1.133378	0.123756	0.386946
C236	C	1.383378	0.373756	0.636946
N237	N	0.672318	-0.345272	-0.074131
N238	N	0.922318	-0.095272	0.175869
N239	N	1.172318	0.154728	0.425869
N240	N	1.422318	0.404728	0.675869
C241	C	0.711264	-0.376219	-0.035206
C242	C	0.961264	-0.126219	0.214794
C243	C	1.211264	0.123781	0.464794
C244	C	1.461264	0.373781	0.714794
C245	C	0.633399	-0.753943	-0.113035
C246	C	0.883399	-0.503943	0.136965
C247	C	1.133399	-0.253943	0.386965
C248	C	1.383399	-0.003943	0.636965
C249	C	0.633407	-0.815861	-0.113037
C250	C	0.883407	-0.565861	0.136963
C251	C	1.133407	-0.315861	0.386963
C252	C	1.383407	-0.065861	0.636963
C253	C	0.711297	-0.815836	-0.035187
C254	C	0.961297	-0.565836	0.214813
C255	C	1.211297	-0.315836	0.464813
C256	C	1.461297	-0.065836	0.714813
C257	C	0.711292	-0.753917	-0.035188
C258	C	0.961292	-0.503917	0.214812
C259	C	1.211292	-0.253917	0.464812
C260	C	1.461292	-0.003917	0.714812
C261	C	0.672340	-0.722971	-0.074112
C262	C	0.922340	-0.472971	0.175888
C263	C	1.172340	-0.222971	0.425888
C264	C	1.422340	0.027029	0.675888
C265	C	0.711256	-0.246192	-0.035220
C266	C	0.961256	0.003808	0.214780
C267	C	1.211256	0.253808	0.464780
C268	C	1.461256	0.503808	0.714780
C269	C	0.711252	-0.184271	-0.035230
C270	C	0.961252	0.065729	0.214770
C271	C	1.211252	0.315729	0.464770
C272	C	1.461252	0.565729	0.714770
C273	C	0.633360	-0.184301	-0.113078
C274	C	0.883360	0.065699	0.136922
C275	C	1.133360	0.315699	0.386922
C276	C	1.383360	0.565699	0.636922
C277	C	0.633366	-0.246216	-0.113070
C278	C	0.883366	0.003784	0.136930
C279	C	1.133366	0.253784	0.386930
C280	C	1.383366	0.503784	0.636930
C281	C	0.672317	-0.277160	-0.074137
C282	C	0.922317	-0.027160	0.175863
C283	C	1.172317	0.222840	0.425863
C284	C	1.422317	0.472840	0.675863
O285	O	0.600285	-0.344182	-0.146151
O286	O	0.850285	-0.094182	0.103849
O287	O	1.100285	0.155818	0.353849
O288	O	1.350285	0.405818	0.603849
O289	O	0.744376	-0.344182	-0.002101
O290	O	0.994376	-0.094182	0.247899
O291	O	1.244376	0.155818	0.497899
O292	O	1.494376	0.405818	0.747899
C293	C	0.776474	-0.000078	-0.069388
C294	C	1.026474	0.249922	0.180612
C295	C	1.276474	0.499922	0.430612
C296	C	1.526474	0.749922	0.680612
C297	C	0.839691	-0.000080	-0.070154
C298	C	1.089691	0.249920	0.179846
C299	C	1.339691	0.499920	0.429846
C300	C	1.589691	0.749920	0.679846
C301	C	0.677070	-0.000068	0.030013
C302	C	0.927070	0.249932	0.280013
C303	C	1.177070	0.499932	0.530013
C304	C	1.427070	0.749932	0.780013
C305	C	0.676302	-0.000064	0.093229
C306	C	0.926302	0.249936	0.343229
C307	C	1.176302	0.499936	0.593229
C308	C	1.426302	0.749936	0.843229
N309	N	0.672351	0.153187	-0.074111
N310	N	0.922351	0.403187	0.175889
N311	N	1.172351	0.653187	0.425889
N312	N	1.422351	0.903187	0.675889
C313	C	0.673045	0.053557	0.366480
C314	C	0.923045	0.303557	0.616480
C315	C	1.173045	0.553557	0.866480
C316	C	1.423045	0.803557	1.116480
C317	C	0.673758	0.053558	0.307080
C318	C	0.923758	0.303558	0.557080
C319	C	1.173758	0.553558	0.807080
C320	C	1.423758	0.803558	1.057080
O321	O	0.674154	0.099159	0.276362
O322	O	0.924154	0.349159	0.526362
O323	O	1.174154	0.599159	0.776362
O324	O	1.424154	0.849159	1.026362
N325	N	0.674103	-0.000064	0.277371
N326	N	0.924103	0.249936	0.527371
N327	N	1.174103	0.499936	0.777371
N328	N	1.424103	0.749936	1.027371
C329	C	0.673740	-0.053690	0.307066
C330	C	0.923740	0.196310	0.557066
C331	C	1.173740	0.446310	0.807066
C332	C	1.423740	0.696310	1.057066
O333	O	0.674099	-0.099299	0.276342
O334	O	0.924099	0.150701	0.526342
O335	O	1.174099	0.400701	0.776342
O336	O	1.424099	0.650701	1.026342
C337	C	0.673031	-0.053690	0.366466
C338	C	0.923031	0.196310	0.616466
C339	C	1.173031	0.446310	0.866466
C340	C	1.423031	0.696310	1.116466
C341	C	0.672681	-0.000065	0.396171
C342	C	0.922681	0.249935	0.646171
C343	C	1.172681	0.499935	0.896171
C344	C	1.422681	0.749935	1.146171
C345	C	0.672696	0.107178	0.396186
C346	C	0.922696	0.357178	0.646186
C347	C	1.172696	0.607178	0.896186
C348	C	1.422696	0.857178	1.146186
C349	C	0.671981	0.107177	0.455582
C350	C	0.921981	0.357177	0.705582
C351	C	1.171981	0.607177	0.955582
C352	C	1.421981	0.857177	1.205582
C353	C	0.671617	0.053555	0.485272
C354	C	0.921617	0.303555	0.735272
C355	C	1.171617	0.553555	0.985272
C356	C	1.421617	0.803555	1.235272
C357	C	0.671967	-0.000066	0.455567
C358	C	0.921967	0.249934	0.705567
C359	C	1.171967	0.499934	0.955567
C360	C	1.421967	0.749934	1.205567
C361	C	0.672672	-0.107315	0.396160
C362	C	0.922672	0.142685	0.646160
C363	C	1.172672	0.392685	0.896160
C364	C	1.422672	0.642685	1.146160
C365	C	0.671964	-0.107311	0.455564
C366	C	0.921964	0.142689	0.705564
C367	C	1.171964	0.392689	0.955564
C368	C	1.421964	0.642689	1.205564
C369	C	0.671613	-0.053686	0.485269
C370	C	0.921613	0.196314	0.735269
C371	C	1.171613	0.446314	0.985269
C372	C	1.421613	0.696314	1.235269
C373	C	0.670888	-0.053688	0.544653
C374	C	0.920888	0.196312	0.794653
C375	C	1.170888	0.446312	1.044653
C376	C	1.420888	0.696312	1.294653
N377	N	0.670544	-0.000067	0.574362
N378	N	0.920544	0.249933	0.824362
N379	N	1.170544	0.499933	1.074362
N380	N	1.420544	0.749933	1.324362
C381	C	0.670908	0.053555	0.544671
C382	C	0.920908	0.303555	0.794671
C383	C	1.170908	0.553555	1.044671
C384	C	1.420908	0.803555	1.294671
C385	C	0.675230	-0.053686	0.182323
C386	C	0.925230	0.196314	0.432323
C387	C	1.175230	0.446314	0.682323
C388	C	1.425230	0.696314	0.932323
C389	C	0.675935	-0.053686	0.122925
C390	C	0.925935	0.196314	0.372925
C391	C	1.175935	0.446314	0.622925
C392	C	1.425935	0.696314	0.872925
C393	C	0.675954	0.053562	0.122943
C394	C	0.925954	0.303562	0.372943
C395	C	1.175954	0.553562	0.622943
C396	C	1.425954	0.803562	0.872943
C397	C	0.675245	0.053561	0.182342
C398	C	0.925245	0.303561	0.432342
C399	C	1.175245	0.553561	0.682342
C400	C	1.425245	0.803561	0.932342
C401	C	0.674885	-0.000064	0.212033
C402	C	0.924885	0.249936	0.462033
C403	C	1.174885	0.499936	0.712033
C404	C	1.424885	0.749936	0.962033
C405	C	0.669408	0.053549	0.669407
C406	C	0.919408	0.303549	0.919407
C407	C	1.169408	0.553549	1.169407
C408	C	1.419408	0.803549	1.419407
C409	C	0.668691	0.053543	0.728808
C410	C	0.918691	0.303543	0.978808
C411	C	1.168691	0.553543	1.228808
C412	C	1.418691	0.803543	1.478808
C413	C	0.668675	-0.053704	0.728784
C414	C	0.918675	0.196296	0.978784
C415	C	1.168675	0.446296	1.228784
C416	C	1.418675	0.696296	1.478784
C417	C	0.669389	-0.053699	0.669388
C418	C	0.919389	0.196301	0.919388
C419	C	1.169389	0.446301	1.169388
C420	C	1.419389	0.696301	1.419388
C421	C	0.669757	-0.000068	0.639701
C422	C	0.919757	0.249932	0.889701
C423	C	1.169757	0.499932	1.139701
C424	C	1.419757	0.749932	1.389701
O425	O	0.670494	-0.099266	0.575410
O426	O	0.920494	0.150734	0.825410
O427	O	1.170494	0.400734	1.075410
O428	O	1.420494	0.650734	1.325410
O429	O	0.670557	0.099157	0.575404
O430	O	0.920557	0.349157	0.825404
O431	O	1.170557	0.599157	1.075404
O432	O	1.420557	0.849157	1.325404
C433	C	0.667577	-0.000070	0.821717
C434	C	0.917577	0.249930	1.071717
C435	C	1.167577	0.499930	1.321717
C436	C	1.417577	0.749930	1.571717
C437	C	0.668327	-0.000079	0.758498
C438	C	0.918327	0.249921	1.008498
C439	C	1.168327	0.499921	1.258498
C440	C	1.418327	0.749921	1.508498
H441	H	0.486607	-0.000046	-0.172254
H442	H	0.736607	0.249954	0.077746
H443	H	0.986607	0.499954	0.327746
H444	H	1.236607	0.749954	0.577746
H445	H	0.562714	-0.556246	-0.183657
H446	H	0.812714	-0.306246	0.066343
H447	H	1.062714	-0.056246	0.316343
H448	H	1.312714	0.193754	0.566343
H449	H	0.138372	-0.000094	0.072633
H450	H	0.388372	0.249906	0.322633
H451	H	0.638372	0.499906	0.572633
H452	H	0.888372	0.749906	0.822633
H453	H	0.668404	0.097213	0.752991
H454	H	0.918404	0.347213	1.002991
H455	H	1.168404	0.597213	1.252991
H456	H	1.418404	0.847213	1.502991
F457	F	0.668283	-0.110769	0.760393
F458	F	0.918283	0.139231	1.010393
F459	F	1.168283	0.389231	1.260393
F460	F	1.418283	0.639231	1.510393
H461	H	0.676249	0.097223	0.098758
H462	H	0.926249	0.347223	0.348758
H463	H	1.176249	0.597223	0.598758
H464	H	1.426249	0.847223	0.848758
F465	F	0.752746	-0.848784	0.006240
F466	F	1.002746	-0.598784	0.256240
F467	F	1.252746	-0.348784	0.506240
F468	F	1.502746	-0.098784	0.756240
F469	F	0.521474	-0.000055	0.029039
F470	F	0.771474	0.249945	0.279039
F471	F	1.021474	0.499945	0.529039
F472	F	1.271474	0.749945	0.779039
F473	F	0.752708	-0.151315	0.006196
F474	F	1.002708	0.098685	0.256196
F475	F	1.252708	0.348685	0.506196
F476	F	1.502708	0.598685	0.756196
H477	H	0.742973	-0.271379	-0.003516
H478	H	0.992973	-0.021379	0.246484
H479	H	1.242973	0.228621	0.496484
H480	H	1.492973	0.478621	0.746484
F481	F	0.791665	-0.436131	0.045147
F482	F	1.041665	-0.186131	0.295147
F483	F	1.291665	0.063869	0.545147
F484	F	1.541665	0.313869	0.795147
F485	F	0.752744	-0.720964	0.006238
F486	F	1.002744	-0.470964	0.256238
F487	F	1.252744	-0.220964	0.506238
F488	F	1.502744	0.029036	0.756238
F489	F	0.674841	-0.110765	0.213916
F490	F	0.924841	0.139235	0.463916
F491	F	1.174841	0.389235	0.713916
F492	F	1.424841	0.639235	0.963916
F493	F	0.398853	-0.000065	0.030512
F494	F	0.648853	0.249935	0.280512
F495	F	0.898853	0.499935	0.530512
F496	F	1.148853	0.749935	0.780512
F497	F	0.791672	-0.563928	0.045156
F498	F	1.041672	-0.313928	0.295156
F499	F	1.291672	-0.063928	0.545156
F500	F	1.541672	0.186072	0.795156
F501	F	0.369663	-0.000063	-0.183863
F502	F	0.619663	0.249937	0.066137
F503	F	0.869663	0.499937	0.316137
F504	F	1.119663	0.749937	0.566137
F505	F	0.676295	-0.110761	0.091315
F506	F	0.926295	0.139239	0.341315
F507	F	1.176295	0.389239	0.591315
F508	F	1.426295	0.639239	0.841315
F509	F	0.671614	0.164252	0.487189
F510	F	0.921614	0.414252	0.737189
F511	F	1.171614	0.664252	0.987189
F512	F	1.421614	0.914252	1.237189
F513	F	0.591961	-0.848814	-0.154470
F514	F	0.841961	-0.598814	0.095530
F515	F	1.091961	-0.348814	0.345530
F516	F	1.341961	-0.098814	0.595530
F517	F	0.673084	0.164254	0.364596
F518	F	0.923084	0.414254	0.614596
F519	F	1.173084	0.664254	0.864596
F520	F	1.423084	0.914254	1.114596
F521	F	0.673039	-0.164392	0.364558
F522	F	0.923039	0.085608	0.614558
F523	F	1.173039	0.335608	0.864558
F524	F	1.423039	0.585608	1.114558
F525	F	0.591914	-0.151355	-0.154503
F526	F	0.841914	0.098645	0.095497
F527	F	1.091914	0.348645	0.345497
F528	F	1.341914	0.598645	0.595497
H529	H	0.601682	-0.728750	-0.144736
H530	H	0.851682	-0.478750	0.105264
H531	H	1.101682	-0.228750	0.355264
H532	H	1.351682	0.021250	0.605264
H533	H	0.562706	-0.443924	-0.183657
H534	H	0.812706	-0.193924	0.066343
H535	H	1.062706	0.056076	0.316343
H536	H	1.312706	0.306076	0.566343
H537	H	0.674959	0.097228	0.206524
H538	H	0.924959	0.347228	0.456524
H539	H	1.174959	0.597228	0.706524
H540	H	1.424959	0.847228	0.956524
H541	H	0.669708	0.097221	0.645243
H542	H	0.919708	0.347221	0.895243
H543	H	1.169708	0.597221	1.145243
H544	H	1.419708	0.847221	1.395243
H545	H	0.669651	-0.097365	0.645198
H546	H	0.919651	0.152635	0.895198
H547	H	1.169651	0.402635	1.145198
H548	H	1.419651	0.652635	1.395198
H549	H	0.671671	-0.150980	0.479734
H550	H	0.921671	0.099020	0.729734
H551	H	1.171671	0.349020	0.979734
H552	H	1.421671	0.599020	1.229734
F553	F	0.089358	-0.000073	-0.232511
F554	F	0.339358	0.249927	0.017489
F555	F	0.589358	0.499927	0.267489
F556	F	0.839358	0.749927	0.517489
F557	F	0.211952	-0.000065	-0.233979
F558	F	0.461952	0.249935	0.016021
F559	F	0.711952	0.499935	0.266021
F560	F	0.961952	0.749935	0.516021
F561	F	-0.176822	-0.000079	-0.177313
F562	F	0.073178	0.249921	0.072687
F563	F	0.323178	0.499921	0.322687
F564	F	0.573178	0.749921	0.572687
F565	F	-0.054205	-0.000073	-0.178788
F566	F	0.195795	0.249927	0.071212
F567	F	0.445795	0.499927	0.321212
F568	F	0.695795	0.749927	0.571212
H569	H	-0.141947	-0.000073	0.023982
H570	H	0.108053	0.249927	0.273982
H571	H	0.358053	0.499927	0.523982
H572	H	0.608053	0.749927	0.773982
F573	F	0.591920	-0.279174	-0.154502
F574	F	0.841920	-0.029174	0.095498
F575	F	1.091920	0.220826	0.345498
F576	F	1.341920	0.470826	0.595498
H577	H	-0.034198	-0.000081	0.022693
H578	H	0.215802	0.249919	0.272693
H579	H	0.465802	0.499919	0.522693
H580	H	0.715802	0.749919	0.772693
H581	H	0.246121	-0.000095	0.071339
H582	H	0.496121	0.249905	0.321339
H583	H	0.746121	0.499905	0.571339
H584	H	0.996121	0.749905	0.821339
