data_functionalizedCrystal
_audit_creation_method	'MofGen! by Chris Wilmer'
_symmetry_space_group_name_H-M	'P1'
_symmetry_Int_Tables_number	1
_symmetry_cell_setting	triclinic
loop_
_symmetry_equiv_pos_as_xyz
  x,y,z
_cell_length_a	8.497374
_cell_length_b	8.497374
_cell_length_c	10.685901
_cell_angle_alpha	85.620189
_cell_angle_beta	94.363391
_cell_angle_gamma	90.005237
loop_
_atom_site_label
_atom_site_type_symbol
_atom_site_fract_x
_atom_site_fract_y
_atom_site_fract_z
Zn1	Zn	0.812926	0.706790	1.929069
Zn2	Zn	1.076671	0.443056	1.929059
Zn3	Zn	0.792713	0.463282	1.718115
Zn4	Zn	1.056469	0.727055	1.718085
O5	O	0.934695	0.585046	1.823582
O6	O	0.864827	0.654859	2.105645
O7	O	1.038999	0.224976	1.901085
O8	O	0.574634	0.495568	1.746116
O9	O	1.058599	0.461095	2.105638
O10	O	0.589484	0.674471	1.901102
O11	O	0.830376	0.239836	1.746106
O12	O	0.810787	0.515218	1.541533
O13	O	1.024167	0.945130	1.746064
O14	O	1.004567	0.709011	1.541511
O15	O	0.845237	0.930241	1.901073
O16	O	1.294752	0.480746	1.901056
O17	O	1.279909	0.689398	1.746054
C18	C	0.903292	0.616509	1.495737
C19	C	0.889896	0.630007	1.355484
C20	C	1.344573	0.585070	1.823566
C21	C	1.523220	0.585041	1.823600
C22	C	0.934696	0.996527	1.823573
C23	C	0.934713	1.175171	1.823575
C24	C	0.966221	0.553460	2.152706
C25	C	0.979655	0.540001	2.292960
H26	H	1.066755	0.452628	1.346728
F27	F	0.776061	0.744238	1.285203
