data_functionalizedCrystal
_audit_creation_method	'MofGen! by Chris Wilmer'
_symmetry_space_group_name_H-M	'P1'
_symmetry_Int_Tables_number	1
_symmetry_cell_setting	triclinic
loop_
_symmetry_equiv_pos_as_xyz
  x,y,z
_cell_length_a	11.026607
_cell_length_b	15.625429
_cell_length_c	9.482900
_cell_angle_alpha	81.570414
_cell_angle_beta	78.636152
_cell_angle_gamma	95.805952
loop_
_atom_site_label
_atom_site_type_symbol
_atom_site_fract_x
_atom_site_fract_y
_atom_site_fract_z
O1	O	1.658502	0.349721	-0.305240
O2	O	1.301745	0.308697	-0.283618
O3	O	1.479369	0.205466	-0.229196
O4	O	1.480878	0.452952	-0.359663
O5	O	1.443299	0.226542	0.001486
O6	O	1.265675	0.329774	-0.052937
O7	O	1.622432	0.370797	-0.074559
Cu8	Cu	1.440760	0.352210	-0.042685
Cu9	Cu	1.483417	0.327285	-0.315492
O10	O	1.444808	0.474028	-0.128982
C11	C	1.237862	0.311668	-0.164289
C12	C	1.101250	0.289107	-0.152397
C13	C	1.032686	0.351400	-0.185237
C14	C	0.891490	0.328084	-0.172948
C15	C	1.457828	0.183828	-0.096896
C16	C	1.447368	0.087951	-0.046361
C17	C	1.511232	-0.284823	-0.508827
C18	C	1.501391	-0.374911	-0.461299
C19	C	1.462070	-0.351921	-0.209827
C20	C	1.471914	-0.261829	-0.257334
C21	C	1.496494	-0.228288	-0.406836
C22	C	1.457175	-0.205294	-0.155343
C23	C	1.467012	-0.115210	-0.202847
C24	C	1.491588	-0.081662	-0.352342
C25	C	1.506331	-0.138204	-0.454340
C26	C	1.432587	-0.238838	-0.005841
C27	C	1.417848	-0.182303	0.096150
C28	C	1.427694	-0.092217	0.048647
C29	C	1.452269	-0.058668	-0.100849
C30	C	1.412951	-0.035674	0.150645
C31	C	1.422788	0.054409	0.103141
C32	C	1.462106	0.031415	-0.148353
C33	C	1.686315	0.367826	-0.193892
C34	C	1.822929	0.390386	-0.205792
C35	C	1.466349	0.495666	-0.261285
C36	C	1.476811	0.591543	-0.311828
N37	N	1.410766	0.369742	0.149193
N38	N	1.513420	0.309747	-0.507367
C39	C	1.474561	0.332450	0.241052
C40	C	1.449615	0.347045	0.400775
H41	H	0.845670	0.257484	-0.135766
Br42	Br	1.024872	0.171445	-0.090353
Br43	Br	1.521383	-0.451638	-0.599733
Br44	Br	0.899291	0.508058	-0.267798
Br45	Br	1.384476	-0.227832	0.299040
Br46	Br	1.596051	0.260962	0.175199
H47	H	1.482133	0.058727	-0.270092
H48	H	1.526357	-0.110893	-0.576079
Br49	Br	1.504941	0.040596	-0.416818
H50	H	1.376520	0.389775	0.440372
Br51	Br	1.544615	-0.239292	-0.711727
Br52	Br	1.288936	0.440958	0.215189
Br53	Br	1.379563	-0.081208	0.353534
H54	H	1.424565	-0.312191	0.032832
Br55	Br	1.109060	0.469064	-0.247257
H56	H	1.442052	-0.379244	-0.088101
H57	H	1.586507	0.267009	0.453040
Br58	Br	1.402789	0.131142	0.241557
