data_functionalizedCrystal
_audit_creation_method	'MofGen! by Chris Wilmer'
_symmetry_space_group_name_H-M	'P1'
_symmetry_Int_Tables_number	1
_symmetry_cell_setting	triclinic
loop_
_symmetry_equiv_pos_as_xyz
  x,y,z
_cell_length_a	14.519709
_cell_length_b	16.109301
_cell_length_c	14.586319
_cell_angle_alpha	90.005214
_cell_angle_beta	89.997892
_cell_angle_gamma	83.570813
loop_
_atom_site_label
_atom_site_type_symbol
_atom_site_fract_x
_atom_site_fract_y
_atom_site_fract_z
O1	O	-1.223634	-0.108984	-0.076124
O2	O	-0.890301	0.224349	0.257209
O3	O	-0.556967	0.557682	0.590543
O4	O	-0.955130	-0.121819	-0.076152
O5	O	-0.621797	0.211514	0.257181
O6	O	-0.288463	0.544848	0.590514
O7	O	-1.096758	0.005617	-0.076128
O8	O	-0.763425	0.338950	0.257205
O9	O	-0.430091	0.672283	0.590539
O10	O	-1.082006	-0.236420	-0.076148
O11	O	-0.748673	0.096913	0.257185
O12	O	-0.415339	0.430247	0.590518
O13	O	-1.096748	0.005618	0.076353
O14	O	-0.763415	0.338952	0.409686
O15	O	-0.430082	0.672285	0.743019
O16	O	-0.955120	-0.121817	0.076328
O17	O	-0.621787	0.211516	0.409662
O18	O	-0.288453	0.544850	0.742995
O19	O	-1.223624	-0.108983	0.076357
O20	O	-0.890291	0.224351	0.409690
O21	O	-0.556958	0.557684	0.743023
Cu22	Cu	-1.089371	-0.115400	0.090265
Cu23	Cu	-0.756038	0.217934	0.423599
Cu24	Cu	-0.422705	0.551267	0.756932
Cu25	Cu	-1.089383	-0.115402	-0.090061
Cu26	Cu	-0.756050	0.217932	0.243272
Cu27	Cu	-0.422716	0.551265	0.576606
O28	O	-1.081996	-0.236418	0.076333
O29	O	-0.748663	0.096915	0.409666
O30	O	-0.415329	0.430249	0.742999
C31	C	-0.920766	-0.121220	0.000085
C32	C	-0.587433	0.212114	0.333418
C33	C	-0.254100	0.545447	0.666751
C34	C	-0.818389	-0.119427	0.000074
C35	C	-0.485056	0.213906	0.333407
C36	C	-0.151722	0.547239	0.666741
C37	C	-1.096156	0.036593	0.000113
C38	C	-0.762822	0.369927	0.333446
C39	C	-0.429489	0.703260	0.666779
C40	C	-1.094364	0.128892	0.000114
C41	C	-0.761031	0.462225	0.333447
C42	C	-0.427697	0.795559	0.666781
C43	C	-1.257988	-0.109582	0.000118
C44	C	-0.924654	0.223752	0.333451
C45	C	-0.591321	0.557085	0.666785
C46	C	-1.360365	-0.111374	0.000122
C47	C	-1.027032	0.221959	0.333456
C48	C	-0.693699	0.555293	0.666789
C49	C	-0.443507	-0.112829	0.000116
C50	C	-0.110174	0.220505	0.333450
C51	C	0.223159	0.553838	0.666783
C52	C	-0.547811	-0.114661	0.000104
C53	C	-0.214478	0.218672	0.333438
C54	C	0.118855	0.552005	0.666771
C55	C	-0.630945	-0.116128	0.000094
C56	C	-0.297612	0.217205	0.333428
C57	C	0.035722	0.550539	0.666761
C58	C	-0.735256	-0.117961	0.000084
C59	C	-0.401922	0.215373	0.333417
C60	C	-0.068589	0.548706	0.666751
C61	C	-1.082599	-0.267395	0.000090
C62	C	-0.749265	0.065938	0.333423
C63	C	-0.415932	0.399272	0.666756
C64	C	-1.084390	-0.359693	0.000083
C65	C	-0.751057	-0.026360	0.333416
C66	C	-0.417724	0.306973	0.666749
N67	N	-1.089370	-0.115397	0.217097
N68	N	-0.756037	0.217936	0.550430
N69	N	-0.422703	0.551269	0.883764
C70	C	-1.174238	0.351026	0.000108
C71	C	-0.840904	0.684359	0.333441
C72	C	-0.507571	1.017693	0.666774
C73	C	-1.172547	0.437749	0.000100
C74	C	-0.839214	0.771083	0.333433
C75	C	-0.505880	1.104416	0.666767
C76	C	-1.004510	0.418166	0.000086
C77	C	-0.671177	0.751499	0.333419
C78	C	-0.337843	1.084832	0.666753
C79	C	-1.006202	0.331444	0.000087
C80	C	-0.672868	0.664778	0.333420
C81	C	-0.339535	0.998111	0.666754
C82	C	-1.091068	0.297877	0.000103
C83	C	-0.757735	0.631210	0.333436
C84	C	-0.424401	0.964543	0.666769
C85	C	-1.087686	0.471322	0.000094
C86	C	-0.754353	0.804655	0.333427
C87	C	-0.421019	1.137988	0.666760
C88	C	-1.085852	0.565351	0.000085
C89	C	-0.752519	0.898684	0.333419
C90	C	-0.419186	1.232018	0.666752
C91	C	-1.092902	0.203842	0.000109
C92	C	-0.759569	0.537175	0.333443
C93	C	-0.426236	0.870508	0.666776
N94	N	-1.089392	-0.115397	-0.216893
N95	N	-0.756058	0.217936	0.116441
N96	N	-0.422725	0.551269	0.449774
C97	C	-1.152104	-0.058988	0.452114
C98	C	-0.818770	0.274345	0.785448
C99	C	-0.485437	0.607679	1.118781
C100	C	-1.152106	-0.058986	0.548096
C101	C	-0.818773	0.274347	0.881429
C102	C	-0.485440	0.607681	1.214762
C103	C	-1.026651	-0.171809	0.548083
C104	C	-0.693318	0.161524	0.881417
C105	C	-0.359985	0.494857	1.214750
C106	C	-1.026645	-0.171807	0.452104
C107	C	-0.693312	0.161526	0.785437
C108	C	-0.359978	0.494860	1.118771
C109	C	-1.089376	-0.115397	0.404122
C110	C	-0.756043	0.217936	0.737455
C111	C	-0.422710	0.551270	1.070789
C112	C	-1.089385	-0.115398	0.596083
C113	C	-0.756052	0.217936	0.929416
C114	C	-0.422719	0.551269	1.262749
C115	C	-1.089388	-0.115396	0.700150
C116	C	-0.756054	0.217937	1.033483
C117	C	-0.422721	0.551271	1.366816
C118	C	-1.089373	-0.115398	0.300048
C119	C	-0.756040	0.217936	0.633381
C120	C	-0.422706	0.551269	0.966715
H121	H	-1.243341	0.323699	0.000119
H122	H	-0.910008	0.657032	0.333452
H123	H	-0.576675	0.990365	0.666785
H124	H	-1.240272	0.481020	0.000102
H125	H	-0.906939	0.814354	0.333436
H126	H	-0.573606	1.147687	0.666769
H127	H	-1.203182	-0.013055	0.413050
H128	H	-0.869849	0.320279	0.746383
H129	H	-0.536515	0.653612	1.079716
H130	H	-0.975560	-0.217742	0.413026
H131	H	-0.642227	0.115591	0.746359
H132	H	-0.308894	0.448924	1.079693
O133	O	-0.959006	-0.232656	0.599841
O134	O	-0.625672	0.100677	0.933175
O135	O	-0.292339	0.434010	1.266508
H136	H	-0.970737	-0.297490	0.581400
H137	H	-0.637403	0.035843	0.914733
H138	H	-0.304070	0.369177	1.248067
O139	O	-0.912977	0.454369	0.000089
O140	O	-0.579644	0.787703	0.333422
O141	O	-0.246311	1.121036	0.666755
H142	H	-0.925772	0.523602	0.000102
H143	H	-0.592438	0.856935	0.333435
H144	H	-0.259105	1.190269	0.666769
O145	O	-1.219772	0.001854	0.599851
O146	O	-0.886439	0.335187	0.933184
O147	O	-0.553106	0.668521	1.266517
H148	H	-1.180976	0.042350	0.643578
H149	H	-0.847642	0.375684	0.976911
H150	H	-0.514309	0.709017	1.310244
H151	H	-0.938471	0.288168	0.000080
H152	H	-0.605137	0.621501	0.333413
H153	H	-0.271804	0.954834	0.666747
