data_functionalizedCrystal
_audit_creation_method	'MofGen! by Chris Wilmer'
_symmetry_space_group_name_H-M	'P1'
_symmetry_Int_Tables_number	1
_symmetry_cell_setting	triclinic
loop_
_symmetry_equiv_pos_as_xyz
  x,y,z
_cell_length_a	12.759401
_cell_length_b	21.295417
_cell_length_c	12.759393
_cell_angle_alpha	90.037460
_cell_angle_beta	90.020459
_cell_angle_gamma	90.032032
loop_
_atom_site_label
_atom_site_type_symbol
_atom_site_fract_x
_atom_site_fract_y
_atom_site_fract_z
Zn1	Zn	1.606146	-0.250557	0.593965
Zn2	Zn	1.605990	-0.355838	0.418261
Zn3	Zn	1.430446	-0.250589	0.418300
Zn4	Zn	1.430388	-0.355795	0.593899
O5	O	1.518243	-0.303195	0.506106
O6	O	1.753146	-0.264527	0.570669
O7	O	1.582663	-0.341908	0.271245
O8	O	1.453843	-0.162496	0.441646
O9	O	1.753032	-0.341877	0.441580
O10	O	1.582929	-0.162472	0.570706
O11	O	1.453692	-0.264582	0.271274
O12	O	1.283417	-0.264541	0.441582
O13	O	1.453744	-0.341804	0.740929
O14	O	1.283375	-0.341835	0.570594
O15	O	1.582872	-0.264486	0.740977
O16	O	1.582607	-0.443922	0.441516
O17	O	1.453593	-0.443890	0.570556
C18	C	1.245275	-0.303187	0.506085
C19	C	1.128499	-0.303199	0.506101
C20	C	1.073642	-0.343507	0.573172
C21	C	0.963918	-0.343510	0.573193
C22	C	0.963917	-0.262894	0.439063
C23	C	1.073639	-0.262889	0.439048
C24	C	1.518105	-0.466747	0.506048
C25	C	1.518142	-0.536715	0.506058
C26	C	1.585379	-0.569577	0.438936
C27	C	1.585429	-0.635319	0.438960
C28	C	1.518222	-0.668197	0.506094
C29	C	1.450980	-0.635327	0.573230
C30	C	1.450940	-0.569586	0.573212
N31	N	1.426315	-0.771464	0.514097
N32	N	1.426356	-0.833915	0.514108
C33	C	1.518339	-0.866272	0.506155
N34	N	1.610283	-0.833818	0.498169
N35	N	1.610241	-0.771360	0.498153
C36	C	1.518258	-0.739482	0.506122
C37	C	1.585636	-0.970419	0.439054
C38	C	1.585687	-1.036163	0.439085
C39	C	1.451229	-1.036170	0.573350
C40	C	1.451187	-0.970427	0.573325
C41	C	1.518389	-0.937556	0.506171
C42	C	1.792276	-0.303203	0.506128
C43	C	1.909052	-0.303207	0.506137
C44	C	1.518319	-0.303136	0.780140
C45	C	1.518351	-0.303111	0.896916
C46	C	1.518410	-0.139005	0.506188
C47	C	1.518481	-0.069036	0.506222
C48	C	1.518227	-0.303208	0.233139
C49	C	1.518398	-0.303056	0.116363
C50	C	1.585535	-0.343328	1.061499
C51	C	1.585509	-0.343358	0.951775
C52	C	1.451208	-0.262837	0.951787
C53	C	1.451229	-0.262811	1.061510
H54	H	1.640185	-0.662081	0.384301
H55	H	1.640227	-0.376099	1.106157
H56	H	0.919258	-0.376332	0.627810
C57	C	0.903568	-0.218563	0.365300
H58	H	0.830364	-0.224344	0.374905
H59	H	0.921587	-0.176277	0.380799
H60	H	0.921512	-0.227731	0.294676
H61	H	1.640359	-0.943655	0.384377
H62	H	1.396522	-0.230070	0.907113
C63	C	1.133985	-0.218548	0.365266
H64	H	1.085600	-0.194548	0.325323
H65	H	1.176830	-0.191149	0.405536
H66	H	1.176745	-0.242598	0.319406
C67	C	1.659310	-0.533422	0.365082
H68	H	1.699369	-0.562413	0.325117
H69	H	1.619135	-0.507818	0.319262
H70	H	1.705056	-0.507735	0.405315
H71	H	1.396261	-0.662100	0.627893
H72	H	1.396553	-0.230015	1.106181
C73	C	1.659651	-1.072312	0.365246
H74	H	1.699658	-1.043317	0.325246
H75	H	1.705428	-1.097912	0.405478
H76	H	1.619490	-1.098002	0.319443
H77	H	1.396186	-0.542829	0.627872
H78	H	1.396512	-1.062938	0.628017
H79	H	1.396432	-0.943669	0.627977
H80	H	1.118305	-0.376329	0.627773
H81	H	1.640178	-0.376152	0.907110
