data_functionalizedCrystal
_audit_creation_method	'MofGen! by Chris Wilmer'
_symmetry_space_group_name_H-M	'P1'
_symmetry_Int_Tables_number	1
_symmetry_cell_setting	triclinic
loop_
_symmetry_equiv_pos_as_xyz
  x,y,z
_cell_length_a	14.908993
_cell_length_b	14.908520
_cell_length_c	14.908854
_cell_angle_alpha	89.778335
_cell_angle_beta	96.752834
_cell_angle_gamma	96.420918
loop_
_atom_site_label
_atom_site_type_symbol
_atom_site_fract_x
_atom_site_fract_y
_atom_site_fract_z
Zn1	Zn	1.338568	-0.255995	-0.447721
Zn2	Zn	1.337452	-0.415108	-0.306102
Zn3	Zn	1.194926	-0.272499	-0.306106
Zn4	Zn	1.177431	-0.415056	-0.466133
O5	O	1.262094	-0.339665	-0.381516
O6	O	1.465504	-0.270216	-0.421228
O7	O	1.325399	-0.403120	-0.179863
O8	O	1.221769	-0.144060	-0.317188
O9	O	1.464684	-0.387116	-0.317181
O10	O	1.327303	-0.131934	-0.421232
O11	O	1.220686	-0.298346	-0.179866
O12	O	1.065521	-0.298295	-0.335042
O13	O	1.191952	-0.387027	-0.589930
O14	O	1.052668	-0.403031	-0.452612
O15	O	1.310339	-0.270165	-0.576403
O16	O	1.308436	-0.541351	-0.335034
O17	O	1.190870	-0.541313	-0.452608
C18	C	1.026143	-0.352449	-0.395826
C19	C	0.925199	-0.357939	-0.401971
C20	C	0.748850	-0.259011	-0.291241
C21	C	0.654005	-0.264166	-0.297012
C22	C	0.640662	-0.373409	-0.419277
C23	C	0.735508	-0.368253	-0.413507
C24	C	0.789598	-0.311051	-0.349488
C25	C	0.884445	-0.305892	-0.343722
C26	C	0.871101	-0.415139	-0.465982
C27	C	0.776256	-0.420294	-0.471753
C28	C	1.247657	-0.574065	-0.395837
C29	C	1.241562	-0.674336	-0.401989
C30	C	1.352645	-0.862724	-0.291204
C31	C	1.346921	-0.956937	-0.296982
C32	C	1.224396	-0.956978	-0.419323
C33	C	1.230120	-0.862765	-0.413546
C34	C	1.294245	-0.815641	-0.349484
C35	C	1.299964	-0.721426	-0.343703
C36	C	1.177444	-0.721468	-0.466049
C37	C	1.171720	-0.815682	-0.471826
C38	C	1.498967	-0.326831	-0.367150
C39	C	1.599908	-0.321362	-0.361028
C40	C	1.249319	-0.326749	-0.616815
C41	C	1.243875	-0.321245	-0.717085
C42	C	1.276612	-0.104347	-0.367157
C43	C	1.282798	-0.004068	-0.361038
C44	C	1.342704	-0.420000	-0.905501
C45	C	1.337591	-0.414832	-0.999714
C46	C	1.228543	-0.305735	-0.999725
C47	C	1.233655	-0.310904	-0.905512
C48	C	1.290737	-0.368039	-0.858403
C49	C	1.295844	-0.373212	-0.764189
C50	C	1.186801	-0.264111	-0.764202
C51	C	1.181688	-0.258942	-0.858414
C52	C	1.274876	-0.352462	-0.147125
C53	C	1.280512	-0.357702	-0.046829
H54	H	0.596606	-0.419988	-0.471390
H55	H	0.620831	-0.221788	-0.249583
H56	H	0.792891	-0.212423	-0.239125
F57	F	0.718680	-0.481178	-0.539874
H58	H	1.135217	-0.212422	-0.896783
F59	F	1.167807	-0.244924	-1.049875
H60	H	0.928484	-0.259310	-0.291600
F61	F	0.914475	-0.470513	-0.527990
H62	H	1.342327	-0.419730	-0.725834
H63	H	1.352176	-0.683059	-0.291538
F64	F	1.420880	-0.812570	-0.223015
H65	H	1.144484	-0.221801	-0.725845
H66	H	1.379910	-0.457143	-1.038057
H67	H	1.394478	-0.995269	-0.249526
H68	H	1.172194	-0.995362	-0.471485
F69	F	1.103480	-0.865843	-0.540005
H70	H	1.129888	-0.683122	-0.513501
H71	H	1.389186	-0.466518	-0.867144
