data_functionalizedCrystal
_audit_creation_method	'MofGen! by Chris Wilmer'
_symmetry_space_group_name_H-M	'P1'
_symmetry_Int_Tables_number	1
_symmetry_cell_setting	triclinic
loop_
_symmetry_equiv_pos_as_xyz
  x,y,z
_cell_length_a	13.635800
_cell_length_b	17.110477
_cell_length_c	17.253738
_cell_angle_alpha	75.951152
_cell_angle_beta	77.343198
_cell_angle_gamma	80.939702
loop_
_atom_site_label
_atom_site_type_symbol
_atom_site_fract_x
_atom_site_fract_y
_atom_site_fract_z
V1	V	1.862625	-0.126402	0.250684
O2	O	1.870532	-0.011343	0.246019
O3	O	1.828565	-0.233882	0.248867
O4	O	1.777624	-0.132100	0.360063
O5	O	1.921825	-0.113830	0.134053
V6	V	2.113595	-0.111737	0.236747
O7	O	1.973055	-0.158572	0.281257
O8	O	2.228263	-0.079567	0.206173
O9	O	2.036051	-0.004256	0.238564
O10	O	2.164386	-0.226795	0.241412
O11	O	2.113093	-0.124308	0.353378
O12	O	2.086992	-0.106038	0.127368
V13	V	2.362625	-0.126402	0.250684
O14	O	2.370532	-0.011343	0.246019
O15	O	2.328565	-0.233882	0.248867
O16	O	2.277624	-0.132100	0.360063
O17	O	2.421825	-0.113830	0.134053
V18	V	2.613595	-0.111737	0.236747
O19	O	2.473055	-0.158572	0.281257
O20	O	2.728263	-0.079567	0.206173
O21	O	2.536051	-0.004256	0.238564
O22	O	2.664386	-0.226795	0.241412
O23	O	2.613093	-0.124308	0.353378
O24	O	2.586992	-0.106038	0.127368
C25	C	1.750634	-0.259845	0.244886
C26	C	1.763025	-0.347761	0.244129
C27	C	1.857259	-0.393365	0.247782
C28	C	1.868894	-0.475972	0.247076
C29	C	1.786295	-0.512972	0.242711
C30	C	1.692052	-0.467363	0.239060
C31	C	1.680416	-0.384758	0.239772
C32	C	1.817001	-0.762169	0.240366
C33	C	1.828645	-0.844779	0.239652
C34	C	2.005486	-0.853383	0.247669
C35	C	1.993844	-0.770776	0.248375
C36	C	1.899601	-0.725174	0.244729
C37	C	1.798186	-0.597409	0.241987
C38	C	1.887710	-0.640740	0.245459
C39	C	1.945654	0.021702	0.242543
C40	C	1.922879	0.109617	0.243305
C41	C	1.685654	-0.130011	0.386726
C42	C	1.656733	-0.135381	0.476143
C43	C	1.731536	-0.142124	0.522231
C44	C	1.704374	-0.147160	0.606247
C45	C	1.602411	-0.145457	0.644174
C46	C	1.527604	-0.138710	0.598080
C47	C	1.554765	-0.133669	0.514065
C48	C	2.010635	-0.108130	0.100700
C49	C	2.029176	-0.102756	0.011282
C50	C	2.054059	-0.173469	-0.019305
C51	C	2.071482	-0.168422	-0.103322
C52	C	2.064028	-0.092661	-0.156751
C53	C	2.039140	-0.021943	-0.126159
C54	C	2.021711	-0.026991	-0.042143
C55	C	2.114416	-0.069711	-0.409248
C56	C	2.131851	-0.064668	-0.493270
C57	C	2.164189	-0.211148	-0.470427
C58	C	2.146764	-0.216189	-0.386410
C59	C	2.121872	-0.145471	-0.355825
N60	N	2.081840	-0.087500	-0.242631
N61	N	2.104054	-0.150633	-0.269947
C62	C	2.185654	-0.130011	0.386726
C63	C	2.156733	-0.135381	0.476143
C64	C	2.250634	-0.259845	0.244886
C65	C	2.263025	-0.347761	0.244129
C66	C	2.445654	0.021702	0.242543
C67	C	2.422879	0.109617	0.243305
C68	C	2.510635	-0.108130	0.100700
C69	C	2.529176	-0.102756	0.011282
C70	C	2.357265	-0.393353	0.247789
C71	C	2.368918	-0.475962	0.247090
C72	C	2.286330	-0.512977	0.242726
C73	C	2.192081	-0.467379	0.239069
C74	C	2.180428	-0.384773	0.239773
C75	C	2.501131	0.155208	0.239647
C76	C	2.479748	0.237817	0.240350
C77	C	2.380112	0.274831	0.244715
C78	C	2.301855	0.229234	0.248371
C79	C	2.323240	0.146629	0.247662
C80	C	2.448898	-0.104451	-0.026625
C81	C	2.466303	-0.099392	-0.110643
C82	C	2.563988	-0.092644	-0.156752
C83	C	2.644270	-0.090946	-0.118840
C84	C	2.626864	-0.096000	-0.034824
H85	H	1.924526	-0.363244	0.251328
H86	H	2.543481	0.274931	0.237374
O87	O	2.582748	-0.087191	-0.247371
H88	H	2.664158	-0.082206	-0.273073
H89	H	2.033067	0.039743	-0.169668
H90	H	1.765299	-0.152656	0.643765
H91	H	1.603680	-0.347629	0.236801
O92	O	2.446355	-0.353451	0.252506
H93	H	2.461806	-0.303863	0.197950
O94	O	2.749630	-0.083675	-0.168575
H95	H	2.748237	-0.080457	-0.233361
O96	O	1.474085	-0.126403	0.464355
H97	H	1.431318	-0.180111	0.487065
O98	O	2.107127	-0.902570	0.251608
H99	H	2.163787	-0.876614	0.198594
H100	H	2.001456	0.030591	-0.017241
O101	O	2.098309	-0.244691	-0.136315
H102	H	2.100571	-0.298219	-0.085048
O103	O	2.154774	-0.297903	-0.328781
H104	H	2.174988	-0.346229	-0.364165
O105	O	2.713455	-0.094175	0.006060
H106	H	2.784300	-0.088639	-0.040123
H107	H	2.060134	-0.235162	0.024193
O108	O	1.739541	-0.884686	0.234956
H109	H	1.724131	-0.934284	0.289508
O110	O	2.191017	-0.287421	-0.503412
H111	H	2.201875	-0.271187	-0.570809
O112	O	1.573130	-0.150902	0.734793
H113	H	1.489661	-0.148582	0.753431
O114	O	2.298895	-0.602073	0.241958
H115	H	2.280291	-0.609826	0.184969
H116	H	1.945628	-0.513099	0.250052
O117	O	1.417631	-0.136886	0.638994
H118	H	1.411325	-0.141537	0.705158
H119	H	2.362713	0.342095	0.245291
H120	H	2.445668	-0.513076	0.250067
H121	H	1.624797	-0.497496	0.235511
O122	O	2.123803	0.017049	-0.550902
H123	H	2.103555	0.065376	-0.515520
H124	H	2.061106	-0.740657	0.251935
O125	O	1.715360	-0.712988	0.236430
H126	H	1.659885	-0.752596	0.233267
H127	H	2.124842	-0.497529	0.235516
H128	H	1.954960	-0.610612	0.249017
H129	H	2.103686	-0.347656	0.236789
H130	H	2.582266	0.125082	0.236093
O131	O	2.087526	0.006557	-0.376261
H132	H	2.085265	0.060084	-0.427531
H133	H	2.259511	0.109512	0.250648
O134	O	2.194389	0.269157	0.253097
H135	H	2.192676	0.334253	0.252988
O136	O	2.343547	-0.111788	0.023108
H137	H	2.290663	-0.112129	-0.017375
H138	H	2.400921	-0.100775	-0.141499
H139	H	1.814565	-0.143514	0.491362
O140	O	1.709098	-0.637321	0.237284
H141	H	1.726668	-0.662584	0.181699
