data_functionalizedCrystal
_audit_creation_method	'MofGen! by Chris Wilmer'
_symmetry_space_group_name_H-M	'P1'
_symmetry_Int_Tables_number	1
_symmetry_cell_setting	triclinic
loop_
_symmetry_equiv_pos_as_xyz
  x,y,z
_cell_length_a	13.897449
_cell_length_b	11.169416
_cell_length_c	11.169409
_cell_angle_alpha	89.969126
_cell_angle_beta	89.977985
_cell_angle_gamma	90.011620
loop_
_atom_site_label
_atom_site_type_symbol
_atom_site_fract_x
_atom_site_fract_y
_atom_site_fract_z
Zn1	Zn	1.474764	-0.477669	-0.678625
Zn2	Zn	1.474675	-0.678409	-0.477947
Zn3	Zn	1.313450	-0.477743	-0.477952
Zn4	Zn	1.313456	-0.678313	-0.678584
O5	O	1.394086	-0.578034	-0.578277
O6	O	1.609734	-0.504307	-0.652020
O7	O	1.453249	-0.651862	-0.309998
O8	O	1.334883	-0.309784	-0.504591
O9	O	1.609669	-0.651790	-0.504583
O10	O	1.453400	-0.309729	-0.652024
O11	O	1.334797	-0.504434	-0.310001
O12	O	1.178469	-0.504340	-0.504551
O13	O	1.334893	-0.651626	-0.846540
O14	O	1.178473	-0.651698	-0.651955
O15	O	1.453406	-0.504213	-0.846570
O16	O	1.453254	-0.846346	-0.504543
O17	O	1.334807	-0.846276	-0.651950
C18	C	1.394048	-0.889858	-0.578268
C19	C	1.394120	-1.023258	-0.578304
C20	C	1.143472	-0.578018	-0.578250
C21	C	1.036258	-0.578040	-0.578267
C22	C	0.839963	-0.578044	-0.578298
C23	C	0.949195	-0.578038	-0.578277
C24	C	1.645679	-0.578051	-0.578305
C25	C	1.752893	-0.578058	-0.578317
C26	C	1.394160	-0.577900	-0.891320
C27	C	1.394192	-0.577844	-1.024720
C28	C	1.394151	-0.264991	-0.578313
C29	C	1.394178	-0.131591	-0.578328
C30	C	1.394068	-0.578080	-0.266452
C31	C	1.394223	-0.577799	-0.133053
