data_functionalizedCrystal
_audit_creation_method	'MofGen! by Chris Wilmer'
_symmetry_space_group_name_H-M	'P1'
_symmetry_Int_Tables_number	1
_symmetry_cell_setting	triclinic
loop_
_symmetry_equiv_pos_as_xyz
  x,y,z
_cell_length_a	14.044220
_cell_length_b	10.540539
_cell_length_c	9.616153
_cell_angle_alpha	90.000677
_cell_angle_beta	89.995981
_cell_angle_gamma	88.857185
loop_
_atom_site_label
_atom_site_type_symbol
_atom_site_fract_x
_atom_site_fract_y
_atom_site_fract_z
O1	O	1.259786	0.306255	-0.115485
O2	O	0.983742	0.295204	-0.115521
O3	O	1.128062	0.116660	-0.115501
O4	O	1.115466	0.484799	-0.115506
O5	O	1.128037	0.116665	0.115791
O6	O	0.983717	0.295209	0.115770
O7	O	1.259761	0.306260	0.115806
Zn8	Zn	1.121735	0.300735	0.152511
Zn9	Zn	1.121768	0.300729	-0.152226
O10	O	1.115441	0.484804	0.115786
C11	C	0.948382	0.290368	0.000120
C12	C	0.843059	0.275939	0.000106
C13	C	1.127105	0.069264	0.000142
C14	C	1.124279	-0.071970	0.000134
C15	C	0.650219	0.249558	0.000134
C16	C	0.593279	0.351900	0.000139
C17	C	0.485976	0.337222	0.000154
C18	C	0.757532	0.264235	0.000119
C19	C	1.015989	-0.266345	-0.000399
C20	C	1.018854	-0.119437	0.000122
C21	C	1.174999	-0.128496	0.132220
C22	C	1.171401	-0.275404	0.132331
C23	C	1.173574	-0.275711	-0.130691
C24	C	1.174545	-0.128631	-0.132437
C25	C	1.295121	0.311095	0.000162
C26	C	1.400444	0.325525	0.000166
C27	C	1.116398	0.532200	0.000139
C28	C	1.119224	0.673434	0.000138
N29	N	1.121719	0.300740	0.360485
C30	C	1.044277	0.395881	0.580844
C31	C	1.044451	0.396282	0.419677
C32	C	1.220896	0.340900	0.418947
C33	C	1.220470	0.341589	0.580165
C34	C	1.100961	0.165206	0.580395
C35	C	1.098689	0.165838	0.419168
N36	N	1.121768	0.300728	0.639800
H37	H	0.625117	0.450542	0.000130
N38	N	0.610270	0.125827	0.000146
N39	N	0.521894	0.113931	0.000157
H40	H	0.493669	0.026547	0.000161
N41	N	1.243283	0.466017	0.627304
N42	N	1.191481	0.558937	0.594047
H43	H	1.207590	0.646820	0.627329
N44	N	1.244231	0.463986	0.368269
N45	N	1.187987	0.522345	0.289113
H46	H	1.204463	0.609277	0.253322
N47	N	1.270969	-0.088490	-0.142407
N48	N	1.328835	-0.115117	-0.047541
H49	H	1.396938	-0.086763	-0.054570
H50	H	1.252420	-0.098315	0.137141
N51	N	1.295014	0.256886	0.370826
N52	N	1.362188	0.299078	0.300450
H53	H	1.414534	0.239742	0.266461
H54	H	0.978943	-0.080872	-0.094562
H55	H	1.139745	-0.089457	0.230504
N56	N	1.171842	0.076219	0.628231
N57	N	1.237430	0.112280	0.705733
H58	H	1.287493	0.049443	0.739525
N59	N	0.963768	-0.307502	-0.119238
N60	N	1.002021	-0.381704	-0.204925
H61	H	0.965141	-0.410777	-0.288863
N62	N	1.124331	-0.315520	0.256171
N63	N	1.040418	-0.279959	0.279597
H64	H	1.007170	-0.308284	0.367061
N65	N	1.012129	0.120288	0.631440
N66	N	0.963071	0.187623	0.712234
H67	H	0.900326	0.155916	0.748280
H68	H	1.025729	0.135621	0.380959
H69	H	0.974503	-0.300743	0.093781
N70	N	1.295037	0.258680	0.629075
N71	N	1.347230	0.200501	0.544138
H72	H	1.399896	0.141951	0.578674
N73	N	0.968409	-0.072159	0.119093
N74	N	0.930981	-0.147690	0.202004
H75	H	0.895354	-0.114302	0.286035
N76	N	1.266516	-0.325954	0.139879
N77	N	1.335341	-0.252717	0.145057
H78	H	1.402515	-0.288411	0.150399
N79	N	1.164801	0.071765	0.368611
N80	N	1.230265	0.102754	0.288154
H81	H	1.276964	0.036318	0.252445
H82	H	1.057827	0.496618	0.381098
H83	H	1.139464	-0.310716	-0.230802
N84	N	1.269109	-0.325264	-0.131792
N85	N	1.323892	-0.302178	-0.032934
H86	H	1.391363	-0.337173	-0.033702
N87	N	0.951879	0.364795	0.370108
N88	N	0.886693	0.342354	0.454582
H89	H	0.821261	0.320347	0.419582
H90	H	0.970354	0.370556	0.619646
N91	N	1.128043	-0.081981	-0.255013
N92	N	1.058140	-0.007278	-0.244881
H93	H	1.025294	0.025675	-0.331448
N94	N	1.060822	0.521041	0.631619
N95	N	1.006663	0.610993	0.596563
H96	H	1.018348	0.699388	0.632424
