data_functionalizedCrystal
_audit_creation_method	'MofGen! by Chris Wilmer'
_symmetry_space_group_name_H-M	'P1'
_symmetry_Int_Tables_number	1
_symmetry_cell_setting	triclinic
loop_
_symmetry_equiv_pos_as_xyz
  x,y,z
_cell_length_a	13.897449
_cell_length_b	18.101397
_cell_length_c	13.897441
_cell_angle_alpha	89.966068
_cell_angle_beta	89.978743
_cell_angle_gamma	90.021292
loop_
_atom_site_label
_atom_site_type_symbol
_atom_site_fract_x
_atom_site_fract_y
_atom_site_fract_z
Zn1	Zn	1.474664	-0.294797	-0.545421
Zn2	Zn	1.974664	0.205203	-0.045421
Zn3	Zn	1.474556	-0.418650	-0.384110
Zn4	Zn	1.974556	0.081350	0.115890
Zn5	Zn	1.313359	-0.294829	-0.384132
Zn6	Zn	1.813359	0.205171	0.115868
Zn7	Zn	1.313327	-0.418603	-0.545355
Zn8	Zn	1.813327	0.081397	-0.045355
O9	O	1.393976	-0.356720	-0.464754
O10	O	1.893976	0.143280	0.035246
O11	O	1.609631	-0.311233	-0.524041
O12	O	2.109631	0.188767	-0.024041
O13	O	1.453141	-0.402258	-0.249131
O14	O	1.953141	0.097742	0.250869
O15	O	1.334815	-0.191192	-0.405564
O16	O	1.834815	0.308808	0.094436
O17	O	1.609552	-0.402227	-0.405527
O18	O	2.109552	0.097773	0.094473
O19	O	1.453325	-0.191168	-0.524062
O20	O	1.953325	0.308832	-0.024062
O21	O	1.334710	-0.311287	-0.249147
O22	O	1.834710	0.188713	0.250853
O23	O	1.178373	-0.311241	-0.405500
O24	O	1.678373	0.188759	0.094500
O25	O	1.334760	-0.402146	-0.680346
O26	O	1.834760	0.097854	-0.180346
O27	O	1.178349	-0.402177	-0.523950
O28	O	1.678349	0.097823	-0.023950
O29	O	1.453294	-0.311186	-0.680394
O30	O	1.953294	0.188814	-0.180394
O31	O	1.453110	-0.522277	-0.405463
O32	O	1.953110	-0.022277	0.094537
O33	O	1.334656	-0.522242	-0.523929
O34	O	1.834656	-0.022242	-0.023929
C35	C	1.143362	-0.356708	-0.464721
C36	C	1.643362	0.143292	0.035279
C37	C	1.036148	-0.356721	-0.464729
C38	C	1.536148	0.143279	0.035271
C39	C	0.949078	-0.356724	-0.464745
C40	C	1.449078	0.143276	0.035255
C41	C	0.839846	-0.356729	-0.464775
C42	C	1.339846	0.143271	0.035225
C43	C	1.393894	-0.549130	-0.464708
C44	C	1.893894	-0.049130	0.035292
C45	C	1.393947	-0.631444	-0.464720
C46	C	1.893947	-0.131444	0.035280
C47	C	1.394070	-0.930535	-0.464808
C48	C	1.894070	-0.430535	0.035192
C49	C	1.468390	-0.899201	-0.390073
C50	C	1.968390	-0.399201	0.109927
C51	C	1.468648	-0.813583	-0.390266
C52	C	1.968648	-0.313583	0.109734
C53	C	1.394009	-0.782153	-0.464763
C54	C	1.894009	-0.282153	0.035237
C55	C	1.421566	-0.813155	-0.566438
C56	C	1.921566	-0.313155	-0.066438
C57	C	1.422141	-0.898800	-0.566031
C58	C	1.922141	-0.398800	-0.066031
C59	C	1.291994	-0.899046	-0.438749
C60	C	1.791994	-0.399046	0.061251
C61	C	1.292498	-0.813397	-0.436479
C62	C	1.792498	-0.313397	0.063521
C63	C	1.393973	-0.698293	-0.464745
C64	C	1.893973	-0.198293	0.035255
C65	C	1.394108	-1.014395	-0.464834
C66	C	1.894108	-0.514395	0.035166
C67	C	1.645569	-0.356732	-0.464789
C68	C	2.145569	0.143268	0.035211
C69	C	1.752783	-0.356737	-0.464803
C70	C	2.252783	0.143263	0.035197
C71	C	1.394035	-0.356657	-0.716348
C72	C	1.894035	0.143343	-0.216348
C73	C	1.394061	-0.356631	-0.823562
C74	C	1.894061	0.143369	-0.323562
C75	C	1.394085	-0.163558	-0.464822
C76	C	1.894085	0.336442	0.035178
C77	C	1.394132	-0.081244	-0.464851
C78	C	1.894132	0.418756	0.035149
C79	C	1.394080	-0.356610	-0.910631
C80	C	1.894080	0.143390	-0.410631
C81	C	1.394108	-0.356577	-1.019864
C82	C	1.894108	0.143423	-0.519864
C83	C	1.393973	-0.356728	-0.214140
C84	C	1.893973	0.143272	0.285860
C85	C	1.394135	-0.356546	-0.106927
C86	C	1.894135	0.143454	0.393073
H87	H	1.451407	-0.792625	-0.314876
H88	H	1.951407	-0.292625	0.185124
H89	H	1.271720	-0.793142	-0.361655
H90	H	1.771720	-0.293142	0.138345
H91	H	1.266925	-0.920711	-0.365893
H92	H	1.766925	-0.420711	0.134107
H93	H	1.370380	-0.919525	-0.623634
H94	H	1.870380	-0.419525	-0.123634
H95	H	1.236620	-0.919310	-0.493182
H96	H	1.736620	-0.419310	0.006818
H97	H	1.369089	-0.792794	-0.623619
H98	H	1.869089	-0.292794	-0.123619
H99	H	1.544260	-0.793038	-0.407508
H100	H	2.044260	-0.293038	0.092492
H101	H	1.495343	-0.791646	-0.588885
H102	H	1.995343	-0.291646	-0.088885
H103	H	1.234145	-0.792010	-0.486926
H104	H	1.734145	-0.292010	0.013074
H105	H	1.451358	-0.919848	-0.314457
H106	H	1.951358	-0.419848	0.185543
H107	H	1.496753	-0.918717	-0.588105
H108	H	1.996753	-0.418717	-0.088105
H109	H	1.543589	-0.920668	-0.407117
H110	H	2.043589	-0.420668	0.092883
