data_functionalizedCrystal
_audit_creation_method	'MofGen! by Chris Wilmer'
_symmetry_space_group_name_H-M	'P1'
_symmetry_Int_Tables_number	1
_symmetry_cell_setting	triclinic
loop_
_symmetry_equiv_pos_as_xyz
  x,y,z
_cell_length_a	12.837943
_cell_length_b	11.804365
_cell_length_c	12.837942
_cell_angle_alpha	76.894514
_cell_angle_beta	94.828940
_cell_angle_gamma	103.120467
loop_
_atom_site_label
_atom_site_type_symbol
_atom_site_fract_x
_atom_site_fract_y
_atom_site_fract_z
O1	O	1.421392	0.099004	0.253097
O2	O	1.118260	0.099011	0.239652
O3	O	1.263103	0.099001	0.094809
O4	O	1.276549	0.099015	0.397940
O5	O	1.224967	-0.099053	0.132898
O6	O	1.080124	-0.099042	0.277741
O7	O	1.383256	-0.099049	0.291186
Cu8	Cu	1.228208	-0.117129	0.287942
Cu9	Cu	1.273308	0.117092	0.242897
O10	O	1.238413	-0.099038	0.436029
C11	C	1.060123	-0.000014	0.254155
C12	C	0.943709	-0.000012	0.240610
N13	N	1.196495	-0.281868	0.319624
C14	C	0.718833	-0.000021	0.403441
C15	C	0.609451	-0.000020	0.390720
C16	C	0.615558	-0.000016	0.202448
C17	C	0.724941	-0.000017	0.215170
C18	C	0.776574	-0.000018	0.315669
C19	C	0.885960	-0.000011	0.328388
C20	C	0.892064	-0.000016	0.140119
C21	C	0.782682	-0.000015	0.127397
C22	C	1.381182	-0.655830	0.135107
C23	C	1.405172	-0.531170	0.111135
C24	C	1.353004	-0.468838	0.163255
C25	C	1.276844	-0.531179	0.239351
C26	C	1.252858	-0.655851	0.263332
C27	C	1.224680	-0.468859	0.291480
C28	C	1.148520	-0.531200	0.367576
C29	C	1.124537	-0.655859	0.391552
C30	C	1.176705	-0.718191	0.339432
C31	C	1.248666	-0.344187	0.267499
C32	C	1.120341	-0.344208	0.395724
C33	C	1.096352	-0.468868	0.419696
C34	C	1.441394	-0.000021	0.276683
C35	C	1.557810	-0.000015	0.290226
C36	C	1.239494	-0.000025	0.074784
C37	C	1.225950	-0.000023	-0.041631
N38	N	1.305029	0.281830	0.211207
C39	C	1.388783	-0.000002	-0.266509
C40	C	1.376062	0.000000	-0.375892
C41	C	1.187790	-0.000008	-0.369783
C42	C	1.200511	-0.000010	-0.260400
C43	C	1.301010	-0.000009	-0.208767
C44	C	1.313729	-0.000020	-0.099380
C45	C	1.125459	-0.000019	-0.093275
C46	C	1.112738	-0.000017	-0.202658
C47	C	1.262023	-0.000010	0.456053
C48	C	1.275568	-0.000004	0.572467
H49	H	0.927998	-0.000014	0.410221
F50	F	1.436704	-0.722171	0.079653
H51	H	0.562441	-0.000025	0.462194
H52	H	1.034341	-0.519641	0.481656
F53	F	1.064821	-0.277875	0.451202
F54	F	1.495736	-0.000026	-0.211550
F55	F	1.420686	-0.000026	-0.044428
H56	H	1.157170	-0.819700	0.358947
H57	H	1.030914	-0.000013	-0.244714
H58	H	1.062532	-0.706617	0.453523
H59	H	1.447537	0.000010	-0.422903
H60	H	1.310676	-0.293440	0.205542
H61	H	1.372540	-0.367334	0.143733
H62	H	1.105970	0.000004	-0.411845
F63	F	1.032036	-0.000039	-0.031812
H64	H	0.760874	-0.000020	0.485272
F65	F	0.953528	0.000002	0.046697
H66	H	1.467182	-0.480417	0.049179
H67	H	0.573481	-0.000114	0.120645
H68	H	0.740624	-0.000028	0.045576
