data_functionalizedCrystal
_audit_creation_method	'MofGen! by Chris Wilmer'
_symmetry_space_group_name_H-M	'P1'
_symmetry_Int_Tables_number	1
_symmetry_cell_setting	triclinic
loop_
_symmetry_equiv_pos_as_xyz
  x,y,z
_cell_length_a	12.837943
_cell_length_b	12.837942
_cell_length_c	11.892095
_cell_angle_alpha	85.697431
_cell_angle_beta	94.310562
_cell_angle_gamma	94.828940
loop_
_atom_site_label
_atom_site_type_symbol
_atom_site_fract_x
_atom_site_fract_y
_atom_site_fract_z
O1	O	-1.408367	-0.266110	-0.093982
O2	O	-1.105234	-0.252667	-0.093989
O3	O	-1.250078	-0.107822	-0.093979
O4	O	-1.263522	-0.410955	-0.093992
O5	O	-1.237999	-0.119879	0.094028
O6	O	-1.093155	-0.264723	0.094018
O7	O	-1.396288	-0.278167	0.094025
Zn8	Zn	-1.242803	-0.273359	0.123871
Zn9	Zn	-1.258718	-0.257474	-0.123836
O10	O	-1.251443	-0.423011	0.094014
C11	C	-1.060125	-0.254153	0.000014
C12	C	-0.943710	-0.240609	0.000011
C13	C	-1.239497	-0.074781	0.000024
C14	C	-1.225953	0.041634	0.000022
C15	C	-1.441397	-0.276680	0.000020
C16	C	-1.557812	-0.290224	0.000015
C17	C	-1.262024	-0.456052	0.000009
C18	C	-1.275569	-0.572467	0.000004
C19	C	-0.718835	-0.403439	0.000020
C20	C	-0.609453	-0.390717	0.000019
C21	C	-0.615561	-0.202446	0.000015
C22	C	-0.724943	-0.215167	0.000017
C23	C	-0.776577	-0.315667	0.000017
C24	C	-0.885961	-0.328387	0.000011
C25	C	-0.892066	-0.140117	0.000015
C26	C	-0.782684	-0.127395	0.000014
N27	N	-1.231950	-0.284200	0.292925
C28	C	-1.388784	0.266509	0.000002
C29	C	-1.376062	0.375892	-0.000000
C30	C	-1.187791	0.369784	0.000007
C31	C	-1.200512	0.260402	0.000009
C32	C	-1.301011	0.208768	0.000008
C33	C	-1.313731	0.099383	0.000019
C34	C	-1.125461	0.093278	0.000018
C35	C	-1.112740	0.202660	0.000016
N36	N	-1.269579	-0.246626	-0.292889
C37	C	-1.345098	-0.171130	0.529580
C38	C	-1.337519	-0.178716	0.647922
C39	C	-1.209210	-0.306952	0.647951
C40	C	-1.216788	-0.299366	0.529610
C41	C	-1.284736	-0.231454	0.470428
C42	C	-1.292319	-0.223874	0.352085
C43	C	-1.164005	-0.352104	0.352116
C44	C	-1.156426	-0.359690	0.470458
H45	H	-0.928000	-0.410219	0.000013
C46	C	-0.774707	-0.512636	0.000070
C47	C	-0.700725	-0.586784	0.000092
C48	C	-0.752152	-0.687389	0.000152
H49	H	-0.821460	-0.517454	-0.065474
H50	H	-0.813012	-0.525772	0.065659
H51	H	-0.662437	-0.573652	-0.065490
H52	H	-0.653969	-0.582001	0.065631
H53	H	-0.790458	-0.700526	0.065740
H54	H	-0.798904	-0.692196	-0.065394
H55	H	-0.701963	-0.737712	0.000177
H56	H	-0.562444	-0.462191	0.000024
C57	C	-0.559632	-0.093270	-0.000158
C58	C	-0.594300	-0.033360	-0.096871
C59	C	-0.542811	0.067221	-0.097062
H60	H	-0.486212	-0.098122	-0.000213
H61	H	-0.574626	-0.060819	0.065369
H62	H	-0.579299	-0.065803	-0.162381
H63	H	-0.667713	-0.028479	-0.096837
H64	H	-0.557805	0.099672	-0.031535
H65	H	-0.469393	0.062359	-0.097114
H66	H	-0.566333	0.107885	-0.162675
C67	C	-0.726766	-0.018214	-0.000169
C68	C	-0.761448	0.041682	-0.096886
C69	C	-0.709972	0.142270	-0.097090
H70	H	-0.653345	-0.023056	-0.000227
H71	H	-0.741762	0.014240	0.065355
H72	H	-0.746444	0.009236	-0.162393
H73	H	-0.834862	0.046553	-0.096849
H74	H	-0.724968	0.174724	-0.031566
H75	H	-0.636553	0.137418	-0.097145
H76	H	-0.733503	0.182925	-0.162706
H77	H	-0.939091	-0.068646	0.000005
H78	H	-1.395563	0.057344	0.000022
C79	C	-1.497852	0.210374	0.000239
C80	C	-1.504449	0.141578	0.096980
C81	C	-1.604912	0.089861	0.097244
H82	H	-1.511048	0.171944	-0.065245
H83	H	-1.548334	0.260396	0.000301
H84	H	-1.453983	0.091563	0.096908
H85	H	-1.491273	0.179981	0.162480
H86	H	-1.655394	0.139883	0.097306
H87	H	-1.618099	0.051438	0.031756
H88	H	-1.609405	0.043184	0.162886
H89	H	-1.447536	0.422901	-0.000009
C90	C	-1.082733	-0.433582	0.534568
C91	C	-1.111701	-0.536289	0.505756
C92	C	-1.043829	-0.604387	0.564777
H93	H	-1.086797	-0.429603	0.613538
H94	H	-1.012973	-0.414092	0.515159
H95	H	-1.181443	-0.555773	0.525173
H96	H	-1.107631	-0.540302	0.426796
H97	H	-0.974069	-0.584897	0.545368
H98	H	-1.047898	-0.600398	0.643744
H99	H	-1.063468	-0.674080	0.545228
C100	C	-1.078678	0.425820	-0.000238
C101	C	-1.031205	0.403588	-0.096978
C102	C	-0.930697	0.455204	-0.097254
H103	H	-1.037740	0.402498	0.065247
H104	H	-1.083642	0.499246	-0.000309
H105	H	-1.026235	0.330178	-0.096897
H106	H	-1.072112	0.426913	-0.162479
H107	H	-0.935662	0.528629	-0.097324
H108	H	-0.889769	0.431878	-0.031765
H109	H	-0.898478	0.440134	-0.162895
H110	H	-1.030916	0.244716	0.000012
H111	H	-1.053990	0.046252	0.000033
C112	C	-1.366106	-0.150041	0.288032
C113	C	-1.417323	-0.098814	0.365171
C114	C	-1.485292	-0.030778	0.306211
H115	H	-1.416451	-0.188950	0.241852
H116	H	-1.327116	-0.099713	0.241901
H117	H	-1.456311	-0.149135	0.411282
H118	H	-1.367004	-0.059885	0.411353
H119	H	-1.446302	0.019550	0.260080
H120	H	-1.535630	-0.069695	0.260033
H121	H	-1.520043	0.003995	0.358540
H122	H	-1.400430	-0.115841	0.481394
H123	H	-1.386671	-0.129593	0.696080
C124	C	-1.135257	-0.380524	0.712165
C125	C	-1.032552	-0.351460	0.683420
C126	C	-0.964394	-0.419197	0.742566
H127	H	-1.154617	-0.450318	0.692833
H128	H	-1.139320	-0.376376	0.791125
H129	H	-1.028494	-0.355618	0.604478
H130	H	-1.013161	-0.281677	0.702755
H131	H	-0.968456	-0.415049	0.821527
H132	H	-0.983763	-0.488987	0.723231
H133	H	-0.894700	-0.399481	0.723080
H134	H	-1.114857	-0.401227	0.303941
