data_functionalizedCrystal
_audit_creation_method	'MofGen! by Chris Wilmer'
_symmetry_space_group_name_H-M	'P1'
_symmetry_Int_Tables_number	1
_symmetry_cell_setting	triclinic
loop_
_symmetry_equiv_pos_as_xyz
  x,y,z
_cell_length_a	14.044220
_cell_length_b	9.065218
_cell_length_c	7.540329
_cell_angle_alpha	89.998628
_cell_angle_beta	89.996748
_cell_angle_gamma	90.897619
loop_
_atom_site_label
_atom_site_type_symbol
_atom_site_fract_x
_atom_site_fract_y
_atom_site_fract_z
O1	O	1.260760	-0.356074	0.147280
O2	O	0.984680	-0.343225	0.147326
O3	O	1.128427	-0.135639	0.147298
O4	O	1.117014	-0.563659	0.147308
O5	O	1.128422	-0.135637	-0.147667
O6	O	0.984675	-0.343222	-0.147639
O7	O	1.260755	-0.356071	-0.147685
Cu8	Cu	1.122715	-0.349647	-0.174595
Cu9	Cu	1.122721	-0.349649	0.174236
O10	O	1.117009	-0.563657	-0.147657
C11	C	0.949315	-0.337599	-0.000151
C12	C	0.843945	-0.320822	-0.000133
C13	C	1.127327	-0.080530	-0.000181
C14	C	1.124048	0.083677	-0.000172
N15	N	1.122717	-0.349645	-0.419943
C16	C	0.651021	-0.290150	-0.000169
C17	C	0.594409	-0.409139	-0.000174
C18	C	0.487059	-0.392073	-0.000194
C19	C	0.758381	-0.307214	-0.000149
C20	C	1.296120	-0.361697	-0.000204
C21	C	1.401490	-0.378474	-0.000210
C22	C	1.118108	-0.618766	-0.000174
C23	C	1.121388	-0.782972	-0.000171
N24	N	1.122725	-0.349641	0.419584
H25	H	0.626565	-0.523826	-0.000163
C26	C	0.607581	-0.135223	-0.000168
N27	N	0.574852	-0.018533	-0.000159
