data_functionalizedCrystal
_audit_creation_method	'MofGen! by Chris Wilmer'
_symmetry_space_group_name_H-M	'P1'
_symmetry_Int_Tables_number	1
_symmetry_cell_setting	triclinic
loop_
_symmetry_equiv_pos_as_xyz
  x,y,z
_cell_length_a	10.654548
_cell_length_b	10.654551
_cell_length_c	9.130313
_cell_angle_alpha	89.997246
_cell_angle_beta	89.999788
_cell_angle_gamma	84.484783
loop_
_atom_site_label
_atom_site_type_symbol
_atom_site_fract_x
_atom_site_fract_y
_atom_site_fract_z
O1	O	1.667842	0.176387	-0.121682
O2	O	1.302363	0.193196	-0.121708
O3	O	1.493505	0.002052	-0.121691
O4	O	1.476700	0.367531	-0.121699
O5	O	1.493491	0.002047	0.121908
O6	O	1.302350	0.193190	0.121890
O7	O	1.667828	0.176381	0.121917
Cu8	Cu	1.485088	0.184785	0.144146
Cu9	Cu	1.485103	0.184792	-0.143938
O10	O	1.476687	0.367525	0.121900
C11	C	1.255558	0.191959	0.000088
C12	C	1.116115	0.188268	0.000077
C13	C	1.492264	-0.044749	0.000106
C14	C	1.488571	-0.184192	0.000099
C15	C	1.714633	0.177618	0.000118
C16	C	1.854076	0.181309	0.000119
C17	C	2.050625	0.186527	0.132874
C18	C	1.919605	0.183043	0.132896
C19	C	1.919576	0.183047	-0.132689
C20	C	2.050595	0.186522	-0.132709
C21	C	1.486845	-0.249692	-0.132689
C22	C	1.483365	-0.380713	-0.132690
C23	C	1.483342	-0.380721	0.132895
C24	C	1.486813	-0.249702	0.132895
C25	C	1.477928	0.414326	0.000100
C26	C	1.481620	0.553769	0.000097
N27	N	1.485086	0.184780	0.346769
N28	N	1.485115	0.184787	-0.346560
C29	C	1.569752	0.100177	0.423428
C30	C	1.569764	0.100178	0.576765
C31	C	1.400440	0.269394	0.576770
C32	C	1.400423	0.269387	0.423436
H33	H	2.103968	0.187949	0.240997
C34	C	1.481470	-0.452765	-0.278752
H35	H	1.479138	-0.540176	-0.259739
H36	H	1.555153	-0.440234	-0.333305
H37	H	1.408926	-0.422344	-0.333319
C38	C	1.488769	-0.177628	-0.278753
H39	H	1.491096	-0.090217	-0.259740
H40	H	1.415096	-0.190157	-0.333323
H41	H	1.561323	-0.208044	-0.333302
H42	H	1.481914	-0.434075	0.241012
H43	H	1.488212	-0.196369	0.241033
H44	H	1.638706	0.031285	0.639177
C45	C	1.662866	0.007103	0.339100
H46	H	1.713283	-0.043290	0.406722
H47	H	1.715531	0.052761	0.279267
H48	H	1.617220	-0.045605	0.279303
H49	H	2.103918	0.187937	-0.240855
C50	C	1.307330	0.362465	0.661107
H51	H	1.319474	0.350363	0.763408
H52	H	1.223392	0.348049	0.635998
H53	H	1.321702	0.446414	0.635960
H54	H	1.331471	0.338280	0.361015
H55	H	1.866289	0.181625	0.241033
H56	H	1.866213	0.181626	-0.240798
