data_functionalizedCrystal
_audit_creation_method	'MofGen! by Chris Wilmer'
_symmetry_space_group_name_H-M	'P1'
_symmetry_Int_Tables_number	1
_symmetry_cell_setting	triclinic
loop_
_symmetry_equiv_pos_as_xyz
  x,y,z
_cell_length_a	13.897449
_cell_length_b	18.050589
_cell_length_c	13.897441
_cell_angle_alpha	89.972127
_cell_angle_beta	89.979267
_cell_angle_gamma	90.029500
loop_
_atom_site_label
_atom_site_type_symbol
_atom_site_fract_x
_atom_site_fract_y
_atom_site_fract_z
Zn1	Zn	1.474632	-0.295610	-0.545399
Zn2	Zn	1.724632	-0.045610	-0.295399
Zn3	Zn	1.974632	0.204390	-0.045399
Zn4	Zn	2.224632	0.454390	0.204601
Zn5	Zn	1.474496	-0.419815	-0.384108
Zn6	Zn	1.724496	-0.169815	-0.134108
Zn7	Zn	1.974496	0.080185	0.115892
Zn8	Zn	2.224496	0.330185	0.365892
Zn9	Zn	1.313321	-0.295646	-0.384118
Zn10	Zn	1.563321	-0.045646	-0.134118
Zn11	Zn	1.813321	0.204354	0.115882
Zn12	Zn	2.063321	0.454354	0.365882
Zn13	Zn	1.313273	-0.419766	-0.545361
Zn14	Zn	1.563273	-0.169766	-0.295361
Zn15	Zn	1.813273	0.080234	-0.045361
Zn16	Zn	2.063273	0.330234	0.204639
O17	O	1.393931	-0.357709	-0.464747
O18	O	1.643931	-0.107709	-0.214747
O19	O	1.893931	0.142291	0.035253
O20	O	2.143931	0.392291	0.285253
O21	O	1.609596	-0.312092	-0.524016
O22	O	1.859596	-0.062092	-0.274016
O23	O	2.109596	0.187908	-0.024016
O24	O	2.359596	0.437908	0.225984
O25	O	1.453079	-0.403379	-0.249128
O26	O	1.703079	-0.153379	0.000872
O27	O	1.953079	0.096621	0.250872
O28	O	2.203079	0.346621	0.500872
O29	O	1.334796	-0.191716	-0.405532
O30	O	1.584796	0.058284	-0.155532
O31	O	1.834796	0.308284	0.094468
O32	O	2.084796	0.558284	0.344468
O33	O	1.609496	-0.403344	-0.405516
O34	O	1.859496	-0.153344	-0.155516
O35	O	2.109496	0.096656	0.094484
O36	O	2.359496	0.346656	0.344484
O37	O	1.453311	-0.191690	-0.524025
O38	O	1.703311	0.058310	-0.274025
O39	O	1.953311	0.308310	-0.024025
O40	O	2.203311	0.558310	0.225975
O41	O	1.334665	-0.312152	-0.249135
O42	O	1.584665	-0.062152	0.000865
O43	O	1.834665	0.187848	0.250865
O44	O	2.084665	0.437848	0.500865
O45	O	1.178333	-0.312105	-0.405495
O46	O	1.428333	-0.062105	-0.155495
O47	O	1.678333	0.187895	0.094505
O48	O	1.928333	0.437895	0.344505
O49	O	1.334715	-0.403261	-0.680348
O50	O	1.584715	-0.153261	-0.430348
O51	O	1.834715	0.096739	-0.180348
O52	O	2.084715	0.346739	0.069652
O53	O	1.178298	-0.403295	-0.523960
O54	O	1.428298	-0.153295	-0.273960
O55	O	1.678298	0.096705	-0.023960
O56	O	1.928298	0.346705	0.226040
O57	O	1.453264	-0.312045	-0.680376
O58	O	1.703264	-0.062045	-0.430376
O59	O	1.953264	0.187955	-0.180376
O60	O	2.203264	0.437955	0.069624
O61	O	1.453033	-0.523733	-0.405479
O62	O	1.703033	-0.273733	-0.155479
O63	O	1.953033	-0.023733	0.094521
O64	O	2.203033	0.226267	0.344521
O65	O	1.334583	-0.523697	-0.523951
O66	O	1.584583	-0.273697	-0.273951
O67	O	1.834583	-0.023697	-0.023951
O68	O	2.084583	0.226303	0.226049
C69	C	1.143316	-0.357699	-0.464725
C70	C	1.393316	-0.107699	-0.214725
C71	C	1.643316	0.142301	0.035275
C72	C	1.893316	0.392301	0.285275
C73	C	1.036102	-0.357713	-0.464738
C74	C	1.286102	-0.107713	-0.214738
C75	C	1.536102	0.142287	0.035262
C76	C	1.786102	0.392287	0.285262
C77	C	0.839807	-0.357716	-0.464763
C78	C	1.089807	-0.107716	-0.214763
C79	C	1.339807	0.142284	0.035237
C80	C	1.589807	0.392284	0.285237
C81	C	0.949040	-0.357712	-0.464747
C82	C	1.199040	-0.107712	-0.214747
C83	C	1.449040	0.142288	0.035253
C84	C	1.699040	0.392288	0.285253
C85	C	1.393814	-0.550661	-0.464731
C86	C	1.643814	-0.300661	-0.214731
C87	C	1.893814	-0.050661	0.035269
C88	C	2.143814	0.199339	0.285269
C89	C	1.393853	-0.633207	-0.464756
C90	C	1.643853	-0.383207	-0.214756
C91	C	1.893853	-0.133207	0.035244
C92	C	2.143853	0.116793	0.285244
C93	C	1.329503	-0.832665	-0.529158
C94	C	1.579503	-0.582665	-0.279158
C95	C	1.829503	-0.332665	-0.029158
C96	C	2.079503	-0.082665	0.220842
C97	C	1.305986	-0.882111	-0.441140
C98	C	1.555986	-0.632111	-0.191140
C99	C	1.805986	-0.382111	0.058860
C100	C	2.055986	-0.132111	0.308860
C101	C	1.393947	-0.784337	-0.464769
C102	C	1.643947	-0.534337	-0.214769
C103	C	1.893947	-0.284337	0.035231
C104	C	2.143947	-0.034337	0.285231
C105	C	1.417512	-0.881973	-0.552797
C106	C	1.667512	-0.631973	-0.302797
C107	C	1.917512	-0.381973	-0.052797
C108	C	2.167512	-0.131973	0.197203
C109	C	1.394037	-0.930323	-0.464789
C110	C	1.644037	-0.680323	-0.214789
C111	C	1.894037	-0.430323	0.035211
C112	C	2.144037	-0.180323	0.285211
C113	C	1.370384	-0.832696	-0.376703
C114	C	1.620384	-0.582696	-0.126703
C115	C	1.870384	-0.332696	0.123297
C116	C	2.120384	-0.082696	0.373297
C117	C	1.481951	-0.832554	-0.488420
C118	C	1.731951	-0.582554	-0.238420
C119	C	1.981951	-0.332554	0.011580
C120	C	2.231951	-0.082554	0.261580
C121	C	1.458467	-0.881977	-0.400341
C122	C	1.708467	-0.631977	-0.150341
C123	C	1.958467	-0.381977	0.099659
C124	C	2.208467	-0.131977	0.349659
C125	C	1.393893	-0.700239	-0.464758
C126	C	1.643893	-0.450239	-0.214758
C127	C	1.893893	-0.200239	0.035242
C128	C	2.143893	0.049761	0.285242
C129	C	1.394092	-1.014419	-0.464789
C130	C	1.644092	-0.764419	-0.214789
C131	C	1.894092	-0.514419	0.035211
C132	C	2.144092	-0.264419	0.285211
C133	C	1.645524	-0.357720	-0.464769
C134	C	1.895524	-0.107720	-0.214769
C135	C	2.145524	0.142280	0.035231
C136	C	2.395524	0.392280	0.285231
C137	C	1.752738	-0.357724	-0.464779
C138	C	2.002738	-0.107724	-0.214779
C139	C	2.252738	0.142276	0.035221
C140	C	2.502738	0.392276	0.285221
C141	C	1.393999	-0.357644	-0.716340
C142	C	1.643999	-0.107644	-0.466340
C143	C	1.893999	0.142356	-0.216340
C144	C	2.143999	0.392356	0.033660
C145	C	1.394028	-0.357616	-0.823554
C146	C	1.644028	-0.107616	-0.573554
C147	C	1.894028	0.142384	-0.323554
C148	C	2.144028	0.392384	-0.073554
C149	C	1.394074	-0.164004	-0.464784
C150	C	1.644074	0.085996	-0.214784
C151	C	1.894074	0.335996	0.035216
C152	C	2.144074	0.585996	0.285216
C153	C	1.394135	-0.081458	-0.464800
C154	C	1.644135	0.168542	-0.214800
C155	C	1.894135	0.418542	0.035200
C156	C	2.144135	0.668542	0.285200
C157	C	1.394055	-0.357565	-1.019849
C158	C	1.644055	-0.107565	-0.769849
C159	C	1.894055	0.142435	-0.519849
C160	C	2.144055	0.392435	-0.269849
C161	C	1.394037	-0.357595	-0.910616
C162	C	1.644037	-0.107595	-0.660616
C163	C	1.894037	0.142405	-0.410616
C164	C	2.144037	0.392405	-0.160616
C165	C	1.393918	-0.357721	-0.214132
C166	C	1.643918	-0.107721	0.035868
C167	C	1.893918	0.142279	0.285868
C168	C	2.143918	0.392279	0.535868
C169	C	1.394076	-0.357540	-0.106919
C170	C	1.644076	-0.107540	0.143081
C171	C	1.894076	0.142460	0.393081
C172	C	2.144076	0.392460	0.643081
H173	H	1.274924	-0.811012	-0.583534
H174	H	1.524924	-0.561012	-0.333534
H175	H	1.774924	-0.311012	-0.083534
H176	H	2.024924	-0.061012	0.166466
C177	C	1.443914	-0.910734	-0.652133
C178	C	1.693914	-0.660734	-0.402133
C179	C	1.943914	-0.410734	-0.152133
C180	C	2.193914	-0.160734	0.097867
C181	C	1.376170	-0.885732	-0.719236
C182	C	1.626170	-0.635732	-0.469236
C183	C	1.876170	-0.385732	-0.219236
C184	C	2.126170	-0.135732	0.030764
C185	C	1.400460	-0.912201	-0.810756
C186	C	1.650460	-0.662201	-0.560756
C187	C	1.900460	-0.412201	-0.310756
C188	C	2.150460	-0.162201	-0.060756
H189	H	1.444316	-0.963354	-0.651417
H190	H	1.694316	-0.713354	-0.401417
H191	H	1.944316	-0.463354	-0.151417
H192	H	2.194316	-0.213354	0.098583
H193	H	1.505942	-0.893015	-0.669421
H194	H	1.755942	-0.643015	-0.419421
H195	H	2.005942	-0.393015	-0.169421
H196	H	2.255942	-0.143015	0.080579
H197	H	1.314159	-0.903455	-0.701952
H198	H	1.564159	-0.653455	-0.451952
H199	H	1.814159	-0.403455	-0.201952
H200	H	2.064159	-0.153455	0.048048
H201	H	1.375758	-0.833115	-0.719982
H202	H	1.625758	-0.583115	-0.469982
H203	H	1.875758	-0.333115	-0.219982
H204	H	2.125758	-0.083115	0.030018
H205	H	1.462487	-0.894481	-0.828044
H206	H	1.712487	-0.644481	-0.578044
H207	H	1.962487	-0.394481	-0.328044
H208	H	2.212487	-0.144481	-0.078044
H209	H	1.400862	-0.964820	-0.810030
H210	H	1.650862	-0.714820	-0.560030
H211	H	1.900862	-0.464820	-0.310030
H212	H	2.150862	-0.214820	-0.060030
H213	H	1.354505	-0.895235	-0.856297
H214	H	1.604505	-0.645235	-0.606297
H215	H	1.854505	-0.395235	-0.356297
H216	H	2.104505	-0.145235	-0.106297
C217	C	1.581158	-0.803648	-0.515191
C218	C	1.831158	-0.553648	-0.265191
C219	C	2.081158	-0.303648	-0.015191
C220	C	2.331158	-0.053648	0.234809
C221	C	1.642757	-0.863496	-0.532730
C222	C	1.892757	-0.613496	-0.282730
C223	C	2.142757	-0.363496	-0.032730
C224	C	2.392757	-0.113496	0.217270
C225	C	1.734150	-0.836895	-0.557418
C226	C	1.984150	-0.586895	-0.307418
C227	C	2.234150	-0.336895	-0.057418
C228	C	2.484150	-0.086895	0.192582
H229	H	1.605980	-0.774716	-0.463795
H230	H	1.855980	-0.524716	-0.213795
H231	H	2.105980	-0.274716	0.036205
H232	H	2.355980	-0.024716	0.286205
H233	H	1.576546	-0.773946	-0.571455
H234	H	1.826546	-0.523946	-0.321455
H235	H	2.076546	-0.273946	-0.071455
H236	H	2.326546	-0.023946	0.178545
H237	H	1.647372	-0.893185	-0.476473
H238	H	1.897372	-0.643185	-0.226473
H239	H	2.147372	-0.393185	0.023527
H240	H	2.397372	-0.143185	0.273527
H241	H	1.617965	-0.892434	-0.584130
H242	H	1.867965	-0.642434	-0.334130
H243	H	2.117965	-0.392434	-0.084130
H244	H	2.367965	-0.142434	0.165870
H245	H	1.729538	-0.807194	-0.613682
H246	H	1.979538	-0.557194	-0.363682
H247	H	2.229538	-0.307194	-0.113682
H248	H	2.479538	-0.057194	0.136318
H249	H	1.758963	-0.807963	-0.506018
H250	H	2.008963	-0.557963	-0.256018
H251	H	2.258963	-0.307963	-0.006018
H252	H	2.508963	-0.057963	0.243982
H253	H	1.775953	-0.877497	-0.569329
H254	H	2.025953	-0.627497	-0.319329
H255	H	2.275953	-0.377497	-0.069329
H256	H	2.525953	-0.127497	0.180671
C257	C	1.206737	-0.911098	-0.414651
C258	C	1.456737	-0.661098	-0.164651
C259	C	1.706737	-0.411098	0.085349
C260	C	1.956737	-0.161098	0.335349
C261	C	1.139507	-0.886134	-0.482293
C262	C	1.389507	-0.636134	-0.232293
C263	C	1.639507	-0.386134	0.017707
C264	C	1.889507	-0.136134	0.267707
C265	C	1.048071	-0.912826	-0.457937
C266	C	1.298071	-0.662826	-0.207937
C267	C	1.548071	-0.412826	0.042063
C268	C	1.798071	-0.162826	0.292063
H269	H	1.189455	-0.893517	-0.352598
H270	H	1.439455	-0.643517	-0.102598
H271	H	1.689455	-0.393517	0.147402
H272	H	1.939455	-0.143517	0.397402
H273	H	1.207595	-0.963726	-0.414317
H274	H	1.457595	-0.713726	-0.164317
H275	H	1.707595	-0.463726	0.085683
H276	H	1.957595	-0.213726	0.335683
H277	H	1.138646	-0.833517	-0.482617
H278	H	1.388646	-0.583517	-0.232617
H279	H	1.638646	-0.333517	0.017383
H280	H	1.888646	-0.083517	0.267383
H281	H	1.156758	-0.903712	-0.544352
H282	H	1.406758	-0.653712	-0.294352
H283	H	1.656758	-0.403712	-0.044352
H284	H	1.906758	-0.153712	0.205648
H285	H	1.048929	-0.965454	-0.457602
H286	H	1.298929	-0.715454	-0.207602
H287	H	1.548929	-0.465454	0.042398
H288	H	1.798929	-0.215454	0.292398
H289	H	1.030798	-0.895244	-0.395882
H290	H	1.280798	-0.645244	-0.145882
H291	H	1.530798	-0.395244	0.104118
H292	H	1.780798	-0.145244	0.354118
H293	H	1.002446	-0.895897	-0.503832
H294	H	1.252446	-0.645897	-0.253832
H295	H	1.502446	-0.395897	-0.003832
H296	H	1.752446	-0.145897	0.246168
H297	H	1.350403	-0.811140	-0.302246
H298	H	1.600403	-0.561140	-0.052246
H299	H	1.850403	-0.311140	0.197754
H300	H	2.100403	-0.061140	0.447754
H301	H	1.513005	-0.903493	-0.345834
H302	H	1.763005	-0.653493	-0.095834
H303	H	2.013005	-0.403493	0.154166
H304	H	2.263005	-0.153493	0.404166
