data_functionalizedCrystal
_audit_creation_method	'MofGen! by Chris Wilmer'
_symmetry_space_group_name_H-M	'P1'
_symmetry_Int_Tables_number	1
_symmetry_cell_setting	triclinic
loop_
_symmetry_equiv_pos_as_xyz
  x,y,z
_cell_length_a	18.050589
_cell_length_b	15.298563
_cell_length_c	15.296720
_cell_angle_alpha	72.675135
_cell_angle_beta	99.646980
_cell_angle_gamma	80.279151
loop_
_atom_site_label
_atom_site_type_symbol
_atom_site_fract_x
_atom_site_fract_y
_atom_site_fract_z
Zn1	Zn	-0.145783	-1.330589	-0.280242
Zn2	Zn	-0.244012	-1.357394	-0.124769
Zn3	Zn	-0.145828	-1.202005	-0.151618
Zn4	Zn	-0.295946	-1.175031	-0.307075
O5	O	-0.207892	-1.266255	-0.215926
O6	O	-0.137059	-1.464276	-0.237153
O7	O	-0.209272	-1.359288	0.001795
O8	O	-0.041889	-1.219133	-0.168687
O9	O	-0.209228	-1.483970	-0.122927
O10	O	-0.041855	-1.313603	-0.263186
O11	O	-0.137137	-1.245125	-0.017931
O12	O	-0.187496	-1.068296	-0.194705
O13	O	-0.297742	-1.173160	-0.433641
O14	O	-0.297786	-1.048478	-0.308919
O15	O	-0.187417	-1.287447	-0.413927
O16	O	-0.354835	-1.333132	-0.148946
O17	O	-0.392990	-1.199151	-0.282886
C18	C	-0.248282	-1.024645	-0.257638
C19	C	-0.265583	-0.921279	-0.275505
C20	C	-0.331189	-0.862444	-0.343268
C21	C	-0.347441	-0.765326	-0.360063
C22	C	-0.298093	-0.727033	-0.309092
C23	C	-0.232488	-0.785869	-0.241323
C24	C	-0.216231	-0.882997	-0.224531
C25	C	-0.183135	-0.747586	-0.190355
C26	C	-0.117530	-0.806422	-0.122586
C27	C	-0.101276	-0.903539	-0.105797
C28	C	-0.150625	-0.941832	-0.156768
C29	C	-0.199392	-0.650458	-0.207147
C30	C	-0.084434	-0.671011	-0.088410
C31	C	-0.068182	-0.768129	-0.071615
C32	C	-0.400860	-1.266145	-0.215930
C33	C	-0.483404	-1.266178	-0.215948
C34	C	-0.703617	-1.193384	-0.288752
C35	C	-0.742667	-1.185411	-0.207812
C36	C	-0.634521	-1.266267	-0.215945
C37	C	-0.742547	-1.274284	-0.296886
C38	C	-0.780495	-1.266350	-0.215949
C39	C	-0.672484	-1.258257	-0.134968
C40	C	-0.672362	-1.347160	-0.224092
C41	C	-0.711375	-1.339229	-0.143088
C42	C	-0.550430	-1.266217	-0.215944
C43	C	-0.864583	-1.266403	-0.215940
C44	C	-0.014169	-1.266387	-0.215938
C45	C	0.068384	-1.266443	-0.215943
C46	C	-0.248368	-1.224304	-0.458468
C47	C	-0.265616	-1.206428	-0.561825
C48	C	-0.167339	-0.508809	-0.174043
C49	C	-0.150040	-0.612176	-0.156173
C50	C	-0.084480	-1.394057	-0.812113
C51	C	-0.068275	-1.410859	-0.715003
C52	C	-0.117609	-1.359752	-0.676703
C53	C	-0.183151	-1.291841	-0.735523
C54	C	-0.199361	-1.275043	-0.832642
C55	C	-0.232489	-1.240738	-0.697233
C56	C	-0.298031	-1.172827	-0.756053
C57	C	-0.314238	-1.156032	-0.853161
C58	C	-0.264905	-1.207138	-0.891461
C59	C	-0.216279	-1.257537	-0.600114
C60	C	-0.331160	-1.138523	-0.620644
C61	C	-0.347365	-1.121721	-0.717753
C62	C	-0.167512	-1.308095	0.025681
C63	C	-0.150024	-1.326152	0.129068
H64	H	-0.047853	-0.951441	-0.050620
Cl65	Cl	0.014291	-0.842104	0.013576
Cl66	Cl	-0.022475	-1.458305	-0.860264
Cl67	Cl	-0.022390	-0.622879	-0.024332
H68	H	-0.371332	-1.096909	-0.589461
H69	H	-0.641820	-1.415508	-0.231018
Cl70	Cl	-0.697299	-1.098130	-0.383719
H71	H	-0.014912	-1.466154	-0.667118
Cl72	Cl	-0.281864	-0.576505	-0.292339
Cl73	Cl	-0.133886	-1.342907	-0.526181
H74	H	-0.773221	-1.117040	-0.200930
H75	H	-0.642148	-1.251428	-0.066513
Cl76	Cl	-0.393221	-0.910589	-0.407333
Cl77	Cl	-0.285278	-1.186024	-1.013546
Cl78	Cl	-0.396644	-1.070673	-0.927102
H79	H	-0.715313	-1.400910	-0.081458
Cl80	Cl	-0.429759	-1.036352	-0.791708
Cl81	Cl	-0.789541	-1.284705	-0.402564
Cl82	Cl	-0.130197	-1.063929	-0.135654
Cl83	Cl	-0.318527	-0.604940	-0.330205
Cl84	Cl	-0.429912	-0.691368	-0.445254
Cl85	Cl	-0.097233	-1.380873	-0.554621
