data_functionalizedCrystal
_audit_creation_method	'MofGen! by Chris Wilmer'
_symmetry_space_group_name_H-M	'P1'
_symmetry_Int_Tables_number	1
_symmetry_cell_setting	triclinic
loop_
_symmetry_equiv_pos_as_xyz
  x,y,z
_cell_length_a	12.759401
_cell_length_b	12.645330
_cell_length_c	12.759393
_cell_angle_alpha	89.971026
_cell_angle_beta	89.979062
_cell_angle_gamma	90.019217
loop_
_atom_site_label
_atom_site_type_symbol
_atom_site_fract_x
_atom_site_fract_y
_atom_site_fract_z
Zn1	Zn	1.606245	-0.421945	-0.594031
Zn2	Zn	1.606126	-0.599246	-0.418356
Zn3	Zn	1.430543	-0.422001	-0.418366
Zn4	Zn	1.430526	-0.599172	-0.593993
O5	O	1.518360	-0.510591	-0.506187
O6	O	1.753250	-0.445472	-0.570739
O7	O	1.582793	-0.575788	-0.271336
O8	O	1.453907	-0.273647	-0.441689
O9	O	1.753163	-0.575734	-0.441671
O10	O	1.582994	-0.273605	-0.570749
O11	O	1.453793	-0.445568	-0.271344
O12	O	1.283520	-0.445496	-0.441652
O13	O	1.453878	-0.575607	-0.741019
O14	O	1.283507	-0.575662	-0.570684
O15	O	1.582977	-0.445400	-0.741047
O16	O	1.582776	-0.747583	-0.441634
O17	O	1.453763	-0.747529	-0.570674
C18	C	1.245393	-0.510578	-0.506166
C19	C	1.128616	-0.510598	-0.506182
C20	C	1.518283	-0.786021	-0.506172
C21	C	1.518347	-0.903851	-0.506201
C22	C	1.073775	-0.578479	-0.573263
C23	C	0.964051	-0.578483	-0.573284
C24	C	0.964019	-0.442722	-0.439133
C25	C	1.073741	-0.442714	-0.439118
C26	C	1.437519	-1.071424	-0.587630
C27	C	1.437106	-0.948865	-0.587368
C28	C	1.488371	-0.948453	-0.395479
C29	C	1.487878	-1.071052	-0.395973
C30	C	1.629644	-1.070935	-0.534596
C31	C	1.628962	-0.948328	-0.537017
C32	C	1.792393	-0.510605	-0.506208
C33	C	1.909170	-0.510610	-0.506217
C34	C	1.518439	-0.510489	-0.780220
C35	C	1.518472	-0.510446	-0.896997
C36	C	1.518466	-0.234086	-0.506224
C37	C	1.518511	-0.116255	-0.506241
C38	C	1.585699	-0.442636	-0.951875
C39	C	1.585717	-0.442590	-1.061599
C40	C	1.451278	-0.578173	-1.061557
C41	C	1.451255	-0.578213	-0.951835
C42	C	1.518342	-0.510616	-0.233219
C43	C	1.518512	-0.510360	-0.116443
H44	H	1.118451	-0.633752	-0.627873
H45	H	1.355645	-1.102329	-0.569085
H46	H	0.919326	-0.387455	-0.384531
H47	H	1.545491	-0.919298	-0.333180
C48	C	1.659515	-0.908927	-0.647087
H49	H	1.605096	-0.865547	-0.674155
H50	H	1.669779	-0.967802	-0.692144
H51	H	1.722514	-0.869098	-0.642860
C52	C	1.134075	-0.368042	-0.365329
H53	H	1.207280	-0.377752	-0.374936
H54	H	1.116059	-0.383465	-0.294712
H55	H	1.116119	-0.296831	-0.380839
C56	C	1.377303	-0.652805	-0.891460
H57	H	1.386910	-0.643113	-0.818260
H58	H	1.392649	-0.724029	-0.909429
H59	H	1.306719	-0.637269	-0.909432
C60	C	1.564089	-1.111127	-0.311246
H61	H	1.595207	-1.052477	-0.276672
H62	H	1.617233	-1.152794	-0.343052
H63	H	1.526826	-1.152817	-0.261726
H64	H	1.455861	-0.918705	-0.669468
C65	C	1.666583	-1.112584	-0.641814
H66	H	1.614566	-1.158006	-0.670290
H67	H	1.730152	-1.150710	-0.633308
H68	H	1.677793	-1.054724	-0.688000
C69	C	1.462519	-1.111277	-0.698882
H70	H	1.522581	-1.155605	-0.696697
H71	H	1.475885	-1.052652	-0.743512
H72	H	1.404488	-1.150226	-0.725059
C73	C	1.714780	-0.906933	-0.462772
H74	H	1.780717	-0.935055	-0.483233
H75	H	1.699429	-0.928274	-0.393043
H76	H	1.717149	-0.831924	-0.466248
C77	C	0.903730	-0.653149	-0.647076
H78	H	0.952130	-0.693577	-0.687008
H79	H	0.860965	-0.612654	-0.692929
H80	H	0.860892	-0.699297	-0.606812
H81	H	1.689984	-1.099926	-0.475316
C82	C	1.325812	-0.909368	-0.561977
H83	H	1.280678	-0.968251	-0.551772
H84	H	1.300568	-0.867639	-0.618508
H85	H	1.327525	-0.867860	-0.499962
C86	C	1.378133	-1.109828	-0.363534
H87	H	1.376865	-1.184947	-0.363546
H88	H	1.327606	-1.083895	-0.411781
H89	H	1.362230	-1.084572	-0.295248
C90	C	1.379762	-0.907126	-0.362444
H91	H	1.352540	-0.862702	-0.415971
H92	H	1.386032	-0.868004	-0.299218
H93	H	1.333699	-0.965185	-0.351787
C94	C	1.659621	-0.368082	-0.891556
H95	H	1.699653	-0.327683	-0.939959
H96	H	1.705376	-0.408644	-0.848751
H97	H	1.619429	-0.321903	-0.848759
C98	C	1.659672	-0.368004	-1.121961
H99	H	1.699703	-0.327659	-1.073583
H100	H	1.619515	-0.321792	-1.164763
H101	H	1.705443	-0.408553	-1.164764
C102	C	1.377355	-0.652720	-1.121883
H103	H	1.387003	-0.642994	-1.195089
H104	H	1.306766	-0.637211	-1.103894
H105	H	1.392708	-0.723958	-1.103890
