data_functionalizedCrystal
_audit_creation_method	'MofGen! by Chris Wilmer'
_symmetry_space_group_name_H-M	'P1'
_symmetry_Int_Tables_number	1
_symmetry_cell_setting	triclinic
loop_
_symmetry_equiv_pos_as_xyz
  x,y,z
_cell_length_a	29.839131
_cell_length_b	29.839134
_cell_length_c	13.032268
_cell_angle_alpha	97.149585
_cell_angle_beta	82.855359
_cell_angle_gamma	89.965931
loop_
_atom_site_label
_atom_site_type_symbol
_atom_site_fract_x
_atom_site_fract_y
_atom_site_fract_z
Zn1	Zn	-0.211203	-0.654446	0.591224
Zn2	Zn	-0.276800	-0.663916	0.416488
Zn3	Zn	-0.201673	-0.588869	0.416462
Zn4	Zn	-0.286291	-0.579282	0.591128
O5	O	-0.243992	-0.621628	0.503826
O6	O	-0.219920	-0.718567	0.568096
O7	O	-0.258873	-0.661936	0.270260
O8	O	-0.140072	-0.597616	0.439675
O9	O	-0.268114	-0.725524	0.439719
O10	O	-0.147073	-0.645796	0.568071
O11	O	-0.203678	-0.606799	0.270241
O12	O	-0.212882	-0.524732	0.439581
O13	O	-0.284291	-0.581277	0.737366
O14	O	-0.275050	-0.517689	0.567907
O15	O	-0.229124	-0.636500	0.737437
O16	O	-0.340924	-0.652640	0.439625
O17	O	-0.347898	-0.590460	0.567932
C18	C	-0.243962	-0.504911	0.503731
C19	C	-0.243962	-0.454977	0.503715
C20	C	-0.211580	-0.102034	0.437106
C21	C	-0.211566	-0.289709	0.437056
O22	O	-0.183993	-0.317076	0.380348
N23	N	-0.243971	-0.309530	0.503758
C24	C	-0.276379	-0.282428	0.570482
O25	O	-0.303939	-0.303592	0.627222
C26	C	-0.276391	-0.094753	0.570536
C27	C	-0.243987	-0.074935	0.503823
C28	C	-0.179178	-0.082216	0.370399
C29	C	-0.179183	-0.035300	0.370408
C30	C	-0.211591	-0.008202	0.437125
C31	C	-0.243993	-0.028019	0.503832
C32	C	-0.308798	-0.067651	0.637265
C33	C	-0.308797	-0.020730	0.637274
C34	C	-0.276393	-0.000912	0.570561
C35	C	-0.276405	0.045995	0.570558
N36	N	-0.244000	0.065815	0.503856
C37	C	-0.211593	0.038717	0.437139
C38	C	-0.276372	-0.380960	0.570447
C39	C	-0.276369	-0.427879	0.570432
C40	C	-0.211555	-0.435157	0.437007
C41	C	-0.211560	-0.388238	0.437018
C42	C	-0.243967	-0.361140	0.503745
C43	C	-0.211607	0.137244	0.437163
C44	C	-0.211616	0.184164	0.437175
C45	C	-0.276429	0.191439	0.570603
C46	C	-0.276421	0.144523	0.570588
C47	C	-0.244007	0.117426	0.503864
O48	O	-0.303960	0.073389	0.627244
O49	O	-0.184032	0.059891	0.380424
C50	C	-0.211575	-0.148950	0.437097
C51	C	-0.243976	-0.168767	0.503804
C52	C	-0.276384	-0.141669	0.570521
C53	C	-0.243974	-0.215686	0.503789
C54	C	-0.211567	-0.242784	0.437073
C55	C	-0.179162	-0.222964	0.370371
C56	C	-0.179167	-0.176048	0.370380
C57	C	-0.308788	-0.161489	0.637223
C58	C	-0.308781	-0.208406	0.637207
C59	C	-0.276374	-0.235504	0.570491
C60	C	-0.360712	-0.621548	0.503794
C61	C	-0.410648	-0.621553	0.503815
C62	C	-0.770882	-0.589269	0.570630
C63	C	-0.583207	-0.589212	0.570598
O64	O	-0.562043	-0.561666	0.627387
N65	N	-0.556095	-0.621599	0.503846
C66	C	-0.575904	-0.654005	0.437103
O67	O	-0.548537	-0.681553	0.380333
C68	C	-0.763578	-0.654064	0.437141
C69	C	-0.790688	-0.621672	0.503890
C70	C	-0.797992	-0.556880	0.637374
C71	C	-0.844908	-0.556894	0.637378
C72	C	-0.864714	-0.589296	0.570637
C73	C	-0.837604	-0.621685	0.503893
C74	C	-0.783387	-0.686471	0.370404
C75	C	-0.830309	-0.686484	0.370422
C76	C	-0.857419	-0.654092	0.437170
C77	C	-0.904325	-0.654100	0.437156
N78	N	-0.931438	-0.621713	0.503908
C79	C	-0.911632	-0.589311	0.570649
C80	C	-0.477372	-0.653971	0.437086
C81	C	-0.430454	-0.653955	0.437074
C82	C	-0.437761	-0.589163	0.570571
C83	C	-0.484680	-0.589177	0.570576
C84	C	-0.504485	-0.621584	0.503837
C85	C	-1.010158	-0.589341	0.570650
C86	C	-1.057077	-0.589356	0.570645
C87	C	-1.049767	-0.654150	0.437152
C88	C	-1.002851	-0.654133	0.437153
C89	C	-0.983048	-0.621727	0.503911
O90	O	-0.925521	-0.681635	0.380405
O91	O	-0.939007	-0.561773	0.627426
C92	C	-0.723967	-0.589256	0.570627
C93	C	-0.696857	-0.621645	0.503883
C94	C	-0.716663	-0.654048	0.437143
C95	C	-0.649938	-0.621630	0.503872
C96	C	-0.630133	-0.589228	0.570612
C97	C	-0.657245	-0.556841	0.637364
C98	C	-0.704161	-0.556854	0.637367
C99	C	-0.689550	-0.686435	0.370391
C100	C	-0.642635	-0.686419	0.370392
C101	C	-0.622829	-0.654016	0.437132
C102	C	-0.126816	-0.621719	0.503881
C103	C	-0.076883	-0.621758	0.503904
C104	C	-0.258829	-0.606763	0.776376
C105	C	-0.265152	-0.600428	0.892521
C106	C	-0.244019	0.261198	0.503904
C107	C	-0.244024	0.211263	0.503892
C108	C	-0.229179	-0.636461	0.232336
C109	C	-0.222730	-0.642883	0.116192
C110	C	-0.240676	-0.624927	0.944337
C111	C	-0.247210	-0.618381	1.064378
H112	H	-0.152797	-0.019169	0.316083
H113	H	-0.196932	-0.668704	1.071688
H114	H	-0.866977	-0.530516	0.691730
H115	H	-0.781871	-0.530494	0.691727
C116	C	-1.071557	-0.689791	0.363739
C117	C	-1.065534	-0.740385	0.372413
C118	C	-1.087326	-0.776029	0.299003
C119	C	-1.115141	-0.761080	0.216919
C120	C	-1.121166	-0.710484	0.208242
C121	C	-1.099374	-0.674840	0.281651
H122	H	-1.044942	-0.751453	0.433180
H123	H	-1.082866	-0.813484	0.305428
H124	H	-1.131272	-0.787466	0.162577
H125	H	-1.141757	-0.699416	0.147475
H126	H	-1.103834	-0.637385	0.275227
H127	H	-0.302816	0.213510	0.624918
H128	H	-0.290942	-0.574604	0.937029
H129	H	-0.214881	-0.650747	0.899828
H130	H	-0.185228	0.200297	0.382846
H131	H	-0.335186	0.001332	0.691617
C132	C	-0.312025	-0.351155	0.643843
C133	C	-0.297093	-0.314449	0.725981
C134	C	-0.332749	-0.284647	0.799371
C135	C	-0.383337	-0.291550	0.790623
C136	C	-0.398272	-0.328258	0.708482
C137	C	-0.362616	-0.358060	0.635092
H138	H	-0.259642	-0.309338	0.732459
H139	H	-0.321692	-0.257474	0.860177
H140	H	-0.409731	-0.269488	0.844951
H141	H	-0.435723	-0.333369	0.702004
H142	H	-0.373673	-0.385233	0.574285
C143	C	-0.852094	-0.722131	0.297002
C144	C	-0.879905	-0.707184	0.214910
C145	C	-0.901690	-0.742830	0.141490
C146	C	-0.895662	-0.793423	0.150162
C147	C	-0.867849	-0.808373	0.232259
C148	C	-0.846065	-0.772727	0.305679
H149	H	-0.884368	-0.669730	0.208486
H150	H	-0.922278	-0.731763	0.080717
H151	H	-0.911788	-0.819811	0.095813
H152	H	-0.863386	-0.845827	0.238682
H153	H	-0.825476	-0.783794	0.366452
C154	C	-0.143528	-0.112018	0.296996
C155	C	-0.110748	-0.141826	0.342377
C156	C	-0.075098	-0.171625	0.268960
C157	C	-0.072227	-0.171615	0.150162
C158	C	-0.105008	-0.141807	0.104775
C159	C	-0.140658	-0.112008	0.178192
H160	H	-0.112872	-0.141834	0.430323
H161	H	-0.050831	-0.193691	0.302559
H162	H	-0.045837	-0.193674	0.095814
H163	H	-0.102884	-0.141799	0.016828
H164	H	-0.164925	-0.089941	0.144593
C165	C	-0.415970	-0.553522	0.643995
C166	C	-0.421991	-0.502926	0.635348
C167	C	-0.400199	-0.467290	0.708776
C168	C	-0.372385	-0.482250	0.790850
C169	C	-0.366362	-0.532849	0.799501
C170	C	-0.388155	-0.568485	0.726073
H171	H	-0.442582	-0.491849	0.574589
H172	H	-0.404657	-0.429833	0.702372
H173	H	-0.356253	-0.455870	0.845206
H174	H	-0.345772	-0.543925	0.860260
H175	H	-0.383697	-0.605942	0.732477
C176	C	-0.711331	-0.722080	0.296968
C177	C	-0.698421	-0.724931	0.178170
C178	C	-0.720198	-0.760578	0.104737
C179	C	-0.754884	-0.793373	0.150102
C180	C	-0.767796	-0.790523	0.268906
C181	C	-0.746019	-0.754876	0.342339
H182	H	-0.672743	-0.700653	0.144582
H183	H	-0.710640	-0.762688	0.016790
H184	H	-0.771005	-0.819761	0.095742
H185	H	-0.793474	-0.814800	0.302493
H186	H	-0.755577	-0.752766	0.430286
C187	C	-0.175912	-0.366440	0.363641
C188	C	-0.125322	-0.372450	0.372373
C189	C	-0.089672	-0.350655	0.298996
C190	C	-0.104612	-0.322851	0.216885
C191	C	-0.155204	-0.316840	0.208149
C192	C	-0.190854	-0.338634	0.281527
H193	H	-0.114260	-0.393034	0.433160
H194	H	-0.052220	-0.355106	0.305463
H195	H	-0.078221	-0.306717	0.162566
H196	H	-0.166266	-0.296256	0.147363
H197	H	-0.228306	-0.334184	0.275059
H198	H	-0.185210	0.115188	0.382835
H199	H	-0.980777	-0.680506	0.382790
C200	C	-0.175904	-0.464970	0.363621
C201	C	-0.143138	-0.494775	0.409050
C202	C	-0.107487	-0.524589	0.335673
C203	C	-0.104601	-0.524597	0.216868
C204	C	-0.137368	-0.494790	0.171433
C205	C	-0.173019	-0.464977	0.244810
H206	H	-0.145274	-0.494770	0.497002
H207	H	-0.083231	-0.546653	0.369308
H208	H	-0.078210	-0.546667	0.162551
H209	H	-0.135232	-0.494795	0.083481
H210	H	-0.197275	-0.442912	0.211175
H211	H	-0.726230	-0.530477	0.691722
C212	C	-0.344443	-0.089440	0.710658
C213	C	-0.377219	-0.124141	0.665258
C214	C	-0.412866	-0.145928	0.738659
C215	C	-0.415737	-0.133013	0.857460
C216	C	-0.382960	-0.098310	0.902867
C217	C	-0.347313	-0.076524	0.829466
H218	H	-0.375094	-0.133703	0.577308
H219	H	-0.437130	-0.171617	0.705045
H220	H	-0.442125	-0.149141	0.911796
H221	H	-0.385084	-0.088749	0.990817
H222	H	-0.323049	-0.050834	0.863080
C223	C	-0.282058	-0.583495	1.124491
C224	C	-0.321389	-0.598869	1.199547
C225	C	-0.356236	-0.563984	1.259661
C226	C	-0.351752	-0.513724	1.244718
C227	C	-0.312419	-0.498347	1.169658
C228	C	-0.277572	-0.533232	1.109545
H229	H	-0.324710	-0.636076	1.210612
H230	H	-0.385353	-0.575367	1.315225
H231	H	-0.377548	-0.487900	1.289218
H232	H	-0.309098	-0.461140	1.158594
H233	H	-0.248455	-0.521849	1.053981
H234	H	-0.302760	-0.444010	0.624746
H235	H	-0.152780	-0.159917	0.316056
H236	H	-0.152776	-0.245036	0.316045
C237	C	-0.312067	0.122719	0.643963
C238	C	-0.362659	0.128717	0.635235
C239	C	-0.398303	0.106917	0.708618
C240	C	-0.383354	0.079118	0.790729
C241	C	-0.332760	0.073118	0.799461
C242	C	-0.297116	0.094918	0.726077
H243	H	-0.373727	0.149297	0.574448
H244	H	-0.435756	0.111359	0.702154
H245	H	-0.409739	0.062980	0.845052
H246	H	-0.321692	0.052538	0.860247
H247	H	-0.259663	0.090476	0.732541
H248	H	-0.620564	-0.712795	0.316028
C249	C	-1.086898	-0.553724	0.644076
C250	C	-1.065108	-0.518085	0.717493
C251	C	-1.094927	-0.482455	0.790923
C252	C	-1.146535	-0.482464	0.790936
C253	C	-1.168328	-0.518105	0.717517
C254	C	-1.138509	-0.553735	0.644086
H255	H	-1.026902	-0.518077	0.717486
H256	H	-1.078794	-0.456072	0.845273
H257	H	-1.168609	-0.456089	0.845294
H258	H	-1.206534	-0.518113	0.717524
H259	H	-1.154642	-0.580118	0.589736
C260	C	-0.635453	-0.521198	0.710781
C261	C	-0.648351	-0.518344	0.829583
C262	C	-0.626557	-0.482705	0.903001
C263	C	-0.591864	-0.449920	0.857617
C264	C	-0.578964	-0.452773	0.738809
C265	C	-0.600759	-0.488412	0.665391
H266	H	-0.674034	-0.542614	0.863185
H267	H	-0.636106	-0.480594	0.990950
H268	H	-0.575731	-0.423539	0.911965
H269	H	-0.553281	-0.428503	0.705208
H270	H	-0.591209	-0.490524	0.577442
H271	H	-0.335172	-0.224536	0.691532
H272	H	-0.335179	-0.139430	0.691553
H273	H	-0.994040	-0.562953	0.625011
H274	H	-0.506750	-0.562802	0.624934
H275	H	-0.408383	-0.680328	0.382710
H276	H	-0.493493	-0.680361	0.382735
H277	H	-0.761320	-0.712848	0.316052
