data_functionalizedCrystal
_audit_creation_method	'MofGen! by Chris Wilmer'
_symmetry_space_group_name_H-M	'P1'
_symmetry_Int_Tables_number	1
_symmetry_cell_setting	triclinic
loop_
_symmetry_equiv_pos_as_xyz
  x,y,z
_cell_length_a	15.538191
_cell_length_b	27.732048
_cell_length_c	14.750779
_cell_angle_alpha	77.459753
_cell_angle_beta	97.572172
_cell_angle_gamma	64.957374
loop_
_atom_site_label
_atom_site_type_symbol
_atom_site_fract_x
_atom_site_fract_y
_atom_site_fract_z
O1	O	1.231553	-0.143284	-0.079812
O2	O	0.956477	-0.087327	-0.079821
O3	O	1.102563	-0.187172	-0.079798
O4	O	1.085467	-0.043439	-0.079835
O5	O	1.143860	-0.215394	0.079859
O6	O	0.997774	-0.115550	0.079836
O7	O	1.272849	-0.171506	0.079845
Zn8	Zn	1.141868	-0.148009	0.105189
Zn9	Zn	1.087458	-0.110825	-0.105165
O10	O	1.126764	-0.071662	0.079822
C11	C	0.941944	-0.095584	0.000007
C12	C	0.837116	-0.078145	0.000004
C13	C	1.122853	-0.219229	0.000033
C14	C	1.121775	-0.272700	0.000041
C15	C	0.551855	-0.251395	0.000034
C16	C	0.453349	-0.234996	0.000029
C17	C	0.429558	-0.142756	0.000005
C18	C	0.528065	-0.159148	0.000015
C19	C	0.589206	-0.213468	0.000028
C20	C	0.565415	-0.121222	0.000009
C21	C	0.663912	-0.137612	0.000014
C22	C	0.725059	-0.191928	0.000024
C23	C	0.687703	-0.229858	0.000032
C24	C	0.504271	-0.066901	-0.000011
C25	C	0.541621	-0.028974	-0.000017
C26	C	0.640122	-0.045365	-0.000005
C27	C	0.701268	-0.099682	0.000005
C28	C	0.677478	-0.007436	-0.000014
C29	C	0.775975	-0.023826	-0.000009
C30	C	0.799765	-0.116072	0.000010
C31	C	1.201288	-0.625155	-0.000006
C32	C	1.197277	-0.826125	-0.000019
O33	O	1.269986	-0.869854	-0.000059
N34	N	1.110657	-0.830382	-0.000021
C35	C	1.025032	-0.784391	-0.000026
O36	O	0.951262	-0.792622	-0.000038
C37	C	1.029042	-0.583422	-0.000019
C38	C	1.115670	-0.579170	-0.000008
C39	C	1.287908	-0.620901	0.000005
C40	C	1.288911	-0.570663	0.000014
C41	C	1.203294	-0.524678	0.000012
C42	C	1.116673	-0.528931	0.000001
C43	C	0.943416	-0.537431	-0.000031
C44	C	0.944426	-0.487187	-0.000032
C45	C	1.031054	-0.482935	-0.000020
C46	C	1.032059	-0.432708	0.000008
N47	N	1.118679	-0.428450	0.000010
C48	C	1.204296	-0.474435	0.000012
C49	C	1.022934	-0.889905	-0.000028
C50	C	1.021931	-0.940147	-0.000028
C51	C	1.194176	-0.981877	-0.000022
C52	C	1.195179	-0.931635	-0.000016
C53	C	1.109554	-0.885648	-0.000026
C54	C	1.206396	-0.368929	0.000031
C55	C	1.207393	-0.318685	0.000043
C56	C	1.035147	-0.276959	0.000033
C57	C	1.034152	-0.327199	0.000025
C58	C	1.119783	-0.373185	0.000021
O59	O	0.959386	-0.388955	0.000036
O60	O	1.278050	-0.466189	0.000002
C61	C	1.200285	-0.675394	-0.000014
C62	C	1.113664	-0.679647	-0.000025
C63	C	1.028046	-0.633662	-0.000027
C64	C	1.112662	-0.729890	-0.000025
C65	C	1.198279	-0.775875	-0.000023
C66	C	1.284899	-0.771617	-0.000021
C67	C	1.285902	-0.721379	-0.000012
C68	C	0.941427	-0.637920	-0.000029
C69	C	0.940431	-0.688160	-0.000036
C70	C	1.026048	-0.734145	-0.000034
C71	C	1.287382	-0.163249	0.000015
C72	C	1.392208	-0.180687	0.000012
C73	C	1.106473	-0.039604	-0.000011
C74	C	1.107549	0.013868	-0.000025
N75	N	1.179009	-0.173388	0.248751
N76	N	1.050325	-0.085451	-0.248727
C77	C	0.946598	-0.014593	0.600532
C78	C	0.972630	-0.032375	0.701036
C79	C	1.102015	-0.120767	0.701019
C80	C	1.075991	-0.102994	0.600514
C81	C	0.998282	-0.049906	0.550278
C82	C	1.127675	-0.138307	0.550259
C83	C	1.101655	-0.120534	0.449763
C84	C	1.023951	-0.067447	0.399521
C85	C	0.972262	-0.032133	0.449782
C86	C	1.205388	-0.191393	0.600497
C87	C	1.257072	-0.226706	0.550242
C88	C	1.231048	-0.208935	0.449744
C89	C	1.153344	-0.155848	0.399502
C90	C	1.282737	-0.244249	0.399483
C91	C	1.256717	-0.226476	0.298986
C92	C	1.127325	-0.138075	0.299005
H93	H	0.805258	-0.205270	0.000015
H94	H	0.424068	-0.053558	-0.000018
O95	O	0.482220	0.023825	-0.000199
C96	C	0.410404	0.122306	-0.082894
C97	C	0.477678	0.062541	-0.082822
H98	H	0.406726	0.153625	-0.149678
H99	H	0.333554	0.127549	-0.082960
H100	H	0.441187	0.129990	-0.016049
H101	H	0.446983	0.054816	-0.149656
H102	H	0.554518	0.057327	-0.082706
H103	H	1.277939	-0.315229	0.000055
O104	O	0.618073	0.045365	-0.000203
C105	C	0.546255	0.143844	-0.082916
C106	C	0.613535	0.084076	-0.082831
H107	H	0.542581	0.175159	-0.149703
H108	H	0.469405	0.149086	-0.082987
H109	H	0.577030	0.151533	-0.016074
H110	H	0.582849	0.076347	-0.149662
H111	H	0.690376	0.078863	-0.082710
O112	O	0.746959	-0.282639	0.000003
C113	C	0.760190	-0.372418	0.000082
C114	C	0.692972	-0.312662	0.000097
H115	H	0.716574	-0.396713	0.000178
H116	H	0.789592	-0.370611	-0.066750
H117	H	0.824197	-0.394180	0.066883
H118	H	0.628916	-0.290865	-0.066659
H119	H	0.663646	-0.314508	0.066973
H120	H	1.320346	-0.269930	0.591155
O121	O	0.998846	-0.050213	0.301898
C122	C	1.050998	-0.030518	0.157655
C123	C	1.079567	-0.050057	0.268210
H124	H	1.116238	-0.030375	0.130384
H125	H	1.029018	-0.060151	0.130324
H126	H	0.986551	0.013479	0.130409
H127	H	1.144033	-0.094045	0.295538
H128	H	1.101486	-0.020386	0.295475
O129	O	0.417236	-0.271918	0.000076
C130	C	0.451213	-0.365132	0.000025
C131	C	0.492246	-0.323380	0.000000
H132	H	0.511833	-0.406745	-0.000057
H133	H	0.423012	-0.371621	0.066853
H134	H	0.388384	-0.347921	-0.066779
H135	H	0.555105	-0.340558	0.066759
H136	H	0.520381	-0.316895	-0.066872
H137	H	1.346015	-0.287472	0.440398
H138	H	1.298805	-0.255232	0.258069
O139	O	0.370156	-0.089957	-0.000177
C140	C	0.298340	0.008525	-0.082872
C141	C	0.365614	-0.051241	-0.082800
H142	H	0.294663	0.039843	-0.149656
H143	H	0.221490	0.013767	-0.082938
H144	H	0.329123	0.016208	-0.016027
H145	H	0.334920	-0.058965	-0.149634
H146	H	0.442455	-0.056455	-0.082684
H147	H	0.963619	-0.330665	0.000043
O148	O	0.896871	0.019452	0.400867
C149	C	0.846426	0.109234	0.287429
C150	C	0.931884	0.050834	0.342749
H151	H	0.874706	0.134627	0.240443
H152	H	0.787382	0.104922	0.240328
H153	H	0.813930	0.131402	0.340623
H154	H	0.964460	0.028635	0.289625
H155	H	0.990865	0.055186	0.389865
H156	H	1.276125	-0.406366	0.000023
O157	O	0.937689	-0.944174	-0.000071
C158	C	0.766967	-0.897477	-0.000025
C159	C	0.862303	-0.892841	0.000009
H160	H	0.705997	-0.855983	0.000060
H161	H	0.744836	-0.908106	-0.066858
H162	H	0.779515	-0.931793	0.066774
H163	H	0.849831	-0.858522	-0.066745
H164	H	0.884404	-0.882240	0.066886
H165	H	0.883313	0.028635	0.559629
H166	H	0.930537	-0.003613	0.741948
H167	H	0.806388	0.007056	-0.000005
H168	H	1.354613	-0.809069	-0.000015
O169	O	1.373133	-0.566622	-0.000025
C170	C	1.543881	-0.613343	0.000032
C171	C	1.448558	-0.617985	0.000057
H172	H	1.604892	-0.654867	0.000119
H173	H	1.531440	-0.579076	-0.066799
H174	H	1.565894	-0.602654	0.066833
H175	H	1.426492	-0.628692	-0.066699
H176	H	1.461051	-0.652239	0.066932
O177	O	1.371017	-0.665554	-0.000161
C178	C	1.448474	-0.731892	-0.082829
C179	C	1.354286	-0.681319	-0.082781
H180	H	1.434974	-0.744661	-0.149610
H181	H	1.510566	-0.720230	-0.082885
H182	H	1.469596	-0.768255	-0.015980
H183	H	1.333074	-0.644935	-0.149618
H184	H	1.292252	-0.693027	-0.082675
O185	O	1.279347	-0.927508	0.000157
C186	C	1.401818	-0.909603	0.082836
C187	C	1.306506	-0.914268	0.082776
H188	H	1.423795	-0.898887	0.149616
H189	H	1.462888	-0.951103	0.082901
H190	H	1.389294	-0.875325	0.015987
H191	H	1.318935	-0.948523	0.149614
H192	H	1.245469	-0.872744	0.082661
O193	O	0.856179	-0.692183	-0.000089
C194	C	0.685454	-0.645484	-0.000056
C195	C	0.780793	-0.640851	-0.000007
H196	H	0.624484	-0.603991	0.000030
H197	H	0.663327	-0.656109	-0.066895
H198	H	0.697994	-0.679801	0.066737
H199	H	0.768328	-0.606530	-0.066755
H200	H	0.802891	-0.630254	0.066876
H201	H	0.849552	-0.160306	0.000026
O202	O	1.177425	-0.172378	0.749720
C203	C	1.241900	-0.271774	0.780521
C204	C	1.156447	-0.213357	0.725291
H205	H	1.224959	-0.304922	0.760807
H206	H	1.312349	-0.275261	0.760731
H207	H	1.251625	-0.278386	0.860975
H208	H	1.146631	-0.206705	0.644825
H209	H	1.086044	-0.209898	0.745161
O210	O	0.939732	-0.845191	-0.000201
C211	C	0.819512	-0.749613	-0.082884
C212	C	0.913727	-0.800208	-0.082823
H213	H	0.798469	-0.713228	-0.149666
H214	H	0.757388	-0.761254	-0.082944
H215	H	0.832972	-0.736892	-0.016037
H216	H	0.900363	-0.812954	-0.149658
H217	H	0.975819	-0.788540	-0.082712
O218	O	0.859169	-0.541449	-0.000090
C219	C	0.688444	-0.494742	-0.000060
C220	C	0.783787	-0.490114	-0.000014
H221	H	0.627478	-0.453246	0.000022
H222	H	0.666314	-0.505369	-0.066896
H223	H	0.700980	-0.529056	0.066737
H224	H	0.771327	-0.455797	-0.066765
H225	H	0.805888	-0.479514	0.066866
H226	H	1.263889	-1.019327	-0.000020
O227	O	1.230812	-0.208646	0.698119
C228	C	1.357687	-0.240029	0.842315
C229	C	1.329019	-0.220488	0.731760
H230	H	1.437095	-0.249619	0.869547
H231	H	1.307461	-0.205677	0.869660
H232	H	1.349742	-0.279298	0.869585
H233	H	1.336969	-0.181230	0.704408
H234	H	1.379245	-0.254873	0.704480
H235	H	0.874697	-0.449744	-0.000041
H236	H	0.601642	-0.295628	0.000050
H237	H	0.965441	-0.239510	0.000035
H238	H	1.356444	-0.717924	-0.000003
H239	H	0.871704	-0.600480	-0.000033
H240	H	1.064040	-0.094847	0.258102
