data_functionalizedCrystal
_audit_creation_method	'MofGen! by Chris Wilmer'
_symmetry_space_group_name_H-M	'P1'
_symmetry_Int_Tables_number	1
_symmetry_cell_setting	triclinic
loop_
_symmetry_equiv_pos_as_xyz
  x,y,z
_cell_length_a	19.851628
_cell_length_b	19.377369
_cell_length_c	19.851628
_cell_angle_alpha	107.868553
_cell_angle_beta	89.998176
_cell_angle_gamma	48.641315
loop_
_atom_site_label
_atom_site_type_symbol
_atom_site_fract_x
_atom_site_fract_y
_atom_site_fract_z
Zr1	Zr	0.514519	0.779936	-0.046609
O2	O	0.381364	0.928546	0.035207
O3	O	0.573098	0.631306	-0.053844
O4	O	0.547497	0.779924	0.060947
O5	O	0.406957	0.779944	-0.190435
O6	O	0.658343	0.779938	0.060951
O7	O	0.406965	0.779928	-0.079585
O8	O	0.704140	0.514087	-0.144390
O9	O	0.361161	1.045795	0.014906
O10	O	0.659348	0.692457	-0.078488
O11	O	0.576619	0.692460	-0.161217
O12	O	0.546477	0.867438	-0.026065
O13	O	0.463748	0.867441	-0.108794
Zr14	Zr	0.691294	0.779985	-0.223397
Zr15	Zr	0.691306	0.779958	-0.046603
Zr16	Zr	0.514507	0.779963	-0.223403
Zr17	Zr	0.482299	0.966935	-0.078987
Zr18	Zr	0.723515	0.592986	-0.191019
O19	O	0.632715	0.928615	-0.216162
O20	O	0.632732	0.928577	0.035215
O21	O	0.381346	0.928584	-0.216171
O22	O	0.824450	0.631375	-0.305213
O23	O	0.824467	0.631337	-0.053836
O24	O	0.573081	0.631344	-0.305221
O25	O	0.798856	0.779976	-0.079571
O26	O	0.658316	0.779997	-0.330953
O27	O	0.547470	0.779983	-0.330957
O28	O	0.798848	0.779993	-0.190422
O29	O	0.501684	1.045812	0.014911
O30	O	0.704130	0.514108	-0.284917
O31	O	0.844652	0.514126	-0.284912
O32	O	0.844662	0.514104	-0.144385
O33	O	0.361152	1.045816	-0.125621
O34	O	0.501674	1.045834	-0.125616
O35	O	0.659337	0.692482	-0.243941
O36	O	0.742066	0.692480	-0.161212
O37	O	0.629194	0.867461	-0.108789
O38	O	0.546465	0.867463	-0.191518
C39	C	0.643210	0.546053	-0.094504
C40	C	0.656888	0.466667	-0.080759
C41	C	0.486307	0.205273	-0.251706
C42	C	0.499273	0.130587	-0.238849
C43	C	0.585636	0.130594	-0.152486
C44	C	0.572681	0.205278	-0.165338
C45	C	0.523015	0.242613	-0.214948
C46	C	0.609389	0.242618	-0.128581
C47	C	0.596431	0.317299	-0.141429
C48	C	0.546765	0.354641	-0.191035
C49	C	0.510057	0.317294	-0.227797
C50	C	0.659049	0.205287	-0.078967
C51	C	0.695757	0.242627	-0.042210
C52	C	0.682805	0.317304	-0.055062
C53	C	0.633139	0.354646	-0.104668
C54	C	0.719513	0.354651	-0.018300
C55	C	0.706554	0.429333	-0.031149
C56	C	0.620180	0.429327	-0.117516
C57	C	0.381773	0.779933	-0.135011
C58	C	0.306722	0.779924	-0.135013
C59	C	0.186894	0.684539	-0.163590
C60	C	0.111226	0.732238	-0.204543
C61	C	0.169286	0.779950	-0.135007
C62	C	0.111221	0.732244	-0.094081
C63	C	0.036534	0.779968	-0.135001
C64	C	0.094606	0.827650	-0.176006
C65	C	0.094614	0.827642	-0.065498
C66	C	0.018921	0.875411	-0.106444
C67	C	0.245763	0.779936	-0.135012
C68	C	-0.039946	0.779988	-0.134998
C69	C	0.824041	0.779988	-0.134996
C70	C	0.899091	0.779997	-0.134993
C71	C	0.602922	0.779927	0.086138
C72	C	0.602927	0.779915	0.161192
C73	C	0.562604	1.013868	-0.175502
C74	C	0.548925	1.093254	-0.189247
C75	C	0.664476	0.684518	0.358862
C76	C	0.688959	0.732202	0.328229
C77	C	0.602930	0.779940	0.431363
C78	C	0.578490	0.732214	0.328246
C79	C	0.602931	0.779923	0.298618
C80	C	0.627457	0.827625	0.401719
C81	C	0.516948	0.827623	0.401736
C82	C	0.541399	0.875377	0.371144
C83	C	0.602932	0.779947	0.507834
C84	C	0.602929	0.779923	0.222151
C85	C	0.602903	0.779980	0.643851
C86	C	0.602931	0.779951	0.568786
C87	C	0.864344	0.546080	-0.094496
C88	C	0.953073	0.466704	-0.080749
C89	C	0.643194	0.546087	-0.315645
C90	C	0.656868	0.466712	-0.376954
C91	C	0.864328	0.546114	-0.315638
C92	C	0.953052	0.466749	-0.376944
C93	C	0.341485	1.013807	0.045632
C94	C	0.252761	1.093172	0.106937
C95	C	0.341470	1.013840	-0.175510
C96	C	0.252741	1.093217	-0.189258
C97	C	0.562619	1.013834	0.045639
C98	C	0.548946	1.093209	0.106947
C99	C	0.951563	0.429416	-0.031104
C100	C	1.034925	0.354843	-0.018172
C101	C	1.119797	0.317555	-0.054889
C102	C	1.121303	0.354850	-0.104536
C103	C	1.037942	0.429427	-0.117463
C104	C	0.706467	0.429449	-0.448933
C105	C	0.719309	0.354878	-0.506547
C106	C	0.682558	0.317567	-0.492180
C107	C	0.632952	0.354838	-0.420193
C108	C	0.620105	0.429412	-0.362582
C109	C	1.037909	0.429477	-0.362550
C110	C	1.121280	0.354915	-0.420148
C111	C	1.119793	0.317621	-0.492139
C112	C	1.034926	0.354901	-0.506532
C113	C	0.951557	0.429466	-0.448935
C114	C	0.167903	1.130453	0.092542
C115	C	0.084528	1.205038	0.150136
C116	C	0.086015	1.242335	0.222126
C117	C	0.170882	1.205051	0.236521
C118	C	0.254254	1.130473	0.178926
C119	C	0.254249	1.130513	-0.238896
C120	C	0.170883	1.205106	-0.251812
C121	C	0.086011	1.242397	-0.215093
C122	C	0.084505	1.205098	-0.165449
C123	C	0.167869	1.130511	-0.152530
C124	C	0.585710	1.130496	0.092558
C125	C	0.572880	1.205067	0.150158
C126	C	0.523281	1.242355	0.222147
C127	C	0.486517	1.205060	0.236537
C128	C	0.499352	1.130485	0.178938
H129	H	0.469614	0.347694	-0.268194
Cl130	Cl	1.039857	0.476287	-0.179883
H131	H	0.018138	1.303130	-0.225620
H132	H	1.033729	0.324525	-0.565155
H133	H	0.626097	1.100148	0.033945
H134	H	0.648211	0.867931	0.433429
Cl135	Cl	0.172799	1.251976	-0.314227
Cl136	Cl	1.039803	0.476351	-0.272054
H137	H	0.602818	1.235425	0.138427
Cl138	Cl	0.844884	0.476307	-0.467043
Cl139	Cl	0.461048	1.000020	0.378233
H140	H	1.033681	0.324486	0.022253
Cl141	Cl	-0.018805	1.336091	0.294524
H142	H	0.469409	1.100134	0.190664
H143	H	0.166675	1.100090	0.033929
H144	H	0.172081	1.235429	0.295142
Cl145	Cl	0.165958	1.083627	-0.090128
H146	H	0.445864	0.235673	-0.292103
Cl147	Cl	1.227957	0.308061	-0.402036
H148	H	0.088379	0.867924	-0.006724
H149	H	0.736192	0.212223	-0.001815
Cl150	Cl	0.360930	1.083607	0.197037
Cl151	Cl	0.698719	0.223814	-0.564615
H152	H	1.187684	0.256905	-0.539031
H153	H	0.258626	0.603865	-0.187812
H154	H	0.015391	1.235471	-0.135556
Cl155	Cl	0.507149	1.336110	0.294550
H156	H	0.323348	1.100156	-0.268804
Cl157	Cl	1.224588	0.223798	-0.038631
Cl158	Cl	0.557754	0.476242	-0.272094
H159	H	0.603032	0.324448	-0.408506
Cl160	Cl	0.424154	1.251956	0.327040
H161	H	0.557818	0.691862	0.296440
Cl162	Cl	0.557749	0.476262	-0.179889
Cl163	Cl	0.120935	0.669950	-0.040645
H164	H	0.759943	0.324251	0.022097
H165	H	0.536211	0.415455	-0.201492
Cl166	Cl	0.648068	0.083656	-0.090120
Cl167	Cl	0.453116	0.083651	-0.285062
Cl168	Cl	0.675332	0.111405	-0.062813
Cl169	Cl	0.744893	0.559975	0.351990
Cl170	Cl	0.752701	0.476278	0.015062
H171	H	0.015435	1.235382	0.138402
Cl172	Cl	0.084803	0.889874	-0.229546
H173	H	-0.052730	0.956151	-0.082287
Cl174	Cl	0.120907	0.669996	-0.295299
H175	H	0.761672	0.691877	0.296417
H176	H	0.882463	0.459775	-0.001194
Cl177	Cl	0.404715	0.889829	0.450862
Cl178	Cl	0.752680	0.476336	-0.467014
Cl179	Cl	0.781676	0.308036	-0.597036
Cl180	Cl	1.228008	0.307959	-0.150692
