data_functionalizedCrystal
_audit_creation_method	'MofGen! by Chris Wilmer'
_symmetry_space_group_name_H-M	'P1'
_symmetry_Int_Tables_number	1
_symmetry_cell_setting	triclinic
loop_
_symmetry_equiv_pos_as_xyz
  x,y,z
_cell_length_a	17.699083
_cell_length_b	15.538191
_cell_length_c	16.176319
_cell_angle_alpha	89.995479
_cell_angle_beta	89.998611
_cell_angle_gamma	65.277554
loop_
_atom_site_label
_atom_site_type_symbol
_atom_site_fract_x
_atom_site_fract_y
_atom_site_fract_z
O1	O	0.971508	0.119201	-0.068626
O2	O	1.471508	0.619201	0.431374
O3	O	0.746892	0.134709	-0.068653
O4	O	1.246892	0.634709	0.431347
O5	O	0.902923	-0.010274	-0.068638
O6	O	1.402923	0.489726	0.431362
O7	O	0.815476	0.264185	-0.068641
O8	O	1.315476	0.764185	0.431359
O9	O	0.902910	-0.010284	0.068855
O10	O	1.402910	0.489716	0.568855
O11	O	0.746878	0.134700	0.068840
O12	O	1.246878	0.634700	0.568840
O13	O	0.971494	0.119192	0.068867
O14	O	1.471494	0.619192	0.568867
Cu15	Cu	0.859185	0.126945	0.081408
Cu16	Cu	1.359185	0.626945	0.581408
Cu17	Cu	0.859201	0.126956	-0.081194
Cu18	Cu	1.359201	0.626956	0.418806
O19	O	0.815463	0.264175	0.068852
O20	O	1.315463	0.764175	0.568852
C21	C	0.718840	0.134149	0.000090
C22	C	1.218840	0.634149	0.500090
C23	C	0.635277	0.132482	0.000080
C24	C	1.135277	0.632482	0.500080
C25	C	0.563403	0.217584	0.000079
C26	C	1.063403	0.717584	0.500079
C27	C	0.484889	0.216012	0.000090
C28	C	0.984889	0.716012	0.500090
C29	C	0.478252	0.129337	0.000095
C30	C	0.978252	0.629337	0.500095
C31	C	0.550134	0.044228	0.000098
C32	C	1.050134	0.544228	0.500098
C33	C	0.628646	0.045801	0.000094
C34	C	1.128646	0.545801	0.500094
C35	C	0.233505	0.037882	0.000119
C36	C	0.733505	0.537882	0.500119
C37	C	0.154985	0.036316	0.000121
C38	C	0.654985	0.536316	0.500121
C39	C	0.089748	0.208094	0.000115
C40	C	0.589748	0.708094	0.500115
C41	C	0.168260	0.209667	0.000111
C42	C	0.668260	0.709667	0.500111
C43	C	0.240135	0.124558	0.000118
C44	C	0.740135	0.624558	0.500118
C45	C	0.325269	0.126264	0.000108
C46	C	0.825269	0.626264	0.500108
C47	C	0.393120	0.127630	0.000100
C48	C	0.893120	0.627630	0.500100
C49	C	0.912066	-0.045395	0.000107
C50	C	1.412066	0.454605	0.500107
C51	C	0.939318	-0.150032	0.000102
C52	C	1.439318	0.349968	0.500102
C53	C	0.668571	-0.437202	0.000087
C54	C	1.168571	0.062798	0.500087
C55	C	0.694198	-0.535527	0.000092
C56	C	1.194198	-0.035527	0.500092
C57	C	0.838344	-0.558300	0.000109
C58	C	1.338344	-0.058300	0.500109
C59	C	0.812729	-0.459975	0.000100
C60	C	1.312729	0.040025	0.500100
C61	C	0.727842	-0.399434	0.000090
C62	C	1.227842	0.100566	0.500090
C63	C	0.872000	-0.422207	0.000103
C64	C	1.372000	0.077793	0.500103
C65	C	0.846387	-0.323891	0.000098
C66	C	1.346387	0.176109	0.500098
C67	C	0.761503	-0.263343	0.000091
C68	C	1.261503	0.236657	0.500091
C69	C	0.702229	-0.301118	0.000085
C70	C	1.202229	0.198882	0.500085
C71	C	0.956887	-0.482750	0.000118
C72	C	1.456887	0.017250	0.500118
C73	C	1.016158	-0.444981	0.000121
C74	C	1.516158	0.055019	0.500121
C75	C	0.990545	-0.346663	0.000111
C76	C	1.490545	0.153337	0.500111
C77	C	0.905661	-0.286116	0.000103
C78	C	1.405661	0.213884	0.500103
C79	C	1.049819	-0.308889	0.000116
C80	C	1.549819	0.191111	0.500116
C81	C	1.024206	-0.210573	0.000111
C82	C	1.524206	0.289427	0.500111
C83	C	0.880048	-0.187800	0.000099
C84	C	1.380048	0.312200	0.500099
C85	C	0.999546	0.119752	0.000122
C86	C	1.499546	0.619752	0.500122
C87	C	1.083109	0.121419	0.000127
C88	C	1.583109	0.621419	0.500127
C89	C	0.806321	0.299297	0.000106
C90	C	1.306321	0.799297	0.500106
C91	C	0.779068	0.403933	0.000105
C92	C	1.279068	0.903933	0.500105
N93	N	0.859180	0.126937	0.195773
N94	N	1.359180	0.626937	0.695773
N95	N	0.859215	0.126957	-0.195559
N96	N	1.359215	0.626957	0.304441
C97	C	0.928279	0.062764	0.239044
C98	C	1.428279	0.562764	0.739044
C99	C	0.928283	0.062763	0.325591
C100	C	1.428283	0.562763	0.825591
C101	C	0.859189	0.126940	0.368866
C102	C	1.359189	0.626940	0.868866
C103	C	0.790084	0.191116	0.325589
C104	C	1.290084	0.691116	0.825589
C105	C	0.790078	0.191111	0.239043
C106	C	1.290078	0.691111	0.739043
C107	C	0.790105	0.191133	0.674617
C108	C	1.290105	0.691133	1.174617
C109	C	0.790117	0.191135	0.761169
C110	C	1.290117	0.691135	1.261169
C111	C	0.928310	0.062785	0.761164
C112	C	1.428310	0.562785	1.261164
C113	C	0.928304	0.062781	0.674619
C114	C	1.428304	0.562781	1.174619
C115	C	0.859197	0.126953	0.631350
C116	C	1.359197	0.626953	1.131350
C117	C	0.859193	0.126952	0.537506
C118	C	1.359193	0.626952	1.037506
C119	C	0.859195	0.126946	0.462708
C120	C	1.359195	0.626946	0.962708
H121	H	0.544725	-0.026345	0.000115
H122	H	1.044725	0.473655	0.500115
H123	H	0.733810	0.243366	0.203813
H124	H	1.233810	0.743366	0.703813
H125	H	0.740650	-0.183289	0.000092
H126	H	1.240650	0.316711	0.500092
C127	C	1.143189	-0.375486	0.000132
C128	C	1.643189	0.124514	0.500132
H129	H	1.174821	-0.338911	0.000138
H130	H	1.674821	0.161089	0.500138
H131	H	1.156185	-0.414319	-0.047809
H132	H	1.656185	0.085681	0.452191
H133	H	1.156168	-0.414305	0.048091
H134	H	1.656168	0.085695	0.548091
C135	C	1.004289	-0.007826	0.373189
C136	C	1.504289	0.492174	0.873189
H137	H	0.994395	0.001357	0.430930
H138	H	1.494395	0.501357	0.930930
H139	H	1.052007	0.002332	0.359001
H140	H	1.552007	0.502332	0.859001
H141	H	1.013347	-0.070726	0.359009
H142	H	1.513347	0.429274	0.859009
H143	H	0.173657	0.280246	0.000103
H144	H	0.673657	0.780246	0.500103
C145	C	0.608853	-0.234516	0.000067
C146	C	1.108853	0.265484	0.500067
H147	H	0.577218	-0.271089	0.000067
H148	H	1.077218	0.228911	0.500067
H149	H	0.595876	-0.195689	-0.047882
H150	H	1.095876	0.304311	0.452118
H151	H	0.595860	-0.195692	0.048018
H152	H	1.095860	0.304308	0.548018
C153	C	0.714111	0.261726	0.808774
C154	C	1.214111	0.761726	1.308774
H155	H	0.724019	0.252542	0.866514
H156	H	1.224019	0.752542	1.366514
H157	H	0.666392	0.251563	0.794603
H158	H	1.166392	0.751563	1.294603
H159	H	0.705045	0.324628	0.794582
H160	H	1.205045	0.824628	1.294582
H161	H	0.984568	0.010525	0.639387
H162	H	1.484568	0.510525	1.139387
H163	H	0.149589	-0.034270	0.000127
H164	H	0.649589	0.465730	0.500127
C165	C	0.570696	0.312929	0.000073
C166	C	1.070696	0.812929	0.500073
H167	H	0.516643	0.363386	0.000082
H168	H	1.016643	0.863386	0.500082
H169	H	0.599965	0.317119	-0.047875
H170	H	1.099965	0.817119	0.452125
H171	H	0.599969	0.317109	0.048025
H172	H	1.099969	0.817109	0.548025
H173	H	0.977738	-0.562804	0.000115
H174	H	1.477738	-0.062804	0.500115
H175	H	0.031216	0.277393	0.000114
H176	H	0.531216	0.777393	0.500114
C177	C	1.089397	-0.169019	0.000112
C178	C	1.589397	0.330981	0.500112
H179	H	1.061984	-0.101795	0.000116
H180	H	1.561984	0.398205	0.500116
H181	H	1.123216	-0.189806	-0.047831
H182	H	1.623216	0.310194	0.452169
H183	H	1.123205	-0.189809	0.048069
H184	H	1.623205	0.310191	0.548069
H185	H	0.292019	-0.031418	0.000126
H186	H	0.792019	0.468582	0.500126
C187	C	0.628998	-0.577073	0.000089
C188	C	1.128998	-0.077073	0.500089
H189	H	0.656408	-0.644298	0.000100
H190	H	1.156408	-0.144298	0.500100
H191	H	0.595186	-0.556282	-0.047859
H192	H	1.095186	-0.056282	0.452141
H193	H	0.595185	-0.556282	0.048041
H194	H	1.095185	-0.056282	0.548041
C195	C	0.714066	0.261683	0.373185
C196	C	1.214066	0.761683	0.873185
H197	H	0.672905	0.299887	0.335017
H198	H	1.172905	0.799887	0.835017
H199	H	0.730496	0.300893	0.406952
H200	H	1.230496	0.800893	0.906952
H201	H	0.691884	0.227791	0.406940
H202	H	1.191884	0.727791	0.906940
C203	C	0.405830	0.309625	0.000087
C204	C	0.905830	0.809625	0.500087
H205	H	0.421028	0.361470	0.000073
H206	H	0.921028	0.861470	0.500073
H207	H	0.373848	0.312584	0.048036
H208	H	0.873848	0.812584	0.548036
H209	H	0.373845	0.312582	-0.047864
H210	H	0.873845	0.812582	0.452136
C211	C	0.707708	-0.047811	0.000086
C212	C	1.207708	0.452189	0.500086
H213	H	0.692512	-0.099658	0.000081
H214	H	1.192512	0.400342	0.500081
H215	H	0.739698	-0.050775	0.048030
H216	H	1.239698	0.449225	0.548030
H217	H	0.739686	-0.050761	-0.047870
H218	H	1.239686	0.449239	0.452130
H219	H	0.599448	-0.387905	0.000073
H220	H	1.099448	0.112095	0.500073
C221	C	1.109527	-0.511580	0.000128
C222	C	1.609527	-0.011580	0.500128
H223	H	1.116294	-0.575544	0.000125
H224	H	1.616294	-0.075544	0.500125
H225	H	1.134946	-0.500147	0.048073
H226	H	1.634946	-0.000147	0.548073
H227	H	1.134943	-0.500145	-0.047827
H228	H	1.634943	-0.000145	0.452173
C229	C	0.786673	-0.121195	0.000082
C230	C	1.286673	0.378805	0.500082
H231	H	0.779912	-0.057233	0.000075
H232	H	1.279912	0.442767	0.500075
H233	H	0.761244	-0.132626	0.048024
H234	H	1.261244	0.367374	0.548024
H235	H	0.761264	-0.132625	-0.047876
H236	H	1.261264	0.367375	0.452124
H237	H	0.984579	0.010530	0.796403
H238	H	1.484579	0.510530	1.296403
H239	H	0.984544	0.010508	0.203815
H240	H	1.484544	0.510508	0.703815
H241	H	0.907460	-0.607605	0.000120
H242	H	1.407460	-0.107605	0.500120
H243	H	0.733837	0.243386	0.639394
H244	H	1.233837	0.743386	1.139394
