data_functionalizedCrystal
_audit_creation_method	'MofGen! by Chris Wilmer'
_symmetry_space_group_name_H-M	'P1'
_symmetry_Int_Tables_number	1
_symmetry_cell_setting	triclinic
loop_
_symmetry_equiv_pos_as_xyz
  x,y,z
_cell_length_a	12.837932
_cell_length_b	15.995292
_cell_length_c	11.295483
_cell_angle_alpha	94.097347
_cell_angle_beta	85.460332
_cell_angle_gamma	89.149160
loop_
_atom_site_label
_atom_site_type_symbol
_atom_site_fract_x
_atom_site_fract_y
_atom_site_fract_z
O1	O	1.382381	0.212597	-0.099011
O2	O	1.080579	0.201843	-0.099014
O3	O	1.239762	0.085990	-0.099014
O4	O	1.223199	0.328450	-0.099011
O5	O	1.225780	0.096148	0.099037
O6	O	1.066597	0.212001	0.099037
O7	O	1.368400	0.222755	0.099040
Cu8	Cu	1.216222	0.218306	0.117122
Cu9	Cu	1.232757	0.206292	-0.117096
O10	O	1.209217	0.338608	0.099040
C11	C	1.034968	0.203289	0.000011
C12	C	0.919894	0.192455	0.000010
C13	C	0.770075	0.101902	0.000011
C14	C	0.878198	0.112076	0.000010
C15	C	0.853458	0.262665	0.000013
C16	C	0.745334	0.252491	0.000014
C17	C	0.703647	0.172107	0.000011
C18	C	0.595522	0.161933	0.000002
C19	C	0.570783	0.312521	0.000014
C20	C	0.678906	0.322695	0.000013
C21	C	1.232097	0.059819	0.000008
C22	C	1.230077	-0.033295	-0.000001
C23	C	1.222646	-0.371626	0.000010
C24	C	1.337509	-0.339123	0.000454
C25	C	1.339724	-0.242297	0.000003
C26	C	1.226333	-0.203776	0.000005
C27	C	1.176876	-0.243261	-0.113088
C28	C	1.175499	-0.340167	-0.113179
C29	C	1.157253	-0.328660	0.112042
C30	C	1.161406	-0.231751	0.113533
C31	C	1.228411	-0.108915	-0.000001
C32	C	1.220566	-0.466488	0.000009
C33	C	1.414011	0.221309	0.000012
C34	C	1.529085	0.232142	0.000006
C35	C	1.216882	0.364779	0.000015
C36	C	1.218903	0.457893	0.000016
N37	N	1.204600	0.226755	0.281858
N38	N	1.244387	0.197837	-0.281832
C39	C	1.328048	0.136965	0.531148
C40	C	1.319273	0.143357	0.655811
C41	C	1.178269	0.245926	0.655852
C42	C	1.187045	0.239534	0.531188
C43	C	1.261938	0.185053	0.468840
C44	C	1.270718	0.178666	0.344174
C45	C	1.129710	0.281230	0.344217
C46	C	1.120934	0.287622	0.468881
H47	H	1.376069	-0.359427	0.081558
O48	O	1.077729	-0.213414	-0.118329
C49	C	0.958903	-0.138714	-0.229845
C50	C	1.071217	-0.172494	-0.224076
H51	H	0.953607	-0.105608	-0.315323
H52	H	0.902389	-0.193011	-0.228664
H53	H	0.937583	-0.092463	-0.149762
H54	H	1.092636	-0.218732	-0.304143
H55	H	1.127667	-0.118154	-0.225200
H56	H	1.091619	-0.361702	-0.118301
O57	O	0.506405	0.380810	-0.000037
C58	C	0.493276	0.531250	0.000036
C59	C	0.566302	0.453988	0.000071
H60	H	0.541671	0.590435	0.000148
H61	H	0.447911	0.526060	-0.082871
H62	H	0.436163	0.534454	0.082897
H63	H	0.623476	0.450737	-0.082735
H64	H	0.611592	0.459210	0.083032
H65	H	1.222706	-0.224335	-0.197253
O66	O	1.056244	-0.353212	0.112910
C67	C	0.875747	-0.310356	0.110335
C68	C	0.990089	-0.282434	0.109330
H69	H	0.822227	-0.253145	0.107467
H70	H	0.866194	-0.355524	0.029353
H71	H	0.854166	-0.343074	0.195025
H72	H	1.011746	-0.249680	0.024694
H73	H	0.999580	-0.237305	0.190369
H74	H	1.075881	0.320389	0.293472
H75	H	0.736133	0.036450	-0.000004
O76	O	1.383605	0.096612	0.716152
C77	C	1.524338	-0.005842	0.702951
C78	C	1.451565	0.047069	0.634468
H79	H	1.579287	-0.045923	0.636939
H80	H	1.572080	0.037412	0.761274
H81	H	1.475461	-0.048229	0.761356
H82	H	1.500362	0.089462	0.575999
H83	H	1.403819	0.003767	0.576220
O84	O	0.942583	0.043788	-0.000048
C85	C	0.955702	-0.106646	0.000018
C86	C	0.882670	-0.029379	0.000055
H87	H	0.907291	-0.165819	0.000126
H88	H	1.012773	-0.109959	-0.082887
H89	H	1.001115	-0.101350	0.082881
H90	H	0.837188	-0.034622	-0.082752
H91	H	0.825667	-0.026092	0.083014
O92	O	1.343489	0.125676	0.283791
C93	C	1.482454	0.024648	0.296915
C94	C	1.400071	0.084615	0.365442
H95	H	1.528237	-0.008553	0.362899
H96	H	1.441870	-0.023815	0.238592
H97	H	1.538296	0.061968	0.238507
H98	H	1.344206	0.047366	0.423914
H99	H	1.440725	0.133078	0.423689
O100	O	0.894137	0.340683	-0.000004
C101	C	1.049740	0.423094	0.000148
C102	C	1.003813	0.334688	0.000123
H103	H	1.138417	0.418278	0.000277
H104	H	1.028326	0.454012	-0.082743
H105	H	1.016458	0.462448	0.083025
H106	H	1.037071	0.295267	-0.082698
H107	H	1.025218	0.303836	0.083069
O108	O	0.719582	0.400714	-0.000035
C109	C	0.875181	0.483132	0.000045
C110	C	0.829261	0.394726	0.000074
H111	H	0.963860	0.478322	0.000159
H112	H	0.853753	0.514027	-0.082860
H113	H	0.841907	0.522505	0.082908
H114	H	0.862509	0.355286	-0.082733
H115	H	0.850680	0.363898	0.083034
H116	H	1.221249	-0.368145	-0.197720
O117	O	1.192967	-0.353841	0.214229
C118	C	1.224950	-0.469921	0.332120
C119	C	1.184486	-0.441517	0.216343
H120	H	1.218088	-0.540806	0.333879
H121	H	1.310291	-0.452069	0.336317
H122	H	1.176356	-0.437897	0.411925
H123	H	1.233003	-0.473526	0.136474
H124	H	1.099133	-0.459354	0.212251
H125	H	1.197326	-0.205557	0.197198
O126	O	1.386584	-0.210488	0.096777
C127	C	1.469699	-0.240417	0.273408
C128	C	1.416697	-0.276548	0.163823
H129	H	1.494040	-0.293808	0.327658
H130	H	1.541714	-0.204338	0.242999
H131	H	1.412504	-0.196342	0.330741
H132	H	1.473811	-0.320658	0.106443
H133	H	1.344665	-0.312578	0.194314
O134	O	1.105377	0.298738	0.716380
C135	C	0.922438	0.335304	0.754535
C136	C	1.004881	0.275429	0.685929
H137	H	0.841170	0.316492	0.729922
H138	H	0.927435	0.331593	0.854350
H139	H	0.937691	0.402200	0.730060
H140	H	0.989682	0.208507	0.710304
H141	H	0.999864	0.279213	0.586132
O142	O	1.396913	-0.374335	-0.095804
C143	C	1.503489	-0.350799	-0.275228
C144	C	1.436269	-0.310811	-0.166253
H145	H	1.535310	-0.299460	-0.332228
H146	H	1.571342	-0.388006	-0.244089
H147	H	1.453512	-0.394550	-0.330086
H148	H	1.486159	-0.267024	-0.111348
H149	H	1.368411	-0.273656	-0.197471
O150	O	1.400671	-0.220945	-0.096758
C151	C	1.553195	-0.148117	-0.168932
C152	C	1.484284	-0.172256	-0.059238
H153	H	1.620800	-0.108733	-0.138638
H154	H	1.585357	-0.207372	-0.222317
H155	H	1.504392	-0.110328	-0.227062
H156	H	1.533018	-0.210025	-0.001019
H157	H	1.452115	-0.112969	-0.005944
H158	H	1.078159	-0.205035	0.120365
H159	H	1.389036	0.092610	0.480383
O160	O	1.048098	0.340554	0.529265
C161	C	0.909209	0.441650	0.516146
C162	C	0.991635	0.381723	0.447617
H163	H	0.863551	0.474964	0.450163
H164	H	0.853256	0.404372	0.574484
H165	H	0.949857	0.490026	0.574540
H166	H	0.951076	0.333335	0.389159
H167	H	1.047582	0.419057	0.389355
O168	O	0.555192	0.083795	0.000053
C169	C	0.591153	-0.064496	-0.000015
C170	C	0.636958	0.023949	-0.000048
H171	H	0.657240	-0.112908	-0.000122
H172	H	0.535336	-0.068827	0.082887
H173	H	0.546966	-0.077234	-0.082881
H174	H	0.681196	0.036745	0.082761
H175	H	0.692720	0.028235	-0.083005
