data_functionalizedCrystal
_audit_creation_method	'MofGen! by Chris Wilmer'
_symmetry_space_group_name_H-M	'P1'
_symmetry_Int_Tables_number	1
_symmetry_cell_setting	triclinic
loop_
_symmetry_equiv_pos_as_xyz
  x,y,z
_cell_length_a	23.196402
_cell_length_b	14.560438
_cell_length_c	23.196401
_cell_angle_alpha	90.013216
_cell_angle_beta	60.007332
_cell_angle_gamma	60.004966
loop_
_atom_site_label
_atom_site_type_symbol
_atom_site_fract_x
_atom_site_fract_y
_atom_site_fract_z
Zr1	Zr	0.630988	0.884825	-0.075636
O2	O	0.751249	0.738163	-0.167683
O3	O	0.510727	0.929771	-0.047422
O4	O	0.630990	0.929745	-0.167688
O5	O	0.630984	0.738226	0.047455
O6	O	0.630991	1.080883	-0.167689
O7	O	0.630986	0.738189	-0.047417
O8	O	0.415863	1.080930	0.047445
O9	O	0.846113	0.738178	-0.167679
O10	O	0.560193	1.061749	-0.035386
O11	O	0.560191	0.948983	0.035416
O12	O	0.701785	0.948952	-0.106182
O13	O	0.701782	0.836186	-0.035380
Zr14	Zr	0.630988	1.125930	0.075671
Zr15	Zr	0.630990	1.125873	-0.075638
Zr16	Zr	0.630985	0.884882	0.075673
Zr17	Zr	0.782285	0.884849	-0.075631
Zr18	Zr	0.479691	1.125906	0.075665
O19	O	0.751249	1.080984	0.047457
O20	O	0.751252	1.080902	-0.167685
O21	O	0.751245	0.738245	0.047459
O22	O	0.510727	1.272592	0.167717
O23	O	0.510730	1.272510	-0.047425
O24	O	0.510723	0.929853	0.167719
O25	O	0.630992	1.272529	-0.047420
O26	O	0.630986	1.081011	0.167723
O27	O	0.630984	0.929872	0.167724
O28	O	0.630990	1.272566	0.047451
O29	O	0.846115	0.929779	-0.167680
O30	O	0.415861	1.080976	0.167715
O31	O	0.415863	1.272577	0.167714
O32	O	0.415865	1.272531	0.047443
O33	O	0.846111	0.738224	-0.047409
O34	O	0.846113	0.929825	-0.047410
O35	O	0.560191	1.061803	0.106217
O36	O	0.560193	1.174569	0.035414
O37	O	0.701785	1.061772	-0.035381
O38	O	0.701783	0.949006	0.035421
C39	C	0.441738	1.005347	0.000010
C40	C	0.377508	1.005337	0.000008
C41	C	0.295080	1.088621	0.052268
C42	C	0.234719	1.088629	0.052274
C43	C	0.256793	1.005361	0.000010
C44	C	0.339235	0.922062	-0.052255
C45	C	0.399593	0.922050	-0.052256
C46	C	0.201206	0.979411	-0.063782
C47	C	0.140847	0.979430	-0.063781
C48	C	0.070631	1.005391	0.000013
C49	C	0.060771	1.031356	0.063811
C50	C	0.121129	1.031344	0.063810
C51	C	0.191350	1.005364	0.000006
C52	C	-0.077251	1.088688	0.052284
C53	C	-0.137610	1.088688	0.052291
C54	C	-0.033092	0.922126	-0.052244
C55	C	0.027265	0.922121	-0.052245
C56	C	0.005180	1.005408	0.000019
C57	C	0.630984	0.703863	0.000019
C58	C	0.630983	0.601532	0.000020
C59	C	0.630991	1.005305	-0.189247
C60	C	0.630992	1.005281	-0.253482
C61	C	0.820238	1.005408	0.000024
C62	C	0.884467	1.005418	0.000027
C63	C	0.557080	0.516171	0.036971
C64	C	0.557075	0.612327	0.036972
C65	C	0.704901	0.494573	-0.036941
C66	C	0.704906	0.398420	-0.036946
C67	C	0.468273	0.814455	0.047782
C68	C	0.394357	0.921409	0.084751
C69	C	0.329100	0.942195	0.150976
C70	C	0.337756	0.856030	0.180250
C71	C	0.411674	0.749080	0.143286
C72	C	0.476928	0.728295	0.077048
C73	C	0.793702	0.196294	-0.047748
C74	C	0.867621	0.089341	-0.084708
C75	C	0.932885	0.068548	-0.150934
C76	C	0.924236	0.154709	-0.180203
C77	C	0.850318	0.261662	-0.143243
C78	C	0.785053	0.282449	-0.077018
C79	C	0.630991	1.306892	0.000015
C80	C	0.630992	1.409223	0.000015
C81	C	0.704899	0.946408	-0.320609
C82	C	0.704900	0.946436	-0.380964
C83	C	0.630990	1.005323	-0.374188
C84	C	0.557073	1.064209	-0.307048
C85	C	0.557074	1.064188	-0.246695
C86	C	0.574364	0.996950	-0.441507
C87	C	0.574366	0.996963	-0.501861
C88	C	0.630984	1.005394	-0.560336
C89	C	0.687613	1.013789	-0.558456
C90	C	0.687614	1.013768	-0.498103
C91	C	0.630980	1.005353	-0.439627
C92	C	0.704897	0.946549	-0.692910
C93	C	0.704895	0.946585	-0.753265
C94	C	0.557066	1.064351	-0.679346
C95	C	0.557070	1.064322	-0.618994
C96	C	0.630988	1.005414	-0.625780
C97	C	0.630985	1.005450	0.189282
C98	C	0.630984	1.005474	0.253516
C99	C	0.441741	1.306861	0.000008
C100	C	0.377513	1.409182	0.000005
C101	C	0.441735	1.005419	0.189275
C102	C	0.377504	1.005433	0.253507
C103	C	0.441739	1.306933	0.189273
C104	C	0.377509	1.409279	0.253504
C105	C	0.820237	0.703822	-0.189238
C106	C	0.884467	0.601476	-0.253470
C107	C	0.820234	0.703894	0.000026
C108	C	0.884463	0.601573	0.000029
C109	C	0.820241	1.005336	-0.189240
C110	C	0.884471	1.005322	-0.253472
C111	C	0.347350	1.398342	-0.036960
C112	C	0.287009	1.494474	-0.036977
C113	C	0.256828	1.601445	-0.000024
C114	C	0.286996	1.612283	0.036942
C115	C	0.347340	1.516152	0.036954
C116	C	0.347341	1.064331	0.320635
C117	C	0.286998	1.064340	0.380993
C118	C	0.256815	1.005457	0.374223
C119	C	0.286984	0.946553	0.307088
C120	C	0.347331	0.946538	0.246731
C121	C	0.347347	1.516214	0.246710
C122	C	0.287005	1.612387	0.307057
C123	C	0.256822	1.601623	0.374197
C124	C	0.286990	1.494677	0.380990
C125	C	0.347335	1.398506	0.320644
C126	C	0.914636	0.494541	-0.246675
C127	C	0.974996	0.398368	-0.307022
C128	C	1.005183	0.409132	-0.374162
C129	C	0.975012	0.516078	-0.380955
C130	C	0.914656	0.612249	-0.320609
C131	C	0.914632	0.612413	0.036988
C132	C	0.974989	0.516281	0.036988
C133	C	1.005173	0.409310	0.000034
C134	C	0.975002	0.398472	-0.036930
C135	C	0.914649	0.494603	-0.036934
C136	C	0.914635	1.064216	-0.246679
C137	C	0.974978	1.064224	-0.307026
C138	C	1.005161	1.005332	-0.374166
C139	C	0.974992	0.946436	-0.380958
C140	C	0.914645	0.946435	-0.320611
H141	H	0.113099	1.052482	0.115756
H142	H	0.740558	0.213212	0.006174
Cl143	Cl	0.236176	1.076651	0.197447
Cl144	Cl	1.081058	0.288218	-0.450020
Cl145	Cl	0.385246	1.529799	0.083435
Cl146	Cl	1.012966	0.529591	-0.465365
Cl147	Cl	0.876725	0.480956	-0.083396
H148	H	0.521402	0.797535	-0.006149
Cl149	Cl	0.385270	1.138366	0.329165
Cl150	Cl	1.081029	1.005341	-0.450024
Cl151	Cl	0.385238	0.872495	0.162344
Cl152	Cl	0.180949	1.005490	0.450109
Cl153	Cl	0.249081	1.138402	0.465382
H154	H	0.890069	1.112173	-0.192016
H155	H	0.890093	0.699318	-0.326149
Cl156	Cl	0.797820	0.872524	-0.701438
H157	H	0.999536	1.112182	-0.301482
Cl158	Cl	0.876703	0.746879	0.083447
H159	H	0.371914	1.525000	0.192047
Cl160	Cl	0.503181	0.986398	-0.504220
Cl161	Cl	0.876740	0.872376	-0.329164
Cl162	Cl	0.503136	0.986443	-0.367977
Cl163	Cl	0.249041	1.746769	0.083397
H164	H	0.371924	1.311250	-0.067060
H165	H	0.418722	0.678927	0.167120
H166	H	0.890061	0.485755	-0.192012
Cl167	Cl	1.012952	0.872393	-0.465367
H168	H	0.262401	0.898612	0.301586
H169	H	0.999545	0.525127	0.067091
H170	H	0.371884	1.311438	0.326186
Cl171	Cl	0.249089	1.746820	0.298501
H172	H	-0.204731	1.156507	0.094852
H173	H	0.277091	1.156438	0.094826
Cl174	Cl	1.081044	0.288469	0.000048
H175	H	0.999552	0.311297	-0.301477
H176	H	0.999587	0.311364	-0.067017
Cl177	Cl	0.180957	1.722537	0.450055
H178	H	0.167594	1.156450	0.094833
H179	H	-0.095234	1.156500	0.094844
Cl180	Cl	-0.027507	1.064023	0.144016
H181	H	-0.015119	0.854326	-0.094798
Cl182	Cl	0.249035	1.481164	0.465400
Cl183	Cl	0.130895	0.817418	-0.117949
H184	H	0.262454	1.485628	-0.067079
H185	H	0.765079	0.485791	-0.067032
H186	H	0.258381	0.958259	-0.115735
Cl187	Cl	0.153247	0.946789	-0.143983
H188	H	0.765086	0.898492	-0.435630
H189	H	0.357203	0.854263	-0.094808
H190	H	0.765082	0.898648	-0.807925
H191	H	0.496895	0.524973	0.067065
Cl192	Cl	0.255718	0.882177	0.263516
Cl193	Cl	0.503225	0.817341	-0.117960
Cl194	Cl	0.464157	1.138242	-0.298528
H195	H	0.387314	0.991561	0.060910
H196	H	0.977378	0.137776	-0.234131
Cl197	Cl	1.025815	-0.065907	-0.197394
Cl198	Cl	0.839445	0.369982	-0.180038
H199	H	0.496886	1.112258	-0.564334
Cl200	Cl	0.797824	0.872329	-0.329144
Cl201	Cl	0.878494	-0.018976	-0.047911
Cl202	Cl	0.758800	1.024324	-0.495740
H203	H	0.733719	1.020649	-0.606069
H204	H	0.496886	1.112299	-0.673828
H205	H	0.496888	1.112131	-0.192035
Cl206	Cl	0.180964	1.722286	-0.000045
