data_functionalizedCrystal
_audit_creation_method	'MofGen! by Chris Wilmer'
_symmetry_space_group_name_H-M	'P1'
_symmetry_Int_Tables_number	1
_symmetry_cell_setting	triclinic
loop_
_symmetry_equiv_pos_as_xyz
  x,y,z
_cell_length_a	14.560432
_cell_length_b	20.875641
_cell_length_c	20.875641
_cell_angle_alpha	60.089808
_cell_angle_beta	90.001982
_cell_angle_gamma	62.441128
loop_
_atom_site_label
_atom_site_type_symbol
_atom_site_fract_x
_atom_site_fract_y
_atom_site_fract_z
Zr1	Zr	0.926791	0.694364	-0.105772
O2	O	0.792201	0.820601	-0.209036
O3	O	0.963014	0.563109	-0.070841
O4	O	0.976540	0.687133	-0.204313
O5	O	0.773735	0.704031	0.025995
O6	O	1.127677	0.687135	-0.204313
O7	O	0.778676	0.696578	-0.075564
O8	O	1.103483	0.465280	0.034444
O9	O	0.797929	0.925887	-0.212762
O10	O	1.097340	0.618956	-0.059901
O11	O	0.980860	0.624516	0.015892
O12	O	0.996784	0.770538	-0.141254
O13	O	0.880305	0.776098	-0.065462
Zr14	Zr	1.159959	0.706255	0.056202
Zr15	Zr	1.167838	0.694368	-0.105773
Zr16	Zr	0.918911	0.706251	0.056203
Zr17	Zr	0.935927	0.862281	-0.111715
Zr18	Zr	1.150823	0.538337	0.062145
O19	O	1.123735	0.837510	0.021271
O20	O	1.134939	0.820608	-0.209037
O21	O	0.780997	0.837504	0.021272
O22	O	1.294549	0.580017	0.159466
O23	O	1.305753	0.563115	-0.070842
O24	O	0.951810	0.580011	0.159467
O25	O	1.313015	0.696588	-0.075565
O26	O	1.110210	0.713486	0.154743
O27	O	0.959072	0.713483	0.154743
O28	O	1.308074	0.704041	0.025994
O29	O	0.989530	0.925890	-0.212763
O30	O	1.097220	0.474729	0.163193
O31	O	1.288820	0.474732	0.163192
O32	O	1.295084	0.465283	0.034444
O33	O	0.791666	0.935335	-0.084014
O34	O	0.983267	0.935339	-0.084014
O35	O	1.089965	0.630081	0.091684
O36	O	1.206445	0.624520	0.015892
O37	O	1.105890	0.776102	-0.065462
O38	O	0.989410	0.781663	0.010331
C39	C	1.031947	0.490270	-0.017352
C40	C	1.028069	0.418984	-0.014829
C41	C	0.741861	0.700304	-0.024784
C42	C	0.639531	0.700302	-0.024784
C43	C	1.087045	0.382592	-0.053207
C44	C	1.083403	0.315607	-0.050829
C45	C	1.020778	0.285021	-0.010078
C46	C	0.961800	0.321416	0.028305
C47	C	0.965449	0.388395	0.025931
C48	C	1.003352	0.085009	0.001268
C49	C	0.999705	0.018027	0.003637
C50	C	1.121310	0.012221	-0.075496
C51	C	1.124948	0.079206	-0.077870
C52	C	1.065974	0.115592	-0.039484
N53	N	1.017051	0.216554	-0.007648
N54	N	1.069708	0.184054	-0.041910
C55	C	0.744494	0.542048	0.060142
C56	C	0.748900	0.462924	0.102602
C57	C	0.652748	0.462928	0.102600
C58	C	0.552182	0.542064	0.060135
C59	C	0.547777	0.621189	0.017676
C60	C	0.643937	0.621176	0.017681
C61	C	0.442814	0.779441	-0.067245
C62	C	0.538965	0.779439	-0.067249
C63	C	0.342248	0.858578	-0.109710
C64	C	0.337842	0.937704	-0.152175
C65	C	0.434002	0.937697	-0.152171
C66	C	0.534560	0.858563	-0.109708
C67	C	1.344888	0.700315	-0.024786
C68	C	1.447219	0.700317	-0.024786
C69	C	1.053231	0.685440	-0.227391
C70	C	1.056576	0.680394	-0.296154
C71	C	1.054803	0.910349	-0.032218
C72	C	1.058681	0.981635	-0.034741
C73	C	1.005661	0.757145	-0.370924
C74	C	1.008818	0.752398	-0.435531
C75	C	1.062885	0.670899	-0.425366
C76	C	1.113807	0.594142	-0.350588
C77	C	1.110656	0.598890	-0.285983
C78	C	1.077944	0.648215	-0.614032
C79	C	1.081089	0.643474	-0.678646
C80	C	0.976101	0.801730	-0.763585
C81	C	0.972949	0.806471	-0.698974
C82	C	1.023876	0.729714	-0.624202
N83	N	1.066111	0.666045	-0.491404
N84	N	1.020657	0.734569	-0.558166
C85	C	1.033519	0.715179	0.177821
C86	C	1.030173	0.720225	0.246584
C87	C	1.333461	0.490275	-0.017352
C88	C	1.431913	0.418992	-0.014830
C89	C	1.022091	0.505139	0.185254
C90	C	1.014867	0.438900	0.256540
C91	C	1.323604	0.505144	0.185254
C92	C	1.418712	0.438907	0.256539
C93	C	0.763146	0.895475	-0.234824
C94	C	0.668038	0.961712	-0.306109
C95	C	0.753289	0.910344	-0.032218
C96	C	0.654837	0.981627	-0.034740
C97	C	1.064659	0.895480	-0.234824
C98	C	1.071883	0.961719	-0.306110
C99	C	1.421196	0.382611	-0.053215
C100	C	1.513694	0.315640	-0.050860
C101	C	1.616909	0.285048	-0.010115
C102	C	1.627624	0.321435	0.028271
C103	C	1.535127	0.388408	0.025911
C104	C	1.068426	0.410698	0.329586
C105	C	1.061635	0.348469	0.396572
C106	C	1.001290	0.314439	0.390511
C107	C	0.947724	0.342646	0.317457
C108	C	0.954510	0.404879	0.250472
C109	C	1.524186	0.404899	0.250452
C110	C	1.613560	0.342671	0.317426
C111	C	1.597456	0.314448	0.390486
C112	C	1.491970	0.348462	0.396571
C113	C	1.402599	0.410694	0.329598
C114	C	0.562564	0.995728	-0.300023
C115	C	0.473192	1.057977	-0.366997
C116	C	0.489296	1.086204	-0.440057
C117	C	0.594781	1.052185	-0.446142
C118	C	0.684151	0.989942	-0.379168
C119	C	0.665555	1.018014	0.003638
C120	C	0.573058	1.085002	0.001264
C121	C	0.469844	1.115597	-0.039483
C122	C	0.459128	1.079207	-0.077865
C123	C	0.551624	1.012225	-0.075496
C124	C	1.132237	0.995730	-0.300024
C125	C	1.139045	1.057961	-0.366997
C126	C	1.085493	1.086183	-0.440057
C127	C	1.025136	1.052165	-0.446141
C128	C	1.018335	0.989931	-0.379168
H129	H	1.138035	0.407494	-0.086395
F130	F	1.502267	0.276924	-0.091715
F131	F	0.954086	0.953747	-0.385658
H132	H	0.928926	0.872836	-0.707260
H133	H	1.337163	0.407518	-0.086403
H134	H	0.387309	1.085665	-0.362027
F135	F	0.371410	1.186886	-0.041996
F136	F	0.394169	1.152449	-0.511330
H137	H	0.549431	0.972749	-0.240540
H138	H	1.169325	-0.017411	-0.106748
F139	F	0.796403	0.953740	-0.385658
H140	H	0.607881	1.075175	-0.505635
H141	H	0.749588	0.993110	0.036824
H142	H	0.961626	0.823511	-0.379211
H143	H	0.955336	0.114624	0.032528
F144	F	1.138638	0.556727	-0.667821
F145	F	0.540200	0.973501	-0.116341
F146	F	1.132660	0.446903	0.336055
F147	F	1.189241	0.965705	-0.222275
F148	F	0.846833	0.542037	0.060139
H149	H	1.131426	0.285976	-0.082079
F150	F	0.584485	1.123717	0.042122
H151	H	1.543868	0.418022	0.057173
F152	F	0.230815	1.021917	-0.197357
F153	F	1.541350	0.434929	0.172703
H154	H	0.910898	0.427831	0.190998
F155	F	0.349271	1.111776	-0.121227
H156	H	1.091039	1.136858	-0.494585
H157	H	1.119413	0.585714	-0.553158
H158	H	1.692217	0.230512	-0.008199
H159	H	0.898592	0.314929	0.312533
F160	F	0.954625	0.834088	-0.515108
H161	H	0.656339	0.398498	0.137177
F162	F	1.203280	1.094158	-0.360505
F163	F	1.474848	0.318416	0.474333
H164	H	1.175942	0.104108	-0.111053
F165	F	0.933045	-0.014522	0.047010
F166	F	1.164857	0.517200	-0.206404
F167	F	1.118654	0.318458	0.474313
F168	F	0.895164	0.288852	0.071687
F169	F	0.968139	1.082216	-0.523904
H170	H	0.934640	0.864222	-0.824469
F171	F	0.902681	0.427125	0.066780
F172	F	0.449850	0.542065	0.060147
F173	F	0.855931	0.378706	0.147805
H174	H	0.263960	0.858575	-0.109704
F175	F	0.994079	0.248205	0.461809
F176	F	1.725815	0.306478	0.310934
H177	H	0.430403	1.002130	-0.186737
H178	H	1.157836	0.527784	-0.342316
F179	F	1.737481	0.288864	0.071634
F180	F	0.636901	0.858549	-0.109704
H181	H	1.670237	0.263774	0.445013
H182	H	1.316720	0.438375	0.334564
