data_functionalizedCrystal
_audit_creation_method	'MofGen! by Chris Wilmer'
_symmetry_space_group_name_H-M	'P1'
_symmetry_Int_Tables_number	1
_symmetry_cell_setting	triclinic
loop_
_symmetry_equiv_pos_as_xyz
  x,y,z
_cell_length_a	21.395364
_cell_length_b	16.120444
_cell_length_c	21.395355
_cell_angle_alpha	92.881464
_cell_angle_beta	89.975484
_cell_angle_gamma	92.922365
loop_
_atom_site_label
_atom_site_type_symbol
_atom_site_fract_x
_atom_site_fract_y
_atom_site_fract_z
Zn1	Zn	0.945223	-0.332102	-0.366915
Zn2	Zn	0.939821	-0.471499	-0.267449
Zn3	Zn	0.840438	-0.332092	-0.262151
Zn4	Zn	0.835104	-0.471467	-0.372188
O5	O	0.890146	-0.401790	-0.317176
O6	O	1.032183	-0.350611	-0.353731
O7	O	0.926609	-0.453015	-0.179068
O8	O	0.858831	-0.215426	-0.271624
O9	O	1.028215	-0.453025	-0.280653
O10	O	0.935816	-0.215433	-0.348594
O11	O	0.853593	-0.350593	-0.175176
O12	O	0.752053	-0.350563	-0.276737
O13	O	0.849740	-0.452971	-0.459166
O14	O	0.748134	-0.452961	-0.357581
O15	O	0.930643	-0.350580	-0.455292
O16	O	0.921437	-0.588161	-0.285766
O17	O	0.844502	-0.588138	-0.362718
C18	C	0.727360	-0.401758	-0.317157
C19	C	0.657719	-0.401764	-0.317164
C20	C	0.157982	-0.348588	-0.355306
C21	C	0.223418	-0.348582	-0.355305
C22	C	0.254078	-0.401815	-0.317191
C23	C	0.219297	-0.455073	-0.279085
C24	C	0.153862	-0.455084	-0.279091
C25	C	0.357469	-0.408271	-0.260969
C26	C	0.422903	-0.408255	-0.260962
C27	C	0.455900	-0.401787	-0.317172
C28	C	0.423457	-0.395319	-0.373391
C29	C	0.358022	-0.395330	-0.373397
C30	C	0.325031	-0.401810	-0.317180
C31	C	0.561626	-0.348530	-0.355278
C32	C	0.627063	-0.348530	-0.355279
C33	C	0.622941	-0.455016	-0.279053
C34	C	0.557505	-0.455021	-0.279058
C35	C	0.526852	-0.401774	-0.317169
C36	C	0.881822	-0.618400	-0.325403
C37	C	0.878318	-0.711067	-0.328943
C38	C	0.908477	-0.922003	-0.298944
C39	C	0.871932	-0.880725	-0.335414
C40	C	0.875486	-0.786319	-0.331813
C41	C	0.904924	-1.016418	-0.302544
C42	C	1.053568	-0.401822	-0.317195
C43	C	1.123209	-0.401836	-0.317203
C44	C	0.890199	-0.401773	-0.480598
C45	C	0.890222	-0.401766	-0.550239
C46	C	0.898521	-0.184333	-0.308930
C47	C	0.902089	-0.091666	-0.305416
C48	C	0.932346	-0.348448	-0.580936
C49	C	0.932347	-0.348413	-0.646370
C50	C	0.890229	-0.401709	-0.681105
C51	C	0.848096	-0.455030	-0.650401
C52	C	0.848092	-0.455058	-0.584968
C53	C	0.882396	-0.476776	-0.787631
C54	C	0.882404	-0.476749	-0.853063
C55	C	0.890236	-0.401621	-0.882923
C56	C	0.898073	-0.326517	-0.847343
C57	C	0.898069	-0.326545	-0.781910
C58	C	0.890227	-0.401684	-0.752057
C59	C	0.932364	-0.348260	-0.984571
C60	C	0.932360	-0.348223	-1.050006
C61	C	0.848112	-0.454848	-1.054036
C62	C	0.848112	-0.454877	-0.988601
C63	C	0.890242	-0.401585	-0.953873
C64	C	0.890132	-0.401746	-0.154386
C65	C	0.890240	-0.401519	-0.084737
H66	H	0.450322	-0.390049	-0.419162
N67	N	0.906066	-0.249759	-0.877824
N68	N	0.913058	-0.182712	-0.846050
H69	H	0.918704	-0.128503	-0.867579
H70	H	0.331609	-0.390065	-0.419172
N71	N	0.951073	-0.877385	-0.256389
N72	N	0.953933	-0.799646	-0.253491
H73	H	0.984015	-0.768124	-0.223437
N74	N	0.975384	-0.294010	-0.545473
N75	N	1.012994	-0.246409	-0.572894
H76	H	1.043391	-0.207961	-0.547847
H77	H	0.813813	-0.498299	-0.963608
H78	H	0.966649	-0.304991	-0.671368
N79	N	0.258949	-0.294172	-0.394214
N80	N	0.297484	-0.241003	-0.370198
H81	H	0.322578	-0.202573	-0.397675
H82	H	0.330608	-0.413541	-0.215193
N83	N	0.975391	-0.293767	-1.081374
N84	N	0.975387	-0.293746	-1.139796
H85	H	1.005779	-0.255287	-1.161952
N86	N	0.829335	-0.925344	-0.377973
N87	N	0.826469	-1.003083	-0.380873
H88	H	0.796385	-1.034600	-0.410927
N89	N	0.874358	-0.553465	-0.889395
N90	N	0.867327	-0.620533	-0.862729
H91	H	0.861626	-0.674715	-0.888386
H92	H	0.536667	-0.305173	-0.386311
N93	N	0.805099	-0.509302	-1.089512
N94	N	0.806297	-0.586236	-1.085139
H95	H	0.775919	-0.624697	-1.110197
H96	H	0.655374	-0.305171	-0.386312
N97	N	0.906053	-0.249832	-0.745566
N98	N	0.864337	-0.228004	-0.708207
H99	H	0.869972	-0.173824	-0.682539
N100	N	0.654261	-0.509394	-0.240127
N101	N	0.712684	-0.509381	-0.240128
H102	H	0.734807	-0.547789	-0.212637
N103	N	0.975397	-0.293817	-0.949101
N104	N	1.013002	-0.246207	-0.976520
H105	H	1.043394	-0.207755	-0.951472
H106	H	0.875852	-0.537940	-0.763325
N107	N	0.805073	-0.509460	-0.685888
N108	N	0.805082	-0.509428	-0.744310
H109	H	0.774693	-0.547868	-0.769373
H110	H	0.529192	-0.498378	-0.248027
H111	H	0.813786	-0.498474	-0.559975
H112	H	0.133029	-0.305233	-0.386342
H113	H	0.244264	-0.498418	-0.248054
N114	N	0.456030	-0.414855	-0.203533
N115	N	0.426563	-0.420642	-0.153351
H116	H	0.449958	-0.425304	-0.112789
H117	H	0.125550	-0.498447	-0.248063
