data_functionalizedCrystal
_audit_creation_method	'MofGen! by Chris Wilmer'
_symmetry_space_group_name_H-M	'P1'
_symmetry_Int_Tables_number	1
_symmetry_cell_setting	triclinic
loop_
_symmetry_equiv_pos_as_xyz
  x,y,z
_cell_length_a	27.731988
_cell_length_b	19.288865
_cell_length_c	26.809956
_cell_angle_alpha	90.011357
_cell_angle_beta	90.012008
_cell_angle_gamma	82.877306
loop_
_atom_site_label
_atom_site_type_symbol
_atom_site_fract_x
_atom_site_fract_y
_atom_site_fract_z
O1	O	-0.641209	-0.082450	-0.041347
O2	O	-0.391209	0.167550	0.208653
O3	O	-0.141209	0.417550	0.458653
O4	O	0.108791	0.667550	0.708653
O5	O	-0.500449	-0.095060	-0.041379
O6	O	-0.250449	0.154940	0.208621
O7	O	-0.000449	0.404940	0.458621
O8	O	0.249551	0.654940	0.708621
O9	O	-0.574896	0.012402	-0.041352
O10	O	-0.324896	0.262402	0.208648
O11	O	-0.074896	0.512402	0.458648
O12	O	0.175104	0.762402	0.708648
O13	O	-0.566762	-0.189912	-0.041374
O14	O	-0.316762	0.060088	0.208626
O15	O	-0.066762	0.310088	0.458626
O16	O	0.183238	0.560088	0.708626
O17	O	-0.574863	0.012403	0.041607
O18	O	-0.324863	0.262403	0.291607
O19	O	-0.074863	0.512403	0.541607
O20	O	0.175137	0.762403	0.791607
O21	O	-0.500416	-0.095059	0.041580
O22	O	-0.250416	0.154941	0.291580
O23	O	-0.000416	0.404941	0.541580
O24	O	0.249584	0.654941	0.791580
O25	O	-0.641175	-0.082449	0.041612
O26	O	-0.391175	0.167551	0.291612
O27	O	-0.141175	0.417551	0.541612
O28	O	0.108825	0.667551	0.791612
Zn29	Zn	-0.570790	-0.088754	0.054768
Zn30	Zn	-0.320790	0.161246	0.304768
Zn31	Zn	-0.070790	0.411246	0.554768
Zn32	Zn	0.179210	0.661246	0.804768
Zn33	Zn	-0.570834	-0.088755	-0.054535
Zn34	Zn	-0.320834	0.161245	0.195465
Zn35	Zn	-0.070834	0.411245	0.445465
Zn36	Zn	0.179166	0.661245	0.695465
O37	O	-0.566728	-0.189911	0.041585
O38	O	-0.316728	0.060089	0.291585
O39	O	-0.066728	0.310089	0.541585
O40	O	0.183272	0.560089	0.791585
C41	C	-0.482424	-0.094801	0.000097
C42	C	-0.232424	0.155199	0.250097
C43	C	0.017576	0.405199	0.500097
C44	C	0.267576	0.655199	0.750097
C45	C	-0.428765	-0.094024	0.000085
C46	C	-0.178765	0.155976	0.250085
C47	C	0.071235	0.405976	0.500085
C48	C	0.321235	0.655976	0.750085
C49	C	-0.574618	0.038277	0.000129
C50	C	-0.324618	0.288277	0.250129
C51	C	-0.074618	0.538277	0.500129
C52	C	0.175382	0.788277	0.750129
C53	C	-0.573832	0.115375	0.000133
C54	C	-0.323832	0.365375	0.250133
C55	C	-0.073832	0.615375	0.500133
C56	C	0.176168	0.865375	0.750133
N57	N	-0.570763	-0.088752	0.129364
N58	N	-0.320763	0.161248	0.379364
N59	N	-0.070763	0.411248	0.629364
N60	N	0.179237	0.661248	0.879364
C61	C	-0.045606	-0.088386	-0.045114
C62	C	0.204394	0.161614	0.204886
C63	C	0.454394	0.411614	0.454886
C64	C	0.704394	0.661614	0.704886
C65	C	-0.247272	-0.091351	-0.045127
C66	C	0.002728	0.158649	0.204873
C67	C	0.252728	0.408649	0.454873
C68	C	0.502728	0.658649	0.704873
O69	O	-0.273362	-0.091707	-0.083586
O70	O	-0.023362	0.158293	0.166414
O71	O	0.226638	0.408293	0.416414
O72	O	0.476638	0.658293	0.666414
N73	N	-0.272476	-0.091721	0.000094
N74	N	-0.022476	0.158279	0.250094
N75	N	0.227524	0.408279	0.500094
N76	N	0.477524	0.658279	0.750094
C77	C	-0.247259	-0.091346	0.045320
C78	C	0.002741	0.158654	0.295320
C79	C	0.252741	0.408654	0.545320
C80	C	0.502741	0.658654	0.795320
O81	O	-0.273324	-0.091722	0.083782
O82	O	-0.023324	0.158278	0.333782
O83	O	0.226676	0.408278	0.583782
O84	O	0.476676	0.658278	0.833782
C85	C	-0.045594	-0.088376	0.045332
C86	C	0.204406	0.161624	0.295332
C87	C	0.454406	0.411624	0.545332
C88	C	0.704406	0.661624	0.795332
C89	C	-0.020393	-0.088013	0.000109
C90	C	0.229607	0.161987	0.250109
C91	C	0.479607	0.411987	0.500109
C92	C	0.729607	0.661987	0.750109
C93	C	-0.020405	-0.088022	-0.090333
C94	C	0.229595	0.161978	0.159667
C95	C	0.479595	0.411978	0.409667
C96	C	0.729595	0.661978	0.659667
C97	C	0.030010	-0.087285	-0.090330
C98	C	0.280010	0.162715	0.159670
C99	C	0.530010	0.412715	0.409670
C100	C	0.780010	0.662715	0.659670
C101	C	0.055223	-0.086911	-0.045107
C102	C	0.305223	0.163089	0.204893
C103	C	0.555223	0.413089	0.454893
C104	C	0.805223	0.663089	0.704893
C105	C	0.030021	-0.087275	0.000113
C106	C	0.280021	0.162725	0.250113
C107	C	0.530021	0.412725	0.500113
C108	C	0.780021	0.662725	0.750113
C109	C	-0.020379	-0.087995	0.090558
C110	C	0.229621	0.162005	0.340558
C111	C	0.479621	0.412005	0.590558
C112	C	0.729621	0.662005	0.840558
C113	C	0.030041	-0.087251	0.090557
C114	C	0.280041	0.162749	0.340557
C115	C	0.530041	0.412749	0.590557
C116	C	0.780041	0.662749	0.840557
C117	C	0.055242	-0.086888	0.045334
C118	C	0.305242	0.163112	0.295334
C119	C	0.555242	0.413112	0.545334
C120	C	0.805242	0.663112	0.795334
C121	C	0.105648	-0.086164	0.045339
C122	C	0.355648	0.163836	0.295339
C123	C	0.605648	0.413836	0.545339
C124	C	0.855648	0.663836	0.795339
N125	N	0.130851	-0.085794	0.000119
N126	N	0.380851	0.164206	0.250119
N127	N	0.630851	0.414206	0.500119
N128	N	0.880851	0.664206	0.750119
C129	C	0.105639	-0.086167	-0.045104
C130	C	0.355639	0.163833	0.204896
C131	C	0.605639	0.413833	0.454896
C132	C	0.855639	0.663833	0.704896
C133	C	-0.353136	-0.092906	0.045311
C134	C	-0.103136	0.157094	0.295311
C135	C	0.146864	0.407094	0.545311
C136	C	0.396864	0.657094	0.795311
C137	C	-0.403552	-0.093650	0.045308
C138	C	-0.153552	0.156350	0.295308
C139	C	0.096448	0.406350	0.545308
C140	C	0.346448	0.656350	0.795308
C141	C	-0.403562	-0.093654	-0.045139
C142	C	-0.153562	0.156346	0.204861
C143	C	0.096438	0.406346	0.454861
C144	C	0.346438	0.656346	0.704861
C145	C	-0.353145	-0.092915	-0.045136
C146	C	-0.103145	0.157085	0.204864
C147	C	0.146855	0.407085	0.454864
C148	C	0.396855	0.657085	0.704864
C149	C	-0.327933	-0.092536	0.000090
C150	C	-0.077933	0.157464	0.250090
C151	C	0.172067	0.407464	0.500090
C152	C	0.422067	0.657464	0.750090
C153	C	0.211512	-0.084619	-0.045093
C154	C	0.461512	0.165381	0.204907
C155	C	0.711512	0.415381	0.454907
C156	C	0.961512	0.665381	0.704907
C157	C	0.261931	-0.083885	-0.045085
C158	C	0.511931	0.166115	0.204915
C159	C	0.761931	0.416115	0.454915
C160	C	1.011931	0.666115	0.704915
C161	C	0.261936	-0.083877	0.045361
C162	C	0.511936	0.166123	0.295361
C163	C	0.761936	0.416123	0.545361
C164	C	1.011936	0.666123	0.795361
C165	C	0.211522	-0.084616	0.045354
C166	C	0.461522	0.165384	0.295354
C167	C	0.711522	0.415384	0.545354
C168	C	0.961522	0.665384	0.795354
C169	C	0.186311	-0.084984	0.000123
C170	C	0.436311	0.165016	0.250123
C171	C	0.686311	0.415016	0.500123
C172	C	0.936311	0.665016	0.750123
O173	O	0.131769	-0.085800	0.083779
O174	O	0.381769	0.164200	0.333779
O175	O	0.631769	0.414200	0.583779
O176	O	0.881769	0.664200	0.833779
O177	O	0.131711	-0.085776	-0.083560
O178	O	0.381711	0.164224	0.166440
O179	O	0.631711	0.414224	0.416440
O180	O	0.881711	0.664224	0.666440
C181	C	-0.096020	-0.089123	-0.045118
C182	C	0.153980	0.160877	0.204882
C183	C	0.403980	0.410877	0.454882
C184	C	0.653980	0.660877	0.704882
C185	C	-0.121221	-0.089487	0.000102
C186	C	0.128779	0.160513	0.250102
C187	C	0.378779	0.410513	0.500102
C188	C	0.628779	0.660513	0.750102
C189	C	-0.096008	-0.089114	0.045325
C190	C	0.153992	0.160886	0.295325
C191	C	0.403992	0.410886	0.545325
C192	C	0.653992	0.660886	0.795325
C193	C	-0.171637	-0.090231	0.000099
C194	C	0.078363	0.159769	0.250099
C195	C	0.328363	0.409769	0.500099
C196	C	0.578363	0.659769	0.750099
C197	C	-0.196850	-0.090604	-0.045124
C198	C	0.053150	0.159396	0.204876
C199	C	0.303150	0.409396	0.454876
C200	C	0.553150	0.659396	0.704876
C201	C	-0.171647	-0.090234	-0.090344
C202	C	0.078353	0.159766	0.159656
C203	C	0.328353	0.409766	0.409656
C204	C	0.578353	0.659766	0.659656
C205	C	-0.121233	-0.089497	-0.090341
C206	C	0.128767	0.160503	0.159659
C207	C	0.378767	0.410503	0.409659
C208	C	0.628767	0.660503	0.659659
C209	C	-0.121211	-0.089484	0.090545
C210	C	0.128789	0.160516	0.340545
C211	C	0.378789	0.410516	0.590545
C212	C	0.628789	0.660516	0.840545
C213	C	-0.171625	-0.090223	0.090538
C214	C	0.078375	0.159777	0.340538
C215	C	0.328375	0.409777	0.590538
C216	C	0.578375	0.659777	0.840538
C217	C	-0.196838	-0.090596	0.045315
C218	C	0.053162	0.159404	0.295315
C219	C	0.303162	0.409404	0.545315
C220	C	0.553162	0.659404	0.795315
C221	C	0.340800	-0.082714	0.000134
C222	C	0.590800	0.167286	0.250134
C223	C	0.840800	0.417286	0.500134
C224	C	1.090800	0.667286	0.750134
C225	C	0.287143	-0.083511	0.000138
C226	C	0.537143	0.166489	0.250138
C227	C	0.787143	0.416489	0.500138
C228	C	1.037143	0.666489	0.750138
C229	C	-0.567007	-0.215786	0.000103
C230	C	-0.317007	0.034214	0.250103
C231	C	-0.067007	0.284214	0.500103
C232	C	0.182993	0.534214	0.750103
C233	C	-0.567792	-0.292885	0.000096
C234	C	-0.317792	-0.042885	0.250096
C235	C	-0.067792	0.207115	0.500096
C236	C	0.182208	0.457115	0.750096
C237	C	-0.617514	0.160358	0.000145
C238	C	-0.367514	0.410358	0.250145
C239	C	-0.117514	0.660358	0.500145
C240	C	0.132486	0.910358	0.750145
C241	C	-0.616776	0.232800	0.000137
C242	C	-0.366776	0.482800	0.250137
C243	C	-0.116776	0.732800	0.500137
C244	C	0.133224	0.982800	0.750137
C245	C	-0.572353	0.260257	0.000127
C246	C	-0.322353	0.510257	0.250127
C247	C	-0.072353	0.760257	0.500127
C248	C	0.177647	1.010257	0.750127
C249	C	-0.528665	0.215265	0.000112
C250	C	-0.278665	0.465265	0.250112
C251	C	-0.028665	0.715265	0.500112
C252	C	0.221335	0.965265	0.750112
C253	C	-0.529405	0.142824	0.000115
C254	C	-0.279405	0.392824	0.250115
C255	C	-0.029405	0.642824	0.500115
C256	C	0.220595	0.892824	0.750115
C257	C	-0.537420	0.368316	0.029178
C258	C	-0.287420	0.618316	0.279178
C259	C	-0.037420	0.868316	0.529178
C260	C	0.212580	1.118316	0.779178
C261	C	-0.536682	0.440756	0.029178
C262	C	-0.286682	0.690756	0.279178
C263	C	-0.036682	0.940756	0.529178
C264	C	0.213318	1.190756	0.779178
C265	C	-0.570071	0.483687	0.000115
C266	C	-0.320071	0.733687	0.250115
C267	C	-0.070071	0.983687	0.500115
C268	C	0.179929	1.233687	0.750115
C269	C	-0.604205	0.454172	-0.028941
C270	C	-0.354205	0.704172	0.221059
C271	C	-0.104205	0.954172	0.471059
C272	C	0.145795	1.204172	0.721059
C273	C	-0.604944	0.381731	-0.028938
C274	C	-0.354944	0.631731	0.221062
C275	C	-0.104944	0.881731	0.471062
C276	C	0.145056	1.131731	0.721062
C277	C	-0.571546	0.338805	0.000123
C278	C	-0.321546	0.588805	0.250123
C279	C	-0.071546	0.838805	0.500123
C280	C	0.178454	1.088805	0.750123
C281	C	-0.612956	0.607220	0.000118
C282	C	-0.362956	0.857220	0.250118
C283	C	-0.112956	1.107220	0.500118
C284	C	0.137044	1.357220	0.750118
C285	C	-0.612216	0.679663	0.000107
C286	C	-0.362216	0.929663	0.250107
C287	C	-0.112216	1.179663	0.500107
C288	C	0.137784	1.429663	0.750107
C289	C	-0.524104	0.662127	0.000086
C290	C	-0.274104	0.912127	0.250086
C291	C	-0.024104	1.162127	0.500086
C292	C	0.225896	1.412127	0.750086
C293	C	-0.524845	0.589685	0.000092
C294	C	-0.274845	0.839685	0.250092
C295	C	-0.024845	1.089685	0.500092
C296	C	0.225155	1.339685	0.750092
C297	C	-0.569272	0.562236	0.000111
C298	C	-0.319272	0.812236	0.250111
C299	C	-0.069272	1.062236	0.500111
C300	C	0.180728	1.312236	0.750111
N301	N	-0.570865	-0.088751	-0.129131
N302	N	-0.320865	0.161249	0.120869
N303	N	-0.070865	0.411249	0.370869
N304	N	0.179135	0.661249	0.620869
C305	C	-0.537836	-0.136317	0.526235
C306	C	-0.287836	0.113683	0.776235
C307	C	-0.037836	0.363683	1.026235
C308	C	0.212164	0.613683	1.276235
C309	C	-0.537811	-0.136317	0.317357
C310	C	-0.287811	0.113683	0.567357
C311	C	-0.037811	0.363683	0.817357
C312	C	0.212189	0.613683	1.067357
O313	O	-0.509754	-0.176752	0.290347
O314	O	-0.259754	0.073248	0.540347
O315	O	-0.009754	0.323248	0.790347
O316	O	0.240246	0.573248	1.040347
N317	N	-0.570780	-0.088750	0.291242
N318	N	-0.320780	0.161250	0.541242
N319	N	-0.070780	0.411250	0.791242
N320	N	0.179220	0.661250	1.041242
C321	C	-0.603756	-0.041176	0.317350
C322	C	-0.353756	0.208824	0.567350
C323	C	-0.103756	0.458824	0.817350
C324	C	0.146244	0.708824	1.067350
O325	O	-0.631794	-0.000713	0.290344
O326	O	-0.381794	0.249287	0.540344
O327	O	-0.131794	0.499287	0.790344
O328	O	0.118206	0.749287	1.040344
C329	C	-0.603778	-0.041173	0.526226
C330	C	-0.353778	0.208827	0.776226
C331	C	-0.103778	0.458827	1.026226
C332	C	0.146222	0.708827	1.276226
C333	C	-0.570810	-0.088748	0.552339
C334	C	-0.320810	0.161252	0.802339
C335	C	-0.070810	0.411252	1.052339
C336	C	0.179190	0.661252	1.302339
C337	C	-0.504870	-0.183888	0.552348
C338	C	-0.254870	0.066112	0.802348
C339	C	-0.004870	0.316112	1.052348
C340	C	0.245130	0.566112	1.302348
C341	C	-0.504879	-0.183890	0.604564
C342	C	-0.254879	0.066110	0.854564
C343	C	-0.004879	0.316110	1.104564
C344	C	0.245121	0.566110	1.354564
C345	C	-0.537853	-0.136321	0.630668
C346	C	-0.287853	0.113679	0.880668
C347	C	-0.037853	0.363679	1.130668
C348	C	0.212147	0.613679	1.380668
C349	C	-0.570819	-0.088750	0.604555
C350	C	-0.320819	0.161250	0.854555
C351	C	-0.070819	0.411250	1.104555
C352	C	0.179181	0.661250	1.354555
C353	C	-0.636751	0.006403	0.552333
C354	C	-0.386751	0.256403	0.802333
C355	C	-0.136751	0.506403	1.052333
C356	C	0.113249	0.756403	1.302333
C357	C	-0.636753	0.006401	0.604555
C358	C	-0.386753	0.256401	0.854555
C359	C	-0.136753	0.506401	1.104555
C360	C	0.113247	0.756401	1.354555
C361	C	-0.603785	-0.041174	0.630668
C362	C	-0.353785	0.208826	0.880668
C363	C	-0.103785	0.458826	1.130668
C364	C	0.146215	0.708826	1.380668
C365	C	-0.603801	-0.041184	0.682875
C366	C	-0.353801	0.208816	0.932875
C367	C	-0.103801	0.458816	1.182875
C368	C	0.146199	0.708816	1.432875
N369	N	-0.570832	-0.088751	0.708990
N370	N	-0.320832	0.161249	0.958990
N371	N	-0.070832	0.411249	1.208990
N372	N	0.179168	0.661249	1.458990
C373	C	-0.537858	-0.136320	0.682887
C374	C	-0.287858	0.113680	0.932887
C375	C	-0.037858	0.363680	1.182887
C376	C	0.212142	0.613680	1.432887
C377	C	-0.603742	-0.041182	0.207686
C378	C	-0.353742	0.208818	0.457686
C379	C	-0.103742	0.458818	0.707686
C380	C	0.146258	0.708818	0.957686
C381	C	-0.603737	-0.041184	0.155468
C382	C	-0.353737	0.208816	0.405468
C383	C	-0.103737	0.458816	0.655468
C384	C	0.146263	0.708816	0.905468
C385	C	-0.537792	-0.136324	0.155479
C386	C	-0.287792	0.113676	0.405479
C387	C	-0.037792	0.363676	0.655479
C388	C	0.212208	0.613676	0.905479
C389	C	-0.537799	-0.136325	0.207699
C390	C	-0.287799	0.113675	0.457699
C391	C	-0.037799	0.363675	0.707699
C392	C	0.212201	0.613675	0.957699
C393	C	-0.570773	-0.088750	0.233802
C394	C	-0.320773	0.161250	0.483802
C395	C	-0.070773	0.411250	0.733802
C396	C	0.179227	0.661250	0.983802
C397	C	-0.537878	-0.136321	0.792545
C398	C	-0.287878	0.113679	1.042545
C399	C	-0.037878	0.363679	1.292545
C400	C	0.212122	0.613679	1.542545
C401	C	-0.537891	-0.136320	0.844766
C402	C	-0.287891	0.113680	1.094766
C403	C	-0.037891	0.363680	1.344766
C404	C	0.212109	0.613680	1.594766
C405	C	-0.603835	-0.041178	0.844750
C406	C	-0.353835	0.208822	1.094750
C407	C	-0.103835	0.458822	1.344750
C408	C	0.146165	0.708822	1.594750
C409	C	-0.603824	-0.041180	0.792533
C410	C	-0.353824	0.208820	1.042533
C411	C	-0.103824	0.458820	1.292533
C412	C	0.146176	0.708820	1.542533
C413	C	-0.570842	-0.088754	0.766432
C414	C	-0.320842	0.161246	1.016432
C415	C	-0.070842	0.411246	1.266432
C416	C	0.179158	0.661246	1.516432
O417	O	-0.631840	-0.000765	0.709918
O418	O	-0.381840	0.249235	0.959918
O419	O	-0.131840	0.499235	1.209918
O420	O	0.118160	0.749235	1.459918
O421	O	-0.509816	-0.176767	0.709901
O422	O	-0.259816	0.073233	0.959901
O423	O	-0.009816	0.323233	1.209901
O424	O	0.240184	0.573233	1.459901
C425	C	-0.537828	-0.136315	0.474019
C426	C	-0.287828	0.113685	0.724019
C427	C	-0.037828	0.363685	0.974019
C428	C	0.212172	0.613685	1.224019
C429	C	-0.570793	-0.088744	0.447906
C430	C	-0.320793	0.161256	0.697906
C431	C	-0.070793	0.411256	0.947906
C432	C	0.179207	0.661256	1.197906
C433	C	-0.603768	-0.041176	0.474010
C434	C	-0.353768	0.208824	0.724010
C435	C	-0.103768	0.458824	0.974010
C436	C	0.146232	0.708824	1.224010
C437	C	-0.570788	-0.088746	0.395687
C438	C	-0.320788	0.161254	0.645687
C439	C	-0.070788	0.411254	0.895687
C440	C	0.179212	0.661254	1.145687
C441	C	-0.537814	-0.136315	0.369584
C442	C	-0.287814	0.113685	0.619584
C443	C	-0.037814	0.363685	0.869584
C444	C	0.212186	0.613685	1.119584
C445	C	-0.504845	-0.183882	0.395699
C446	C	-0.254845	0.066118	0.645699
C447	C	-0.004845	0.316118	0.895699
C448	C	0.245155	0.566118	1.145699
C449	C	-0.504853	-0.183884	0.447915
C450	C	-0.254853	0.066116	0.697915
C451	C	-0.004853	0.316116	0.947915
C452	C	0.245147	0.566116	1.197915
C453	C	-0.636737	0.006392	0.447895
C454	C	-0.386737	0.256392	0.697895
C455	C	-0.136737	0.506392	0.947895
C456	C	0.113263	0.756392	1.197895
C457	C	-0.636726	0.006389	0.395679
C458	C	-0.386726	0.256389	0.645679
C459	C	-0.136726	0.506389	0.895679
C460	C	0.113274	0.756389	1.145679
C461	C	-0.603752	-0.041180	0.369575
C462	C	-0.353752	0.208820	0.619575
C463	C	-0.103752	0.458820	0.869575
C464	C	0.146248	0.708820	1.119575
H465	H	0.282447	-0.083591	-0.081913
H466	H	0.532447	0.166409	0.168087
H467	H	0.782447	0.416409	0.418087
H468	H	1.032447	0.666409	0.668087
H469	H	-0.647788	0.716288	0.000114
H470	H	-0.397788	0.966288	0.250114
H471	H	-0.147788	1.216288	0.500114
H472	H	0.102212	1.466288	0.750114
H473	H	0.191003	-0.084925	0.082178
H474	H	0.441003	0.165075	0.332178
H475	H	0.691003	0.415075	0.582178
H476	H	0.941003	0.665075	0.832178
F477	F	-0.502801	-0.186959	0.872554
F478	F	-0.252801	0.063041	1.122554
F479	F	-0.002801	0.313041	1.372554
F480	F	0.247199	0.563041	1.622554
H481	H	-0.631393	0.489126	-0.052607
H482	H	-0.381393	0.739126	0.197393
H483	H	-0.131393	0.989126	0.447393
H484	H	0.118607	1.239126	0.697393
F485	F	-0.641269	0.350321	-0.059863
F486	F	-0.391269	0.600321	0.190137
F487	F	-0.141269	0.850321	0.440137
F488	F	0.108731	1.100321	0.690137
H489	H	0.190991	-0.084921	-0.081924
H490	H	0.440991	0.165079	0.168076
H491	H	0.690991	0.415079	0.418076
H492	H	0.940991	0.665079	0.668076
F493	F	-0.198440	-0.090615	0.138674
F494	F	0.051560	0.159385	0.388674
F495	F	0.301560	0.409385	0.638674
F496	F	0.551560	0.659385	0.888674
H497	H	-0.478008	-0.222624	0.469172
H498	H	-0.228008	0.027376	0.719172
H499	H	0.021992	0.277376	0.969172
H500	H	0.271992	0.527376	1.219172
H501	H	-0.511020	-0.175059	0.771299
H502	H	-0.261020	0.074941	1.021299
H503	H	-0.011020	0.324941	1.271299
H504	H	0.238980	0.574941	1.521299
F505	F	-0.469787	-0.234522	0.632350
F506	F	-0.219787	0.015478	0.882350
F507	F	0.030213	0.265478	1.132350
F508	F	0.280213	0.515478	1.382350
H509	H	0.050524	-0.086986	-0.127155
H510	H	0.300524	0.163014	0.122845
H511	H	0.550524	0.413014	0.372845
H512	H	0.800524	0.663014	0.622845
F513	F	-0.660238	0.578005	0.000140
F514	F	-0.410238	0.828005	0.250140
F515	F	-0.160238	1.078005	0.500140
F516	F	0.089762	1.328005	0.750140
F517	F	-0.476825	0.691343	0.000073
F518	F	-0.226825	0.941343	0.250073
F519	F	0.023175	1.191343	0.500073
F520	F	0.273175	1.441343	0.750073
F521	F	-0.638918	0.009448	0.764743
F522	F	-0.388918	0.259448	1.014743
F523	F	-0.138918	0.509448	1.264743
F524	F	0.111082	0.759448	1.514743
H525	H	-0.652348	0.269431	0.000145
H526	H	-0.402348	0.519431	0.250145
H527	H	-0.152348	0.769431	0.500145
H528	H	0.097652	1.019431	0.750145
F529	F	-0.664798	0.131149	0.000154
F530	F	-0.414798	0.381149	0.250154
F531	F	-0.164798	0.631149	0.500154
F532	F	0.085202	0.881149	0.750154
H533	H	-0.663577	0.045129	0.374421
H534	H	-0.413577	0.295129	0.624421
H535	H	-0.163577	0.545129	0.874421
H536	H	0.086423	0.795129	1.124421
H537	H	-0.100718	-0.089201	-0.127166
H538	H	0.149282	0.160799	0.122834
H539	H	0.399282	0.410799	0.372834
H540	H	0.649282	0.660799	0.622834
F541	F	-0.500356	0.472161	0.060103
F542	F	-0.250356	0.722161	0.310103
F543	F	-0.000356	0.972161	0.560103
F544	F	0.249644	1.222161	0.810103
H545	H	-0.489274	0.553059	0.000085
H546	H	-0.239274	0.803059	0.250085
H547	H	0.010726	1.053059	0.500085
H548	H	0.260726	1.303059	0.750085
H549	H	-0.332629	-0.092619	-0.081960
H550	H	-0.082629	0.157381	0.168040
H551	H	0.167371	0.407381	0.418040
H552	H	0.417371	0.657381	0.668040
H553	H	-0.510230	0.333366	0.052847
H554	H	-0.260230	0.583366	0.302847
H555	H	-0.010230	0.833366	0.552847
H556	H	0.239770	1.083366	0.802847
H557	H	-0.478016	-0.222624	0.531099
H558	H	-0.228016	0.027376	0.781099
H559	H	0.021984	0.277376	1.031099
H560	H	0.271984	0.527376	1.281099
F561	F	-0.481387	0.244487	0.000097
F562	F	-0.231387	0.494487	0.250097
F563	F	0.018613	0.744487	0.500097
F564	F	0.268613	0.994487	0.750097
F565	F	-0.482910	0.094949	0.000101
F566	F	-0.232910	0.344949	0.250101
F567	F	0.017090	0.594949	0.500101
F568	F	0.267090	0.844949	0.750101
H569	H	-0.040928	-0.088324	-0.127161
H570	H	0.209072	0.161676	0.122839
H571	H	0.459072	0.411676	0.372839
H572	H	0.709072	0.661676	0.622839
H573	H	-0.510954	-0.175065	0.228956
H574	H	-0.260954	0.074935	0.478956
H575	H	-0.010954	0.324935	0.728956
H576	H	0.239046	0.574935	0.978956
F577	F	-0.638928	0.009445	0.872539
F578	F	-0.388928	0.259445	1.122539
F579	F	-0.138928	0.509445	1.372539
F580	F	0.111072	0.759445	1.622539
F581	F	-0.430404	-0.094054	-0.093269
F582	F	-0.180404	0.155946	0.156731
F583	F	0.069596	0.405946	0.406731
F584	F	0.319596	0.655946	0.656731
H585	H	-0.100688	-0.089177	0.127372
H586	H	0.149312	0.160823	0.377372
H587	H	0.399312	0.410823	0.627372
H588	H	0.649312	0.660823	0.877372
H589	H	-0.510943	-0.175058	0.134216
H590	H	-0.260943	0.074942	0.384216
H591	H	-0.010943	0.324942	0.634216
H592	H	0.239057	0.574942	0.884216
F593	F	-0.671849	0.057041	0.632333
F594	F	-0.421849	0.307041	0.882333
F595	F	-0.171849	0.557041	1.132333
F596	F	0.078151	0.807041	1.382333
F597	F	-0.198489	-0.090634	-0.138474
F598	F	0.051511	0.159366	0.111526
F599	F	0.301511	0.409366	0.361526
F600	F	0.551511	0.659366	0.611526
H601	H	-0.477998	-0.222617	0.374437
H602	H	-0.227998	0.027383	0.624437
H603	H	0.022002	0.277383	0.874437
H604	H	0.272002	0.527383	1.124437
H605	H	-0.040889	-0.088289	0.127384
H606	H	0.209111	0.161711	0.377384
H607	H	0.459111	0.411711	0.627384
H608	H	0.709111	0.661711	0.877384
F609	F	-0.638832	0.009443	0.127682
F610	F	-0.388832	0.259443	0.377682
F611	F	-0.138832	0.509443	0.627682
F612	F	0.111168	0.759443	0.877682
H613	H	-0.332614	-0.092595	0.082141
H614	H	-0.082614	0.157405	0.332141
H615	H	0.167386	0.407405	0.582141
H616	H	0.417386	0.657405	0.832141
H617	H	-0.630595	-0.002439	0.228936
H618	H	-0.380595	0.247561	0.478936
H619	H	-0.130595	0.497561	0.728936
H620	H	0.119405	0.747561	0.978936
F621	F	-0.671834	0.057023	0.475671
F622	F	-0.421834	0.307023	0.725671
F623	F	-0.171834	0.557023	0.975671
F624	F	0.078166	0.807023	1.225671
F625	F	-0.430367	-0.094050	0.093440
F626	F	-0.180367	0.155950	0.343440
F627	F	0.069633	0.405950	0.593440
F628	F	0.319633	0.655950	0.843440
F629	F	0.056869	-0.086843	0.138695
F630	F	0.306869	0.163157	0.388695
F631	F	0.556869	0.413157	0.638695
F632	F	0.806869	0.663157	0.888695
H633	H	0.282473	-0.083576	0.082181
H634	H	0.532473	0.166424	0.332181
H635	H	0.782473	0.416424	0.582181
H636	H	1.032473	0.666424	0.832181
F637	F	-0.671840	0.057040	0.524552
F638	F	-0.421840	0.307040	0.774552
F639	F	-0.171840	0.557040	1.024552
F640	F	0.078160	0.807040	1.274552
