data_functionalizedCrystal
_audit_creation_method	'MofGen! by Chris Wilmer'
_symmetry_space_group_name_H-M	'P1'
_symmetry_Int_Tables_number	1
_symmetry_cell_setting	triclinic
loop_
_symmetry_equiv_pos_as_xyz
  x,y,z
_cell_length_a	13.032831
_cell_length_b	13.897448
_cell_length_c	13.897441
_cell_angle_alpha	89.970373
_cell_angle_beta	82.808717
_cell_angle_gamma	82.822399
loop_
_atom_site_label
_atom_site_type_symbol
_atom_site_fract_x
_atom_site_fract_y
_atom_site_fract_z
Zn1	Zn	1.597690	-0.571557	-0.732365
Zn2	Zn	1.931023	-0.238223	-0.399032
Zn3	Zn	2.264356	0.095110	-0.065698
Zn4	Zn	1.597581	-0.732863	-0.571054
Zn5	Zn	1.930915	-0.399529	-0.237720
Zn6	Zn	2.264248	-0.066196	0.095613
Zn7	Zn	1.422930	-0.551080	-0.550631
Zn8	Zn	1.756263	-0.217747	-0.217297
Zn9	Zn	2.089597	0.115587	0.116036
Zn10	Zn	1.422904	-0.712292	-0.711863
Zn11	Zn	1.756237	-0.378959	-0.378530
Zn12	Zn	2.089570	-0.045625	-0.045197
O13	O	1.510276	-0.641948	-0.641478
O14	O	1.843609	-0.308615	-0.308145
O15	O	2.176943	0.024719	0.025188
O16	O	1.743916	-0.610133	-0.728094
O17	O	2.077249	-0.276799	-0.394761
O18	O	2.410583	0.056534	-0.061427
O19	O	1.574379	-0.708788	-0.433359
O20	O	1.907712	-0.375455	-0.100026
O21	O	2.241046	-0.042122	0.233308
O22	O	1.446169	-0.418821	-0.574771
O23	O	1.779502	-0.085488	-0.241438
O24	O	2.112835	0.247845	0.091896
O25	O	1.743837	-0.728644	-0.609579
O26	O	2.077170	-0.395310	-0.276246
O27	O	2.410503	-0.061977	0.057087
O28	O	1.574564	-0.433865	-0.708291
O29	O	1.907897	-0.100532	-0.374957
O30	O	2.241230	0.232801	-0.041624
O31	O	1.446064	-0.575233	-0.418354
O32	O	1.779397	-0.241900	-0.085021
O33	O	2.112730	0.091433	0.248313
O34	O	1.276686	-0.555287	-0.554891
O35	O	1.610019	-0.221953	-0.221558
O36	O	1.943352	0.111380	0.111775
O37	O	1.446124	-0.693584	-0.849569
O38	O	1.779457	-0.360250	-0.516235
O39	O	2.112790	-0.026917	-0.182902
O40	O	1.276666	-0.673728	-0.673348
O41	O	1.610000	-0.340395	-0.340015
O42	O	1.943333	-0.007062	-0.006681
O43	O	1.574538	-0.590186	-0.864631
O44	O	1.907872	-0.256853	-0.531298
O45	O	2.241205	0.076481	-0.197965
O46	O	1.574354	-0.865109	-0.589700
O47	O	1.907687	-0.531776	-0.256366
O48	O	2.241020	-0.198442	0.076967
O49	O	1.446019	-0.849996	-0.693152
O50	O	1.779352	-0.516662	-0.359818
O51	O	2.112685	-0.183329	-0.026485
C52	C	1.238757	-0.610054	-0.609679
C53	C	1.572091	-0.276721	-0.276346
C54	C	1.905424	0.056613	0.056987
C55	C	1.122600	-0.596433	-0.596098
C56	C	1.455934	-0.263100	-0.262765
C57	C	1.789267	0.070234	0.070568
C58	C	1.510200	-0.892553	-0.641441
C59	C	1.843533	-0.559220	-0.308108
C60	C	2.176867	-0.225887	0.025225
C61	C	1.510263	-0.999775	-0.641469
C62	C	1.843596	-0.666441	-0.308136
C63	C	2.176930	-0.333108	0.025198
C64	C	1.070832	-0.649057	-0.648566
C65	C	1.404165	-0.315724	-0.315233
C66	C	1.737499	0.017610	0.018101
C67	C	0.950778	-0.634980	-0.634531
C68	C	1.284111	-0.301647	-0.301198
C69	C	1.617444	0.031686	0.032136
C70	C	1.510373	-1.196082	-0.641542
C71	C	1.843706	-0.862749	-0.308209
C72	C	2.177039	-0.529416	0.025124
C73	C	1.510309	-1.086843	-0.641504
C74	C	1.843642	-0.753509	-0.308171
C75	C	2.176975	-0.420176	0.025162
C76	C	1.782855	-0.673967	-0.673402
C77	C	2.116188	-0.340634	-0.340069
C78	C	2.449522	-0.007300	-0.006735
C79	C	1.899012	-0.687612	-0.687006
C80	C	2.232345	-0.354278	-0.353672
C81	C	2.565679	-0.020945	-0.020339
C82	C	1.510340	-0.641874	-0.893079
C83	C	1.843673	-0.308541	-0.559745
C84	C	2.177007	0.024792	-0.226412
C85	C	1.510367	-0.641843	-1.000296
C86	C	1.843701	-0.308510	-0.666963
C87	C	2.177034	0.024824	-0.333629
C88	C	1.510381	-0.390367	-0.641540
C89	C	1.843715	-0.057034	-0.308206
C90	C	2.177048	0.276299	0.025127
C91	C	1.510426	-0.283159	-0.641566
C92	C	1.843759	0.050175	-0.308232
C93	C	2.177093	0.383508	0.025101
C94	C	1.510389	-0.641818	-1.087368
C95	C	1.843722	-0.308485	-0.754035
C96	C	2.177055	0.024848	-0.420702
C97	C	1.510419	-0.641778	-1.196604
C98	C	1.843752	-0.308445	-0.863271
C99	C	2.177085	0.024888	-0.529938
C100	C	1.510273	-0.641959	-0.390863
C101	C	1.843606	-0.308625	-0.057530
C102	C	2.176939	0.024708	0.275803
C103	C	1.510448	-0.641742	-0.283671
C104	C	1.843781	-0.308409	0.049663
C105	C	2.177114	0.024925	0.382996
H106	H	1.115391	-0.704528	-0.703879
H107	H	1.448724	-0.371195	-0.370546
H108	H	1.782058	-0.037862	-0.037213
H109	H	0.906223	-0.579498	-0.579221
H110	H	1.239556	-0.246164	-0.245888
H111	H	1.572890	0.087169	0.087446
H112	H	0.943566	-0.743085	-0.742326
H113	H	1.276899	-0.409752	-0.408992
H114	H	1.610232	-0.076418	-0.075659
H115	H	1.078042	-0.540954	-0.540792
H116	H	1.411375	-0.207621	-0.207459
H117	H	1.744708	0.125712	0.125874
