data_functionalizedCrystal
_audit_creation_method	'MofGen! by Chris Wilmer'
_symmetry_space_group_name_H-M	'P1'
_symmetry_Int_Tables_number	1
_symmetry_cell_setting	triclinic
loop_
_symmetry_equiv_pos_as_xyz
  x,y,z
_cell_length_a	12.759394
_cell_length_b	21.395355
_cell_length_c	21.395362
_cell_angle_alpha	89.956060
_cell_angle_beta	90.030716
_cell_angle_gamma	89.985423
loop_
_atom_site_label
_atom_site_type_symbol
_atom_site_fract_x
_atom_site_fract_y
_atom_site_fract_z
Zn1	Zn	-0.417943	-0.354603	0.957929
Zn2	Zn	0.082057	0.145397	1.457929
Zn3	Zn	-0.593608	-0.249833	0.957860
Zn4	Zn	-0.093608	0.250167	1.457860
Zn5	Zn	-0.417992	-0.249804	0.853143
Zn6	Zn	0.082008	0.250196	1.353143
Zn7	Zn	-0.593629	-0.354537	0.853142
Zn8	Zn	-0.093629	0.145463	1.353142
O9	O	-0.505793	-0.302194	0.905518
O10	O	-0.005793	0.197806	1.405518
O11	O	-0.441216	-0.340744	1.045597
O12	O	0.058784	0.159256	1.545597
O13	O	-0.570323	-0.162151	0.943941
O14	O	-0.070323	0.337849	1.443941
O15	O	-0.270964	-0.263721	0.867073
O16	O	0.229036	0.236279	1.367073
O17	O	-0.570276	-0.263770	1.045547
O18	O	-0.070276	0.236230	1.545547
O19	O	-0.270928	-0.340717	0.944058
O20	O	0.229072	0.159283	1.444058
O21	O	-0.441299	-0.162130	0.867006
O22	O	0.058701	0.337870	1.367006
O23	O	-0.441320	-0.263658	0.765465
O24	O	0.058680	0.236342	1.265465
O25	O	-0.570313	-0.442224	0.867070
O26	O	-0.070313	0.057776	1.367070
O27	O	-0.570360	-0.340605	0.765464
O28	O	-0.070360	0.159395	1.265464
O29	O	-0.441237	-0.442272	0.944056
O30	O	0.058763	0.057728	1.444056
O31	O	-0.740632	-0.263706	0.943940
O32	O	-0.240632	0.236294	1.443940
O33	O	-0.740647	-0.340632	0.867003
O34	O	-0.240647	0.159368	1.367003
C35	C	-0.778760	-0.302179	0.905481
C36	C	-0.278760	0.197821	1.405481
C37	C	-0.895537	-0.302193	0.905522
C38	C	-0.395537	0.197807	1.405522
C39	C	-0.505848	-0.302121	0.742731
C40	C	-0.005848	0.197879	1.242731
C41	C	-0.505897	-0.302105	0.673089
C42	C	-0.005897	0.197895	1.173089
C43	C	-0.505772	-0.465618	0.905570
C44	C	-0.005772	0.034382	1.405570
C45	C	-0.505762	-0.535259	0.905593
C46	C	-0.005762	-0.035259	1.405593
C47	C	-0.895467	-0.222150	0.985696
C48	C	-0.395467	0.277850	1.485696
C49	C	-0.950293	-0.182136	1.025799
C50	C	-0.450293	0.317864	1.525799
C51	C	-1.060015	-0.182153	1.025836
C52	C	-0.560015	0.317847	1.525836
C53	C	-1.114913	-0.222190	0.985766
C54	C	-0.614913	0.277810	1.485766
C55	C	-1.060087	-0.262204	0.945663
C56	C	-0.560087	0.237796	1.445663
C57	C	-0.950363	-0.262182	0.945629
C58	C	-0.450363	0.237818	1.445629
C59	C	-1.060157	-0.342250	0.865493
C60	C	-0.560157	0.157750	1.365493
C61	C	-0.950435	-0.342230	0.865453
C62	C	-0.450435	0.157770	1.365453
C63	C	-1.115055	-0.382286	0.825424
C64	C	-0.615055	0.117714	1.325424
C65	C	-1.060229	-0.422298	0.785317
C66	C	-0.560229	0.077702	1.285317
C67	C	-0.950501	-0.422279	0.785281
C68	C	-0.450501	0.077721	1.285281
C69	C	-0.895609	-0.382244	0.825349
C70	C	-0.395609	0.117756	1.325349
C71	C	-0.231759	-0.302223	0.905573
C72	C	0.268241	0.197777	1.405573
C73	C	-0.114983	-0.302235	0.905597
C74	C	0.385017	0.197765	1.405597
C75	C	-0.438550	-0.567998	0.945678
C76	C	0.061450	-0.067998	1.445678
C77	C	-0.438505	-0.633433	0.945677
C78	C	0.061495	-0.133433	1.445677
C79	C	-0.505691	-0.666127	0.905597
C80	C	-0.005691	-0.166127	1.405597
C81	C	-0.572908	-0.633380	0.865505
C82	C	-0.072908	-0.133380	1.365505
C83	C	-0.572944	-0.567946	0.865502
C84	C	-0.072944	-0.067946	1.365502
C85	C	-0.600292	-0.769795	0.900637
C86	C	-0.100292	-0.269795	1.400637
C87	C	-0.600258	-0.835228	0.900644
C88	C	-0.100258	-0.335228	1.400644
C89	C	-0.505580	-0.867948	0.905601
C90	C	-0.005580	-0.367948	1.405601
C91	C	-0.410933	-0.835227	0.910565
C92	C	0.089067	-0.335227	1.410565
C93	C	-0.410968	-0.769793	0.910563
C94	C	0.089032	-0.269793	1.410563
C95	C	-0.505659	-0.737080	0.905595
C96	C	-0.005659	-0.237080	1.405595
C97	C	-0.438313	-0.971640	0.945688
C98	C	0.061687	-0.471640	1.445688
C99	C	-0.438266	-1.037076	0.945682
C100	C	0.061734	-0.537076	1.445682
C101	C	-0.572679	-1.037022	0.865513
C102	C	-0.072679	-0.537022	1.365513
C103	C	-0.572716	-0.971586	0.865515
C104	C	-0.072716	-0.471586	1.365515
C105	C	-0.505535	-0.938899	0.905606
C106	C	-0.005535	-0.438899	1.405606
C107	C	-0.505738	-0.139407	0.905503
C108	C	-0.005738	0.360593	1.405503
C109	C	-0.505451	-0.069766	0.905602
C110	C	-0.005451	0.430234	1.405602
C111	C	-0.573178	-0.342112	0.640392
C112	C	-0.073178	0.157888	1.140392
C113	C	-0.573152	-0.342139	0.574957
C114	C	-0.073152	0.157861	1.074957
C115	C	-0.505857	-0.302150	0.542221
C116	C	-0.005857	0.197850	1.042221
C117	C	-0.438564	-0.262141	0.574927
C118	C	0.061436	0.237859	1.074927
C119	C	-0.438584	-0.262118	0.640361
C120	C	0.061416	0.237882	1.140361
C121	C	-0.497393	-0.245744	0.438495
C122	C	0.002607	0.254256	0.938495
C123	C	-0.497380	-0.245766	0.373062
C124	C	0.002620	0.254234	0.873062
C125	C	-0.505788	-0.302219	0.340401
C126	C	-0.005788	0.197781	0.840401
C127	C	-0.514231	-0.358653	0.373180
C128	C	-0.014231	0.141347	0.873180
C129	C	-0.514252	-0.358631	0.438614
C130	C	-0.014252	0.141369	0.938614
C131	C	-0.505827	-0.302170	0.471269
C132	C	-0.005827	0.197830	0.971269
C133	C	-0.573044	-0.342259	0.236751
C134	C	-0.073044	0.157741	0.736751
C135	C	-0.573011	-0.342288	0.171314
C136	C	-0.073011	0.157712	0.671314
C137	C	-0.438429	-0.262284	0.171285
C138	C	0.061571	0.237716	0.671285
C139	C	-0.438456	-0.262260	0.236720
C140	C	0.061544	0.237740	0.736720
C141	C	-0.505770	-0.302247	0.269449
C142	C	-0.005770	0.197753	0.769449
C143	C	-0.505738	-0.302267	1.068942
C144	C	-0.005738	0.197733	1.568942
C145	C	-0.505714	-0.302299	1.138583
C146	C	-0.005714	0.197701	1.638583
H147	H	-0.806126	-0.222124	0.985662
H148	H	-0.306126	0.277876	1.485662
H149	H	-0.627608	-0.660004	0.832870
H150	H	-0.127608	-0.160004	1.332870
H151	H	-0.383631	-0.229726	0.144633
H152	H	0.116369	0.270274	0.644633
Cl153	Cl	-1.252990	-0.382043	0.825205
Cl154	Cl	-0.752990	0.117957	1.325205
Cl155	Cl	-1.252848	-0.221945	0.985549
Cl156	Cl	-0.752848	0.278055	1.485549
Cl157	Cl	-0.524858	-0.429573	0.479820
Cl158	Cl	-0.024858	0.070427	0.979820
Cl159	Cl	-0.291900	-0.876353	0.916800
Cl160	Cl	0.208100	-0.376353	1.416800
Cl161	Cl	-0.881274	-0.131810	1.076172
Cl162	Cl	-0.381274	0.368190	1.576172
Cl163	Cl	-0.524796	-0.429629	0.332127
Cl164	Cl	-0.024796	0.070371	0.832127
Cl165	Cl	-0.291989	-0.728660	0.916798
Cl166	Cl	0.208011	-0.228660	1.416798
H167	H	-0.677326	-0.861864	0.896606
H168	H	-0.177326	-0.361864	1.396606
H169	H	-0.383603	-0.945025	0.978328
H170	H	0.116397	-0.445025	1.478328
Cl171	Cl	-1.129248	-0.472629	0.734954
Cl172	Cl	-0.629248	0.027371	1.234954
H173	H	-0.490542	-0.199770	0.465083
H174	H	0.009458	0.300230	0.965083
H175	H	-0.627939	-0.374720	0.548329
H176	H	-0.127939	0.125280	1.048329
Cl177	Cl	-0.657448	-0.526786	0.815106
Cl178	Cl	-0.157448	-0.026786	1.315106
H179	H	-0.627850	-0.374822	0.263400
H180	H	-0.127850	0.125178	0.763400
Cl181	Cl	-0.881586	-0.472589	0.734866
Cl182	Cl	-0.381586	0.027411	1.234866
H183	H	-1.104654	-0.149573	1.058494
H184	H	-0.604654	0.350427	1.558494
H185	H	-0.677371	-0.743160	0.896433
H186	H	-0.177371	-0.243160	1.396433
H187	H	-0.806268	-0.382221	0.825320
H188	H	-0.306268	0.117779	1.325320
Cl189	Cl	-0.353778	-1.078235	0.996090
Cl190	Cl	0.146222	-0.578235	1.496090
H191	H	-0.627797	-0.374870	0.144693
H192	H	-0.127797	0.125130	0.644693
Cl193	Cl	-0.353873	-0.211962	0.277828
Cl194	Cl	0.146127	0.288038	0.777828
Cl195	Cl	-0.657795	-0.392383	0.681534
Cl196	Cl	-0.157795	0.107617	1.181534
H197	H	-0.383844	-0.541388	0.978322
H198	H	0.116156	-0.041388	1.478322
Cl199	Cl	-0.657133	-1.078116	0.815121
Cl200	Cl	-0.157133	-0.578116	1.315121
Cl201	Cl	-0.486765	-0.174821	0.331861
Cl202	Cl	0.013235	0.325179	0.831861
Cl203	Cl	-0.353981	-0.674600	0.996061
Cl204	Cl	0.146019	-0.174600	1.496061
Cl205	Cl	-0.657222	-0.930426	0.815122
Cl206	Cl	-0.157222	-0.430426	1.315122
Cl207	Cl	-0.353959	-0.211871	0.533774
Cl208	Cl	0.146041	0.288129	1.033774
H209	H	-0.383793	-0.229540	0.666983
H210	H	0.116207	0.270460	1.166983
