data_functionalizedCrystal
_audit_creation_method	'MofGen! by Chris Wilmer'
_symmetry_space_group_name_H-M	'P1'
_symmetry_Int_Tables_number	1
_symmetry_cell_setting	triclinic
loop_
_symmetry_equiv_pos_as_xyz
  x,y,z
_cell_length_a	14.044220
_cell_length_b	13.101039
_cell_length_c	14.044220
_cell_angle_alpha	93.667477
_cell_angle_beta	86.811122
_cell_angle_gamma	93.659868
loop_
_atom_site_label
_atom_site_type_symbol
_atom_site_fract_x
_atom_site_fract_y
_atom_site_fract_z
O1	O	-1.281968	-0.085109	0.225348
O2	O	-0.781968	0.414891	0.725348
O3	O	-1.005298	-0.085135	0.217041
O4	O	-0.505298	0.414865	0.717041
O5	O	-1.139480	-0.085112	0.082860
O6	O	-0.639480	0.414888	0.582860
O7	O	-1.147787	-0.085132	0.359530
O8	O	-0.647787	0.414868	0.859530
O9	O	-1.129854	0.085316	0.092504
O10	O	-0.629854	0.585316	0.592504
O11	O	-0.995673	0.085293	0.226686
O12	O	-0.495673	0.585293	0.726686
O13	O	-1.272343	0.085319	0.234993
O14	O	-0.772343	0.585319	0.734993
Zn15	Zn	-1.132479	0.112365	0.232371
Zn16	Zn	-0.632479	0.612365	0.732371
Zn17	Zn	-1.145162	-0.112181	0.219663
Zn18	Zn	-0.645162	0.387819	0.719663
O19	O	-1.138161	0.085296	0.369175
O20	O	-0.638161	0.585296	0.869175
C21	C	-0.964864	0.000076	0.218228
C22	C	-0.464864	0.500076	0.718228
C23	C	-0.858722	0.000066	0.207383
C24	C	-0.358722	0.500066	0.707383
N25	N	-1.123831	0.265612	0.241043
N26	N	-0.623831	0.765612	0.741043
N27	N	-1.153817	-0.265428	0.210984
N28	N	-0.653817	0.234572	0.710984
C29	C	-1.312777	0.000106	0.233806
C30	C	-0.812777	0.500106	0.733806
C31	C	-1.418920	0.000109	0.244651
C32	C	-0.918920	0.500109	0.744651
C33	C	-0.664383	0.000088	0.187558
C34	C	-0.164383	0.500088	0.687558
C35	C	-0.613253	0.000087	0.264472
C36	C	-0.113253	0.500087	0.764472
C37	C	-0.505116	0.000099	0.253441
C38	C	-0.005116	0.500099	0.753441
C39	C	-0.772529	0.000076	0.198587
C40	C	-0.272529	0.500076	0.698587
C41	C	-1.131031	0.000102	0.052060
C42	C	-0.631031	0.500102	0.552060
C43	C	-1.120187	0.000102	-0.054083
C44	C	-0.620187	0.500102	0.445917
C45	C	-1.112065	0.474653	0.252851
C46	C	-0.612065	0.974653	0.752851
C47	C	-1.165580	0.525538	0.199179
C48	C	-0.665580	1.025538	0.699179
C49	C	-1.159034	0.641855	0.205749
C50	C	-0.659034	1.141855	0.705749
C51	C	-1.118610	0.358325	0.246282
C52	C	-0.618610	0.858325	0.746282
C53	C	-1.100362	0.000086	-0.248421
C54	C	-0.600362	0.500086	0.251579
C55	C	-1.177276	0.000090	-0.299551
C56	C	-0.677276	0.500090	0.200449
C57	C	-1.166245	0.000080	-0.407688
C58	C	-0.666245	0.500080	0.092312
C59	C	-1.111391	0.000095	-0.140275
C60	C	-0.611391	0.500095	0.359725
C61	C	-1.146610	0.000080	0.399974
C62	C	-0.646610	0.500080	0.899974
C63	C	-1.157455	0.000073	0.506116
C64	C	-0.657455	0.500073	1.006116
H65	H	-0.650693	0.000077	0.338605
H66	H	-0.150693	0.500077	0.838605
H67	H	-0.626945	0.000099	0.113431
H68	H	-0.126945	0.500099	0.613431
H69	H	-1.251413	0.000028	-0.262115
H70	H	-0.751413	0.500028	0.237885
H71	H	-1.216314	0.481744	0.148295
H72	H	-0.716314	0.981744	0.648295
N73	N	-1.048427	0.529598	0.316676
N74	N	-0.548427	1.029598	0.816676
N75	N	-1.043136	0.625379	0.321988
N76	N	-0.543136	1.125379	0.821988
H77	H	-0.998194	0.664196	0.367065
H78	H	-0.498194	1.164196	0.867065
H79	H	-1.026235	0.000076	-0.285859
H80	H	-0.526235	0.500076	0.214141
