data_functionalizedCrystal
_audit_creation_method	'MofGen! by Chris Wilmer'
_symmetry_space_group_name_H-M	'P1'
_symmetry_Int_Tables_number	1
_symmetry_cell_setting	triclinic
loop_
_symmetry_equiv_pos_as_xyz
  x,y,z
_cell_length_a	12.759401
_cell_length_b	29.839131
_cell_length_c	12.759393
_cell_angle_alpha	90.036816
_cell_angle_beta	90.020938
_cell_angle_gamma	90.042945
loop_
_atom_site_label
_atom_site_type_symbol
_atom_site_fract_x
_atom_site_fract_y
_atom_site_fract_z
Zn1	Zn	1.606071	-0.178813	0.593974
Zn2	Zn	2.106071	0.321187	1.093974
Zn3	Zn	1.605880	-0.253950	0.418275
Zn4	Zn	2.105880	0.246050	0.918275
Zn5	Zn	1.430370	-0.178837	0.418309
Zn6	Zn	1.930370	0.321163	0.918309
Zn7	Zn	1.430280	-0.253919	0.593912
Zn8	Zn	1.930280	0.246081	1.093912
O9	O	1.518150	-0.216380	0.506117
O10	O	2.018150	0.283620	1.006117
O11	O	1.753067	-0.188784	0.570679
O12	O	2.253067	0.311216	1.070679
O13	O	1.582556	-0.244010	0.271258
O14	O	2.082556	0.255990	0.771258
O15	O	1.453795	-0.115967	0.441652
O16	O	1.953795	0.384033	0.941652
O17	O	1.752927	-0.243986	0.441593
O18	O	2.252927	0.256014	0.941593
O19	O	1.582882	-0.115949	0.570712
O20	O	2.082882	0.384051	1.070712
O21	O	1.453610	-0.188824	0.271283
O22	O	1.953610	0.311176	0.771283
O23	O	1.283337	-0.188794	0.441592
O24	O	1.783337	0.311206	0.941592
O25	O	1.453641	-0.243933	0.740941
O26	O	1.953641	0.256067	1.240941
O27	O	1.283271	-0.243956	0.570606
O28	O	1.783271	0.256044	1.070606
O29	O	1.582794	-0.188753	0.740987
O30	O	2.082794	0.311247	1.240987
O31	O	1.582469	-0.316813	0.441533
O32	O	2.082469	0.183187	0.941533
O33	O	1.453456	-0.316790	0.570573
O34	O	1.953456	0.183210	1.070573
C35	C	1.245183	-0.216375	0.506097
C36	C	1.745183	0.283625	1.006097
C37	C	1.128406	-0.216383	0.506113
C38	C	1.628406	0.283617	1.006113
C39	C	1.073538	-0.245150	0.573185
C40	C	1.573538	0.254850	1.073185
C41	C	0.963813	-0.245151	0.573206
C42	C	1.463813	0.254849	1.073206
C43	C	0.963837	-0.187618	0.439073
C44	C	1.463837	0.312382	0.939073
C45	C	1.073559	-0.187615	0.439058
C46	C	1.573559	0.312385	0.939058
C47	C	1.517961	-0.333103	0.506065
C48	C	2.017961	0.166897	1.006065
C49	C	1.517976	-0.383037	0.506078
C50	C	2.017976	0.116963	1.006078
C51	C	1.585450	-0.692680	0.439024
C52	C	2.085450	-0.192680	0.939024
C53	C	1.585579	-0.880353	0.439065
C54	C	2.085579	-0.380353	0.939065
O55	O	1.642798	-0.904617	0.382014
O56	O	2.142798	-0.404617	0.882014
N57	N	1.518368	-0.903822	0.506197
N58	N	2.018368	-0.403822	1.006197
C59	C	1.451125	-0.880370	0.573327
C60	C	1.951125	-0.380370	1.073327
O61	O	1.393969	-0.904638	0.630435
O62	O	1.893969	-0.404638	1.130435
C63	C	1.451001	-0.692698	0.573291
C64	C	1.951001	-0.192698	1.073291
C65	C	1.518209	-0.669231	0.506148
C66	C	2.018209	-0.169231	1.006148
C67	C	1.652653	-0.669213	0.371888
C68	C	2.152653	-0.169213	0.871888
C69	C	1.652616	-0.622297	0.371874
C70	C	2.152616	-0.122297	0.871874
C71	C	1.585375	-0.598849	0.438997
C72	C	2.085375	-0.098849	0.938997
C73	C	1.518172	-0.622316	0.506134
C74	C	2.018172	-0.122316	1.006134
C75	C	1.383764	-0.669247	0.640427
C76	C	1.883764	-0.169247	1.140427
C77	C	1.383741	-0.622326	0.640413
C78	C	1.883741	-0.122326	1.140413
C79	C	1.450949	-0.598859	0.573270
C80	C	1.950949	-0.098859	1.073270
C81	C	1.450895	-0.551952	0.573244
C82	C	1.950895	-0.051952	1.073244
N83	N	1.518106	-0.528482	0.506113
N84	N	2.018106	-0.028482	1.006113
C85	C	1.585346	-0.551931	0.438989
C86	C	2.085346	-0.051931	0.938989
C87	C	1.451193	-0.978901	0.573340
C88	C	1.951193	-0.478901	1.073340
C89	C	1.451223	-1.025819	0.573348
C90	C	1.951223	-0.525819	1.073348
C91	C	1.585679	-1.025798	0.439087
C92	C	2.085679	-0.525798	0.939087
C93	C	1.585643	-0.978879	0.439075
C94	C	2.085643	-0.478879	0.939075
C95	C	1.518404	-0.955431	0.506209
C96	C	2.018404	-0.455431	1.006209
C97	C	1.585262	-0.453405	0.438965
C98	C	2.085262	0.046595	0.938965
C99	C	1.585216	-0.406486	0.438955
C100	C	2.085216	0.093514	0.938955
C101	C	1.450764	-0.406510	0.573219
C102	C	1.950764	0.093490	1.073219
C103	C	1.450806	-0.453426	0.573226
C104	C	1.950806	0.046574	1.073226
C105	C	1.518064	-0.476872	0.506096
C106	C	2.018064	0.023128	1.006096
O107	O	1.393715	-0.527659	0.630274
O108	O	1.893715	-0.027659	1.130274
O109	O	1.642510	-0.527655	0.381907
O110	O	2.142510	-0.027655	0.881907
C111	C	1.585487	-0.739595	0.439038
C112	C	2.085487	-0.239595	0.939038
C113	C	1.518284	-0.763062	0.506175
C114	C	2.018284	-0.263062	1.006175
C115	C	1.451043	-0.739613	0.573298
C116	C	1.951043	-0.239613	1.073298
C117	C	1.518313	-0.809980	0.506183
C118	C	2.018313	-0.309980	1.006183
C119	C	1.585553	-0.833428	0.439060
C120	C	2.085553	-0.333428	0.939060
C121	C	1.652764	-0.809959	0.371928
C122	C	2.152764	-0.309959	0.871928
C123	C	1.652727	-0.763044	0.371915
C124	C	2.152727	-0.263044	0.871915
C125	C	1.383832	-0.763083	0.640430
C126	C	1.883832	-0.263083	1.140430
C127	C	1.383874	-0.809998	0.640437
C128	C	1.883874	-0.309998	1.140437
C129	C	1.451114	-0.833447	0.573314
C130	C	1.951114	-0.333447	1.073314
C131	C	1.792184	-0.216386	0.506139
C132	C	2.292184	0.283614	1.006139
C133	C	1.908960	-0.216388	0.506148
C134	C	2.408960	0.283612	1.006148
C135	C	1.518229	-0.216337	0.780151
C136	C	2.018229	0.283663	1.280151
C137	C	1.518263	-0.216318	0.896928
C138	C	2.018263	0.283682	1.396928
C139	C	1.518370	-0.099202	0.506193
C140	C	2.018370	0.400798	1.006193
C141	C	1.518463	-0.049267	0.506225
C142	C	2.018463	0.450733	1.006225
C143	C	1.518133	-0.216391	0.233150
C144	C	2.018133	0.283609	0.733150
C145	C	1.518303	-0.216282	0.116374
C146	C	2.018303	0.283718	0.616374
C147	C	1.585518	-0.187582	0.951815
C148	C	2.085518	0.312418	1.451815
C149	C	1.585535	-0.187562	1.061539
C150	C	2.085535	0.312438	1.561539
C151	C	1.451040	-0.245020	1.061479
C152	C	1.951040	0.254980	1.561479
C153	C	1.451018	-0.245037	0.951757
C154	C	1.951018	0.254963	1.451757
H155	H	1.118191	-0.268573	0.627787
H156	H	1.618191	0.231427	1.127787
H157	H	0.919167	-0.164197	0.384478
H158	H	1.419167	0.335803	0.884478
H159	H	1.707454	-0.743940	0.317241
H160	H	2.207454	-0.243940	0.817241
H161	H	0.919144	-0.268576	0.627824
H162	H	1.419144	0.231424	1.127824
H163	H	1.396015	-0.387411	0.627867
H164	H	1.896015	0.112589	1.127867
F165	F	1.657239	-1.050762	0.367647
F166	F	2.157239	-0.550762	0.867647
F167	F	1.131958	-0.156993	0.367673
F168	F	1.631958	0.343007	0.867673
F169	F	1.656750	-0.381513	0.367488
F170	F	2.156750	0.118487	0.867488
F171	F	1.656845	-0.478352	0.367517
F172	F	2.156845	0.021648	0.867517
F173	F	1.724160	-0.597328	0.300422
F174	F	2.224160	-0.097328	0.800422
H175	H	1.640300	-0.164161	1.106224
H176	H	2.140300	0.335839	1.606224
F177	F	1.657083	-0.157016	0.893465
F178	F	2.157083	0.342984	1.393465
F179	F	1.724227	-0.694162	0.300441
F180	F	2.224227	-0.194162	0.800441
H181	H	1.396294	-0.268403	1.106134
H182	H	1.896294	0.231597	1.606134
H183	H	1.640370	-0.959775	0.384402
H184	H	2.140370	-0.459775	0.884402
F185	F	1.379679	-1.050789	0.644799
F186	F	1.879679	-0.550789	1.144799
F187	F	1.312176	-0.597374	0.711871
F188	F	1.812176	-0.097374	1.211871
H189	H	1.396243	-0.268438	0.907066
H190	H	1.896243	0.231562	1.407066
H191	H	1.329031	-0.688346	0.695097
H192	H	1.829031	-0.188346	1.195097
F193	F	1.379257	-0.478402	0.644668
F194	F	1.879257	0.021598	1.144668
F195	F	1.379622	-0.953952	0.644797
F196	F	1.879622	-0.453952	1.144797
H197	H	1.707511	-0.829059	0.317271
H198	H	2.207511	-0.329059	0.817271
F199	F	1.312334	-0.834968	0.711903
F200	F	1.812334	-0.334968	1.211903
H201	H	1.329078	-0.743995	0.695091
H202	H	1.829078	-0.243995	1.195091
