data_functionalizedCrystal
_audit_creation_method	'MofGen! by Chris Wilmer'
_symmetry_space_group_name_H-M	'P1'
_symmetry_Int_Tables_number	1
_symmetry_cell_setting	triclinic
loop_
_symmetry_equiv_pos_as_xyz
  x,y,z
_cell_length_a	12.759395
_cell_length_b	16.120256
_cell_length_c	12.759394
_cell_angle_alpha	87.123590
_cell_angle_beta	89.983626
_cell_angle_gamma	92.880601
loop_
_atom_site_label
_atom_site_type_symbol
_atom_site_fract_x
_atom_site_fract_y
_atom_site_fract_z
Zn1	Zn	1.576120	-0.471348	0.448388
Zn2	Zn	2.076120	0.028652	0.948388
Zn3	Zn	1.584926	-0.331941	0.615167
Zn4	Zn	2.084926	0.168059	1.115167
Zn5	Zn	1.409333	-0.331956	0.439508
Zn6	Zn	1.909333	0.168044	0.939508
Zn7	Zn	1.400412	-0.471314	0.624028
Zn8	Zn	1.900412	0.028686	1.124028
O9	O	1.492698	-0.401640	0.531773
O10	O	1.992698	0.098360	1.031773
O11	O	1.724308	-0.452863	0.470520
O12	O	2.224308	0.047137	0.970520
O13	O	1.569053	-0.215279	0.584441
O14	O	2.069053	0.284721	1.084441
O15	O	1.431506	-0.350468	0.293667
O16	O	1.931506	0.149532	0.793667
O17	O	1.730779	-0.350442	0.593051
O18	O	2.230779	0.149558	1.093051
O19	O	1.554043	-0.452878	0.300191
O20	O	2.054043	0.047122	0.800191
O21	O	1.440046	-0.215291	0.455385
O22	O	1.940046	0.284709	0.955385
O23	O	1.261129	-0.350434	0.463978
O24	O	1.761129	0.149566	0.963978
O25	O	1.416300	-0.587982	0.608154
O26	O	1.916300	-0.087982	1.108154
O27	O	1.254575	-0.452820	0.599544
O28	O	1.754575	0.047180	1.099544
O29	O	1.545392	-0.588007	0.479112
O30	O	2.045392	-0.088007	0.979112
O31	O	1.560402	-0.350409	0.763362
O32	O	2.060402	0.149591	1.263362
O33	O	1.424840	-0.452805	0.769873
O34	O	1.924840	0.047195	1.269873
C35	C	1.219731	-0.401626	0.531759
C36	C	1.719731	0.098374	1.031759
C37	C	1.102954	-0.401639	0.531780
C38	C	1.602954	0.098361	1.031780
C39	C	1.096178	-0.508080	0.673151
C40	C	1.596178	-0.008080	1.173151
C41	C	1.037929	-0.561304	0.743845
C42	C	1.537929	-0.061304	1.243845
C43	C	0.928207	-0.561314	0.743858
C44	C	1.428207	-0.061314	1.243858
C45	C	0.876731	-0.508097	0.673168
C46	C	1.376731	-0.008097	1.173168
C47	C	0.934980	-0.454874	0.602474
C48	C	1.434980	0.045126	1.102474
C49	C	1.044705	-0.454868	0.602471
C50	C	1.544705	0.045132	1.102471
C51	C	0.941755	-0.348438	0.461100
C52	C	1.441755	0.151562	0.961100
C53	C	1.051478	-0.348422	0.461090
C54	C	1.551478	0.151578	0.961090
C55	C	0.890280	-0.295221	0.390410
C56	C	1.390280	0.204779	0.890410
C57	C	0.948529	-0.241993	0.319719
C58	C	1.448529	0.258007	0.819719
C59	C	1.058258	-0.241984	0.319709
C60	C	1.558258	0.258016	0.819709
C61	C	1.109727	-0.295199	0.390396
C62	C	1.609727	0.204801	0.890396
C63	C	1.478869	-0.619090	0.545612
C64	C	1.978869	-0.119090	1.045612
C65	C	1.472976	-0.711754	0.551509
C66	C	1.972976	-0.211754	1.051509
C67	C	1.523428	-0.922713	0.500993
C68	C	2.023428	-0.422713	1.000993
C69	C	1.462181	-0.881408	0.562232
C70	C	1.962181	-0.381408	1.062232
C71	C	1.468189	-0.787004	0.556264
C72	C	1.968189	-0.287004	1.056264
C73	C	1.517421	-1.017125	0.506960
C74	C	2.017421	-0.517125	1.006960
C75	C	1.766730	-0.401655	0.531788
C76	C	2.266730	0.098345	1.031788
C77	C	1.883507	-0.401661	0.531794
C78	C	2.383507	0.098339	1.031794
C79	C	1.492636	-0.401620	0.804739
C80	C	1.992636	0.098380	1.304739
C81	C	1.492704	-0.401639	0.921517
C82	C	1.992704	0.098361	1.421517
C83	C	1.506534	-0.185036	0.517912
C84	C	2.006534	0.314964	1.017912
C85	C	1.512630	-0.092372	0.511719
C86	C	2.012630	0.407628	1.011719
C87	C	1.492787	-0.401678	0.257742
C88	C	1.992787	0.098322	0.757742
C89	C	1.492825	-0.401695	0.140966
C90	C	1.992825	0.098305	0.640966
C91	C	1.633960	-0.295093	0.914690
C92	C	2.133960	0.204907	1.414690
C93	C	1.704615	-0.241830	0.966138
C94	C	2.204615	0.258170	1.466138
C95	C	1.704676	-0.241853	1.075861
C96	C	2.204676	0.258147	1.575861
C97	C	1.634075	-0.295146	1.134139
C98	C	2.134075	0.204854	1.634139
C99	C	1.563420	-0.348409	1.082691
C100	C	2.063420	0.151591	1.582691
C101	C	1.563366	-0.348379	0.972965
C102	C	2.063366	0.151621	1.472965
C103	C	1.422170	-0.454958	1.089519
C104	C	1.922170	0.045042	1.589519
C105	C	1.422104	-0.454932	0.979795
C106	C	1.922104	0.045068	1.479795
C107	C	1.351570	-0.508251	1.147797
C108	C	1.851570	-0.008251	1.647797
C109	C	1.280908	-0.561511	1.096349
C110	C	1.780908	-0.061511	1.596349
C111	C	1.280850	-0.561485	0.986619
C112	C	1.780850	-0.061485	1.486619
C113	C	1.351449	-0.508195	0.928348
C114	C	1.851449	-0.008195	1.428348
H115	H	0.906608	-0.198672	0.262164
H116	H	1.406608	0.301328	0.762164
O117	O	1.386752	-0.928471	0.637630
O118	O	1.886752	-0.428471	1.137630
H119	H	1.393819	-0.996309	0.630555
H120	H	1.893819	-0.496309	1.130555
O121	O	0.865410	-0.618689	0.820166
O122	O	1.365410	-0.118689	1.320166
H123	H	0.882317	-0.684155	0.806498
H124	H	1.382317	-0.184155	1.306498
O125	O	1.598874	-0.875651	0.425623
O126	O	2.098874	-0.375651	0.925623
H127	H	1.591820	-0.807814	0.432721
H128	H	2.091820	-0.307814	0.932721
O129	O	1.633890	-0.295068	0.796346
O130	O	2.133890	0.204932	1.296346
H131	H	1.694853	-0.249068	0.764465
H132	H	2.194853	0.250932	1.264465
H133	H	1.762100	-0.198441	0.918678
H134	H	2.262100	0.301559	1.418678
H135	H	1.762214	-0.198486	1.117749
H136	H	2.262214	0.301514	1.617749
H137	H	1.199068	-0.295195	0.390398
H138	H	1.699068	0.204805	0.890398
O139	O	1.634134	-0.295174	1.252483
O140	O	2.134134	0.204826	1.752483
H141	H	1.695122	-0.249181	1.278467
H142	H	2.195122	0.250819	1.778467
H143	H	1.351402	-0.508164	0.839005
H144	H	1.851402	-0.008164	1.339005
O145	O	0.771937	-0.295212	0.390407
O146	O	1.271937	0.204788	0.890407
H147	H	0.747018	-0.232292	0.407493
H148	H	1.247018	0.267708	0.907493
O149	O	1.121084	-0.184570	0.243471
O150	O	1.621084	0.315430	0.743471
H151	H	1.066853	-0.147564	0.194331
H152	H	1.566853	0.352436	0.694331
H153	H	1.351628	-0.508269	1.237139
H154	H	1.851628	-0.008269	1.737139
H155	H	1.223436	-0.604901	1.143808
H156	H	1.723436	-0.104901	1.643808
H157	H	1.185520	-0.508071	0.673155
H158	H	1.685520	-0.008071	1.173155
O159	O	1.093444	-0.618720	0.820066
O160	O	1.593444	-0.118720	1.320066
H161	H	1.179527	-0.609777	0.808182
H162	H	1.679527	-0.109777	1.308182
H163	H	0.787389	-0.508117	0.673177
H164	H	1.287389	-0.008117	1.173177
O165	O	1.204633	-0.618925	0.931128
O166	O	1.704633	-0.118925	1.431128
H167	H	1.155548	-0.655976	0.990089
H168	H	1.655548	-0.155976	1.490089
