data_functionalizedCrystal
_audit_creation_method	'MofGen! by Chris Wilmer'
_symmetry_space_group_name_H-M	'P1'
_symmetry_Int_Tables_number	1
_symmetry_cell_setting	triclinic
loop_
_symmetry_equiv_pos_as_xyz
  x,y,z
_cell_length_a	13.262390
_cell_length_b	17.019294
_cell_length_c	12.376457
_cell_angle_alpha	97.480483
_cell_angle_beta	63.168449
_cell_angle_gamma	82.863057
loop_
_atom_site_label
_atom_site_type_symbol
_atom_site_fract_x
_atom_site_fract_y
_atom_site_fract_z
O1	O	1.512742	0.016462	-0.560714
O2	O	1.186179	0.043669	-0.462959
O3	O	1.356054	-0.083296	-0.502823
O4	O	1.342868	0.143427	-0.520850
O5	O	1.313600	-0.051596	-0.304846
O6	O	1.143725	0.075369	-0.264982
O7	O	1.470288	0.048162	-0.362736
Zn8	Zn	1.300266	0.066798	-0.282426
Zn9	Zn	1.356201	0.025032	-0.543270
O10	O	1.300414	0.175127	-0.322872
C11	C	1.123120	0.060909	-0.351244
C12	C	0.998474	0.065043	-0.313324
C13	C	0.739696	0.007563	-0.638120
C14	C	0.856809	0.003675	-0.673750
C15	C	0.892231	0.019017	-0.583646
C16	C	0.810529	0.038247	-0.457907
C17	C	0.693406	0.042129	-0.422273
C18	C	0.845941	0.053583	-0.367799
C19	C	0.764239	0.072813	-0.242060
C20	C	0.647128	0.076694	-0.206432
C21	C	0.611706	0.061353	-0.296535
C22	C	0.963064	0.049701	-0.403433
C23	C	0.916774	0.084267	-0.187586
C24	C	0.799661	0.088154	-0.151956
C25	C	1.333490	-0.096321	-0.400614
C26	C	1.329492	-0.182361	-0.391012
C27	C	1.350758	-0.240057	-0.494419
C28	C	1.346994	-0.320899	-0.485392
C29	C	1.321971	-0.344043	-0.372959
C30	C	1.300700	-0.286339	-0.269543
C31	C	1.304457	-0.205498	-0.278569
C32	C	1.309463	-0.587265	-0.340304
C33	C	1.305712	-0.668113	-0.331287
C34	C	1.352004	-0.702667	-0.547136
C35	C	1.355765	-0.621824	-0.556154
C36	C	1.334488	-0.564127	-0.452737
C37	C	1.318126	-0.426676	-0.363730
C38	C	1.338325	-0.481494	-0.461965
C39	C	1.533348	0.030921	-0.474454
C40	C	1.657996	0.026787	-0.512382
C41	C	1.322978	0.188152	-0.425085
C42	C	1.326978	0.274190	-0.434694
N43	N	1.262100	0.095302	-0.104409
N44	N	1.394376	-0.003477	-0.721289
C45	C	1.482972	-0.069658	0.198733
C46	C	1.509678	-0.089607	0.074125
C47	C	1.447785	-0.043382	0.029485
C48	C	1.359183	0.022797	0.109466
C49	C	1.332480	0.042752	0.234084
C50	C	1.297294	0.069028	0.064836
C51	C	1.208691	0.135206	0.144817
C52	C	1.181992	0.155158	0.269423
C53	C	1.243884	0.108932	0.314062
C54	C	1.323997	0.049073	-0.059782
C55	C	1.173505	0.161482	-0.024431
C56	C	1.146798	0.181432	0.100177
H57	H	0.580610	0.092338	-0.104046
H58	H	1.109855	0.209050	0.334541
H59	H	1.285329	-0.686952	-0.239724
C60	C	0.599576	0.109447	-0.001506
C61	C	0.709848	0.109283	-0.013745
H62	H	0.544133	0.122486	0.083821
H63	H	0.582276	0.148591	-0.042103
H64	H	0.597532	0.057370	-0.037919
H65	H	0.711895	0.161362	0.022660
H66	H	0.727153	0.070137	0.026869
C67	C	1.075411	0.324877	0.144606
C68	C	1.049408	0.254177	0.188094
H69	H	1.015281	0.369784	0.198879
H70	H	1.146113	0.333198	0.141446
H71	H	1.082453	0.319602	0.064004
H72	H	1.042374	0.259450	0.268693
H73	H	0.978686	0.245856	0.191268
H74	H	1.123108	0.199125	-0.060775
C75	C	1.255312	-0.244057	-0.057092
C76	C	1.273191	-0.311775	-0.145951
H77	H	1.238325	-0.259760	0.019210
H78	H	1.323031	-0.222135	-0.084308
H79	H	1.192441	-0.204355	-0.045901
H80	H	1.336068	-0.351475	-0.157149
H81	H	1.205464	-0.333709	-0.118729
C82	C	1.027324	0.086286	-0.601460
C83	C	1.052863	0.028574	-0.541639
H84	H	1.082769	0.073245	-0.686787
H85	H	0.952515	0.086395	-0.593132
H86	H	1.029389	0.138355	-0.565043
H87	H	1.050790	-0.023495	-0.578051
H88	H	1.127692	0.028457	-0.549976
C89	C	0.890791	-0.030103	-0.883518
C90	C	0.946610	-0.017460	-0.811955
H91	H	0.946234	-0.043147	-0.968844
H92	H	0.851771	-0.073474	-0.863029
H93	H	0.836523	0.017745	-0.867226
H94	H	1.000872	-0.065310	-0.828240
H95	H	0.985649	0.025915	-0.832452
H96	H	0.987590	0.015851	-0.612664
H97	H	0.710844	-0.004934	-0.711468
H98	H	1.364315	-0.367874	-0.569598
C99	C	1.185565	-0.081435	-0.135195
C100	C	1.281078	-0.142071	-0.164904
H101	H	1.171124	-0.042280	-0.065016
H102	H	1.201014	-0.056091	-0.203446
H103	H	1.119777	-0.104814	-0.116955
H104	H	1.346869	-0.118693	-0.183153
H105	H	1.265635	-0.167418	-0.096638
H106	H	1.581818	-0.143489	0.009009
H107	H	1.297756	-0.445530	-0.272187
C108	C	0.445285	0.124680	-0.307388
C109	C	0.482984	0.065579	-0.257405
H110	H	0.365824	0.127271	-0.283247
H111	H	0.455547	0.175800	-0.277653
H112	H	0.488909	0.111042	-0.395166
H113	H	0.439366	0.079221	-0.169626
H114	H	0.472713	0.014448	-0.287134
C115	C	1.075745	0.093671	-0.146362
C116	C	0.955696	0.101134	-0.088533
H117	H	1.099777	0.104086	-0.085214
H118	H	1.112061	0.040329	-0.194436
H119	H	1.096808	0.131547	-0.198639
H120	H	0.934633	0.063253	-0.036262
H121	H	0.919367	0.154483	-0.040438
H122	H	1.469534	-0.059628	-0.071977
C123	C	1.278351	-0.800514	-0.633853
C124	C	1.375364	-0.766093	-0.660793
H125	H	1.292767	-0.839668	-0.704023
H126	H	1.262926	-0.825859	-0.565607
H127	H	1.213570	-0.759358	-0.613679
H128	H	1.440144	-0.807249	-0.680958
H129	H	1.390804	-0.740748	-0.729060
H130	H	1.533363	-0.107285	0.235086
C131	C	1.396124	-0.282339	-0.706863
C132	C	1.378260	-0.214621	-0.618010
H133	H	1.413093	-0.266634	-0.783161
H134	H	1.458990	-0.322038	-0.718065
H135	H	1.328393	-0.304260	-0.679629
H136	H	1.445995	-0.192703	-0.645240
H137	H	1.315389	-0.174908	-0.606810
H138	H	1.292161	-0.540299	-0.256101
H139	H	1.358690	-0.462645	-0.553505
H140	H	1.376142	-0.602988	-0.647710
H141	H	1.396137	-0.004810	-0.124892
H142	H	1.222138	0.125173	0.415529
