data_functionalizedCrystal
_audit_creation_method	'MofGen! by Chris Wilmer'
_symmetry_space_group_name_H-M	'P1'
_symmetry_Int_Tables_number	1
_symmetry_cell_setting	triclinic
loop_
_symmetry_equiv_pos_as_xyz
  x,y,z
_cell_length_a	15.944557
_cell_length_b	14.421503
_cell_length_c	14.044220
_cell_angle_alpha	89.990321
_cell_angle_beta	88.345123
_cell_angle_gamma	89.996619
loop_
_atom_site_label
_atom_site_type_symbol
_atom_site_fract_x
_atom_site_fract_y
_atom_site_fract_z
O1	O	-1.123677	0.077074	-0.122285
O2	O	-0.880257	0.077085	-0.137351
O3	O	-0.998313	0.077071	0.008166
O4	O	-1.005621	0.077089	-0.267803
O5	O	-0.998300	-0.077153	0.008182
O6	O	-0.880244	-0.077138	-0.137336
O7	O	-1.123664	-0.077149	-0.122270
Cu8	Cu	-1.001953	-0.091226	-0.129801
Cu9	Cu	-1.001968	0.091161	-0.129820
O10	O	-1.005608	-0.077135	-0.267788
C11	C	-0.848909	-0.000025	-0.136717
C12	C	-0.755523	-0.000022	-0.134839
C13	C	-0.477718	-0.000043	-0.039024
C14	C	-0.531751	-0.076081	-0.085206
C15	C	-0.419380	-0.000044	-0.128140
C16	C	-0.531746	0.075971	-0.085246
C17	C	-0.584538	-0.000031	-0.131427
C18	C	-0.472183	-0.076145	-0.174299
C19	C	-0.472174	0.075975	-0.174325
C20	C	-0.526179	-0.000082	-0.220573
C21	C	-0.324236	-0.000052	-0.126244
C22	C	-0.679679	-0.000030	-0.133329
N23	N	-1.001948	-0.219507	-0.129788
C24	C	-1.056050	-0.530942	-0.061965
C25	C	-1.079431	-0.469101	-0.147358
C26	C	-1.001969	-0.591396	-0.129815
C27	C	-0.978617	-0.469143	-0.044411
C28	C	-1.001961	-0.408675	-0.129797
C29	C	-1.025391	-0.530916	-0.215252
C30	C	-0.924540	-0.530963	-0.112248
C31	C	-0.947894	-0.469150	-0.197703
C32	C	-1.001976	-0.696657	-0.129824
C33	C	-1.001954	-0.303416	-0.129798
C34	C	-0.155012	-0.000041	-0.122891
C35	C	-0.248400	-0.000053	-0.124731
C36	C	-0.995108	-0.000041	0.043489
C37	C	-0.985567	-0.000042	0.148716
N38	N	-1.001979	0.219443	-0.129826
C39	C	-1.008813	-0.000021	-0.303110
C40	C	-1.018354	-0.000014	-0.408337
C41	C	-0.968123	-0.000028	0.341379
C42	C	-1.035794	-0.000028	0.399006
C43	C	-1.026088	-0.000020	0.506210
C44	C	-0.977828	-0.000036	0.234164
H45	H	-0.446184	-0.140500	-0.211900
C46	C	-0.478954	-0.079880	0.111048
C47	C	-0.448817	-0.000147	0.064583
H48	H	-0.461105	-0.079949	0.175006
H49	H	-0.538509	-0.080424	0.110571
H50	H	-0.457673	-0.133344	0.079085
H51	H	-0.470103	0.053317	0.096542
H52	H	-0.389250	0.000406	0.065065
C53	C	-0.654702	-0.162358	-0.037446
C54	C	-0.567002	-0.162868	-0.034395
H55	H	-0.676459	-0.215938	-0.006077
H56	H	-0.675934	-0.108369	-0.006427
H57	H	-0.671187	-0.162436	-0.101906
H58	H	-0.550517	-0.162783	0.030066
H59	H	-0.545762	-0.216871	-0.065411
C60	C	-0.524585	-0.079812	-0.370683
C61	C	-0.554867	-0.000131	-0.324260
H62	H	-0.542303	-0.079846	-0.434692
H63	H	-0.465035	-0.080316	-0.370051
H64	H	-0.545893	-0.133312	-0.338797
H65	H	-0.533554	0.053369	-0.356143
H66	H	-0.614429	0.000382	-0.324898
C67	C	-1.167526	-0.079330	0.387610
C68	C	-1.123847	-0.000046	0.356927
H69	H	-1.221885	-0.079339	0.361633
H70	H	-1.137864	-0.133097	0.366829
H71	H	-1.172462	-0.079314	0.455179
H72	H	-1.118906	-0.000065	0.289358
H73	H	-1.153516	0.053735	0.377703
C74	C	-0.929515	-0.378047	-0.339885
C75	C	-0.886153	-0.432741	-0.275230
H76	H	-0.891399	-0.355564	-0.387744
H77	H	-0.971627	-0.414301	-0.368562
H78	H	-0.954914	-0.327172	-0.307198
H79	H	-0.860759	-0.483620	-0.307916
H80	H	-0.844025	-0.396485	-0.246551
C81	C	-1.132987	-0.535368	-0.331294
C82	C	-1.052164	-0.567371	-0.312767
H83	H	-1.149514	-0.557869	-0.391497
H84	H	-1.171145	-0.557028	-0.283093
H85	H	-1.133108	-0.469501	-0.331871
H86	H	-1.052044	-0.633239	-0.312182
H87	H	-1.013996	-0.545716	-0.360980
H88	H	-1.101826	-0.558073	-0.004658
H89	H	-0.902904	-0.000023	0.372554
H90	H	-0.446049	0.140267	-0.211935
H91	H	-0.557850	0.140253	-0.047601
H92	H	-1.144908	-0.441929	-0.162216
H93	H	-0.859081	-0.558156	-0.097363
C94	C	-1.008683	-0.463713	0.124001
C95	C	-0.951951	-0.432514	0.053078
H96	H	-0.992221	-0.441105	0.184187
H97	H	-1.063306	-0.441618	0.111062
H98	H	-1.008986	-0.529577	0.124862
H99	H	-0.951653	-0.366649	0.052212
H100	H	-0.897315	-0.454604	0.066021
