data_functionalizedCrystal
_audit_creation_method	'MofGen! by Chris Wilmer'
_symmetry_space_group_name_H-M	'P1'
_symmetry_Int_Tables_number	1
_symmetry_cell_setting	triclinic
loop_
_symmetry_equiv_pos_as_xyz
  x,y,z
_cell_length_a	11.026607
_cell_length_b	10.654550
_cell_length_c	10.065875
_cell_angle_alpha	98.875770
_cell_angle_beta	100.697662
_cell_angle_gamma	83.464540
loop_
_atom_site_label
_atom_site_type_symbol
_atom_site_fract_x
_atom_site_fract_y
_atom_site_fract_z
O1	O	1.632231	-0.512406	0.113491
O2	O	1.278420	-0.452411	0.113493
O3	O	1.463459	-0.301436	0.113487
O4	O	1.447191	-0.663381	0.113497
O5	O	1.428176	-0.330372	-0.113500
O6	O	1.243137	-0.481347	-0.113494
O7	O	1.596947	-0.541343	-0.113496
Zn8	Zn	1.414440	-0.515940	-0.149534
Zn9	Zn	1.460927	-0.477814	0.149531
O10	O	1.411908	-0.692318	-0.113490
C11	C	1.215474	-0.455811	-0.000000
C12	C	1.080483	-0.422816	0.000001
N13	N	1.382723	-0.541960	-0.353639
C14	C	1.444623	-0.268847	-0.000005
C15	C	1.441050	-0.128627	-0.000000
C16	C	1.007444	-0.513919	0.000004
C17	C	0.867923	-0.479820	0.000005
C18	C	1.659894	-0.537943	0.000000
C19	C	1.794886	-0.570936	0.000008
C20	C	1.430744	-0.724907	0.000005
C21	C	1.434319	-0.865125	0.000009
C22	C	1.549998	-0.072791	-0.000005
C23	C	1.546634	0.058961	0.000005
C24	C	1.325363	0.079031	0.000018
C25	C	1.328730	-0.052718	0.000018
C26	C	1.677746	-0.084378	-0.000018
C27	C	1.674382	0.047374	-0.000009
C28	C	1.449884	-0.486858	-0.421420
C29	C	1.425483	-0.506896	-0.578586
N30	N	1.492654	-0.451786	0.353636
H31	H	0.827174	-0.376568	0.000037
H32	H	1.568219	-0.389766	-0.588046
H33	H	1.307154	-0.603965	-0.411963
H34	H	1.349909	-0.568905	-0.636905
O35	O	0.843707	-0.694038	0.000095
C36	C	1.027264	-0.840277	0.000066
C37	C	0.972140	-0.700816	-0.000016
H38	H	1.131104	-0.845807	-0.000053
H39	H	1.010573	-0.877041	0.095095
H40	H	0.980893	-0.901250	-0.094893
H41	H	1.018475	-0.639744	0.094878
H42	H	0.988816	-0.664155	-0.095108
O43	O	1.031848	-0.299634	0.000241
C44	C	0.922372	-0.120573	0.117794
C45	C	0.977416	-0.260073	0.117707
H46	H	0.878327	-0.088554	0.212740
H47	H	0.999029	-0.057209	0.117881
H48	H	0.848930	-0.112712	0.022756
H49	H	1.050842	-0.268057	0.212728
H50	H	0.900689	-0.323372	0.117548
O51	O	1.754962	-0.117681	0.113400
C52	C	1.892401	-0.046017	0.319961
C53	C	1.804971	-0.008122	0.191594
H54	H	1.932878	0.042535	0.383202
H55	H	1.838435	-0.091559	0.383399
H56	H	1.970688	-0.117113	0.288258
H57	H	1.726667	0.063010	0.223175
H58	H	1.859024	0.037348	0.128187
H59	H	1.525445	-0.424842	-0.363098
O60	O	1.707860	-0.152131	-0.117142
C61	C	1.760675	-0.144475	-0.337384
C62	C	1.726824	-0.067594	-0.204701
H63	H	1.775991	-0.076159	-0.408224
H64	H	1.849074	-0.209282	-0.312349
H65	H	1.681926	-0.204912	-0.389846
H66	H	1.805493	-0.007083	-0.152173
H67	H	1.638387	-0.002867	-0.229824
H68	H	1.728224	0.097131	0.097998
H69	H	1.048204	-0.617161	-0.000001
H70	H	1.240017	-0.098171	0.000041
H71	H	1.707751	0.066576	-0.095001
H72	H	1.233916	0.140852	0.000034
