data_functionalizedCrystal
_audit_creation_method	'MofGen! by Chris Wilmer'
_symmetry_space_group_name_H-M	'P1'
_symmetry_Int_Tables_number	1
_symmetry_cell_setting	triclinic
loop_
_symmetry_equiv_pos_as_xyz
  x,y,z
_cell_length_a	10.654550
_cell_length_b	10.654550
_cell_length_c	9.130313
_cell_angle_alpha	90.000276
_cell_angle_beta	89.996647
_cell_angle_gamma	95.515083
loop_
_atom_site_label
_atom_site_type_symbol
_atom_site_fract_x
_atom_site_fract_y
_atom_site_fract_z
O1	O	0.176399	-1.667839	-0.121686
O2	O	0.193205	-1.302361	-0.121712
O3	O	0.002063	-1.493503	-0.121693
O4	O	0.367541	-1.476697	-0.121705
O5	O	0.002057	-1.493490	0.121906
O6	O	0.193199	-1.302348	0.121886
O7	O	0.176393	-1.667826	0.121913
Cu8	Cu	0.184796	-1.485086	0.144142
Cu9	Cu	0.184802	-1.485101	-0.143942
O10	O	0.367535	-1.476684	0.121894
C11	C	0.191968	-1.255556	0.000084
C12	C	0.188276	-1.116113	0.000073
C13	C	-0.044738	-1.492263	0.000104
C14	C	-0.184181	-1.488571	0.000099
C15	C	0.177630	-1.714631	0.000114
C16	C	0.181322	-1.854074	0.000114
C17	C	-0.263667	-1.601112	0.000112
C18	C	-0.394688	-1.597636	0.000101
C19	C	-0.366725	-1.369066	0.000072
C20	C	-0.235706	-1.372544	0.000072
C21	C	-0.279813	-1.733075	0.000135
C22	C	-0.410834	-1.729599	0.000125
C23	C	0.414336	-1.477924	0.000093
C24	C	0.553779	-1.481616	0.000089
N25	N	0.184790	-1.485084	0.346765
C26	C	0.300818	-1.036627	0.000074
C27	C	0.297341	-0.905607	0.000100
C28	C	0.068772	-0.933570	0.000118
C29	C	0.072250	-1.064588	0.000103
N30	N	0.184798	-1.485113	-0.346564
C31	C	0.100188	-1.569751	0.423425
C32	C	0.100189	-1.569763	0.576762
C33	C	0.269404	-1.400437	0.576765
C34	C	0.269396	-1.400420	0.423431
H35	H	-0.170993	-1.280902	0.000041
C36	C	-0.058851	-0.876879	0.000137
N37	N	-0.154979	-0.834182	0.000145
C38	C	0.007109	-1.662873	0.339098
N39	N	-0.063005	-1.733012	0.275587
H40	H	-0.408693	-1.274601	0.000048
H41	H	-0.250452	-1.784696	-0.101800
C42	C	0.428450	-1.093300	0.000060
N43	N	0.524586	-1.135982	0.000057
H44	H	-0.452596	-1.779315	0.102072
C45	C	0.007110	-1.662893	0.661081
N46	N	-0.063006	-1.733038	0.724590
H47	H	0.338290	-1.331508	0.639201
C48	C	0.362528	-1.307333	0.339099
N49	N	0.432690	-1.237242	0.275581
C50	C	-0.472501	-1.783507	-0.141948
N51	N	-0.518952	-1.824117	-0.248950
C52	C	-0.231679	-1.789837	0.142232
N53	N	-0.195425	-1.832588	0.249262
H54	H	0.388984	-0.840894	0.000103
H55	H	-0.019401	-1.129309	0.000107
