data_functionalizedCrystal
_audit_creation_method	'MofGen! by Chris Wilmer'
_symmetry_space_group_name_H-M	'P1'
_symmetry_Int_Tables_number	1
_symmetry_cell_setting	triclinic
loop_
_symmetry_equiv_pos_as_xyz
  x,y,z
_cell_length_a	6.817900
_cell_length_b	11.102288
_cell_length_c	12.200875
_cell_angle_alpha	92.492872
_cell_angle_beta	107.143593
_cell_angle_gamma	108.605689
loop_
_atom_site_label
_atom_site_type_symbol
_atom_site_fract_x
_atom_site_fract_y
_atom_site_fract_z
V1	V	-4.094469	-0.176128	-0.357661
V2	V	-3.594469	0.323872	0.142339
O3	O	-4.053827	0.008167	-0.350853
O4	O	-3.553827	0.508167	0.149147
O5	O	-4.071363	-0.348946	-0.355215
O6	O	-3.571363	0.151054	0.144785
O7	O	-4.063810	-0.173549	-0.513649
O8	O	-3.563810	0.326451	-0.013649
O9	O	-4.061433	-0.168445	-0.191321
O10	O	-3.561433	0.331555	0.308679
V11	V	-4.572521	-0.154069	-0.337765
V12	V	-4.072521	0.345931	0.162235
O13	O	-4.367730	-0.224516	-0.401304
O14	O	-3.867730	0.275484	0.098696
O15	O	-4.749458	-0.105680	-0.294123
O16	O	-4.249458	0.394320	0.205877
O17	O	-4.372421	0.018750	-0.340211
O18	O	-3.872421	0.518750	0.159789
O19	O	-4.730561	-0.338363	-0.344574
O20	O	-4.230561	0.161637	0.155426
O21	O	-4.722955	-0.161752	-0.504105
O22	O	-4.222955	0.338248	-0.004105
O23	O	-4.379974	-0.156648	-0.181777
O24	O	-3.879974	0.343352	0.318223
C25	C	-3.921943	-0.391071	-0.349573
C26	C	-3.421943	0.108929	0.150427
C27	C	-3.984456	-0.532353	-0.348613
C28	C	-3.484456	-0.032353	0.151387
C29	C	-3.912307	-0.167333	-0.551670
C30	C	-3.412307	0.332667	-0.051670
C31	C	-3.968690	-0.166368	-0.679191
C32	C	-3.468690	0.333632	-0.179191
C33	C	-4.197560	-0.605206	-0.353885
C34	C	-3.697560	-0.105206	0.146115
C35	C	-4.256290	-0.737957	-0.352991
C36	C	-3.756290	-0.237957	0.147009
C37	C	-3.888790	-0.724989	-0.341549
C38	C	-3.388790	-0.224989	0.158451
C39	C	-3.830067	-0.592242	-0.342451
C40	C	-3.330067	-0.092242	0.157549
C41	C	-4.071879	-0.164603	-0.912666
C42	C	-3.571879	0.335397	-0.412666
C43	C	-4.014449	-0.165585	-0.782744
C44	C	-3.514449	0.334415	-0.282744
C45	C	-4.185183	0.060868	-0.345851
C46	C	-3.685183	0.560868	0.154149
C47	C	-4.101910	0.202149	-0.346818
C48	C	-3.601910	0.702149	0.153182
C49	C	-4.194820	-0.162867	-0.143750
C50	C	-3.694820	0.337133	0.356250
C51	C	-4.117674	-0.163826	-0.016228
C52	C	-3.617674	0.336174	0.483772
H53	H	-4.429816	-0.797268	-0.357286
H54	H	-3.929816	-0.297268	0.142714
H55	H	-3.656529	-0.532924	-0.338162
H56	H	-3.156529	-0.032924	0.161838
N57	N	-3.731124	-0.786188	-0.335258
N58	N	-3.231124	-0.286188	0.164742
N59	N	-3.783576	-0.904711	-0.334454
N60	N	-3.283576	-0.404711	0.165546
H61	H	-3.672220	-0.947933	-0.330009
H62	H	-3.172220	-0.447933	0.169991
H63	H	-4.323276	-0.556448	-0.358900
H64	H	-3.823276	-0.056448	0.141100
