data_functionalizedCrystal
_audit_creation_method	'MofGen! by Chris Wilmer'
_symmetry_space_group_name_H-M	'P1'
_symmetry_Int_Tables_number	1
_symmetry_cell_setting	triclinic
loop_
_symmetry_equiv_pos_as_xyz
  x,y,z
_cell_length_a	29.839134
_cell_length_b	29.839131
_cell_length_c	13.897441
_cell_angle_alpha	89.964857
_cell_angle_beta	89.966048
_cell_angle_gamma	90.034165
loop_
_atom_site_label
_atom_site_type_symbol
_atom_site_fract_x
_atom_site_fract_y
_atom_site_fract_z
Zn1	Zn	0.686762	-0.178926	-0.545691
Zn2	Zn	0.686682	-0.254061	-0.384379
Zn3	Zn	0.611633	-0.178936	-0.384372
Zn4	Zn	0.611593	-0.254020	-0.545595
O5	O	0.649167	-0.216486	-0.465009
O6	O	0.749619	-0.188905	-0.524336
O7	O	0.676709	-0.244117	-0.249397
O8	O	0.621649	-0.116068	-0.405808
O9	O	0.749560	-0.244107	-0.405821
O10	O	0.676847	-0.116060	-0.524329
O11	O	0.621571	-0.188923	-0.249391
O12	O	0.548760	-0.188883	-0.405715
O13	O	0.621581	-0.244037	-0.680589
O14	O	0.548731	-0.244047	-0.524165
O15	O	0.676808	-0.188866	-0.680660
O16	O	0.676671	-0.316923	-0.405728
O17	O	0.621503	-0.316893	-0.524172
C18	C	0.532445	-0.216462	-0.464929
C19	C	0.482510	-0.216463	-0.464918
C20	C	0.125926	-0.187719	-0.403458
C21	C	0.313599	-0.187707	-0.403400
O22	O	0.337866	-0.163230	-0.351055
N23	N	0.337065	-0.216470	-0.464967
C24	C	0.313610	-0.245237	-0.526557
O25	O	0.337876	-0.269699	-0.578929
C26	C	0.125938	-0.245247	-0.526620
C27	C	0.102474	-0.216485	-0.465042
C28	C	0.102462	-0.158959	-0.341886
C29	C	0.055547	-0.158964	-0.341898
C30	C	0.032095	-0.187730	-0.403481
C31	C	0.055559	-0.216490	-0.465053
C32	C	0.102484	-0.274012	-0.588214
C33	C	0.055563	-0.274011	-0.588226
C34	C	0.032099	-0.245248	-0.526648
C35	C	-0.014808	-0.245261	-0.526649
N36	N	-0.038274	-0.216497	-0.465082
C37	C	-0.014823	-0.187732	-0.403498
C38	C	0.412141	-0.245231	-0.526518
C39	C	0.459059	-0.245229	-0.526502
C40	C	0.459044	-0.187697	-0.403345
C41	C	0.412126	-0.187702	-0.403358
C42	C	0.388675	-0.216467	-0.464952
C43	C	-0.113349	-0.187745	-0.403526
C44	C	-0.160268	-0.187754	-0.403541
C45	C	-0.160249	-0.245283	-0.526700
C46	C	-0.113334	-0.245276	-0.526683
C47	C	-0.089885	-0.216503	-0.465093
O48	O	-0.039104	-0.269722	-0.578974
O49	O	-0.039097	-0.163267	-0.351149
C50	C	0.172841	-0.187714	-0.403447
C51	C	0.196305	-0.216475	-0.465019
C52	C	0.172854	-0.245240	-0.526602
C53	C	0.243223	-0.216473	-0.465002
C54	C	0.266675	-0.187707	-0.403419
C55	C	0.243208	-0.158943	-0.341852
C56	C	0.196293	-0.158949	-0.341863
C57	C	0.196320	-0.274004	-0.588169
C58	C	0.243236	-0.273997	-0.588152
C59	C	0.266687	-0.245231	-0.526568
C60	C	0.649086	-0.333208	-0.464961
C61	C	0.649093	-0.383143	-0.464973
C62	C	0.677945	-0.692789	-0.403425
C63	C	0.678001	-0.880462	-0.403463
O64	O	0.702468	-0.904729	-0.351096
N65	N	0.649261	-0.903928	-0.465082
C66	C	0.620506	-0.880472	-0.526701
O67	O	0.596066	-0.904738	-0.579119
C68	C	0.620454	-0.692800	-0.526667
C69	C	0.649193	-0.669337	-0.465037
C70	C	0.706682	-0.669326	-0.341801
C71	C	0.706666	-0.622410	-0.341789
C72	C	0.677914	-0.598958	-0.403400
C73	C	0.649177	-0.622421	-0.465025
C74	C	0.591702	-0.669346	-0.588290
C75	C	0.591692	-0.622425	-0.588278
C76	C	0.620431	-0.598961	-0.526648
C77	C	0.620408	-0.552054	-0.526624
N78	N	0.649148	-0.528588	-0.465005
C79	C	0.677901	-0.552040	-0.403393
C80	C	0.620536	-0.979003	-0.526712
C81	C	0.620548	-1.025921	-0.526720
C82	C	0.678043	-1.025907	-0.403483
C83	C	0.678028	-0.978989	-0.403471
C84	C	0.649276	-0.955537	-0.465093
C85	C	0.677865	-0.453514	-0.403371
C86	C	0.677846	-0.406595	-0.403361
C87	C	0.620352	-0.406612	-0.526601
C88	C	0.620370	-0.453528	-0.526608
C89	C	0.649130	-0.476978	-0.464990
O90	O	0.595957	-0.527758	-0.578971
O91	O	0.702345	-0.527767	-0.350997
C92	C	0.677961	-0.739704	-0.403438
C93	C	0.649224	-0.763168	-0.465062
C94	C	0.620472	-0.739716	-0.526674
C95	C	0.649237	-0.810086	-0.465069
C96	C	0.677990	-0.833538	-0.403458
C97	C	0.706730	-0.810072	-0.341838
C98	C	0.706714	-0.763157	-0.341826
C99	C	0.591731	-0.763181	-0.588293
C100	C	0.591749	-0.810097	-0.588300
C101	C	0.620502	-0.833549	-0.526688
C102	C	0.766346	-0.216509	-0.465090
C103	C	0.816280	-0.216520	-0.465124
C104	C	0.649199	-0.216446	-0.716602
C105	C	0.649213	-0.216429	-0.823816
C106	C	0.649261	-0.099307	-0.465078
C107	C	0.649301	-0.049373	-0.465108
C108	C	0.649225	-0.216399	-1.020112
C109	C	0.649217	-0.216417	-0.910879
C110	C	0.649162	-0.216493	-0.214395
C111	C	0.649235	-0.216383	-0.107181
H112	H	0.121581	-0.297433	-0.638357
H113	H	0.597121	-0.959912	-0.576893
N114	N	-0.184210	-0.274671	-0.589592
N115	N	-0.210418	-0.303281	-0.555553
H116	H	-0.227342	-0.324034	-0.599974
N117	N	0.736107	-0.834032	-0.278915
N118	N	0.777558	-0.828757	-0.285416
H119	H	0.798306	-0.845680	-0.240982
N120	N	0.736074	-0.739190	-0.278884
N121	N	0.764688	-0.712972	-0.312874
H122	H	0.785424	-0.696047	-0.268418
H123	H	0.597142	-1.045021	-0.576896
N124	N	0.562342	-0.693298	-0.651250
N125	N	0.536678	-0.672344	-0.706256
H126	H	0.515941	-0.689259	-0.750728
H127	H	0.701248	-0.387492	-0.353171
N128	N	0.172336	-0.129567	-0.278954
N129	N	0.193288	-0.103888	-0.223977
H130	H	0.176371	-0.083135	-0.179544
H131	H	-0.094229	-0.268700	-0.576817
N132	N	0.267175	-0.129565	-0.278945
N133	N	0.309066	-0.129570	-0.278951
H134	H	0.325995	-0.108822	-0.234529
N135	N	0.562364	-0.739231	-0.651245
N136	N	0.565324	-0.744444	-0.740259
H137	H	0.544580	-0.727531	-0.784723
N138	N	0.562321	-0.598477	-0.651237
N139	N	0.536668	-0.619436	-0.706256
H140	H	0.515924	-0.602525	-0.750721
H141	H	0.730099	-0.688415	-0.291629
H142	H	0.701430	-0.959887	-0.353288
H143	H	0.701455	-1.045010	-0.353316
N144	N	0.590990	-0.382643	-0.589533
N145	N	0.606780	-0.356426	-0.651021
H146	H	0.586045	-0.339496	-0.695471
H147	H	0.262336	-0.297423	-0.638294
H148	H	-0.179370	-0.164331	-0.353394
N149	N	0.707238	-0.477457	-0.340410
N150	N	0.704272	-0.472243	-0.251398
H151	H	0.725014	-0.489152	-0.206926
N152	N	0.591004	-0.477491	-0.589549
N153	N	0.565331	-0.456544	-0.644547
H154	H	0.544592	-0.473464	-0.689005
N155	N	0.562384	-0.834054	-0.651256
N156	N	0.536716	-0.813103	-0.706260
H157	H	0.515979	-0.830021	-0.750727
H158	H	0.730069	-0.603309	-0.291607
H159	H	0.036446	-0.135543	-0.291755
N160	N	-0.089399	-0.158350	-0.340628
N161	N	-0.094620	-0.116900	-0.347188
H162	H	-0.077705	-0.096140	-0.302764
N163	N	0.126405	-0.129568	-0.278973
N164	N	0.105441	-0.103893	-0.224010
H165	H	0.122348	-0.083135	-0.179569
H166	H	0.393024	-0.164279	-0.353219
H167	H	0.478159	-0.268655	-0.576634
N168	N	0.483011	-0.158318	-0.340442
N169	N	0.524901	-0.158323	-0.340445
H170	H	0.541831	-0.137573	-0.296026
H171	H	0.393052	-0.268656	-0.576677
H172	H	0.036472	-0.297434	-0.638387
N173	N	0.172376	-0.303390	-0.651089
N174	N	0.193338	-0.329066	-0.706052
H175	H	0.176430	-0.349824	-0.750492
