data_functionalizedCrystal
_audit_creation_method	'MofGen! by Chris Wilmer'
_symmetry_space_group_name_H-M	'P1'
_symmetry_Int_Tables_number	1
_symmetry_cell_setting	triclinic
loop_
_symmetry_equiv_pos_as_xyz
  x,y,z
_cell_length_a	8.965430
_cell_length_b	11.792241
_cell_length_c	11.792241
_cell_angle_alpha	95.806584
_cell_angle_beta	89.999725
_cell_angle_gamma	90.000368
loop_
_atom_site_label
_atom_site_type_symbol
_atom_site_fract_x
_atom_site_fract_y
_atom_site_fract_z
O1	O	0.123895	-1.506909	0.155559
O2	O	0.623895	-1.006909	0.655559
O3	O	0.123930	-1.176567	0.171592
O4	O	0.623930	-0.676567	0.671592
O5	O	0.123901	-1.349754	-0.001595
O6	O	0.623901	-0.849754	0.498405
O7	O	0.123924	-1.333722	0.328746
O8	O	0.623924	-0.833722	0.828746
O9	O	-0.124178	-1.349740	-0.001583
O10	O	0.375822	-0.849740	0.498417
O11	O	-0.124149	-1.176553	0.171604
O12	O	0.375851	-0.676553	0.671604
O13	O	-0.124184	-1.506894	0.155571
O14	O	0.375816	-1.006894	0.655571
Cu15	Cu	-0.146818	-1.341722	0.163588
Cu16	Cu	0.353182	-0.841722	0.663588
Cu17	Cu	0.146564	-1.341739	0.163575
Cu18	Cu	0.646564	-0.841739	0.663575
O19	O	-0.124155	-1.333707	0.328758
O20	O	0.375845	-0.833707	0.828758
C21	C	-0.000105	-1.134269	0.170591
C22	C	0.499895	-0.634269	0.670591
C23	C	-0.000092	-1.008255	0.167576
C24	C	0.499908	-0.508255	0.667576
N25	N	-0.353167	-1.341718	0.163597
N26	N	0.146833	-0.841718	0.663597
C27	C	-0.000138	-1.348740	-0.043880
C28	C	0.499862	-0.848740	0.456120
C29	C	-0.000136	-1.345726	-0.169894
C30	C	0.499864	-0.845726	0.330106
C31	C	-0.450460	-1.261600	0.243664
C32	C	0.049540	-0.761600	0.743664
C33	C	-0.549883	-1.364301	0.266319
C34	C	-0.049883	-0.864301	0.766319
C35	C	-0.549872	-1.239061	0.140952
C36	C	-0.049872	-0.739061	0.640952
C37	C	-0.450401	-1.444471	0.186304
C38	C	0.049599	-0.944471	0.686304
C39	C	-0.450381	-1.319163	0.060892
C40	C	0.049619	-0.819163	0.560892
C41	C	-0.549759	-1.421938	0.083504
C42	C	-0.049759	-0.921938	0.583504
N43	N	0.352913	-1.341752	0.163557
N44	N	0.852913	-0.841752	0.663557
C45	C	-0.000145	-1.549192	0.156572
C46	C	0.499855	-1.049192	0.656572
C47	C	-0.000149	-1.675206	0.159587
C48	C	0.499851	-1.175206	0.659587
C49	C	-0.000135	-0.777543	0.162034
C50	C	0.499865	-0.277543	0.662034
C51	C	-0.000112	-0.905928	0.165113
C52	C	0.499888	-0.405928	0.665113
C53	C	-0.000110	-1.340183	-0.400606
C54	C	0.499890	-0.840183	0.099394
C55	C	-0.000124	-1.343262	-0.272221
C56	C	0.499876	-0.843262	0.227779
C57	C	-0.000113	-1.334721	0.371043
C58	C	0.499887	-0.834721	0.871043
C59	C	-0.000105	-1.337736	0.497057
C60	C	0.499895	-0.837736	0.997057
H61	H	-0.406860	-1.193909	0.311436
H62	H	0.093140	-0.693909	0.811436
H63	H	-0.406891	-1.531321	0.205544
H64	H	0.093109	-1.031321	0.705544
C65	C	-0.608318	-1.513589	-0.007987
C66	C	-0.108318	-1.013589	0.492013
N67	N	-0.652433	-1.582624	-0.076890
N68	N	-0.152433	-1.082624	0.423110
H69	H	-0.406642	-1.300030	-0.025919
H70	H	0.093358	-0.800030	0.474081
C71	C	-0.608893	-1.121757	0.115093
C72	C	-0.108893	-0.621757	0.615093
N73	N	-0.653341	-1.033400	0.095624
N74	N	-0.153341	-0.533400	0.595624
H75	H	-0.593587	-1.383402	0.353157
H76	H	-0.093587	-0.883402	0.853157
