data_functionalizedCrystal
_audit_creation_method	'MofGen! by Chris Wilmer'
_symmetry_space_group_name_H-M	'P1'
_symmetry_Int_Tables_number	1
_symmetry_cell_setting	triclinic
loop_
_symmetry_equiv_pos_as_xyz
  x,y,z
_cell_length_a	25.993458
_cell_length_b	25.993459
_cell_length_c	25.993511
_cell_angle_alpha	59.998162
_cell_angle_beta	89.999156
_cell_angle_gamma	60.000225
loop_
_atom_site_label
_atom_site_type_symbol
_atom_site_fract_x
_atom_site_fract_y
_atom_site_fract_z
O1	O	-0.438486	-0.368218	0.015293
O2	O	-0.363675	-0.262871	-0.015241
O3	O	-0.363672	-0.368217	0.090105
O4	O	-0.438489	-0.262872	-0.090053
O5	O	-0.278107	-0.453782	0.090105
O6	O	-0.278110	-0.348435	-0.015242
O7	O	-0.352922	-0.453782	0.015293
Cu8	Cu	-0.307703	-0.408922	0.000026
Cu9	Cu	-0.408893	-0.307732	0.000026
O10	O	-0.352925	-0.348436	-0.090054
C11	C	-0.277316	-0.161982	-0.022175
C12	C	-0.309062	-0.098492	-0.017804
C13	C	-0.215401	-0.192794	-0.022608
C14	C	-0.277319	-0.255138	-0.022182
C15	C	-0.309067	-0.291250	-0.017818
C16	C	-0.215403	-0.285808	-0.022615
C17	C	-0.184156	-0.255142	-0.022175
C18	C	-0.116294	-0.291259	-0.017803
C19	C	-0.308422	-0.192790	-0.022615
C20	C	-0.621955	-0.565869	0.037072
C21	C	-0.590709	-0.628219	0.037508
C22	C	-0.528796	-0.565867	0.037069
C23	C	-0.497692	-0.628217	0.037505
C24	C	-0.528795	-0.659029	0.037072
C25	C	-0.590710	-0.535199	0.037505
C26	C	-0.722642	-0.464940	0.029513
C27	C	-0.786264	-0.430643	0.024742
C28	C	-0.818173	-0.460083	0.022351
C29	C	-0.887157	-0.422897	0.017175
C30	C	-0.786465	-0.523827	0.024735
C31	C	-0.722845	-0.558124	0.029508
C32	C	-0.690936	-0.528678	0.031894
C33	C	-0.529037	-0.752158	0.029515
C34	C	-0.499712	-0.811010	0.024744
C35	C	-0.438364	-0.840525	0.022349
C36	C	-0.406566	-0.904333	0.017173
C37	C	-0.406330	-0.811198	0.024730
C38	C	-0.435652	-0.752352	0.029503
C39	C	-0.497006	-0.722832	0.031893
C40	C	-0.529039	-0.464935	0.029505
C41	C	-0.499717	-0.430630	0.024723
C42	C	-0.438369	-0.460069	0.022328
C43	C	-0.406571	-0.422880	0.017149
C44	C	-0.406337	-0.523807	0.024709
C45	C	-0.435656	-0.558111	0.029489
C46	C	-0.497007	-0.528673	0.031887
C47	C	-0.528800	-0.150795	-0.471170
C48	C	-0.590715	-0.088445	-0.502276
C49	C	-0.528801	-0.150794	-0.378010
C50	C	-0.590716	-0.088444	-0.409257
C51	C	-0.621962	-0.057634	-0.471172
C52	C	-0.497696	-0.181464	-0.409255
C53	C	-0.435430	-0.251726	-0.470926
C54	C	-0.405903	-0.286024	-0.500250
C55	C	-0.437736	-0.256585	-0.561599
C56	C	-0.405725	-0.293773	-0.593395
C57	C	-0.499096	-0.192842	-0.593635
C58	C	-0.528620	-0.158544	-0.564313
C59	C	-0.496787	-0.187988	-0.502959
C60	C	-0.722649	0.035493	-0.564543
C61	C	-0.786272	0.094345	-0.594071
C62	C	-0.818182	0.123861	-0.562238
C63	C	-0.887167	0.187669	-0.594249
C64	C	-0.786474	0.094536	-0.500878
C65	C	-0.722854	0.035690	-0.471354
C66	C	-0.690944	0.006168	-0.503186
C67	C	-0.435431	-0.251724	-0.277321
C68	C	-0.405908	-0.286027	-0.213695
C69	C	-0.437741	-0.256588	-0.181786
C70	C	-0.405731	-0.293774	-0.112801
C71	C	-0.499099	-0.192850	-0.213493
C72	C	-0.528625	-0.158547	-0.277116
C73	C	-0.496788	-0.187987	-0.309028
O74	O	0.090091	-0.453793	0.015309
O75	O	-0.090066	-0.348444	-0.015226
O76	O	0.015273	-0.453795	0.090120
O77	O	-0.015248	-0.348442	-0.090038
O78	O	0.015276	-0.368235	0.090127
O79	O	-0.090063	-0.262884	-0.015220
O80	O	0.090094	-0.368232	0.015315
Cu81	Cu	0.000016	-0.307746	0.000048
Cu82	Cu	0.000012	-0.408931	0.000041
O83	O	-0.015245	-0.262881	-0.090031
O84	O	-0.352917	0.074778	0.015314
O85	O	-0.278103	-0.074844	-0.015220
O86	O	-0.278107	-0.074853	0.090126
O87	O	-0.352914	0.074787	-0.090033
O88	O	-0.363674	-0.074850	0.090119
O89	O	-0.363670	-0.074840	-0.015227
O90	O	-0.438484	0.074782	0.015307
Cu91	Cu	-0.408890	-0.000029	0.000039
Cu92	Cu	-0.307697	-0.000033	0.000047
O93	O	-0.438481	0.074791	-0.090039
O94	O	-1.090075	0.358185	-0.636308
O95	O	-0.909918	0.208556	-0.561490
O96	O	-1.015259	0.208553	-0.561488
O97	O	-0.984734	0.358188	-0.636310
O98	O	-1.015257	0.208552	-0.647052
O99	O	-0.909916	0.208554	-0.647054
O100	O	-1.090073	0.358183	-0.721872
Cu101	Cu	-0.999994	0.283368	-0.692275
Cu102	Cu	-0.999997	0.283371	-0.591086
O103	O	-0.984732	0.358186	-0.721874
O104	O	-0.363672	-0.368217	-0.721856
O105	O	-0.438486	-0.262875	-0.647043
O106	O	-0.438485	-0.368220	-0.647039
O107	O	-0.363673	-0.262872	-0.721860
O108	O	-0.352919	-0.453785	-0.561473
O109	O	-0.352920	-0.348441	-0.561477
O110	O	-0.278106	-0.453783	-0.636290
Cu111	Cu	-0.307700	-0.408925	-0.591071
Cu112	Cu	-0.408892	-0.307733	-0.692262
O113	O	-0.278107	-0.348438	-0.636294
C114	C	-0.184157	-0.554680	0.277358
C115	C	-0.116295	-0.618172	0.309104
C116	C	-0.215402	-0.523869	0.308461
C117	C	-0.277317	-0.461519	0.184196
C118	C	-0.309064	-0.425404	0.116335
C119	C	-0.308422	-0.430850	0.215442
C120	C	-0.277317	-0.461519	0.277356
C121	C	-0.309064	-0.425404	0.309102
C122	C	-0.215403	-0.523869	0.215443
C123	C	0.022216	-0.461546	0.277378
C124	C	0.017847	-0.425434	0.309127
C125	C	0.022649	-0.523895	0.308480
C126	C	0.022218	-0.461539	0.184215
C127	C	0.017852	-0.425421	0.116353
C128	C	0.022651	-0.523888	0.215458
C129	C	0.022213	-0.554702	0.277373
C130	C	0.017842	-0.618193	0.309116
C131	C	0.022654	-0.430874	0.215464
C132	C	-0.277320	-0.255179	0.277365
C133	C	-0.309067	-0.291295	0.309105
C134	C	-0.215404	-0.285854	0.308471
C135	C	-0.277318	-0.162008	0.184211
C136	C	-0.309065	-0.098506	0.116351
C137	C	-0.215403	-0.192825	0.215459
C138	C	-0.184157	-0.255183	0.277372
C139	C	-0.116295	-0.291304	0.309120
C140	C	-0.308424	-0.192820	0.215452
C141	C	-0.036996	-0.057627	-0.471149
C142	C	-0.037431	-0.088434	-0.502256
C143	C	-0.037001	-0.150789	-0.377991
C144	C	-0.037436	-0.181455	-0.409239
C145	C	-0.036998	-0.150783	-0.471154
C146	C	-0.037433	-0.088440	-0.409234
C147	C	-0.029433	0.035497	-0.470902
C148	C	-0.024659	0.094348	-0.500225
C149	C	-0.022263	0.123866	-0.561574
C150	C	-0.017083	0.187673	-0.593369
C151	C	-0.024646	0.094544	-0.593611
C152	C	-0.029422	0.035698	-0.564291
C153	C	-0.031813	0.006175	-0.502936
C154	C	-0.029436	-0.158096	-0.564526
C155	C	-0.024665	-0.192189	-0.594055
C156	C	-0.022273	-0.255931	-0.562224
C157	C	-0.017096	-0.292903	-0.594236
C158	C	-0.024659	-0.285585	-0.500864
C159	C	-0.029433	-0.251492	-0.471338
C160	C	-0.031819	-0.187750	-0.503169
C161	C	-0.029443	-0.158113	-0.277301
C162	C	-0.024666	-0.192218	-0.213674
C163	C	-0.022275	-0.255960	-0.181767
C164	C	-0.017101	-0.292938	-0.112782
C165	C	-0.024655	-0.285608	-0.213475
C166	C	-0.029430	-0.251509	-0.277098
C167	C	-0.031824	-0.187761	-0.309009
O168	O	-0.015283	-0.348468	0.438547
O169	O	0.015263	-0.453813	0.363734
O170	O	-0.090086	-0.348466	0.363721
O171	O	0.090067	-0.453815	0.438560
O172	O	-0.090076	-0.262903	0.278160
O173	O	0.015274	-0.368250	0.278173
O174	O	-0.015273	-0.262904	0.352986
Cu175	Cu	0.000001	-0.307764	0.307767
Cu176	Cu	-0.000011	-0.408953	0.408953
O177	O	0.090077	-0.368251	0.352999
C178	C	-0.621954	0.434195	-0.471145
C179	C	-0.590708	0.464866	-0.502245
C180	C	-0.528793	0.341020	-0.377984
C181	C	-0.497688	0.371833	-0.409225
C182	C	-0.528792	0.434191	-0.471138
C183	C	-0.590709	0.371836	-0.409233
C184	C	-0.722643	0.441515	-0.470910
C185	C	-0.786267	0.475617	-0.500237
C186	C	-0.818176	0.539368	-0.561584
C187	C	-0.887162	0.576348	-0.593384
C188	C	-0.786467	0.569022	-0.593614
C189	C	-0.722846	0.534920	-0.564289
C190	C	-0.690937	0.471170	-0.502938
C191	C	-0.529033	0.535130	-0.564499
C192	C	-0.499707	0.569430	-0.594020
C193	C	-0.438357	0.539984	-0.562184
C194	C	-0.406558	0.577173	-0.594188
C195	C	-0.406323	0.476234	-0.500827
C196	C	-0.435646	0.441934	-0.471308
C197	C	-0.497001	0.471385	-0.503145
C198	C	-0.529036	0.247880	-0.277303
C199	C	-0.499713	0.189024	-0.213679
C200	C	-0.438364	0.159502	-0.181766
C201	C	-0.406566	0.095685	-0.112783
C202	C	-0.406331	0.188830	-0.213467
C203	C	-0.435651	0.247685	-0.277089
C204	C	-0.497003	0.277207	-0.309004
H205	H	-0.615797	-0.654004	0.038210
C206	C	-0.022033	0.126597	-0.464986
C207	C	0.031586	0.078527	-0.402491
C208	C	0.034209	0.110782	-0.367255
C209	C	-0.016786	0.191105	-0.394513
C210	C	-0.070409	0.239179	-0.457012
C211	C	-0.073033	0.206925	-0.492248
H212	H	0.069339	0.019063	-0.382309
H213	H	0.073905	0.075194	-0.320989
H214	H	-0.014844	0.214982	-0.368429
H215	H	-0.108162	0.298644	-0.477194
H216	H	-0.112728	0.242513	-0.538514
H217	H	-0.031379	-0.275635	-0.421380
H218	H	-0.190323	-0.336028	0.359344
H219	H	-0.409566	0.271563	-0.302898
C220	C	-0.032050	-0.284118	-0.311981
C221	C	0.022884	-0.361660	-0.288770
C222	C	0.020265	-0.394271	-0.323652
C223	C	-0.037288	-0.349340	-0.381744
C224	C	-0.092226	-0.271793	-0.404957
C225	C	-0.089607	-0.239182	-0.370075
H226	H	0.065492	-0.394925	-0.245764
H227	H	0.060934	-0.451677	-0.306467
H228	H	-0.039227	-0.373480	-0.407565
H229	H	-0.134834	-0.238528	-0.447963
H230	H	-0.130276	-0.181777	-0.387260
C231	C	-0.181505	-0.157995	0.181583
C232	C	-0.208679	-0.078988	0.157465
C233	C	-0.174779	-0.044164	0.123593
C234	C	-0.113707	-0.088347	0.113840
C235	C	-0.086530	-0.167359	0.137959
C236	C	-0.120429	-0.202183	0.171830
H237	H	-0.253892	-0.046277	0.164684
H238	H	-0.194898	0.014326	0.105738
H239	H	-0.088612	-0.062568	0.088766
H240	H	-0.041317	-0.200070	0.130739
H241	H	-0.100311	-0.260673	0.189685
H242	H	-0.359291	-0.380672	0.190350
H243	H	-0.022704	-0.337517	-0.187490
C244	C	-0.624591	-0.467424	0.038455
C245	C	-0.648714	-0.470482	0.093342
C246	C	-0.682590	-0.402712	0.094293
C247	C	-0.692342	-0.331883	0.040358
C248	C	-0.668218	-0.328822	-0.014533
C249	C	-0.634342	-0.396592	-0.015485
H250	H	-0.641495	-0.522916	0.133271
H251	H	-0.700448	-0.404978	0.134927
H252	H	-0.717419	-0.281715	0.041062
H253	H	-0.675437	-0.276388	-0.054463
H254	H	-0.616484	-0.394326	-0.056119
H255	H	-0.190318	-0.167005	-0.023309
C256	C	-0.338415	-0.356139	-0.465013
C257	C	-0.285351	-0.358207	-0.492272
C258	C	-0.217860	-0.428323	-0.457037
C259	C	-0.203433	-0.496373	-0.394543
C260	C	-0.256498	-0.494308	-0.367280
C261	C	-0.323989	-0.424191	-0.402515
H262	H	-0.296029	-0.307830	-0.538537
H263	H	-0.178577	-0.429851	-0.477219
H264	H	-0.153472	-0.548277	-0.368460
H265	H	-0.245819	-0.544684	-0.321015
H266	H	-0.363271	-0.422663	-0.382333
C267	C	-0.821570	-0.556211	0.022100
C268	C	-0.850960	-0.579770	0.073088
C269	C	-0.886061	-0.612158	0.070454
C270	C	-0.891771	-0.620986	0.016832
C271	C	-0.862379	-0.597425	-0.034161
C272	C	-0.827279	-0.565038	-0.031527
H273	H	-0.846734	-0.573236	0.112786
H274	H	-0.907818	-0.629599	0.108202
H275	H	-0.917754	-0.644961	0.014882
H276	H	-0.866605	-0.603960	-0.073859
H277	H	-0.805522	-0.547597	-0.069275
C278	C	-0.428963	0.336995	-0.375341
C279	C	-0.377135	0.257987	-0.351223
C280	C	-0.308412	0.223152	-0.317344
C281	C	-0.291516	0.267327	-0.307582
C282	C	-0.343345	0.346340	-0.331700
C283	C	-0.412068	0.381174	-0.365580
H284	H	-0.389641	0.225282	-0.358449
H285	H	-0.270045	0.164661	-0.299490
H286	H	-0.240643	0.241541	-0.282502
H287	H	-0.330839	0.379045	-0.324474
H288	H	-0.450435	0.439665	-0.383434
H289	H	0.023338	-0.549675	0.359349
H290	H	-0.578993	-0.728129	0.031465
C291	C	-0.338417	-0.356137	-0.178813
C292	C	-0.325265	-0.426852	-0.120729
C293	C	-0.257773	-0.496968	-0.085838
C294	C	-0.203433	-0.496368	-0.109031
C295	C	-0.216584	-0.425650	-0.167118
C296	C	-0.284075	-0.355534	-0.202009
H297	H	-0.365492	-0.427299	-0.103557
H298	H	-0.248039	-0.549318	-0.042838
H299	H	-0.153472	-0.548272	-0.083203
H300	H	-0.176357	-0.425204	-0.184290
H301	H	-0.293810	-0.303184	-0.245009
C302	C	-0.181513	-0.558704	0.181555
C303	C	-0.208688	-0.586419	0.157439
C304	C	-0.174799	-0.621253	0.123553
C305	C	-0.113735	-0.628372	0.113783
C306	C	-0.086557	-0.600656	0.137900
C307	C	-0.120446	-0.565822	0.171786
H308	H	-0.253894	-0.581150	0.164671
H309	H	-0.194919	-0.641769	0.105700
H310	H	-0.088649	-0.654158	0.088699
H311	H	-0.041351	-0.605925	0.130668
H312	H	-0.100326	-0.545306	0.189638
H313	H	-0.525011	-0.168874	-0.643593
H314	H	-0.615794	0.515041	-0.553117
H315	H	-0.359295	-0.166998	-0.023320
H316	H	-0.446821	-0.653998	0.038201
C317	C	-0.377144	-0.157977	0.181546
C318	C	-0.394029	-0.202145	0.171758
C319	C	-0.462744	-0.167302	0.137847
C320	C	-0.514575	-0.088293	0.113723
C321	C	-0.497692	-0.044121	0.123510
C322	C	-0.428976	-0.078963	0.157422
H323	H	-0.355659	-0.260636	0.189616
H324	H	-0.475242	-0.200002	0.130601
H325	H	-0.565442	-0.062500	0.088619
H326	H	-0.536061	0.014371	0.105652
H327	H	-0.416479	-0.046263	0.164667
C328	C	-0.181525	-0.558697	0.377187
C329	C	-0.208716	-0.586400	0.429008
C330	C	-0.174845	-0.621223	0.497731
C331	C	-0.113784	-0.628344	0.514633
C332	C	-0.086590	-0.600640	0.462811
C333	C	-0.120461	-0.565817	0.394088
H334	H	-0.253920	-0.581130	0.416497
H335	H	-0.194977	-0.641731	0.536093
H336	H	-0.088711	-0.654122	0.565506
H337	H	-0.041386	-0.605910	0.475322
H338	H	-0.100329	-0.545309	0.355726
H339	H	0.023361	-0.549675	0.190371
C340	C	-0.624609	-0.053603	-0.571000
C341	C	-0.685683	-0.046465	-0.587889
C342	C	-0.719578	-0.011621	-0.656611
C343	C	-0.692399	0.016084	-0.708444
C344	C	-0.631322	0.008946	-0.691556
C345	C	-0.597427	-0.025897	-0.622834
H346	H	-0.705806	-0.066974	-0.549519
H347	H	-0.764792	-0.006337	-0.669112
H348	H	-0.717491	0.041877	-0.759315
H349	H	-0.611200	0.029456	-0.729926
H350	H	-0.552213	-0.031181	-0.610333
C351	C	0.023594	-0.363091	0.181558
C352	C	-0.030346	-0.292275	0.120480
C353	C	-0.029411	-0.224493	0.086567
C354	C	0.025466	-0.227526	0.113731
C355	C	0.079411	-0.298345	0.174812
C356	C	0.078475	-0.366127	0.208726
H357	H	-0.070973	-0.290028	0.100369
H358	H	-0.069344	-0.172068	0.041350
H359	H	0.026159	-0.177349	0.088626
H360	H	0.120037	-0.300592	0.194924
H361	H	0.118409	-0.418552	0.253942
H362	H	-0.525803	-0.378735	0.022786
C363	C	-0.038374	-0.053604	-0.570979
C364	C	-0.093253	0.025409	-0.622814
C365	C	-0.094196	0.060234	-0.691535
C366	C	-0.040259	0.016046	-0.708421
C367	C	0.014625	-0.062972	-0.656584
C368	C	0.015567	-0.097797	-0.587864
H369	H	-0.133185	0.058124	-0.610316
H370	H	-0.134825	0.118728	-0.729907
H371	H	-0.040956	0.041826	-0.759292
H372	H	0.054556	-0.095686	-0.669083
H373	H	0.056196	-0.156291	-0.549492
H374	H	-0.578992	-0.440963	0.031461
C375	C	-0.687956	-0.628240	0.032135
C376	C	-0.711150	-0.627649	-0.022798
C377	C	-0.676256	-0.697767	-0.020169
C378	C	-0.618168	-0.768476	0.037392
C379	C	-0.594971	-0.769070	0.092328
C380	C	-0.629865	-0.698952	0.089700
H381	H	-0.754153	-0.575303	-0.065412
H382	H	-0.693429	-0.697327	-0.060837
H383	H	-0.592337	-0.820382	0.039337
H384	H	-0.551968	-0.821416	0.134942
H385	H	-0.612692	-0.699392	0.130368
H386	H	-0.038138	-0.231626	-0.384153
H387	H	-0.525799	0.165148	-0.187874
C388	C	-0.038384	-0.053615	-0.375335
C389	C	0.015557	-0.046497	-0.365549
C390	C	0.014604	-0.011677	-0.331646
C391	C	-0.040290	0.016024	-0.307530
C392	C	-0.094235	0.008906	-0.317315
C393	C	-0.093282	-0.025913	-0.351218
H394	H	0.056197	-0.067004	-0.383402
H395	H	0.054539	-0.006409	-0.324402
H396	H	-0.040995	0.041799	-0.282433
H397	H	-0.134874	0.029413	-0.299462
H398	H	-0.133216	-0.031182	-0.358461
C399	C	-0.022051	-0.159599	-0.178802
C400	C	0.031557	-0.150703	-0.173266
C401	C	0.034177	-0.118086	-0.138391
C402	C	-0.016812	-0.094364	-0.109052
C403	C	-0.070424	-0.103260	-0.114588
C404	C	-0.073043	-0.135877	-0.149463
H405	H	0.069305	-0.168263	-0.194986
H406	H	0.073864	-0.111501	-0.134294
H407	H	-0.014872	-0.070219	-0.083236
H408	H	-0.108172	-0.085699	-0.092868
H409	H	-0.112731	-0.142461	-0.153560
C410	C	-0.022006	0.127014	-0.661099
C411	C	0.031617	0.079101	-0.675635
C412	C	0.034256	0.111568	-0.743122
C413	C	-0.016728	0.191949	-0.796073
C414	C	-0.070355	0.239867	-0.781538
C415	C	-0.072994	0.207400	-0.714051
H416	H	0.069362	0.019594	-0.636437
H417	H	0.073955	0.076095	-0.753882
H418	H	-0.014774	0.215983	-0.846031
H419	H	-0.108100	0.299374	-0.820736
H420	H	-0.112692	0.242873	-0.703291
C421	C	-0.624591	0.336992	-0.375342
C422	C	-0.648723	0.309298	-0.402529
C423	C	-0.682601	0.274452	-0.368637
C424	C	-0.692348	0.267301	-0.307557
C425	C	-0.668216	0.294996	-0.280367
C426	C	-0.634337	0.329842	-0.314259
H427	H	-0.641508	0.314591	-0.447747
H428	H	-0.700465	0.253950	-0.388765
H429	H	-0.717426	0.241506	-0.282468
H430	H	-0.675430	0.289703	-0.235149
H431	H	-0.616473	0.350343	-0.294131
C432	C	-0.022039	-0.159570	-0.661546
C433	C	-0.076969	-0.082024	-0.715880
C434	C	-0.074343	-0.049410	-0.783372
C435	C	-0.016789	-0.094342	-0.796530
C436	C	0.038144	-0.171893	-0.742195
C437	C	0.035519	-0.204507	-0.674703
H438	H	-0.119577	-0.048759	-0.706141
H439	H	-0.115009	0.007998	-0.823594
H440	H	-0.014846	-0.070199	-0.846492
H441	H	0.080753	-0.205158	-0.751934
H442	H	0.076185	-0.261915	-0.634480
C443	C	-0.821580	0.127006	-0.465860
C444	C	-0.879719	0.127583	-0.453385
C445	C	-0.914820	0.160050	-0.418365
C446	C	-0.891781	0.191940	-0.395819
C447	C	-0.833639	0.191364	-0.408294
C448	C	-0.798538	0.158897	-0.443314
H449	H	-0.896776	0.103975	-0.470075
H450	H	-0.957860	0.160476	-0.409130
H451	H	-0.917765	0.215974	-0.369895
H452	H	-0.816582	0.214971	-0.391604
H453	H	-0.755498	0.158471	-0.452549
H454	H	-0.409562	0.390028	-0.421351
H455	H	-0.031396	-0.106204	-0.303280
C456	C	-0.338840	0.156357	-0.178364
C457	C	-0.285896	0.075980	-0.148986
C458	C	-0.218405	0.043503	-0.113883
C459	C	-0.203860	0.091402	-0.108156
C460	C	-0.256806	0.171784	-0.137535
C461	C	-0.324296	0.204261	-0.172639
H462	H	-0.296662	0.040518	-0.153224
H463	H	-0.179211	-0.016001	-0.092135
H464	H	-0.153899	0.067361	-0.082170
H465	H	-0.246040	0.207246	-0.133297
H466	H	-0.363490	0.263765	-0.194387
H467	H	-0.409504	-0.275698	-0.303301
C468	C	-0.022026	-0.355709	-0.465847
C469	C	0.035534	-0.426324	-0.453373
C470	C	0.038165	-0.496445	-0.418354
C471	C	-0.016764	-0.495951	-0.395809
C472	C	-0.074329	-0.425334	-0.408283
C473	C	-0.076960	-0.355213	-0.443302
H474	H	0.076200	-0.426691	-0.470062
H475	H	0.080778	-0.548720	-0.409120
H476	H	-0.014817	-0.547859	-0.369886
H477	H	-0.114995	-0.424967	-0.391594
H478	H	-0.119573	-0.302938	-0.452536
H479	H	-0.697029	0.559063	-0.590371
C480	C	-0.821145	0.443002	-0.465007
C481	C	-0.850471	0.419274	-0.492278
C482	C	-0.885352	0.386658	-0.457050
C483	C	-0.890907	0.377770	-0.394552
C484	C	-0.861579	0.401498	-0.367278
C485	C	-0.826699	0.434114	-0.402506
H486	H	-0.846360	0.425853	-0.538546
H487	H	-0.907062	0.369092	-0.477241
H488	H	-0.916727	0.353625	-0.368474
H489	H	-0.865690	0.394919	-0.321010
H490	H	-0.804989	0.451680	-0.382315
C491	C	-0.596520	0.567521	-0.599524
C492	C	-0.611063	0.576355	-0.661976
C493	C	-0.678553	0.608750	-0.696999
C494	C	-0.731500	0.632312	-0.669570
C495	C	-0.716959	0.623479	-0.607114
C496	C	-0.649469	0.591084	-0.572091
H497	H	-0.571867	0.558912	-0.682284
H498	H	-0.689317	0.615289	-0.743234
H499	H	-0.781460	0.656293	-0.695496
H500	H	-0.756156	0.640922	-0.586806
H501	H	-0.638706	0.584545	-0.525856
H502	H	-0.031386	0.011466	-0.420946
H503	H	-0.190320	-0.335979	-0.023316
H504	H	-0.696663	-0.440962	0.031460
C505	C	-0.534945	0.639552	-0.661509
C506	C	-0.597438	0.707597	-0.675933
C507	C	-0.632671	0.777719	-0.743424
C508	C	-0.605412	0.779796	-0.796490
C509	C	-0.542917	0.711747	-0.782067
C510	C	-0.507683	0.641626	-0.714577
H511	H	-0.617620	0.706062	-0.636650
H512	H	-0.678935	0.828093	-0.754100
H513	H	-0.631494	0.831704	-0.846450
H514	H	-0.522735	0.713282	-0.821351
H515	H	-0.461419	0.591252	-0.703901
C516	C	-0.338833	0.443843	-0.465804
C517	C	-0.284399	0.366370	-0.443264
C518	C	-0.216910	0.333975	-0.408239
C519	C	-0.203855	0.379053	-0.395754
C520	C	-0.258290	0.456531	-0.418295
C521	C	-0.325779	0.488926	-0.453320
H522	H	-0.294062	0.332996	-0.452506
H523	H	-0.176614	0.276621	-0.391553
H524	H	-0.153895	0.355073	-0.369827
H525	H	-0.248627	0.489905	-0.409053
H526	H	-0.366075	0.546280	-0.470006
H527	H	-0.031353	0.011819	-0.590373
H528	H	-0.812075	-0.378744	0.022800
H529	H	-0.525801	-0.834882	0.022808
C530	C	-0.338842	-0.843667	0.022093
C531	C	-0.325790	-0.844245	-0.035469
C532	C	-0.258303	-0.876710	-0.038104
C533	C	-0.203867	-0.908599	0.016823
C534	C	-0.216917	-0.908022	0.074390
C535	C	-0.284404	-0.875556	0.077024
H536	H	-0.366089	-0.820638	-0.076133
H537	H	-0.248643	-0.877137	-0.080718
H538	H	-0.153909	-0.932632	0.014873
H539	H	-0.176618	-0.931629	0.115053
H540	H	-0.294064	-0.875130	0.119639
H541	H	-0.409570	-0.728473	0.031438
H542	H	-0.409573	-0.610008	0.031424
H543	H	-0.031381	-0.106192	-0.590450
C544	C	-0.624614	-0.053606	-0.375375
C545	C	-0.634390	-0.097779	-0.314313
C546	C	-0.668291	-0.062941	-0.280434
C547	C	-0.692417	0.016071	-0.307617
C548	C	-0.682643	0.060249	-0.368682
C549	C	-0.648741	0.025411	-0.402561
H550	H	-0.616529	-0.156273	-0.294187
H551	H	-0.675527	-0.095645	-0.235229
H552	H	-0.717513	0.041860	-0.282538
H553	H	-0.700503	0.118743	-0.388808
H554	H	-0.641506	0.058115	-0.447766
H555	H	-0.356381	-0.547775	0.022754
H556	H	-0.446824	-0.231634	-0.384172
H557	H	-0.409504	-0.275702	-0.420969
H558	H	-0.578991	0.271911	-0.303287
H559	H	-0.578576	-0.106639	-0.590401
C560	C	-0.821147	0.126597	-0.661562
C561	C	-0.826699	0.078530	-0.675989
C562	C	-0.861579	0.110788	-0.743481
C563	C	-0.890907	0.191113	-0.796547
C564	C	-0.885355	0.239184	-0.782122
C565	C	-0.850475	0.206926	-0.714629
H566	H	-0.804988	0.019065	-0.636705
H567	H	-0.865689	0.075202	-0.754159
H568	H	-0.916727	0.214992	-0.846508
H569	H	-0.907066	0.298650	-0.821405
H570	H	-0.846366	0.242513	-0.703951
H571	H	-0.696664	0.389604	-0.420956
H572	H	-0.696669	0.011463	-0.590469
H573	H	-0.697037	0.011820	-0.421397
H574	H	-0.578585	-0.106649	-0.302931
C575	C	-0.534123	-0.160461	-0.178394
C576	C	-0.546592	-0.205551	-0.120249
C577	C	-0.581612	-0.173163	-0.085149
C578	C	-0.604164	-0.095684	-0.108194
C579	C	-0.591696	-0.050589	-0.166343
C580	C	-0.556675	-0.082977	-0.201442
H581	H	-0.529897	-0.262910	-0.103187
H582	H	-0.590842	-0.206546	-0.042104
H583	H	-0.630089	-0.071708	-0.082211
H584	H	-0.608391	0.006770	-0.183405
H585	H	-0.547446	-0.049594	-0.244488
H586	H	-0.812458	0.620936	-0.643570
