data_functionalizedCrystal
_audit_creation_method	'MofGen! by Chris Wilmer'
_symmetry_space_group_name_H-M	'P1'
_symmetry_Int_Tables_number	1
_symmetry_cell_setting	triclinic
loop_
_symmetry_equiv_pos_as_xyz
  x,y,z
_cell_length_a	12.759401
_cell_length_b	12.759399
_cell_length_c	12.759393
_cell_angle_alpha	90.030931
_cell_angle_beta	89.981287
_cell_angle_gamma	89.983359
loop_
_atom_site_label
_atom_site_type_symbol
_atom_site_fract_x
_atom_site_fract_y
_atom_site_fract_z
Zn1	Zn	1.606240	0.418172	-0.594017
Zn2	Zn	1.606137	0.593888	-0.418336
Zn3	Zn	1.430546	0.418228	-0.418352
Zn4	Zn	1.430530	0.593815	-0.593973
O5	O	1.518363	0.506026	-0.506170
O6	O	1.753248	0.441489	-0.570724
O7	O	1.582808	0.570641	-0.271317
O8	O	1.453902	0.271200	-0.441680
O9	O	1.753172	0.570586	-0.441652
O10	O	1.582984	0.271159	-0.570740
O11	O	1.453802	0.441584	-0.271329
O12	O	1.283523	0.441513	-0.441637
O13	O	1.453874	0.570461	-0.741000
O14	O	1.283511	0.570515	-0.570665
O15	O	1.582968	0.441418	-0.741032
O16	O	1.582792	0.740899	-0.441609
O17	O	1.453774	0.740845	-0.570649
C18	C	1.245396	0.506013	-0.506149
C19	C	1.128619	0.506033	-0.506165
C20	C	1.518299	0.778993	-0.506146
C21	C	1.518367	0.895770	-0.506171
C22	C	1.518431	0.505925	-0.780203
C23	C	1.518460	0.505882	-0.896980
C24	C	1.073779	0.573307	-0.573244
C25	C	0.964054	0.573311	-0.573265
C26	C	0.964021	0.438764	-0.439118
C27	C	1.073743	0.438756	-0.439104
C28	C	0.814153	0.611009	-0.697125
C29	C	0.759309	0.678299	-0.764195
C30	C	0.794905	0.780830	-0.780142
C31	C	0.885344	0.816092	-0.729004
C32	C	0.940183	0.748807	-0.661926
C33	C	0.904588	0.646262	-0.645999
C34	C	1.223646	0.401068	-0.315242
C35	C	1.278487	0.333788	-0.248158
C36	C	1.242893	0.231255	-0.232200
C37	C	1.152450	0.195998	-0.283320
C38	C	1.097610	0.263278	-0.350404
C39	C	1.133212	0.365809	-0.366363
C40	C	1.792396	0.506040	-0.506191
C41	C	1.909173	0.506045	-0.506200
C42	C	1.518456	0.231993	-0.506217
C43	C	1.518496	0.115216	-0.506237
C44	C	1.585624	0.950625	-0.439056
C45	C	1.585691	1.060349	-0.439091
C46	C	1.451237	1.060353	-0.573359
C47	C	1.451176	0.950631	-0.573328
C48	C	1.709701	1.210225	-0.401704
C49	C	1.776948	1.265083	-0.334573
C50	C	1.793115	1.229543	-0.232062
C51	C	1.742019	1.139145	-0.196662
C52	C	1.674764	1.084292	-0.263788
C53	C	1.658618	1.119831	-0.366313
C54	C	1.327164	0.800754	-0.610705
C55	C	1.259903	0.745898	-0.677826
C56	C	1.243726	0.781437	-0.780338
C57	C	1.294803	0.871838	-0.815734
C58	C	1.362064	0.926693	-0.748613
C59	C	1.378243	0.891147	-0.646102
C60	C	1.451264	0.573043	-0.951827
C61	C	1.451301	0.573004	-1.061551
C62	C	1.585734	0.438633	-1.061572
C63	C	1.585702	0.438678	-0.951849
C64	C	1.413763	0.696846	-1.211484
C65	C	1.346550	0.763998	-1.266335
C66	C	1.244020	0.780136	-1.230719
C67	C	1.208681	0.729106	-1.140255
C68	C	1.275888	0.661946	-1.085410
C69	C	1.378434	0.645828	-1.121024
C70	C	1.623228	0.314836	-0.801914
C71	C	1.690431	0.247669	-0.747067
C72	C	1.792964	0.231521	-0.782681
C73	C	1.828299	0.282532	-0.873149
C74	C	1.761096	0.349698	-0.927996
C75	C	1.658564	0.365849	-0.892375
C76	C	1.518356	0.506051	-0.233202
C77	C	1.518530	0.505798	-0.116426
H78	H	1.118455	0.628085	-0.627852
H79	H	1.789872	0.391230	-1.001663
H80	H	1.818551	1.338685	-0.363405
C81	C	1.941085	0.264776	-0.912326
H82	H	1.976051	0.217478	-0.866700
H83	H	1.939313	0.236189	-0.981061
H84	H	1.977482	0.329709	-0.913368
C85	C	1.510439	0.332596	-0.762737
H86	H	1.499016	0.292582	-0.701013
H87	H	1.500440	0.404826	-0.747665
H88	H	1.462276	0.311310	-0.815365
C89	C	0.924492	0.928881	-0.746542
H90	H	0.878885	0.963900	-0.793821
H91	H	0.925506	0.965219	-0.681552
H92	H	0.993241	0.927103	-0.775097
C93	C	1.039658	0.787577	-0.605678
H94	H	1.067218	0.732819	-0.563446
H95	H	1.090428	0.807863	-0.656211
H96	H	1.022693	0.845963	-0.562659
C97	C	0.734583	0.854844	-0.853922
H98	H	0.675629	0.819159	-0.882096
H99	H	0.711583	0.914566	-0.815832
H100	H	0.779321	0.876449	-0.909375
C101	C	0.659839	0.639510	-0.820452
H102	H	0.646502	0.568800	-0.801366
H103	H	0.601956	0.681941	-0.800580
H104	H	0.669705	0.643848	-0.894124
H105	H	1.661649	0.206126	-0.673409
C106	C	1.377322	1.120704	-0.647215
H107	H	1.386981	1.193907	-0.637614
H108	H	1.392644	1.102654	-0.717815
H109	H	1.306727	1.102791	-0.631761
C110	C	0.775006	0.498219	-0.679594
H111	H	0.820625	0.463189	-0.632335
H112	H	0.706261	0.499987	-0.651044
H113	H	0.773997	0.461888	-0.744595
H114	H	1.847674	0.176815	-0.738022
C115	C	1.344941	0.761671	-0.497932
H116	H	1.304869	0.699988	-0.486458
H117	H	1.417160	0.746553	-0.488007
H118	H	1.323729	0.814363	-0.449753
C119	C	1.759784	1.100063	-0.083892
H120	H	1.719714	1.038379	-0.072422
H121	H	1.832004	1.084947	-0.073967
H122	H	1.738571	1.152752	-0.035710
C123	C	1.262808	0.513854	-0.332800
H124	H	1.324518	0.525220	-0.292736
H125	H	1.277901	0.523900	-0.405007
H126	H	1.210165	0.562025	-0.311466
C127	C	1.170094	0.854014	-1.291044
H128	H	1.205825	0.882098	-1.350014
H129	H	1.110345	0.816017	-1.314018
H130	H	1.148523	0.909525	-1.246313
C131	C	1.526554	0.679105	-1.250653
H132	H	1.561527	0.631812	-1.205027
H133	H	1.524788	0.650520	-1.319388
H134	H	1.562939	0.744045	-1.251693
C135	C	1.659682	0.364704	-1.121931
H136	H	1.650070	0.374286	-1.195134
H137	H	1.730263	0.380086	-1.103953
H138	H	1.644315	0.294118	-1.103954
H139	H	1.188953	0.736764	-0.834986
H140	H	1.403658	1.000300	-0.777443
H141	H	1.023972	0.234559	-0.392035
C142	C	1.113294	0.083211	-0.265774
H143	H	1.158914	0.048188	-0.218509
H144	H	1.044550	0.084985	-0.237221
H145	H	1.112283	0.046869	-0.330768
C146	C	1.303205	0.157250	-0.158396
H147	H	1.269044	0.091138	-0.156212
H148	H	1.372754	0.148411	-0.183480
H149	H	1.305002	0.186541	-0.089954
H150	H	0.919328	0.383991	-0.384518
C151	C	1.867089	1.289882	-0.158223
H152	H	1.895206	1.348803	-0.193988
H153	H	1.829144	1.312932	-0.098431
H154	H	1.922572	1.245136	-0.136716
C155	C	1.377967	0.372573	-0.191919
H156	H	1.391322	0.443272	-0.211038
H157	H	1.368113	0.368254	-0.118250
H158	H	1.435847	0.330127	-0.211792
H159	H	1.640337	0.905960	-0.384374
H160	H	1.633165	1.010691	-0.234967
C161	C	1.277015	0.910933	-0.928498
H162	H	1.229651	0.865311	-0.963406
H163	H	1.248496	0.979689	-0.926689
H164	H	1.341927	0.911897	-0.964975
H165	H	1.696555	1.239163	-0.485179
C166	C	1.377331	0.646993	-0.891473
H167	H	1.337330	0.686999	-0.939857
H168	H	1.331547	0.606841	-0.848663
H169	H	1.417519	0.692786	-0.848679
H170	H	1.218320	0.672284	-0.649000
H171	H	1.247115	0.620396	-1.011758
H172	H	1.125185	0.742241	-1.111271
H173	H	1.375333	0.805546	-1.339992
