data_functionalizedCrystal
_audit_creation_method	'MofGen! by Chris Wilmer'
_symmetry_space_group_name_H-M	'P1'
_symmetry_Int_Tables_number	1
_symmetry_cell_setting	triclinic
loop_
_symmetry_equiv_pos_as_xyz
  x,y,z
_cell_length_a	10.654550
_cell_length_b	11.792241
_cell_length_c	9.130313
_cell_angle_alpha	89.998583
_cell_angle_beta	89.996220
_cell_angle_gamma	84.339159
loop_
_atom_site_label
_atom_site_type_symbol
_atom_site_fract_x
_atom_site_fract_y
_atom_site_fract_z
O1	O	1.667383	0.159415	-0.121920
O2	O	1.301862	0.174603	-0.121897
O3	O	1.493493	0.001859	-0.121899
O4	O	1.475752	0.332159	-0.121918
O5	O	1.493490	0.001864	0.121700
O6	O	1.301859	0.174608	0.121702
O7	O	1.667381	0.159419	0.121678
Cu8	Cu	1.484620	0.167014	0.143933
Cu9	Cu	1.484623	0.167008	-0.144151
O10	O	1.475750	0.332164	0.121680
C11	C	1.255066	0.173490	-0.000095
C12	C	1.115632	0.170154	-0.000085
C13	C	1.035858	0.271863	-0.000113
C14	C	0.904847	0.268721	-0.000138
C15	C	0.933394	0.062152	-0.000114
C16	C	1.064404	0.065295	-0.000079
C17	C	1.087087	0.376722	-0.000119
C18	C	1.007312	0.478439	-0.000148
C19	C	0.876300	0.475297	-0.000173
C20	C	0.825063	0.370438	-0.000170
C21	C	1.492377	-0.040432	-0.000100
C22	C	1.489042	-0.166454	-0.000101
C23	C	1.482908	-0.397180	-0.000125
C24	C	1.486316	-0.268787	-0.000112
C25	C	1.714177	0.160532	-0.000127
C26	C	1.853611	0.163869	-0.000146
C27	C	1.476865	0.374455	-0.000122
C28	C	1.480201	0.500476	-0.000130
N29	N	1.484627	0.167017	0.346555
N30	N	1.484625	0.166996	-0.346774
C31	C	1.569503	0.090552	0.423206
C32	C	1.569500	0.090539	0.576543
C33	C	1.399740	0.243465	0.576564
C34	C	1.399739	0.243472	0.423230
C35	C	1.654392	0.014097	0.346531
C36	C	1.739275	-0.062373	0.423182
C37	C	1.739272	-0.062387	0.576519
C38	C	1.654385	0.014070	0.653205
H39	H	1.193762	0.379291	-0.000106
H40	H	1.654381	0.014045	0.778062
O41	O	0.798986	0.574205	-0.000259
C42	C	0.872301	0.667423	-0.000218
H43	H	0.969884	0.639379	-0.046311
H44	H	0.881820	0.699523	0.116647
C45	C	0.687858	0.798214	-0.039162
C46	C	0.807707	0.763773	-0.095786
H47	H	0.648012	0.857650	-0.098107
H48	H	0.638462	0.735412	-0.039184
H49	H	0.695806	0.824956	0.058225
H50	H	0.799756	0.737018	-0.193163
H51	H	0.857100	0.826572	-0.095782
O52	O	1.141724	-0.033610	-0.000130
C53	C	1.068419	-0.126834	-0.000112
H54	H	0.970855	-0.098802	-0.046254
H55	H	1.058849	-0.158927	0.116752
C56	C	1.252892	-0.257614	-0.038956
C57	C	1.133066	-0.223186	-0.095640
H58	H	1.292771	-0.317051	-0.097876
H59	H	1.302280	-0.194808	-0.038963
H60	H	1.244901	-0.284351	0.058429
H61	H	1.141060	-0.196437	-0.193017
H62	H	1.083680	-0.285990	-0.095653
H63	H	1.654404	0.014104	0.221677
H64	H	1.330624	0.305736	0.360820
O65	O	1.821601	-0.136818	0.348791
C66	C	1.800424	-0.249339	0.386316
H67	H	1.699865	-0.250719	0.428452
H68	H	1.869785	-0.282085	0.475341
C69	C	1.942942	-0.324457	0.198379
C70	C	1.819430	-0.326153	0.250119
H71	H	1.954671	-0.371842	0.114370
H72	H	1.957214	-0.248650	0.173101
H73	H	2.000729	-0.351743	0.272579
H74	H	1.761647	-0.298854	0.175926
H75	H	1.805149	-0.401958	0.275382
O76	O	1.317241	0.317579	0.651216
C77	C	1.239339	0.256135	0.739890
H78	H	1.288759	0.167735	0.762847
H79	H	1.146469	0.247647	0.680809
C80	C	1.152242	0.428469	0.857354
C81	C	1.212944	0.319898	0.885560
H82	H	1.135954	0.467802	0.947208
H83	H	1.204721	0.469866	0.797609
H84	H	1.074857	0.421381	0.808116
H85	H	1.290334	0.326987	0.934780
H86	H	1.160476	0.278502	0.945317
H87	H	1.808379	-0.124659	0.638927
H88	H	0.718383	0.367888	-0.000167
H89	H	1.049039	0.563812	-0.000139
H90	H	0.891666	-0.023220	-0.000136
