data_functionalizedCrystal
_audit_creation_method	'MofGen! by Chris Wilmer'
_symmetry_space_group_name_H-M	'P1'
_symmetry_Int_Tables_number	1
_symmetry_cell_setting	triclinic
loop_
_symmetry_equiv_pos_as_xyz
  x,y,z
_cell_length_a	15.995292
_cell_length_b	15.995350
_cell_length_c	9.130313
_cell_angle_alpha	90.000982
_cell_angle_beta	89.998592
_cell_angle_gamma	83.480495
loop_
_atom_site_label
_atom_site_type_symbol
_atom_site_fract_x
_atom_site_fract_y
_atom_site_fract_z
O1	O	1.111011	0.107691	-0.121832
O2	O	0.867229	0.121069	-0.121825
O3	O	0.995784	-0.007509	-0.121827
O4	O	0.982456	0.236269	-0.121829
O5	O	0.995783	-0.007505	0.121772
O6	O	0.867228	0.121073	0.121774
O7	O	1.111010	0.107694	0.121767
Cu8	Cu	0.989118	0.114384	0.144013
Cu9	Cu	0.989120	0.114380	-0.144071
O10	O	0.982455	0.236273	0.121769
C11	C	0.836033	0.120527	-0.000025
C12	C	0.743080	0.118894	-0.000022
C13	C	0.405341	0.112893	-0.000039
C14	C	0.428654	0.205697	-0.000584
C15	C	0.525329	0.207461	-0.000028
C16	C	0.572897	0.115871	-0.000032
C17	C	0.543795	0.069475	0.139071
C18	C	0.447004	0.068358	0.139181
C19	C	0.447150	0.066459	-0.137836
C20	C	0.543643	0.069898	-0.139669
C21	C	0.667593	0.117549	-0.000023
C22	C	0.310646	0.111212	-0.000038
C23	C	0.995232	-0.038702	-0.000030
C24	C	0.993580	-0.131652	-0.000039
C25	C	0.987648	-0.469398	-0.000034
C26	C	0.896094	-0.421945	-0.000577
C27	C	0.897746	-0.325255	-0.000028
C28	C	0.990591	-0.301838	-0.000037
C29	C	1.035748	-0.342923	0.139066
C30	C	1.033448	-0.439558	0.139183
C31	C	1.035341	-0.439921	-0.137835
C32	C	1.035319	-0.342975	-0.139673
C33	C	0.992259	-0.207141	-0.000034
C34	C	0.985983	-0.564095	-0.000027
C35	C	1.142206	0.108237	-0.000036
C36	C	1.235159	0.109870	-0.000048
C37	C	0.983006	0.267466	-0.000031
C38	C	0.984658	0.360416	-0.000032
N39	N	0.989123	0.114386	0.346636
N40	N	0.989122	0.114371	-0.346693
C41	C	1.046062	0.057471	0.423287
C42	C	1.046060	0.057461	0.576624
C43	C	0.932178	0.171289	0.576645
C44	C	0.932176	0.171294	0.423311
C45	C	1.103009	0.000563	0.346612
C46	C	1.159952	-0.056356	0.423263
C47	C	1.159950	-0.056366	0.576600
C48	C	1.103004	0.000543	0.653285
H49	H	0.400658	0.241467	-0.100341
H50	H	0.862010	-0.297381	0.099858
H51	H	1.103958	-0.328811	0.144233
Br52	Br	1.103019	0.000580	0.138512
Br53	Br	0.983474	-0.295610	0.311615
H54	H	0.420186	0.100493	0.243165
H55	H	0.885811	0.217639	0.360901
H56	H	1.002304	-0.315721	-0.242578
Br57	Br	1.237220	-0.133620	0.680626
Br58	Br	0.557047	0.268019	-0.166227
Br59	Br	1.145477	-0.493335	0.149711
H60	H	1.206312	-0.102694	0.360817
Br61	Br	0.854900	0.248519	0.680716
Br62	Br	0.423836	-0.047397	-0.139403
H63	H	1.103002	0.000525	0.778143
Br64	Br	0.574635	0.126171	-0.311196
H65	H	0.399634	0.241271	0.098612
H66	H	0.543732	0.244019	0.099855
H67	H	0.576613	0.003046	-0.148073
Br68	Br	0.985443	-0.474134	-0.313564
H69	H	0.432454	0.000314	0.145498
Br70	Br	0.835097	-0.452817	-0.166844
H71	H	0.575663	0.002077	0.144241
H72	H	0.418824	0.095465	-0.243268
Br73	Br	0.577223	0.123177	0.311620
Br74	Br	0.835195	-0.454986	0.164256
Br75	Br	1.147849	-0.492880	-0.139407
Br76	Br	0.838584	-0.277868	-0.166227
H77	H	1.000518	-0.457851	0.243170
H78	H	1.103025	-0.327628	-0.148079
