data_functionalizedCrystal
_audit_creation_method	'MofGen! by Chris Wilmer'
_symmetry_space_group_name_H-M	'P1'
_symmetry_Int_Tables_number	1
_symmetry_cell_setting	triclinic
loop_
_symmetry_equiv_pos_as_xyz
  x,y,z
_cell_length_a	19.188930
_cell_length_b	11.026607
_cell_length_c	10.065875
_cell_angle_alpha	100.697662
_cell_angle_beta	98.754308
_cell_angle_gamma	84.134601
loop_
_atom_site_label
_atom_site_type_symbol
_atom_site_fract_x
_atom_site_fract_y
_atom_site_fract_z
O1	O	0.284145	-1.626420	-0.113552
O2	O	0.250876	-1.273289	-0.113547
O3	O	0.167156	-1.460041	-0.113523
O4	O	0.367866	-1.439668	-0.113576
O5	O	0.183202	-1.424429	0.113461
O6	O	0.266922	-1.237678	0.113437
O7	O	0.300192	-1.590808	0.113432
Zn8	Zn	0.286105	-1.408589	0.149473
Zn9	Zn	0.264963	-1.455509	-0.149588
O10	O	0.383912	-1.404057	0.113408
C11	C	0.149084	-1.441574	-0.000027
C12	C	0.071328	-1.439591	-0.000015
C13	C	0.252761	-1.210305	-0.000054
C14	C	0.234465	-1.075688	-0.000051
C15	C	0.298306	-1.653793	-0.000064
C16	C	0.316602	-1.788412	-0.000076
C17	C	0.040370	-1.549173	-0.000010
C18	C	-0.032693	-1.547315	-0.000032
C19	C	-0.074793	-1.435865	-0.000031
C20	C	-0.043828	-1.326271	-0.000044
C21	C	0.029233	-1.328134	-0.000036
N22	N	-0.188194	-1.338556	0.077217
N23	N	-0.257598	-1.336793	0.077212
C24	C	-0.294920	-1.430245	-0.000059
N25	N	-0.260215	-1.525543	-0.077308
N26	N	-0.190805	-1.527308	-0.077297
C27	C	-0.154015	-1.433832	-0.000041
C28	C	-0.405101	-1.537819	-0.000080
C29	C	-0.478166	-1.535958	-0.000110
C30	C	-0.489298	-1.314909	-0.000108
C31	C	-0.416236	-1.316775	-0.000092
C32	C	-0.374141	-1.428233	-0.000071
C33	C	0.401983	-1.422523	-0.000091
C34	C	0.479739	-1.424508	-0.000112
N35	N	0.300534	-1.376576	0.353575
C36	C	0.284984	-1.001616	-0.000065
C37	C	0.266075	-0.862482	-0.000062
N38	N	0.250529	-1.487531	-0.353689
C39	C	0.269978	-1.444363	0.421362
C40	C	0.281090	-1.419734	0.578527
H41	H	0.074639	-1.639931	0.000002
H42	H	0.177212	-1.036103	-0.000071
H43	H	-0.057904	-1.636552	-0.000033
H44	H	-0.391029	-1.227541	-0.000088
H45	H	0.342235	-1.041205	-0.000072
H46	H	0.208818	-0.822903	-0.000082
Br47	Br	0.412033	-0.854370	-0.000075
H48	H	0.235588	-1.520626	0.363048
Br49	Br	0.338400	-1.292597	0.675707
H50	H	0.216137	-1.563799	0.588000
H51	H	0.334917	-1.300304	0.411891
H52	H	-0.523576	-1.224166	-0.000114
Br53	Br	-0.100963	-1.175019	-0.000061
H54	H	0.054438	-1.238897	-0.000039
H55	H	-0.370826	-1.628576	-0.000069
H56	H	-0.503370	-1.625197	-0.000113
