data_functionalizedCrystal
_audit_creation_method	'MofGen! by Chris Wilmer'
_symmetry_space_group_name_H-M	'P1'
_symmetry_Int_Tables_number	1
_symmetry_cell_setting	triclinic
loop_
_symmetry_equiv_pos_as_xyz
  x,y,z
_cell_length_a	17.038272
_cell_length_b	17.019282
_cell_length_c	13.330367
_cell_angle_alpha	93.873670
_cell_angle_beta	89.995338
_cell_angle_gamma	87.241387
loop_
_atom_site_label
_atom_site_type_symbol
_atom_site_fract_x
_atom_site_fract_y
_atom_site_fract_z
O1	O	0.099546	1.053361	0.007607
O2	O	0.432879	1.386694	0.340940
O3	O	0.766212	1.720028	0.674273
O4	O	0.112259	0.824550	-0.012169
O5	O	0.445592	1.157883	0.321164
O6	O	0.778925	1.491216	0.654497
O7	O	-0.007912	0.937595	-0.002391
O8	O	0.325421	1.270929	0.330943
O9	O	0.658755	1.604262	0.664276
O10	O	0.219716	0.940315	-0.002172
O11	O	0.553050	1.273648	0.331162
O12	O	0.886383	1.606982	0.664495
O13	O	-0.007915	0.937578	0.164455
O14	O	0.325419	1.270911	0.497788
O15	O	0.658752	1.604244	0.831121
O16	O	0.112256	0.824532	0.154676
O17	O	0.445589	1.157865	0.488010
O18	O	0.778923	1.491198	0.821343
O19	O	0.099543	1.053343	0.174452
O20	O	0.432876	1.386677	0.507786
O21	O	0.766210	1.720010	0.841119
Cu22	Cu	0.105899	0.938936	0.179799
Cu23	Cu	0.439233	1.272269	0.513132
Cu24	Cu	0.772566	1.605603	0.846465
Cu25	Cu	0.105902	0.938957	-0.017516
Cu26	Cu	0.439236	1.272290	0.315818
Cu27	Cu	0.772569	1.605624	0.649151
O28	O	0.219714	0.940297	0.164674
O29	O	0.553047	1.273631	0.498007
O30	O	0.886380	1.606964	0.831341
C31	C	0.111777	0.795119	0.068711
C32	C	0.445110	1.128453	0.402044
C33	C	0.778444	1.461786	0.735377
C34	C	0.110337	0.707453	0.061134
C35	C	0.443671	1.040786	0.394467
C36	C	0.777004	1.374119	0.727801
C37	C	0.109658	0.666262	0.148524
C38	C	0.442991	0.999595	0.481858
C39	C	0.776324	1.332928	0.815191
C40	C	0.108292	0.583890	0.141408
C41	C	0.441625	0.917224	0.474741
C42	C	0.774959	1.250557	0.808075
C43	C	0.107612	0.542711	0.046900
C44	C	0.440946	0.876045	0.380234
C45	C	0.774279	1.209378	0.713567
C46	C	0.108290	0.583908	-0.040496
C47	C	0.441623	0.917241	0.292837
C48	C	0.774956	1.250575	0.626170
C49	C	0.109649	0.666278	-0.033379
C50	C	0.442983	0.999612	0.299954
C51	C	0.776316	1.332945	0.633288
C52	C	0.103502	0.294007	0.020861
C53	C	0.436835	0.627340	0.354194
C54	C	0.770168	0.960674	0.687527
C55	C	0.102144	0.211631	0.013750
C56	C	0.435477	0.544964	0.347083
C57	C	0.768811	0.878298	0.680417
C58	C	0.102145	0.211619	0.195655
C59	C	0.435478	0.544952	0.528989
C60	C	0.768812	0.878286	0.862322
C61	C	0.103510	0.293990	0.202764
C62	C	0.436843	0.627324	0.536098
C63	C	0.770176	0.960657	0.869431
C64	C	0.104183	0.335180	0.115368
C65	C	0.437516	0.668514	0.448701
C66	C	0.770850	1.001847	0.782034
C67	C	0.106219	0.458514	0.039624
C68	C	0.439552	0.791848	0.372957
C69	C	0.772886	1.125181	0.706291
C70	C	0.105570	0.419376	0.122645
C71	C	0.438904	0.752710	0.455978
C72	C	0.772237	1.086043	0.789311
C73	C	-0.037039	0.935113	0.080818
C74	C	0.296294	1.268446	0.414151
C75	C	0.629627	1.601779	0.747485
C76	C	-0.123825	0.927732	0.080180
C77	C	0.209508	1.261066	0.413513
C78	C	0.542841	1.594399	0.746847
C79	C	-0.174001	0.995492	0.086037
C80	C	0.159332	1.328826	0.419371
C81	C	0.492665	1.662159	0.752704
C82	C	-0.255546	0.988553	0.085428
C83	C	0.077788	1.321886	0.418761
C84	C	0.411121	1.655220	0.752095
C85	C	-0.286912	0.913853	0.078968
C86	C	0.046421	1.247187	0.412302
C87	C	0.379754	1.580520	0.745635
C88	C	-0.236730	0.846088	0.073108
C89	C	0.096603	1.179422	0.406441
C90	C	0.429937	1.512755	0.739774
C91	C	-0.155187	0.853028	0.073710
C92	C	0.178146	1.186362	0.407043
C93	C	0.511479	1.519695	0.740376
C94	C	-0.532648	0.889335	0.076836
C95	C	-0.199315	1.222669	0.410169
C96	C	0.134019	1.556002	0.743502
C97	C	-0.614197	0.882401	0.076237
C98	C	-0.280864	1.215734	0.409570
C99	C	0.052470	1.549067	0.742904
C100	C	-0.633007	1.024866	0.088556
C101	C	-0.299674	1.358199	0.421889
C102	C	0.033660	1.691532	0.755222
C103	C	-0.551462	1.031799	0.089163
C104	C	-0.218129	1.365133	0.422497
C105	C	0.115205	1.698466	0.755830
C106	C	-0.501287	0.964034	0.083297
C107	C	-0.167953	1.297368	0.416630
C108	C	0.165380	1.630701	0.749964
C109	C	-0.370263	0.906758	0.078349
C110	C	-0.036930	1.240092	0.411682
C111	C	0.296403	1.573425	0.745015
C112	C	-0.417937	0.971130	0.083910
C113	C	-0.084604	1.304463	0.417243
C114	C	0.248729	1.637797	0.750576
C115	C	0.248841	0.942780	0.081463
C116	C	0.582174	1.276113	0.414796
C117	C	0.915508	1.609447	0.748130
C118	C	0.335627	0.950160	0.082094
C119	C	0.668960	1.283494	0.415428
C120	C	1.002294	1.616827	0.748761
C121	C	0.100025	1.082773	0.093570
C122	C	0.433358	1.416107	0.426904
C123	C	0.766691	1.749440	0.760237
C124	C	0.101464	1.170440	0.101140
C125	C	0.434798	1.503773	0.434474
C126	C	0.768131	1.837107	0.767807
N127	N	0.105897	0.938927	0.318579
N128	N	0.439230	1.272260	0.651913
N129	N	0.772563	1.605593	0.985246
N130	N	0.105899	0.938972	-0.156296
N131	N	0.439232	1.272305	0.177038
N132	N	0.772566	1.605638	0.510371
C133	C	0.159093	0.888896	0.786875
C134	C	0.492426	1.222230	1.120208
C135	C	0.825760	1.555563	1.453541
C136	C	0.052706	0.989038	0.795505
C137	C	0.386039	1.322371	1.128838
C138	C	0.719372	1.655705	1.462172
C139	C	0.052703	0.989029	0.690486
C140	C	0.386037	1.322362	1.023819
C141	C	0.719370	1.655696	1.357152
C142	C	0.105897	0.938954	0.633656
C143	C	0.439231	1.272287	0.966990
C144	C	0.772564	1.605620	1.300323
C145	C	0.159094	0.888888	0.681846
C146	C	0.492427	1.222221	1.015179
C147	C	0.825760	1.555554	1.348513
C148	C	-0.000487	1.039100	0.642289
C149	C	0.332846	1.372433	0.975622
C150	C	0.666180	1.705767	1.308955
C151	C	-0.000491	1.039094	0.537263
C152	C	0.332842	1.372427	0.870597
C153	C	0.666176	1.705760	1.203930
C154	C	0.052700	0.989014	0.480432
C155	C	0.386033	1.322347	0.813765
C156	C	0.719367	1.655680	1.147098
C157	C	0.105898	0.938945	0.528627
C158	C	0.439231	1.272278	0.861961
C159	C	0.772565	1.605611	1.195294
C160	C	0.159092	0.888870	0.471798
C161	C	0.492426	1.222203	0.805131
C162	C	0.825759	1.555536	1.138465
C163	C	0.212287	0.838796	0.519991
C164	C	0.545621	1.172129	0.853325
C165	C	0.878954	1.505463	1.186658
C166	C	0.212285	0.838808	0.625014
C167	C	0.545618	1.172141	0.958347
C168	C	0.878952	1.505474	1.291681
C169	C	0.052702	0.989002	0.375409
C170	C	0.386036	1.322335	0.708742
C171	C	0.719369	1.655669	1.042076
C172	C	0.159093	0.888861	0.366769
C173	C	0.492426	1.222194	0.700102
C174	C	0.825760	1.555527	1.033436
H175	H	0.101596	0.178073	0.266809
H176	H	0.434929	0.511407	0.600142
H177	H	0.768262	0.844740	0.933475
F178	F	-0.518085	1.111305	0.096013
F179	F	-0.184752	1.444638	0.429346
F180	F	0.148581	1.777971	0.762680
H181	H	-0.296396	1.043730	0.090200
H182	H	0.036937	1.377064	0.423533
H183	H	0.370271	1.710397	0.756867
H184	H	0.202408	0.848080	0.320504
H185	H	0.535741	1.181413	0.653837
H186	H	0.869074	1.514747	0.987171
H187	H	-0.043792	1.079874	0.688563
H188	H	0.289541	1.413207	1.021896
H189	H	0.622874	1.746541	1.355230
H190	H	0.106120	0.452908	0.199592
H191	H	0.439454	0.786241	0.532926
H192	H	0.772787	1.119575	0.866259
F193	F	-0.057106	1.092383	0.485979
F194	F	0.276228	1.425716	0.819313
F195	F	0.609561	1.759050	1.152646
F196	F	0.107579	0.540055	0.234421
F197	F	0.440913	0.873388	0.567755
F198	F	0.774246	1.206721	0.901088
H199	H	0.105665	0.424977	-0.037324
H200	H	0.438998	0.758310	0.296009
H201	H	0.772332	1.091644	0.629342
H202	H	-0.262275	0.785266	0.067842
H203	H	0.071058	1.118599	0.401175
H204	H	0.404391	1.451933	0.734508
F205	F	0.268896	0.785522	0.676309
F206	F	0.602229	1.118855	1.009642
F207	F	0.935563	1.452188	1.342976
H208	H	0.202402	0.848125	0.826116
H209	H	0.535735	1.181458	1.159450
H210	H	0.869068	1.514792	1.492783
H211	H	-0.395811	0.845937	0.073091
H212	H	-0.062478	1.179271	0.406425
H213	H	0.270855	1.512604	0.739758
H214	H	-0.148469	1.056321	0.091304
H215	H	0.184864	1.389654	0.424637
H216	H	0.518197	1.722987	0.757970
F217	F	-0.003903	1.042295	0.324124
F218	F	0.329430	1.375628	0.657458
F219	F	0.662763	1.708962	0.990791
H220	H	-0.673868	1.080036	0.093330
H221	H	-0.340534	1.413369	0.426663
H222	H	-0.007201	1.746702	0.759996
F223	F	-0.647577	0.802891	0.069366
F224	F	-0.314244	1.136225	0.402700
F225	F	0.019089	1.469558	0.736033
F226	F	-0.479258	0.817213	0.070590
F227	F	-0.145925	1.150546	0.403923
F228	F	0.187409	1.483880	0.737256
H229	H	-0.114334	0.797851	0.068940
H230	H	0.218999	1.131184	0.402273
H231	H	0.552332	1.464518	0.735606
F232	F	-0.003900	1.042334	0.855987
F233	F	0.329433	1.375668	1.189320
F234	F	0.662767	1.709001	1.522653
F235	F	0.268903	0.785509	0.459499
F236	F	0.602236	1.118842	0.792832
F237	F	0.935570	1.452175	1.126165
F238	F	0.101423	0.167806	-0.086842
F239	F	0.434756	0.501140	0.246491
F240	F	0.768089	0.834473	0.579824
H241	H	0.104047	0.327534	-0.050304
H242	H	0.437381	0.660868	0.283029
H243	H	0.770714	0.994201	0.616363
H244	H	0.110218	0.699784	0.225483
H245	H	0.443551	1.033117	0.558816
H246	H	0.776884	1.366450	0.892149
F247	F	-0.384553	1.050628	0.090779
F248	F	-0.051219	1.383962	0.424112
F249	F	0.282114	1.717295	0.757445
H250	H	0.107731	0.550374	-0.117447
H251	H	0.441064	0.883707	0.215887
H252	H	0.774397	1.217040	0.549220
F253	F	0.110370	0.710117	-0.126392
F254	F	0.443703	1.043450	0.206941
F255	F	0.777037	1.376783	0.540275
F256	F	0.104237	0.337810	0.303352
F257	F	0.437571	0.671144	0.636685
F258	F	0.770904	1.004477	0.970019
