data_functionalizedCrystal
_audit_creation_method	'MofGen! by Chris Wilmer'
_symmetry_space_group_name_H-M	'P1'
_symmetry_Int_Tables_number	1
_symmetry_cell_setting	triclinic
loop_
_symmetry_equiv_pos_as_xyz
  x,y,z
_cell_length_a	19.121063
_cell_length_b	21.395362
_cell_length_c	21.395355
_cell_angle_alpha	90.048039
_cell_angle_beta	92.420740
_cell_angle_gamma	87.511762
loop_
_atom_site_label
_atom_site_type_symbol
_atom_site_fract_x
_atom_site_fract_y
_atom_site_fract_z
Zn1	Zn	-0.279359	-0.947243	-0.365271
Zn2	Zn	-0.396795	-0.942682	-0.264956
Zn3	Zn	-0.279397	-0.842456	-0.260466
Zn4	Zn	-0.396814	-0.837963	-0.369654
O5	O	-0.338091	-0.892586	-0.315087
O6	O	-0.294913	-1.034316	-0.352009
O7	O	-0.381229	-0.929358	-0.176683
O8	O	-0.181105	-0.860145	-0.270655
O9	O	-0.381193	-1.030966	-0.278308
O10	O	-0.181077	-0.937131	-0.347655
O11	O	-0.294977	-0.855723	-0.173384
O12	O	-0.294996	-0.754181	-0.274905
O13	O	-0.381226	-0.852487	-0.456751
O14	O	-0.381262	-0.750880	-0.355126
O15	O	-0.294932	-0.932775	-0.453530
O16	O	-0.495084	-0.925002	-0.282559
O17	O	-0.495098	-0.848065	-0.359480
C18	C	-0.338136	-0.729796	-0.315004
C19	C	-0.338172	-0.660154	-0.314984
C20	C	-0.383152	-0.625736	-0.356695
C21	C	-0.383138	-0.560301	-0.356718
C22	C	-0.338151	-0.529286	-0.315019
C23	C	-0.293162	-0.563712	-0.273305
C24	C	-0.293173	-0.629146	-0.273288
C25	C	-0.332498	-0.425776	-0.258391
C26	C	-0.332492	-0.360344	-0.258408
C27	C	-0.338115	-0.327467	-0.315072
C28	C	-0.343757	-0.360030	-0.371723
C29	C	-0.343768	-0.425464	-0.371705
C30	C	-0.338134	-0.458335	-0.315033
C31	C	-0.383081	-0.222097	-0.356811
C32	C	-0.383062	-0.156661	-0.356835
C33	C	-0.293091	-0.160074	-0.273417
C34	C	-0.293106	-0.225508	-0.273398
C35	C	-0.338105	-0.256516	-0.315095
C36	C	-0.520576	-0.885568	-0.321996
C37	C	-0.598643	-0.882623	-0.324972
C38	C	-0.635289	-0.921327	-0.286355
C39	C	-0.708642	-0.918561	-0.289158
C40	C	-0.745348	-0.877087	-0.330576
C41	C	-0.708697	-0.838381	-0.369197
C42	C	-0.635346	-0.841151	-0.366397
C43	C	-0.966824	-0.866722	-0.341036
C44	C	-1.040180	-0.863954	-0.343832
C45	C	-1.040120	-0.944135	-0.263794
C46	C	-0.966767	-0.946898	-0.260995
C47	C	-0.930123	-0.908194	-0.299618
C48	C	-0.820326	-0.874257	-0.333441
C49	C	-0.855146	-0.911028	-0.296756
C50	C	-0.154894	-0.899648	-0.308165
C51	C	-0.076826	-0.902658	-0.305215
C52	C	-0.338077	-0.892638	-0.478510
C53	C	-0.338071	-0.892661	-0.548151
C54	C	-0.338058	-0.056010	-0.315153
C55	C	-0.338074	-0.125651	-0.315136
C56	C	-0.293136	-0.934465	-0.579188
C57	C	-0.293106	-0.934465	-0.644622
C58	C	-0.338023	-0.892667	-0.679017
C59	C	-0.382961	-0.850856	-0.647972
C60	C	-0.382985	-0.850852	-0.582539
C61	C	-0.401266	-0.885288	-0.785084
C62	C	-0.401243	-0.885296	-0.850517
C63	C	-0.337949	-0.892674	-0.880835
C64	C	-0.274675	-0.900058	-0.845714
C65	C	-0.274699	-0.900055	-0.780281
C66	C	-0.338002	-0.892666	-0.749969
C67	C	-0.292977	-0.934481	-0.982824
C68	C	-0.292946	-0.934477	-1.048259
C69	C	-0.382808	-0.850870	-1.051608
C70	C	-0.382833	-0.850871	-0.986174
C71	C	-0.337918	-0.892680	-0.951786
C72	C	-0.338055	-0.892571	-0.152298
C73	C	-0.337863	-0.892678	-0.082650
H74	H	-0.348335	-0.333264	-0.417864
F75	F	-0.927707	-0.991047	-0.216919
H76	H	-0.419373	-0.816832	-1.079612
H77	H	-0.605509	-0.809634	-0.397844
H78	H	-0.348360	-0.451975	-0.417832
H79	H	-0.419719	-0.247345	-0.390766
F80	F	-1.079125	-0.985326	-0.222694
H81	H	-1.070064	-0.830188	-0.377570
F82	F	-0.430662	-0.806379	-0.953141
F83	F	-0.430763	-0.806370	-0.684579
H84	H	-0.419792	-0.650978	-0.390649
F85	F	-0.431013	-0.523663	-0.401114
F86	F	-0.430935	-0.120031	-0.401234
F87	F	-0.859398	-0.830118	-0.377519
F88	F	-0.245209	-0.127070	-0.229040
F89	F	-0.207360	-0.907910	-0.742905
F90	F	-0.468585	-0.877442	-0.887889
F91	F	-0.430813	-0.806357	-0.549506
H92	H	-0.605408	-0.955097	-0.252626
H93	H	-0.738476	-0.950078	-0.257712
H94	H	-0.452795	-0.879112	-0.760404
H95	H	-0.256350	-0.968518	-1.073528
F96	F	-0.207307	-0.907914	-0.877976
F97	F	-0.245266	-0.978950	-0.677661
H98	H	-0.936994	-0.835206	-0.372484
H99	H	-0.738589	-0.804615	-0.402923
F100	F	-0.816079	-0.955169	-0.252681
H101	H	-0.256401	-0.968520	-0.954823
F102	F	-0.326515	-0.460760	-0.198077
H103	H	-0.256482	-0.253532	-0.239430
H104	H	-0.327902	-0.333835	-0.212280
F105	F	-0.245282	-0.530704	-0.228929
H106	H	-0.256543	-0.657169	-0.239322
F107	F	-0.245331	-0.978959	-0.542593
