data_functionalizedCrystal
_audit_creation_method	'MofGen! by Chris Wilmer'
_symmetry_space_group_name_H-M	'P1'
_symmetry_Int_Tables_number	1
_symmetry_cell_setting	triclinic
loop_
_symmetry_equiv_pos_as_xyz
  x,y,z
_cell_length_a	10.686285
_cell_length_b	17.077404
_cell_length_c	17.077396
_cell_angle_alpha	90.017060
_cell_angle_beta	85.606706
_cell_angle_gamma	94.368190
loop_
_atom_site_label
_atom_site_type_symbol
_atom_site_fract_x
_atom_site_fract_y
_atom_site_fract_z
Zn1	Zn	-0.502320	-1.224096	-0.419936
Zn2	Zn	-0.713346	-1.234116	-0.278626
Zn3	Zn	-0.502370	-1.092836	-0.288681
Zn4	Zn	-0.713266	-1.102899	-0.409854
O5	O	-0.607826	-1.163487	-0.349274
O6	O	-0.530326	-1.335272	-0.401202
O7	O	-0.685415	-1.215357	-0.170110
O8	O	-0.325788	-1.101842	-0.314520
O9	O	-0.685366	-1.342634	-0.297382
O10	O	-0.325751	-1.198278	-0.410952
O11	O	-0.530411	-1.111559	-0.177498
O12	O	-0.530333	-0.984323	-0.304744
O13	O	-0.685228	-1.118994	-0.521041
O14	O	-0.685277	-0.991717	-0.393768
O15	O	-0.530248	-1.208037	-0.528448
O16	O	-0.889911	-1.225115	-0.287606
O17	O	-0.889852	-1.128711	-0.384018
C18	C	-0.935666	-1.179114	-0.333644
C19	C	-1.075917	-1.185871	-0.326984
C20	C	-0.607803	-0.959538	-0.349253
C21	C	-0.607823	-0.872289	-0.349262
C22	C	-0.607723	-1.163521	-0.554023
C23	C	-0.607680	-1.163535	-0.641275
C24	C	-0.278705	-1.147820	-0.364982
C25	C	-0.138454	-1.141144	-0.371676
C26	C	-0.607849	-1.368232	-0.349295
C27	C	-0.607860	-1.455482	-0.349304
C28	C	-0.688624	-0.835175	-0.395531
C29	C	-0.688627	-0.753195	-0.395543
C30	C	-0.607834	-0.708330	-0.349282
C31	C	-0.527024	-0.745449	-0.303011
C32	C	-0.527016	-0.827428	-0.303004
C33	C	-0.527049	-0.574580	-0.303029
C34	C	-0.527059	-0.492596	-0.303035
C35	C	-0.688660	-0.500347	-0.395569
C36	C	-0.688652	-0.582326	-0.395561
C37	C	-0.607843	-0.619439	-0.349289
C38	C	-0.688243	-1.217647	-1.013253
C39	C	-0.688280	-1.217629	-0.931270
C40	C	-0.607591	-1.163581	-0.894129
C41	C	-0.526869	-1.109543	-0.938973
C42	C	-0.526839	-1.109558	-1.020953
C43	C	-0.526934	-1.109517	-0.768100
C44	C	-0.526961	-1.109502	-0.686114
C45	C	-0.688375	-1.217588	-0.678417
C46	C	-0.688345	-1.217603	-0.760397
C47	C	-0.607621	-1.163565	-0.805236
C48	C	-0.607836	-1.163494	-0.145326
C49	C	-0.607524	-1.163614	-0.058091
H50	H	-1.084699	-1.097682	-0.415035
H51	H	-0.461176	-1.065533	-0.908725
N52	N	-0.439902	-0.614616	-0.253119
H53	H	-0.381486	-0.645856	-0.287859
H54	H	-0.388808	-0.573713	-0.223816
N55	N	-1.147117	-1.243434	-0.269533
H56	H	-1.240577	-1.240260	-0.272750
H57	H	-1.124065	-1.298393	-0.282882
H58	H	-0.754420	-0.871699	-0.433199
H59	H	-0.754425	-0.722981	-0.433219
N60	N	-0.775802	-0.630719	-0.445448
H61	H	-0.826994	-0.594770	-0.474763
H62	H	-0.724509	-0.662303	-0.484268
H63	H	-0.754454	-0.470126	-0.433247
N64	N	-0.439875	-1.051231	-0.816464
H65	H	-0.388759	-1.016991	-0.780497
H66	H	-0.381476	-1.080414	-0.853271
H67	H	-0.461255	-0.456068	-0.265375
H68	H	-0.461236	-0.708913	-0.265348
H69	H	-0.461213	-0.857644	-0.265331
H70	H	-0.753944	-1.261662	-1.043487
H71	H	-0.754024	-1.261619	-0.894765
H72	H	-0.754043	-1.261617	-0.790636
H73	H	-0.461108	-1.065560	-1.057460
N74	N	-0.775438	-1.275873	-0.630057
H75	H	-0.763339	-1.267587	-0.572482
H76	H	-0.865542	-1.268022	-0.640162
N77	N	-0.439946	-1.051204	-0.646050
H78	H	-0.388813	-1.016968	-0.686893
H79	H	-0.491333	-1.017324	-0.609579
