data_functionalizedCrystal
_audit_creation_method	'MofGen! by Chris Wilmer'
_symmetry_space_group_name_H-M	'P1'
_symmetry_Int_Tables_number	1
_symmetry_cell_setting	triclinic
loop_
_symmetry_equiv_pos_as_xyz
  x,y,z
_cell_length_a	10.540539
_cell_length_b	10.489741
_cell_length_c	9.616153
_cell_angle_alpha	89.998052
_cell_angle_beta	89.995174
_cell_angle_gamma	84.532333
loop_
_atom_site_label
_atom_site_type_symbol
_atom_site_fract_x
_atom_site_fract_y
_atom_site_fract_z
O1	O	1.685914	0.179760	-0.115579
O2	O	1.316503	0.196697	-0.115596
O3	O	1.509614	0.002629	-0.115579
O4	O	1.492802	0.373827	-0.115596
O5	O	1.509587	0.002633	0.115712
O6	O	1.316476	0.196701	0.115695
O7	O	1.685887	0.179764	0.115712
Zn8	Zn	1.501177	0.188233	0.152426
Zn9	Zn	1.501212	0.188228	-0.152310
O10	O	1.492776	0.373831	0.115695
C11	C	1.269186	0.195429	0.000047
C12	C	1.128238	0.191629	0.000041
C13	C	0.944793	0.046011	0.000588
C14	C	1.091412	0.049864	0.000052
C15	C	1.066588	0.259850	-0.132036
C16	C	0.920043	0.255011	-0.132132
C17	C	0.919525	0.257900	0.130890
C18	C	1.066507	0.259206	0.132621
C19	C	1.508331	-0.044900	0.000066
C20	C	1.504532	-0.186529	0.000063
C21	C	1.381661	-0.254654	0.000047
C22	C	1.439691	-0.346782	0.114088
C23	C	1.439746	-0.346760	-0.113947
C24	C	1.562613	-0.276791	0.114199
C25	C	1.562651	-0.276760	-0.113939
C26	C	1.620770	-0.368860	0.000130
C27	C	1.733203	0.181032	0.000066
C28	C	1.874152	0.184832	0.000063
C29	C	1.494059	0.421361	0.000047
C30	C	1.497858	0.562990	0.000041
N31	N	1.501163	0.188236	0.360401
N32	N	1.501237	0.188215	-0.360285
C33	C	1.397545	0.291701	0.580761
C34	C	1.397773	0.292088	0.419594
C35	C	1.633890	0.218515	0.418855
C36	C	1.633325	0.219248	0.580073
C37	C	1.473374	0.054153	0.580317
C38	C	1.470328	0.055022	0.419090
H39	H	0.872310	0.360296	0.131777
O40	O	1.421505	0.423831	0.368465
H41	H	1.432877	0.487509	0.458891
H42	H	1.299154	0.273870	0.380075
H43	H	1.658799	0.315218	0.378461
O44	O	1.266499	0.267969	0.632180
H45	H	1.273865	0.182168	0.700312
H46	H	1.614546	-0.245964	0.210720
O47	O	0.904786	-0.027875	-0.124165
H48	H	0.860526	-0.114034	-0.088564
H49	H	1.415224	0.390600	0.621256
O50	O	1.122988	0.197062	-0.262237
H51	H	1.169220	0.268720	-0.324611
H52	H	1.721885	-0.418297	0.000198
O53	O	0.906898	-0.028179	0.126050
H54	H	0.992736	-0.057307	0.189527
H55	H	1.088954	0.363958	-0.136955
O56	O	1.631476	-0.235627	-0.241642
H57	H	1.580289	-0.263342	-0.336175
O58	O	1.146732	-0.021731	-0.125575
H59	H	1.068743	-0.059233	-0.186190
H60	H	1.280637	-0.204991	0.000157
O61	O	0.882669	0.188194	-0.262883
H62	H	0.969228	0.159631	-0.325446
H63	H	1.387752	-0.377720	-0.210369
H64	H	1.712936	0.145199	0.380509
H65	H	0.872087	0.356966	-0.138131
H66	H	1.657691	0.317055	0.617657
H67	H	1.712959	0.146910	0.619068
H68	H	1.378634	0.025335	0.621051
O69	O	0.877749	0.197123	0.263510
H70	H	0.824173	0.114150	0.237652
O71	O	1.340984	0.024614	0.368513
H72	H	1.298827	0.104033	0.301842
H73	H	1.387690	-0.377785	0.210498
O74	O	1.563750	-0.051895	0.365764
H75	H	1.633934	-0.011575	0.296292
O76	O	1.573465	-0.047922	0.630827
H77	H	1.668793	-0.025094	0.594924
O78	O	1.147837	-0.021227	0.125474
H79	H	1.124746	-0.122215	0.121585
H80	H	1.107452	0.209368	0.230331
H81	H	1.090745	0.362562	0.140590
