data_functionalizedCrystal
_audit_creation_method	'MofGen! by Chris Wilmer'
_symmetry_space_group_name_H-M	'P1'
_symmetry_Int_Tables_number	1
_symmetry_cell_setting	triclinic
loop_
_symmetry_equiv_pos_as_xyz
  x,y,z
_cell_length_a	9.065218
_cell_length_b	14.971482
_cell_length_c	14.048226
_cell_angle_alpha	89.994098
_cell_angle_beta	90.004897
_cell_angle_gamma	95.685753
loop_
_atom_site_label
_atom_site_type_symbol
_atom_site_fract_x
_atom_site_fract_y
_atom_site_fract_z
O1	O	-0.192235	1.188382	-0.079145
O2	O	0.307765	1.688382	0.420855
O3	O	-0.215264	0.928153	-0.079149
O4	O	0.284736	1.428153	0.420851
O5	O	0.011002	1.063646	-0.079144
O6	O	0.511002	1.563646	0.420856
O7	O	-0.418501	1.052888	-0.079150
O8	O	0.081499	1.552888	0.420850
O9	O	0.011015	1.063630	0.079177
O10	O	0.511015	1.563630	0.579177
O11	O	-0.215251	0.928136	0.079172
O12	O	0.284749	1.428136	0.579172
O13	O	-0.192222	1.188365	0.079176
O14	O	0.307778	1.688365	0.579176
Zn15	Zn	-0.203734	1.058248	0.104311
Zn16	Zn	0.296266	1.558248	0.604311
Zn17	Zn	-0.203752	1.058270	-0.104284
Zn18	Zn	0.296248	1.558270	0.395716
O19	O	-0.418488	1.052872	0.079171
O20	O	0.081512	1.552872	0.579171
C21	C	-0.214229	0.894812	0.000011
C22	C	0.285771	1.394812	0.500011
C23	C	-0.211145	0.795492	0.000009
C24	C	0.288855	1.295492	0.500009
C25	C	-0.209686	0.748827	0.086311
C26	C	0.290314	1.248827	0.586311
C27	C	-0.206765	0.655507	0.086312
C28	C	0.293235	1.155507	0.586312
C29	C	-0.205314	0.608852	0.000010
C30	C	0.294686	1.108852	0.500010
C31	C	-0.206770	0.655524	-0.086298
C32	C	0.293230	1.155524	0.413702
C33	C	-0.209680	0.748843	-0.086299
C34	C	0.290320	1.248843	0.413701
C35	C	-0.200708	0.461017	-0.086292
C36	C	0.299292	0.961017	0.413708
C37	C	-0.197800	0.367691	-0.086293
C38	C	0.302200	0.867691	0.413707
C39	C	-0.197793	0.367681	0.086318
C40	C	0.302207	0.867681	0.586318
C41	C	-0.200703	0.461000	0.086318
C42	C	0.299297	0.961000	0.586318
C43	C	-0.202161	0.507665	0.000009
C44	C	0.297839	1.007665	0.500009
C45	C	-0.473460	1.053914	0.000010
C46	C	0.026540	1.553914	0.500010
C47	C	-0.637240	1.057005	0.000008
C48	C	-0.137240	1.557005	0.500008
C49	C	0.065974	1.062604	0.000015
C50	C	0.565974	1.562604	0.500015
C51	C	0.229754	1.059513	0.000011
C52	C	0.729754	1.559513	0.500011
C53	C	-0.193257	1.221706	0.000014
C54	C	0.306743	1.721706	0.500014
C55	C	-0.196341	1.321026	0.000009
C56	C	0.303659	1.821026	0.500009
N57	N	-0.203721	1.058240	0.246672
N58	N	0.296279	1.558240	0.746672
N59	N	-0.203753	1.058285	-0.246645
N60	N	0.296247	1.558285	0.253355
C61	C	-0.103572	1.118255	0.296492
C62	C	0.396428	1.618255	0.796492
C63	C	-0.103571	1.118262	0.396150
C64	C	0.396429	1.618262	0.896150
C65	C	-0.203728	1.058255	0.445985
C66	C	0.296272	1.558255	0.945985
C67	C	-0.303882	0.998233	0.396158
C68	C	0.196118	1.498233	0.896158
C69	C	-0.303874	0.998223	0.296502
C70	C	0.196126	1.498223	0.796502
C71	C	-0.303893	0.998259	0.603872
C72	C	0.196107	1.498259	1.103872
C73	C	-0.303902	0.998269	0.703535
C74	C	0.196098	1.498269	1.203535
C75	C	-0.103589	1.118297	0.703520
C76	C	0.396411	1.618297	1.203520
C77	C	-0.103582	1.118287	0.603864
C78	C	0.396418	1.618287	1.103864
C79	C	-0.203738	1.058266	0.554043
C80	C	0.296262	1.558266	1.054043
H81	H	-0.205578	0.617531	-0.156567
H82	H	0.294422	1.117531	0.343433
H83	H	-0.201895	0.499008	-0.156574
H84	H	0.298105	0.999008	0.343426
H85	H	-0.385424	0.949351	0.255939
H86	H	0.114576	1.449351	0.755939
H87	H	-0.022034	1.167153	0.563288
H88	H	0.477966	1.667153	1.063288
H89	H	-0.210879	0.786806	0.156588
H90	H	0.289121	1.286806	0.656588
H91	H	-0.210871	0.786836	-0.156575
H92	H	0.289129	1.286836	0.343425
H93	H	-0.022039	1.167168	0.744089
H94	H	0.477961	1.667168	1.244089
H95	H	-0.022019	1.167123	0.255922
H96	H	0.477981	1.667123	0.755922
H97	H	-0.196606	0.329682	0.156594
H98	H	0.303394	0.829682	0.656594
H99	H	-0.022021	1.167130	0.436713
H100	H	0.477979	1.667130	0.936713
H101	H	-0.385459	0.949405	0.744106
H102	H	0.114541	1.449405	1.244106
H103	H	-0.201893	0.498983	0.156593
H104	H	0.298107	0.998983	0.656593
H105	H	-0.385427	0.949370	0.436740
H106	H	0.114573	1.449370	0.936740
H107	H	-0.205552	0.617519	0.156588
H108	H	0.294448	1.117519	0.656588
H109	H	-0.196620	0.329707	-0.156567
H110	H	0.303380	0.829707	0.343433
H111	H	-0.385446	0.949380	0.563312
H112	H	0.114554	1.449380	1.063312
