data_functionalizedCrystal
_audit_creation_method	'MofGen! by Chris Wilmer'
_symmetry_space_group_name_H-M	'P1'
_symmetry_Int_Tables_number	1
_symmetry_cell_setting	triclinic
loop_
_symmetry_equiv_pos_as_xyz
  x,y,z
_cell_length_a	12.837943
_cell_length_b	14.044220
_cell_length_c	11.295483
_cell_angle_alpha	94.468632
_cell_angle_beta	85.461227
_cell_angle_gamma	94.008909
loop_
_atom_site_label
_atom_site_type_symbol
_atom_site_fract_x
_atom_site_fract_y
_atom_site_fract_z
O1	O	1.404877	0.242691	-0.099010
O2	O	1.101936	0.230415	-0.099017
O3	O	1.248859	0.098158	-0.099002
O4	O	1.257954	0.374947	-0.099025
O5	O	1.235952	0.109755	0.099047
O6	O	1.089030	0.242012	0.099032
O7	O	1.391970	0.254287	0.099039
Cu8	Cu	1.239322	0.249208	0.117119
Cu9	Cu	1.254585	0.235494	-0.117097
O10	O	1.245048	0.386544	0.099024
C11	C	1.056479	0.232067	0.000007
C12	C	0.940259	0.219699	0.000005
C13	C	0.713048	0.368378	0.000009
C14	C	0.603848	0.356763	0.000008
C15	C	0.612656	0.184853	0.000010
C16	C	0.721856	0.196469	0.000011
C17	C	0.772048	0.288234	0.000009
C18	C	0.881251	0.299849	0.000002
C19	C	0.890056	0.127940	0.000012
C20	C	0.780856	0.116324	0.000011
C21	C	1.238424	0.068282	0.000023
C22	C	1.226550	-0.038016	0.000024
C23	C	1.204843	-0.232639	0.000007
C24	C	1.289060	-0.282665	0.000005
C25	C	1.276982	-0.390961	-0.000005
C26	C	1.216919	-0.124334	0.000016
C27	C	1.437428	0.252635	0.000012
C28	C	1.553649	0.265002	0.000007
C29	C	1.255482	0.416420	-0.000004
C30	C	1.267357	0.522717	-0.000013
N31	N	1.228594	0.258854	0.281854
N32	N	1.265320	0.225841	-0.281832
C33	C	1.342540	0.156351	0.531156
C34	C	1.334441	0.163648	0.655818
C35	C	1.204292	0.280740	0.655845
C36	C	1.212391	0.273443	0.531182
C37	C	1.281518	0.211247	0.468842
C38	C	1.289622	0.203956	0.344177
C39	C	1.159469	0.321042	0.344206
C40	C	1.151370	0.328339	0.468869
H41	H	0.739974	0.041612	0.000026
O42	O	1.393826	0.110283	0.716166
C43	C	1.456549	0.053806	0.634405
H44	H	1.467131	0.087903	0.545539
H45	H	1.416897	-0.021058	0.621156
C46	C	1.551340	0.005304	0.792179
C47	C	1.564344	0.047187	0.683035
H48	H	1.617831	0.001217	0.822177
H49	H	1.509079	0.043351	0.847264
H50	H	1.518292	-0.057078	0.781123
H51	H	1.597379	0.109573	0.694095
H52	H	1.606613	0.009151	0.627953
H53	H	0.555814	0.422025	0.000012
O54	O	1.137080	0.341018	0.716551
C55	C	1.063161	0.288174	0.788648
H56	H	1.096672	0.218247	0.807297
H57	H	0.988420	0.271857	0.740626
C58	C	0.996952	0.432836	0.884177
C59	C	1.038114	0.346954	0.907091
H60	H	0.981497	0.469094	0.957236
H61	H	1.046749	0.468438	0.835602
H62	H	0.934672	0.419226	0.844156
H63	H	1.100399	0.360564	0.947098
H64	H	0.988326	0.311355	0.955676
O65	O	1.084161	0.388626	0.529565
C66	C	1.010232	0.335798	0.601668
H67	H	1.043733	0.265870	0.620334
H68	H	0.935492	0.319483	0.553643
C69	C	0.944038	0.480477	0.697166
C70	C	0.985188	0.394594	0.720100
H71	H	0.928585	0.516745	0.770218
H72	H	0.993843	0.516068	0.648586
H73	H	0.881760	0.466868	0.657142
H74	H	1.047471	0.408203	0.760109
H75	H	0.935393	0.359005	0.768689
H76	H	0.922115	0.374569	0.000002
O77	O	1.108082	-0.278711	0.000062
C78	C	1.117415	-0.378148	0.000027
H79	H	1.194428	-0.391874	0.037512
H80	H	1.116017	-0.411923	-0.094988
C81	C	0.930876	-0.405742	0.031662
C82	C	1.025461	-0.422601	0.077711
H83	H	0.874153	-0.433165	0.079577
H84	H	0.924588	-0.338750	0.031682
H85	H	0.929727	-0.433889	-0.047516
H86	H	1.026615	-0.394445	0.156882
H87	H	1.031748	-0.489590	0.077707
O88	O	1.385936	-0.236796	-0.000188
C89	C	1.447259	-0.268828	-0.102737
H90	H	1.393809	-0.298918	-0.174444
H91	H	1.498098	-0.327108	-0.079545
C92	C	1.583424	-0.147487	-0.061151
C93	C	1.517774	-0.184436	-0.149226
H94	H	1.626924	-0.095433	-0.089825
H95	H	1.542111	-0.125908	0.007942
H96	H	1.625779	-0.196062	-0.041832
H97	H	1.475411	-0.135865	-0.168532
H98	H	1.559082	-0.206005	-0.218323
O99	O	0.947524	0.050186	0.000060
C100	C	1.054673	0.080110	0.000022
H101	H	1.063364	0.157758	0.037523
H102	H	1.092054	0.073778	-0.094996
C103	C	1.098809	-0.078909	0.031618
C104	C	1.109483	0.016458	0.077687
H105	H	1.132621	-0.118174	0.079520
H106	H	1.026622	-0.099070	0.031639
H107	H	1.129960	-0.084172	-0.047563
H108	H	1.078322	0.021721	0.156860
H109	H	1.181667	0.036619	0.077680
H110	H	0.753915	0.443098	0.000006
O111	O	1.356644	0.143385	0.283696
C112	C	1.328902	0.049021	0.314230
H113	H	1.242932	0.042990	0.348501
H114	H	1.379524	0.030452	0.386606
C115	C	1.451939	-0.013417	0.161430
C116	C	1.346346	-0.020827	0.203513
H117	H	1.462704	-0.056505	0.093137
H118	H	1.470633	0.050157	0.140861
H119	H	1.494112	-0.028890	0.221753
H120	H	1.304177	-0.005343	0.143195
H121	H	1.327646	-0.084402	0.224069
O122	O	1.409830	0.096093	0.470552
C123	C	1.483717	0.148940	0.398420
H124	H	1.489971	0.226684	0.435986
H125	H	1.457621	0.145438	0.303939
C126	C	1.583547	0.010895	0.350374
C127	C	1.591235	0.106379	0.396518
H128	H	1.649869	-0.015360	0.349195
H129	H	1.533767	-0.024711	0.398966
H130	H	1.561797	0.007989	0.271644
H131	H	1.612972	0.109283	0.475252
H132	H	1.641022	0.141985	0.347939
O133	O	1.100035	0.374328	0.283801
C134	C	0.993133	0.351165	0.314255
H135	H	0.983965	0.319627	0.404769
H136	H	0.960967	0.296545	0.244099
C137	C	0.943456	0.480981	0.208851
C138	C	0.932195	0.442254	0.320027
H139	H	0.905864	0.537167	0.212407
H140	H	1.015477	0.496585	0.188329
H141	H	0.916652	0.435456	0.150399
H142	H	0.959010	0.487774	0.378474
H143	H	0.860176	0.426659	0.340559
H144	H	0.571765	0.110147	0.000110
