data_functionalizedCrystal
_audit_creation_method	'MofGen! by Chris Wilmer'
_symmetry_space_group_name_H-M	'P1'
_symmetry_Int_Tables_number	1
_symmetry_cell_setting	triclinic
loop_
_symmetry_equiv_pos_as_xyz
  x,y,z
_cell_length_a	15.297475
_cell_length_b	12.759394
_cell_length_c	15.297021
_cell_angle_alpha	80.321545
_cell_angle_beta	88.412006
_cell_angle_gamma	80.308985
loop_
_atom_site_label
_atom_site_type_symbol
_atom_site_fract_x
_atom_site_fract_y
_atom_site_fract_z
Zn1	Zn	1.253144	-0.525031	-0.726760
Zn2	Zn	1.278533	-0.735316	-0.580292
Zn3	Zn	1.132114	-0.535188	-0.554983
Zn4	Zn	1.106681	-0.676202	-0.701425
O5	O	1.192618	-0.617934	-0.640865
O6	O	1.379083	-0.573415	-0.728526
O7	O	1.280379	-0.737759	-0.454351
O8	O	1.148187	-0.386821	-0.577781
O9	O	1.397736	-0.727910	-0.620916
O10	O	1.237107	-0.379359	-0.703985
O11	O	1.172806	-0.590726	-0.435757
O12	O	1.006168	-0.533405	-0.553215
O13	O	1.104841	-0.627158	-0.827369
O14	O	0.987483	-0.637007	-0.660804
O15	O	1.212446	-0.516094	-0.845983
O16	O	1.255718	-0.874494	-0.596350
O17	O	1.129460	-0.831063	-0.685345
C18	C	0.965044	-0.579894	-0.601515
C19	C	0.867684	-0.563641	-0.584701
C20	C	1.192605	-0.890899	-0.640868
C21	C	1.192674	-1.007680	-0.640912
C22	C	1.152974	-0.563899	-0.869349
C23	C	1.136081	-0.540872	-0.966716
C24	C	0.554485	-0.734106	-0.761037
C25	C	0.645961	-0.749385	-0.776832
C26	C	0.701396	-0.702950	-0.728801
C27	C	0.665347	-0.641234	-0.664972
C28	C	0.573863	-0.625960	-0.649170
C29	C	0.720774	-0.594804	-0.616934
C30	C	0.684725	-0.533088	-0.553105
C31	C	0.593250	-0.517816	-0.537307
C32	C	0.537815	-0.564252	-0.585338
C33	C	0.812257	-0.610078	-0.632735
C34	C	0.831635	-0.501932	-0.520869
C35	C	0.740160	-0.486653	-0.505074
C36	C	1.421080	-0.656123	-0.680370
C37	C	1.518437	-0.672397	-0.697205
C38	C	1.192652	-0.343904	-0.640886
C39	C	1.192666	-0.227128	-0.640895
C40	C	1.324145	-0.272334	-0.548232
C41	C	1.389891	-0.240076	-0.501909
C42	C	1.389900	-0.130354	-0.501920
C43	C	1.324155	-0.052886	-0.548256
C44	C	1.258410	-0.085144	-0.594579
C45	C	1.258409	-0.194871	-0.594565
C46	C	1.126929	-0.039938	-0.687235
C47	C	1.126921	-0.149659	-0.687231
C48	C	1.061184	0.037530	-0.733571
C49	C	0.995441	0.005273	-0.779900
C50	C	0.995435	-0.104456	-0.779889
C51	C	1.061176	-0.181917	-0.733554
C52	C	1.232157	-0.671692	-0.413279
C53	C	1.249221	-0.694451	-0.315942
C54	C	1.071640	-0.454040	-0.002733
C55	C	1.055599	-0.432661	-0.094184
C56	C	1.104003	-0.498107	-0.149628
C57	C	1.168450	-0.584935	-0.113612
C58	C	1.184487	-0.606322	-0.022151
C59	C	1.216851	-0.650388	-0.169046
C60	C	1.281298	-0.737217	-0.133030
C61	C	1.297333	-0.758598	-0.041578
C62	C	1.248929	-0.693153	0.013866
C63	C	1.200814	-0.629002	-0.260507
C64	C	1.313662	-0.781283	-0.279925
C65	C	1.329702	-0.802662	-0.188474
H66	H	0.841599	-0.660327	-0.684706
H67	H	1.443417	-0.303163	-0.464181
H68	H	1.324151	-0.361677	-0.548229
Br69	Br	0.825543	-0.723686	-0.750238
Br70	Br	0.906862	-0.438919	-0.455672
H71	H	0.675306	-0.799638	-0.828799
Br72	Br	0.544329	-0.434072	-0.450672
Br73	Br	0.691225	-0.402894	-0.418454
H74	H	1.061194	0.126870	-0.733572
H75	H	1.443433	-0.104092	-0.464196
H76	H	1.324163	0.036453	-0.548252
H77	H	1.003124	-0.361968	-0.123501
Br78	Br	0.906222	0.110409	-0.842772
H79	H	1.353079	-0.834572	-0.325068
H80	H	1.090940	-0.480693	-0.224091
H81	H	1.148342	-0.558303	-0.289822
H82	H	0.941898	-0.130712	-0.817612
H83	H	1.061181	-0.271261	-0.733544
Br84	Br	0.413662	-0.543506	-0.563912
H85	H	1.032231	-0.400769	0.042418
H86	H	0.509344	-0.771914	-0.800132
H87	H	1.261988	-0.710552	0.088333
Br88	Br	1.384785	-0.876449	0.007301
H89	H	1.382175	-0.873359	-0.159137
