data_functionalizedCrystal
_audit_creation_method	'MofGen! by Chris Wilmer'
_symmetry_space_group_name_H-M	'P1'
_symmetry_Int_Tables_number	1
_symmetry_cell_setting	triclinic
loop_
_symmetry_equiv_pos_as_xyz
  x,y,z
_cell_length_a	12.759401
_cell_length_b	12.594516
_cell_length_c	12.759393
_cell_angle_alpha	89.970274
_cell_angle_beta	89.980324
_cell_angle_gamma	90.012242
loop_
_atom_site_label
_atom_site_type_symbol
_atom_site_fract_x
_atom_site_fract_y
_atom_site_fract_z
Zn1	Zn	1.606287	-0.423678	-0.593990
Zn2	Zn	1.606187	-0.601694	-0.418313
Zn3	Zn	1.430586	-0.423732	-0.418329
Zn4	Zn	1.430587	-0.601617	-0.593954
O5	O	1.518412	-0.512680	-0.506147
O6	O	1.753295	-0.447303	-0.570695
O7	O	1.582851	-0.578142	-0.271294
O8	O	1.453935	-0.274779	-0.441653
O9	O	1.753222	-0.578091	-0.441625
O10	O	1.583022	-0.274740	-0.570711
O11	O	1.453838	-0.447394	-0.271306
O12	O	1.283565	-0.447318	-0.441618
O13	O	1.453936	-0.577958	-0.740980
O14	O	1.283566	-0.578010	-0.570649
O15	O	1.583023	-0.447228	-0.741007
O16	O	1.582852	-0.750630	-0.441590
O17	O	1.453839	-0.750573	-0.570633
C18	C	1.245445	-0.512662	-0.506132
C19	C	1.128668	-0.512680	-0.506150
C20	C	1.073845	-0.444702	-0.573460
C21	C	0.964121	-0.444713	-0.573467
C22	C	0.964053	-0.580689	-0.438851
C23	C	1.073775	-0.580672	-0.438840
C24	C	1.518363	-0.789221	-0.506128
C25	C	1.518439	-0.907527	-0.506156
C26	C	1.588690	-0.976772	-0.436044
C27	C	1.614368	-1.047465	-0.531937
C28	C	1.492893	-1.047632	-0.410324
C29	C	1.544165	-0.976662	-0.602098
C30	C	1.422645	-0.976822	-0.480421
C31	C	1.448286	-1.047484	-0.576380
C32	C	1.792445	-0.512700	-0.506162
C33	C	1.909222	-0.512708	-0.506169
C34	C	1.518491	-0.512578	-0.780180
C35	C	1.518524	-0.512535	-0.896957
C36	C	1.518489	-0.235059	-0.506188
C37	C	1.518522	-0.116754	-0.506206
C38	C	1.585744	-0.444452	-0.951834
C39	C	1.585762	-0.444407	-1.061559
C40	C	1.451336	-0.580534	-1.061518
C41	C	1.451314	-0.580574	-0.951796
C42	C	1.518394	-0.512705	-0.233179
C43	C	1.518564	-0.512449	-0.116403
H44	H	1.118413	-0.636029	-0.384022
H45	H	1.471251	-1.078805	-0.329260
C46	C	1.377407	-0.655372	-1.121851
N47	N	1.321722	-0.711740	-1.167293
C48	C	1.134224	-0.369900	-0.647495
N49	N	1.179698	-0.313552	-0.703256
C50	C	1.723855	-1.089398	-0.561377
N51	N	1.806323	-1.120979	-0.583543
H52	H	0.919489	-0.389356	-0.628276
C53	C	1.668962	-0.934812	-0.356024
N54	N	1.729425	-0.903202	-0.295760
C55	C	1.573537	-0.934730	-0.711643
N56	N	1.595665	-0.903144	-0.794149
C57	C	0.903660	-0.655483	-0.364820
N58	N	0.858173	-0.711822	-0.309061
C59	C	1.659712	-0.369513	-1.121919
N60	N	1.715415	-0.313100	-1.167382
C61	C	1.313192	-0.934852	-0.450933
N62	N	1.230753	-0.903235	-0.428710
C63	C	1.368073	-1.089165	-0.656598
N64	N	1.307659	-1.120559	-0.717021
C65	C	1.659668	-0.369598	-0.891516
N66	N	1.715346	-0.313211	-0.846086
C67	C	1.377359	-0.655470	-0.891427
N68	N	1.321656	-0.711877	-0.845957
