data_functionalizedCrystal
_audit_creation_method	'MofGen! by Chris Wilmer'
_symmetry_space_group_name_H-M	'P1'
_symmetry_Int_Tables_number	1
_symmetry_cell_setting	triclinic
loop_
_symmetry_equiv_pos_as_xyz
  x,y,z
_cell_length_a	12.645331
_cell_length_b	14.908520
_cell_length_c	14.908308
_cell_angle_alpha	83.639235
_cell_angle_beta	93.277876
_cell_angle_gamma	86.680290
loop_
_atom_site_label
_atom_site_type_symbol
_atom_site_fract_x
_atom_site_fract_y
_atom_site_fract_z
Zn1	Zn	1.558096	0.389900	-0.532580
Zn2	Zn	1.557976	0.532545	-0.389950
Zn3	Zn	1.391677	0.381200	-0.381236
Zn4	Zn	1.369928	0.541215	-0.541257
O5	O	1.469419	0.461215	-0.461256
O6	O	1.706425	0.408835	-0.513674
O7	O	1.544967	0.505200	-0.262134
O8	O	1.422905	0.255689	-0.394034
O9	O	1.706337	0.513636	-0.408885
O10	O	1.545172	0.262081	-0.505225
O11	O	1.422788	0.394007	-0.255731
O12	O	1.240447	0.402413	-0.402448
O13	O	1.385838	0.528412	-0.666767
O14	O	1.224468	0.519976	-0.520015
O15	O	1.524084	0.417242	-0.660391
O16	O	1.523879	0.660360	-0.417300
O17	O	1.385721	0.666730	-0.528465
C18	C	1.452454	0.696389	-0.474789
C19	C	1.445291	0.796999	-0.480609
C20	C	1.193993	0.461192	-0.461228
C21	C	1.076161	0.461205	-0.461239
C22	C	1.452548	0.474765	-0.697339
C23	C	1.445359	0.480539	-0.797943
C24	C	0.918609	0.386947	-0.387645
C25	C	1.041178	0.387111	-0.387349
C26	C	1.026664	0.555055	-0.440677
C27	C	0.904128	0.554643	-0.440181
C28	C	0.903865	0.442537	-0.555716
C29	C	1.026662	0.440376	-0.555061
C30	C	1.745921	0.461239	-0.461284
C31	C	1.863750	0.461249	-0.461296
C32	C	1.486478	0.225124	-0.447689
C33	C	1.493748	0.124517	-0.441908
C34	C	1.575827	0.979367	-0.375882
C35	C	1.569101	1.073899	-0.381348
C36	C	1.425118	1.080596	-0.497009
C37	C	1.431844	0.986064	-0.491544
C38	C	1.507200	0.935453	-0.430977
C39	C	1.513921	0.840919	-0.425508
C40	C	1.369944	0.847618	-0.541173
C41	C	1.363217	0.942150	-0.546639
C42	C	1.575803	0.375606	-0.980352
C43	C	1.569051	0.381028	-1.074879
C44	C	1.425100	0.496800	-1.081525
C45	C	1.431851	0.491378	-0.986998
C46	C	1.507207	0.430780	-0.936415
C47	C	1.513962	0.425363	-0.841887
C48	C	1.370007	0.541130	-0.848535
C49	C	1.363255	0.546552	-0.943062
C50	C	1.486290	0.447653	-0.226087
C51	C	1.493703	0.441624	-0.125469
H52	H	1.075184	0.317346	-0.399607
H53	H	1.363749	0.546135	-1.122726
Br54	Br	1.616182	0.772232	-0.343307
H55	H	1.363773	1.121820	-0.546325
H56	H	1.637179	0.938158	-0.326561
Br57	Br	1.096568	0.406979	-0.270539
H58	H	0.876173	0.375587	-0.575476
Br59	Br	0.843233	0.532848	-0.647068
H60	H	1.301867	0.983371	-0.595952
H61	H	1.048446	0.611656	-0.492878
Br62	Br	1.662246	1.133495	-0.306578
Br63	Br	1.616233	0.343128	-0.773238
Br64	Br	0.876060	0.270289	-0.407759
Br65	Br	0.873724	0.406544	-0.271518
Br66	Br	1.083544	0.583246	-0.327188
H67	H	1.314060	0.811853	-0.586033
H68	H	1.059394	0.371341	-0.570666
H69	H	1.301901	0.595887	-0.984259
Br70	Br	1.678081	0.293382	-0.911699
H71	H	1.314153	0.586059	-0.812752
Br72	Br	0.862300	0.582168	-0.325405
Br73	Br	0.842428	0.649546	-0.526182
H74	H	1.049988	0.490987	-0.612427
Br75	Br	1.662147	0.306143	-1.134505
