data_functionalizedCrystal
_audit_creation_method	'MofGen! by Chris Wilmer'
_symmetry_space_group_name_H-M	'P1'
_symmetry_Int_Tables_number	1
_symmetry_cell_setting	triclinic
loop_
_symmetry_equiv_pos_as_xyz
  x,y,z
_cell_length_a	19.805407
_cell_length_b	16.959454
_cell_length_c	19.805399
_cell_angle_alpha	90.022387
_cell_angle_beta	90.019573
_cell_angle_gamma	90.020075
loop_
_atom_site_label
_atom_site_type_symbol
_atom_site_fract_x
_atom_site_fract_y
_atom_site_fract_z
Zn1	Zn	1.034765	-0.314700	0.382744
Zn2	Zn	1.034693	-0.446882	0.269566
Zn3	Zn	0.921580	-0.314722	0.269569
Zn4	Zn	0.921556	-0.446840	0.382713
O5	O	0.978149	-0.380786	0.326148
O6	O	1.129472	-0.332243	0.367743
O7	O	1.019668	-0.429378	0.174850
O8	O	0.936635	-0.204108	0.284596
O9	O	1.129419	-0.429356	0.284591
O10	O	1.019792	-0.204092	0.367745
O11	O	0.936564	-0.332280	0.174852
O12	O	0.826860	-0.332239	0.284565
O13	O	0.936594	-0.429285	0.477434
O14	O	0.826843	-0.429306	0.367692
O15	O	1.019768	-0.332202	0.477457
O16	O	1.019645	-0.557488	0.284561
O17	O	0.936524	-0.557457	0.367690
C18	C	0.802293	-0.380771	0.326126
C19	C	0.727061	-0.380783	0.326133
C20	C	0.691725	-0.431402	0.369347
C21	C	0.621037	-0.431404	0.369356
C22	C	0.585685	-0.380790	0.326148
C23	C	0.621026	-0.330165	0.282932
C24	C	0.691713	-0.330160	0.282926
C25	C	0.335952	-0.330183	0.282954
C26	C	0.265260	-0.330193	0.282962
C27	C	0.265276	-0.431426	0.369384
C28	C	0.335963	-0.431421	0.369379
C29	C	0.371298	-0.380794	0.326166
C30	C	0.447946	-0.380792	0.326157
C31	C	0.509038	-0.380795	0.326153
C32	C	0.978092	-0.586152	0.326136
C33	C	0.978130	-0.674009	0.326154
C34	C	0.934930	-1.045498	0.369428
C35	C	1.021555	-1.045470	0.282937
C36	C	1.021532	-0.962925	0.282930
C37	C	0.978206	-0.921662	0.326173
C38	C	0.934904	-0.962945	0.369422
C39	C	1.064828	-0.921635	0.239677
C40	C	1.064806	-0.839085	0.239669
C41	C	1.021483	-0.797820	0.282915
C42	C	0.978180	-0.839108	0.326167
C43	C	0.934854	-0.797845	0.369409
C44	C	0.891553	-0.839132	0.412665
C45	C	0.891581	-0.921680	0.412669
C46	C	1.021455	-0.715272	0.282911
C47	C	0.934827	-0.715292	0.369403
C48	C	1.154691	-0.380802	0.326170
C49	C	1.229923	-0.380808	0.326180
C50	C	0.978187	-0.380736	0.502691
C51	C	0.978203	-0.380715	0.577923
C52	C	0.978224	-0.174618	0.326174
C53	C	0.978256	-0.086761	0.326186
C54	C	0.978150	-0.380779	0.150292
C55	C	0.978265	-0.380577	0.075060
C56	C	1.021513	-0.330161	0.613280
C57	C	1.021520	-0.330138	0.683968
C58	C	0.978220	-0.380674	0.719298
C59	C	0.934905	-0.431230	0.683936
C60	C	0.934895	-0.431248	0.613249
C61	C	0.934943	-0.431156	0.969010
C62	C	0.934958	-0.431135	1.039702
C63	C	1.021568	-0.330046	1.039729
C64	C	1.021558	-0.330065	0.969042
C65	C	0.978241	-0.380617	0.933686
C66	C	0.978233	-0.380641	0.857037
C67	C	0.978230	-0.380655	0.795946
H68	H	0.720503	-0.472621	0.404530
H69	H	0.592237	-0.288951	0.247754
O70	O	0.726116	-0.281102	0.240913
C71	C	0.766963	-0.326036	0.197118
H72	H	0.777546	-0.385973	0.220902
H73	H	0.816675	-0.293823	0.188093
H74	H	0.739699	-0.334644	0.146947
O75	O	1.106902	-0.798895	0.197751
C76	C	1.150592	-0.751106	0.236328
H77	H	1.126685	-0.738732	0.287598
H78	H	1.159664	-0.693064	0.208765
H79	H	1.200756	-0.782876	0.243814
O80	O	1.063682	-0.281081	0.934688
C81	C	1.107365	-0.326085	0.893781
H82	H	1.111544	-0.388333	0.915075
H83	H	1.159459	-0.297487	0.892982
H84	H	1.086419	-0.328827	0.840208
H85	H	1.056707	-0.681660	0.247691
O86	O	0.370237	-0.281090	0.240880
C87	C	0.352916	-0.298248	0.173397
H88	H	0.333476	-0.361394	0.169888
H89	H	0.399388	-0.291373	0.139962
H90	H	0.311881	-0.255853	0.155775
H91	H	0.899549	-0.681701	0.404619
H92	H	1.056775	-0.289012	0.584519
O93	O	0.849565	-0.799008	0.454741
C94	C	0.888063	-0.751181	0.498470
H95	H	0.941376	-0.776014	0.502705
H96	H	0.863554	-0.750223	0.550537
H97	H	0.890390	-0.688633	0.477530
H98	H	0.236479	-0.288972	0.247776
O99	O	0.892988	-0.480311	1.074051
C100	C	0.931510	-0.531347	1.114949
H101	H	0.984812	-0.536243	1.093653
H102	H	0.907005	-0.592173	1.115739
H103	H	0.933864	-0.506895	1.168526
O104	O	1.063657	-0.281009	0.718210
C105	C	1.101864	-0.236400	0.671869
H106	H	1.104187	-0.268791	0.621477
H107	H	1.155200	-0.227972	0.692304
H108	H	1.077104	-0.176365	0.664353
O109	O	0.586816	-0.480659	0.411348
C110	C	0.633176	-0.525324	0.449488
H111	H	0.683553	-0.528004	0.421757
H112	H	0.612743	-0.587618	0.456606
H113	H	0.640720	-0.496471	0.500941
H114	H	1.056836	-0.288881	1.068524
O115	O	0.849425	-0.961697	0.454647
C116	C	0.781968	-0.941603	0.439779
H117	H	0.780563	-0.881681	0.413756
H118	H	0.751587	-0.938780	0.488599
H119	H	0.759206	-0.988099	0.404960
H120	H	0.899682	-0.472330	0.940231
H121	H	0.899678	-1.079117	0.404647
H122	H	0.899647	-0.472373	0.712708
H123	H	0.364743	-0.472639	0.404561
H124	H	0.236498	-0.472646	0.404573
H125	H	1.100097	-0.955238	0.204466
H126	H	0.899621	-0.472406	0.584462
O127	O	1.063592	-1.085672	0.240971
C128	C	1.054302	-1.167385	0.250222
H129	H	1.032138	-1.178658	0.302449
H130	H	1.105001	-1.198737	0.245639
H131	H	1.018255	-1.190835	0.210061
