data_functionalizedCrystal
_audit_creation_method	'MofGen! by Chris Wilmer'
_symmetry_space_group_name_H-M	'P1'
_symmetry_Int_Tables_number	1
_symmetry_cell_setting	triclinic
loop_
_symmetry_equiv_pos_as_xyz
  x,y,z
_cell_length_a	6.817900
_cell_length_b	19.551823
_cell_length_c	27.923559
_cell_angle_alpha	97.020605
_cell_angle_beta	98.965071
_cell_angle_gamma	101.663376
loop_
_atom_site_label
_atom_site_type_symbol
_atom_site_fract_x
_atom_site_fract_y
_atom_site_fract_z
V1	V	-3.967611	-0.097670	-0.151497
O2	O	-3.965569	0.003671	-0.148380
O3	O	-3.910571	-0.192680	-0.150686
O4	O	-3.897502	-0.096617	-0.217468
O5	O	-3.978729	-0.093058	-0.081135
V6	V	-4.455172	-0.085496	-0.143054
O7	O	-4.220013	-0.124376	-0.170018
O8	O	-4.652968	-0.058790	-0.124534
O9	O	-4.289006	0.009514	-0.143866
O10	O	-4.574612	-0.186837	-0.146172
O11	O	-4.561452	-0.090108	-0.213416
O12	O	-4.302075	-0.086549	-0.077083
C13	C	-3.754173	-0.215827	-0.148354
C14	C	-3.788678	-0.293502	-0.148130
C15	C	-3.985855	-0.333563	-0.150451
C16	C	-4.018280	-0.406548	-0.150246
C17	C	-3.853509	-0.439466	-0.147709
C18	C	-3.656306	-0.399397	-0.145391
C19	C	-3.623890	-0.326415	-0.145601
C20	C	-3.750405	-0.545752	-0.116944
C21	C	-3.782826	-0.618732	-0.116731
C22	C	-3.953484	-0.664568	-0.147062
C23	C	-4.091748	-0.637414	-0.177602
C24	C	-4.059332	-0.564431	-0.177812
C25	C	-3.888639	-0.518603	-0.147481
C26	C	-4.185833	-0.783768	-0.149162
C27	C	-4.218252	-0.856755	-0.148959
C28	C	-3.856269	-0.849601	-0.144099
C29	C	-3.823859	-0.776617	-0.144307
C30	C	-3.988647	-0.743704	-0.146836
C31	C	-3.737501	-0.093288	-0.233541
C32	C	-3.761405	-0.093055	-0.287474
C33	C	-3.941788	-0.155730	-0.629007
C34	C	-4.031734	-0.154896	-0.831713
O35	O	-4.070591	-0.209248	-0.863946
N36	N	-4.011059	-0.090757	-0.849979
C37	C	-3.967908	-0.026821	-0.817565
O38	O	-3.952407	0.027753	-0.837752
C39	C	-3.877976	-0.027655	-0.614859
C40	C	-3.898634	-0.091799	-0.596596
C41	C	-3.962446	-0.219868	-0.610743
C42	C	-3.939949	-0.220076	-0.560069
C43	C	-3.896795	-0.156145	-0.527659
C44	C	-3.876138	-0.092006	-0.545922
C45	C	-3.834840	0.036279	-0.582446
C46	C	-3.812363	0.036065	-0.531767
C47	C	-3.833021	-0.028079	-0.513504
C48	C	-3.810488	-0.028283	-0.462838
N49	N	-3.831163	-0.092423	-0.444572
C50	C	-3.874316	-0.156354	-0.476983
C51	C	-4.015121	-0.026387	-0.923988
C52	C	-4.037600	-0.026178	-0.974665
C53	C	-4.101429	-0.154254	-0.988810
C54	C	-4.078935	-0.154462	-0.938132
C55	C	-4.035796	-0.090527	-0.905723
C56	C	-3.827068	-0.156784	-0.370563
C57	C	-3.804559	-0.156986	-0.319884
C58	C	-3.740742	-0.028911	-0.305744
C59	C	-3.763239	-0.028709	-0.356418
C60	C	-3.806411	-0.092651	-0.388827
O61	O	-3.771654	0.026040	-0.430577
O62	O	-3.889854	-0.210920	-0.456786
C63	C	-3.964285	-0.155522	-0.679680
C64	C	-3.943627	-0.091384	-0.697944
C65	C	-3.900473	-0.027453	-0.665534
C66	C	-3.966106	-0.091175	-0.748620
C67	C	-4.009260	-0.155106	-0.781030
C68	C	-4.029935	-0.219246	-0.762765
C69	C	-4.007439	-0.219453	-0.712091
C70	C	-3.879798	0.036687	-0.683799
C71	C	-3.902295	0.036889	-0.734474
C72	C	-3.945449	-0.027042	-0.766884
C73	C	-4.108746	0.032658	-0.146197
C74	C	-4.053478	0.110332	-0.146424
C75	C	-4.125419	-0.089880	-0.061008
C76	C	-4.080754	-0.090109	-0.007075
H77	H	-4.120044	-0.306771	-0.152513
F78	F	-4.029435	-0.287724	-0.692661
H79	H	-4.171910	-0.542326	-0.202679
F80	F	-4.147329	-0.222294	-1.023311
F81	F	-3.766477	0.104115	-0.497277
F82	F	-3.969144	0.041667	-0.889500
F83	F	-4.273388	-0.686190	-0.209885
H84	H	-4.320013	-0.756969	-0.151220
F85	F	-4.015571	0.042093	-0.994095
H86	H	-3.670250	-0.640835	-0.091861
H87	H	-3.463322	-0.293797	-0.143711
H88	H	-4.095758	-0.206694	-0.923267
F89	F	-3.568753	-0.496976	-0.084661
H90	H	-4.178851	-0.439172	-0.152135
F91	F	-4.008379	-0.287919	-0.645230
H92	H	-4.378823	-0.889372	-0.150852
H93	H	-3.705597	0.023140	-0.279346
F94	F	-3.680907	-0.884631	-0.141405
H95	H	-3.663295	-0.743998	-0.142414
F96	F	-3.812844	0.104551	-0.601871
H97	H	-3.821378	-0.209222	-0.305018
F98	F	-3.873013	-0.224839	-0.405049
H99	H	-3.522151	-0.426204	-0.143327
F100	F	-4.075865	-0.287286	-0.797267
H101	H	-3.956785	-0.272308	-0.545205
H102	H	-3.746428	0.023522	-0.371288
H103	H	-3.885454	0.089127	-0.749338
F104	F	-3.833816	0.104736	-0.649311
