data_functionalizedCrystal
_audit_creation_method	'MofGen! by Chris Wilmer'
_symmetry_space_group_name_H-M	'P1'
_symmetry_Int_Tables_number	1
_symmetry_cell_setting	triclinic
loop_
_symmetry_equiv_pos_as_xyz
  x,y,z
_cell_length_a	21.295419
_cell_length_b	16.120530
_cell_length_c	16.120297
_cell_angle_alpha	89.871860
_cell_angle_beta	92.884863
_cell_angle_gamma	92.902143
loop_
_atom_site_label
_atom_site_type_symbol
_atom_site_fract_x
_atom_site_fract_y
_atom_site_fract_z
Zn1	Zn	0.318928	1.247596	0.534655
Zn2	Zn	0.419142	1.254596	0.395626
Zn3	Zn	0.308290	1.115581	0.388570
Zn4	Zn	0.418562	1.108552	0.527595
O5	O	0.366231	1.181582	0.461611
O6	O	0.336916	1.364893	0.522120
O7	O	0.400228	1.242027	0.278323
O8	O	0.221613	1.133106	0.407950
O9	O	0.410543	1.370036	0.419976
O10	O	0.229428	1.230097	0.515278
O11	O	0.318786	1.139893	0.273139
O12	O	0.318224	0.998280	0.401104
O13	O	0.409555	1.121126	0.644898
O14	O	0.399240	0.993116	0.503245
O15	O	0.336354	1.223281	0.650085
O16	O	0.507154	1.235211	0.413130
O17	O	0.506728	1.127913	0.510087
C18	C	0.357515	0.965525	0.450644
C19	C	0.353802	0.873094	0.445971
C20	C	0.202041	1.181605	0.461615
C21	C	0.132074	1.181614	0.461616
C22	C	0.347010	0.703861	0.437448
C23	C	0.385500	0.660139	0.485836
C24	C	0.381721	0.565972	0.481093
C25	C	0.350788	0.798037	0.442189
C26	C	0.098990	1.125751	0.512092
C27	C	0.033248	1.125758	0.512104
C28	C	0.000592	1.181621	0.461625
C29	C	0.033684	1.237495	0.411146
C30	C	0.099425	1.237492	0.411141
N31	N	-0.105006	1.191675	0.389166
N32	N	-0.167457	1.191674	0.389172
C33	C	-0.197482	1.181636	0.461637
N34	N	-0.162697	1.171583	0.534096
N35	N	-0.100240	1.171581	0.534089
C36	C	-0.070693	1.181631	0.461625
C37	C	-0.301851	1.125777	0.512131
C38	C	-0.367593	1.125790	0.512144
C39	C	-0.367156	1.237523	0.411178
C40	C	-0.301415	1.237514	0.411172
C41	C	-0.268766	1.181637	0.461647
C42	C	0.529783	1.181580	0.461627
C43	C	0.599755	1.181654	0.461666
C44	C	0.374076	1.170638	0.678508
C45	C	0.377420	1.165975	0.770936
C46	C	0.374981	1.398482	0.472622
C47	C	0.378709	1.490911	0.477315
C48	C	0.358372	1.192530	0.245561
C49	C	0.354858	1.197355	0.153142
C50	C	0.383508	1.157430	0.940162
C51	C	0.348771	1.205897	0.983920
C52	C	0.352159	1.201142	1.078084
C53	C	0.380121	1.162183	0.845990
H54	H	0.421291	0.693429	0.530824
C55	C	0.298664	0.658893	0.376671
C56	C	0.248245	0.597331	0.409855
C57	C	0.199902	0.552350	0.349077
C58	C	0.201978	0.568931	0.255116
C59	C	0.252399	0.630497	0.221928
C60	C	0.300741	0.675478	0.282705
H61	H	0.246707	0.585053	0.479414
H62	H	0.162578	0.506775	0.373646
H63	H	0.166192	0.535633	0.210125
H64	H	0.253937	0.642774	0.152368
H65	H	0.338066	0.721053	0.258137
C66	C	0.134903	1.064295	0.567623
C67	C	0.098506	1.002849	0.623152
C68	C	0.134421	0.941396	0.678685
C69	C	0.206734	0.941388	0.678688
C70	C	0.243135	1.002837	0.623156
C71	C	0.207220	1.064290	0.567623
H72	H	0.044972	1.002852	0.623152
H73	H	0.107474	0.895908	0.719794
H74	H	0.233321	0.895897	0.719796
H75	H	0.296669	1.002834	0.623156
H76	H	0.234167	1.109778	0.526515
C77	C	-0.003157	1.064298	0.567623
C78	C	0.001824	0.970107	0.556019
C79	C	-0.034580	0.908647	0.611534
C80	C	-0.075965	0.941377	0.678652
C81	C	-0.080949	1.035572	0.690258
C82	C	-0.044545	1.097033	0.634744
H83	H	0.032462	0.945874	0.506332
H84	H	-0.030890	0.838916	0.602942
H85	H	-0.102914	0.895880	0.719747
H86	H	-0.111586	1.059806	0.739946
H87	H	-0.048234	1.166763	0.643336
H88	H	0.007092	1.282981	0.370046
C89	C	0.305159	1.266783	0.939002
C90	C	0.252175	1.233723	0.877418
C91	C	0.208567	1.294609	0.832496
C92	C	0.217941	1.388555	0.849159
C93	C	0.270927	1.421619	0.910747
C94	C	0.314536	1.360733	0.955668
H95	H	0.245233	1.164174	0.865080
H96	H	0.169343	1.270132	0.786905
H97	H	0.185660	1.433626	0.815906
H98	H	0.277869	1.491168	0.923084
H99	H	0.353759	1.385211	1.001259
C100	C	0.135821	1.298943	0.355611
C101	C	0.099907	1.360398	0.300087
C102	C	0.136304	1.421848	0.244554
C103	C	0.208617	1.421843	0.244546
C104	C	0.244535	1.360386	0.300072
C105	C	0.208138	1.298936	0.355605
H106	H	0.046373	1.360403	0.300091
H107	H	0.109715	1.467342	0.203450
H108	H	0.235561	1.467332	0.203438
H109	H	0.298069	1.360381	0.300068
H110	H	0.234727	1.253441	0.396709
C111	C	-0.265931	1.064321	0.567658
C112	C	-0.302326	1.002878	0.623194
C113	C	-0.266409	0.941422	0.678721
C114	C	-0.194097	0.941410	0.678713
C115	C	-0.157698	1.002856	0.623175
C116	C	-0.193615	1.064311	0.567648
H117	H	-0.355859	1.002885	0.623201
H118	H	-0.293354	0.895936	0.719834
H119	H	-0.167508	0.895917	0.719818
H120	H	-0.104164	1.002849	0.623168
H121	H	-0.166670	1.109797	0.526535
C122	C	-0.265020	1.298960	0.355637
C123	C	-0.223640	1.266218	0.288519
C124	C	-0.187246	1.327669	0.232983
C125	C	-0.192232	1.421862	0.244566
C126	C	-0.233614	1.454609	0.311688
C127	C	-0.270008	1.393157	0.367223
H128	H	-0.219948	1.196487	0.279942
H129	H	-0.156613	1.303428	0.183296
H130	H	-0.165291	1.467352	0.203456
H131	H	-0.237306	1.524340	0.320265
H132	H	-0.300641	1.417399	0.416911
H133	H	-0.394531	1.080301	0.553253
H134	H	-0.393744	1.283011	0.370081
H135	H	0.415791	1.112370	0.973417
