data_functionalizedCrystal
_audit_creation_method	'MofGen! by Chris Wilmer'
_symmetry_space_group_name_H-M	'P1'
_symmetry_Int_Tables_number	1
_symmetry_cell_setting	triclinic
loop_
_symmetry_equiv_pos_as_xyz
  x,y,z
_cell_length_a	23.532407
_cell_length_b	19.188930
_cell_length_c	17.666332
_cell_angle_alpha	90.011603
_cell_angle_beta	90.004018
_cell_angle_gamma	82.996730
loop_
_atom_site_label
_atom_site_type_symbol
_atom_site_fract_x
_atom_site_fract_y
_atom_site_fract_z
O1	O	-0.755443	-0.084758	-0.062862
O2	O	-0.255443	0.415242	0.437138
O3	O	-0.589606	-0.097021	-0.062886
O4	O	-0.089606	0.402979	0.437114
O5	O	-0.677310	0.010782	-0.062858
O6	O	-0.177310	0.510782	0.437142
O7	O	-0.667739	-0.192560	-0.062889
O8	O	-0.167739	0.307440	0.437111
O9	O	-0.677295	0.010787	0.063038
O10	O	-0.177295	0.510787	0.563038
O11	O	-0.589591	-0.097016	0.063011
O12	O	-0.089591	0.402984	0.563011
O13	O	-0.755428	-0.084752	0.063035
O14	O	-0.255428	0.415248	0.563035
Cu15	Cu	-0.672508	-0.090883	0.074518
Cu16	Cu	-0.172508	0.409117	0.574518
Cu17	Cu	-0.672526	-0.090890	-0.074369
Cu18	Cu	-0.172526	0.409110	0.425631
O19	O	-0.667724	-0.192555	0.063007
O20	O	-0.167724	0.307445	0.563007
C21	C	-0.568382	-0.096706	0.000060
C22	C	-0.068382	0.403294	0.500060
C23	C	-0.505163	-0.095767	0.000052
C24	C	-0.005163	0.404233	0.500052
C25	C	-0.676993	0.036794	0.000092
C26	C	-0.176993	0.536794	0.500092
C27	C	-0.676062	0.114296	0.000098
C28	C	-0.176062	0.614296	0.500098
C29	C	-0.776652	-0.085067	0.000087
C30	C	-0.276652	0.414933	0.500087
C31	C	-0.839871	-0.086006	0.000091
C32	C	-0.339871	0.413994	0.500091
C33	C	-0.106183	-0.153674	0.000077
C34	C	0.393817	0.346326	0.500077
C35	C	-0.046780	-0.152801	0.000082
C36	C	0.453220	0.347199	0.500082
O37	O	-0.010150	-0.206481	0.000101
O38	O	0.489850	0.293519	0.500101
N39	N	-0.024018	-0.088713	0.000090
N40	N	0.475982	0.411287	0.500090
C41	C	-0.060662	-0.025492	0.000102
C42	C	0.439338	0.474508	0.500102
O43	O	-0.035846	0.029100	0.000110
O44	O	0.464154	0.529100	0.500110
C45	C	-0.120062	-0.026365	0.000102
C46	C	0.379938	0.473635	0.500102
C47	C	-0.142821	-0.090458	0.000086
C48	C	0.357179	0.409542	0.500086
C49	C	-0.128942	-0.217761	0.000062
C50	C	0.371058	0.282239	0.500062
C51	C	-0.188340	-0.218633	0.000056
C52	C	0.311660	0.281367	0.500056
C53	C	-0.224979	-0.155417	0.000065
C54	C	0.275021	0.344583	0.500065
C55	C	-0.202219	-0.091330	0.000080
C56	C	0.297781	0.408670	0.500080
C57	C	-0.156705	0.036855	0.000119
C58	C	0.343295	0.536855	0.500119
C59	C	-0.216109	0.035976	0.000121
C60	C	0.283891	0.535976	0.500121
C61	C	-0.238868	-0.028116	0.000104
C62	C	0.261132	0.471884	0.500104
C63	C	-0.298256	-0.028986	0.000083
C64	C	0.201744	0.471014	0.500083
N65	N	-0.321018	-0.093075	0.000075
N66	N	0.178982	0.406925	0.500075
C67	C	-0.284379	-0.156290	0.000065
C68	C	0.215621	0.343710	0.500065
C69	C	0.064085	-0.023664	0.000102
C70	C	0.564085	0.476336	0.500102
C71	C	0.123485	-0.022790	0.000096
C72	C	0.623485	0.477210	0.500096
C73	C	0.137362	-0.150099	0.000077
C74	C	0.637362	0.349901	0.500077
C75	C	0.077961	-0.150972	0.000078
C76	C	0.577961	0.349028	0.500078
C77	C	0.041323	-0.087752	0.000093
C78	C	0.541323	0.412248	0.500093
C79	C	-0.409120	-0.158117	0.000052
C80	C	0.090880	0.341883	0.500052
C81	C	-0.468524	-0.158983	0.000043
C82	C	0.031476	0.341017	0.500043
C83	C	-0.482396	-0.031674	0.000065
C84	C	0.017604	0.468326	0.500065
C85	C	-0.422997	-0.030807	0.000070
C86	C	0.077003	0.469193	0.500070
C87	C	-0.386360	-0.094034	0.000066
C88	C	0.113640	0.405966	0.500066
O89	O	-0.334921	0.024666	0.000067
O90	O	0.165079	0.524666	0.500067
O91	O	-0.309203	-0.210874	0.000067
O92	O	0.190797	0.289126	0.500067
C93	C	-0.668041	-0.218568	0.000055
C94	C	-0.168041	0.281432	0.500055
C95	C	-0.668972	-0.296069	0.000044
C96	C	-0.168972	0.203931	0.500044
N97	N	-0.672499	-0.090878	0.179238
N98	N	-0.172499	0.409122	0.679238
C99	C	-0.727524	0.159384	0.000109
C100	C	-0.227524	0.659384	0.500109
C101	C	-0.726650	0.232205	0.000097
C102	C	-0.226650	0.732205	0.500097
C103	C	-0.674311	0.259935	0.000089
C104	C	-0.174311	0.759935	0.500089
C105	C	-0.622842	0.214837	0.000074
C106	C	-0.122842	0.714837	0.500074
C107	C	-0.623718	0.142017	0.000079
C108	C	-0.123718	0.642017	0.500079
N109	N	-0.634299	0.367814	0.042929
N110	N	-0.134299	0.867814	0.542929
N111	N	-0.633471	0.436990	0.042926
N112	N	-0.133471	0.936990	0.542926
C113	C	-0.671670	0.479335	0.000073
C114	C	-0.171670	0.979335	0.500073
N115	N	-0.710737	0.449892	-0.042766
N116	N	-0.210737	0.949892	0.457234
N117	N	-0.711567	0.380710	-0.042760
N118	N	-0.211567	0.880710	0.457240
C119	C	-0.673356	0.338894	0.000084
C120	C	-0.173356	0.838894	0.500084
C121	C	-0.722188	0.603384	0.000070
C122	C	-0.222188	1.103384	0.500070
C123	C	-0.721311	0.676206	0.000053
C124	C	-0.221311	1.176206	0.500053
C125	C	-0.617502	0.658836	0.000038
C126	C	-0.117502	1.158836	0.500038
C127	C	-0.618380	0.586016	0.000047
C128	C	-0.118380	1.086016	0.500047
C129	C	-0.670724	0.558295	0.000067
C130	C	-0.170724	1.058295	0.500067
N131	N	-0.672539	-0.090890	-0.179089
N132	N	-0.172539	0.409110	0.320911
C133	C	-0.711347	-0.043166	0.218859
C134	C	-0.211347	0.456834	0.718859
C135	C	-0.711351	-0.043163	0.298107
C136	C	-0.211351	0.456837	0.798107
C137	C	-0.672511	-0.090883	0.337730
C138	C	-0.172511	0.409117	0.837730
C139	C	-0.633656	-0.138599	0.298098
C140	C	-0.133656	0.361401	0.798098
C141	C	-0.633650	-0.138596	0.218852
C142	C	-0.133650	0.361404	0.718852
N143	N	-0.665108	-0.152714	0.462138
N144	N	-0.165108	0.347286	0.962138
N145	N	-0.665117	-0.152715	0.537419
N146	N	-0.165117	0.347285	1.037419
C147	C	-0.672526	-0.090893	0.576494
C148	C	-0.172526	0.409107	1.076494
N149	N	-0.679937	-0.029069	0.537444
N150	N	-0.179937	0.470931	1.037444
N151	N	-0.679931	-0.029070	0.462157
N152	N	-0.179931	0.470930	0.962157
C153	C	-0.672513	-0.090891	0.423659
C154	C	-0.172513	0.409109	0.923659
C155	C	-0.711380	-0.043174	0.702045
C156	C	-0.211380	0.456826	1.202045
C157	C	-0.711380	-0.043169	0.781294
C158	C	-0.211380	0.456831	1.281294
C159	C	-0.633688	-0.138611	0.781284
C160	C	-0.133688	0.361389	1.281284
C161	C	-0.633686	-0.138610	0.702036
C162	C	-0.133686	0.361390	1.202036
C163	C	-0.672535	-0.090891	0.662422
C164	C	-0.172535	0.409109	1.162422
H165	H	-0.379297	-0.209602	0.000051
H166	H	0.120703	0.290398	0.500051
C167	C	-0.590963	-0.191104	0.824861
C168	C	-0.090963	0.308896	1.324861
C169	C	-0.591005	-0.191153	0.912028
C170	C	-0.091005	0.308847	1.412028
C171	C	-0.548277	-0.243645	0.955610
C172	C	-0.048277	0.256355	1.455610
C173	C	-0.505507	-0.296087	0.912023
C174	C	-0.005507	0.203913	1.412023
C175	C	-0.505463	-0.296040	0.824851
C176	C	-0.005463	0.203960	1.324851
C177	C	-0.548191	-0.243548	0.781270
C178	C	-0.048191	0.256452	1.281270
H179	H	-0.622667	-0.152331	0.944297
H180	H	-0.122667	0.347669	1.444297
H181	H	-0.548310	-0.243680	1.020141
H182	H	-0.048310	0.256320	1.520141
H183	H	-0.473877	-0.334945	0.944285
H184	H	0.026123	0.165055	1.444285
H185	H	-0.473801	-0.334862	0.792582
H186	H	0.026199	0.165138	1.292582
H187	H	-0.548158	-0.243513	0.716739
H188	H	-0.048158	0.256487	1.216739
H189	H	-0.764810	0.580813	0.000083
H190	H	-0.264810	1.080813	0.500083
C191	C	-0.561770	0.536414	0.000049
C192	C	-0.061770	1.036414	0.500049
C193	C	-0.504196	0.566910	0.000042
C194	C	-0.004196	1.066910	0.500042
C195	C	-0.447583	0.517307	0.000043
C196	C	0.052417	1.017307	0.500043
C197	C	-0.448544	0.437209	0.000050
C198	C	0.051456	0.937209	0.500050
C199	C	-0.506120	0.406708	0.000057
C200	C	-0.006120	0.906708	0.500057
C201	C	-0.562733	0.456311	0.000056
C202	C	-0.062733	0.956311	0.500056
H203	H	-0.503483	0.626208	0.000037
H204	H	-0.003483	1.126208	0.500037
H205	H	-0.404962	0.539886	0.000038
H206	H	0.095038	1.039886	0.500038
H207	H	-0.406636	0.400490	0.000050
H208	H	0.093364	0.900490	0.500050
H209	H	-0.506833	0.347410	0.000062
H210	H	-0.006833	0.847410	0.500062
H211	H	-0.605354	0.433732	0.000061
H212	H	-0.105354	0.933732	0.500061
H213	H	-0.602054	-0.177464	0.669774
H214	H	-0.102054	0.322536	1.169774
H215	H	-0.602032	-0.177453	0.330363
H216	H	-0.102032	0.322547	0.830363
C217	C	-0.754108	0.009321	0.658464
C218	C	-0.254108	0.509321	1.158464
C219	C	-0.754108	0.009325	0.571297
C220	C	-0.254108	0.509325	1.071297
C221	C	-0.796836	0.061820	0.527720
C222	C	-0.296836	0.561820	1.027720
C223	C	-0.839563	0.114312	0.571310
C224	C	-0.339563	0.614312	1.071310
C225	C	-0.839564	0.114310	0.658482
C226	C	-0.339564	0.614310	1.158482
C227	C	-0.796836	0.061815	0.702060
C228	C	-0.296836	0.561815	1.202060
H229	H	-0.722478	-0.029534	0.539024
H230	H	-0.222478	0.470466	1.039024
H231	H	-0.796835	0.061822	0.463189
H232	H	-0.296835	0.561822	0.963189
H233	H	-0.871193	0.153172	0.539052
H234	H	-0.371193	0.653172	1.039052
H235	H	-0.871194	0.153169	0.690755
H236	H	-0.371194	0.653169	1.190755
H237	H	-0.796837	0.061813	0.766591
H238	H	-0.296837	0.561813	1.266591
H239	H	-0.743013	-0.004313	0.813555
H240	H	-0.243013	0.495687	1.313555
H241	H	-0.742979	-0.004310	0.186607
H242	H	-0.242979	0.495690	0.686607
H243	H	-0.768558	0.268923	0.000103
H244	H	-0.268558	0.768923	0.500103
H245	H	-0.487050	-0.211177	0.000029
H246	H	0.012950	0.288823	0.500029
H247	H	-0.206864	-0.270824	0.000042
H248	H	0.293136	0.229176	0.500042
H249	H	-0.099116	-0.269242	0.000057
H250	H	0.400884	0.230758	0.500057
C251	C	-0.565269	0.245336	0.000065
C252	C	-0.065269	0.745336	0.500065
C253	C	-0.550382	0.293021	0.065436
C254	C	-0.050382	0.793021	0.565436
C255	C	-0.492806	0.323520	0.065422
C256	C	0.007194	0.823520	0.565422
C257	C	-0.450118	0.306334	0.000037
C258	C	0.049882	0.806334	0.500037
C259	C	-0.465004	0.258647	-0.065338
C260	C	0.034996	0.758647	0.434662
C261	C	-0.522579	0.228148	-0.065324
C262	C	-0.022579	0.728148	0.434676
H263	H	-0.581983	0.305746	0.113842
H264	H	-0.081983	0.805746	0.613842
H265	H	-0.481786	0.358822	0.113817
H266	H	0.018214	0.858822	0.613817
H267	H	-0.407497	0.328911	0.000027
H268	H	0.092503	0.828911	0.500027
H269	H	-0.433402	0.245922	-0.113744
H270	H	0.066598	0.745922	0.386256
H271	H	-0.533599	0.192846	-0.113720
H272	H	-0.033599	0.692846	0.386280
H273	H	-0.574886	0.681413	0.000027
H274	H	-0.074886	1.181413	0.500027
C275	C	0.023785	0.045885	0.000105
C276	C	0.523785	0.545885	0.500105
C277	C	0.026236	0.098525	0.065484
C278	C	0.526236	0.598525	0.565484
C279	C	-0.014060	0.168072	0.065488
C280	C	0.485940	0.668072	0.565488
C281	C	-0.056806	0.184980	0.000114
C282	C	0.443194	0.684980	0.500114
C283	C	-0.059259	0.132338	-0.065270
C284	C	0.440741	0.632338	0.434730
C285	C	-0.018963	0.062790	-0.065274
C286	C	0.481037	0.562790	0.434726
H287	H	0.057880	0.086010	0.113882
H288	H	0.557880	0.586010	0.613882
H289	H	-0.012245	0.207041	0.113889
H290	H	0.487755	0.707041	0.613889
H291	H	-0.086636	0.236463	0.000117
H292	H	0.413364	0.736463	0.500117
H293	H	-0.090903	0.144852	-0.113668
H294	H	0.409097	0.644852	0.386332
H295	H	-0.020778	0.023822	-0.113675
H296	H	0.479222	0.523822	0.386325
H297	H	0.167204	-0.201573	0.000073
H298	H	0.667204	0.298427	0.500073
C299	C	0.052929	-0.221475	0.000067
C300	C	0.552929	0.278525	0.500067
C301	C	0.066831	-0.273864	0.065433
C302	C	0.566831	0.226136	0.565433
C303	C	0.041802	-0.344369	0.065424
C304	C	0.541802	0.155631	0.565424
C305	C	0.002872	-0.362485	0.000049
C306	C	0.502872	0.137515	0.500049
C307	C	-0.011032	-0.310095	-0.065323
C308	C	0.488968	0.189905	0.434677
C309	C	0.013996	-0.239589	-0.065314
C310	C	0.513996	0.260411	0.434686
H311	H	0.095651	-0.260454	0.113833
H312	H	0.595651	0.239546	0.613833
H313	H	0.052095	-0.383152	0.113817
H314	H	0.552095	0.116848	0.613817
H315	H	-0.015656	-0.414677	0.000042
H316	H	0.484344	0.085323	0.500042
H317	H	-0.039853	-0.323504	-0.113722
H318	H	0.460147	0.176496	0.386278
H319	H	0.003703	-0.200807	-0.113706
H320	H	0.503703	0.299193	0.386294
H321	H	0.142009	0.029401	0.000097
H322	H	0.642009	0.529401	0.500097
H323	H	-0.742986	-0.004309	0.330373
H324	H	-0.242986	0.495691	0.830373
H325	H	-0.138185	0.089046	0.000133
H326	H	0.361815	0.589046	0.500133
H327	H	-0.245938	0.087459	0.000134
H328	H	0.254062	0.587459	0.500134
H329	H	-0.404466	0.021383	0.000072
H330	H	0.095534	0.521383	0.500072
H331	H	-0.512238	0.019795	0.000070
H332	H	-0.012238	0.519795	0.500070
H333	H	-0.770147	0.136819	0.000123
H334	H	-0.270147	0.636819	0.500123
H335	H	-0.581810	0.105305	0.000070
H336	H	-0.081810	0.605305	0.500070
H337	H	-0.763220	0.712917	0.000058
H338	H	-0.263220	1.212917	0.500058
H339	H	-0.602015	-0.177450	0.186592
H340	H	-0.102015	0.322550	0.686592
