data_functionalizedCrystal
_audit_creation_method	'MofGen! by Chris Wilmer'
_symmetry_space_group_name_H-M	'P1'
_symmetry_Int_Tables_number	1
_symmetry_cell_setting	triclinic
loop_
_symmetry_equiv_pos_as_xyz
  x,y,z
_cell_length_a	19.077105
_cell_length_b	19.077068
_cell_length_c	17.077404
_cell_angle_alpha	87.715807
_cell_angle_beta	92.304871
_cell_angle_gamma	90.115316
loop_
_atom_site_label
_atom_site_type_symbol
_atom_site_fract_x
_atom_site_fract_y
_atom_site_fract_z
Zn1	Zn	1.062898	-0.323111	0.505866
Zn2	Zn	1.562898	0.176889	1.005866
Zn3	Zn	1.058108	-0.440587	0.379640
Zn4	Zn	1.558108	0.059413	0.879640
Zn5	Zn	0.945415	-0.318370	0.369144
Zn6	Zn	1.445415	0.181630	0.869144
Zn7	Zn	0.940633	-0.435852	0.505394
Zn8	Zn	1.440633	0.064148	1.005394
O9	O	1.001764	-0.379480	0.440011
O10	O	1.501764	0.120520	0.940011
O11	O	1.160594	-0.342660	0.493712
O12	O	1.660594	0.157340	0.993712
O13	O	1.043156	-0.424372	0.268400
O14	O	1.543156	0.075628	0.768400
O15	O	0.965006	-0.220668	0.383085
O16	O	1.465006	0.279332	0.883085
O17	O	1.157074	-0.428969	0.400974
O18	O	1.657074	0.071031	0.900974
O19	O	1.051320	-0.224151	0.483534
O20	O	1.551320	0.275849	0.983534
O21	O	0.960361	-0.334580	0.260689
O22	O	1.460361	0.165420	0.760689
O23	O	0.846450	-0.329989	0.382627
O24	O	1.346450	0.170011	0.882627
O25	O	0.956856	-0.420899	0.615304
O26	O	1.456856	0.079101	1.115304
O27	O	0.842937	-0.416303	0.482730
O28	O	1.342937	0.083697	0.982730
O29	O	1.046683	-0.338069	0.615650
O30	O	1.546683	0.161931	1.115650
O31	O	1.038519	-0.538290	0.400517
O32	O	1.538519	-0.038290	0.900517
O33	O	0.952211	-0.534811	0.492908
O34	O	1.452211	-0.034811	0.992908
C35	C	0.819198	-0.372118	0.431489
C36	C	1.319198	0.127882	0.931489
C37	C	0.741095	-0.368985	0.427863
C38	C	1.241095	0.131015	0.927863
C39	C	0.994345	-0.562048	0.447818
C40	C	1.494345	-0.062048	0.947818
C41	C	0.991236	-0.640153	0.451188
C42	C	1.491236	-0.140153	0.951188
C43	C	0.702588	-0.412520	0.478201
C44	C	1.202588	0.087480	0.978201
C45	C	0.629202	-0.409567	0.474797
C46	C	1.129202	0.090433	0.974797
C47	C	0.594324	-0.363083	0.421050
C48	C	1.094324	0.136917	0.921050
C49	C	0.632836	-0.319543	0.370710
C50	C	1.132836	0.180457	0.870710
C51	C	0.706220	-0.322493	0.374118
C52	C	1.206220	0.177507	0.874118
C53	C	0.375042	-0.349431	0.405280
C54	C	0.875042	0.150569	0.905280
C55	C	0.301652	-0.346487	0.401874
C56	C	0.801652	0.153513	0.901874
C57	C	0.298023	-0.436510	0.505963
C58	C	0.798023	0.063490	1.005963
C59	C	0.371409	-0.439459	0.509363
C60	C	0.871409	0.060541	1.009363
C61	C	0.409915	-0.395917	0.459025
C62	C	0.909915	0.104083	0.959025
N63	N	0.519312	-0.360065	0.417568
N64	N	1.019312	0.139935	0.917568
N65	N	0.484926	-0.398931	0.462512
N66	N	0.984926	0.101069	0.962512
C67	C	1.034746	-0.678637	0.404711
C68	C	1.534746	-0.178637	0.904711
C69	C	1.031825	-0.752026	0.407885
C70	C	1.531825	-0.252026	0.907885
C71	C	0.985391	-0.786929	0.457532
C72	C	1.485391	-0.286929	0.957532
C73	C	0.941879	-0.748441	0.504014
C74	C	1.441879	-0.248441	1.004014
C75	C	0.944803	-0.675053	0.500843
C76	C	1.444803	-0.175053	1.000843
C77	C	0.971825	-1.006222	0.472170
C78	C	1.471825	-0.506222	0.972170
C79	C	0.968902	-1.079614	0.475335
C80	C	1.468902	-0.579614	0.975335
C81	C	1.058850	-1.083194	0.379207
C82	C	1.558850	-0.583194	0.879207
C83	C	1.061767	-1.009805	0.376038
C84	C	1.561767	-0.509805	0.876038
C85	C	1.018258	-0.971323	0.422523
C86	C	1.518258	-0.471323	0.922523
N87	N	0.982403	-0.861944	0.460775
N88	N	1.482403	-0.361944	0.960775
N89	N	1.021250	-0.896310	0.419283
N90	N	1.521250	-0.396310	0.919283
C91	C	1.185043	-0.386872	0.448566
C92	C	1.685043	0.113128	0.948566
C93	C	1.263145	-0.390021	0.452212
C94	C	1.763145	0.109979	0.952212
C95	C	1.001770	-0.379485	0.644756
C96	C	1.501770	0.120515	1.144756
C97	C	1.001773	-0.379487	0.732006
C98	C	1.501773	0.120513	1.232006
C99	C	1.009231	-0.196201	0.432191
C100	C	1.509231	0.303799	0.932191
C101	C	1.012413	-0.118098	0.428859
C102	C	1.512413	0.381902	0.928859
C103	C	1.048540	-0.336364	0.773177
C104	C	1.548540	0.163636	1.273177
C105	C	1.048535	-0.336363	0.855158
C106	C	1.548535	0.163637	1.355158
C107	C	1.001764	-0.379489	0.895965
C108	C	1.501764	0.120511	1.395965
C109	C	0.954992	-0.422613	0.854787
C110	C	1.454992	0.077387	1.354787
C111	C	0.954995	-0.422610	0.772808
C112	C	1.454995	0.077390	1.272808
C113	C	0.954990	-0.422618	1.025657
C114	C	1.454990	0.077382	1.525657
C115	C	0.954988	-0.422622	1.107642
C116	C	1.454988	0.077378	1.607642
C117	C	1.048530	-0.336370	1.108007
C118	C	1.548530	0.163630	1.608007
C119	C	1.048533	-0.336367	1.026028
C120	C	1.548533	0.163633	1.526028
C121	C	1.001761	-0.379493	0.984856
C122	C	1.501761	0.120507	1.484856
C123	C	1.001753	-0.379494	1.236063
C124	C	1.501753	0.120506	1.736063
C125	C	1.001755	-0.379499	1.148814
C126	C	1.501755	0.120501	1.648814
H127	H	0.730980	-0.450375	0.521965
H128	H	1.230980	0.049625	1.021965
H129	H	0.266664	-0.471959	0.546946
H130	H	0.766664	0.028041	1.046946
Br131	Br	0.891507	-0.481143	1.163022
Br132	Br	1.391507	0.018857	1.663022
H133	H	1.086628	-0.301248	0.739958
H134	H	1.586628	0.198752	1.239958
Br135	Br	1.097761	-0.631275	0.337322
Br136	Br	1.597761	-0.131275	0.837322
H137	H	0.597853	-0.445019	0.515787
H138	H	1.097853	0.054981	1.015787
Br139	Br	0.418739	-0.502551	0.582303
Br140	Br	0.918739	-0.002551	1.082303
Br141	Br	0.254317	-0.283404	0.328919
Br142	Br	0.754317	0.216596	0.828919
H143	H	1.099578	-0.981388	0.335611
H144	H	1.599578	-0.481388	0.835611
H145	H	1.086612	-0.301255	1.141533
H146	H	1.586612	0.198745	1.641533
H147	H	1.094274	-1.114534	0.341363
H148	H	1.594274	-0.614534	0.841363
Br149	Br	0.878866	-0.795809	0.571400
Br150	Br	1.378866	-0.295809	1.071400
Br151	Br	0.427290	-0.290334	0.336968
Br152	Br	0.927290	0.209666	0.836968
Br153	Br	0.912777	-0.954005	0.535258
Br154	Br	1.412777	-0.454005	1.035258
Br155	Br	1.112039	-0.277871	0.911034
Br156	Br	1.612039	0.222129	1.411034
H157	H	0.931098	-1.108031	0.515778
H158	H	1.431098	-0.608031	1.015778
H159	H	0.604432	-0.281691	0.326951
H160	H	1.104432	0.218309	0.826951
H161	H	0.909374	-0.643721	0.538691
H162	H	1.409374	-0.143721	1.038691
H163	H	0.737572	-0.287038	0.333131
H164	H	1.237572	0.212962	0.833131
H165	H	0.916893	-0.457724	0.992136
H166	H	1.416893	0.042276	1.492136
H167	H	1.086621	-0.301255	0.992805
H168	H	1.586621	0.198745	1.492805
H169	H	0.916908	-0.457724	0.888018
H170	H	1.416908	0.042276	1.388018
Br171	Br	1.090882	-0.804251	0.344811
Br172	Br	1.590882	-0.304251	0.844811
H173	H	0.916905	-0.457718	0.739286
H174	H	1.416905	0.042282	1.239286
