data_functionalizedCrystal
_audit_creation_method	'MofGen! by Chris Wilmer'
_symmetry_space_group_name_H-M	'P1'
_symmetry_Int_Tables_number	1
_symmetry_cell_setting	triclinic
loop_
_symmetry_equiv_pos_as_xyz
  x,y,z
_cell_length_a	13.897448
_cell_length_b	12.759401
_cell_length_c	13.897441
_cell_angle_alpha	90.020302
_cell_angle_beta	89.969401
_cell_angle_gamma	89.986705
loop_
_atom_site_label
_atom_site_type_symbol
_atom_site_fract_x
_atom_site_fract_y
_atom_site_fract_z
Zn1	Zn	-0.384097	-1.606236	-0.545370
Zn2	Zn	0.115903	-1.106236	-0.045370
Zn3	Zn	-0.545419	-1.606120	-0.384071
Zn4	Zn	-0.045419	-1.106120	0.115929
Zn5	Zn	-0.384127	-1.430537	-0.384090
Zn6	Zn	0.115873	-0.930537	0.115910
Zn7	Zn	-0.545340	-1.430517	-0.545325
Zn8	Zn	-0.045340	-0.930517	-0.045325
O9	O	-0.464746	-1.518352	-0.464714
O10	O	0.035254	-1.018352	0.035286
O11	O	-0.405518	-1.753241	-0.523985
O12	O	0.094482	-1.253241	-0.023985
O13	O	-0.524069	-1.582789	-0.249092
O14	O	-0.024069	-1.082789	0.250908
O15	O	-0.249142	-1.453900	-0.405510
O16	O	0.250858	-0.953900	0.094490
O17	O	-0.524040	-1.753156	-0.405479
O18	O	-0.024040	-1.253156	0.094521
O19	O	-0.249120	-1.582985	-0.524002
O20	O	0.250880	-1.082985	-0.024002
O21	O	-0.405569	-1.453788	-0.249105
O22	O	0.094431	-0.953788	0.250895
O23	O	-0.405492	-1.283513	-0.405467
O24	O	0.094508	-0.783513	0.094533
O25	O	-0.523905	-1.453866	-0.680313
O26	O	-0.023905	-0.953866	-0.180313
O27	O	-0.523934	-1.283499	-0.523926
O28	O	-0.023934	-0.783499	-0.023926
O29	O	-0.405441	-1.582966	-0.680346
O30	O	0.094559	-1.082966	-0.180346
O31	O	-0.680390	-1.582769	-0.405436
O32	O	-0.180390	-1.082769	0.094564
O33	O	-0.680332	-1.453755	-0.523908
O34	O	-0.180332	-0.953755	-0.023908
C35	C	-0.464708	-1.245385	-0.464694
C36	C	0.035292	-0.745385	0.035306
C37	C	-0.464715	-1.128608	-0.464708
C38	C	0.035285	-0.628608	0.035292
C39	C	-0.403125	-0.964054	-0.526512
C40	C	0.096875	-0.464054	-0.026512
C41	C	-0.403112	-1.073778	-0.526508
C42	C	0.096888	-0.573778	-0.026508
C43	C	-0.526342	-1.073709	-0.402915
C44	C	-0.026342	-0.573709	0.097085
C45	C	-0.526359	-0.963987	-0.402925
C46	C	-0.026359	-0.463987	0.097075
C47	C	-0.715360	-1.518276	-0.464686
C48	C	-0.215360	-1.018276	0.035314
C49	C	-0.822574	-1.518339	-0.464706
C50	C	-0.322574	-1.018339	0.035294
C51	C	-1.018869	-1.518449	-0.464767
C52	C	-0.518869	-1.018449	0.035233
C53	C	-0.909637	-1.518385	-0.464736
C54	C	-0.409637	-1.018385	0.035264
C55	C	-0.213153	-1.518458	-0.464763
C56	C	0.286847	-1.018458	0.035237
C57	C	-0.105939	-1.518503	-0.464784
C58	C	0.394061	-1.018503	0.035216
C59	C	-0.464661	-1.518427	-0.716307
C60	C	0.035339	-1.018427	-0.216307
C61	C	-0.464624	-1.518459	-0.823521
C62	C	0.035376	-1.018459	-0.323521
C63	C	-0.464770	-0.792386	-0.464729
C64	C	0.035230	-0.292386	0.035271
C65	C	-0.464745	-0.909162	-0.464722
C66	C	0.035255	-0.409162	0.035278
C67	C	-0.464559	-1.518487	-1.019816
C68	C	0.035441	-1.018487	-0.519816
C69	C	-0.464598	-1.518468	-0.910584
C70	C	0.035402	-1.018468	-0.410584
C71	C	-0.464761	-1.518339	-0.214100
C72	C	0.035239	-1.018339	0.285900
C73	C	-0.464526	-1.518510	-0.106886
C74	C	0.035474	-1.018510	0.393114
H75	H	-0.576542	-0.919293	-0.352607
H76	H	-0.076542	-0.419293	0.147393
O77	O	-0.592778	-1.132845	-0.336251
O78	O	-0.092778	-0.632845	0.163749
H79	H	-0.641894	-1.182864	-0.379327
H80	H	-0.141894	-0.682864	0.120673
O81	O	-0.336647	-1.132978	-0.593155
O82	O	0.163353	-0.632978	-0.093155
H83	H	-0.346991	-1.218487	-0.582777
H84	H	0.153009	-0.718487	-0.082777
O85	O	-0.336683	-0.904916	-0.593169
O86	O	0.163317	-0.404916	-0.093169
H87	H	-0.293840	-0.961525	-0.636141
H88	H	0.206160	-0.461525	-0.136141
