data_functionalizedCrystal
_audit_creation_method	'MofGen! by Chris Wilmer'
_symmetry_space_group_name_H-M	'P1'
_symmetry_Int_Tables_number	1
_symmetry_cell_setting	triclinic
loop_
_symmetry_equiv_pos_as_xyz
  x,y,z
_cell_length_a	25.639243
_cell_length_b	16.625545
_cell_length_c	16.625539
_cell_angle_alpha	89.974232
_cell_angle_beta	90.023150
_cell_angle_gamma	89.970326
loop_
_atom_site_label
_atom_site_type_symbol
_atom_site_fract_x
_atom_site_fract_y
_atom_site_fract_z
Zn1	Zn	0.799305	0.320942	0.455979
Zn2	Zn	1.299305	0.820942	0.955979
Zn3	Zn	0.799235	0.455785	0.321152
Zn4	Zn	1.299235	0.955785	0.821152
Zn5	Zn	0.711870	0.320976	0.321154
Zn6	Zn	1.211870	0.820976	0.821154
Zn7	Zn	0.711844	0.455742	0.455936
Zn8	Zn	1.211844	0.955742	0.955936
O9	O	0.755564	0.388361	0.388555
O10	O	1.255564	0.888361	0.888555
O11	O	0.872461	0.338832	0.438112
O12	O	1.372461	0.838832	0.938112
O13	O	0.787628	0.437934	0.208320
O14	O	1.287628	0.937934	0.708320
O15	O	0.723509	0.208139	0.339057
O16	O	1.223509	0.708139	0.839057
O17	O	0.872410	0.437901	0.339055
O18	O	1.372410	0.937901	0.839055
O19	O	0.787746	0.208114	0.438113
O20	O	1.287746	0.708114	0.938113
O21	O	0.723441	0.338891	0.208321
O22	O	1.223441	0.838891	0.708321
O23	O	0.638702	0.338850	0.339015
O24	O	1.138702	0.838850	0.839015
O25	O	0.723464	0.437828	0.568774
O26	O	1.223464	0.937828	1.068774
O27	O	0.638682	0.437862	0.438039
O28	O	1.138682	0.937862	0.938039
O29	O	0.787721	0.338791	0.568806
O30	O	1.287721	0.838791	1.068806
O31	O	0.787603	0.568611	0.339013
O32	O	1.287603	1.068611	0.839013
O33	O	0.723397	0.568580	0.438038
O34	O	1.223397	1.068580	0.938038
C35	C	0.619721	0.388356	0.388523
C36	C	1.119721	0.888356	0.888523
C37	C	0.561607	0.388373	0.388529
C38	C	1.061607	0.888373	0.888529
C39	C	0.201265	0.336857	0.440220
C40	C	0.701265	0.836857	0.940220
C41	C	0.146661	0.336856	0.440225
C42	C	0.646661	0.836856	0.940225
O43	O	0.118442	0.293041	0.484135
O44	O	0.618442	0.793041	0.984135
N45	N	0.119325	0.388359	0.388577
N46	N	0.619325	0.888359	0.888577
C47	C	0.146596	0.439859	0.336916
C48	C	0.646596	0.939859	0.836916
O49	O	0.118330	0.483666	0.292985
O50	O	0.618330	0.983666	0.792985
C51	C	0.201199	0.439855	0.336907
C52	C	0.701199	0.939855	0.836907
C53	C	0.228532	0.388355	0.388564
C54	C	0.728532	0.888355	0.888564
C55	C	0.228598	0.285361	0.491872
C56	C	0.728598	0.785361	0.991872
C57	C	0.283199	0.285363	0.491868
C58	C	0.783199	0.785363	0.991868
C59	C	0.310466	0.336861	0.440212
C60	C	0.810466	0.836861	0.940212
C61	C	0.283133	0.388357	0.388560
C62	C	0.783133	0.888357	0.888560
C63	C	0.228469	0.491351	0.285242
C64	C	0.728469	0.991351	0.785242
C65	C	0.283076	0.491343	0.285237
C66	C	0.783076	0.991343	0.785237
C67	C	0.310409	0.439843	0.336894
C68	C	0.810409	0.939843	0.836894
C69	C	0.365000	0.439858	0.336900
C70	C	0.865000	0.939858	0.836900
N71	N	0.392337	0.388355	0.388547
N72	N	0.892337	0.888355	0.888547
C73	C	0.365069	0.336857	0.440203
C74	C	0.865069	0.836857	0.940203
C75	C	0.031925	0.439863	0.336936
C76	C	0.531925	0.939863	0.836936
C77	C	-0.022677	0.439872	0.336948
C78	C	0.477323	0.939872	0.836948
C79	C	-0.022609	0.336867	0.440257
C80	C	0.477391	0.836867	0.940257
C81	C	0.031995	0.336863	0.440248
C82	C	0.531995	0.836863	0.940248
C83	C	0.059261	0.388361	0.388584
C84	C	0.559261	0.888361	0.888584
C85	C	0.479734	0.336866	0.440191
C86	C	0.979734	0.836866	0.940191
C87	C	0.534340	0.336874	0.440185
C88	C	1.034340	0.836874	0.940185
C89	C	0.534266	0.439875	0.336874
C90	C	1.034266	0.939875	0.836874
C91	C	0.479666	0.439870	0.336883
C92	C	0.979666	0.939870	0.836883
C93	C	0.452401	0.388358	0.388544
C94	C	0.952401	0.888358	0.888544
O95	O	0.393254	0.483649	0.293010
O96	O	0.893254	0.983649	0.793010
O97	O	0.393342	0.293051	0.484119
O98	O	0.893342	0.793051	0.984119
C99	C	0.755504	0.597852	0.388538
C100	C	1.255504	1.097852	0.888538
C101	C	0.755526	0.687473	0.388558
C102	C	1.255526	1.187473	0.888558
C103	C	0.755545	0.760256	0.388577
C104	C	1.255545	1.260256	0.888577
C105	C	0.755574	0.851564	0.388599
C106	C	1.255574	1.351564	0.888599
C107	C	0.755600	0.924340	0.388612
C108	C	1.255600	1.424340	0.888612
C109	C	0.755628	1.015655	0.388632
C110	C	1.255628	1.515655	0.888632
C111	C	0.891937	0.388367	0.388588
C112	C	1.391937	0.888367	0.888588
C113	C	0.950051	0.388370	0.388602
C114	C	1.450051	0.888370	0.888602
C115	C	0.755598	0.388301	0.598864
C116	C	1.255598	0.888301	1.098864
C117	C	0.755612	0.388276	0.688485
C118	C	1.255612	0.888276	1.188485
C119	C	0.755634	1.178052	0.388600
C120	C	1.255634	1.678052	0.888600
C121	C	0.755654	1.088431	0.388645
C122	C	1.255654	1.588431	0.888645
C123	C	0.755560	0.388363	0.179064
C124	C	1.255560	0.888363	0.679064
C125	C	0.755647	0.388161	0.089444
C126	C	1.255647	0.888161	0.589444
C127	C	0.755636	0.388185	1.016661
C128	C	1.255636	0.888185	1.516661
C129	C	0.755628	0.388213	0.925353
C130	C	1.255628	0.888213	1.425353
C131	C	0.755624	0.388231	0.852576
C132	C	1.255624	0.888231	1.352576
C133	C	0.755616	0.388257	0.761262
C134	C	1.255616	0.888257	1.261262
H135	H	-0.044819	0.294932	0.482316
H136	H	0.455181	0.794932	0.982316
H137	H	0.556477	0.481806	0.294818
H138	H	1.056477	0.981806	0.794818
Cl139	Cl	0.568698	0.272129	0.505132
Cl140	Cl	1.068698	0.772129	1.005132
H141	H	0.054246	0.294926	0.482310
H142	H	0.554246	0.794926	0.982310
H143	H	0.305449	0.243425	0.533931
H144	H	0.805449	0.743425	1.033931
H145	H	0.206403	0.243420	0.533937
H146	H	0.706403	0.743420	1.033937
H147	H	-0.044928	0.481817	0.294893
H148	H	0.455072	0.981817	0.794893
Cl149	Cl	0.066197	0.504614	0.271985
Cl150	Cl	0.566197	1.004614	0.771985
Cl151	Cl	0.317350	0.556088	0.220285
Cl152	Cl	0.817350	1.056088	0.720285
Cl153	Cl	0.194120	0.556082	0.220281
Cl154	Cl	0.694120	1.056082	0.720281
H155	H	0.457542	0.294918	0.482257
H156	H	0.957542	0.794918	0.982257
H157	H	0.457410	0.481815	0.294829
H158	H	0.957410	0.981815	0.794829
