data_functionalizedCrystal
_audit_creation_method	'MofGen! by Chris Wilmer'
_symmetry_space_group_name_H-M	'P1'
_symmetry_Int_Tables_number	1
_symmetry_cell_setting	triclinic
loop_
_symmetry_equiv_pos_as_xyz
  x,y,z
_cell_length_a	6.817900
_cell_length_b	11.353964
_cell_length_c	10.773894
_cell_angle_alpha	107.082423
_cell_angle_beta	96.645922
_cell_angle_gamma	107.526751
loop_
_atom_site_label
_atom_site_type_symbol
_atom_site_fract_x
_atom_site_fract_y
_atom_site_fract_z
V1	V	-3.980486	-0.175628	-0.427092
O2	O	-3.935538	0.013371	-0.378636
O3	O	-3.964388	-0.352984	-0.462954
O4	O	-3.897273	-0.170763	-0.595667
O5	O	-4.003117	-0.170112	-0.245005
V6	V	-4.464440	-0.153278	-0.400601
O7	O	-4.240801	-0.224657	-0.485201
O8	O	-4.654323	-0.104249	-0.342492
O9	O	-4.257332	0.024078	-0.364739
O10	O	-4.626785	-0.342277	-0.449057
O11	O	-4.559206	-0.158794	-0.582688
O12	O	-4.324446	-0.158143	-0.232026
C13	C	-3.818373	-0.396287	-0.466224
C14	C	-3.886265	-0.541264	-0.496669
C15	C	-3.967232	-0.739375	-0.429575
C16	C	-3.897064	-0.589534	-0.398110
C17	C	-3.732761	-0.163845	-0.635510
C18	C	-3.746222	-0.161041	-0.773576
C19	C	-3.925182	-0.165901	-0.842494
C20	C	-3.939099	-0.163002	-0.985193
C21	C	-4.066691	0.067374	-0.361467
C22	C	-3.978035	0.212350	-0.331030
C23	C	-4.152303	-0.165066	-0.192177
C24	C	-4.118079	-0.167863	-0.054108
H25	H	-3.935346	-0.718050	-0.223369
N26	N	-4.114490	-0.174234	-0.780723
H27	H	-4.077710	-0.175116	-0.687537
H28	H	-4.235704	-0.257647	-0.836439
N29	N	-3.749763	-0.154636	-1.046947
H30	H	-3.786539	-0.153749	-1.140131
H31	H	-3.707506	-0.233351	-1.050676
H32	H	-4.261008	-0.174175	-1.007476
H33	H	-3.928963	-0.610859	-0.604339
N34	N	-4.023797	-0.831573	-0.572182
H35	H	-3.897893	-0.811011	-0.613634
H36	H	-4.145545	-0.819894	-0.623927
N37	N	-3.556887	-0.152692	-0.835321
H38	H	-3.514638	-0.070255	-0.859088
H39	H	-3.593739	-0.232440	-0.918484
H40	H	-3.854377	-0.519938	-0.290442
