data_functionalizedCrystal
_audit_creation_method	'MofGen! by Chris Wilmer'
_symmetry_space_group_name_H-M	'P1'
_symmetry_Int_Tables_number	1
_symmetry_cell_setting	triclinic
loop_
_symmetry_equiv_pos_as_xyz
  x,y,z
_cell_length_a	14.908571
_cell_length_b	14.908178
_cell_length_c	14.908308
_cell_angle_alpha	90.221621
_cell_angle_beta	89.824947
_cell_angle_gamma	89.820760
loop_
_atom_site_label
_atom_site_type_symbol
_atom_site_fract_x
_atom_site_fract_y
_atom_site_fract_z
Zn1	Zn	1.319970	-0.467728	0.559107
Zn2	Zn	1.320875	-0.609493	0.400117
Zn3	Zn	1.179218	-0.450513	0.401153
Zn4	Zn	1.161960	-0.608428	0.541833
O5	O	1.245506	-0.534041	0.475552
O6	O	1.445502	-0.494184	0.544812
O7	O	1.309684	-0.581645	0.274841
O8	O	1.204733	-0.327380	0.429768
O9	O	1.446167	-0.598338	0.428003
O10	O	1.308143	-0.340028	0.545817
O11	O	1.205610	-0.464843	0.275602
O12	O	1.051517	-0.463811	0.413019
O13	O	1.175320	-0.596523	0.669538
O14	O	1.038838	-0.579830	0.516376
O15	O	1.291409	-0.493151	0.682229
O16	O	1.292951	-0.734769	0.411253
O17	O	1.176197	-0.733987	0.515371
C18	C	1.012659	-0.519838	0.462936
C19	C	0.913044	-0.513784	0.457558
C20	C	0.712702	-0.623390	0.554915
C21	C	0.619104	-0.617705	0.549865
C22	C	0.632249	-0.496726	0.442415
C23	C	0.725847	-0.502411	0.447465
C24	C	0.766070	-0.565746	0.503715
C25	C	0.859669	-0.571434	0.508760
C26	C	0.872812	-0.450452	0.401315
C27	C	0.779214	-0.444767	0.396265
C28	C	1.232822	-0.766900	0.461346
C29	C	1.227476	-0.866524	0.455303
C30	C	1.325018	-1.066751	0.564907
C31	C	1.319998	-1.160358	0.559232
C32	C	1.212412	-1.147346	0.438283
C33	C	1.217432	-1.053739	0.443958
C34	C	1.273738	-1.013445	0.507271
C35	C	1.278762	-0.919837	0.512941
C36	C	1.171172	-0.906827	0.391998
C37	C	1.166152	-1.000433	0.386323
C38	C	1.479261	-0.548300	0.488219
C39	C	1.578874	-0.554376	0.493616
C40	C	1.231338	-0.546639	0.709311
C41	C	1.225301	-0.552007	0.808925
C42	C	1.258262	-0.300275	0.489835
C43	C	1.263698	-0.200658	0.495921
C44	C	1.259673	-0.521430	0.242710
C45	C	1.265897	-0.515820	0.143122
C46	C	1.334839	-0.454433	1.009328
C47	C	1.329169	-0.459475	1.102924
C48	C	1.208289	-0.567126	1.089716
C49	C	1.213958	-0.562085	0.996119
C50	C	1.277237	-0.505737	0.955929
C51	C	1.282910	-0.500701	0.862330
C52	C	1.162026	-0.608347	0.849124
C53	C	1.156356	-0.613389	0.942720
H54	H	0.916275	-0.403516	0.359622
H55	H	1.166567	-1.180169	0.386741
C56	C	1.340681	-0.875514	0.582593
H57	H	1.370491	-0.920671	0.616115
H58	H	1.383800	-0.839508	0.552692
H59	H	1.305939	-0.839031	0.621963
C60	C	1.138687	-0.629098	1.133932
H61	H	1.105186	-0.658930	1.088726
H62	H	1.168627	-0.672201	1.169922
H63	H	1.099293	-0.594390	1.170417
C64	C	1.086757	-0.675368	0.986931
H65	H	1.053260	-0.705198	0.941721
H66	H	1.116700	-0.718472	1.022918
H67	H	1.047359	-0.640667	1.023418
H68	H	0.599483	-0.445157	0.396624
C69	C	1.098651	-0.664778	0.790387
H70	H	1.060158	-0.699059	0.827732
H71	H	1.063686	-0.626145	0.753854
H72	H	1.133018	-0.703958	0.753349
H73	H	0.745452	-0.674964	0.600711
C74	C	0.903914	-0.641095	0.570635
H75	H	0.858721	-0.674605	0.600411
H76	H	0.940382	-0.680464	0.535887
H77	H	0.939923	-0.611186	0.613799
C78	C	0.560402	-0.681096	0.606204
H79	H	0.597766	-0.719625	0.640428
H80	H	0.523400	-0.646742	0.645419
H81	H	0.523834	-0.716038	0.567523
C82	C	1.104219	-1.044757	0.316684
H83	H	1.074394	-0.999601	0.283174
H84	H	1.138941	-1.081251	0.277314
H85	H	1.061100	-1.080754	0.346606
C86	C	1.392536	-0.403049	1.161664
H87	H	1.380096	-0.414117	1.223164
H88	H	1.452964	-0.419011	1.148782
H89	H	1.383629	-0.341201	1.149294
H90	H	1.361750	-1.203756	0.606169
C91	C	1.386937	-1.022425	0.634556
H92	H	1.416753	-1.067579	0.668076
H93	H	1.430051	-0.986415	0.604653
H94	H	1.352194	-0.985944	0.673928
C95	C	1.114757	-0.848189	0.328600
H96	H	1.125805	-0.786668	0.341049
H97	H	1.130747	-0.861101	0.268178
H98	H	1.052910	-0.860612	0.337476
H99	H	1.334435	-0.454822	0.829609
H100	H	1.386367	-0.408558	0.976604
C101	C	0.734964	-0.375110	0.334390
H102	H	0.671577	-0.379983	0.338709
H103	H	0.752776	-0.316552	0.352092
H104	H	0.753231	-0.385834	0.274183
