data_functionalizedCrystal
_audit_creation_method	'MofGen! by Chris Wilmer'
_symmetry_space_group_name_H-M	'P1'
_symmetry_Int_Tables_number	1
_symmetry_cell_setting	triclinic
loop_
_symmetry_equiv_pos_as_xyz
  x,y,z
_cell_length_a	12.784905
_cell_length_b	12.837942
_cell_length_c	17.766277
_cell_angle_alpha	90.004102
_cell_angle_beta	90.009992
_cell_angle_gamma	83.968130
loop_
_atom_site_label
_atom_site_type_symbol
_atom_site_fract_x
_atom_site_fract_y
_atom_site_fract_z
O1	O	1.410974	0.006435	0.062599
O2	O	1.105975	0.050427	0.062599
O3	O	1.251712	-0.121862	0.062594
O4	O	1.265238	0.178724	0.062603
O5	O	1.251682	-0.121864	-0.062594
O6	O	1.105946	0.050425	-0.062589
O7	O	1.410945	0.006433	-0.062590
Cu8	Cu	1.258442	0.028429	-0.074020
Cu9	Cu	1.258477	0.028431	0.074030
O10	O	1.265208	0.178722	-0.062585
C11	C	1.066651	0.053288	0.000005
C12	C	0.949519	0.061801	0.000005
C13	C	0.735568	-0.111642	0.000013
C14	C	0.625513	-0.103648	0.000013
C15	C	0.619351	0.085781	0.000011
C16	C	0.729407	0.077787	0.000011
C17	C	0.787511	-0.020928	0.000011
C18	C	0.897569	-0.028921	0.000005
C19	C	0.891405	0.160508	0.000008
C20	C	0.781350	0.168502	0.000008
C21	C	1.247128	-0.160072	0.000000
C22	C	1.233500	-0.273920	0.000002
C23	C	1.397331	-0.529646	0.000017
C24	C	1.384532	-0.636618	0.000018
C25	C	1.195102	-0.594839	0.000011
C26	C	1.207901	-0.487867	0.000010
C27	C	1.309019	-0.455275	0.000012
C28	C	1.321818	-0.348301	0.000005
C29	C	1.132389	-0.306523	0.000003
C30	C	1.119589	-0.413495	0.000004
C31	C	1.450269	0.003573	0.000006
C32	C	1.567401	-0.004940	0.000011
C33	C	1.269792	0.216932	0.000010
C34	C	1.283420	0.330781	0.000014
N35	N	1.258426	0.028426	-0.178151
C36	C	1.328610	0.085014	-0.217529
C37	C	1.328626	0.085009	-0.296331
C38	C	1.258440	0.028431	-0.335751
C39	C	1.188250	-0.028169	-0.296363
C40	C	1.188243	-0.028171	-0.217563
C41	C	1.163193	0.034102	-0.460611
C42	C	1.163198	0.034112	-0.539410
C43	C	1.258462	0.028432	-0.578798
C44	C	1.353724	0.022764	-0.539377
C45	C	1.353717	0.022762	-0.460577
C46	C	1.258440	0.028427	-0.421197
C47	C	1.328670	0.085018	-0.703622
C48	C	1.328687	0.085006	-0.782426
C49	C	1.188303	-0.028165	-0.782456
C50	C	1.188294	-0.028160	-0.703654
C51	C	1.258476	0.028437	-0.664242
N52	N	1.258502	0.028426	0.178160
H53	H	1.404153	-0.321767	0.000004
Cl54	Cl	1.473493	0.015623	-0.588885
Cl55	Cl	1.043425	0.041157	-0.411102
Cl56	Cl	1.524447	-0.488669	0.000001
Cl57	Cl	0.708294	0.292593	0.000012
H58	H	1.112776	-0.621395	0.000017
Cl59	Cl	0.560216	-0.217694	0.000019
H60	H	1.131105	-0.074236	-0.328464
H61	H	0.933708	0.234375	0.000002
Cl62	Cl	0.808618	-0.235737	0.000003
H63	H	0.572023	0.166150	0.000020
Cl64	Cl	1.416865	0.156153	-0.345846
H65	H	1.131089	-0.074253	-0.185501
H66	H	1.385817	0.131102	-0.671531
Cl67	Cl	0.992477	-0.454479	0.000008
H68	H	1.456445	-0.697169	0.000025
H69	H	1.131138	-0.074235	-0.671592
H70	H	1.060479	-0.245957	-0.000008
H71	H	1.385762	0.131095	-0.185445
H72	H	1.431282	0.018144	-0.428484
Cl73	Cl	1.416932	0.156146	-0.831931
H74	H	1.131157	-0.074234	-0.814551
H75	H	1.085631	0.038733	-0.571500
H76	H	0.944876	-0.109300	0.000004
