data_functionalizedCrystal
_audit_creation_method	'MofGen! by Chris Wilmer'
_symmetry_space_group_name_H-M	'P1'
_symmetry_Int_Tables_number	1
_symmetry_cell_setting	triclinic
loop_
_symmetry_equiv_pos_as_xyz
  x,y,z
_cell_length_a	16.959454
_cell_length_b	19.077241
_cell_length_c	19.077174
_cell_angle_alpha	94.706947
_cell_angle_beta	92.276377
_cell_angle_gamma	87.687869
loop_
_atom_site_label
_atom_site_type_symbol
_atom_site_fract_x
_atom_site_fract_y
_atom_site_fract_z
Zn1	Zn	-0.285411	-1.093760	-0.442014
Zn2	Zn	0.047922	-0.760426	-0.108681
Zn3	Zn	0.381256	-0.427093	0.224652
Zn4	Zn	-0.412493	-1.088954	-0.324134
Zn5	Zn	-0.079159	-0.755621	0.009200
Zn6	Zn	0.254174	-0.422287	0.342533
Zn7	Zn	-0.285421	-0.971141	-0.319395
Zn8	Zn	0.047913	-0.637808	0.013939
Zn9	Zn	0.381246	-0.304474	0.347272
Zn10	Zn	-0.422643	-0.975845	-0.437236
Zn11	Zn	-0.089309	-0.642512	-0.103903
Zn12	Zn	0.244024	-0.309178	0.229430
O13	O	-0.351492	-1.032425	-0.380695
O14	O	-0.018158	-0.699092	-0.047361
O15	O	0.315175	-0.365758	0.285972
O16	O	-0.298017	-1.191775	-0.430360
O17	O	0.035317	-0.858442	-0.097027
O18	O	0.368650	-0.525108	0.236306
O19	O	-0.391393	-1.069346	-0.224855
O20	O	-0.058060	-0.736012	0.108479
O21	O	0.275274	-0.402679	0.441812
O22	O	-0.174807	-0.987449	-0.335677
O23	O	0.158526	-0.654116	-0.002344
O24	O	0.491859	-0.320783	0.330990
O25	O	-0.391383	-1.188244	-0.343754
O26	O	-0.058050	-0.854911	-0.010421
O27	O	0.275283	-0.521578	0.322913
O28	O	-0.174800	-1.077537	-0.425765
O29	O	0.158533	-0.744204	-0.092432
O30	O	0.491867	-0.410870	0.240902
O31	O	-0.298033	-0.982789	-0.221373
O32	O	0.035300	-0.649456	0.111960
O33	O	0.368633	-0.316123	0.445294
O34	O	-0.307875	-0.873112	-0.331044
O35	O	0.025458	-0.539779	0.002290
O36	O	0.358791	-0.206446	0.335623
O37	O	-0.408682	-0.995467	-0.536521
O38	O	-0.075349	-0.662133	-0.203187
O39	O	0.257985	-0.328800	0.130146
O40	O	-0.408692	-0.876568	-0.417621
O41	O	-0.075358	-0.543235	-0.084288
O42	O	0.257975	-0.209902	0.249045
O43	O	-0.307858	-1.082098	-0.540031
O44	O	0.025475	-0.748765	-0.206698
O45	O	0.358808	-0.415431	0.126635
O46	O	-0.524451	-1.073907	-0.339121
O47	O	-0.191118	-0.740574	-0.005787
O48	O	0.142215	-0.407240	0.327546
O49	O	-0.531908	-0.990806	-0.422217
O50	O	-0.198575	-0.657473	-0.088883
O51	O	0.134758	-0.324140	0.244450
C52	C	-0.359386	-0.849261	-0.373300
C53	C	-0.026053	-0.515927	-0.039967
C54	C	0.307280	-0.182594	0.293366
C55	C	-0.362784	-0.770903	-0.370153
C56	C	-0.029450	-0.437570	-0.036820
C57	C	0.303883	-0.104236	0.296513
C58	C	-0.315852	-0.735932	-0.413835
C59	C	0.017482	-0.402599	-0.080502
C60	C	0.350815	-0.069265	0.252831
C61	C	-0.319040	-0.662306	-0.410873
C62	C	0.014294	-0.328973	-0.077539
C63	C	0.347627	0.004360	0.255794
C64	C	-0.369164	-0.623653	-0.364231
C65	C	-0.035831	-0.290320	-0.030898
C66	C	0.297503	0.043014	0.302436
C67	C	-0.416098	-0.658629	-0.320544
C68	C	-0.082764	-0.325295	0.012789
C69	C	0.250569	0.008038	0.346122
C70	C	-0.412905	-0.732253	-0.323504
C71	C	-0.079572	-0.398920	0.009829
C72	C	0.253762	-0.065586	0.343163
C73	C	-0.383912	-0.403262	-0.350533
C74	C	-0.050579	-0.069929	-0.017200
C75	C	0.282754	0.263405	0.316133
C76	C	-0.387103	-0.329633	-0.347578
C77	C	-0.053770	0.003700	-0.014245
C78	C	0.279564	0.337034	0.319088
C79	C	-0.290044	-0.333316	-0.437906
C80	C	0.043290	0.000018	-0.104573
C81	C	0.376623	0.333351	0.228761
C82	C	-0.286859	-0.406941	-0.440865
C83	C	0.046474	-0.073608	-0.107531
C84	C	0.379808	0.259726	0.225802
C85	C	-0.333789	-0.441910	-0.397175
C86	C	-0.000456	-0.108577	-0.063842
C87	C	0.332877	0.224756	0.269491
N88	N	-0.372426	-0.548396	-0.361203
N89	N	-0.039092	-0.215062	-0.027870
N90	N	0.294241	0.118271	0.305464
N91	N	-0.330523	-0.517166	-0.400200
N92	N	0.002810	-0.183833	-0.066867
N93	N	0.336143	0.149500	0.266466
C94	C	-0.556860	-1.032365	-0.380680
C95	C	-0.223527	-0.699032	-0.047347
C96	C	0.109807	-0.365699	0.285986
C97	C	-0.644716	-1.032405	-0.380700
C98	C	-0.311382	-0.699072	-0.047367
C99	C	0.021951	-0.365739	0.285966
C100	C	-1.020100	-0.989220	-0.423961
C101	C	-0.686767	-0.655886	-0.090627
C102	C	-0.353433	-0.322553	0.242706
C103	C	-1.012275	-1.075829	-0.337509
C104	C	-0.678942	-0.742496	-0.004175
C105	C	-0.345608	-0.409163	0.329158
C106	C	-0.929730	-1.075805	-0.337501
C107	C	-0.596397	-0.742471	-0.004168
C108	C	-0.263063	-0.409138	0.329166
C109	C	-0.892366	-1.032486	-0.380723
C110	C	-0.559033	-0.699152	-0.047390
C111	C	-0.225699	-0.365819	0.285943
C112	C	-0.937547	-0.989192	-0.423953
C113	C	-0.604214	-0.655859	-0.090620
C114	C	-0.270881	-0.322525	0.242714
C115	C	-0.884543	-1.119092	-0.294267
C116	C	-0.551209	-0.785759	0.039066
C117	C	-0.217876	-0.452426	0.372400
C118	C	-0.801992	-1.119069	-0.294257
C119	C	-0.468659	-0.785735	0.039076
C120	C	-0.135326	-0.452402	0.372409
C121	C	-0.764627	-1.075753	-0.337484
C122	C	-0.431294	-0.742420	-0.004150
C123	C	-0.097960	-0.409086	0.329183
C124	C	-0.809813	-1.032458	-0.380716
C125	C	-0.476480	-0.699125	-0.047382
C126	C	-0.143147	-0.365791	0.285951
C127	C	-0.772450	-0.989139	-0.423938
C128	C	-0.439116	-0.655806	-0.090604
C129	C	-0.105783	-0.322473	0.242729
C130	C	-0.817635	-0.945847	-0.467174
C131	C	-0.484301	-0.612514	-0.133841
C132	C	-0.150968	-0.279181	0.199493
C133	C	-0.900182	-0.945876	-0.467179
C134	C	-0.566849	-0.612543	-0.133846
C135	C	-0.233515	-0.279210	0.199487
C136	C	-0.682080	-1.075724	-0.337478
C137	C	-0.348746	-0.742391	-0.004145
C138	C	-0.015413	-0.409057	0.329188
C139	C	-0.689897	-0.989111	-0.423930
C140	C	-0.356564	-0.655778	-0.090597
C141	C	-0.023230	-0.322445	0.242737
C142	C	-0.145321	-1.032505	-0.380725
C143	C	0.188012	-0.699171	-0.047392
C144	C	0.521345	-0.365838	0.285941
C145	C	-0.057464	-1.032538	-0.380738
C146	C	0.275870	-0.699205	-0.047405
C147	C	0.609203	-0.365872	0.285928
C148	C	-0.359401	-1.039843	-0.564570
C149	C	-0.026068	-0.706510	-0.231237
C150	C	0.307265	-0.373176	0.102097
C151	C	-0.362772	-1.043004	-0.642927
C152	C	-0.029439	-0.709671	-0.309593
C153	C	0.303895	-0.376338	0.023740
C154	C	-0.343562	-0.216304	-0.388113
C155	C	-0.010229	0.117029	-0.054780
C156	C	0.323105	0.450362	0.278554
C157	C	-0.340171	-0.294662	-0.391260
C158	C	-0.006838	0.038671	-0.057927
C159	C	0.326495	0.372005	0.275406
C160	C	-0.315749	-0.999426	-0.677926
C161	C	0.017584	-0.666093	-0.344592
C162	C	0.350918	-0.332759	-0.011259
C163	C	-0.318923	-1.002394	-0.751550
C164	C	0.014410	-0.669060	-0.418217
C165	C	0.347744	-0.335727	-0.084883
C166	C	-0.369116	-1.048944	-0.790174
C167	C	-0.035782	-0.715610	-0.456841
C168	C	0.297551	-0.382277	-0.123508
C169	C	-0.416144	-1.092524	-0.755170
C170	C	-0.082811	-0.759190	-0.421837
C171	C	0.250523	-0.425857	-0.088504
C172	C	-0.412974	-1.089552	-0.681547
C173	C	-0.079640	-0.756219	-0.348214
C174	C	0.253693	-0.422885	-0.014880
C175	C	-0.383813	-1.062660	-1.010558
C176	C	-0.050480	-0.729327	-0.677225
C177	C	0.282854	-0.395993	-0.343892
C178	C	-0.386978	-1.065630	-1.084187
C179	C	-0.053644	-0.732296	-0.750853
C180	C	0.279689	-0.398963	-0.417520
C181	C	-0.289757	-0.975499	-1.080561
C182	C	0.043576	-0.642165	-0.747228
C183	C	0.376909	-0.308832	-0.413895
C184	C	-0.286588	-0.972534	-1.006937
C185	C	0.046745	-0.639201	-0.673604
C186	C	0.380078	-0.305867	-0.340270
C187	C	-0.333619	-1.016111	-0.971939
C188	C	-0.000286	-0.682778	-0.638606
C189	C	0.333047	-0.349445	-0.305273
N190	N	-0.372359	-1.051980	-0.865430
N191	N	-0.039026	-0.718646	-0.532097
N192	N	0.294307	-0.385313	-0.198764
N193	N	-0.330380	-1.013071	-0.896685
N194	N	0.002954	-0.679738	-0.563351
N195	N	0.336287	-0.346405	-0.230018
C196	C	-0.343554	-1.025076	-0.197536
C197	C	-0.010221	-0.691743	0.135797
C198	C	0.323113	-0.358410	0.469130
C199	C	-0.339955	-1.022052	-0.119186
C200	C	-0.006622	-0.688718	0.214148
C201	C	0.326712	-0.355385	0.547481
H202	H	-0.246045	-0.438408	-0.478848
H203	H	0.087288	-0.105075	-0.145514
H204	H	0.420621	0.228259	0.187819
H205	H	-0.427924	-0.298163	-0.309597
H206	H	-0.094591	0.035170	0.023737
H207	H	0.238742	0.368504	0.357070
H208	H	-0.245718	-0.934626	-0.975494
H209	H	0.087615	-0.601293	-0.642161
H210	H	0.420949	-0.267960	-0.308827
H211	H	-0.251835	-0.304835	-0.473474
H212	H	0.081499	0.028498	-0.140141
H213	H	0.414832	0.361831	0.193192
H214	H	-0.422127	-0.431725	-0.314959
H215	H	-0.088794	-0.098392	0.018374
H216	H	0.244539	0.234941	0.351708
F217	F	-0.469440	-0.617489	-0.270901
F218	F	-0.136106	-0.284155	0.062432
F219	F	0.197227	0.049178	0.395766
F220	F	-0.262506	-0.777064	-0.463481
F221	F	0.070827	-0.443730	-0.130148
F222	F	0.404161	-0.110397	0.203185
F223	F	-0.948276	-0.899806	-0.513189
F224	F	-0.614942	-0.566472	-0.179856
F225	F	-0.281609	-0.233139	0.153477
H226	H	-1.042702	-1.111093	-0.302315
H227	H	-0.709368	-0.777760	0.031019
H228	H	-0.376035	-0.444427	0.364352
F229	F	-1.068188	-0.943151	-0.469976
F230	F	-0.734855	-0.609817	-0.136643
F231	F	-0.401521	-0.276484	0.196690
F232	F	-0.650138	-0.943008	-0.469938
F233	F	-0.316805	-0.609675	-0.136605
F234	F	0.016528	-0.276342	0.196729
H235	H	-0.251468	-0.940020	-1.109065
H236	H	0.081865	-0.606686	-0.775731
H237	H	0.415198	-0.273353	-0.442398
H238	H	-0.914970	-1.154355	-0.259073
H239	H	-0.581637	-0.821021	0.074261
H240	H	-0.248304	-0.487688	0.407594
F241	F	-0.462857	-0.769471	-0.277012
F242	F	-0.129524	-0.436138	0.056321
F243	F	0.203810	-0.102804	0.389654
F244	F	-0.469568	-1.142061	-0.796279
F245	F	-0.136235	-0.808728	-0.462946
F246	F	0.197098	-0.475395	-0.129612
H247	H	-0.427852	-1.103539	-1.115633
H248	H	-0.094518	-0.770206	-0.782300
H249	H	0.238815	-0.436873	-0.448966
F250	F	-0.753910	-1.165148	-0.248247
F251	F	-0.420577	-0.831814	0.085086
F252	F	-0.087244	-0.498481	0.418420
H253	H	-0.274872	-0.961524	-0.646483
H254	H	0.058461	-0.628191	-0.313150
H255	H	0.391795	-0.294857	0.020183
H256	H	-0.451259	-1.125043	-0.653052
H257	H	-0.117925	-0.791710	-0.319719
H258	H	0.215408	-0.458377	0.013614
F259	F	-0.777860	-0.899743	-0.513169
F260	F	-0.444526	-0.566409	-0.179836
F261	F	-0.111193	-0.233076	0.153497
H262	H	-0.280825	-0.633836	-0.446444
H263	H	0.052509	-0.300503	-0.113111
H264	H	0.385842	0.032830	0.220222
F265	F	-0.633994	-1.121788	-0.291460
F266	F	-0.300661	-0.788455	0.041873
F267	F	0.032672	-0.455121	0.375207
H268	H	-0.280635	-0.966905	-0.780043
H269	H	0.052698	-0.633572	-0.446709
H270	H	0.386032	-0.300238	-0.113376
F271	F	-0.433863	-1.109043	-0.973321
F272	F	-0.100530	-0.775710	-0.639987
F273	F	0.232803	-0.442377	-0.306654
