data_functionalizedCrystal
_audit_creation_method	'MofGen! by Chris Wilmer'
_symmetry_space_group_name_H-M	'P1'
_symmetry_Int_Tables_number	1
_symmetry_cell_setting	triclinic
loop_
_symmetry_equiv_pos_as_xyz
  x,y,z
_cell_length_a	14.908571
_cell_length_b	29.839131
_cell_length_c	14.908308
_cell_angle_alpha	93.261283
_cell_angle_beta	90.175053
_cell_angle_gamma	86.737317
loop_
_atom_site_label
_atom_site_type_symbol
_atom_site_fract_x
_atom_site_fract_y
_atom_site_fract_z
Zn1	Zn	1.345126	-0.234441	-0.587534
Zn2	Zn	1.845126	0.265559	-0.087534
Zn3	Zn	1.353655	-0.305498	-0.437159
Zn4	Zn	1.853655	0.194502	0.062841
Zn5	Zn	1.203447	-0.225812	-0.428533
Zn6	Zn	1.703447	0.274188	0.071467
Zn7	Zn	1.194683	-0.304964	-0.578811
Zn8	Zn	1.694683	0.195036	-0.078811
O9	O	1.274228	-0.267679	-0.508009
O10	O	1.774228	0.232321	-0.008009
O11	O	1.472080	-0.247701	-0.574847
O12	O	1.972080	0.252299	-0.074847
O13	O	1.340967	-0.291540	-0.310191
O14	O	1.840967	0.208460	0.189809
O15	O	1.222340	-0.164094	-0.449665
O16	O	1.722340	0.335906	0.050335
O17	O	1.478346	-0.299907	-0.464367
O18	O	1.978346	0.200093	0.035633
O19	O	1.326430	-0.170433	-0.566482
O20	O	1.826430	0.329567	-0.066482
O21	O	1.230610	-0.232995	-0.303854
O22	O	1.730610	0.267005	0.196146
O23	O	1.076461	-0.232477	-0.441208
O24	O	1.576461	0.267523	0.058792
O25	O	1.207402	-0.298997	-0.705792
O26	O	1.707402	0.201003	-0.205792
O27	O	1.070022	-0.290630	-0.551616
O28	O	1.570022	0.209370	-0.051616
O29	O	1.317932	-0.247184	-0.712201
O30	O	1.817932	0.252816	-0.212201
O31	O	1.332468	-0.368290	-0.455909
O32	O	1.832468	0.131710	0.044091
O33	O	1.215672	-0.367898	-0.559980
O34	O	1.715672	0.132102	-0.059980
C35	C	1.040617	-0.260560	-0.494530
C36	C	1.540617	0.239440	0.005470
C37	C	0.940676	-0.257526	-0.488784
C38	C	1.440676	0.242474	0.011216
C39	C	0.746229	-0.312463	-0.592802
C40	C	1.246229	0.187537	-0.092802
C41	C	0.652326	-0.309614	-0.587407
C42	C	1.152326	0.190386	-0.087407
C43	C	0.658964	-0.248976	-0.472604
C44	C	1.158964	0.251024	0.027396
C45	C	0.752867	-0.251825	-0.477999
C46	C	1.252867	0.248175	0.022001
C47	C	0.796497	-0.283570	-0.538099
C48	C	1.296497	0.216430	-0.038099
C49	C	0.890402	-0.286422	-0.543489
C50	C	1.390402	0.213578	-0.043489
C51	C	0.897038	-0.225781	-0.428692
C52	C	1.397038	0.274219	0.071308
C53	C	0.803135	-0.222932	-0.423297
C54	C	1.303135	0.277068	0.076703
C55	C	1.274068	-0.384395	-0.507955
C56	C	1.774068	0.115605	-0.007955
C57	C	1.274080	-0.434330	-0.507967
C58	C	1.774080	0.065670	-0.007967
C59	C	1.335143	-0.744176	-0.453910
C60	C	1.835143	-0.244176	0.046090
C61	C	1.335252	-0.931853	-0.453951
C62	C	1.835252	-0.431853	0.046049
O63	O	1.387043	-0.956286	-0.407948
O64	O	1.887043	-0.456286	0.092052
N65	N	1.274410	-0.955128	-0.508088
N66	N	1.774410	-0.455128	-0.008088
C67	C	1.213541	-0.931481	-0.562223
C68	C	1.713541	-0.431481	-0.062223
O69	O	1.161800	-0.955585	-0.608278
O70	O	1.661800	-0.455585	-0.108278
C71	C	1.213437	-0.743805	-0.562186
C72	C	1.713437	-0.243805	-0.062186
C73	C	1.274276	-0.720532	-0.508038
C74	C	1.774276	-0.220532	-0.008038
C75	C	1.395978	-0.720903	-0.399768
C76	C	1.895978	-0.220903	0.100232
C77	C	1.395947	-0.673987	-0.399754
C78	C	1.895947	-0.173987	0.100246
C79	C	1.335081	-0.650343	-0.453883
C80	C	1.835081	-0.150343	0.046117
C81	C	1.274245	-0.673615	-0.508025
C82	C	1.774245	-0.173615	-0.008025
C83	C	1.152572	-0.720159	-0.616325
C84	C	1.652572	-0.220159	-0.116325
C85	C	1.152553	-0.673237	-0.616312
C86	C	1.652553	-0.173237	-0.116312
C87	C	1.213393	-0.649964	-0.562165
C88	C	1.713393	-0.149964	-0.062165
C89	C	1.213348	-0.603055	-0.562140
C90	C	1.713348	-0.103055	-0.062140
N91	N	1.274189	-0.579780	-0.508003
N92	N	1.774189	-0.079780	-0.008003
C93	C	1.335056	-0.603424	-0.453875
C94	C	1.835056	-0.103424	0.046125
C95	C	1.213598	-1.030014	-0.562237
C96	C	1.713598	-0.530014	-0.062237
C97	C	1.213623	-1.076933	-0.562245
C98	C	1.713623	-0.576933	-0.062245
C99	C	1.335336	-1.077302	-0.453975
C100	C	1.835336	-0.577302	0.046025
C101	C	1.335306	-1.030382	-0.453962
C102	C	1.835306	-0.530382	0.046038
C103	C	1.274440	-1.006739	-0.508100
C104	C	1.774440	-0.506739	-0.008100
C105	C	1.334986	-0.504895	-0.453850
C106	C	1.834986	-0.004895	0.046150
C107	C	1.334947	-0.457974	-0.453839
C108	C	1.834947	0.042026	0.046161
C109	C	1.213238	-0.457609	-0.562112
C110	C	1.713238	0.042391	-0.062112
C111	C	1.213273	-0.504526	-0.562121
C112	C	1.713273	-0.004526	-0.062121
C113	C	1.274154	-0.528168	-0.507987
C114	C	1.774154	-0.028168	-0.007987
O115	O	1.161590	-0.578594	-0.608127
O116	O	1.661590	-0.078594	-0.108127
O117	O	1.386803	-0.579313	-0.407842
O118	O	1.886803	-0.079313	0.092158
C119	C	1.335174	-0.791093	-0.453923
C120	C	1.835174	-0.291093	0.046077
C121	C	1.274339	-0.814366	-0.508065
C122	C	1.774339	-0.314366	-0.008065
C123	C	1.213472	-0.790722	-0.562194
C124	C	1.713472	-0.290722	-0.062194
C125	C	1.274363	-0.861284	-0.508074
C126	C	1.774363	-0.361284	-0.008074
C127	C	1.335230	-0.884928	-0.453945
C128	C	1.835230	-0.384928	0.046055
C129	C	1.396072	-0.861654	-0.399808
C130	C	1.896072	-0.361654	0.100192
C131	C	1.396041	-0.814737	-0.399794
C132	C	1.896041	-0.314737	0.100206
C133	C	1.152630	-0.813996	-0.616331
C134	C	1.652630	-0.313996	-0.116331
C135	C	1.152666	-0.860913	-0.616339
C136	C	1.652666	-0.360913	-0.116339
C137	C	1.213532	-0.884557	-0.562211
C138	C	1.713532	-0.384557	-0.062211
C139	C	1.508750	-0.274826	-0.521542
C140	C	2.008750	0.225174	-0.021542
C141	C	1.608690	-0.277872	-0.527309
C142	C	2.108690	0.222128	-0.027309
C143	C	1.260738	-0.273993	-0.742533
C144	C	1.760738	0.226007	-0.242533
C145	C	1.254989	-0.276684	-0.842474
C146	C	1.754989	0.223316	-0.342474
C147	C	1.274411	-0.150508	-0.508085
C148	C	1.774411	0.349492	-0.008085
C149	C	1.274490	-0.100577	-0.508117
C150	C	1.774490	0.399423	-0.008117
C151	C	1.359279	-0.227777	-1.036946
C152	C	1.859279	0.272223	-0.536946
C153	C	1.353881	-0.230304	-1.130849
C154	C	1.853881	0.269696	-0.630849
C155	C	1.238790	-0.284262	-1.124184
C156	C	1.738790	0.215738	-0.624184
C157	C	1.244189	-0.281735	-1.030281
C158	C	1.744189	0.218265	-0.530281
C159	C	1.304436	-0.253492	-0.986666
C160	C	1.804436	0.246508	-0.486666
C161	C	1.309839	-0.250968	-0.892761
C162	C	1.809839	0.249032	-0.392761
C163	C	1.194744	-0.304924	-0.886097
C164	C	1.694744	0.195076	-0.386097
C165	C	1.189345	-0.307450	-0.980000
C166	C	1.689345	0.192550	-0.480000
C167	C	1.287717	-0.261358	-0.274401
C168	C	1.787717	0.238642	0.225599
C169	C	1.293639	-0.258546	-0.174471
C170	C	1.793639	0.241454	0.325529
H171	H	0.781753	-0.338314	-0.641733
H172	H	1.281753	0.161686	-0.141733
H173	H	1.189739	-0.307256	-1.159711
H174	H	1.689739	0.192744	-0.659711
H175	H	1.358896	-0.227972	-0.857251
H176	H	1.858896	0.272028	-0.357251
H177	H	1.140292	-0.330444	-1.015524
H178	H	1.640292	0.169556	-0.515524
H179	H	0.925924	-0.312271	-0.592424
H180	H	1.425924	0.187729	-0.092424
H181	H	1.398538	-0.209362	-1.171784
H182	H	1.898538	0.290638	-0.671784
H183	H	0.611401	-0.333141	-0.631953
H184	H	1.111401	0.166859	-0.131953
C185	C	0.610955	-0.214054	-0.406509
C186	C	1.110955	0.285946	0.093491
N187	N	0.574793	-0.187750	-0.356726
N188	N	1.074793	0.312250	0.143274
C189	C	1.146344	-0.530127	-0.621682
C190	C	1.646344	-0.030127	-0.121682
N191	N	1.095938	-0.549406	-0.666552
N192	N	1.595938	-0.049406	-0.166552
C193	C	0.952341	-0.193998	-0.368512
C194	C	1.452341	0.306002	0.131488
N195	N	0.993996	-0.170061	-0.323183
N196	N	1.493996	0.329939	0.176817
H197	H	1.408340	-0.204783	-1.001435
H198	H	1.908340	0.295217	-0.501435
H199	H	0.767599	-0.197085	-0.374367
H200	H	1.267599	0.302915	0.125633
H201	H	1.384490	-0.439027	-0.409742
H202	H	1.884490	0.060973	0.090258
C203	C	1.401953	-0.530894	-0.394294
C204	C	1.901953	-0.030894	0.105706
N205	N	1.452388	-0.550476	-0.349431
N206	N	1.952388	-0.050476	0.150569
C207	C	1.134413	-0.333213	-0.830780
C208	C	1.634413	0.166787	-0.330780
N209	N	1.088974	-0.354520	-0.789115
N210	N	1.588974	0.145480	-0.289115
C211	C	1.462870	-0.648392	-0.340180
C212	C	1.962870	-0.148392	0.159820
N213	N	1.513277	-0.629117	-0.295302
N214	N	2.013277	-0.129117	0.204698
C215	C	1.146291	-0.431592	-0.621655
C216	C	1.646291	0.068408	-0.121655
N217	N	1.095871	-0.411995	-0.666509
N218	N	1.595871	0.088005	-0.166509
H219	H	1.384847	-1.011436	-0.409871
H220	H	1.884847	-0.511436	0.090129
C221	C	1.462938	-0.746904	-0.340211
C222	C	1.962938	-0.246904	0.159789
N223	N	1.513370	-0.766484	-0.295343
N224	N	2.013370	-0.266484	0.204657
C225	C	1.402294	-1.103319	-0.394438
C226	C	1.902294	-0.603319	0.105562
N227	N	1.452729	-1.122918	-0.349603
N228	N	1.952729	-0.622918	0.150397
H229	H	1.164073	-1.095877	-0.606329
H230	H	1.664073	-0.595877	-0.106329
C231	C	1.085645	-0.745749	-0.675895
C232	C	1.585645	-0.245749	-0.175895
N233	N	1.035233	-0.765022	-0.720769
N234	N	1.535233	-0.265022	-0.220769
C235	C	1.146659	-1.004014	-0.621822
C236	C	1.646659	-0.504014	-0.121822
N237	N	1.096246	-0.984433	-0.666710
N238	N	1.596246	-0.484433	-0.166710
H239	H	1.102990	-0.653989	-0.660401
H240	H	1.602990	-0.153989	-0.160401
H241	H	1.445582	-0.795792	-0.355703
H242	H	1.945582	-0.295792	0.144297
H243	H	1.445629	-0.880912	-0.355732
H244	H	1.945629	-0.380912	0.144268
H245	H	1.103115	-0.879858	-0.660431
H246	H	1.603115	-0.379858	-0.160431
H247	H	1.103066	-0.794749	-0.660410
H248	H	1.603066	-0.294749	-0.160410
