data_functionalizedCrystal
_audit_creation_method	'MofGen! by Chris Wilmer'
_symmetry_space_group_name_H-M	'P1'
_symmetry_Int_Tables_number	1
_symmetry_cell_setting	triclinic
loop_
_symmetry_equiv_pos_as_xyz
  x,y,z
_cell_length_a	18.050589
_cell_length_b	18.050590
_cell_length_c	13.897441
_cell_angle_alpha	90.004076
_cell_angle_beta	90.026902
_cell_angle_gamma	90.017386
loop_
_atom_site_label
_atom_site_type_symbol
_atom_site_fract_x
_atom_site_fract_y
_atom_site_fract_z
Zn1	Zn	-0.295858	1.135328	0.545026
Zn2	Zn	0.204142	1.635328	1.045026
Zn3	Zn	-0.420060	1.135228	0.383735
Zn4	Zn	0.079940	1.635228	0.883735
Zn5	Zn	-0.295865	1.011137	0.383785
Zn6	Zn	0.204135	1.511137	0.883785
Zn7	Zn	-0.419987	1.011095	0.545028
Zn8	Zn	0.080013	1.511095	1.045028
O9	O	-0.357942	1.073197	0.464393
O10	O	0.142058	1.573197	0.964393
O11	O	-0.312361	1.239239	0.523608
O12	O	0.187639	1.739239	1.023608
O13	O	-0.403619	1.118743	0.248760
O14	O	0.096381	1.618743	0.748760
O15	O	-0.191939	1.027670	0.405194
O16	O	0.308061	1.527670	0.905194
O17	O	-0.403612	1.239166	0.405108
O18	O	0.096388	1.739166	0.905108
O19	O	-0.191934	1.118913	0.523657
O20	O	0.308066	1.618913	1.023657
O21	O	-0.312373	1.027573	0.248796
O22	O	0.187627	1.527573	0.748796
O23	O	-0.312302	0.907207	0.405196
O24	O	0.187698	1.407207	0.905196
O25	O	-0.403487	1.027599	0.680009
O26	O	0.096513	1.527599	1.180009
O27	O	-0.403494	0.907176	0.523661
O28	O	0.096506	1.407176	1.023661
O29	O	-0.312290	1.118873	0.680008
O30	O	0.187710	1.618873	1.180008
O31	O	-0.523975	1.118702	0.405111
O32	O	-0.023975	1.618702	0.905111
O33	O	-0.523921	1.027502	0.523612
O34	O	-0.023921	1.527502	1.023612
C35	C	-0.357892	0.880245	0.464435
C36	C	0.142108	1.380245	0.964435
C37	C	-0.357888	0.797699	0.464475
C38	C	0.142112	1.297699	0.964475
C39	C	-0.407620	0.598253	0.528744
C40	C	0.092380	1.098253	1.028744
C41	C	-0.339902	0.548862	0.552473
C42	C	0.160098	1.048862	1.052473
C43	C	-0.357929	0.646569	0.464428
C44	C	0.142071	1.146569	0.964428
C45	C	-0.425686	0.548879	0.440698
C46	C	0.074314	1.048879	0.940698
C47	C	-0.357975	0.500584	0.464385
C48	C	0.142025	1.000584	0.964385
C49	C	-0.290175	0.598264	0.488204
C50	C	0.209825	1.098264	0.988204
C51	C	-0.376005	0.598285	0.376387
C52	C	0.123995	1.098285	0.876387
C53	C	-0.308240	0.548916	0.400084
C54	C	0.191760	1.048916	0.900084
C55	C	-0.357904	0.730667	0.464456
C56	C	0.142096	1.230667	0.964456
C57	C	-0.357993	0.416487	0.464357
C58	C	0.142007	0.916487	0.964357
C59	C	-0.550894	1.073107	0.464377
C60	C	-0.050894	1.573107	0.964377
C61	C	-0.633440	1.073137	0.464403
C62	C	-0.133440	1.573137	0.964403
C63	C	-0.832889	1.023591	0.528821
C64	C	-0.332889	1.523591	1.028821
C65	C	-0.882330	1.005487	0.440809
C66	C	-0.382330	1.505487	0.940809
C67	C	-0.784571	1.073210	0.464415
C68	C	-0.284571	1.573210	0.964415
C69	C	-0.882211	1.091350	0.552438
C70	C	-0.382211	1.591350	1.052438
C71	C	-0.930556	1.073279	0.464435
C72	C	-0.430556	1.573279	0.964435
C73	C	-0.832924	1.055071	0.376356
C74	C	-0.332924	1.555071	0.876356
C75	C	-0.832802	1.140965	0.488045
C76	C	-0.332802	1.640965	0.988045
C77	C	-0.882220	1.122887	0.399971
C78	C	-0.382220	1.622887	0.899971
C79	C	-0.700472	1.073168	0.464405
C80	C	-0.200472	1.573168	0.964405
C81	C	-1.014652	1.073321	0.464435
C82	C	-0.514652	1.573321	0.964435
C83	C	-0.164237	1.073307	0.464430
C84	C	0.335763	1.573307	0.964430
C85	C	-0.081691	1.073354	0.464446
C86	C	0.418309	1.573354	0.964446
C87	C	-0.357880	1.073242	0.715986
C88	C	0.142120	1.573242	1.215986
C89	C	-0.357853	1.073262	0.823200
C90	C	0.142147	1.573262	1.323200
C91	C	-0.357994	1.266902	0.464352
C92	C	0.142006	1.766902	0.964352
C93	C	-0.358016	1.349448	0.464335
C94	C	0.141984	1.849448	0.964335
C95	C	-0.357951	1.073194	0.213779
C96	C	0.142049	1.573194	0.713779
C97	C	-0.357768	1.073319	0.106565
C98	C	0.142232	1.573319	0.606565
C99	C	-0.357832	1.073277	0.910270
C100	C	0.142168	1.573277	1.410270
C101	C	-0.357799	1.073298	1.019503
C102	C	0.142201	1.573298	1.519503
H103	H	-0.482967	0.527182	0.420647
H104	H	0.017033	1.027182	0.920647
H105	H	-0.904101	0.948222	0.420841
H106	H	-0.404101	1.448222	0.920841
N107	N	-0.805872	1.035765	0.282963
N108	N	-0.305872	1.535765	0.782963
N109	N	-0.737682	1.032588	0.267894
N110	N	-0.237682	1.532588	0.767894
H111	H	-0.718574	1.018946	0.201939
H112	H	-0.218574	1.518946	0.701939
H113	H	-0.903861	1.106665	0.626870
H114	H	-0.403861	1.606665	1.126870
H115	H	-0.903744	1.164877	0.345451
H116	H	-0.403744	1.664877	0.845451
H117	H	-0.266189	0.527390	0.345676
H118	H	0.233811	1.027390	0.845676
N119	N	-0.805720	0.970871	0.597049
N120	N	-0.305720	1.470871	1.097049
N121	N	-0.821625	0.903818	0.588129
N122	N	-0.321625	1.403818	1.088129
H123	H	-0.802437	0.866583	0.636311
H124	H	-0.302437	1.366583	1.136311
N125	N	-0.805485	1.212781	0.513166
N126	N	-0.305485	1.712781	1.013166
N127	N	-0.764931	1.220600	0.585389
N128	N	-0.264931	1.720600	1.085389
H129	H	-0.745637	1.271321	0.603144
H130	H	-0.245637	1.771321	1.103144
N131	N	-0.460226	0.625437	0.597068
N132	N	0.039774	1.125437	1.097068
N133	N	-0.439276	0.665906	0.664814
N134	N	0.060724	1.165906	1.164814
H135	H	-0.476422	0.685106	0.713075
H136	H	0.023578	1.185106	1.213075
N137	N	-0.320756	0.521622	0.645854
N138	N	0.179244	1.021622	1.145854
N139	N	-0.365012	0.481113	0.690758
N140	N	0.134988	0.981113	1.190758
H141	H	-0.351496	0.461878	0.756711
H142	H	0.148504	0.961878	1.256711
N143	N	-0.218298	0.625369	0.513464
N144	N	0.281702	1.125369	1.013464
N145	N	-0.206684	0.693567	0.517590
N146	N	0.293316	1.193567	1.017590
H147	H	-0.155922	0.712713	0.535431
H148	H	0.344078	1.212713	1.035431
N149	N	-0.395196	0.625535	0.283034
N150	N	0.104804	1.125535	0.783034
N151	N	-0.456657	0.609743	0.246975
N152	N	0.043343	1.109743	0.746975
H153	H	-0.470219	0.628988	0.181043
H154	H	0.029781	1.128988	0.681043
