data_functionalizedCrystal
_audit_creation_method	'MofGen! by Chris Wilmer'
_symmetry_space_group_name_H-M	'P1'
_symmetry_Int_Tables_number	1
_symmetry_cell_setting	triclinic
loop_
_symmetry_equiv_pos_as_xyz
  x,y,z
_cell_length_a	19.188930
_cell_length_b	19.188930
_cell_length_c	9.565339
_cell_angle_alpha	89.995116
_cell_angle_beta	89.982583
_cell_angle_gamma	83.144779
loop_
_atom_site_label
_atom_site_type_symbol
_atom_site_fract_x
_atom_site_fract_y
_atom_site_fract_z
O1	O	0.926144	0.087163	-0.116725
O2	O	1.426144	0.587163	0.383275
O3	O	0.722833	0.098897	-0.116631
O4	O	1.222833	0.598897	0.383369
O5	O	0.830356	-0.008626	-0.116654
O6	O	1.330356	0.491374	0.383346
O7	O	0.818622	0.194685	-0.116703
O8	O	1.318622	0.694685	0.383297
O9	O	0.830347	-0.008619	0.115867
O10	O	1.330347	0.491381	0.615867
O11	O	0.722825	0.098904	0.115889
O12	O	1.222825	0.598904	0.615889
O13	O	0.926136	0.087169	0.115795
O14	O	1.426136	0.587169	0.615795
Zn15	Zn	0.824479	0.093037	0.152760
Zn16	Zn	1.324479	0.593037	0.652760
Zn17	Zn	0.824490	0.093029	-0.153596
Zn18	Zn	1.324490	0.593029	0.346404
O19	O	0.818613	0.194692	0.115817
O20	O	1.318613	0.694692	0.615817
C21	C	0.696818	0.098520	-0.000359
C22	C	1.196818	0.598520	0.499641
C23	C	0.619313	0.097380	-0.000322
C24	C	1.119313	0.597380	0.499678
C25	C	0.574389	0.160470	-0.000359
C26	C	1.074389	0.660470	0.499641
C27	C	0.501566	0.159399	-0.000374
C28	C	1.001566	0.659399	0.499626
C29	C	0.473669	0.095233	-0.000380
C30	C	0.973669	0.595233	0.499620
C31	C	0.518603	0.032133	-0.000335
C32	C	1.018603	0.532133	0.499665
C33	C	0.591425	0.033207	-0.000306
C34	C	1.091425	0.533207	0.499694
N35	N	0.365692	0.046183	-0.079561
N36	N	0.865692	0.546183	0.420439
N37	N	0.296513	0.045168	-0.079592
N38	N	0.796513	0.545168	0.420408
C39	C	0.254260	0.091994	-0.000465
C40	C	0.754260	0.591994	0.499535
N41	N	0.283798	0.139885	0.078677
N42	N	0.783798	0.639885	0.578677
N43	N	0.352983	0.140903	0.078701
N44	N	0.852983	0.640903	0.578701
C45	C	0.394707	0.094062	-0.000411
C46	C	0.894707	0.594062	0.499589
C47	C	0.130372	0.153928	-0.000516
C48	C	0.630372	0.653928	0.499484
C49	C	0.057547	0.152853	-0.000523
C50	C	0.557547	0.652853	0.499477
C51	C	0.074586	0.025586	-0.000498
C52	C	0.574586	0.525586	0.499502
C53	C	0.147409	0.026662	-0.000477
C54	C	0.647409	0.526662	0.499523
C55	C	0.175298	0.090835	-0.000493
C56	C	0.675298	0.590835	0.499507
C57	C	0.829972	-0.034634	-0.000389
C58	C	1.329972	0.465366	0.499611
C59	C	0.828831	-0.112138	-0.000377
C60	C	1.328831	0.387862	0.499623
C61	C	0.891922	-0.157062	-0.000399
C62	C	1.391922	0.342938	0.499601
C63	C	0.890850	-0.229886	-0.000421
C64	C	1.390850	0.270114	0.499579
C65	C	0.826684	-0.257782	-0.000392
C66	C	1.326684	0.242218	0.499608
C67	C	0.763585	-0.212849	-0.000378
C68	C	1.263585	0.287151	0.499622
C69	C	0.764658	-0.140026	-0.000370
C70	C	1.264658	0.359974	0.499630
N71	N	0.777634	-0.365785	0.078761
N72	N	1.277634	0.134215	0.578761
N73	N	0.776618	-0.434964	0.078757
N74	N	1.276618	0.065036	0.578757
C75	C	0.823446	-0.477191	-0.000419
C76	C	1.323446	0.022809	0.499581
N77	N	0.871338	-0.447628	-0.079573
N78	N	1.371338	0.052372	0.420427
N79	N	0.872355	-0.378443	-0.079562
N80	N	1.372355	0.121557	0.420438
C81	C	0.825513	-0.336745	-0.000402
C82	C	1.325513	0.163255	0.499598
C83	C	0.885379	-0.601079	-0.000467
C84	C	1.385379	-0.101079	0.499533
C85	C	0.884305	-0.673904	-0.000498
C86	C	1.384305	-0.173904	0.499502
C87	C	0.757038	-0.656865	-0.000441
C88	C	1.257038	-0.156865	0.499559
C89	C	0.758114	-0.584042	-0.000424
C90	C	1.258114	-0.084042	0.499576
C91	C	0.822286	-0.556154	-0.000431
C92	C	1.322286	-0.056154	0.499569
C93	C	0.952151	0.087546	-0.000480
C94	C	1.452151	0.587546	0.499520
C95	C	1.029656	0.088687	-0.000527
C96	C	1.529656	0.588687	0.499473
C97	C	0.818997	0.220700	-0.000450
C98	C	1.318997	0.720700	0.499550
C99	C	0.820138	0.298204	-0.000472
C100	C	1.320138	0.798204	0.499528
N101	N	0.824476	0.093043	0.361839
N102	N	1.324476	0.593043	0.861839
N103	N	0.824498	0.093018	-0.362675
N104	N	1.324498	0.593018	0.137325
C105	C	0.774736	0.142752	0.453052
C106	C	1.274736	0.642752	0.953052
C107	C	0.837788	0.156108	0.546198
C108	C	1.337788	0.656108	1.046198
C109	C	0.761452	0.079693	0.546249
C110	C	1.261452	0.579693	1.046249
C111	C	0.887560	0.106430	0.452933
C112	C	1.387560	0.606430	0.952933
C113	C	0.811183	0.029988	0.452976
C114	C	1.311183	0.529988	0.952976
C115	C	0.874280	0.043316	0.546079
C116	C	1.374280	0.543316	1.046079
H117	H	0.628003	-0.018171	-0.000276
H118	H	1.128003	0.481829	0.499724
H119	H	0.706738	-0.547464	-0.000398
H120	H	1.206738	-0.047464	0.499602
O121	O	0.160454	0.223141	-0.000506
O122	O	0.660454	0.723141	0.499494
H123	H	0.193242	0.226679	-0.095273
H124	H	0.693242	0.726679	0.404727
H125	H	0.732710	0.184828	0.412206
H126	H	1.232710	0.684828	0.912206
H127	H	0.020970	0.204232	-0.000545
H128	H	0.520970	0.704232	0.499455
H129	H	0.183988	-0.024713	-0.000455
H130	H	0.683988	0.475287	0.499545
H131	H	0.944176	-0.134360	-0.000409
H132	H	1.444176	0.365640	0.499591
H133	H	0.849047	0.209421	0.587145
H134	H	1.349047	0.709421	1.087145
H135	H	0.942228	-0.266470	-0.000445
H136	H	1.442228	0.233530	0.499555
H137	H	0.711340	-0.235567	-0.000358
H138	H	1.211340	0.264433	0.499642
H139	H	0.704792	-0.679578	-0.000424
H140	H	1.204792	-0.179578	0.499576
H141	H	0.940879	0.117774	0.412116
H142	H	1.440879	0.617774	0.912116
O143	O	0.044502	-0.043621	-0.000498
O144	O	0.544502	0.456379	0.499502
H145	H	0.062536	-0.073919	0.094295
H146	H	0.562536	0.426081	0.594295
H147	H	0.916399	0.001265	0.586669
H148	H	1.416399	0.501265	1.086669
O149	O	0.488515	-0.037073	-0.000342
O150	O	0.988515	0.462927	0.499658
H151	H	0.506546	-0.067371	0.094453
H152	H	1.006546	0.432629	0.594453
H153	H	0.713281	-0.103449	-0.000351
H154	H	1.213281	0.396551	0.499649
O155	O	0.954589	-0.570991	-0.000503
O156	O	1.454589	-0.070991	0.499497
H157	H	0.998282	-0.614467	-0.000549
H158	H	1.498282	-0.114467	0.499451
H159	H	0.597091	0.212725	-0.000375
H160	H	1.097091	0.712725	0.499625
H161	H	0.799904	-0.023308	0.411996
H162	H	1.299904	0.476692	0.911996
O163	O	0.690844	0.064743	0.600553
O164	O	1.190844	0.564743	1.100553
H165	H	0.655508	0.057802	0.511076
H166	H	1.155508	0.557802	1.011076
O167	O	0.453098	0.227448	-0.000429
O168	O	0.953098	0.727448	0.499571
H169	H	0.484725	0.272251	-0.000445
H170	H	0.984725	0.772251	0.499555
O171	O	0.952356	-0.722364	-0.000511
O172	O	1.452356	-0.222364	0.499489
H173	H	0.997156	-0.690734	-0.000496
H174	H	1.497156	-0.190734	0.499504
