data_functionalizedCrystal
_audit_creation_method	'MofGen! by Chris Wilmer'
_symmetry_space_group_name_H-M	'P1'
_symmetry_Int_Tables_number	1
_symmetry_cell_setting	triclinic
loop_
_symmetry_equiv_pos_as_xyz
  x,y,z
_cell_length_a	6.817900
_cell_length_b	10.992421
_cell_length_c	10.992410
_cell_angle_alpha	91.831025
_cell_angle_beta	108.764651
_cell_angle_gamma	108.764763
loop_
_atom_site_label
_atom_site_type_symbol
_atom_site_fract_x
_atom_site_fract_y
_atom_site_fract_z
V1	V	-4.114248	-0.177761	-0.400575
O2	O	-4.072376	0.008542	-0.392968
O3	O	-4.091827	-0.352470	-0.397818
O4	O	-4.091840	-0.175026	-0.575288
O5	O	-4.072363	-0.170129	-0.214270
V6	V	-4.591142	-0.155477	-0.378294
O7	O	-4.390048	-0.226642	-0.449452
O8	O	-4.765539	-0.106595	-0.329417
O9	O	-4.390356	0.019232	-0.381051
O10	O	-4.750411	-0.341780	-0.385901
O11	O	-4.750424	-0.163108	-0.564599
O12	O	-4.390343	-0.158211	-0.203581
C13	C	-3.942307	-0.395060	-0.391494
C14	C	-4.005435	-0.537887	-0.390404
C15	C	-3.942322	-0.168712	-0.617873
C16	C	-4.005457	-0.167632	-0.760702
C17	C	-3.873099	-0.733174	-0.381618
C18	C	-3.807017	-0.584530	-0.382242
C19	C	-4.076044	-0.576522	-0.270588
C20	C	-4.140279	-0.725065	-0.269320
C21	C	-4.271785	-0.763647	-0.514935
C22	C	-4.202731	-0.615133	-0.517535
C23	C	-3.872580	-0.157795	-0.955826
C24	C	-3.807029	-0.159451	-0.807343
C25	C	-4.203473	-0.294312	-0.837793
C26	C	-4.267786	-0.293192	-0.986360
C27	C	-4.145552	-0.047893	-0.948352
C28	C	-4.074843	-0.047293	-0.799340
C29	C	-4.203219	0.061816	-0.387371
C30	C	-4.119331	0.204641	-0.388470
C31	C	-4.203203	-0.164530	-0.160989
C32	C	-4.119306	-0.165603	-0.018159
H33	H	-3.749893	-0.558765	-0.467855
F34	F	-4.263513	-0.828375	-0.633438
H35	H	-4.352513	-0.584926	-0.530916
F36	F	-4.138683	-0.583912	-0.633403
F37	F	-4.400032	-0.308120	-0.800150
H38	H	-4.042638	0.048305	-0.968721
H39	H	-4.157711	-0.383659	-0.812179
F40	F	-3.732304	-0.271538	-0.774892
H41	H	-4.451634	-0.804764	-0.521215
H42	H	-3.847276	-0.779594	-0.466700
H43	H	-3.931589	0.046420	-0.746991
F44	F	-3.721742	-0.760045	-0.262410
H45	H	-3.658336	-0.532087	-0.290964
H46	H	-4.316491	-0.765948	-0.269130
H47	H	-4.252224	-0.382320	-1.032621
F48	F	-3.612947	-0.040409	-0.737632
F49	F	-3.719351	-0.037817	-0.980277
H50	H	-3.847642	-0.242371	-1.003810
F51	F	-4.379493	-0.053906	-1.001736
F52	F	-4.505663	-0.307567	-1.042081
H53	H	-4.216956	-0.045805	-0.766828
H54	H	-3.935455	-0.522284	-0.176470
F55	F	-4.266393	-0.537002	-0.272388
F56	F	-3.995460	-0.747962	-0.144976
