data_functionalizedCrystal
_audit_creation_method	'MofGen! by Chris Wilmer'
_symmetry_space_group_name_H-M	'P1'
_symmetry_Int_Tables_number	1
_symmetry_cell_setting	triclinic
loop_
_symmetry_equiv_pos_as_xyz
  x,y,z
_cell_length_a	23.096457
_cell_length_b	17.052862
_cell_length_c	17.052862
_cell_angle_alpha	61.493325
_cell_angle_beta	89.997784
_cell_angle_gamma	70.263778
loop_
_atom_site_label
_atom_site_type_symbol
_atom_site_fract_x
_atom_site_fract_y
_atom_site_fract_z
Zr1	Zr	0.671028	0.816691	-0.200494
O2	O	0.607088	0.944585	-0.328619
O3	O	0.676551	0.665970	-0.146304
O4	O	0.707577	0.783773	-0.307118
O5	O	0.567604	0.860708	-0.057917
O6	O	0.802858	0.783774	-0.307122
O7	O	0.576063	0.826781	-0.167805
O8	O	0.747359	0.573045	-0.019455
O9	O	0.623102	1.071437	-0.345584
O10	O	0.767022	0.736419	-0.141213
O11	O	0.689602	0.761737	-0.059202
O12	O	0.726130	0.900436	-0.248540
O13	O	0.648710	0.925754	-0.166528
Zr14	Zr	0.809499	0.870802	-0.025242
Zr15	Zr	0.822990	0.816693	-0.200501
Zr16	Zr	0.657536	0.870800	-0.025235
Zr17	Zr	0.696568	1.019006	-0.227551
Zr18	Zr	0.783958	0.668487	0.001815
O19	O	0.803975	1.021523	-0.079433
O20	O	0.823159	0.944587	-0.328629
O21	O	0.587905	1.021521	-0.079423
O22	O	0.873439	0.742908	0.102882
O23	O	0.892622	0.665972	-0.146313
O24	O	0.657368	0.742906	0.102892
O25	O	0.912923	0.826785	-0.167820
O26	O	0.772950	0.903720	0.081381
O27	O	0.677669	0.903719	0.081385
O28	O	0.904464	0.860711	-0.057932
O29	O	0.743892	1.071438	-0.345589
O30	O	0.736635	0.616055	0.119853
O31	O	0.857425	0.616056	0.119847
O32	O	0.868149	0.573046	-0.019460
O33	O	0.612378	1.114447	-0.206276
O34	O	0.733167	1.114448	-0.206282
O35	O	0.754396	0.787057	0.022803
O36	O	0.831816	0.761739	-0.059208
O37	O	0.790924	0.925755	-0.166535
O38	O	0.713504	0.951074	-0.084523
C39	C	0.708316	0.590682	-0.079024
C40	C	0.697474	0.504794	-0.067538
C41	C	0.828560	0.209831	-0.206409
C42	C	0.838746	0.290530	-0.217207
C43	C	0.803429	0.344100	-0.179790
C44	C	0.757924	0.316963	-0.131574
C45	C	0.747734	0.236261	-0.120781
C46	C	0.722603	0.370530	-0.094163
C47	C	0.677097	0.343393	-0.045947
C48	C	0.666909	0.262698	-0.035155
C49	C	0.702226	0.209129	-0.072571
C50	C	0.732793	0.451232	-0.104956
C51	C	0.651966	0.477662	-0.019328
C52	C	0.641780	0.396963	-0.008530
C53	C	0.550182	0.843745	-0.112860
C54	C	0.485670	0.843744	-0.112857
C55	C	0.476710	0.758130	-0.056842
C56	C	0.416094	0.758129	-0.056838
C57	C	0.364440	0.843744	-0.112866
C58	C	0.373404	0.929371	-0.168885
C59	C	0.434019	0.929371	-0.168880
N60	N	0.256295	0.895799	-0.192377
N61	N	0.198715	0.895793	-0.192379
C62	C	0.181810	0.843749	-0.112882
N63	N	0.224664	0.791695	-0.033382
N64	N	0.282250	0.791698	-0.033381
C65	C	0.298711	0.843753	-0.112877
C66	C	0.107125	0.758129	-0.056858
C67	C	0.046507	0.758133	-0.056852
C68	C	0.003818	0.929375	-0.168908
C69	C	0.064435	0.929370	-0.168905
C70	C	0.116086	0.843743	-0.112881
C71	C	0.930345	0.843748	-0.112877
C72	C	0.994857	0.843749	-0.112880
C73	C	0.757139	0.776064	-0.332091
C74	C	0.762867	0.753093	-0.406493
C75	C	0.772210	1.096811	-0.146713
C76	C	0.783053	1.182699	-0.158199
C77	C	0.693621	1.030811	-0.840318
C78	C	0.688236	1.052396	-0.770416
C79	C	0.706894	0.977572	-0.679432
C80	C	0.730937	0.881159	-0.658357
C81	C	0.736318	0.859572	-0.728266
C82	C	0.749590	0.806334	-0.567380
C83	C	0.773633	0.709920	-0.546304
C84	C	0.779013	0.688337	-0.616208
C85	C	0.760356	0.763161	-0.707192
C86	C	0.744209	0.827921	-0.497471
C87	C	0.786905	0.656682	-0.385418
C88	C	0.792290	0.635097	-0.455321
C89	C	0.723387	0.911429	0.106354
C90	C	0.717660	0.934400	0.180756
C91	C	0.898398	0.590684	-0.079033
C92	C	0.952067	0.504797	-0.067549
C93	C	0.691440	0.658364	0.140198
C94	C	0.674870	0.595447	0.226087
C95	C	0.881522	0.658366	0.140189
C96	C	0.929464	0.595450	0.226075
C97	C	0.599005	1.029127	-0.365926
C98	C	0.551063	1.092043	-0.451812
C99	C	0.582129	1.096809	-0.146704
C100	C	0.528459	1.182696	-0.158187
C101	C	0.789086	1.029129	-0.365935
C102	C	0.805656	1.092045	-0.451823
C103	C	0.943450	0.451244	-0.104970
C104	C	0.993875	0.370550	-0.094198
C105	C	1.052915	0.343406	-0.045999
C106	C	1.061533	0.396967	-0.008579
C107	C	1.011109	0.477663	-0.019357
C108	C	0.700910	0.579120	0.309234
C109	C	0.685339	0.520016	0.389940
C110	C	0.643731	0.477235	0.387498
C111	C	0.617689	0.493568	0.304342
C112	C	0.633256	0.552677	0.223636
C113	C	0.992396	0.552688	0.223599
C114	C	1.037451	0.493580	0.304289
C115	C	1.019570	0.477231	0.387456
C116	C	0.956631	0.520000	0.389929
C117	C	0.911579	0.579112	0.309239
C118	C	0.488131	1.134815	-0.449337
C119	C	0.443080	1.193948	-0.530030
C120	C	0.460962	1.210301	-0.613197
C121	C	0.523900	1.167527	-0.615671
C122	C	0.568950	1.108401	-0.534979
C123	C	0.537079	1.236255	-0.120776
C124	C	0.486658	1.316965	-0.131570
C125	C	0.427618	1.344111	-0.179771
C126	C	0.419000	1.290548	-0.217188
C127	C	0.469421	1.209843	-0.206399
C128	C	0.847266	1.134809	-0.449352
C129	C	0.862847	1.193917	-0.530045
C130	C	0.836815	1.210267	-0.613209
C131	C	0.795203	1.167496	-0.615678
C132	C	0.779626	1.108383	-0.534985
H133	H	0.693938	0.143412	-0.063777
N134	N	0.412364	1.274059	-0.700222
H135	H	0.433236	1.277931	-0.753289
H136	H	0.391659	1.340974	-0.709118
H137	H	0.734789	0.613948	0.311239
H138	H	0.802095	0.595755	-0.311336
N139	N	0.879774	0.480505	-0.156955
H140	H	0.866509	0.548216	-0.210862
H141	H	0.848221	0.478515	-0.115744
N142	N	0.600757	1.206993	-0.068798
H143	H	0.614022	1.139288	-0.014880
H144	H	0.598514	1.253241	-0.046807
H145	H	0.631060	0.429107	0.453220
N146	N	0.713433	0.502404	0.479622
H147	H	0.742158	0.538468	0.468917
H148	H	0.738144	0.430926	0.521328
H149	H	1.056261	0.429096	0.453152
H150	H	0.942081	0.506679	0.457654
H151	H	0.745742	1.073571	-0.537011
H152	H	0.860336	0.613922	0.311268
N153	N	0.766169	0.739877	-0.782587
H154	H	0.750705	0.801908	-0.843420
H155	H	0.740155	0.701035	-0.777350
N156	N	0.468836	1.117180	-0.359641
H157	H	0.422131	1.153257	-0.370332
H158	H	0.491768	1.140749	-0.330647
H159	H	0.386567	1.409828	-0.188550
H160	H	0.462394	1.166237	-0.236863
H161	H	0.391836	1.228766	-0.527999
H162	H	1.109610	0.374854	0.030664
H163	H	0.538452	1.180850	-0.683395
N164	N	1.107293	0.256362	-0.034377
H165	H	1.123552	0.207289	0.032553
H166	H	1.141851	0.276998	-0.062548
N167	N	0.781870	0.480493	-0.156958
H168	H	0.824294	0.425855	-0.126274
H169	H	0.782913	0.539763	-0.158111
N170	N	0.853612	1.274039	-0.700239
H171	H	0.830808	1.277915	-0.753304
H172	H	0.900347	1.245902	-0.696426
H173	H	0.868468	1.121509	-0.381643
N174	N	0.617831	0.233426	0.016850
H175	H	0.575405	0.288061	-0.013828
H176	H	0.628527	0.218415	0.081202
H177	H	0.583810	0.458728	0.302367
H178	H	0.620191	1.073573	-0.537004
H179	H	0.604729	0.374857	0.030727
N180	N	0.907729	1.240039	-0.527370
H181	H	0.921849	1.220715	-0.462440
H182	H	0.885970	1.312671	-0.565344
N183	N	1.020409	0.535421	0.021006
H184	H	0.991830	0.534678	0.065969
H185	H	1.010177	0.604278	-0.029141
H186	H	0.493686	1.360566	-0.101095
N187	N	0.406432	0.665774	0.003573
H188	H	0.385407	0.649259	-0.035114
H189	H	0.379081	0.674714	0.047237
H190	H	0.623207	0.521281	0.011137
H191	H	0.774011	1.180817	-0.683402
N192	N	0.355316	1.319819	-0.269157
H193	H	0.324685	1.379065	-0.270299
H194	H	0.340195	1.265123	-0.238419
H195	H	0.811725	0.409807	-0.188585
H196	H	0.875795	0.312622	-0.256465
N197	N	0.532413	0.665773	0.003585
H198	H	0.528023	0.641049	0.069247
H199	H	0.572149	0.678823	-0.004983
N200	N	0.866639	0.152068	-0.246777
H201	H	0.853275	0.096834	-0.232627
H202	H	0.912600	0.125578	-0.219841
N203	N	1.105330	0.447455	0.301609
H204	H	1.109815	0.466778	0.236679
H205	H	1.119785	0.374824	0.339585
H206	H	0.612051	0.565960	0.155938
H207	H	0.331343	0.999079	-0.214503
H208	H	0.441310	0.999092	-0.214493
N209	N	1.011690	0.570304	0.133906
H210	H	1.058396	0.534240	0.144594
H211	H	1.000758	0.641783	0.092197
H212	H	0.149181	0.688411	-0.011223
H213	H	-0.038239	0.999084	-0.214527
N214	N	0.036844	0.665783	0.003563
H215	H	-0.009393	0.678775	-0.004936
H216	H	0.053592	0.641098	0.069202
N217	N	0.074104	1.021709	-0.229333
H218	H	0.032185	1.075946	-0.264830
H219	H	0.101495	1.012718	-0.272940
H220	H	0.702507	0.995153	-0.622518
N221	N	0.718284	0.931900	-0.520197
H222	H	0.674191	0.965574	-0.556855
H223	H	0.745630	0.965493	-0.556826
H224	H	0.678429	1.091722	-0.914398
N225	N	0.662314	1.156375	-0.793142
H226	H	0.618221	1.190053	-0.829803
H227	H	0.689662	1.189964	-0.829769
N228	N	0.804952	0.584352	-0.593481
H229	H	0.815961	0.540226	-0.525238
H230	H	0.843812	0.571689	-0.620054
N231	N	0.818221	0.531114	-0.432600
H232	H	0.785709	0.518340	-0.459105
H233	H	0.829232	0.487049	-0.364352
H234	H	0.986846	0.326949	-0.124672
