data_functionalizedCrystal
_audit_creation_method	'MofGen! by Chris Wilmer'
_symmetry_space_group_name_H-M	'P1'
_symmetry_Int_Tables_number	1
_symmetry_cell_setting	triclinic
loop_
_symmetry_equiv_pos_as_xyz
  x,y,z
_cell_length_a	18.101398
_cell_length_b	21.295417
_cell_length_c	18.101389
_cell_angle_alpha	89.977434
_cell_angle_beta	89.975673
_cell_angle_gamma	90.025773
loop_
_atom_site_label
_atom_site_type_symbol
_atom_site_fract_x
_atom_site_fract_y
_atom_site_fract_z
Zn1	Zn	1.132124	-0.250755	-0.418817
Zn2	Zn	1.465457	0.082579	-0.085484
Zn3	Zn	1.798791	0.415912	0.247849
Zn4	Zn	1.132021	-0.356008	-0.294967
Zn5	Zn	1.465355	-0.022675	0.038366
Zn6	Zn	1.798688	0.310658	0.371700
Zn7	Zn	1.008283	-0.250748	-0.294979
Zn8	Zn	1.341616	0.082585	0.038355
Zn9	Zn	1.674950	0.415919	0.371688
Zn10	Zn	1.008235	-0.355981	-0.418755
Zn11	Zn	1.341568	-0.022648	-0.085422
Zn12	Zn	1.674902	0.310685	0.247911
O13	O	1.070166	-0.303373	-0.356880
O14	O	1.403499	0.029960	-0.023546
O15	O	1.736832	0.363294	0.309787
O16	O	1.235743	-0.264731	-0.402409
O17	O	1.569077	0.068603	-0.069076
O18	O	1.902410	0.401936	0.264257
O19	O	1.115584	-0.342054	-0.191335
O20	O	1.448917	-0.008720	0.141998
O21	O	1.782251	0.324613	0.475331
O22	O	1.024774	-0.162660	-0.311437
O23	O	1.358107	0.170674	0.021897
O24	O	1.691441	0.504007	0.355230
O25	O	1.235668	-0.342060	-0.311417
O26	O	1.569001	-0.008727	0.021916
O27	O	1.902334	0.324607	0.355250
O28	O	1.115759	-0.162664	-0.402421
O29	O	1.449093	0.170669	-0.069087
O30	O	1.782426	0.504002	0.264246
O31	O	1.024674	-0.264720	-0.191344
O32	O	1.358008	0.068614	0.141989
O33	O	1.691341	0.401947	0.475323
O34	O	0.904644	-0.264694	-0.311377
O35	O	1.237977	0.068640	0.021957
O36	O	1.571310	0.401973	0.355290
O37	O	1.024692	-0.342014	-0.522397
O38	O	1.358025	-0.008681	-0.189063
O39	O	1.691359	0.324652	0.144270
O40	O	0.904609	-0.342008	-0.402315
O41	O	1.237942	-0.008675	-0.068982
O42	O	1.571275	0.324659	0.264352
O43	O	1.115713	-0.264705	-0.522442
O44	O	1.449046	0.068629	-0.189109
O45	O	1.782380	0.401962	0.144225
O46	O	1.115538	-0.444094	-0.311357
O47	O	1.448871	-0.110761	0.021976
O48	O	1.782204	0.222573	0.355310
O49	O	1.024592	-0.444074	-0.402304
O50	O	1.357926	-0.110741	-0.068971
O51	O	1.691259	0.222592	0.264363
C52	C	0.877755	-0.303348	-0.356841
C53	C	1.211089	0.029986	-0.023508
C54	C	1.544422	0.363319	0.309826
C55	C	0.795441	-0.303352	-0.356842
C56	C	1.128775	0.029982	-0.023509
C57	C	1.462108	0.363315	0.309825
C58	C	0.496350	-0.303391	-0.356904
C59	C	0.829684	0.029942	-0.023571
C60	C	1.163017	0.363276	0.309762
C61	C	0.527673	-0.254504	-0.299967
C62	C	0.861006	0.078829	0.033366
C63	C	1.194340	0.412163	0.366699
C64	C	0.613291	-0.254635	-0.299724
C65	C	0.946624	0.078698	0.033609
C66	C	1.279958	0.412032	0.366942
C67	C	0.644733	-0.303371	-0.356873
C68	C	0.978066	0.029962	-0.023540
C69	C	1.311399	0.363296	0.309793
C70	C	0.613615	-0.369679	-0.335543
C71	C	0.946949	-0.036346	-0.002210
C72	C	1.280282	0.296988	0.331124
C73	C	0.527970	-0.369407	-0.335147
C74	C	0.861304	-0.036074	-0.001814
C75	C	1.194637	0.297259	0.331519
C76	C	0.527965	-0.286547	-0.435305
C77	C	0.861298	0.046786	-0.101972
C78	C	1.194631	0.380120	0.231362
C79	C	0.613615	-0.285070	-0.434877
C80	C	0.946949	0.048263	-0.101544
C81	C	1.280282	0.381597	0.231789
C82	C	0.728592	-0.303364	-0.356857
C83	C	1.061926	0.029970	-0.023524
C84	C	1.395259	0.363303	0.309810
C85	C	0.412491	-0.303403	-0.356919
C86	C	0.745824	0.029931	-0.023585
C87	C	1.079157	0.363264	0.309748
C88	C	1.070069	-0.466925	-0.356839
C89	C	1.403402	-0.133591	-0.023505
C90	C	1.736735	0.199742	0.309828
C91	C	1.070095	-0.536893	-0.356846
C92	C	1.403428	-0.203559	-0.023512
C93	C	1.736762	0.129774	0.309821
C94	C	1.117492	-0.569749	-0.309538
C95	C	1.450826	-0.236416	0.023795
C96	C	1.784159	0.096918	0.357128
C97	C	1.117527	-0.635491	-0.309555
C98	C	1.450860	-0.302158	0.023778
C99	C	1.784194	0.031175	0.357112
C100	C	1.070151	-0.668375	-0.356871
C101	C	1.403484	-0.335042	-0.023538
C102	C	1.736818	-0.001709	0.309795
C103	C	1.022751	-0.635511	-0.404188
C104	C	1.356084	-0.302178	-0.070855
C105	C	1.689417	0.031155	0.262479
C106	C	1.022722	-0.569770	-0.404175
C107	C	1.356056	-0.236437	-0.070842
C108	C	1.689389	0.096897	0.262491
N109	N	1.005367	-0.771637	-0.362504
N110	N	1.338700	-0.438304	-0.029171
N111	N	1.672034	-0.104971	0.304163
N112	N	1.005396	-0.834089	-0.362512
N113	N	1.338729	-0.500755	-0.029178
N114	N	1.672062	-0.167422	0.304155
C115	C	1.070234	-0.866450	-0.356914
C116	C	1.403567	-0.533117	-0.023580
C117	C	1.736901	-0.199783	0.309753
N118	N	1.135044	-0.834001	-0.351293
N119	N	1.468377	-0.500667	-0.017960
N120	N	1.801711	-0.167334	0.315374
N121	N	1.135014	-0.771543	-0.351282
N122	N	1.468348	-0.438210	-0.017948
N123	N	1.801681	-0.104877	0.315385
C124	C	1.070177	-0.739661	-0.356891
C125	C	1.403510	-0.406327	-0.023557
C126	C	1.736843	-0.072994	0.309776
C127	C	1.117673	-0.970592	-0.309622
C128	C	1.451006	-0.637258	0.023712
C129	C	1.784340	-0.303925	0.357045
C130	C	1.117709	-1.036335	-0.309644
C131	C	1.451042	-0.703002	0.023690
C132	C	1.784376	-0.369669	0.357023
C133	C	1.022926	-1.036354	-0.404273
C134	C	1.356259	-0.703021	-0.070940
C135	C	1.689593	-0.369687	0.262394
C136	C	1.022897	-0.970612	-0.404255
C137	C	1.356230	-0.637278	-0.070922
C138	C	1.689563	-0.303945	0.262412
C139	C	1.070269	-0.937734	-0.356925
C140	C	1.403602	-0.604401	-0.023592
C141	C	1.736936	-0.271068	0.309741
C142	C	1.263328	-0.303399	-0.356919
C143	C	1.596661	0.029934	-0.023585
C144	C	1.929994	0.363267	0.309748
C145	C	1.345642	-0.303410	-0.356935
C146	C	1.678975	0.029923	-0.023602
C147	C	2.012308	0.363256	0.309731
C148	C	1.070209	-0.303357	-0.550042
C149	C	1.403542	0.029976	-0.216708
C150	C	1.736875	0.363310	0.116625
C151	C	1.070227	-0.303350	-0.632356
C152	C	1.403560	0.029983	-0.299022
C153	C	1.736894	0.363316	0.034311
C154	C	1.070283	-0.139183	-0.356937
C155	C	1.403617	0.194151	-0.023604
C156	C	1.736950	0.527484	0.309730
C157	C	1.070334	-0.069215	-0.356961
C158	C	1.403667	0.264119	-0.023628
C159	C	1.737000	0.597452	0.309705
C160	C	1.070270	-0.303232	-0.931447
C161	C	1.403603	0.030101	-0.598114
C162	C	1.736937	0.363434	-0.264780
C163	C	1.012805	-0.351719	-0.900093
C164	C	1.346138	-0.018385	-0.566760
C165	C	1.679472	0.314948	-0.233426
C166	C	1.012960	-0.351944	-0.814475
C167	C	1.346294	-0.018610	-0.481141
C168	C	1.679627	0.314723	-0.147808
C169	C	1.070248	-0.303291	-0.783064
C170	C	1.403581	0.030042	-0.449731
C171	C	1.736915	0.363376	-0.116398
C172	C	1.148274	-0.321303	-0.814168
C173	C	1.481607	0.012030	-0.480835
C174	C	1.814940	0.345364	-0.147502
C175	C	1.147953	-0.321621	-0.899813
C176	C	1.481287	0.011712	-0.566480
C177	C	1.814620	0.345045	-0.233147
C178	C	1.050388	-0.236626	-0.899877
C179	C	1.383721	0.096707	-0.566543
C180	C	1.717054	0.430041	-0.233210
C181	C	1.048652	-0.237011	-0.814226
C182	C	1.381985	0.096323	-0.480892
C183	C	1.715318	0.429656	-0.147559
C184	C	1.070240	-0.303323	-0.699205
C185	C	1.403574	0.030010	-0.365871
C186	C	1.736907	0.363344	-0.032538
C187	C	1.070283	-0.303202	-1.015306
C188	C	1.403616	0.030131	-0.681973
C189	C	1.736950	0.363465	-0.348640
C190	C	1.070166	-0.303344	-0.164469
C191	C	1.403499	0.029990	0.168864
C192	C	1.736832	0.363323	0.502198
C193	C	1.070291	-0.303173	-0.082155
C194	C	1.403624	0.030160	0.251178
C195	C	1.736958	0.363494	0.584511
H196	H	0.507249	-0.407065	-0.374809
H197	H	0.840582	-0.073731	-0.041475
H198	H	1.173915	0.259602	0.291858
H199	H	1.156249	-0.943822	-0.271085
H200	H	1.489582	-0.610489	0.062248
H201	H	1.822916	-0.277155	0.395581
C202	C	0.970750	-0.934468	-0.456284
C203	C	1.304083	-0.601135	-0.122951
C204	C	1.637416	-0.267801	0.210382
H205	H	0.942534	-0.963466	-0.484463
H206	H	1.275867	-0.630133	-0.151130
H207	H	1.609200	-0.296800	0.182204
H208	H	0.999045	-0.908785	-0.488576
H209	H	1.332378	-0.575452	-0.155243
H210	H	1.665711	-0.242118	0.178091
H211	H	0.938486	-0.908861	-0.427910
H212	H	1.271820	-0.575528	-0.094576
H213	H	1.605153	-0.242194	0.238757
C214	C	1.169848	-1.072477	-0.257602
C215	C	1.503181	-0.739144	0.075731
C216	C	1.836515	-0.405811	0.409065
H217	H	1.198050	-1.043479	-0.229410
H218	H	1.531383	-0.710145	0.103924
H219	H	1.864717	-0.376812	0.437257
H220	H	1.202114	-1.098086	-0.285965
H221	H	1.535447	-0.764753	0.047369
H222	H	1.868780	-0.431420	0.380702
H223	H	1.141541	-1.098158	-0.225312
H224	H	1.474875	-0.764825	0.108021
H225	H	1.808208	-0.431491	0.441354
C226	C	0.641119	-0.219165	-0.456626
C227	C	0.974452	0.114169	-0.123293
C228	C	1.307785	0.447502	0.210040
H229	H	0.622114	-0.208364	-0.503865
H230	H	0.955447	0.124969	-0.170531
H231	H	1.288781	0.458303	0.162802
H232	H	0.693571	-0.219039	-0.458279
H233	H	1.026905	0.114294	-0.124945
H234	H	1.360238	0.447628	0.208388
H235	H	0.624634	-0.189430	-0.421158
H236	H	0.957967	0.143903	-0.087825
H237	H	1.291301	0.477236	0.245509
C238	C	0.500599	-0.334645	-0.492617
C239	C	0.833932	-0.001311	-0.159284
C240	C	1.167266	0.332022	0.174049
H241	H	0.470054	-0.364846	-0.468922
H242	H	0.803388	-0.031513	-0.135589
H243	H	1.136721	0.301821	0.197745
H244	H	0.541783	-0.355123	-0.514455
H245	H	0.875116	-0.021790	-0.181121
H246	H	1.208449	0.311543	0.152212
H247	H	0.473059	-0.313636	-0.529824
H248	H	0.806393	0.019697	-0.196491
H249	H	1.139726	0.353031	0.136843
H250	H	0.633745	-0.265769	-0.241630
H251	H	0.967078	0.067564	0.091703
H252	H	1.300411	0.400897	0.425036
C253	C	1.170720	-0.387395	-0.926812
C254	C	1.504054	-0.054061	-0.593478
C255	C	1.837387	0.279272	-0.260145
H256	H	1.170730	-0.388168	-0.979287
H257	H	1.504063	-0.054835	-0.645954
H258	H	1.837397	0.278499	-0.312621
H259	H	1.136656	-0.417648	-0.908674
H260	H	1.469990	-0.084315	-0.575341
H261	H	1.803323	0.249019	-0.242007
H262	H	1.218832	-0.396941	-0.909135
H263	H	1.552165	-0.063608	-0.575802
H264	H	1.885499	0.269725	-0.242468
C265	C	0.970817	-1.072518	-0.456324
C266	C	1.304150	-0.739185	-0.122990
C267	C	1.637484	-0.405852	0.210343
H268	H	0.977620	-1.116378	-0.449555
H269	H	1.310953	-0.783044	-0.116222
H270	H	1.644286	-0.449711	0.217112
H271	H	0.981622	-1.061711	-0.506089
H272	H	1.314956	-0.728377	-0.172756
H273	H	1.648289	-0.395044	0.160577
H274	H	0.921057	-1.061786	-0.445430
H275	H	1.254390	-0.728453	-0.112097
H276	H	1.587723	-0.395119	0.221237
C277	C	0.934802	-0.336708	-0.786059
C278	C	1.268135	-0.003375	-0.452725
C279	C	1.601469	0.329958	-0.119392
H280	H	0.902668	-0.330329	-0.826858
H281	H	1.236002	0.003004	-0.493525
H282	H	1.569335	0.336337	-0.160191
H283	H	0.936390	-0.299708	-0.756806
H284	H	1.269723	0.033625	-0.423473
H285	H	1.603057	0.366958	-0.090139
H286	H	0.917122	-0.370698	-0.756992
H287	H	1.250455	-0.037364	-0.423659
H288	H	1.583789	0.295969	-0.090325
C289	C	0.934404	-0.336647	-0.927895
C290	C	1.267737	-0.003314	-0.594562
C291	C	1.601071	0.330020	-0.261228
H292	H	0.936012	-0.300652	-0.958878
H293	H	1.269345	0.032681	-0.625545
H294	H	1.602678	0.366014	-0.292212
H295	H	0.903018	-0.328608	-0.886908
H296	H	1.236351	0.004726	-0.553575
H297	H	1.569684	0.338059	-0.220241
H298	H	0.915818	-0.371382	-0.955069
H299	H	1.249152	-0.038049	-0.621736
H300	H	1.582485	0.295284	-0.288403
H301	H	1.087452	-0.198968	-0.792845
H302	H	1.420786	0.134366	-0.459512
H303	H	1.754119	0.467699	-0.126178
C304	C	0.642516	-0.329674	-0.495258
C305	C	0.975850	0.003659	-0.161925
C306	C	1.309183	0.336993	0.171409
H307	H	0.674076	-0.360180	-0.473588
H308	H	1.007409	-0.026847	-0.140255
H309	H	1.340743	0.306487	0.193078
H310	H	0.669293	-0.306266	-0.531048
H311	H	1.002626	0.027067	-0.197715
H312	H	1.335959	0.360400	0.135619
H313	H	0.602002	-0.350109	-0.518380
H314	H	0.935335	-0.016776	-0.185046
H315	H	1.268668	0.316557	0.148287
C316	C	0.500928	-0.388708	-0.257724
C317	C	0.834262	-0.055374	0.075609
C318	C	1.167595	0.277959	0.408942
H319	H	0.448452	-0.388717	-0.256802
H320	H	0.781785	-0.055384	0.076532
H321	H	1.115119	0.277950	0.409865
H322	H	0.519045	-0.359729	-0.222192
H323	H	0.852379	-0.026396	0.111141
H324	H	1.185712	0.306937	0.444475
H325	H	0.518599	-0.429596	-0.246420
H326	H	0.851932	-0.096262	0.086913
H327	H	1.185266	0.237071	0.420247
C328	C	1.030350	-0.418006	-0.929172
C329	C	1.363684	-0.084673	-0.595838
C330	C	1.697017	0.248660	-0.262505
H331	H	1.072547	-0.416262	-0.960334
H332	H	1.405880	-0.082929	-0.627000
H333	H	1.739214	0.250405	-0.293667
H334	H	0.989341	-0.433438	-0.956410
H335	H	1.322674	-0.100105	-0.623077
H336	H	1.656008	0.233229	-0.289744
H337	H	1.040001	-0.445212	-0.888709
H338	H	1.373335	-0.111879	-0.555375
H339	H	1.706668	0.221455	-0.222042
H340	H	1.026087	-0.401314	-0.793988
H341	H	1.359420	-0.067981	-0.460655
H342	H	1.692753	0.265352	-0.127321
C343	C	1.207763	-0.275998	-0.927840
C344	C	1.541096	0.057335	-0.594507
C345	C	1.874429	0.390669	-0.261173
H346	H	1.232152	-0.257355	-0.886881
H347	H	1.565485	0.075978	-0.553548
H348	H	1.898819	0.409311	-0.220214
H349	H	1.185407	-0.244152	-0.956996
H350	H	1.518740	0.089181	-0.623663
H351	H	1.852073	0.422515	-0.290329
H352	H	1.242641	-0.298351	-0.956923
H353	H	1.575974	0.034983	-0.623590
H354	H	1.909308	0.368316	-0.290256
H355	H	0.635030	-0.384213	-0.278847
H356	H	0.968364	-0.050880	0.054486
H357	H	1.301697	0.282454	0.387820
C358	C	1.169660	-0.671641	-0.257509
C359	C	1.502993	-0.338307	0.075824
C360	C	1.836327	-0.004974	0.409158
H361	H	1.197865	-0.642644	-0.229316
H362	H	1.531198	-0.309311	0.104017
H363	H	1.864531	0.024022	0.437350
H364	H	1.201923	-0.697254	-0.285869
H365	H	1.535257	-0.363921	0.047464
H366	H	1.868590	-0.030588	0.380798
H367	H	1.141347	-0.697318	-0.225220
H368	H	1.474681	-0.363984	0.108114
H369	H	1.808014	-0.030651	0.441447
C370	C	1.207672	-0.275102	-0.786684
C371	C	1.541005	0.058232	-0.453351
C372	C	1.874338	0.391565	-0.120017
H373	H	1.185360	-0.244345	-0.755919
H374	H	1.518693	0.088988	-0.422586
H375	H	1.852027	0.422322	-0.089252
H376	H	1.230280	-0.255106	-0.827811
H377	H	1.563614	0.078228	-0.494478
H378	H	1.896947	0.411561	-0.161145
H379	H	1.244015	-0.297354	-0.759350
H380	H	1.577348	0.035980	-0.426017
H381	H	1.910681	0.369313	-0.092684
H382	H	0.984178	-0.662290	-0.442715
H383	H	1.317512	-0.328956	-0.109381
H384	H	1.650845	0.004377	0.223952
C385	C	1.171437	-0.386382	-0.785207
C386	C	1.504771	-0.053049	-0.451873
C387	C	1.838104	0.280284	-0.118540
H388	H	1.133669	-0.402663	-0.754168
H389	H	1.467002	-0.069330	-0.420835
H390	H	1.800335	0.264004	-0.087502
H391	H	1.216002	-0.382642	-0.757863
H392	H	1.549335	-0.049309	-0.424530
H393	H	1.882668	0.284025	-0.091196
H394	H	1.178916	-0.413997	-0.825728
H395	H	1.512249	-0.080664	-0.492395
H396	H	1.845582	0.252669	-0.159061
H397	H	0.994480	-0.220216	-0.921464
H398	H	1.327814	0.113117	-0.588131
H399	H	1.661147	0.446450	-0.254797
C400	C	0.971088	-0.218653	-0.786755
C401	C	1.304422	0.114680	-0.453421
C402	C	1.637755	0.448013	-0.120088
H403	H	0.951942	-0.251240	-0.756417
H404	H	1.285275	0.082093	-0.423084
H405	H	1.618608	0.415427	-0.089751
H406	H	0.939352	-0.212496	-0.827903
H407	H	1.272685	0.120837	-0.494570
H408	H	1.606019	0.454171	-0.161237
H409	H	0.974125	-0.180901	-0.758976
H410	H	1.307458	0.152432	-0.425642
H411	H	1.640792	0.485766	-0.092309
H412	H	0.633980	-0.407079	-0.375715
H413	H	0.967314	-0.073746	-0.042382
H414	H	1.300647	0.259588	0.290952
H415	H	0.506392	-0.239037	-0.454697
H416	H	0.839725	0.094296	-0.121364
H417	H	1.173059	0.427629	0.211969
C418	C	1.106919	-0.187821	-0.927281
C419	C	1.440252	0.145512	-0.593948
C420	C	1.773585	0.478845	-0.260615
H421	H	1.142467	-0.207904	-0.957814
H422	H	1.475800	0.125429	-0.624481
H423	H	1.809134	0.458762	-0.291147
H424	H	1.130996	-0.169229	-0.886114
H425	H	1.464329	0.164104	-0.552781
H426	H	1.797663	0.497437	-0.219447
H427	H	1.082165	-0.156228	-0.954842
H428	H	1.415498	0.177105	-0.621509
H429	H	1.748832	0.510439	-0.288175
C430	C	1.169608	-0.533587	-0.257486
C431	C	1.502941	-0.200254	0.075847
C432	C	1.836275	0.133079	0.409180
H433	H	1.197846	-0.562575	-0.229319
H434	H	1.531180	-0.229242	0.104015
H435	H	1.864513	0.104092	0.437348
H436	H	1.141291	-0.507974	-0.225185
H437	H	1.474624	-0.174640	0.108148
H438	H	1.807958	0.158693	0.441482
H439	H	1.201852	-0.507909	-0.285850
H440	H	1.535185	-0.174576	0.047484
H441	H	1.868518	0.158757	0.380817
H442	H	0.984125	-0.543018	-0.442700
H443	H	1.317459	-0.209685	-0.109366
H444	H	1.650792	0.123649	0.223967
H445	H	0.507102	-0.205183	-0.313191
H446	H	0.840435	0.128150	0.020142
H447	H	1.173769	0.461483	0.353476
C448	C	0.641718	-0.188209	-0.317770
C449	C	0.975052	0.145125	0.015563
C450	C	1.308385	0.478458	0.348897
H451	H	0.600924	-0.160899	-0.325313
H452	H	0.934257	0.172434	0.008020
H453	H	1.267590	0.505767	0.341354
H454	H	0.671000	-0.189578	-0.361301
H455	H	1.004333	0.143755	-0.027968
H456	H	1.337667	0.477089	0.305366
H457	H	0.670758	-0.173161	-0.277813
H458	H	1.004092	0.160173	0.055521
H459	H	1.337425	0.493506	0.388854
H460	H	0.506124	-0.265512	-0.242211
H461	H	0.839457	0.067821	0.091122
H462	H	1.172790	0.401154	0.424455
