data_functionalizedCrystal
_audit_creation_method	'MofGen! by Chris Wilmer'
_symmetry_space_group_name_H-M	'P1'
_symmetry_Int_Tables_number	1
_symmetry_cell_setting	triclinic
loop_
_symmetry_equiv_pos_as_xyz
  x,y,z
_cell_length_a	12.759400
_cell_length_b	19.805407
_cell_length_c	12.759393
_cell_angle_alpha	90.030194
_cell_angle_beta	89.970739
_cell_angle_gamma	89.987354
loop_
_atom_site_label
_atom_site_type_symbol
_atom_site_fract_x
_atom_site_fract_y
_atom_site_fract_z
Zn1	Zn	-0.418254	-1.034821	-0.594289
Zn2	Zn	0.081746	-0.534821	-0.094289
Zn3	Zn	-0.593970	-1.034753	-0.418612
Zn4	Zn	-0.093970	-0.534753	0.081388
Zn5	Zn	-0.418301	-0.921628	-0.418595
Zn6	Zn	0.081699	-0.421628	0.081405
Zn7	Zn	-0.593887	-0.921624	-0.594221
Zn8	Zn	-0.093887	-0.421624	-0.094221
O9	O	-0.506103	-0.978207	-0.506429
O10	O	-0.006103	-0.478207	-0.006429
O11	O	-0.441578	-1.129529	-0.571020
O12	O	0.058422	-0.629529	-0.071020
O13	O	-0.570721	-1.019719	-0.271589
O14	O	-0.070721	-0.519719	0.228411
O15	O	-0.271274	-0.936674	-0.441922
O16	O	0.228726	-0.436674	0.058078
O17	O	-0.570675	-1.129478	-0.441952
O18	O	-0.070675	-0.629478	0.058048
O19	O	-0.271239	-1.019837	-0.571004
O20	O	0.228761	-0.519837	-0.071004
O21	O	-0.441658	-0.936607	-0.271577
O22	O	0.058342	-0.436607	0.228423
O23	O	-0.441578	-0.826911	-0.441857
O24	O	0.058422	-0.326911	0.058143
O25	O	-0.570535	-0.936667	-0.741251
O26	O	-0.070535	-0.436667	-0.241251
O27	O	-0.570581	-0.826908	-0.570889
O28	O	-0.070581	-0.326908	-0.070889
O29	O	-0.441498	-1.019833	-0.741301
O30	O	0.058502	-0.519833	-0.241301
O31	O	-0.740980	-1.019715	-0.441886
O32	O	-0.240980	-0.519715	0.058114
O33	O	-0.740919	-0.936600	-0.570905
O34	O	-0.240919	-0.436600	-0.070905
C35	C	-0.506076	-0.802351	-0.506365
C36	C	-0.006076	-0.302351	-0.006365
C37	C	-0.506090	-0.727119	-0.506362
C38	C	-0.006090	-0.227119	-0.006362
C39	C	-0.573389	-0.265344	-0.573542
C40	C	-0.073389	0.234656	-0.073542
C41	C	-0.573388	-0.336032	-0.573523
C42	C	-0.073388	0.163968	-0.073523
C43	C	-0.506118	-0.371357	-0.506440
C44	C	-0.006118	0.128643	-0.006440
C45	C	-0.438852	-0.335989	-0.439363
C46	C	0.061148	0.164011	0.060637
C47	C	-0.438858	-0.265302	-0.439377
C48	C	0.061142	0.234698	0.060623
C49	C	-0.438824	-0.621063	-0.439304
C50	C	0.061176	-0.121063	0.060696
C51	C	-0.438821	-0.691755	-0.439297
C52	C	0.061179	-0.191755	0.060703
C53	C	-0.573354	-0.691793	-0.573450
C54	C	-0.073354	-0.191793	-0.073450
C55	C	-0.573361	-0.621105	-0.573464
C56	C	-0.073361	-0.121105	-0.073464
C57	C	-0.506099	-0.585744	-0.506384
C58	C	-0.006099	-0.085744	-0.006384
C59	C	-0.506102	-0.509096	-0.506403
C60	C	-0.006102	-0.009096	-0.006403
C61	C	-0.506109	-0.448004	-0.506425
C62	C	-0.006109	0.051996	-0.006425
C63	C	-0.779070	-0.978168	-0.506413
C64	C	-0.279070	-0.478168	-0.006413
C65	C	-0.895847	-0.978214	-0.506442
C66	C	-0.395847	-0.478214	-0.006442
C67	C	-1.060338	-1.021531	-0.573734
C68	C	-0.560338	-0.521531	-0.073734
C69	C	-0.950614	-1.021497	-0.573710
C70	C	-0.450614	-0.521497	-0.073710
C71	C	-0.950810	-0.934968	-0.439185
C72	C	-0.450810	-0.434968	0.060815
C73	C	-1.060532	-0.935007	-0.439205
C74	C	-0.560532	-0.435007	0.060795
C75	C	-0.232070	-0.978263	-0.506469
C76	C	0.267930	-0.478263	-0.006469
C77	C	-0.115293	-0.978287	-0.506485
C78	C	0.384707	-0.478287	-0.006485
C79	C	-0.506002	-0.978257	-0.780463
C80	C	-0.006002	-0.478257	-0.280463
C81	C	-0.505959	-0.978279	-0.897240
C82	C	-0.005959	-0.478279	-0.397240
C83	C	-0.506126	-0.154749	-0.506482
C84	C	-0.006126	0.345251	-0.006482
C85	C	-0.506125	-0.229981	-0.506472
C86	C	-0.006125	0.270019	-0.006472
C87	C	-0.438759	-1.021586	-0.952129
C88	C	0.061241	-0.521586	-0.452129
C89	C	-0.438714	-1.021598	-1.061853
C90	C	0.061286	-0.521598	-0.561853
C91	C	-0.573078	-0.934992	-1.061789
C92	C	-0.073078	-0.434992	-0.561789
C93	C	-0.573117	-0.934978	-0.952067
C94	C	-0.073117	-0.434978	-0.452067
C95	C	-0.506128	-0.978195	-0.233462
C96	C	-0.006128	-0.478195	0.266538
C97	C	-0.505875	-0.978305	-0.116686
C98	C	-0.005875	-0.478305	0.383314
H99	H	-0.384084	-0.364756	-0.384738
H100	H	0.115916	0.135244	0.115262
H101	H	-0.384059	-0.592280	-0.384679
H102	H	0.115941	-0.092280	0.115321
H103	H	-0.627839	-0.899707	-0.907375
H104	H	-0.127839	-0.399707	-0.407375
H105	H	-0.384072	-1.056843	-0.907492
H106	H	0.115928	-0.556843	-0.407492
O107	O	-0.646018	-0.227244	-0.645823
O108	O	-0.146018	0.272756	-0.145823
H109	H	-0.692824	-0.263713	-0.692422
H110	H	-0.192824	0.236287	-0.192422
O111	O	-0.366235	-1.068305	-1.121066
O112	O	0.133765	-0.568305	-0.621066
H113	H	-0.384279	-1.121422	-1.100047
H114	H	0.115721	-0.621422	-0.600047
H115	H	-1.104921	-1.056771	-0.628523
H116	H	-0.604921	-0.556771	-0.128523
O117	O	-0.645513	-0.888291	-1.120922
O118	O	-0.145513	-0.388291	-0.620922
H119	H	-0.634203	-0.895579	-1.206441
H120	H	-0.134203	-0.395579	-0.706441
H121	H	-0.628163	-0.364821	-0.628135
H122	H	-0.128163	0.135179	-0.128135
H123	H	-0.628136	-0.592348	-0.628094
H124	H	-0.128136	-0.092348	-0.128094
H125	H	-0.384083	-0.236511	-0.384765
H126	H	0.115917	0.263489	0.115235
O127	O	-0.645907	-0.729936	-0.645797
O128	O	-0.145907	-0.229936	-0.145797
H129	H	-0.692673	-0.693496	-0.692455
H130	H	-0.192673	-0.193496	-0.192455
O131	O	-1.119821	-0.888366	-0.366667
O132	O	-0.619821	-0.388366	0.133333
H133	H	-1.098828	-0.835228	-0.384597
H134	H	-0.598828	-0.335228	0.115403
O135	O	-0.366276	-0.729853	-0.366917
O136	O	0.133724	-0.229853	0.133083
H137	H	-0.283837	-0.716299	-0.385053
H138	H	0.216163	-0.216299	0.114947
O139	O	-0.891337	-1.068147	-0.646229
O140	O	-0.391337	-0.568147	-0.146229
H141	H	-0.947853	-1.098247	-0.693012
H142	H	-0.447853	-0.598247	-0.193012
O143	O	-0.891748	-0.888283	-0.366627
O144	O	-0.391748	-0.388283	0.133373
H145	H	-0.806218	-0.895515	-0.377918
H146	H	-0.306218	-0.395515	0.122082
