data_functionalizedCrystal
_audit_creation_method	'MofGen! by Chris Wilmer'
_symmetry_space_group_name_H-M	'P1'
_symmetry_Int_Tables_number	1
_symmetry_cell_setting	triclinic
loop_
_symmetry_equiv_pos_as_xyz
  x,y,z
_cell_length_a	18.215407
_cell_length_b	19.805405
_cell_length_c	18.215399
_cell_angle_alpha	90.028795
_cell_angle_beta	89.982632
_cell_angle_gamma	89.974829
loop_
_atom_site_label
_atom_site_type_symbol
_atom_site_fract_x
_atom_site_fract_y
_atom_site_fract_z
Zn1	Zn	1.125057	0.269516	-0.416063
Zn2	Zn	1.625057	0.769516	0.083937
Zn3	Zn	1.124960	0.382707	-0.292995
Zn4	Zn	1.624960	0.882707	0.207005
Zn5	Zn	1.001990	0.269533	-0.293016
Zn6	Zn	1.501990	0.769533	0.206984
Zn7	Zn	1.001950	0.382664	-0.416025
Zn8	Zn	1.501950	0.882664	0.083975
O9	O	1.063489	0.326105	-0.354525
O10	O	1.563489	0.826105	0.145475
O11	O	1.228029	0.284543	-0.399745
O12	O	1.728029	0.784543	0.100255
O13	O	1.108623	0.367719	-0.190013
O14	O	1.608623	0.867719	0.309987
O15	O	1.018373	0.174814	-0.309363
O16	O	1.518373	0.674814	0.190637
O17	O	1.227957	0.367704	-0.309327
O18	O	1.727957	0.867704	0.190673
O19	O	1.108790	0.174802	-0.399765
O20	O	1.608790	0.674802	0.100235
O21	O	1.018278	0.284570	-0.190029
O22	O	1.518278	0.784570	0.309971
O23	O	0.899000	0.284528	-0.309326
O24	O	1.399000	0.784528	0.190674
O25	O	1.018304	0.367629	-0.519015
O26	O	1.518304	0.867629	-0.019015
O27	O	0.898971	0.367645	-0.399701
O28	O	1.398971	0.867645	0.100299
O29	O	1.108751	0.284501	-0.519042
O30	O	1.608751	0.784501	-0.019042
O31	O	1.108584	0.477418	-0.309291
O32	O	1.608584	0.977418	0.190709
O33	O	1.018210	0.477386	-0.399680
O34	O	1.518210	0.977386	0.100320
C35	C	0.872283	0.326084	-0.354512
C36	C	1.372283	0.826084	0.145488
C37	C	0.790484	0.326092	-0.354524
C38	C	1.290484	0.826092	0.145476
C39	C	0.602326	0.282879	-0.401679
C40	C	1.102326	0.782879	0.098321
C41	C	0.525468	0.282885	-0.401681
C42	C	1.025468	0.782885	0.098319
C43	C	0.525404	0.369350	-0.307384
C44	C	1.025404	0.869350	0.192616
C45	C	0.602261	0.369340	-0.307378
C46	C	1.102261	0.869340	0.192622
C47	C	0.640721	0.326106	-0.354530
C48	C	1.140721	0.826106	0.145470
C49	C	0.487004	0.326121	-0.354538
C50	C	0.987004	0.826121	0.145462
C51	C	0.403671	0.326128	-0.354540
C52	C	0.903671	0.826128	0.145460
C53	C	0.724060	0.326098	-0.354527
C54	C	1.224060	0.826098	0.145473
C55	C	1.063402	0.501961	-0.354495
C56	C	1.563402	1.001961	0.145505
C57	C	1.063432	0.577193	-0.354507
C58	C	1.563432	1.077193	0.145493
C59	C	1.110535	0.612531	-0.307492
C60	C	1.610535	1.112531	0.192508
C61	C	1.110565	0.683220	-0.307510
C62	C	1.610565	1.183220	0.192490
C63	C	1.063487	0.718569	-0.354541
C64	C	1.563487	1.218569	0.145459
C65	C	1.016382	0.683225	-0.401562
C66	C	1.516382	1.183225	0.098438
C67	C	1.016356	0.612538	-0.401547
C68	C	1.516356	1.112538	0.098453
C69	C	1.016483	0.968298	-0.401626
C70	C	1.516483	1.468298	0.098374
C71	C	1.016510	1.038991	-0.401637
C72	C	1.516510	1.538991	0.098363
C73	C	1.110691	1.038980	-0.307590
C74	C	1.610691	1.538980	0.192410
C75	C	1.110666	0.968293	-0.307575
C76	C	1.610666	1.468293	0.192425
C77	C	1.063564	0.932956	-0.354598
C78	C	1.563564	1.432956	0.145402
C79	C	1.063533	0.856307	-0.354578
C80	C	1.563533	1.356307	0.145422
C81	C	1.063513	0.795216	-0.354558
C82	C	1.563513	1.295216	0.145442
C83	C	1.255442	0.326126	-0.354538
C84	C	1.755442	0.826126	0.145462
C85	C	1.337241	0.326135	-0.354544
C86	C	1.837241	0.826135	0.145456
C87	C	1.063534	0.326058	-0.546478
C88	C	1.563534	0.826058	-0.046478
C89	C	1.063553	0.326038	-0.628277
C90	C	1.563553	0.826038	-0.128277
C91	C	1.063590	1.149562	-0.354579
C92	C	1.563590	1.649562	0.145421
C93	C	1.063618	1.074330	-0.354624
C94	C	1.563618	1.574330	0.145376
C95	C	1.110666	0.282713	-0.816486
C96	C	1.610666	0.782713	-0.316486
C97	C	1.110674	0.282693	-0.893345
C98	C	1.610674	0.782693	-0.393345
C99	C	1.016493	0.369259	-0.893305
C100	C	1.516493	0.869259	-0.393305
C101	C	1.016481	0.369275	-0.816448
C102	C	1.516481	0.869275	-0.316448
C103	C	1.063571	0.326003	-0.778040
C104	C	1.563571	0.826003	-0.278040
C105	C	1.063592	0.325967	-0.931756
C106	C	1.563592	0.825967	-0.431756
C107	C	1.063601	0.325946	-1.015090
C108	C	1.563601	0.825946	-0.515090
C109	C	1.063561	0.326023	-0.694701
C110	C	1.563561	0.826023	-0.194701
C111	C	1.063487	0.326103	-0.163319
C112	C	1.563487	0.826103	0.336681
C113	C	1.063610	0.325932	-0.081520
C114	C	1.563610	0.825932	0.418480
H115	H	0.633523	0.404542	-0.268980
H116	H	1.133523	0.904542	0.231020
C117	C	0.483238	0.235333	-0.453551
C118	C	0.983238	0.735333	0.046449
N119	N	0.451431	0.199516	-0.492622
N120	N	0.951431	0.699516	0.007378
H121	H	0.978126	0.404527	-0.785144
H122	H	1.478126	0.904527	-0.285144
C123	C	0.483092	0.416910	-0.255525
C124	C	0.983092	0.916910	0.244475
N125	N	0.451223	0.452735	-0.216465
N126	N	0.951223	0.952735	0.283535
H127	H	0.978053	0.712012	-0.439859
H128	H	1.478053	1.212012	0.060141
C129	C	1.162324	0.573654	-0.255751
C130	C	1.662324	1.073654	0.244249
N131	N	1.201334	0.544374	-0.216780
N132	N	1.701334	1.044374	0.283220
H133	H	0.978001	0.583766	-0.439832
H134	H	1.478001	1.083766	0.060168
H135	H	0.978155	0.404492	-0.924586
H136	H	1.478155	0.904492	-0.424586
H137	H	1.148920	0.711989	-0.269225
H138	H	1.648920	1.211989	0.230775
H139	H	1.149008	0.247476	-0.785217
H140	H	1.649008	0.747476	-0.285217
H141	H	0.633638	0.247672	-0.440070
H142	H	1.133638	0.747672	0.059930
C143	C	1.162448	0.929413	-0.255831
C144	C	1.662448	1.429413	0.244169
N145	N	1.201452	0.900130	-0.216855
N146	N	1.701452	1.400130	0.283145
H147	H	1.149047	1.067760	-0.269305
H148	H	1.649047	1.567760	0.230695
C149	C	0.964707	0.929437	-0.453391
C150	C	1.464707	1.429437	0.046609
N151	N	0.925720	0.900164	-0.492396
N152	N	1.425720	1.400164	0.007604
C153	C	0.964722	1.077873	-0.453381
C154	C	1.464722	1.577873	0.046619
N155	N	0.925718	1.107159	-0.492353
N156	N	1.425718	1.607159	0.007647
H157	H	1.149022	0.247441	-0.924645
H158	H	1.649022	0.747441	-0.424645
