data_functionalizedCrystal
_audit_creation_method	'MofGen! by Chris Wilmer'
_symmetry_space_group_name_H-M	'P1'
_symmetry_Int_Tables_number	1
_symmetry_cell_setting	triclinic
loop_
_symmetry_equiv_pos_as_xyz
  x,y,z
_cell_length_a	18.101398
_cell_length_b	18.101395
_cell_length_c	11.169409
_cell_angle_alpha	89.964384
_cell_angle_beta	89.970763
_cell_angle_gamma	90.026371
loop_
_atom_site_label
_atom_site_type_symbol
_atom_site_fract_x
_atom_site_fract_y
_atom_site_fract_z
Zn1	Zn	1.132157	-0.294864	-0.678792
Zn2	Zn	1.132042	-0.418730	-0.478098
Zn3	Zn	1.008305	-0.294896	-0.478097
Zn4	Zn	1.008267	-0.418658	-0.678712
O5	O	1.070193	-0.356787	-0.578425
O6	O	1.235775	-0.311311	-0.652204
O7	O	1.115596	-0.402347	-0.310148
O8	O	1.024799	-0.191259	-0.504752
O9	O	1.235690	-0.402315	-0.504754
O10	O	1.115792	-0.191235	-0.652203
O11	O	1.024687	-0.311367	-0.310147
O12	O	0.904667	-0.311297	-0.504675
O13	O	1.024733	-0.402192	-0.846673
O14	O	0.904639	-0.402224	-0.652066
O15	O	1.115754	-0.311241	-0.846732
O16	O	1.115559	-0.522353	-0.504677
O17	O	1.024622	-0.522300	-0.652067
C18	C	0.877782	-0.356757	-0.578362
C19	C	0.795468	-0.356762	-0.578364
C20	C	0.496377	-0.356808	-0.578465
C21	C	0.527696	-0.299313	-0.486182
C22	C	0.613314	-0.299468	-0.485789
C23	C	0.644760	-0.356784	-0.578415
C24	C	0.613640	-0.434799	-0.543859
C25	C	0.527995	-0.434480	-0.543217
C26	C	0.527999	-0.336966	-0.705520
C27	C	0.613649	-0.335229	-0.704826
C28	C	0.728619	-0.356776	-0.578388
C29	C	0.412518	-0.356822	-0.578488
C30	C	1.070094	-0.549197	-0.578389
C31	C	1.070119	-0.631511	-0.578414
C32	C	1.070282	-0.930602	-0.578479
C33	C	1.013199	-0.899275	-0.671444
C34	C	1.012928	-0.813657	-0.671153
C35	C	1.070201	-0.782220	-0.578448
C36	C	1.049065	-0.813381	-0.451956
C37	C	1.048697	-0.899026	-0.452512
C38	C	1.148625	-0.898950	-0.610893
C39	C	1.148164	-0.813298	-0.613667
C40	C	1.070157	-0.698360	-0.578423
C41	C	1.070324	-1.014462	-0.578496
C42	C	1.263355	-0.356818	-0.578488
C43	C	1.345669	-0.356831	-0.578515
C44	C	1.070252	-0.356705	-0.891467
C45	C	1.070277	-0.356670	-1.024867
C46	C	1.070312	-0.163625	-0.578486
C47	C	1.070363	-0.081311	-0.578513
C48	C	1.070176	-0.356815	-0.266600
C49	C	1.070294	-0.356641	-0.133201
H50	H	0.506428	-0.281067	-0.736938
O51	O	1.204960	-0.925785	-0.521208
H52	H	1.260117	-0.903200	-0.544691
O53	O	0.501472	-0.456753	-0.420180
H54	H	0.522145	-0.512954	-0.398828
O55	O	0.640422	-0.316839	-0.361089
H56	H	0.674459	-0.270185	-0.327706
H57	H	0.635050	-0.451917	-0.451979
H58	H	0.507276	-0.478769	-0.607501
H59	H	0.992403	-0.791994	-0.424008
O60	O	1.101379	-0.926495	-0.357643
H61	H	1.070653	-0.960530	-0.291586
H62	H	1.026292	-0.919815	-0.765539
H63	H	0.634008	-0.478785	-0.608970
H64	H	1.167894	-0.920491	-0.701560
H65	H	1.164103	-0.792928	-0.706758
H66	H	0.633995	-0.277818	-0.730882
H67	H	1.192944	-0.791895	-0.550893
H68	H	0.635058	-0.374052	-0.777268
H69	H	0.507746	-0.378843	-0.774279
O70	O	0.641196	-0.222835	-0.514438
H71	H	0.593507	-0.185330	-0.528698
H72	H	0.955482	-0.920858	-0.650242
H73	H	1.089333	-0.793020	-0.380801
H74	H	1.026152	-0.792585	-0.764945
O75	O	0.936011	-0.786598	-0.642681
H76	H	0.896930	-0.807245	-0.711520
O77	O	0.500404	-0.222453	-0.514483
H78	H	0.464228	-0.224406	-0.594626
O79	O	0.499169	-0.316499	-0.362187
H80	H	0.462781	-0.365812	-0.366000
H81	H	0.991428	-0.919067	-0.425056
