data_functionalizedCrystal
_audit_creation_method	'MofGen! by Chris Wilmer'
_symmetry_space_group_name_H-M	'P1'
_symmetry_Int_Tables_number	1
_symmetry_cell_setting	triclinic
loop_
_symmetry_equiv_pos_as_xyz
  x,y,z
_cell_length_a	14.044190
_cell_length_b	14.044191
_cell_length_c	12.503572
_cell_angle_alpha	93.837835
_cell_angle_beta	86.160597
_cell_angle_gamma	93.191777
loop_
_atom_site_label
_atom_site_type_symbol
_atom_site_fract_x
_atom_site_fract_y
_atom_site_fract_z
O1	O	0.225145	1.282215	0.089290
O2	O	0.725145	1.782215	0.589290
O3	O	0.216832	1.005543	0.089303
O4	O	0.716832	1.505543	0.589303
O5	O	0.082653	1.139721	0.089276
O6	O	0.582653	1.639721	0.589276
O7	O	0.359323	1.148036	0.089318
O8	O	0.859323	1.648036	0.589318
O9	O	0.092762	1.129632	-0.089364
O10	O	0.592762	1.629632	0.410636
O11	O	0.226941	0.995453	-0.089337
O12	O	0.726941	1.495453	0.410663
O13	O	0.235254	1.272125	-0.089350
O14	O	0.735254	1.772125	0.410650
Cu15	Cu	0.232021	1.132868	-0.105654
Cu16	Cu	0.732021	1.632868	0.394346
Cu17	Cu	0.220065	1.144800	0.105608
Cu18	Cu	0.720065	1.644800	0.605608
O19	O	0.369433	1.137947	-0.089322
O20	O	0.869433	1.637947	0.410678
C21	C	0.218249	0.964876	-0.000016
C22	C	0.718249	1.464876	0.499984
C23	C	0.207402	0.858733	-0.000012
C24	C	0.707402	1.358733	0.499988
C25	C	0.264503	0.613276	-0.000014
C26	C	0.764503	1.113276	0.499986
C27	C	0.187587	0.664399	-0.000023
C28	C	0.687587	1.164399	0.499977
C29	C	0.198615	0.772536	-0.000017
C30	C	0.698615	1.272536	0.499983
C31	C	0.253476	0.505129	-0.000020
C32	C	0.753476	1.005129	0.499980
C33	C	0.052086	1.131040	-0.000047
C34	C	0.552086	1.631040	0.499953
C35	C	-0.054057	1.120192	-0.000056
C36	C	0.445943	1.620192	0.499944
C37	C	-0.299516	1.177295	-0.000017
C38	C	0.200484	1.677295	0.499983
C39	C	-0.248393	1.100378	-0.000021
C40	C	0.251607	1.600378	0.499979
C41	C	-0.140254	1.111405	-0.000040
C42	C	0.359746	1.611405	0.499960
C43	C	-0.407664	1.166269	0.000003
C44	C	0.092336	1.666269	0.500003
C45	C	0.400000	1.146629	0.000003
C46	C	0.900000	1.646629	0.500003
C47	C	0.506142	1.157477	0.000019
C48	C	1.006142	1.657477	0.500019
C49	C	0.233836	1.312792	-0.000029
C50	C	0.733836	1.812792	0.499971
C51	C	0.244683	1.418936	-0.000026
C52	C	0.744683	1.918936	0.499974
N53	N	0.240429	1.124483	-0.254245
N54	N	0.740429	1.624483	0.245755
C55	C	0.252807	1.112148	-0.473358
C56	C	0.752807	1.612148	0.026642
C57	C	0.199275	1.165524	-0.526696
C58	C	0.699275	1.665524	-0.026696
C59	C	0.206162	1.158661	-0.648618
C60	C	0.706162	1.658661	-0.148618
C61	C	0.245921	1.119010	-0.351425
C62	C	0.745921	1.619010	0.148575
N63	N	0.211649	1.153192	0.254198
N64	N	0.711649	1.653192	0.754198
H65	H	0.113450	0.626957	0.000041
H66	H	0.613450	1.126957	0.500041
C67	C	0.364645	0.663862	0.000012
C68	C	0.864645	1.163862	0.500012
N69	N	0.440071	0.701975	0.000037
N70	N	0.940071	1.201975	0.500037
H71	H	-0.285838	1.026246	-0.000011
H72	H	0.214162	1.526246	0.499989
C73	C	-0.248930	1.277437	-0.000048
C74	C	0.251070	1.777437	0.499952
N75	N	-0.210816	1.352863	-0.000080
N76	N	0.289184	1.852863	0.499920
C77	C	0.130383	1.234234	-0.464686
C78	C	0.630383	1.734234	0.035314
N79	N	0.078502	1.285990	-0.417976
N80	N	0.578502	1.785990	0.082024
C81	C	0.321704	1.043453	-0.535367
C82	C	0.821704	1.543453	-0.035367
N83	N	0.373597	0.991714	-0.582084
N84	N	0.873597	1.491714	-0.082084
