data_functionalizedCrystal
_audit_creation_method	'MofGen! by Chris Wilmer'
_symmetry_space_group_name_H-M	'P1'
_symmetry_Int_Tables_number	1
_symmetry_cell_setting	triclinic
loop_
_symmetry_equiv_pos_as_xyz
  x,y,z
_cell_length_a	26.210047
_cell_length_b	10.723024
_cell_length_c	10.723024
_cell_angle_alpha	84.467869
_cell_angle_beta	90.005725
_cell_angle_gamma	89.991187
loop_
_atom_site_label
_atom_site_type_symbol
_atom_site_fract_x
_atom_site_fract_y
_atom_site_fract_z
O1	O	0.042424	-1.657199	-0.175009
O2	O	0.042426	-1.294046	-0.191763
O3	O	0.042423	-1.483999	-0.001810
O4	O	0.042427	-1.467246	-0.364962
O5	O	-0.042435	-1.483962	-0.001839
O6	O	-0.042432	-1.294009	-0.191792
O7	O	-0.042434	-1.657162	-0.175039
Cu8	Cu	-0.050181	-1.475582	-0.183418
Cu9	Cu	0.050173	-1.475626	-0.183383
O10	O	-0.042431	-1.467209	-0.364992
C11	C	-0.000003	-1.247528	-0.190558
C12	C	-0.000002	-1.108974	-0.186911
N13	N	-0.120765	-1.475561	-0.183442
C14	C	-0.000005	-1.482762	0.044675
C15	C	-0.000003	-1.479114	0.183229
C16	C	-0.473280	-1.559728	-0.099291
C17	C	-0.686939	-1.559756	-0.099274
O18	O	-0.714562	-1.631270	-0.027731
N19	N	-0.713659	-1.475632	-0.183356
C20	C	-0.686961	-1.391490	-0.267443
O21	O	-0.714591	-1.319930	-0.338950
C22	C	-0.473304	-1.391458	-0.267453
C23	C	-0.446586	-1.475595	-0.183374
C24	C	-0.446563	-1.643858	-0.015219
C25	C	-0.393152	-1.643855	-0.015228
C26	C	-0.366457	-1.559722	-0.099311
C27	C	-0.393175	-1.475592	-0.183384
C28	C	-0.446607	-1.307311	-0.351532
C29	C	-0.393189	-1.307308	-0.351525
C30	C	-0.366472	-1.391446	-0.267446
C31	C	-0.313069	-1.391456	-0.267476
N32	N	-0.286349	-1.475580	-0.183394
C33	C	-0.313043	-1.559713	-0.099312
C34	C	-0.799134	-1.391515	-0.267433
C35	C	-0.852549	-1.391524	-0.267432
C36	C	-0.852523	-1.559788	-0.099262
C37	C	-0.799108	-1.559784	-0.099270
C38	C	-0.772414	-1.475638	-0.183351
C39	C	-0.200875	-1.559701	-0.099339
C40	C	-0.147459	-1.559694	-0.099360
C41	C	-0.147490	-1.391426	-0.267525
C42	C	-0.200901	-1.391437	-0.267509
C43	C	-0.227593	-1.475579	-0.183406
O44	O	-0.285413	-1.319970	-0.338972
O45	O	-0.285405	-1.631244	-0.027796
C46	C	-0.526692	-1.559731	-0.099282
C47	C	-0.553409	-1.475602	-0.183354
C48	C	-0.526715	-1.391469	-0.267437
C49	C	-0.606823	-1.475611	-0.183354
C50	C	-0.633517	-1.559744	-0.099271
C51	C	-0.606797	-1.643867	-0.015189
C52	C	-0.553386	-1.643864	-0.015199
C53	C	-0.553435	-1.307345	-0.351519
C54	C	-0.606847	-1.307356	-0.351503
C55	C	-0.633541	-1.391489	-0.267421
N56	N	0.120757	-1.475657	-0.183350
C57	C	-0.000004	-1.703680	-0.176243
C58	C	-0.000001	-1.842234	-0.179891
C59	C	-0.000001	-1.033991	-0.293198
C60	C	-0.000000	-0.890788	-0.289431
C61	C	-0.000001	-1.468447	-0.411477
C62	C	0.000000	-1.472094	-0.550031
C63	C	-0.000003	-1.585401	0.258212
C64	C	-0.000001	-1.581634	0.401415
H65	H	-0.125708	-1.628213	-0.030893
H66	H	-0.000004	-1.381099	0.385544
N67	N	0.000009	-1.695787	0.482236
N68	N	0.035780	-1.772232	0.477113
H69	H	0.035789	-1.852857	0.534196
H70	H	0.000000	-1.385328	0.225051
N71	N	-0.000008	-0.923065	-0.065744
N72	N	-0.035779	-0.998817	-0.042432
H73	H	-0.035785	-1.055915	0.038184
N74	N	-0.879803	-1.645702	-0.013361
N75	N	-0.927494	-1.645670	-0.013367
H76	H	-0.946764	-1.706330	0.047310
N77	N	-0.000005	-0.809986	-0.403597
N78	N	-0.000007	-0.855572	-0.506578
H79	H	-0.000010	-0.798505	-0.587213
N80	N	-0.228127	-1.645652	-0.013419
N81	N	-0.204257	-1.720755	0.061634
H82	H	-0.223503	-1.781463	0.122313
N83	N	-0.526163	-1.221410	-0.437402
N84	N	-0.496359	-1.143607	-0.397120
H85	H	-0.477098	-1.082914	-0.457784
H86	H	0.000010	-1.067152	-0.093125
H87	H	-0.371401	-1.712364	0.053239
H88	H	-0.000003	-1.075814	-0.386984
H89	H	-0.000007	-1.679187	0.216390
H90	H	-0.777404	-1.322991	-0.335905
N91	N	-0.473817	-1.729808	0.070691
N92	N	-0.449946	-1.804907	0.145745
H93	H	-0.469190	-1.865621	0.206421
H94	H	-0.777357	-1.628295	-0.030805
H95	H	-0.468352	-1.238798	-0.419996
N96	N	-0.879828	-1.305590	-0.353343
N97	N	-0.855982	-1.230481	-0.428406
H98	H	-0.875246	-1.169783	-0.489082
H99	H	-0.222655	-1.322936	-0.335986
N100	N	-0.365931	-1.221339	-0.437419
N101	N	-0.389797	-1.146230	-0.512474
H102	H	-0.370548	-1.085515	-0.573139
H103	H	-0.531636	-1.712377	0.053266
N104	N	-0.120209	-1.305504	-0.353406
N105	N	-0.072518	-1.305520	-0.353388
H106	H	-0.053249	-1.244832	-0.414038
H107	H	-0.628540	-1.712377	0.053270
H108	H	-0.628596	-1.238844	-0.419981
