data_functionalizedCrystal
_audit_creation_method	'MofGen! by Chris Wilmer'
_symmetry_space_group_name_H-M	'P1'
_symmetry_Int_Tables_number	1
_symmetry_cell_setting	triclinic
loop_
_symmetry_equiv_pos_as_xyz
  x,y,z
_cell_length_a	17.019282
_cell_length_b	17.038272
_cell_length_c	9.730223
_cell_angle_alpha	90.004701
_cell_angle_beta	86.122067
_cell_angle_gamma	87.241387
loop_
_atom_site_label
_atom_site_type_symbol
_atom_site_fract_x
_atom_site_fract_y
_atom_site_fract_z
O1	O	1.053361	0.099546	-0.010421
O2	O	0.824549	0.112259	0.016672
O3	O	0.937595	-0.007912	0.003275
O4	O	0.940315	0.219716	0.002975
O5	O	0.937587	-0.007915	-0.225304
O6	O	0.824541	0.112255	-0.211907
O7	O	1.053353	0.099543	-0.239000
Zn8	Zn	0.938946	0.105898	-0.261746
Zn9	Zn	0.938956	0.105903	0.039417
O10	O	0.940307	0.219713	-0.225604
C11	C	0.795123	0.111777	-0.094134
C12	C	0.707456	0.110337	-0.083754
C13	C	0.935117	-0.037040	-0.110721
C14	C	0.927737	-0.123826	-0.109847
C15	C	0.666270	0.109657	-0.203479
C16	C	0.583899	0.108292	-0.193729
C17	C	0.542714	0.107612	-0.064254
C18	C	0.583906	0.108290	0.055480
C19	C	0.666276	0.109650	0.045729
C20	C	0.294008	0.103502	-0.028579
C21	C	0.211632	0.102144	-0.018838
C22	C	0.211630	0.102144	-0.268048
C23	C	0.294002	0.103509	-0.277788
C24	C	0.335187	0.104183	-0.158054
C25	C	0.458517	0.106219	-0.054285
C26	C	0.419383	0.105570	-0.168024
C27	C	0.995497	-0.174002	-0.117871
C28	C	0.988558	-0.255546	-0.117037
C29	C	0.913858	-0.286913	-0.108187
C30	C	0.846093	-0.236730	-0.100158
C31	C	0.853033	-0.155188	-0.100983
C32	C	0.889340	-0.532648	-0.105265
C33	C	0.882405	-0.614197	-0.104445
C34	C	1.024871	-0.633007	-0.121322
C35	C	1.031804	-0.551462	-0.122154
C36	C	0.964039	-0.501287	-0.114117
C37	C	0.906763	-0.370264	-0.107338
C38	C	0.971135	-0.417938	-0.114957
C39	C	1.082779	0.100024	-0.128191
C40	C	1.170446	0.101464	-0.138563
C41	C	0.942785	0.248841	-0.111604
C42	C	0.950165	0.335627	-0.112470
N43	N	0.938944	0.105895	-0.467282
C44	C	0.989021	0.052706	-0.545142
C45	C	0.989029	0.052706	-0.689026
C46	C	0.888882	0.159092	-0.677176
C47	C	0.888870	0.159087	-0.533295
N48	N	0.938964	0.105900	0.244953
H49	H	0.550370	0.107725	-0.291223
Cl50	Cl	0.718037	0.110516	-0.366257
Cl51	Cl	0.345771	0.104369	-0.440564
H52	H	0.848088	0.202400	-0.469896
H53	H	1.056326	-0.148470	-0.125086
H54	H	0.550367	0.107731	0.160902
H55	H	0.699809	0.110205	0.143223
H56	H	0.178101	0.101593	0.086602
Cl57	Cl	1.051968	-0.014167	-0.462160
Cl58	Cl	0.471160	0.106422	-0.330787
H59	H	0.327531	0.104048	0.068917
Cl60	Cl	1.051983	-0.014165	-0.786903
Cl61	Cl	0.159851	0.101294	-0.418561
H62	H	0.785270	-0.262275	-0.092943
Cl63	Cl	0.825937	0.225962	-0.760171
Cl64	Cl	1.065040	-0.378503	-0.126074
Cl65	Cl	0.406737	0.105330	0.108479
H66	H	1.043736	-0.296396	-0.123574
H67	H	1.092633	-0.525930	-0.129361
H68	H	0.834160	-0.491805	-0.098721
H69	H	0.845942	-0.395812	-0.100135
Cl70	Cl	1.110056	-0.696088	-0.131420
Cl71	Cl	0.788489	-0.653628	-0.093327
Cl72	Cl	0.767845	-0.092109	-0.090889
