data_functionalizedCrystal
_audit_creation_method	'MofGen! by Chris Wilmer'
_symmetry_space_group_name_H-M	'P1'
_symmetry_Int_Tables_number	1
_symmetry_cell_setting	triclinic
loop_
_symmetry_equiv_pos_as_xyz
  x,y,z
_cell_length_a	17.077404
_cell_length_b	13.897447
_cell_length_c	17.077404
_cell_angle_alpha	90.008559
_cell_angle_beta	90.007178
_cell_angle_gamma	90.017500
loop_
_atom_site_label
_atom_site_type_symbol
_atom_site_fract_x
_atom_site_fract_y
_atom_site_fract_z
Zn1	Zn	1.199986	-0.384234	0.443832
Zn2	Zn	1.533320	-0.050901	0.777165
Zn3	Zn	1.866653	0.282433	1.110498
Zn4	Zn	1.199927	-0.545497	0.312571
Zn5	Zn	1.533260	-0.212164	0.645904
Zn6	Zn	1.866593	0.121169	0.979238
Zn7	Zn	1.068744	-0.384212	0.312582
Zn8	Zn	1.402077	-0.050879	0.645916
Zn9	Zn	1.735410	0.282454	0.979249
Zn10	Zn	1.068694	-0.545483	0.443797
Zn11	Zn	1.402027	-0.212150	0.777131
Zn12	Zn	1.735360	0.121184	1.110464
O13	O	1.134338	-0.464857	0.378196
O14	O	1.467671	-0.131523	0.711529
O15	O	1.801004	0.201810	1.044862
O16	O	1.309825	-0.405641	0.426429
O17	O	1.643159	-0.072308	0.759763
O18	O	1.976492	0.261026	1.093096
O19	O	1.182521	-0.524099	0.202726
O20	O	1.515854	-0.190766	0.536059
O21	O	1.849188	0.142567	0.869392
O22	O	1.086199	-0.249234	0.330012
O23	O	1.419532	0.084100	0.663345
O24	O	1.752866	0.417433	0.996678
O25	O	1.309781	-0.524121	0.329993
O26	O	1.643115	-0.190787	0.663326
O27	O	1.976448	0.142546	0.996660
O28	O	1.182622	-0.249250	0.426440
O29	O	1.515956	0.084084	0.759773
O30	O	1.849289	0.417417	1.093107
O31	O	1.086141	-0.405604	0.202734
O32	O	1.419475	-0.072271	0.536067
O33	O	1.752808	0.261063	0.869401
O34	O	0.958890	-0.405590	0.329978
O35	O	1.292223	-0.072257	0.663312
O36	O	1.625557	0.261077	0.996645
O37	O	1.086114	-0.524096	0.553649
O38	O	1.419447	-0.190763	0.886982
O39	O	1.752781	0.142570	1.220315
O40	O	0.958853	-0.524075	0.426382
O41	O	1.292187	-0.190742	0.759715
O42	O	1.625520	0.142592	1.093048
O43	O	1.182574	-0.405627	0.553674
O44	O	1.515907	-0.072294	0.887007
O45	O	1.849241	0.261039	1.220341
O46	O	1.182472	-0.680477	0.329960
O47	O	1.515806	-0.347144	0.663293
O48	O	1.849139	-0.013810	0.996626
O49	O	1.086056	-0.680467	0.426371
O50	O	1.419390	-0.347133	0.759704
O51	O	1.752723	-0.013800	1.093037
C52	C	0.930390	-0.464829	0.378178
C53	C	1.263723	-0.131496	0.711511
C54	C	1.597056	0.201837	1.044845
C55	C	0.843140	-0.464841	0.378189
C56	C	1.176473	-0.131508	0.711522
C57	C	1.509807	0.201826	1.044856
C58	C	0.802173	-0.403258	0.428480
C59	C	1.135507	-0.069925	0.761813
C60	C	1.468840	0.263408	1.095147
C61	C	0.720193	-0.403265	0.428484
C62	C	1.053526	-0.069931	0.761817
C63	C	1.386860	0.263402	1.095150
C64	C	0.679181	-0.464859	0.378200
C65	C	1.012514	-0.131526	0.711533
C66	C	1.345847	0.201808	1.044866
C67	C	0.720153	-0.526444	0.327903
C68	C	1.053486	-0.193111	0.661236
C69	C	1.386820	0.140223	0.994570
C70	C	0.802132	-0.526432	0.327896
C71	C	1.135465	-0.193099	0.661229
C72	C	1.468798	0.140234	0.994563
C73	C	0.549283	-0.526466	0.327922
C74	C	0.882616	-0.193133	0.661256
C75	C	1.215949	0.140201	0.994589
C76	C	0.467298	-0.526479	0.327930
C77	C	0.800632	-0.193146	0.661264
C78	C	1.133965	0.140187	0.994597
C79	C	0.467344	-0.403298	0.428510
C80	C	0.800677	-0.069965	0.761844
C81	C	1.134011	0.263368	1.095177
C82	C	0.549323	-0.403287	0.428503
C83	C	0.882656	-0.069953	0.761837
C84	C	1.215989	0.263380	1.095170
C85	C	0.590290	-0.464873	0.378207
C86	C	0.923623	-0.131540	0.711541
C87	C	1.256956	0.201793	1.044874
C88	C	1.134274	-0.715471	0.378177
C89	C	1.467607	-0.382138	0.711511
C90	C	1.800940	-0.048804	1.044844
C91	C	1.134318	-0.822685	0.378196
C92	C	1.467652	-0.489352	0.711529
C93	C	1.800985	-0.156018	1.044862
C94	C	1.134356	-0.909755	0.378214
C95	C	1.467690	-0.576421	0.711547
C96	C	1.801023	-0.243088	1.044880
C97	C	1.134411	-1.018987	0.378234
C98	C	1.467745	-0.685654	0.711567
C99	C	1.801078	-0.352321	1.044901
C100	C	1.339082	-0.464885	0.378214
C101	C	1.672415	-0.131552	0.711547
C102	C	2.005748	0.201782	1.044880
C103	C	1.426332	-0.464897	0.378221
C104	C	1.759665	-0.131564	0.711555
C105	C	2.092998	0.201770	1.044888
C106	C	1.134345	-0.464863	0.582940
C107	C	1.467678	-0.131529	0.916273
C108	C	1.801012	0.201804	1.249606
C109	C	1.134348	-0.464865	0.670190
C110	C	1.467682	-0.131532	1.003523
C111	C	1.801015	0.201801	1.336856
C112	C	1.134423	-0.213264	0.378231
C113	C	1.467756	0.120070	0.711564
C114	C	1.801090	0.453403	1.044898
C115	C	1.134459	-0.106050	0.378246
C116	C	1.467793	0.227284	0.711579
C117	C	1.801126	0.560617	1.044913
C118	C	1.184569	-0.403189	0.711194
C119	C	1.517902	-0.069855	1.044527
C120	C	1.851236	0.263478	1.377861
C121	C	1.184562	-0.403187	0.793175
C122	C	1.517896	-0.069854	1.126508
C123	C	1.851229	0.263479	1.459841
C124	C	1.134339	-0.464868	0.834149
C125	C	1.467672	-0.131535	1.167482
C126	C	1.801005	0.201798	1.500816
C127	C	1.084112	-0.526547	0.793139
C128	C	1.417446	-0.193214	1.126472
C129	C	1.750779	0.140119	1.459805
C130	C	1.084116	-0.526543	0.711160
C131	C	1.417449	-0.193210	1.044493
C132	C	1.750782	0.140124	1.377826
C133	C	1.084111	-0.526554	0.964009
C134	C	1.417444	-0.193220	1.297342
C135	C	1.750777	0.140113	1.630675
C136	C	1.084108	-0.526560	1.045993
C137	C	1.417442	-0.193226	1.379327
C138	C	1.750775	0.140107	1.712660
C139	C	1.184557	-0.403198	1.046024
C140	C	1.517891	-0.069865	1.379357
C141	C	1.851224	0.263469	1.712690
C142	C	1.184561	-0.403194	0.964045
C143	C	1.517894	-0.069860	1.297378
C144	C	1.851227	0.263473	1.630711
C145	C	1.134335	-0.464874	0.923040
C146	C	1.467669	-0.131541	1.256373
C147	C	1.801002	0.201792	1.589707
C148	C	1.134326	-0.464876	1.174248
C149	C	1.467660	-0.131542	1.507581
C150	C	1.800993	0.201791	1.840914
C151	C	1.134329	-0.464883	1.086998
C152	C	1.467662	-0.131550	1.420331
C153	C	1.800996	0.201784	1.753665
H154	H	0.835560	-0.353104	0.469430
H155	H	1.168893	-0.019770	0.802763
H156	H	1.502226	0.313563	1.136096
C157	C	1.239810	-0.335340	0.838276
C158	C	1.573144	-0.002007	1.171609
C159	C	1.906477	0.331327	1.504942
N160	N	1.281426	-0.284234	0.872246
N161	N	1.614759	0.049099	1.205579
N162	N	1.948092	0.382433	1.538912
H163	H	0.686841	-0.353120	0.469437
H164	H	1.020175	-0.019787	0.802771
H165	H	1.353508	0.313547	1.136104
C166	C	0.422186	-0.594234	0.272614
C167	C	0.755520	-0.260901	0.605947
C168	C	1.088853	0.072432	0.939280
N169	N	0.388208	-0.645268	0.230948
N170	N	0.721541	-0.311935	0.564282
N171	N	1.054875	0.021398	0.897615
H172	H	0.582635	-0.576614	0.286964
H173	H	0.915969	-0.243281	0.620298
H174	H	1.249302	0.090053	0.953631
H175	H	0.686754	-0.576591	0.286957
H176	H	1.020087	-0.243257	0.620290
H177	H	1.353421	0.090076	0.953624
H178	H	0.433985	-0.353150	0.469462
H179	H	0.767318	-0.019817	0.802795
H180	H	1.100652	0.313516	1.136128
C181	C	1.239805	-0.335348	1.091130
C182	C	1.573139	-0.002014	1.424463
C183	C	1.906472	0.331319	1.757797
N184	N	1.281419	-0.284248	1.125108
N185	N	1.614752	0.049085	1.458441
N186	N	1.948085	0.382419	1.791775
C187	C	0.847195	-0.594180	0.272573
C188	C	1.180528	-0.260847	0.605907
C189	C	1.513861	0.072487	0.939240
N190	N	0.881135	-0.645208	0.230901
N191	N	1.214468	-0.311875	0.564235
N192	N	1.547802	0.021459	0.897568
H193	H	1.225469	-0.352964	0.677839
H194	H	1.558803	-0.019631	1.011172
H195	H	1.892136	0.313703	1.344505
C196	C	1.028863	-0.594410	0.918906
C197	C	1.362196	-0.261076	1.252239
C198	C	1.695529	0.072257	1.585572
N199	N	0.987255	-0.645522	0.884934
N200	N	1.320588	-0.312189	1.218267
N201	N	1.653921	0.021144	1.551601
H202	H	1.225462	-0.352973	0.930685
H203	H	1.558795	-0.019640	1.264019
H204	H	1.892128	0.313694	1.597352
H205	H	1.043217	-0.576765	0.826507
H206	H	1.376550	-0.243432	1.159840
H207	H	1.709883	0.089901	1.493173
C208	C	1.028855	-0.594406	1.091064
C209	C	1.362188	-0.261072	1.424397
C210	C	1.695522	0.072261	1.757730
N211	N	0.987236	-0.645507	1.125011
N212	N	1.320569	-0.312174	1.458344
N213	N	1.653903	0.021160	1.791677
H214	H	0.582713	-0.353137	0.469454
H215	H	0.916046	-0.019803	0.802787
H216	H	1.249380	0.313530	1.136120
H217	H	1.043213	-0.576757	0.677775
H218	H	1.376546	-0.243423	1.011108
H219	H	1.709880	0.089910	1.344442
