data_functionalizedCrystal
_audit_creation_method	'MofGen! by Chris Wilmer'
_symmetry_space_group_name_H-M	'P1'
_symmetry_Int_Tables_number	1
_symmetry_cell_setting	triclinic
loop_
_symmetry_equiv_pos_as_xyz
  x,y,z
_cell_length_a	18.101395
_cell_length_b	18.050591
_cell_length_c	18.101389
_cell_angle_alpha	90.025013
_cell_angle_beta	90.016841
_cell_angle_gamma	90.027110
loop_
_atom_site_label
_atom_site_type_symbol
_atom_site_fract_x
_atom_site_fract_y
_atom_site_fract_z
Zn1	Zn	-0.294986	1.135308	0.418860
Zn2	Zn	0.205014	1.635308	0.918860
Zn3	Zn	-0.418812	1.135203	0.295022
Zn4	Zn	0.081188	1.635203	0.795022
Zn5	Zn	-0.294980	1.011118	0.295020
Zn6	Zn	0.205020	1.511118	0.795020
Zn7	Zn	-0.418782	1.011069	0.418809
Zn8	Zn	0.081218	1.511069	0.918809
O9	O	-0.356890	1.073174	0.356928
O10	O	0.143110	1.573174	0.856928
O11	O	-0.311427	1.239218	0.402455
O12	O	0.188573	1.739218	0.902455
O13	O	-0.402395	1.118720	0.191389
O14	O	0.097605	1.618720	0.691389
O15	O	-0.191348	1.027656	0.311468
O16	O	0.308652	1.527656	0.811468
O17	O	-0.402401	1.239142	0.311472
O18	O	0.097599	1.739142	0.811472
O19	O	-0.191352	1.118898	0.402453
O20	O	0.308648	1.618898	0.902453
O21	O	-0.311417	1.027555	0.191387
O22	O	0.188583	1.527555	0.691387
O23	O	-0.311387	0.907187	0.311419
O24	O	0.188613	1.407187	0.811419
O25	O	-0.402350	1.027572	0.522449
O26	O	0.097650	1.527572	1.022449
O27	O	-0.402344	0.907151	0.402366
O28	O	0.097656	1.407151	0.902366
O29	O	-0.311398	1.118850	0.522487
O30	O	0.188602	1.618850	1.022487
O31	O	-0.522441	1.118672	0.311422
O32	O	-0.022441	1.618672	0.811422
O33	O	-0.522419	1.027471	0.402368
O34	O	-0.022419	1.527471	0.902368
C35	C	-0.356862	0.880222	0.356887
C36	C	0.143138	1.380222	0.856887
C37	C	-0.356868	0.797676	0.356887
C38	C	0.143132	1.297676	0.856887
C39	C	-0.549301	1.073075	0.356906
C40	C	-0.049301	1.573075	0.856906
C41	C	-0.631615	1.073100	0.356922
C42	C	-0.131615	1.573100	0.856922
C43	C	-0.930706	1.073263	0.356962
C44	C	-0.430706	1.573263	0.856962
C45	C	-0.899397	1.016015	0.414324
C46	C	-0.399397	1.516015	0.914324
C47	C	-0.813779	1.015743	0.414145
C48	C	-0.313779	1.515743	0.914145
C49	C	-0.782323	1.073182	0.356942
C50	C	-0.282323	1.573182	0.856942
C51	C	-0.813459	1.051994	0.278891
C52	C	-0.313459	1.551994	0.778891
C53	C	-0.899104	1.051625	0.279234
C54	C	-0.399104	1.551625	0.779234
C55	C	-0.899058	1.151826	0.376964
C56	C	-0.399058	1.651826	0.876964
C57	C	-0.813408	1.151364	0.378675
C58	C	-0.313408	1.651364	0.878675
C59	C	-0.698464	1.073138	0.356927
C60	C	-0.198464	1.573138	0.856927
C61	C	-1.014565	1.073306	0.356972
C62	C	-0.514565	1.573306	0.856972
C63	C	-0.307349	0.598224	0.307544
C64	C	0.192651	1.098224	0.807544
C65	C	-0.374893	0.548800	0.289321
C66	C	0.125107	1.048800	0.789321
C67	C	-0.356891	0.646546	0.356921
C68	C	0.143109	1.146546	0.856921
C69	C	-0.289370	0.548889	0.375142
C70	C	0.210630	1.048889	0.875142
C71	C	-0.356907	0.500561	0.356952
C72	C	0.143093	1.000561	0.856952
C73	C	-0.424471	0.598209	0.338662
C74	C	0.075529	1.098209	0.838662
C75	C	-0.338902	0.598302	0.424515
C76	C	0.161098	1.098302	0.924515
C77	C	-0.406493	0.548900	0.406317
C78	C	0.093507	1.048900	0.906317
C79	C	-0.356881	0.730644	0.356901
C80	C	0.143119	1.230644	0.856901
C81	C	-0.356924	0.416464	0.356971
C82	C	0.143076	0.916464	0.856971
C83	C	-0.163728	1.073294	0.356966
C84	C	0.336272	1.573294	0.856966
C85	C	-0.081414	1.073345	0.356982
C86	C	0.418586	1.573345	0.856982
C87	C	-0.356871	1.073217	0.550090
C88	C	0.143129	1.573217	1.050090
C89	C	-0.356863	1.073236	0.632404
C90	C	0.143137	1.573236	1.132404
C91	C	-0.356918	1.266880	0.356970
C92	C	0.143082	1.766880	0.856970
C93	C	-0.356930	1.349426	0.356987
C94	C	0.143070	1.849426	0.856987
C95	C	-0.356855	1.073174	0.164518
C96	C	0.143145	1.573174	0.664518
C97	C	-0.356655	1.073300	0.082204
C98	C	0.143345	1.573300	0.582204
C99	C	-0.356724	1.073279	0.931495
C100	C	0.143276	1.573279	1.431495
C101	C	-0.413767	1.015652	0.900146
C102	C	0.086233	1.515652	1.400146
C103	C	-0.414032	1.015807	0.814528
C104	C	0.085968	1.515807	1.314528
C105	C	-0.356793	1.073257	0.783113
C106	C	0.143207	1.573257	1.283113
C107	C	-0.377983	1.151502	0.814220
C108	C	0.122017	1.651502	1.314220
C109	C	-0.378357	1.151181	0.899865
C110	C	0.121643	1.651181	1.399865
C111	C	-0.278365	1.053341	0.899917
C112	C	0.221635	1.553341	1.399917
C113	C	-0.278818	1.051600	0.814266
C114	C	0.221182	1.551600	1.314266
C115	C	-0.356831	1.073249	0.699253
C116	C	0.143169	1.573249	1.199253
C117	C	-0.356689	1.073292	1.015355
C118	C	0.143311	1.573292	1.515355
H119	H	-0.792727	1.029000	0.472019
H120	H	-0.292727	1.529000	0.972019
F121	F	-0.214727	0.520566	0.395268
F122	F	0.285273	1.020566	0.895268
F123	F	-0.326377	1.209173	0.926976
F124	F	0.173623	1.709173	1.426976
F125	F	-0.499137	0.626405	0.318449
F126	F	0.000863	1.126405	0.818449
H127	H	-0.235866	1.095315	0.920192
H128	H	0.264134	1.595315	1.420192
F129	F	-0.396696	0.939969	0.787033
F130	F	0.103304	1.439969	1.287033
H131	H	-0.793083	1.092379	0.234985
H132	H	-0.293083	1.592379	0.734985
F133	F	-0.926271	1.033167	0.490217
F134	F	-0.426271	1.533167	0.990217
F135	F	-0.461324	0.520769	0.460914
F136	F	0.038676	1.020769	0.960914
H137	H	-0.262839	0.994019	0.793933
H138	H	0.237161	1.494019	1.293933
H139	H	-0.919304	1.194478	0.335184
H140	H	-0.419304	1.694478	0.835184
H141	H	-0.920618	1.171144	0.432909
H142	H	-0.420618	1.671144	0.932909
F143	F	-0.252646	0.626533	0.252909
F144	F	0.247354	1.126533	0.752909
H145	H	-0.435639	1.168082	0.919850
H146	H	0.064361	1.668082	1.419850
F147	F	-0.787073	0.939629	0.396830
F148	F	-0.287073	1.439629	0.896830
F149	F	-0.325385	1.209132	0.787628
F150	F	0.174615	1.709132	1.287628
F151	F	-0.489213	1.032650	0.928327
F152	F	0.010787	1.532650	1.428327
F153	F	-0.927617	0.940366	0.397237
F154	F	-0.427617	1.440366	0.897237
H155	H	-0.323654	0.620063	0.481647
H156	H	0.176346	1.120063	0.981647
H157	H	-0.434656	1.168696	0.792779
H158	H	0.065344	1.668696	1.292779
F159	F	-0.925294	0.976562	0.257089
F160	F	-0.425294	1.476562	0.757089
F161	F	-0.926178	1.103755	0.221461
F162	F	-0.426178	1.603755	0.721461
F163	F	-0.786808	1.172251	0.453756
F164	F	-0.286808	1.672251	0.953756
F165	F	-0.396609	0.939581	0.927045
F166	F	0.103391	1.439581	1.427045
F167	F	-0.489941	1.033047	0.787755
F168	F	0.010059	1.533047	1.287755
F169	F	-0.253134	0.980060	0.928127
F170	F	0.246866	1.480060	1.428127
F171	F	-0.220317	1.102465	0.786323
F172	F	0.279683	1.602465	1.286323
H173	H	-0.792067	0.995174	0.261645
H174	H	-0.292067	1.495174	0.761645
F175	F	-0.785410	1.210067	0.328052
F176	F	-0.285410	1.710067	0.828052
F177	F	-0.394797	0.520379	0.214623
F178	F	0.105203	1.020379	0.714623
