data_functionalizedCrystal
_audit_creation_method	'MofGen! by Chris Wilmer'
_symmetry_space_group_name_H-M	'P1'
_symmetry_Int_Tables_number	1
_symmetry_cell_setting	triclinic
loop_
_symmetry_equiv_pos_as_xyz
  x,y,z
_cell_length_a	23.532407
_cell_length_b	23.532361
_cell_length_c	9.730223
_cell_angle_alpha	89.998623
_cell_angle_beta	89.992466
_cell_angle_gamma	82.839173
loop_
_atom_site_label
_atom_site_type_symbol
_atom_site_fract_x
_atom_site_fract_y
_atom_site_fract_z
O1	O	0.069007	0.755278	-0.114166
O2	O	0.569007	1.255278	0.385834
O3	O	0.079038	0.589411	-0.114201
O4	O	0.579038	1.089411	0.385799
O5	O	-0.008910	0.677346	-0.114157
O6	O	0.491090	1.177346	0.385843
O7	O	0.156955	0.667343	-0.114210
O8	O	0.656955	1.167343	0.385790
O9	O	-0.008910	0.677336	0.114423
O10	O	0.491090	1.177336	0.614423
O11	O	0.079038	0.589401	0.114379
O12	O	0.579038	1.089401	0.614379
O13	O	0.069008	0.755268	0.114414
O14	O	0.569008	1.255268	0.614414
Zn15	Zn	0.074023	0.672333	0.150689
Zn16	Zn	0.574023	1.172333	0.650689
Zn17	Zn	0.074022	0.672346	-0.150475
Zn18	Zn	0.574022	1.172346	0.349525
O19	O	0.156956	0.667333	0.114370
O20	O	0.656956	1.167333	0.614370
C21	C	0.078787	0.568189	0.000085
C22	C	0.578787	1.068189	0.500085
C23	C	0.078032	0.504971	0.000073
C24	C	0.578032	1.004971	0.500073
C25	C	0.074728	0.231732	-0.124517
C26	C	0.574728	0.731732	0.375483
C27	C	0.075443	0.291132	-0.124520
C28	C	0.575443	0.791132	0.375480
O29	O	0.075792	0.321863	-0.230485
O30	O	0.575792	0.821863	0.269515
N31	N	0.075804	0.320832	0.000079
N32	N	0.575804	0.820832	0.500079
C33	C	0.075445	0.291131	0.124690
C34	C	0.575445	0.791131	0.624690
O35	O	0.075818	0.321848	0.230671
O36	O	0.575818	0.821848	0.730671
C37	C	0.074726	0.231733	0.124692
C38	C	0.574726	0.731733	0.624692
C39	C	0.074370	0.202035	0.000085
C40	C	0.574370	0.702035	0.500085
C41	C	0.074372	0.202034	-0.249114
C42	C	0.574372	0.702034	0.250886
C43	C	0.073658	0.142639	-0.249110
C44	C	0.573658	0.642639	0.250890
C45	C	0.073300	0.112941	-0.124509
C46	C	0.573300	0.612941	0.375491
C47	C	0.073657	0.142639	0.000089
C48	C	0.573657	0.642639	0.500089
C49	C	0.074363	0.202032	0.249302
C50	C	0.574363	0.702032	0.749302
C51	C	0.073643	0.142630	0.249293
C52	C	0.573643	0.642630	0.749293
C53	C	0.073288	0.112932	0.124686
C54	C	0.573288	0.612932	0.624686
C55	C	0.072585	0.053545	0.124694
C56	C	0.572585	0.553545	0.624694
N57	N	0.072224	0.023845	0.000095
N58	N	0.572224	0.523845	0.500095
C59	C	0.072581	0.053543	-0.124506
C60	C	0.572581	0.553543	0.375494
C61	C	0.076954	0.415871	0.124676
C62	C	0.576954	0.915871	0.624676
C63	C	0.077677	0.475267	0.124675
C64	C	0.577677	0.975267	0.624675
C65	C	0.077674	0.475265	-0.124536
C66	C	0.577674	0.975265	0.375464
C67	C	0.076955	0.415867	-0.124534
C68	C	0.576955	0.915867	0.375466
C69	C	0.076593	0.386171	0.000077
C70	C	0.576593	0.886171	0.500077
C71	C	0.071083	-0.071193	-0.124488
C72	C	0.571083	0.428807	0.375512
C73	C	0.070371	-0.130594	-0.124473
C74	C	0.570371	0.369406	0.375527
C75	C	0.070372	-0.130586	0.124737
C76	C	0.570372	0.369414	0.624737
C77	C	0.071086	-0.071190	0.124723
C78	C	0.571086	0.428810	0.624723
C79	C	0.071440	-0.041495	0.000099
C80	C	0.571440	0.458505	0.500099
O81	O	0.072233	0.022777	0.230605
O82	O	0.572233	0.522777	0.730605
O83	O	0.072201	0.022820	-0.230470
O84	O	0.572201	0.522820	0.269530
C85	C	-0.030126	0.677086	0.000136
C86	C	0.469874	1.177086	0.500136
C87	C	-0.093343	0.676320	0.000147
C88	C	0.406657	1.176320	0.500147
C89	C	-0.492454	0.723555	0.000081
C90	C	0.007546	1.223555	0.500081
C91	C	-0.551854	0.722844	0.000071
C92	C	-0.051854	1.222844	0.500071
O93	O	-0.588606	0.766630	0.000029
O94	O	-0.088606	1.266630	0.500029
N95	N	-0.574471	0.670566	0.000061
N96	N	-0.074471	1.170566	0.500061
C97	C	-0.537685	0.618997	0.000047
C98	C	-0.037685	1.118997	0.500047
O99	O	-0.562377	0.574465	0.000037
O100	O	-0.062377	1.074465	0.500037
C101	C	-0.478286	0.619709	0.000048
C102	C	0.021714	1.119709	0.500048
C103	C	-0.455672	0.671990	0.000072
C104	C	0.044328	1.171990	0.500072
C105	C	-0.469839	0.775832	0.000104
C106	C	0.030161	1.275832	0.500104
C107	C	-0.410443	0.776543	0.000117
C108	C	0.089557	1.276543	0.500117
C109	C	-0.373662	0.724977	0.000108
C110	C	0.126338	1.224977	0.500108
C111	C	-0.396276	0.672701	0.000085
C112	C	0.103724	1.172701	0.500085
C113	C	-0.441501	0.568140	0.000025
C114	C	0.058499	1.068140	0.500025
C115	C	-0.382099	0.568857	0.000025
C116	C	0.117901	1.068857	0.500025
C117	C	-0.359485	0.621137	0.000048
C118	C	0.140515	1.121137	0.500048
C119	C	-0.300099	0.621847	0.000089
C120	C	0.199901	1.121847	0.500089
N121	N	-0.277481	0.674124	0.000099
N122	N	0.222519	1.174124	0.500099
C123	C	-0.314263	0.725690	0.000108
C124	C	0.185737	1.225690	0.500108
C125	C	-0.662427	0.617505	0.000043
C126	C	-0.162427	1.117505	0.500043
C127	C	-0.721825	0.616793	0.000052
C128	C	-0.221825	1.116793	0.500052
C129	C	-0.735990	0.720640	0.000073
C130	C	-0.235990	1.220640	0.500073
C131	C	-0.676591	0.721352	0.000074
C132	C	-0.176591	1.221352	0.500074
C133	C	-0.639810	0.669783	0.000053
C134	C	-0.139810	1.169783	0.500053
C135	C	-0.189526	0.727179	0.000137
C136	C	0.310474	1.227179	0.500137
C137	C	-0.130124	0.727886	0.000156
C138	C	0.369876	1.227886	0.500156
C139	C	-0.115965	0.624039	0.000128
C140	C	0.384035	1.124039	0.500128
C141	C	-0.175361	0.623332	0.000116
C142	C	0.324639	1.123332	0.500116
C143	C	-0.212141	0.674907	0.000116
C144	C	0.287859	1.174907	0.500116
O145	O	-0.263312	0.578083	0.000125
O146	O	0.236688	1.078083	0.500125
O147	O	-0.289562	0.770214	0.000101
O148	O	0.210438	1.270214	0.500101
C149	C	0.178171	0.667592	0.000074
C150	C	0.678171	1.167592	0.500074
C151	C	0.241388	0.668358	0.000054
C152	C	0.741388	1.168358	0.500054
C153	C	0.069258	0.776489	0.000125
C154	C	0.569258	1.276489	0.500125
C155	C	0.070014	0.839708	0.000128
C156	C	0.570014	1.339708	0.500128
N157	N	0.074023	0.672328	0.356225
N158	N	0.574023	1.172328	0.856225
N159	N	0.074017	0.672355	-0.356012
N160	N	0.574017	1.172355	0.143988
C161	C	0.108379	0.706692	0.572023
C162	C	0.608379	1.206692	1.072023
C163	C	0.108383	0.706677	0.428140
C164	C	0.608383	1.206677	0.928140
C165	C	0.039661	0.637987	0.428200
C166	C	0.539661	1.137987	0.928200
C167	C	0.039659	0.637999	0.572081
C168	C	0.539659	1.137999	1.072081
C169	C	0.142737	0.741048	0.643931
C170	C	0.642737	1.241048	1.143931
C171	C	0.177100	0.775389	0.571965
C172	C	0.677100	1.275389	1.071965
C173	C	0.177105	0.775374	0.428082
C174	C	0.677105	1.275374	0.928082
C175	C	0.142746	0.741019	0.356165
C176	C	0.642746	1.241019	0.856165
H177	H	0.073353	0.118454	0.350768
H178	H	0.573353	0.618454	0.850768
H179	H	0.077964	0.499456	-0.225993
H180	H	0.577964	0.999456	0.274007
O181	O	-0.622757	0.561880	0.000041
O182	O	-0.122757	1.061880	0.500041
H183	H	-0.595360	0.559719	0.093205
H184	H	-0.095360	1.059719	0.593205
O185	O	-0.076286	0.568425	0.000125
O186	O	0.423714	1.068425	0.500125
H187	H	-0.084283	0.543393	-0.093045
H188	H	0.415717	1.043393	0.406955
H189	H	0.074661	0.226208	-0.350585
H190	H	0.574661	0.726208	0.149415
O191	O	-0.775668	0.776259	0.000084
O192	O	-0.275668	1.276259	0.500084
H193	H	-0.767658	0.801301	-0.093068
H194	H	-0.267658	1.301301	0.406932
O195	O	0.142733	0.741060	0.799118
O196	O	0.642733	1.241060	1.299118
H197	H	0.172399	0.770714	0.837033
H198	H	0.672399	1.270714	1.337033
O199	O	-0.746209	0.560402	0.000053
O200	O	-0.246209	1.060402	0.500053
H201	H	-0.793693	0.568563	0.000060
H202	H	-0.293693	1.068563	0.500060
H203	H	0.070083	-0.154777	0.226184
H204	H	0.570083	0.345223	0.726184
H205	H	0.071371	-0.047022	-0.225969
H206	H	0.571371	0.452978	0.274031
H207	H	0.076666	0.391695	0.226155
H208	H	0.576666	0.891695	0.726155
H209	H	0.077976	0.499441	0.226143
H210	H	0.577976	0.999441	0.726143
H211	H	0.011681	0.610037	0.630676
H212	H	0.511681	1.110037	1.130676
H213	H	0.205078	0.803355	0.630530
H214	H	0.705078	1.303355	1.130530
O215	O	-0.342428	0.513233	0.000006
O216	O	0.157572	1.013233	0.500006
H217	H	-0.315032	0.511069	0.093172
H218	H	0.184968	1.011069	0.593172
O219	O	0.002591	0.600938	0.350669
O220	O	0.502591	1.100938	0.850669
H221	H	-0.042989	0.613598	0.378332
H222	H	0.457011	1.113598	0.878332
H223	H	0.071387	-0.047011	0.226188
H224	H	0.571387	0.452989	0.726188
O225	O	0.069969	-0.162625	-0.258875
O226	O	0.569969	0.337375	0.241125
H227	H	0.070325	-0.131989	-0.345515
H228	H	0.570325	0.368011	0.154485
O229	O	-0.199751	0.566942	0.000107
O230	O	0.300249	1.066942	0.500107
H231	H	-0.226479	0.564126	0.093269
H232	H	0.273521	1.064126	0.593269
O233	O	-0.386063	0.832936	0.000117
O234	O	0.113937	1.332936	0.500117
H235	H	-0.359350	0.835755	0.093287
H236	H	0.140650	1.335755	0.593287
O237	O	-0.465884	0.511751	-0.000006
O238	O	0.034116	1.011751	0.499994
H239	H	-0.430320	0.476020	-0.000029
H240	H	0.069680	0.976020	0.499971
H241	H	0.074651	0.226203	0.350771
H242	H	0.574651	0.726203	0.850771
H243	H	-0.499782	0.817825	0.000106
H244	H	0.000218	1.317825	0.500106
H245	H	-0.111716	0.770461	0.000179
H246	H	0.388284	1.270461	0.500179
O247	O	0.214169	0.812406	0.350454
O248	O	0.714169	1.312406	0.850454
H249	H	0.238056	0.836298	0.424634
H250	H	0.738056	1.336298	0.924634
O251	O	0.142772	0.740977	0.200975
O252	O	0.642772	1.240977	0.700975
H253	H	0.172446	0.770618	0.163011
H254	H	0.672446	1.270618	0.663011
H255	H	-0.219466	0.769176	0.000132
H256	H	0.280534	1.269176	0.500132
H257	H	0.073365	0.118464	-0.350578
H258	H	0.573365	0.618464	0.149422
H259	H	-0.658183	0.763923	0.000092
H260	H	-0.158183	1.263923	0.500092
O261	O	0.076553	0.383838	-0.258928
O262	O	0.576553	0.883838	0.241072
H263	H	0.076915	0.414475	-0.345564
H264	H	0.576915	0.914475	0.154436
