data_functionalizedCrystal
_audit_creation_method	'MofGen! by Chris Wilmer'
_symmetry_space_group_name_H-M	'P1'
_symmetry_Int_Tables_number	1
_symmetry_cell_setting	triclinic
loop_
_symmetry_equiv_pos_as_xyz
  x,y,z
_cell_length_a	11.169417
_cell_length_b	14.908520
_cell_length_c	11.169409
_cell_angle_alpha	93.260332
_cell_angle_beta	89.980487
_cell_angle_gamma	93.321755
loop_
_atom_site_label
_atom_site_type_symbol
_atom_site_fract_x
_atom_site_fract_y
_atom_site_fract_z
Zn1	Zn	1.807299	-0.359054	-0.706049
Zn2	Zn	1.795563	-0.509946	-0.516930
Zn3	Zn	1.606581	-0.359110	-0.505389
Zn4	Zn	1.594972	-0.509873	-0.717571
O5	O	1.701104	-0.434496	-0.611485
O6	O	1.973691	-0.379077	-0.680971
O7	O	1.770440	-0.489991	-0.347453
O8	O	1.642976	-0.232858	-0.522356
O9	O	1.965069	-0.489937	-0.542025
O10	O	1.790443	-0.232817	-0.669780
O11	O	1.631596	-0.379172	-0.338974
O12	O	1.437092	-0.379102	-0.533527
O13	O	1.623192	-0.489813	-0.883988
O14	O	1.428563	-0.489867	-0.689416
O15	O	1.779187	-0.379007	-0.875523
O16	O	1.759184	-0.636180	-0.553197
O17	O	1.611812	-0.636127	-0.700607
C18	C	1.389280	-0.434484	-0.611470
C19	C	1.255879	-0.434500	-0.611494
C20	C	1.682997	-0.668887	-0.629431
C21	C	1.675361	-0.769161	-0.637148
C22	C	1.814629	-0.957580	-0.498276
C23	C	1.807459	-1.051796	-0.505523
C24	C	1.653856	-1.051811	-0.658895
C25	C	1.661027	-0.957595	-0.651648
C26	C	1.741415	-0.910483	-0.571334
C27	C	1.748579	-0.816265	-0.564082
C28	C	1.594983	-0.816281	-0.717459
C29	C	1.587812	-0.910497	-0.724706
C30	C	2.014145	-0.434509	-0.611500
C31	C	2.147545	-0.434514	-0.611507
C32	C	1.701204	-0.434395	-0.924520
C33	C	1.701246	-0.434353	-1.057917
C34	C	1.719313	-0.199189	-0.593495
C35	C	1.727073	-0.098915	-0.585829
C36	C	1.701078	-0.434530	-0.299663
C37	C	1.701288	-0.434319	-0.166247
H38	H	1.814032	-0.777907	-0.498683
H39	H	1.880076	-0.919221	-0.432873
C40	C	1.887004	-1.102769	-0.426055
C41	C	1.958914	-1.041341	-0.354153
C42	C	2.032200	-1.088263	-0.280919
H43	H	1.936584	-1.139465	-0.474702
H44	H	1.838349	-1.139564	-0.376484
H45	H	2.007565	-1.004561	-0.403718
H46	H	1.909366	-1.004643	-0.305482
H47	H	1.983544	-1.125059	-0.231348
H48	H	2.081772	-1.124957	-0.329575
H49	H	2.080991	-1.046591	-0.232117
C50	C	1.566618	-1.103133	-0.745969
C51	C	1.575997	-1.195724	-0.736656
C52	C	1.495640	-1.243030	-0.816837
H53	H	1.585227	-1.087743	-0.825491
H54	H	1.487127	-1.087816	-0.727138
H55	H	1.655470	-1.211035	-0.755495
H56	H	1.557378	-1.211141	-0.657152
H57	H	1.416149	-1.227712	-0.798006
H58	H	1.514255	-1.227632	-0.896353
H59	H	1.501985	-1.305857	-0.810521
C60	C	1.500689	-0.961606	-0.812095
C61	C	1.528518	-0.938617	-0.929100
C62	C	1.448294	-0.985687	-1.009635
H63	H	1.421184	-0.946271	-0.793432
H64	H	1.506916	-1.024471	-0.806031
H65	H	1.522281	-0.875765	-0.935160
H66	H	1.608009	-0.953953	-0.947801
H67	H	1.454520	-1.048552	-1.003571
H68	H	1.368793	-0.970349	-0.990961
H69	H	1.467171	-0.970102	-1.089032
C70	C	1.515630	-0.764983	-0.796730
C71	C	1.539130	-0.672388	-0.773215
C72	C	1.466064	-0.625105	-0.846221
H73	H	1.433781	-0.780383	-0.780351
H74	H	1.531994	-0.780310	-0.878591
H75	H	1.522757	-0.657067	-0.691372
H76	H	1.620965	-0.656962	-0.789600
H77	H	1.482427	-0.640432	-0.928083
H78	H	1.384219	-0.640512	-0.829837
H79	H	1.482006	-0.562274	-0.830285
