data_functionalizedCrystal
_audit_creation_method	'MofGen! by Chris Wilmer'
_symmetry_space_group_name_H-M	'P1'
_symmetry_Int_Tables_number	1
_symmetry_cell_setting	triclinic
loop_
_symmetry_equiv_pos_as_xyz
  x,y,z
_cell_length_a	27.732048
_cell_length_b	16.109293
_cell_length_c	14.586319
_cell_angle_alpha	90.006918
_cell_angle_beta	89.991275
_cell_angle_gamma	96.949538
loop_
_atom_site_label
_atom_site_type_symbol
_atom_site_fract_x
_atom_site_fract_y
_atom_site_fract_z
O1	O	0.062112	-1.102366	-0.076323
O2	O	0.562112	-0.602366	0.423677
O3	O	0.069848	-0.860207	-0.076310
O4	O	0.569848	-0.360207	0.423690
O5	O	-0.004385	-0.988807	-0.076299
O6	O	0.495615	-0.488807	0.423701
O7	O	0.136345	-0.973766	-0.076333
O8	O	0.636345	-0.473766	0.423667
O9	O	-0.004387	-0.988799	0.076181
O10	O	0.495613	-0.488799	0.576181
O11	O	0.069847	-0.860198	0.076171
O12	O	0.569847	-0.360198	0.576171
O13	O	0.062111	-1.102357	0.076158
O14	O	0.562111	-0.602357	0.576158
Cu15	Cu	0.065979	-0.981277	0.090087
Cu16	Cu	0.565979	-0.481277	0.590087
Cu17	Cu	0.065980	-0.981287	-0.090239
Cu18	Cu	0.565980	-0.481287	0.409761
O19	O	0.136344	-0.973757	0.076147
O20	O	0.636344	-0.473757	0.576147
C21	C	0.069535	-0.829232	-0.000068
C22	C	0.569535	-0.329232	0.499932
C23	C	0.068597	-0.736948	-0.000062
C24	C	0.568597	-0.236948	0.499938
C25	C	0.066429	-0.524628	0.083053
C26	C	0.566429	-0.024628	0.583053
C27	C	0.065543	-0.437918	0.083052
C28	C	0.565543	0.062082	0.583052
C29	C	0.065546	-0.437938	-0.083191
C30	C	0.565546	0.062062	0.416809
C31	C	0.066429	-0.524647	-0.083189
C32	C	0.566429	-0.024647	0.416811
C33	C	0.066873	-0.567989	-0.000065
C34	C	0.566873	-0.067989	0.499935
C35	C	0.065104	-0.394571	-0.000067
C36	C	0.565104	0.105429	0.499933
C37	C	0.064143	-0.300557	-0.000068
C38	C	0.564143	0.199443	0.499932
C39	C	0.067833	-0.662009	-0.000063
C40	C	0.567833	-0.162009	0.499937
C41	C	-0.022394	-0.988487	-0.000056
C42	C	0.477606	-0.488487	0.499944
C43	C	-0.076053	-0.987537	-0.000049
C44	C	0.423947	-0.487537	0.499951
C45	C	-0.414576	-1.057545	-0.000100
C46	C	0.085424	-0.557545	0.499900
C47	C	-0.616251	-1.054018	-0.000112
C48	C	-0.116251	-0.554018	0.499888
O49	O	-0.647239	-1.118036	-0.000156
O50	O	-0.147239	-0.618036	0.499844
N51	N	-0.635692	-0.977763	-0.000107
N52	N	-0.135692	-0.477763	0.499893
C53	C	-0.604712	-0.902385	-0.000105
C54	C	-0.104712	-0.402385	0.499895
O55	O	-0.625876	-0.837445	-0.000111
O56	O	-0.125876	-0.337445	0.499889
C57	C	-0.403038	-0.905913	-0.000099
C58	C	0.096962	-0.405913	0.499901
C59	C	-0.383600	-0.982173	-0.000095
C60	C	0.116400	-0.482173	0.499905
C61	C	-0.395137	-1.133799	-0.000096
C62	C	0.104863	-0.633799	0.499904
C63	C	-0.344721	-1.134680	-0.000088
C64	C	0.155279	-0.634680	0.499912
C65	C	-0.313745	-1.059307	-0.000083
C66	C	0.186255	-0.559307	0.499917
C67	C	-0.333184	-0.983054	-0.000087
C68	C	0.166816	-0.483054	0.499913
C69	C	-0.372059	-0.830536	-0.000104
C70	C	0.127941	-0.330536	0.499896
C71	C	-0.321638	-0.831425	-0.000105
C72	C	0.178362	-0.331425	0.499895
C73	C	-0.302199	-0.907685	-0.000100
C74	C	0.197801	-0.407685	0.499900
C75	C	-0.251792	-0.908563	-0.000074
C76	C	0.248208	-0.408563	0.499926
N77	N	-0.232351	-0.984817	-0.000079
N78	N	0.267649	-0.484817	0.499921
C79	C	-0.263327	-1.060190	-0.000083
C80	C	0.236673	-0.560190	0.499917
C81	C	-0.710594	-0.900538	-0.000107
C82	C	-0.210594	-0.400538	0.499893
C83	C	-0.761012	-0.899655	-0.000106
C84	C	-0.261012	-0.399655	0.499894
C85	C	-0.772547	-1.051288	-0.000115
C86	C	-0.272547	-0.551288	0.499885
C87	C	-0.722128	-1.052170	-0.000109
C88	C	-0.222128	-0.552170	0.499891
C89	C	-0.691152	-0.976792	-0.000112
C90	C	-0.191152	-0.476792	0.499888
C91	C	-0.157450	-1.062034	-0.000066
C92	C	0.342550	-0.562034	0.499934
C93	C	-0.107029	-1.062909	-0.000054
C94	C	0.392971	-0.562909	0.499946
C95	C	-0.095499	-0.911276	-0.000050
C96	C	0.404501	-0.411276	0.499950
C97	C	-0.145915	-0.910401	-0.000057
C98	C	0.354085	-0.410401	0.499943
C99	C	-0.176890	-0.985787	-0.000068
C100	C	0.323110	-0.485787	0.499932
O101	O	-0.220775	-0.844579	-0.000041
O102	O	0.279225	-0.344579	0.499959
O103	O	-0.242154	-1.125120	-0.000098
O104	O	0.257846	-0.625120	0.499902
C105	C	-0.464992	-1.056664	-0.000108
C106	C	0.035008	-0.556664	0.499892
C107	C	-0.484431	-0.980411	-0.000111
C108	C	0.015569	-0.480411	0.499889
C109	C	-0.453455	-0.905038	-0.000106
C110	C	0.046545	-0.405038	0.499894
C111	C	-0.534849	-0.979528	-0.000111
C112	C	-0.034849	-0.479528	0.499889
C113	C	-0.565826	-1.054901	-0.000116
C114	C	-0.065826	-0.554901	0.499884
C115	C	-0.546384	-1.131155	-0.000121
C116	C	-0.046384	-0.631155	0.499879
C117	C	-0.495968	-1.132036	-0.000113
C118	C	0.004032	-0.632036	0.499887
C119	C	-0.472896	-0.828784	-0.000101
C120	C	0.027104	-0.328784	0.499899
C121	C	-0.523312	-0.827909	-0.000109
C122	C	-0.023312	-0.327909	0.499891
C123	C	-0.554289	-0.903281	-0.000113
C124	C	-0.054289	-0.403281	0.499887
C125	C	0.154353	-0.974077	-0.000098
C126	C	0.654353	-0.474077	0.499902
C127	C	0.208012	-0.975028	-0.000111
C128	C	0.708012	-0.475028	0.499889
C129	C	0.062429	-0.133331	-0.000079
C130	C	0.562429	0.366669	0.499921
C131	C	0.063380	-0.225612	-0.000070
C132	C	0.563380	0.274388	0.499930
N133	N	0.065978	-0.981276	0.216919
N134	N	0.565978	-0.481276	0.716919
N135	N	0.065977	-0.981295	-0.217071
N136	N	0.565977	-0.481295	0.282929
C137	C	0.033118	-1.038238	0.451930
C138	C	0.533118	-0.538238	0.951930
C139	C	0.033117	-1.038241	0.547911
C140	C	0.533117	-0.538241	1.047911
C141	C	0.098839	-0.924326	0.547911
C142	C	0.598839	-0.424326	1.047911
C143	C	0.098837	-0.924321	0.451932
C144	C	0.598837	-0.424321	0.951932
C145	C	0.065977	-0.981281	0.403944
C146	C	0.565977	-0.481281	0.903944
C147	C	0.065978	-0.981289	0.595904
C148	C	0.565978	-0.481289	1.095904
C149	C	0.065977	-0.981292	0.699971
C150	C	0.565977	-0.481292	1.199971
C151	C	0.065978	-0.981278	0.299870
C152	C	0.565978	-0.481278	0.799870
H153	H	-0.091206	-1.125011	-0.000048
H154	H	0.408794	-0.625011	0.499952
H155	H	-0.182665	-1.123421	-0.000078
H156	H	0.317335	-0.623421	0.499922
H157	H	0.006361	-1.084618	0.412860
H158	H	0.506361	-0.584618	0.912860
C159	C	-0.445961	-1.221009	-0.078498
C160	C	0.054039	-0.721009	0.421502
C161	C	-0.474605	-1.215863	-0.000116
C162	C	0.025395	-0.715863	0.499884
H163	H	-0.432772	-1.272761	-0.078497
H164	H	0.067228	-0.772761	0.421503
H165	H	-0.465385	-1.217513	-0.131662
H166	H	0.034615	-0.717513	0.368338
H167	H	-0.420293	-1.176249	-0.078483
H168	H	0.079707	-0.676249	0.421517
H169	H	-0.500274	-1.260620	-0.000134
H170	H	-0.000274	-0.760620	0.499866
H171	H	-0.455179	-1.219367	0.053061
H172	H	0.044821	-0.719367	0.553061
H173	H	-0.296419	-0.770042	-0.000108
H174	H	0.203581	-0.270042	0.499892
C175	C	0.025165	-0.561193	0.224748
C176	C	0.525165	-0.061193	0.724748
C177	C	0.066909	-0.572274	0.174420
C178	C	0.566909	-0.072274	0.674420
H179	H	0.025459	-0.590612	0.281153
H180	H	0.525459	-0.090612	0.781153
H181	H	0.024579	-0.503353	0.236641
H182	H	0.524579	-0.003353	0.736641
H183	H	-0.002855	-0.582114	0.190587
H184	H	0.497145	-0.082114	0.690587
H185	H	0.094929	-0.551348	0.208579
H186	H	0.594929	-0.051348	0.708579
H187	H	0.067499	-0.630126	0.162530
H188	H	0.567499	-0.130126	0.662530
H189	H	0.006359	-1.084619	0.586979
H190	H	0.506359	-0.584619	1.086979
C191	C	-0.195914	-0.821452	-0.078445
C192	C	0.304086	-0.321452	0.421555
C193	C	-0.167288	-0.826580	-0.000053
C194	C	0.332712	-0.326580	0.499947
H195	H	-0.209109	-0.769705	-0.078444
H196	H	0.290891	-0.269705	0.421556
H197	H	-0.176476	-0.824946	-0.131602
H198	H	0.323524	-0.324946	0.368398
H199	H	-0.221577	-0.866220	-0.078443
H200	H	0.278423	-0.366220	0.421557
H201	H	-0.141623	-0.781815	-0.000058
H202	H	0.358377	-0.281815	0.499942
H203	H	-0.186728	-0.823078	0.053118
H204	H	0.313272	-0.323078	0.553118
C205	C	0.023754	-0.421134	-0.224885
C206	C	0.523754	0.078866	0.275115
C207	C	0.065066	-0.390294	-0.174559
C208	C	0.565066	0.109706	0.325441
H209	H	0.023459	-0.391717	-0.281291
H210	H	0.523459	0.108283	0.218709
H211	H	0.024345	-0.478973	-0.236776
H212	H	0.524345	0.021027	0.263224
H213	H	-0.004559	-0.413613	-0.190723
H214	H	0.495441	0.086387	0.309277
H215	H	0.093380	-0.397820	-0.208719
H216	H	0.593380	0.102180	0.291281
H217	H	0.064479	-0.332441	-0.162671
H218	H	0.564479	0.167559	0.337329
H219	H	0.065182	-0.402618	0.150735
H220	H	0.565182	0.097382	0.650735
H221	H	0.125593	-0.877951	0.586993
H222	H	0.625593	-0.377951	1.086993
C223	C	-0.013086	-0.845317	-0.000051
C224	C	0.486914	-0.345317	0.499949
C225	C	-0.061443	-0.828429	-0.000050
C226	C	0.438557	-0.328429	0.499950
H227	H	0.007939	-0.794169	-0.000062
H228	H	0.507939	-0.294169	0.499938
H229	H	-0.007202	-0.876599	0.053122
H230	H	0.492798	-0.376599	0.553122
H231	H	-0.007198	-0.876624	-0.053225
H232	H	0.492802	-0.376624	0.446775
H233	H	-0.067332	-0.797127	0.053127
H234	H	0.432668	-0.297127	0.553127
H235	H	-0.067329	-0.797134	-0.053229
H236	H	0.432671	-0.297134	0.446771
H237	H	0.125595	-0.877936	0.412859
H238	H	0.625595	-0.377936	0.912859
H239	H	0.066789	-0.559953	-0.150878
H240	H	0.566789	-0.059953	0.349122
H241	H	-0.328900	-1.196778	-0.000088
H242	H	0.171100	-0.696778	0.499912
C243	C	-0.628797	-1.197117	-0.000143
C244	C	-0.128797	-0.697117	0.499857
C245	C	-0.580440	-1.214006	-0.000132
C246	C	-0.080440	-0.714006	0.499868
H247	H	-0.649822	-1.248263	-0.000161
H248	H	-0.149822	-0.748263	0.499839
H249	H	-0.634691	-1.165827	0.053030
H250	H	-0.134691	-0.665827	0.553030
H251	H	-0.634673	-1.165816	-0.053317
H252	H	-0.134673	-0.665816	0.446683
H253	H	-0.574563	-1.245302	0.053045
H254	H	-0.074563	-0.745302	0.553045
H255	H	-0.574544	-1.245310	-0.053311
H256	H	-0.074544	-0.745310	0.446689
H257	H	-0.420354	-1.195179	-0.000103
H258	H	0.079646	-0.695179	0.499897
C259	C	-0.797901	-1.180258	-0.078519
C260	C	-0.297901	-0.680258	0.421481
C261	C	-0.806601	-1.134142	-0.000128
C262	C	-0.306601	-0.634142	0.499872
H263	H	-0.818924	-1.231408	-0.078528
H264	H	-0.318924	-0.731408	0.421472
H265	H	-0.803788	-1.148957	-0.131677
H266	H	-0.303788	-0.648957	0.368323
H267	H	-0.765091	-1.191697	-0.078508
H268	H	-0.265091	-0.691697	0.421492
H269	H	-0.839410	-1.122698	-0.000142
H270	H	-0.339410	-0.622698	0.499858
H271	H	-0.800718	-1.165450	0.053043
H272	H	-0.300718	-0.665450	0.553043
H273	H	-0.706305	-1.114267	-0.000106
H274	H	-0.206305	-0.614267	0.499894
C275	C	-0.744533	-0.749864	-0.000106
C276	C	-0.244533	-0.249864	0.499894
C277	C	-0.782375	-0.815829	-0.000104
C278	C	-0.282375	-0.315829	0.499896
H279	H	-0.757721	-0.698112	-0.000114
H280	H	-0.257721	-0.198112	0.499886
H281	H	-0.725115	-0.753360	0.053066
H282	H	-0.225115	-0.253360	0.553066
H283	H	-0.725103	-0.753378	-0.053281
H284	H	-0.225103	-0.253378	0.446719
H285	H	-0.801803	-0.812318	0.053075
H286	H	-0.301803	-0.312318	0.553075
H287	H	-0.801801	-0.812331	-0.053281
H288	H	-0.301801	-0.312331	0.446719
H289	H	-0.685377	-0.839153	-0.000109
H290	H	-0.185377	-0.339153	0.499891
H291	H	-0.387877	-0.768438	-0.000113
H292	H	0.112123	-0.268438	0.499887
H293	H	-0.539134	-0.765805	-0.000104
H294	H	-0.039134	-0.265805	0.499896
C295	C	-0.466569	-0.678819	-0.000080
C296	C	0.033431	-0.178819	0.499920
C297	C	-0.438851	-0.745927	-0.000086
C298	C	0.061149	-0.245927	0.499914
H299	H	-0.445551	-0.627664	-0.000060
H300	H	0.054449	-0.127664	0.499940
H301	H	-0.486464	-0.681631	-0.053256
H302	H	0.013536	-0.181631	0.446744
H303	H	-0.486484	-0.681643	0.053091
H304	H	0.013516	-0.181643	0.553091
H305	H	-0.418939	-0.743106	-0.053261
H306	H	0.081061	-0.243106	0.446739
H307	H	-0.418948	-0.743114	0.053096
H308	H	0.081052	-0.243114	0.553096
