data_functionalizedCrystal
_audit_creation_method	'MofGen! by Chris Wilmer'
_symmetry_space_group_name_H-M	'P1'
_symmetry_Int_Tables_number	1
_symmetry_cell_setting	triclinic
loop_
_symmetry_equiv_pos_as_xyz
  x,y,z
_cell_length_a	17.077404
_cell_length_b	16.120484
_cell_length_c	17.077396
_cell_angle_alpha	87.131254
_cell_angle_beta	90.019501
_cell_angle_gamma	92.925780
loop_
_atom_site_label
_atom_site_type_symbol
_atom_site_fract_x
_atom_site_fract_y
_atom_site_fract_z
Zn1	Zn	1.184194	-0.331902	0.459673
Zn2	Zn	1.684194	0.168098	0.959673
Zn3	Zn	1.177439	-0.471326	0.335057
Zn4	Zn	1.677439	0.028674	0.835057
Zn5	Zn	1.052925	-0.331932	0.328422
Zn6	Zn	1.552925	0.168068	0.828422
Zn7	Zn	1.046234	-0.471277	0.466278
Zn8	Zn	1.546234	0.028723	0.966278
O9	O	1.115198	-0.401609	0.397358
O10	O	1.615198	0.098391	0.897358
O11	O	1.293145	-0.350406	0.443155
O12	O	1.793145	0.149594	0.943155
O13	O	1.160895	-0.452868	0.224331
O14	O	1.660895	0.047132	0.724331
O15	O	1.075965	-0.215262	0.340292
O16	O	1.575965	0.284738	0.840292
O17	O	1.288181	-0.452840	0.351600
O18	O	1.788181	0.047160	0.851600
O19	O	1.172408	-0.215241	0.436721
O20	O	1.672408	0.284759	0.936721
O21	O	1.069415	-0.350456	0.219457
O22	O	1.569415	0.149544	0.719457
O23	O	0.942191	-0.350408	0.346697
O24	O	1.442191	0.149592	0.846697
O25	O	1.064562	-0.452756	0.575247
O26	O	1.564562	0.047244	1.075247
O27	O	0.937275	-0.452784	0.447979
O28	O	1.437275	0.047216	0.947979
O29	O	1.165921	-0.350358	0.570395
O30	O	1.665921	0.149642	1.070395
O31	O	1.154407	-0.587986	0.358004
O32	O	1.654407	-0.087986	0.858004
O33	O	1.058011	-0.587949	0.454412
O34	O	1.558011	-0.087949	0.954412
C35	C	0.911251	-0.401594	0.397335
C36	C	1.411251	0.098406	0.897335
C37	C	0.824000	-0.401608	0.397345
C38	C	1.324000	0.098392	0.897345
C39	C	0.780467	-0.454996	0.450006
C40	C	1.280467	0.045004	0.950006
C41	C	0.698487	-0.454997	0.450019
C42	C	1.198487	0.045003	0.950019
C43	C	0.660041	-0.401615	0.397366
C44	C	1.160041	0.098385	0.897366
C45	C	0.703580	-0.348221	0.344703
C46	C	1.203580	0.151779	0.844703
C47	C	0.785559	-0.348216	0.344694
C48	C	1.285559	0.151784	0.844694
C49	C	0.532709	-0.348238	0.344722
C50	C	1.032709	0.151762	0.844722
C51	C	0.450724	-0.348244	0.344729
C52	C	0.950724	0.151756	0.844729
C53	C	0.445637	-0.455019	0.450047
C54	C	0.945637	0.044981	0.950047
C55	C	0.527616	-0.455014	0.450038
C56	C	1.027616	0.044986	0.950038
C57	C	0.571149	-0.401621	0.397374
C58	C	1.071149	0.098379	0.897374
C59	C	1.104771	-0.618218	0.407662
C60	C	1.604771	-0.118218	0.907662
C61	C	1.100383	-0.710884	0.412097
C62	C	1.600383	-0.210884	0.912097
C63	C	1.092374	-0.880545	0.420209
C64	C	1.592374	-0.380545	0.920209
C65	C	1.138162	-0.921833	0.374519
C66	C	1.638162	-0.421833	0.874519
C67	C	1.133706	-1.016239	0.379033
C68	C	1.633706	-0.516239	0.879033
C69	C	1.096829	-0.786131	0.415696
C70	C	1.596829	-0.286131	0.915696
C71	C	1.319941	-0.401625	0.397381
C72	C	1.819941	0.098375	0.897381
C73	C	1.407191	-0.401632	0.397390
C74	C	1.907191	0.098368	0.897390
C75	C	1.115248	-0.401548	0.602099
C76	C	1.615248	0.098452	1.102099
C77	C	1.115270	-0.401522	0.689348
C78	C	1.615270	0.098478	1.189348
C79	C	1.125687	-0.184155	0.387030
C80	C	1.625687	0.315845	0.887030
C81	C	1.130156	-0.091489	0.382629
C82	C	1.630156	0.408511	0.882629
C83	C	1.115196	-0.401610	0.193410
C84	C	1.615196	0.098390	0.693410
C85	C	1.115338	-0.401402	0.106150
C86	C	1.615338	0.098598	0.606150
C87	C	1.168049	-0.348199	0.727812
C88	C	1.668049	0.151801	1.227812
C89	C	1.168060	-0.348171	0.809791
C90	C	1.668060	0.151829	1.309791
C91	C	1.115295	-0.401471	0.853305
C92	C	1.615295	0.098529	1.353305
C93	C	1.062509	-0.454796	0.814835
C94	C	1.562509	0.045204	1.314835
C95	C	1.062495	-0.454819	0.732857
C96	C	1.562495	0.045181	1.232857
C97	C	1.062543	-0.454746	0.985702
C98	C	1.562543	0.045254	1.485702
C99	C	1.062558	-0.454725	1.067686
C100	C	1.562558	0.045275	1.567686
C101	C	1.168108	-0.348098	1.062637
C102	C	1.668108	0.151902	1.562637
C103	C	1.168094	-0.348121	0.980659
C104	C	1.668094	0.151879	1.480659
C105	C	1.115310	-0.401448	0.942195
C106	C	1.615310	0.098552	1.442195
H107	H	0.811764	-0.498469	0.492880
H108	H	1.311764	0.001531	0.992880
F109	F	1.224286	-0.291344	1.103574
F110	F	1.724286	0.208656	1.603574
H111	H	1.211020	-0.304798	0.692389
H112	H	1.711020	0.195202	1.192389
H113	H	0.663045	-0.498472	0.492900
H114	H	1.163045	0.001528	0.992900
H115	H	1.019549	-0.498158	0.954387
H116	H	1.519549	0.001842	1.454387
H117	H	1.019509	-0.498232	0.701540
H118	H	1.519509	0.001768	1.201540
H119	H	1.019544	-0.498191	0.850270
H120	H	1.519544	0.001809	1.350270
H121	H	1.211065	-0.304724	0.945232
H122	H	1.711065	0.195276	1.445232
H123	H	1.049831	-0.916096	0.462712
H124	H	1.549831	-0.416096	0.962712
H125	H	1.211040	-0.304752	0.841105
H126	H	1.711040	0.195248	1.341105
H127	H	1.180708	-0.886279	0.332012
H128	H	1.680708	-0.386279	0.832012
H129	H	0.410188	-0.498491	0.492930
H130	H	0.910188	0.001509	0.992930
H131	H	0.558916	-0.498487	0.492909
H132	H	1.058916	0.001513	0.992909
H133	H	0.419424	-0.304766	0.301864
H134	H	0.919424	0.195234	0.801864
F135	F	0.579039	-0.291410	0.288671
F136	F	1.079039	0.208590	0.788671
H137	H	0.672271	-0.304753	0.301835
H138	H	1.172271	0.195247	0.801835
H139	H	1.019590	-0.498124	1.103113
H140	H	1.519590	0.001876	1.603113
H141	H	0.821003	-0.304738	0.301816
H142	H	1.321003	0.195262	0.801816
