data_functionalizedCrystal
_audit_creation_method	'MofGen! by Chris Wilmer'
_symmetry_space_group_name_H-M	'P1'
_symmetry_Int_Tables_number	1
_symmetry_cell_setting	triclinic
loop_
_symmetry_equiv_pos_as_xyz
  x,y,z
_cell_length_a	19.120904
_cell_length_b	17.077404
_cell_length_c	17.077402
_cell_angle_alpha	90.023108
_cell_angle_beta	87.587932
_cell_angle_gamma	87.577137
loop_
_atom_site_label
_atom_site_type_symbol
_atom_site_fract_x
_atom_site_fract_y
_atom_site_fract_z
Zn1	Zn	-0.397109	-1.181100	0.331454
Zn2	Zn	0.102891	-0.681100	0.831454
Zn3	Zn	-0.279660	-1.186613	0.457124
Zn4	Zn	0.220340	-0.686613	0.957124
Zn5	Zn	-0.279675	-1.055437	0.325878
Zn6	Zn	0.220325	-0.555437	0.825878
Zn7	Zn	-0.397068	-1.049801	0.462681
Zn8	Zn	0.102932	-0.549801	0.962681
O9	O	-0.338378	-1.118238	0.394284
O10	O	0.161622	-0.618238	0.894284
O11	O	-0.381540	-1.291677	0.348133
O12	O	0.118460	-0.791677	0.848133
O13	O	-0.181379	-1.173878	0.435055
O14	O	0.318621	-0.673878	0.935055
O15	O	-0.295276	-1.072157	0.216772
O16	O	0.204724	-0.572157	0.716772
O17	O	-0.295250	-1.295728	0.440462
O18	O	0.204750	-0.795728	0.940462
O19	O	-0.381554	-1.164481	0.220869
O20	O	0.118446	-0.664481	0.720869
O21	O	-0.181391	-1.077503	0.338629
O22	O	0.318609	-0.577503	0.838629
O23	O	-0.295237	-0.944843	0.344016
O24	O	0.204763	-0.444843	0.844016
O25	O	-0.495356	-1.062553	0.449933
O26	O	0.004644	-0.562553	0.949933
O27	O	-0.381485	-0.940703	0.444525
O28	O	0.118515	-0.440703	0.944525
O29	O	-0.495386	-1.159017	0.353521
O30	O	0.004614	-0.659017	0.853521
O31	O	-0.295211	-1.168413	0.567707
O32	O	0.204789	-0.668413	1.067707
O33	O	-0.381470	-1.067899	0.571790
O34	O	0.118530	-0.567899	1.071790
C35	C	-0.338359	-0.914291	0.394269
C36	C	0.161641	-0.414291	0.894269
C37	C	-0.338367	-0.827041	0.394282
C38	C	0.161633	-0.327041	0.894282
C39	C	-0.338350	-1.118163	0.598231
C40	C	0.161650	-0.618163	1.098231
C41	C	-0.338361	-1.118202	0.685481
C42	C	0.161639	-0.618202	1.185481
C43	C	-0.521567	-1.109541	0.402969
C44	C	-0.021567	-0.609541	0.902969
C45	C	-0.599631	-1.105835	0.406669
C46	C	-0.099631	-0.605835	0.906669
C47	C	-0.636323	-1.154315	0.358214
C48	C	-0.136323	-0.654315	0.858214
C49	C	-0.709672	-1.150824	0.361688
C50	C	-0.209672	-0.650824	0.861688
C51	C	-0.746329	-1.098855	0.413623
C52	C	-0.246329	-0.598855	0.913623
C53	C	-0.709633	-1.050370	0.462080
C54	C	-0.209633	-0.550370	0.962080
C55	C	-0.636284	-1.053858	0.458601
C56	C	-0.136284	-0.553858	0.958601
C57	C	-0.967793	-1.085806	0.426634
C58	C	-0.467793	-0.585806	0.926634
C59	C	-1.041146	-1.082324	0.430111
C60	C	-0.541146	-0.582324	0.930111
C61	C	-1.041181	-1.182777	0.329718
C62	C	-0.541181	-0.682777	0.829718
C63	C	-0.967831	-1.186264	0.326247
C64	C	-0.467831	-0.686264	0.826247
C65	C	-0.931141	-1.137775	0.374701
C66	C	-0.431141	-0.637775	0.874701
C67	C	-0.821304	-1.095287	0.417177
C68	C	-0.321304	-0.595287	0.917177
C69	C	-0.856167	-1.141341	0.371142
C70	C	-0.356167	-0.641341	0.871142
C71	C	-0.155902	-1.126946	0.385577
C72	C	0.344098	-0.626946	0.885577
C73	C	-0.077838	-1.130804	0.381655
C74	C	0.422162	-0.630804	0.881655
C75	C	-0.338398	-1.322981	0.394300
C76	C	0.161602	-0.822981	0.894300
C77	C	-0.338406	-1.410230	0.394307
C78	C	0.161594	-0.910230	0.894307
C79	C	-0.383204	-0.783918	0.446689
C80	C	0.116796	-0.283918	0.946689
C81	C	-0.383216	-0.701937	0.446692
C82	C	0.116784	-0.201937	0.946692
C83	C	-0.338385	-0.663080	0.394290
C84	C	0.161615	-0.163080	0.894290
C85	C	-0.293546	-0.706208	0.341877
C86	C	0.206454	-0.206208	0.841877
C87	C	-0.293539	-0.788187	0.341872
C88	C	0.206461	-0.288187	0.841872
C89	C	-0.293563	-0.535337	0.341894
C90	C	0.206437	-0.035337	0.841894
C91	C	-0.293569	-0.453352	0.341900
C92	C	0.206431	0.046648	0.841900
C93	C	-0.383240	-0.449087	0.446713
C94	C	0.116760	0.050913	0.946713
C95	C	-0.383233	-0.531067	0.446708
C96	C	0.116767	-0.031067	0.946708
C97	C	-0.338392	-0.574189	0.394296
C98	C	0.161608	-0.074189	0.894296
C99	C	-0.338422	-1.118333	0.189542
C100	C	0.161578	-0.618333	0.689542
C101	C	-0.338440	-1.118374	0.102293
C102	C	0.161560	-0.618374	0.602293
C103	C	-0.293494	-1.170589	0.724322
C104	C	0.206506	-0.670589	1.224322
C105	C	-0.293512	-1.170627	0.806303
C106	C	0.206488	-0.670627	1.306303
C107	C	-0.338394	-1.118273	0.849442
C108	C	0.161606	-0.618273	1.349442
C109	C	-0.383266	-1.065883	0.810596
C110	C	0.116734	-0.565883	1.310596
C111	C	-0.383251	-1.065850	0.728616
C112	C	0.116749	-0.565850	1.228616
C113	C	-0.383293	-1.065955	0.981467
C114	C	0.116707	-0.565955	1.481467
C115	C	-0.383307	-1.065987	1.063452
C116	C	0.116693	-0.565987	1.563452
C117	C	-0.293554	-1.170731	1.059154
C118	C	0.206446	-0.670731	1.559154
C119	C	-0.293539	-1.170698	0.977174
C120	C	0.206461	-0.670698	1.477174
C121	C	-0.338410	-1.118307	0.938334
C122	C	0.161590	-0.618307	1.438334
H123	H	-0.606482	-1.196636	0.315926
H124	H	-0.106482	-0.696636	0.815926
Cl125	Cl	-0.439586	-0.647730	0.512578
Cl126	Cl	0.060414	-0.147730	1.012578
H127	H	-0.606411	-1.014372	0.498051
H128	H	-0.106411	-0.514372	0.998051
H129	H	-0.256989	-1.213325	0.942051
H130	H	0.243011	-0.713325	1.442051
Cl131	Cl	-0.439587	-0.579915	0.512591
Cl132	Cl	0.060413	-0.079915	1.012591
Cl133	Cl	-0.237063	-1.236405	0.670098
Cl134	Cl	0.262937	-0.736405	1.170098
Cl135	Cl	-1.087229	-1.016982	0.495400
Cl136	Cl	-0.587229	-0.516982	0.995400
Cl137	Cl	-0.755796	-1.211808	0.300805
Cl138	Cl	-0.255796	-0.711808	0.800805
H139	H	-0.257055	-0.570445	0.299207
H140	H	0.242945	-0.070445	0.799207
H141	H	-0.257020	-1.213392	1.090782
H142	H	0.242980	-0.713392	1.590782
Cl143	Cl	-0.810083	-1.206662	0.305848
Cl144	Cl	-0.310083	-0.706662	0.805848
Cl145	Cl	-0.921678	-1.024850	0.487549
Cl146	Cl	-0.421678	-0.524850	0.987549
Cl147	Cl	-0.237107	-1.236490	0.855128
Cl148	Cl	0.262893	-0.736490	1.355128
Cl149	Cl	-0.237207	-0.404504	0.276026
Cl150	Cl	0.262793	0.095496	0.776026
H151	H	-0.419788	-1.023192	0.696993
H152	H	0.080212	-0.523192	1.196993
Cl153	Cl	-0.237171	-0.842398	0.275984
Cl154	Cl	0.262829	-0.342398	0.775984
Cl155	Cl	-0.439723	-1.000161	1.117683
Cl156	Cl	0.060277	-0.500161	1.617683
H157	H	-0.419835	-1.023295	0.949846
H158	H	0.080165	-0.523295	1.449846
H159	H	-0.419708	-0.815550	0.489364
H160	H	0.080292	-0.315550	0.989364
Cl161	Cl	-1.087310	-1.243726	0.268805
Cl162	Cl	-0.587310	-0.743726	0.768805
H163	H	-0.739485	-1.008053	0.504363
H164	H	-0.239485	-0.508053	1.004363
Cl165	Cl	-0.921754	-1.251599	0.260956
Cl166	Cl	-0.421754	-0.751599	0.760956
Cl167	Cl	-0.867393	-1.029960	0.482467
Cl168	Cl	-0.367393	-0.529960	0.982467
H169	H	-0.419753	-0.413973	0.489387
H170	H	0.080247	0.086027	0.989387
H171	H	-0.257047	-0.674564	0.299208
H172	H	0.242953	-0.174564	0.799208
H173	H	-0.419813	-1.023259	0.845726
H174	H	0.080187	-0.523259	1.345726
