data_functionalizedCrystal
_audit_creation_method	'MofGen! by Chris Wilmer'
_symmetry_space_group_name_H-M	'P1'
_symmetry_Int_Tables_number	1
_symmetry_cell_setting	triclinic
loop_
_symmetry_equiv_pos_as_xyz
  x,y,z
_cell_length_a	23.532407
_cell_length_b	23.532407
_cell_length_c	22.010155
_cell_angle_alpha	90.009202
_cell_angle_beta	90.013018
_cell_angle_gamma	82.848712
loop_
_atom_site_label
_atom_site_type_symbol
_atom_site_fract_x
_atom_site_fract_y
_atom_site_fract_z
O1	O	0.755269	0.069134	0.050493
O2	O	0.589405	0.079137	0.050503
O3	O	0.677339	-0.008796	0.050487
O4	O	0.667336	0.157067	0.050510
O5	O	0.677312	-0.008796	-0.050564
O6	O	0.589379	0.079137	-0.050547
O7	O	0.755242	0.069134	-0.050557
Cu8	Cu	0.672308	0.074135	-0.059779
Cu9	Cu	0.672340	0.074135	0.059725
O10	O	0.667309	0.157067	-0.050541
C11	C	0.568176	0.078882	-0.000021
C12	C	0.504959	0.078116	-0.000017
C13	C	0.238792	0.022921	-0.000041
C14	C	0.298192	0.023632	-0.000041
O15	O	0.334937	-0.020153	-0.000068
N16	N	0.320818	0.075909	-0.000030
C17	C	0.284041	0.127477	-0.000025
O18	O	0.308740	0.172007	-0.000016
C19	C	0.224642	0.126765	-0.000029
C20	C	0.202019	0.074485	-0.000035
C21	C	0.216168	-0.029354	-0.000047
C22	C	0.156772	-0.030066	-0.000046
C23	C	0.119999	0.021499	-0.000039
C24	C	0.142623	0.073774	-0.000034
C25	C	0.187865	0.178333	-0.000029
C26	C	0.128463	0.177616	-0.000034
C27	C	0.105840	0.125336	-0.000039
C28	C	0.046454	0.124627	-0.000026
N29	N	0.023828	0.072351	-0.000037
C30	C	0.060600	0.020787	-0.000044
C31	C	0.408783	0.128968	-0.000016
C32	C	0.468181	0.129681	-0.000007
C33	C	0.482328	0.025836	-0.000025
C34	C	0.422929	0.025124	-0.000029
C35	C	0.386157	0.076692	-0.000027
C36	C	-0.064136	0.019297	-0.000042
C37	C	-0.123538	0.018590	-0.000038
C38	C	-0.137680	0.122435	-0.000024
C39	C	-0.078284	0.123142	-0.000024
C40	C	-0.041512	0.071568	-0.000035
O41	O	0.009675	0.168390	-0.000001
O42	O	0.035892	-0.023737	-0.000061
C43	C	0.677071	-0.030012	-0.000040
C44	C	0.676305	-0.093229	-0.000045
C45	C	0.723538	-0.492332	-0.000014
C46	C	0.722827	-0.551733	-0.000010
O47	O	0.766613	-0.588477	0.000010
N48	N	0.670551	-0.574359	-0.000007
C49	C	0.618982	-0.537581	-0.000002
O50	O	0.574452	-0.562281	0.000001
C51	C	0.619695	-0.478182	-0.000003
C52	C	0.671974	-0.455559	-0.000012
C53	C	0.775814	-0.469709	-0.000023
C54	C	0.776525	-0.410313	-0.000028
C55	C	0.724961	-0.373540	-0.000026
C56	C	0.672685	-0.396163	-0.000018
C57	C	0.568127	-0.441406	0.000006
C58	C	0.568843	-0.382003	0.000006
C59	C	0.621123	-0.359381	-0.000003
C60	C	0.621832	-0.299994	-0.000021
N61	N	0.674109	-0.277368	-0.000024
C62	C	0.725673	-0.314141	-0.000026
C63	C	0.617491	-0.662324	-0.000001
C64	C	0.616778	-0.721722	-0.000005
C65	C	0.720623	-0.735869	-0.000011
C66	C	0.721335	-0.676470	-0.000011
C67	C	0.669767	-0.639698	-0.000004
C68	C	0.727163	-0.189404	-0.000039
C69	C	0.727869	-0.130002	-0.000047
C70	C	0.624025	-0.115860	-0.000038
C71	C	0.623318	-0.175257	-0.000033
C72	C	0.674891	-0.212028	-0.000031
O73	O	0.578069	-0.263215	-0.000038
O74	O	0.770196	-0.289433	-0.000022
C75	C	0.776472	0.069389	-0.000032
C76	C	0.839689	0.070155	-0.000032
C77	C	0.667577	0.178283	-0.000013
C78	C	0.668343	0.241500	-0.000004
N79	N	0.672291	0.074135	-0.143831
C80	C	0.706685	0.108496	-0.563608
C81	C	0.706692	0.108495	-0.627216
O82	O	0.735915	0.137706	-0.660105
N83	N	0.672351	0.074129	-0.659038
C84	C	0.638005	0.039758	-0.627250
O85	O	0.608796	0.010527	-0.660159
C86	C	0.638002	0.039757	-0.563644
C87	C	0.672341	0.074129	-0.531824
C88	C	0.741022	0.142865	-0.531789
C89	C	0.741014	0.142867	-0.468185
C90	C	0.706670	0.108500	-0.436402
C91	C	0.672333	0.074131	-0.468221
C92	C	0.603660	0.005383	-0.531857
C93	C	0.603660	0.005385	-0.468246
C94	C	0.637999	0.039757	-0.436427
C95	C	0.637981	0.039766	-0.372834
N96	N	0.672322	0.074132	-0.341012
C97	C	0.706667	0.108499	-0.372795
C98	C	0.638015	0.039763	-0.760828
C99	C	0.638015	0.039766	-0.824433
C100	C	0.706703	0.108502	-0.824394
C101	C	0.706699	0.108501	-0.760788
C102	C	0.672356	0.074128	-0.729005
C103	C	0.706647	0.108501	-0.239224
C104	C	0.706635	0.108502	-0.175615
C105	C	0.637950	0.039764	-0.175660
C106	C	0.637960	0.039765	-0.239263
C107	C	0.672313	0.074135	-0.271043
O108	O	0.608775	0.010569	-0.339905
O109	O	0.735876	0.137720	-0.339879
N110	N	0.672362	0.074131	0.143777
H111	H	0.138359	-0.072637	-0.000053
H112	H	-0.034204	-0.022699	-0.000050
O113	O	0.604560	0.006460	-0.144710
C114	C	0.565490	0.041382	-0.107932
H115	H	0.582964	0.083555	-0.098397
H116	H	0.559285	0.018521	-0.063206
H117	H	0.522630	0.050308	-0.132451
O118	O	-0.173488	0.172470	-0.000047
C119	C	-0.230764	0.160625	-0.000036
H120	H	-0.232793	0.115902	-0.019168
H121	H	-0.257866	0.193507	-0.029375
H122	H	-0.247949	0.162887	0.048442
H123	H	-0.141954	-0.023984	-0.000041
H124	H	0.246104	-0.071347	-0.000055
H125	H	0.404515	-0.017447	-0.000034
H126	H	0.512280	-0.016150	-0.000030
H127	H	0.582043	-0.085909	-0.000038
O128	O	0.570262	-0.027923	-0.437307
C129	C	0.531188	0.007001	-0.400536
H130	H	0.548666	0.049170	-0.390990
H131	H	0.524967	-0.015862	-0.355816
H132	H	0.488334	0.015936	-0.425067
O133	O	0.739934	0.141923	-0.270157
C134	C	0.704992	0.180972	-0.306942
H135	H	0.662842	0.163460	-0.316498
H136	H	0.727857	0.187206	-0.351657
H137	H	0.696021	0.223824	-0.282420
H138	H	-0.059864	0.165712	-0.000019
O139	O	0.774467	0.176220	-0.562590
C140	C	0.832361	0.160140	-0.547038
H141	H	0.834926	0.138029	-0.500864
H142	H	0.855452	0.199900	-0.544834
H143	H	0.853519	0.129490	-0.582840
H144	H	0.762610	-0.765821	-0.000011
O145	O	0.490058	0.180516	-0.000022
C146	C	0.444857	0.225871	0.000001
H147	H	0.404588	0.210137	-0.019132
H148	H	0.457060	0.262392	-0.029331
H149	H	0.436374	0.241758	0.048483
H150	H	0.768979	0.170854	-0.442284
H151	H	0.770443	-0.111587	-0.000056
H152	H	0.763906	-0.658055	-0.000018
O153	O	0.518786	-0.346226	-0.000069
C154	C	0.516064	-0.311463	-0.052414
H155	H	0.561244	-0.308706	-0.069869
H156	H	0.494589	-0.266698	-0.040643
H157	H	0.490157	-0.330872	-0.089055
O158	O	0.373007	0.179028	0.000077
C159	C	0.338245	0.181731	0.052420
H160	H	0.335486	0.136544	0.069856
H161	H	0.293481	0.203213	0.040654
H162	H	0.357658	0.207620	0.089073
O163	O	0.740048	0.141906	-0.144801
C164	C	0.770352	0.172247	-0.186498
H165	H	0.773813	0.148650	-0.231841
H166	H	0.815112	0.175554	-0.168106
H167	H	0.746636	0.217070	-0.193266
H168	H	0.734667	0.136486	-0.850284
O169	O	0.604680	0.006348	-0.270241
C170	C	0.639632	-0.032706	-0.307010
H171	H	0.681787	-0.015197	-0.316524
H172	H	0.616780	-0.038941	-0.351746
H173	H	0.648592	-0.075557	-0.282494
H174	H	0.574207	-0.740135	-0.000008
H175	H	0.769159	-0.219337	-0.000035
H176	H	0.206274	0.220904	-0.000022
H177	H	0.610043	0.011774	-0.734955
H178	H	0.098525	0.219610	-0.000035
O179	O	0.567342	-0.626686	-0.000029
C180	C	0.521054	-0.659400	-0.000012
H181	H	0.535771	-0.703817	-0.019141
H182	H	0.484938	-0.637299	-0.029349
H183	H	0.505025	-0.663536	0.048468
H184	H	0.819097	-0.391900	-0.000033
H185	H	0.734661	0.136490	-0.734885
O186	O	0.604639	0.006330	-0.855246
C187	C	0.574314	-0.023989	-0.813547
H188	H	0.597905	-0.027428	-0.768200
H189	H	0.571038	-0.068758	-0.831930
H190	H	0.529478	-0.000299	-0.806794
H191	H	0.817806	-0.499644	-0.000022
O192	O	0.570372	-0.028094	-0.562731
C193	C	0.586480	-0.085978	-0.547175
H194	H	0.632436	-0.091708	-0.529678
H195	H	0.583327	-0.113987	-0.589006
H196	H	0.556702	-0.099046	-0.510262
O197	O	0.517292	-0.463277	0.000045
C198	C	0.471940	-0.418072	0.000036
H199	H	0.487685	-0.377806	0.019160
H200	H	0.435429	-0.430273	0.029382
H201	H	0.456034	-0.409585	-0.048441
O202	O	0.572485	-0.197141	0.000001
C203	C	0.527126	-0.151944	-0.000016
H204	H	0.542863	-0.111671	0.019102
H205	H	0.490616	-0.164147	0.029332
H206	H	0.511220	-0.143466	-0.048494
