data_functionalizedCrystal
_audit_creation_method	'MofGen! by Chris Wilmer'
_symmetry_space_group_name_H-M	'P1'
_symmetry_Int_Tables_number	1
_symmetry_cell_setting	triclinic
loop_
_symmetry_equiv_pos_as_xyz
  x,y,z
_cell_length_a	15.944551
_cell_length_b	15.944551
_cell_length_c	15.021413
_cell_angle_alpha	90.003065
_cell_angle_beta	89.997174
_cell_angle_gamma	83.498738
loop_
_atom_site_label
_atom_site_type_symbol
_atom_site_fract_x
_atom_site_fract_y
_atom_site_fract_z
O1	O	1.114529	0.108321	-0.073941
O2	O	1.364529	0.358321	0.176059
O3	O	1.614529	0.608321	0.426059
O4	O	1.864529	0.858321	0.676059
O5	O	0.869979	0.121677	-0.073964
O6	O	1.119979	0.371677	0.176036
O7	O	1.369979	0.621677	0.426036
O8	O	1.619979	0.871677	0.676036
O9	O	0.998932	-0.007276	-0.073944
O10	O	1.248932	0.242724	0.176056
O11	O	1.498932	0.492724	0.426056
O12	O	1.748932	0.742724	0.676056
O13	O	0.985576	0.237274	-0.073961
O14	O	1.235576	0.487274	0.176039
O15	O	1.485576	0.737274	0.426039
O16	O	1.735576	0.987274	0.676039
O17	O	0.998912	-0.007257	0.074121
O18	O	1.248912	0.242743	0.324121
O19	O	1.498912	0.492743	0.574121
O20	O	1.748912	0.742743	0.824121
O21	O	0.869959	0.121695	0.074101
O22	O	1.119959	0.371695	0.324101
O23	O	1.369959	0.621695	0.574101
O24	O	1.619959	0.871695	0.824101
O25	O	1.114508	0.108339	0.074123
O26	O	1.364508	0.358339	0.324123
O27	O	1.614508	0.608339	0.574123
O28	O	1.864508	0.858339	0.824123
Zn29	Zn	0.992230	0.115020	0.097620
Zn30	Zn	1.242230	0.365020	0.347620
Zn31	Zn	1.492230	0.615020	0.597620
Zn32	Zn	1.742230	0.865020	0.847620
Zn33	Zn	0.992257	0.114996	-0.097461
Zn34	Zn	1.242257	0.364996	0.152539
Zn35	Zn	1.492257	0.614996	0.402539
Zn36	Zn	1.742257	0.864996	0.652539
O37	O	0.985555	0.237292	0.074103
O38	O	1.235555	0.487292	0.324103
O39	O	1.485555	0.737292	0.574103
O40	O	1.735555	0.987292	0.824103
C41	C	0.838675	0.121132	0.000066
C42	C	1.088675	0.371132	0.250066
C43	C	1.338675	0.621132	0.500066
C44	C	1.588675	0.871132	0.750066
C45	C	0.745429	0.119470	0.000057
C46	C	0.995429	0.369470	0.250057
C47	C	1.245429	0.619470	0.500057
C48	C	1.495429	0.869470	0.750057
C49	C	0.530572	0.035565	0.000081
C50	C	0.780572	0.285565	0.250081
C51	C	1.030572	0.535565	0.500081
C52	C	1.280572	0.785565	0.750081
C53	C	0.469562	0.074518	-0.072926
C54	C	0.719562	0.324518	0.177074
C55	C	0.969562	0.574518	0.427074
C56	C	1.219562	0.824518	0.677074
C57	C	0.574703	0.116462	0.000068
C58	C	0.824703	0.366462	0.250068
C59	C	1.074703	0.616462	0.500068
C60	C	1.324703	0.866462	0.750068
C61	C	0.469564	0.074556	0.073054
C62	C	0.719564	0.324556	0.323054
C63	C	0.969564	0.574556	0.573054
C64	C	1.219564	0.824556	0.823054
C65	C	0.409790	0.113551	0.000083
C66	C	0.659790	0.363551	0.250083
C67	C	0.909790	0.613551	0.500083
C68	C	1.159790	0.863551	0.750083
C69	C	0.514921	0.155438	-0.072998
C70	C	0.764921	0.405438	0.177002
C71	C	1.014921	0.655438	0.427002
C72	C	1.264921	0.905438	0.677002
C73	C	0.514930	0.155464	0.073047
C74	C	0.764930	0.405464	0.323047
C75	C	1.014930	0.655464	0.573047
C76	C	1.264930	0.905464	0.823047
C77	C	0.453937	0.194476	0.000023
C78	C	0.703937	0.444476	0.250023
C79	C	0.953937	0.694476	0.500023
C80	C	1.203937	0.944476	0.750023
C81	C	0.669705	0.118137	0.000059
C82	C	0.919705	0.368137	0.250059
C83	C	1.169705	0.618137	0.500059
C84	C	1.419705	0.868137	0.750059
C85	C	0.314789	0.111883	0.000085
C86	C	0.564789	0.361883	0.250085
C87	C	0.814789	0.611883	0.500085
C88	C	1.064789	0.861883	0.750085
C89	C	0.998367	-0.038561	0.000089
C90	C	1.248367	0.211439	0.250089
C91	C	1.498367	0.461439	0.500089
C92	C	1.748367	0.711439	0.750089
C93	C	0.996705	-0.131807	0.000089
C94	C	1.246705	0.118193	0.250089
C95	C	1.496705	0.368193	0.500089
C96	C	1.746705	0.618193	0.750089
C97	C	0.912801	-0.346663	0.000069
C98	C	1.162801	-0.096663	0.250069
C99	C	1.412801	0.153337	0.500069
C100	C	1.662801	0.403337	0.750069
C101	C	0.951753	-0.407672	0.073077
C102	C	1.201753	-0.157672	0.323077
C103	C	1.451753	0.092328	0.573077
C104	C	1.701753	0.342328	0.823077
C105	C	0.993698	-0.302533	0.000082
C106	C	1.243698	-0.052533	0.250082
C107	C	1.493698	0.197467	0.500082
C108	C	1.743698	0.447467	0.750082
C109	C	0.951792	-0.407673	-0.072903
C110	C	1.201792	-0.157673	0.177097
C111	C	1.451792	0.092327	0.427097
C112	C	1.701792	0.342327	0.677097
C113	C	0.990787	-0.467445	0.000071
C114	C	1.240787	-0.217445	0.250071
C115	C	1.490787	0.032555	0.500071
C116	C	1.740787	0.282555	0.750071
C117	C	1.032672	-0.362313	0.073150
C118	C	1.282672	-0.112313	0.323150
C119	C	1.532672	0.137687	0.573150
C120	C	1.782672	0.387687	0.823150
C121	C	1.032700	-0.362308	-0.072895
C122	C	1.282700	-0.112308	0.177105
C123	C	1.532700	0.137692	0.427105
C124	C	1.782700	0.387692	0.677105
C125	C	1.071711	-0.423298	0.000131
C126	C	1.321711	-0.173298	0.250131
C127	C	1.571711	0.076702	0.500131
C128	C	1.821711	0.326702	0.750131
C129	C	0.995372	-0.207530	0.000089
C130	C	1.245372	0.042470	0.250089
C131	C	1.495372	0.292470	0.500089
C132	C	1.745372	0.542470	0.750089
C133	C	0.989119	-0.562446	0.000070
C134	C	1.239119	-0.312446	0.250070
C135	C	1.489119	-0.062446	0.500070
C136	C	1.739119	0.187554	0.750070
C137	C	1.145813	0.108885	0.000092
C138	C	1.395813	0.358885	0.250092
C139	C	1.645813	0.608885	0.500092
C140	C	1.895813	0.858885	0.750092
C141	C	1.239059	0.110547	0.000094
C142	C	1.489059	0.360547	0.250094
C143	C	1.739059	0.610547	0.500094
C144	C	1.989059	0.860547	0.750094
C145	C	0.986120	0.268577	0.000069
C146	C	1.236120	0.518577	0.250069
C147	C	1.486120	0.768577	0.500069
C148	C	1.736120	1.018577	0.750069
C149	C	0.987782	0.361823	0.000063
C150	C	1.237782	0.611823	0.250063
C151	C	1.487782	0.861823	0.500063
C152	C	1.737782	1.111823	0.750063
N153	N	0.992218	0.115036	0.230758
N154	N	1.242218	0.365036	0.480758
N155	N	1.492218	0.615036	0.730758
N156	N	1.742218	0.865036	0.980758
N157	N	0.992276	0.114973	-0.230598
N158	N	1.242276	0.364973	0.019402
N159	N	1.492276	0.614973	0.269402
N160	N	1.742276	0.864973	0.519402
C161	C	0.932581	0.174636	0.470432
C162	C	1.182581	0.424636	0.720432
C163	C	1.432581	0.674636	0.970432
C164	C	1.682581	0.924636	1.220432
C165	C	1.008481	0.190943	0.529772
C166	C	1.258481	0.440943	0.779772
C167	C	1.508481	0.690943	1.029772
C168	C	1.758481	0.940943	1.279772
C169	C	0.992239	0.115015	0.412365
C170	C	1.242239	0.365015	0.662365
C171	C	1.492239	0.615015	0.912365
C172	C	1.742239	0.865015	1.162365
C173	C	0.916360	0.098727	0.529766
C174	C	1.166360	0.348727	0.779766
C175	C	1.416360	0.598727	1.029766
C176	C	1.666360	0.848727	1.279766
C177	C	0.992253	0.114997	0.587789
C178	C	1.242253	0.364997	0.837789
C179	C	1.492253	0.614997	1.087789
C180	C	1.742253	0.864997	1.337789
C181	C	1.068178	0.131360	0.470398
C182	C	1.318178	0.381360	0.720398
C183	C	1.568178	0.631360	0.970398
C184	C	1.818178	0.881360	1.220398
C185	C	0.976006	0.039111	0.470387
C186	C	1.226006	0.289111	0.720387
C187	C	1.476006	0.539111	0.970387
C188	C	1.726006	0.789111	1.220387
C189	C	1.051962	0.055386	0.529701
C190	C	1.301962	0.305386	0.779701
C191	C	1.551962	0.555386	1.029701
C192	C	1.801962	0.805386	1.279701
C193	C	0.992230	0.115028	0.311307
C194	C	1.242230	0.365028	0.561307
C195	C	1.492230	0.615028	0.811307
C196	C	1.742230	0.865028	1.061307
C197	C	0.992271	0.114984	0.688844
C198	C	1.242271	0.364984	0.938844
C199	C	1.492271	0.614984	1.188844
C200	C	1.742271	0.864984	1.438844
H201	H	0.563905	-0.031573	-0.000005
H202	H	0.813905	0.218427	0.249995
H203	H	1.063905	0.468427	0.499995
H204	H	1.313905	0.718427	0.749995
H205	H	0.917574	-0.427758	-0.134630
H206	H	1.167574	-0.177758	0.115370
H207	H	1.417574	0.072242	0.365370
H208	H	1.667574	0.322242	0.615370
H209	H	1.066896	-0.342185	-0.134615
H210	H	1.316896	-0.092185	0.115385
H211	H	1.566896	0.157815	0.365385
H212	H	1.816896	0.407815	0.615385
H213	H	0.917528	-0.427772	0.134794
H214	H	1.167528	-0.177772	0.384794
H215	H	1.417528	0.072228	0.634794
H216	H	1.667528	0.322228	0.884794
H217	H	0.449461	0.040295	-0.134642
H218	H	0.699461	0.290295	0.115358
H219	H	0.949461	0.540295	0.365358
H220	H	1.199461	0.790295	0.615358
C221	C	0.542124	0.201657	0.156429
C222	C	0.792124	0.451657	0.406429
C223	C	1.042124	0.701657	0.656429
C224	C	1.292124	0.951657	0.906429
N225	N	0.562609	0.236442	0.219239
N226	N	0.812609	0.486442	0.469239
N227	N	1.062609	0.736442	0.719239
N228	N	1.312609	0.986442	0.969239
H229	H	0.534918	0.189621	-0.134787
H230	H	0.784918	0.439621	0.115213
H231	H	1.034918	0.689621	0.365213
H232	H	1.284918	0.939621	0.615213
H233	H	0.449470	0.040332	0.134773
H234	H	0.699470	0.290332	0.384773
H235	H	0.949470	0.540332	0.634773
H236	H	1.199470	0.790332	0.884773
H237	H	0.852184	0.084959	0.555847
H238	H	1.102184	0.334959	0.805847
H239	H	1.352184	0.584959	1.055847
H240	H	1.602184	0.834959	1.305847
H241	H	1.022224	0.255126	0.555856
H242	H	1.272224	0.505126	0.805856
H243	H	1.522224	0.755126	1.055856
H244	H	1.772224	1.005126	1.305856
H245	H	0.845652	-0.313356	0.000136
H246	H	1.095652	-0.063356	0.250136
H247	H	1.345652	0.186644	0.500136
H248	H	1.595652	0.436644	0.750136
C249	C	1.078844	-0.335298	0.156629
C250	C	1.328844	-0.085298	0.406629
C251	C	1.578844	0.164702	0.656629
C252	C	1.828844	0.414702	0.906629
N253	N	1.113615	-0.314949	0.219507
N254	N	1.363615	-0.064949	0.469507
N255	N	1.613615	0.185051	0.719507
N256	N	1.863615	0.435051	0.969507
H257	H	1.132368	0.145206	0.444430
H258	H	1.382368	0.395206	0.694430
H259	H	1.632368	0.645206	0.944430
H260	H	1.882368	0.895206	1.194430
H261	H	1.138919	-0.456457	0.000178
H262	H	1.388919	-0.206457	0.250178
H263	H	1.638919	0.043543	0.500178
H264	H	1.888919	0.293543	0.750178
H265	H	0.882181	0.225096	0.444409
H266	H	1.132181	0.475096	0.694409
H267	H	1.382181	0.725096	0.944409
H268	H	1.632181	0.975096	1.194409
C269	C	0.957406	-0.047568	0.435114
C270	C	1.207406	0.202432	0.685114
C271	C	1.457406	0.452432	0.935114
C272	C	1.707406	0.702432	1.185114
N273	N	0.943387	-0.112854	0.408544
N274	N	1.193387	0.137146	0.658544
N275	N	1.443387	0.387146	0.908544
N276	N	1.693387	0.637146	1.158544
C277	C	0.409134	0.285267	-0.000039
C278	C	0.659134	0.535267	0.249961
C279	C	0.909134	0.785267	0.499961
C280	C	1.159134	1.035267	0.749961
N281	N	0.375385	0.353649	-0.000091
N282	N	0.625385	0.603649	0.249909
N283	N	0.875385	0.853649	0.499909
N284	N	1.125385	1.103649	0.749909
C285	C	1.120201	-0.012736	0.564652
C286	C	1.370201	0.237264	0.814652
C287	C	1.620201	0.487264	1.064652
C288	C	1.870201	0.737264	1.314652
N289	N	1.171602	-0.064039	0.590984
N290	N	1.421602	0.185961	0.840984
N291	N	1.671602	0.435961	1.090984
N292	N	1.921602	0.685961	1.340984
