data_functionalizedCrystal
_audit_creation_method	'MofGen! by Chris Wilmer'
_symmetry_space_group_name_H-M	'P1'
_symmetry_Int_Tables_number	1
_symmetry_cell_setting	triclinic
loop_
_symmetry_equiv_pos_as_xyz
  x,y,z
_cell_length_a	12.837943
_cell_length_b	9.730223
_cell_length_c	12.811487
_cell_angle_alpha	84.568835
_cell_angle_beta	89.413002
_cell_angle_gamma	89.999322
loop_
_atom_site_label
_atom_site_type_symbol
_atom_site_fract_x
_atom_site_fract_y
_atom_site_fract_z
O1	O	1.376630	0.080239	0.272969
O2	O	1.074766	0.081928	0.259485
O3	O	1.233290	0.100026	0.114196
O4	O	1.218107	0.062142	0.418258
O5	O	1.233288	-0.128555	0.114200
O6	O	1.074764	-0.146652	0.259489
O7	O	1.376628	-0.148341	0.272973
Zn8	Zn	1.225696	-0.183789	0.266231
Zn9	Zn	1.225699	0.117376	0.266226
O10	O	1.218105	-0.166438	0.418262
C11	C	1.036125	-0.031793	0.254931
C12	C	0.920989	-0.030097	0.241345
N13	N	1.225702	-0.389325	0.266235
C14	C	0.680738	-0.050466	0.404674
C15	C	0.572557	-0.048873	0.391913
C16	C	0.596444	-0.025330	0.203065
C17	C	0.704625	-0.026922	0.215826
C18	C	0.746768	-0.039488	0.316633
C19	C	0.854951	-0.041071	0.329392
C20	C	0.878835	-0.017537	0.140545
C21	C	0.770654	-0.015945	0.127785
C22	C	1.295914	-0.453241	0.201927
C23	C	1.295912	-0.597122	0.201914
C24	C	1.155481	-0.613161	0.330526
C25	C	1.155480	-0.469281	0.330533
C26	C	1.366137	-0.373285	0.137629
C27	C	1.436356	-0.437201	0.073317
C28	C	1.436353	-0.581082	0.073304
C29	C	1.366131	-0.661048	0.137603
C30	C	1.415270	-0.034617	0.277526
C31	C	1.530406	-0.036304	0.291112
C32	C	1.232437	-0.009379	0.075009
C33	C	1.229886	0.005179	-0.041763
N34	N	1.225701	0.322914	0.266215
C35	C	1.225110	-0.216689	-0.261199
C36	C	1.222713	-0.203017	-0.370916
C37	C	1.222704	0.046194	-0.370917
C38	C	1.225100	0.032522	-0.261200
C39	C	1.226302	-0.098924	-0.206345
C40	C	1.228691	-0.112595	-0.096625
C41	C	1.228689	0.136615	-0.096628
C42	C	1.226292	0.150287	-0.206346
C43	C	1.218958	-0.057031	0.457449
C44	C	1.221508	-0.071580	0.574221
H45	H	0.715051	-0.060696	0.486755
O46	O	1.229631	0.251102	-0.043428
C47	C	1.140568	0.459596	-0.007147
C48	C	1.139386	0.329960	-0.067408
H49	H	1.067624	0.523403	-0.026529
H50	H	1.142404	0.427419	0.080723
H51	H	1.212604	0.523988	-0.031079
H52	H	1.067360	0.265510	-0.043564
H53	H	1.137604	0.362232	-0.155264
O54	O	0.508310	-0.059336	0.477356
C55	C	0.372356	0.047262	0.572586
C56	C	0.445038	0.059275	0.475761
H57	H	0.321198	0.143158	0.571340
H58	H	0.321038	-0.048175	0.571340
H59	H	0.421086	0.037943	0.646808
H60	H	0.396390	0.068649	0.401489
H61	H	0.496361	0.154693	0.477100
O62	O	1.221725	-0.317367	-0.424259
C63	C	1.308706	-0.446155	-0.551107
C64	C	1.309970	-0.316609	-0.490746
H65	H	1.380032	-0.445570	-0.604892
H66	H	1.310039	-0.542498	-0.493104
H67	H	1.235058	-0.446253	-0.600066
H68	H	1.383605	-0.316376	-0.441785
H69	H	1.308581	-0.220323	-0.548804
H70	H	1.229654	-0.219624	-0.051963
O71	O	0.555324	-0.013088	0.105223
C72	C	0.399242	-0.000326	0.001883
C73	C	0.445672	-0.014160	0.112748
H74	H	0.310583	-0.001218	0.007929
H75	H	0.426314	0.100849	-0.042203
H76	H	0.426469	-0.090477	-0.042159
H77	H	0.418467	0.075915	0.156878
H78	H	0.418605	-0.115388	0.156755
H79	H	1.098310	-0.678278	0.382877
H80	H	0.736326	-0.005729	0.045710
O81	O	1.504456	-0.643388	0.010860
C82	C	1.566738	-0.857935	-0.046110
C83	C	1.489534	-0.787554	0.024637
H84	H	1.554715	-0.974506	-0.034980
H85	H	1.552872	-0.819082	-0.131596
H86	H	1.649844	-0.832314	-0.024073
H87	H	1.406398	-0.813145	0.002694
H88	H	1.503491	-0.826411	0.110105
H89	H	0.932609	-0.008589	0.068856
H90	H	1.098305	-0.417241	0.382897
H91	H	1.221737	0.153211	-0.415600
H92	H	1.226061	-0.323717	-0.216534
H93	H	1.366128	-0.778204	0.137579
O94	O	1.225279	0.278005	-0.259580
C95	C	1.314166	0.495646	-0.295991
C96	C	1.315480	0.351028	-0.235676
H97	H	1.387074	0.554736	-0.276670
H98	H	1.312303	0.485304	-0.383851
H99	H	1.242096	0.553997	-0.272049
H100	H	1.387539	0.292597	-0.259530
H101	H	1.317288	0.361468	-0.147829
O102	O	0.895720	-0.053349	0.427386
C103	C	0.860605	-0.076462	0.613349
C104	C	0.814300	-0.062590	0.502430
H105	H	0.794799	-0.083908	0.674053
H106	H	0.910618	-0.173486	0.624109
H107	H	0.910689	0.017849	0.623998
H108	H	0.764168	-0.156826	0.491705
H109	H	0.764346	0.034491	0.491723
H110	H	1.366147	-0.256129	0.137636
H111	H	1.493522	-0.372084	0.020959
