data_functionalizedCrystal
_audit_creation_method	'MofGen! by Chris Wilmer'
_symmetry_space_group_name_H-M	'P1'
_symmetry_Int_Tables_number	1
_symmetry_cell_setting	triclinic
loop_
_symmetry_equiv_pos_as_xyz
  x,y,z
_cell_length_a	15.944499
_cell_length_b	17.019294
_cell_length_c	15.021413
_cell_angle_alpha	86.125043
_cell_angle_beta	89.990095
_cell_angle_gamma	83.435652
loop_
_atom_site_label
_atom_site_type_symbol
_atom_site_fract_x
_atom_site_fract_y
_atom_site_fract_z
O1	O	1.114429	0.101532	-0.081868
O2	O	1.364429	0.351532	0.168132
O3	O	1.614429	0.601532	0.418132
O4	O	1.864429	0.851532	0.668132
O5	O	0.869857	0.114118	-0.082822
O6	O	1.119857	0.364118	0.167178
O7	O	1.369857	0.614118	0.417178
O8	O	1.619857	0.864118	0.667178
O9	O	0.998965	-0.007007	-0.073538
O10	O	1.248965	0.242993	0.176462
O11	O	1.498965	0.492993	0.426462
O12	O	1.748965	0.742993	0.676462
O13	O	0.985321	0.222658	-0.091152
O14	O	1.235321	0.472658	0.158848
O15	O	1.485321	0.722658	0.408848
O16	O	1.735321	0.972658	0.658848
O17	O	0.998945	-0.006990	0.074525
O18	O	1.248945	0.243010	0.324525
O19	O	1.498945	0.493010	0.574525
O20	O	1.748945	0.743010	0.824525
O21	O	0.869837	0.114136	0.065241
O22	O	1.119837	0.364136	0.315241
O23	O	1.369837	0.614136	0.565241
O24	O	1.619837	0.864136	0.815241
O25	O	1.114408	0.101550	0.066195
O26	O	1.364408	0.351550	0.316195
O27	O	1.614408	0.601550	0.566195
O28	O	1.864408	0.851550	0.816195
Zn29	Zn	0.992119	0.107845	0.089226
Zn30	Zn	1.242119	0.357845	0.339226
Zn31	Zn	1.492119	0.607845	0.589226
Zn32	Zn	1.742119	0.857845	0.839226
Zn33	Zn	0.992146	0.107823	-0.105853
Zn34	Zn	1.242146	0.357823	0.144147
Zn35	Zn	1.492146	0.607823	0.394147
Zn36	Zn	1.742146	0.857823	0.644147
O37	O	0.985300	0.222675	0.056911
O38	O	1.235300	0.472675	0.306911
O39	O	1.485300	0.722675	0.556911
O40	O	1.735300	0.972675	0.806911
C41	C	0.838553	0.113612	-0.008750
C42	C	1.088553	0.363612	0.241250
C43	C	1.338553	0.613612	0.491250
C44	C	1.588553	0.863612	0.741250
C45	C	0.745307	0.112067	-0.008628
C46	C	0.995307	0.362067	0.241372
C47	C	1.245307	0.612067	0.491372
C48	C	1.495307	0.862067	0.741372
C49	C	0.453683	0.182437	-0.014038
C50	C	0.703683	0.432437	0.235962
C51	C	0.953683	0.682437	0.485962
C52	C	1.203683	0.932437	0.735962
C53	C	0.514768	0.145848	-0.084237
C54	C	0.764768	0.395848	0.165763
C55	C	1.014768	0.645848	0.415763
C56	C	1.264768	0.895848	0.665763
C57	C	0.409677	0.106454	-0.008218
C58	C	0.659677	0.356454	0.241782
C59	C	0.909677	0.606454	0.491782
C60	C	1.159677	0.856454	0.741782
C61	C	0.514733	0.145845	0.061743
C62	C	0.764733	0.395845	0.311743
C63	C	1.014733	0.645845	0.561743
C64	C	1.264733	0.895845	0.811743
C65	C	0.574582	0.109216	-0.008418
C66	C	0.824582	0.359216	0.241582
C67	C	1.074582	0.609216	0.491582
C68	C	1.324582	0.859216	0.741582
C69	C	0.469534	0.069844	-0.078475
C70	C	0.719534	0.319844	0.171525
C71	C	0.969534	0.569844	0.421525
C72	C	1.219534	0.819844	0.671525
C73	C	0.469493	0.069852	0.067569
C74	C	0.719493	0.319852	0.317569
C75	C	0.969493	0.569852	0.567569
C76	C	1.219493	0.819852	0.817569
C77	C	0.530561	0.033207	-0.002643
C78	C	0.780561	0.283207	0.247357
C79	C	1.030561	0.533207	0.497357
C80	C	1.280561	0.783207	0.747357
C81	C	0.314679	0.104866	-0.008103
C82	C	0.564679	0.354866	0.241897
C83	C	0.814679	0.604866	0.491897
C84	C	1.064679	0.854866	0.741897
C85	C	0.669579	0.110799	-0.008538
C86	C	0.919579	0.360799	0.241462
C87	C	1.169579	0.610799	0.491462
C88	C	1.419579	0.860799	0.741462
C89	C	0.998437	-0.036387	0.002746
C90	C	1.248437	0.213613	0.252746
C91	C	1.498437	0.463613	0.502746
C92	C	1.748437	0.713613	0.752746
C93	C	0.996885	-0.123957	0.009457
C94	C	1.246885	0.126043	0.259457
C95	C	1.496885	0.376043	0.509457
C96	C	1.746885	0.626043	0.759457
C97	C	0.996168	-0.165102	-0.068099
C98	C	1.246168	0.084898	0.181901
C99	C	1.496168	0.334898	0.431901
C100	C	1.746168	0.584898	0.681901
C101	C	0.994704	-0.247382	-0.061791
C102	C	1.244704	0.002618	0.188209
C103	C	1.494704	0.252618	0.438209
C104	C	1.744704	0.502618	0.688209
C105	C	0.993962	-0.288516	0.022074
C106	C	1.243962	-0.038516	0.272074
C107	C	1.493962	0.211484	0.522074
C108	C	1.743962	0.461484	0.772074
C109	C	0.994676	-0.247364	0.099635
C110	C	1.244676	0.002636	0.349635
C111	C	1.494676	0.252636	0.599635
C112	C	1.744676	0.502636	0.849635
C113	C	0.996134	-0.165085	0.093326
C114	C	1.246134	0.084915	0.343326
C115	C	1.496134	0.334915	0.593326
C116	C	1.746134	0.584915	0.843326
C117	C	0.989553	-0.536945	0.045161
C118	C	1.239553	-0.286945	0.295161
C119	C	1.489553	-0.036945	0.545161
C120	C	1.739553	0.213055	0.795161
C121	C	0.988097	-0.619230	0.051464
C122	C	1.238097	-0.369230	0.301464
C123	C	1.488097	-0.119230	0.551464
C124	C	1.738097	0.130770	0.801464
C125	C	0.988124	-0.619242	-0.109963
C126	C	1.238124	-0.369242	0.140037
C127	C	1.488124	-0.119242	0.390037
C128	C	1.738124	0.130758	0.640037
C129	C	0.989587	-0.536961	-0.116264
C130	C	1.239587	-0.286961	0.133736
C131	C	1.489587	-0.036961	0.383736
C132	C	1.739587	0.213039	0.633736
C133	C	0.990296	-0.495817	-0.038703
C134	C	1.240296	-0.245817	0.211297
C135	C	1.490296	0.004183	0.461297
C136	C	1.740296	0.254183	0.711297
C137	C	0.992468	-0.372619	0.028524
C138	C	1.242468	-0.122619	0.278524
C139	C	1.492468	0.127381	0.528524
C140	C	1.742468	0.377381	0.778524
C141	C	0.991784	-0.411714	-0.045154
C142	C	1.241784	-0.161714	0.204846
C143	C	1.491784	0.088286	0.454846
C144	C	1.741784	0.338286	0.704846
C145	C	1.145713	0.102056	-0.007879
C146	C	1.395713	0.352056	0.242121
C147	C	1.645713	0.602056	0.492121
C148	C	1.895713	0.852056	0.742121
C149	C	1.238959	0.103601	-0.008007
C150	C	1.488959	0.353601	0.241993
C151	C	1.738959	0.603601	0.491993
C152	C	1.988959	0.853601	0.741993
C153	C	0.985828	0.252055	-0.019375
C154	C	1.235828	0.502055	0.230625
C155	C	1.485828	0.752055	0.480625
C156	C	1.735828	1.002055	0.730625
C157	C	0.987381	0.339624	-0.026091
C158	C	1.237381	0.589624	0.223909
C159	C	1.487381	0.839624	0.473909
C160	C	1.737381	1.089624	0.723909
N161	N	0.992107	0.107860	0.222363
N162	N	1.242107	0.357860	0.472363
N163	N	1.492107	0.607860	0.722363
N164	N	1.742107	0.857860	0.972363
N165	N	0.992165	0.107801	-0.238989
N166	N	1.242165	0.357801	0.011011
N167	N	1.492165	0.607801	0.261011
N168	N	1.742165	0.857801	0.511011
C169	C	0.932398	0.163842	0.457755
C170	C	1.182398	0.413842	0.707755
C171	C	1.432398	0.663842	0.957755
C172	C	1.682398	0.913842	1.207755
C173	C	1.008281	0.179144	0.515913
C174	C	1.258281	0.429144	0.765913
C175	C	1.508281	0.679144	1.015913
C176	C	1.758281	0.929144	1.265913
C177	C	0.992128	0.107841	0.403971
C178	C	1.242128	0.357841	0.653971
C179	C	1.492128	0.607841	0.903971
C180	C	1.742128	0.857841	1.153971
C181	C	0.916266	0.092557	0.522554
C182	C	1.166266	0.342557	0.772554
C183	C	1.416266	0.592557	1.022554
C184	C	1.666266	0.842557	1.272554
C185	C	0.992142	0.107824	0.579396
C186	C	1.242142	0.357824	0.829396
C187	C	1.492142	0.607824	1.079396
C188	C	1.742142	0.857824	1.329396
C189	C	1.068050	0.123177	0.460820
C190	C	1.318050	0.373177	0.710820
C191	C	1.568050	0.623177	0.960820
C192	C	1.818050	0.873177	1.210820
C193	C	0.975984	0.036560	0.467458
C194	C	1.225984	0.286560	0.717458
C195	C	1.475984	0.536560	0.967458
C196	C	1.725984	0.786560	1.217458
C197	C	1.051922	0.051831	0.525591
C198	C	1.301922	0.301831	0.775591
C199	C	1.551922	0.551831	1.025591
C200	C	1.801922	0.801831	1.275591
C201	C	0.992119	0.107853	0.302913
C202	C	1.242119	0.357853	0.552913
C203	C	1.492119	0.607853	0.802913
C204	C	1.742119	0.857853	1.052913
C205	C	0.992160	0.107811	0.680453
C206	C	1.242160	0.357811	0.930453
C207	C	1.492160	0.607811	1.180453
C208	C	1.742160	0.857811	1.430453
H209	H	0.996777	-0.131617	-0.136391
H210	H	1.246777	0.118383	0.113609
H211	H	1.496777	0.368383	0.363609
H212	H	1.746777	0.618383	0.613609
F213	F	0.991675	-0.416404	0.117777
F214	F	1.241675	-0.166404	0.367777
F215	F	1.491675	0.083596	0.617777
F216	F	1.741675	0.333596	0.867777
F217	F	0.993877	-0.291143	0.188891
F218	F	1.243877	-0.041143	0.438891
F219	F	1.493877	0.208857	0.688891
F220	F	1.743877	0.458857	0.938891
F221	F	0.540988	0.187844	-0.168132
F222	F	0.790988	0.437844	0.081868
F223	F	1.040988	0.687844	0.331868
F224	F	1.290988	0.937844	0.581868
F225	F	0.574037	-0.049285	0.003632
F226	F	0.824037	0.200715	0.253632
F227	F	1.074037	0.450715	0.503632
F228	F	1.324037	0.700715	0.753632
H229	H	0.990147	-0.503457	0.108318
H230	H	1.240147	-0.253457	0.358318
H231	H	1.490147	-0.003457	0.608318
H232	H	1.740147	0.246543	0.858318
H233	H	0.449408	0.037747	0.131754
H234	H	0.699408	0.287747	0.381754
H235	H	0.949408	0.537747	0.631754
H236	H	1.199408	0.787747	0.881754
H237	H	1.132225	0.136169	0.433847
H238	H	1.382225	0.386169	0.683847
H239	H	1.632225	0.636169	0.933847
H240	H	1.882225	0.886169	1.183847
H241	H	0.852105	0.079638	0.549632
H242	H	1.102105	0.329638	0.799632
H243	H	1.352105	0.579638	1.049632
H244	H	1.602105	0.829638	1.299632
F245	F	0.866443	0.225792	0.418998
F246	F	1.116443	0.475792	0.668998
F247	F	1.366443	0.725792	0.918998
F248	F	1.616443	0.975792	1.168998
F249	F	0.410012	0.264858	-0.020449
F250	F	0.660012	0.514858	0.229551
F251	F	0.910012	0.764858	0.479551
F252	F	1.160012	1.014858	0.729551
H253	H	0.996706	-0.131584	0.156481
H254	H	1.246706	0.118416	0.406481
H255	H	1.496706	0.368416	0.656481
H256	H	1.746706	0.618416	0.906481
F257	F	0.958090	-0.042196	0.439372
F258	F	1.208090	0.207804	0.689372
F259	F	1.458090	0.457804	0.939372
F260	F	1.708090	0.707804	1.189372
H261	H	0.449604	0.037729	-0.137802
H262	H	0.699604	0.287729	0.112198
H263	H	0.949604	0.537729	0.362198
H264	H	1.199604	0.787729	0.612198
H265	H	1.021949	0.239416	0.537376
H266	H	1.271949	0.489416	0.787376
H267	H	1.521949	0.739416	1.037376
H268	H	1.771949	0.989416	1.287376
H269	H	0.534760	0.178003	0.120994
H270	H	0.784760	0.428003	0.370994
H271	H	1.034760	0.678003	0.620994
H272	H	1.284760	0.928003	0.870994
F273	F	0.993943	-0.291168	-0.144337
F274	F	1.243943	-0.041168	0.105663
F275	F	1.493943	0.208832	0.355663
F276	F	1.743943	0.458832	0.605663
F277	F	0.992576	-0.367935	-0.134406
F278	F	1.242576	-0.117935	0.115594
F279	F	1.492576	0.132065	0.365594
F280	F	1.742576	0.382065	0.615594
F281	F	1.118022	-0.010083	0.564133
F282	F	1.368022	0.239917	0.814133
F283	F	1.618022	0.489917	1.064133
F284	F	1.868022	0.739917	1.314133
H285	H	0.990192	-0.503476	-0.184556
H286	H	1.240192	-0.253476	0.065444
H287	H	1.490192	-0.003476	0.315444
H288	H	1.740192	0.246524	0.565444
H289	H	0.987545	-0.652750	-0.173109
H290	H	1.237545	-0.402750	0.076891
H291	H	1.487545	-0.152750	0.326891
H292	H	1.737545	0.097250	0.576891
F293	F	0.987312	-0.663007	0.140729
F294	F	1.237312	-0.413007	0.390729
F295	F	1.487312	-0.163007	0.640729
F296	F	1.737312	0.086993	0.890729
