data_functionalizedCrystal
_audit_creation_method	'MofGen! by Chris Wilmer'
_symmetry_space_group_name_H-M	'P1'
_symmetry_Int_Tables_number	1
_symmetry_cell_setting	triclinic
loop_
_symmetry_equiv_pos_as_xyz
  x,y,z
_cell_length_a	29.839131
_cell_length_b	12.594517
_cell_length_c	12.594509
_cell_angle_alpha	90.007751
_cell_angle_beta	89.965034
_cell_angle_gamma	89.964937
loop_
_atom_site_label
_atom_site_type_symbol
_atom_site_fract_x
_atom_site_fract_y
_atom_site_fract_z
Zn1	Zn	-0.178916	-1.627079	-0.601425
Zn2	Zn	-0.254051	-1.626891	-0.423425
Zn3	Zn	-0.178927	-1.449083	-0.423496
Zn4	Zn	-0.254011	-1.448986	-0.601397
O5	O	-0.216476	-1.538010	-0.512436
O6	O	-0.188895	-1.776000	-0.577794
O7	O	-0.244107	-1.603266	-0.274489
O8	O	-0.116059	-1.472814	-0.447139
O9	O	-0.244096	-1.775862	-0.447019
O10	O	-0.116050	-1.603587	-0.577863
O11	O	-0.188914	-1.472631	-0.274540
O12	O	-0.188876	-1.300124	-0.447113
O13	O	-0.244029	-1.472649	-0.750347
O14	O	-0.244040	-1.300054	-0.577816
O15	O	-0.188857	-1.603493	-0.750367
O16	O	-0.316913	-1.603173	-0.446993
O17	O	-0.316884	-1.472467	-0.577748
C18	C	-0.216455	-1.261469	-0.512470
C19	C	-0.216456	-1.143164	-0.512510
C20	C	-0.246518	-1.073903	-0.583467
C21	C	-0.205555	-1.003137	-0.609661
C22	C	-0.257449	-1.003130	-0.486306
C23	C	-0.175472	-1.073956	-0.538755
C24	C	-0.227394	-1.073955	-0.415354
C25	C	-0.186403	-1.003222	-0.441512
C26	C	-0.333199	-1.537818	-0.512383
C27	C	-0.383133	-1.537833	-0.512396
C28	C	-0.692779	-1.606192	-0.444451
C29	C	-0.880452	-1.606324	-0.444492
O30	O	-0.904719	-1.664293	-0.386682
N31	N	-0.903918	-1.538231	-0.512516
C32	C	-0.880464	-1.470105	-0.580539
O33	O	-0.904729	-1.412198	-0.638406
C34	C	-0.692791	-1.469980	-0.580502
C35	C	-0.669328	-1.538070	-0.512467
C36	C	-0.669315	-1.674277	-0.376421
C37	C	-0.622400	-1.674240	-0.376407
C38	C	-0.598948	-1.606117	-0.444423
C39	C	-0.622412	-1.538032	-0.512453
C40	C	-0.669337	-1.401860	-0.648530
C41	C	-0.622416	-1.401837	-0.648517
C42	C	-0.598952	-1.469927	-0.580481
C43	C	-0.552045	-1.469872	-0.580455
N44	N	-0.528579	-1.537965	-0.512431
C45	C	-0.552030	-1.606087	-0.444415
C46	C	-0.978994	-1.470174	-0.580552
C47	C	-1.025912	-1.470204	-0.580560
C48	C	-1.025897	-1.606424	-0.444514
C49	C	-0.978979	-1.606388	-0.444502
C50	C	-0.955528	-1.538267	-0.512528
C51	C	-0.453505	-1.606002	-0.444391
C52	C	-0.406585	-1.605956	-0.444380
C53	C	-0.406604	-1.469740	-0.580430
C54	C	-0.453519	-1.469782	-0.580437
C55	C	-0.476968	-1.537922	-0.512414
O56	O	-0.527749	-1.411941	-0.638243
O57	O	-0.527757	-1.664002	-0.386573
C58	C	-0.739695	-1.606230	-0.444464
C59	C	-0.763158	-1.538145	-0.512494
C60	C	-0.739707	-1.470022	-0.580510
C61	C	-0.810076	-1.538175	-0.512502
C62	C	-0.833528	-1.606297	-0.444486
C63	C	-0.810062	-1.674390	-0.376462
C64	C	-0.763146	-1.674353	-0.376449
C65	C	-0.763173	-1.401929	-0.648534
C66	C	-0.810089	-1.401971	-0.648541
C67	C	-0.833540	-1.470094	-0.580525
C68	C	-0.099298	-1.538232	-0.512512
C69	C	-0.049364	-1.538327	-0.512544
C70	C	-0.216437	-1.538081	-0.790057
C71	C	-0.216420	-1.538112	-0.908362
C72	C	-0.216494	-0.815631	-0.512418
C73	C	-0.216491	-0.933936	-0.512453
C74	C	-0.246411	-1.466968	-0.977605
C75	C	-0.257393	-1.564077	-1.048369
C76	C	-0.205412	-1.441078	-1.048397
C77	C	-0.227423	-1.635271	-0.977568
C78	C	-0.175423	-1.512207	-0.977590
C79	C	-0.186389	-1.609383	-1.048323
C80	C	-0.216483	-1.538000	-0.235895
C81	C	-0.216373	-1.538176	-0.117590
H82	H	-0.271892	-1.104941	-0.643543
H83	H	-0.744045	-1.729798	-0.321048
H84	H	-0.140810	-1.104936	-0.560987
H85	H	-0.387502	-1.414272	-0.635804
Cl86	Cl	-0.241834	-1.762042	-0.929743
H87	H	-1.045000	-1.661893	-0.389133
H88	H	-0.744082	-1.346457	-0.703922
Cl89	Cl	-0.698823	-1.316268	-0.734080
Cl90	Cl	-0.285628	-1.374152	-0.929658
H91	H	-0.140783	-1.490234	-0.946477
H92	H	-0.292043	-1.586022	-1.079459
Cl93	Cl	-0.483017	-1.384161	-0.665947
H94	H	-0.196317	-0.972030	-0.691799
Cl95	Cl	-0.191066	-1.314345	-1.096432
Cl96	Cl	-0.839553	-1.760027	-0.290956
Cl97	Cl	-0.949520	-1.384524	-0.666078
H98	H	-0.161006	-1.669644	-1.079178
H99	H	-0.160967	-0.972382	-0.381482
H100	H	-0.292101	-0.972015	-0.464169
H101	H	-0.387482	-1.661402	-0.388973
Cl102	Cl	-0.241668	-1.121985	-0.288555
H103	H	-0.472591	-1.661491	-0.389003
H104	H	-0.603298	-1.729687	-0.321010
H105	H	-1.045012	-1.414748	-0.635952
H106	H	-0.603325	-1.346365	-0.703916
H107	H	-0.829189	-1.346515	-0.703943
H108	H	-0.959877	-1.661833	-0.389102
Cl109	Cl	-0.698789	-1.759930	-0.290904
