data_functionalizedCrystal
_audit_creation_method	'MofGen! by Chris Wilmer'
_symmetry_space_group_name_H-M	'P1'
_symmetry_Int_Tables_number	1
_symmetry_cell_setting	triclinic
loop_
_symmetry_equiv_pos_as_xyz
  x,y,z
_cell_length_a	10.654541
_cell_length_b	10.489741
_cell_length_c	9.130307
_cell_angle_alpha	89.996969
_cell_angle_beta	89.999822
_cell_angle_gamma	84.511551
loop_
_atom_site_label
_atom_site_type_symbol
_atom_site_fract_x
_atom_site_fract_y
_atom_site_fract_z
O1	O	1.667923	0.179145	-0.121754
O2	O	1.302452	0.196218	-0.121766
O3	O	1.493503	0.002080	-0.121751
O4	O	1.476871	0.373284	-0.121769
O5	O	1.493497	0.002078	0.121848
O6	O	1.302445	0.196216	0.121833
O7	O	1.667916	0.179143	0.121845
Cu8	Cu	1.485180	0.187680	0.144081
Cu9	Cu	1.485188	0.187682	-0.144003
O10	O	1.476865	0.373282	0.121830
C11	C	1.255650	0.194964	0.000032
C12	C	1.116205	0.191216	0.000027
C13	C	1.088342	0.423360	-0.000003
C14	C	1.008902	0.537667	-0.000023
C15	C	0.877882	0.534137	-0.000025
C16	C	0.826301	0.416288	-0.000001
C17	C	0.905742	0.301982	0.000020
C18	C	1.036763	0.305524	0.000017
C19	C	0.933604	0.069840	0.000060
C20	C	1.064624	0.073367	0.000051
C21	C	0.882024	-0.048009	0.000084
C22	C	0.961465	-0.162318	0.000094
C23	C	1.092492	-0.158783	0.000093
C24	C	1.144065	-0.040939	0.000071
C25	C	1.492244	-0.045452	0.000048
C26	C	1.488486	-0.187080	0.000045
C27	C	1.366925	-0.255160	0.000030
C28	C	1.424346	-0.347312	0.120139
C29	C	1.424381	-0.347285	-0.120031
C30	C	1.545957	-0.277366	0.120253
C31	C	1.545975	-0.277329	-0.120025
C32	C	1.603484	-0.369454	0.000114
C33	C	1.714718	0.180397	0.000044
C34	C	1.854163	0.184146	0.000039
C35	C	1.478124	0.420814	0.000028
C36	C	1.481882	0.562441	0.000021
N37	N	1.485184	0.187677	0.346704
N38	N	1.485194	0.187674	-0.346625
C39	C	1.654430	0.015818	0.346708
C40	C	1.739061	-0.070107	0.423376
C41	C	1.739074	-0.070108	0.576710
C42	C	1.654444	0.015823	0.653378
C43	C	1.569812	0.101749	0.576710
C44	C	1.569811	0.101743	0.423373
C45	C	1.400562	0.273600	0.576706
C46	C	1.400554	0.273609	0.423373
C47	C	1.315932	0.359532	0.653375
C48	C	1.231305	0.445465	0.576706
C49	C	1.231296	0.445464	0.423363
C50	C	1.315922	0.359535	0.346704
H51	H	1.157166	-0.251866	0.000116
H52	H	1.315928	0.359530	0.221852
H53	H	1.250746	-0.038050	0.000054
H54	H	1.266979	-0.205460	0.000147
O55	O	1.149223	0.528882	0.651406
C56	C	1.167351	0.510424	0.803181
H57	H	1.266773	0.463695	0.824117
H58	H	1.095700	0.445764	0.846693
C59	C	1.027531	0.698121	0.856197
C60	C	1.149645	0.640738	0.881912
H61	H	1.016603	0.778503	0.904766
H62	H	1.015313	0.710555	0.753944
H63	H	0.967835	0.644225	0.892458
H64	H	1.209338	0.694626	0.845635
H65	H	1.161873	0.628316	0.984162
H66	H	1.372933	-0.378222	-0.221583
H67	H	1.807965	-0.140075	0.360940
O68	O	1.363110	-0.384155	0.241426
C69	C	1.426186	-0.346840	0.367864
H70	H	1.483550	-0.263793	0.339879
H71	H	1.491900	-0.431103	0.409804
C72	C	1.258370	-0.406438	0.521501
C73	C	1.328818	-0.304430	0.487132
H74	H	1.198312	-0.380283	0.595074
H75	H	1.215877	-0.431582	0.436318
H76	H	1.313145	-0.476648	0.556442
H77	H	1.274045	-0.234229	0.452174
H78	H	1.371301	-0.279272	0.572312
O79	O	1.148959	0.528758	0.348826
C80	C	1.070891	0.459708	0.260109
H81	H	1.067880	0.359085	0.306318
H82	H	1.110129	0.453404	0.143897
C83	C	0.940374	0.652310	0.201009
C84	C	0.936668	0.528726	0.257771
H85	H	0.857580	0.694885	0.199560
H86	H	0.992972	0.698832	0.260775
H87	H	0.973079	0.647039	0.104171
H88	H	0.903979	0.533998	0.354613
H89	H	0.884061	0.482206	0.198021
O90	O	1.654557	0.015619	0.197761
C91	C	1.747423	-0.078619	0.146532
H92	H	1.768656	-0.154404	0.234894
H93	H	1.837071	-0.032230	0.119327
C94	C	1.673005	-0.048770	-0.100569
C95	C	1.699076	-0.141857	0.007955
H96	H	1.643187	-0.087775	-0.186053
H97	H	1.610442	0.014724	-0.066057
H98	H	1.747718	-0.010120	-0.123222
H99	H	1.624361	-0.180493	0.030619
H100	H	1.761626	-0.205359	-0.026556
H101	H	1.807984	-0.140081	0.639134
H102	H	1.195024	0.426246	-0.000034
H103	H	0.919457	-0.258261	0.000112
H104	H	1.050913	0.633617	-0.000039
H105	H	0.813200	0.627215	-0.000031
H106	H	0.775340	-0.050875	0.000091
H107	H	0.719617	0.413424	0.000016
H108	H	1.597344	-0.246560	0.221910
H109	H	1.597369	-0.246309	-0.221570
H110	H	1.703520	-0.418927	0.000184
H111	H	1.654449	0.015807	0.778230
H112	H	1.315940	0.359522	0.778227
