data_functionalizedCrystal
_audit_creation_method	'MofGen! by Chris Wilmer'
_symmetry_space_group_name_H-M	'P1'
_symmetry_Int_Tables_number	1
_symmetry_cell_setting	triclinic
loop_
_symmetry_equiv_pos_as_xyz
  x,y,z
_cell_length_a	14.971486
_cell_length_b	19.188930
_cell_length_c	13.448316
_cell_angle_alpha	89.988273
_cell_angle_beta	89.998199
_cell_angle_gamma	83.379455
loop_
_atom_site_label
_atom_site_type_symbol
_atom_site_fract_x
_atom_site_fract_y
_atom_site_fract_z
O1	O	1.186467	0.090988	-0.082589
O2	O	1.519800	0.424321	0.250744
O3	O	1.853133	0.757655	0.584078
O4	O	0.926009	0.101884	-0.082618
O5	O	1.259342	0.435217	0.250716
O6	O	1.592676	0.768551	0.584049
O7	O	1.063754	-0.005195	-0.082583
O8	O	1.397087	0.328138	0.250750
O9	O	1.730421	0.661471	0.584084
O10	O	1.048722	0.198067	-0.082624
O11	O	1.382055	0.531401	0.250710
O12	O	1.715388	0.864734	0.584043
O13	O	1.063737	-0.005202	0.082801
O14	O	1.397070	0.328131	0.416134
O15	O	1.730404	0.661465	0.749467
O16	O	0.925992	0.101877	0.082766
O17	O	1.259325	0.435211	0.416100
O18	O	1.592658	0.768544	0.749433
O19	O	1.186450	0.090981	0.082795
O20	O	1.519783	0.424315	0.416128
O21	O	1.853116	0.757648	0.749461
Cu22	Cu	1.056219	0.096429	0.097881
Cu23	Cu	1.389552	0.429762	0.431215
Cu24	Cu	1.722886	0.763095	0.764548
Cu25	Cu	1.056239	0.096437	-0.097704
Cu26	Cu	1.389573	0.429770	0.235629
Cu27	Cu	1.722906	0.763103	0.568962
O28	O	1.048704	0.198061	0.082760
O29	O	1.382038	0.531394	0.416094
O30	O	1.715371	0.864728	0.749427
C31	C	0.892678	0.101393	0.000071
C32	C	1.226012	0.434727	0.333404
C33	C	1.559345	0.768060	0.666738
C34	C	0.793389	0.099933	0.000061
C35	C	1.126722	0.433266	0.333394
C36	C	1.460056	0.766600	0.666728
C37	C	1.063259	-0.031211	0.000112
C38	C	1.396592	0.302122	0.333445
C39	C	1.729925	0.635455	0.666778
C40	C	1.061797	-0.108721	0.000120
C41	C	1.395131	0.224613	0.333453
C42	C	1.728464	0.557946	0.666787
C43	C	0.735831	0.162839	0.000050
C44	C	1.069165	0.496173	0.333383
C45	C	1.402498	0.829506	0.666717
C46	C	0.642539	0.161463	0.000065
C47	C	0.975872	0.494796	0.333398
C48	C	1.309206	0.828130	0.666732
C49	C	0.606806	0.097180	0.000084
C50	C	0.940140	0.430513	0.333417
C51	C	1.273473	0.763847	0.666751
C52	C	0.664371	0.034269	0.000098
C53	C	0.997705	0.367602	0.333432
C54	C	1.331038	0.700936	0.666765
C55	C	0.757662	0.035646	0.000090
C56	C	1.090995	0.368979	0.333424
C57	C	1.424328	0.702312	0.666757
C58	C	0.469924	0.031403	0.000112
C59	C	0.803257	0.364737	0.333446
C60	C	1.136591	0.698070	0.666779
C61	C	0.376627	0.030026	0.000119
C62	C	0.709961	0.363359	0.333452
C63	C	1.043294	0.696693	0.666785
C64	C	0.354801	0.157221	0.000087
C65	C	0.688135	0.490554	0.333421
C66	C	1.021468	0.823887	0.666754
C67	C	0.448092	0.158598	0.000079
C68	C	0.781425	0.491931	0.333413
C69	C	1.114758	0.825264	0.666746
C70	C	0.505650	0.095686	0.000091
C71	C	0.838984	0.429020	0.333425
C72	C	1.172317	0.762353	0.666758
C73	C	1.142622	-0.153384	0.000134
C74	C	1.475955	0.179949	0.333467
C75	C	1.809288	0.513282	0.666800
C76	C	1.141249	-0.226213	0.000118
C77	C	1.474582	0.107121	0.333451
C78	C	1.807916	0.440454	0.666784
C79	C	1.059047	-0.254374	0.000108
C80	C	1.392380	0.078960	0.333441
C81	C	1.725714	0.412293	0.666774
C82	C	0.978212	-0.209700	0.000089
C83	C	1.311545	0.123633	0.333422
C84	C	1.644879	0.456967	0.666755
C85	C	0.979587	-0.136874	0.000095
C86	C	1.312921	0.196460	0.333428
C87	C	1.646254	0.529793	0.666761
N88	N	0.996208	-0.362583	0.056384
N89	N	1.329541	-0.029250	0.389718
N90	N	1.662874	0.304083	0.723051
N91	N	0.994907	-0.431766	0.056381
N92	N	1.328240	-0.098433	0.389714
N93	N	1.661574	0.234901	0.723047
C94	C	1.054899	-0.473796	0.000087
C95	C	1.388232	-0.140462	0.333421
C96	C	1.721565	0.192871	0.666754
N97	N	1.116254	-0.444030	-0.056190
N98	N	1.449588	-0.110697	0.277144
N99	N	1.782921	0.222636	0.610477
N100	N	1.117558	-0.374842	-0.056182
N101	N	1.450891	-0.041508	0.277152
N102	N	1.784224	0.291825	0.610485
C103	C	1.057547	-0.333341	0.000101
C104	C	1.390880	-0.000008	0.333434
C105	C	1.724213	0.333326	0.666767
C106	C	1.134240	-0.597429	0.000082
C107	C	1.467573	-0.264095	0.333415
C108	C	1.800907	0.069238	0.666749
C109	C	1.132864	-0.670258	0.000060
C110	C	1.466197	-0.336925	0.333393
C111	C	1.799530	-0.003591	0.666726
C112	C	0.969825	-0.653744	0.000041
C113	C	1.303158	-0.320411	0.333374
C114	C	1.636491	0.012923	0.666708
C115	C	0.971203	-0.580916	0.000053
C116	C	1.304537	-0.247583	0.333386
C117	C	1.637870	0.085750	0.666720
C118	C	1.053413	-0.552763	0.000078
C119	C	1.386747	-0.219430	0.333412
C120	C	1.720080	0.113903	0.666745
C121	C	1.219780	0.091472	0.000104
C122	C	1.553114	0.424805	0.333437
C123	C	1.886447	0.758139	0.666771
C124	C	1.319070	0.092932	0.000107
C125	C	1.652403	0.426266	0.333441
C126	C	1.985736	0.759599	0.666774
C127	C	1.049200	0.224077	0.000063
C128	C	1.382533	0.557410	0.333397
C129	C	1.715867	0.890743	0.666730
C130	C	1.050661	0.301586	0.000048
C131	C	1.383994	0.634919	0.333382
C132	C	1.717328	0.968253	0.666715
N133	N	1.056211	0.096423	0.235446
N134	N	1.389545	0.429756	0.568779
N135	N	1.722878	0.763090	0.902112
N136	N	1.056254	0.096437	-0.235268
N137	N	1.389588	0.429770	0.098065
N138	N	1.722921	0.763104	0.431398
C139	C	1.117224	0.049028	0.287501
C140	C	1.450557	0.382361	0.620835
C141	C	1.783890	0.715694	0.954168
C142	C	1.117229	0.049027	0.391604
C143	C	1.450563	0.382360	0.724938
C144	C	1.783896	0.715694	1.058271
C145	C	1.056226	0.096426	0.443650
C146	C	1.389559	0.429759	0.776984
C147	C	1.722893	0.763092	1.110317
C148	C	0.995207	0.143823	0.391587
C149	C	1.328541	0.477156	0.724921
C150	C	1.661874	0.810490	1.058254
C151	C	0.995198	0.143820	0.287486
C152	C	1.328531	0.477153	0.620819
C153	C	1.661865	0.810486	0.954153
C154	C	0.995232	0.143828	0.608567
C155	C	1.328565	0.477161	0.941901
C156	C	1.661899	0.810495	1.275234
C157	C	0.995242	0.143832	0.712676
C158	C	1.328575	0.477166	1.046009
C159	C	1.661909	0.810499	1.379343
C160	C	1.117263	0.049035	0.712686
C161	C	1.450597	0.382368	1.046019
C162	C	1.783930	0.715702	1.379353
C163	C	1.117254	0.049032	0.608585
C164	C	1.450587	0.382365	0.941918
C165	C	1.783921	0.715698	1.275251
C166	C	1.056236	0.096430	0.556529
C167	C	1.389569	0.429764	0.889862
C168	C	1.722903	0.763097	1.223195
H169	H	0.764917	0.215186	0.000034
H170	H	1.098250	0.548520	0.333367
H171	H	1.431584	0.881853	0.666700
N172	N	0.881157	-0.684100	0.000028
N173	N	1.214490	-0.350766	0.333361
N174	N	1.547824	-0.017433	0.666695
H175	H	0.876956	-0.713935	-0.061284
H176	H	1.210289	-0.380602	0.272050
H177	H	1.543623	-0.047269	0.605383
H178	H	0.876995	-0.713923	0.061373
H179	H	1.210328	-0.380590	0.394706
H180	H	1.543662	-0.047257	0.728039
N181	N	0.580458	0.229312	0.000165
N182	N	0.913791	0.562645	0.333499
N183	N	1.247125	0.895978	0.666832
H184	H	0.617251	0.270243	0.000182
H185	H	0.950584	0.603577	0.333516
H186	H	1.283917	0.936910	0.666849
H187	H	0.541221	0.231565	-0.061104
H188	H	0.874555	0.564898	0.272230
H189	H	1.207888	0.898232	0.605563
H190	H	1.198683	-0.706623	0.000065
H191	H	1.532017	-0.373290	0.333399
H192	H	1.865350	-0.039957	0.666732
H193	H	0.945533	0.182414	0.433969
H194	H	1.278866	0.515747	0.767302
H195	H	1.612199	0.849080	1.100636
H196	H	0.477182	0.210943	0.000054
H197	H	0.810515	0.544276	0.333388
H198	H	1.143849	0.877609	0.666721
H199	H	1.209564	-0.130467	0.000151
H200	H	1.542897	0.202866	0.333484
H201	H	1.876230	0.536199	0.666817
H202	H	1.207068	-0.262585	0.000125
H203	H	1.540401	0.070749	0.333458
H204	H	1.873734	0.404082	0.666791
H205	H	0.945542	0.182423	0.566187
H206	H	1.278875	0.515756	0.899520
H207	H	1.612208	0.849089	1.232854
H208	H	0.911283	-0.232634	0.000079
H209	H	1.244616	0.100700	0.333412
H210	H	1.577949	0.434033	0.666745
H211	H	0.913768	-0.100507	0.000084
H212	H	1.247102	0.232826	0.333417
H213	H	1.580435	0.566159	0.666751
H214	H	0.347537	-0.022319	0.000135
H215	H	0.680870	0.311014	0.333469
H216	H	1.014204	0.644348	0.666802
H217	H	0.516786	-0.019826	0.000124
H218	H	0.850120	0.313507	0.333457
H219	H	1.183453	0.646841	0.666791
N220	N	0.929388	0.194935	0.231335
N221	N	1.262721	0.528268	0.564668
N222	N	1.596055	0.861602	0.898002
H223	H	0.890744	0.224963	0.280100
H224	H	1.224077	0.558296	0.613433
H225	H	1.557410	0.891630	0.946767
H226	H	0.963498	0.225846	0.188122
H227	H	1.296831	0.559179	0.521456
H228	H	1.630164	0.892512	0.854789
N229	N	0.625825	-0.035062	0.000118
N230	N	0.959158	0.298271	0.333451
N231	N	1.292491	0.631605	0.666784
H232	H	0.646830	-0.062625	-0.061184
H233	H	0.980163	0.270708	0.272149
H234	H	1.313497	0.604042	0.605483
H235	H	0.646840	-0.062572	0.061472
H236	H	0.980173	0.270761	0.394805
H237	H	1.313507	0.604094	0.728139
H238	H	0.307932	0.208445	0.000082
H239	H	0.641266	0.541779	0.333415
H240	H	0.974599	0.875112	0.666748
H241	H	0.804525	-0.015579	0.000099
H242	H	1.137858	0.317754	0.333432
H243	H	1.471192	0.651088	0.666765
H244	H	0.905387	-0.544550	0.000048
H245	H	1.238720	-0.211216	0.333381
H246	H	1.572054	0.122117	0.666714
H247	H	1.166903	0.010433	0.245132
H248	H	1.500236	0.343767	0.578466
H249	H	1.833570	0.677100	0.911799
N250	N	1.222903	-0.567057	0.000105
N251	N	1.556237	-0.233723	0.333438
N252	N	1.889570	0.099610	0.666772
H253	H	1.273899	-0.606405	0.000103
H254	H	1.607232	-0.273072	0.333436
H255	H	1.940566	0.060261	0.666770
H256	H	1.227031	-0.537186	-0.061199
H257	H	1.560364	-0.203853	0.272135
H258	H	1.893698	0.129481	0.605468
H259	H	1.166909	0.010434	0.433988
H260	H	1.500243	0.343767	0.767321
H261	H	1.833576	0.677101	1.100654
H262	H	1.166931	0.010440	0.566209
H263	H	1.500265	0.343773	0.899542
H264	H	1.833598	0.677106	1.232876
H265	H	1.166946	0.010442	0.755076
H266	H	1.500279	0.343775	1.088409
H267	H	1.833612	0.677108	1.421742
N268	N	0.929456	0.194960	0.768815
N269	N	1.262790	0.528293	1.102148
N270	N	1.596123	0.861626	1.435482
H271	H	0.890798	0.224985	0.720043
H272	H	1.224132	0.558318	1.053377
H273	H	1.557465	0.891652	1.386710
H274	H	0.890030	0.168182	0.812032
H275	H	1.223364	0.501515	1.145365
H276	H	1.556697	0.834849	1.478698
