data_functionalizedCrystal
_audit_creation_method	'MofGen! by Chris Wilmer'
_symmetry_space_group_name_H-M	'P1'
_symmetry_Int_Tables_number	1
_symmetry_cell_setting	triclinic
loop_
_symmetry_equiv_pos_as_xyz
  x,y,z
_cell_length_a	16.974829
_cell_length_b	16.992695
_cell_length_c	15.455301
_cell_angle_alpha	87.173129
_cell_angle_beta	96.654373
_cell_angle_gamma	92.974284
loop_
_atom_site_label
_atom_site_type_symbol
_atom_site_fract_x
_atom_site_fract_y
_atom_site_fract_z
O1	O	1.062138	-0.106181	0.146689
O2	O	0.832001	-0.118218	0.130536
O3	O	0.946147	0.001945	0.138541
O4	O	0.947992	-0.226344	0.138684
O5	O	0.939549	0.008088	-0.006185
O6	O	0.825403	-0.112075	-0.014190
O7	O	1.055541	-0.100039	0.001963
Cu8	Cu	0.939869	-0.105496	-0.019328
Cu9	Cu	0.947672	-0.112761	0.151827
O10	O	0.941395	-0.220202	-0.006042
C11	C	0.799118	-0.114574	0.056097
C12	C	0.710968	-0.112857	0.049910
C13	C	0.214388	-0.102859	0.006614
C14	C	0.297215	-0.104472	0.012429
C15	C	0.342225	-0.108621	0.094229
C16	C	0.304404	-0.111165	0.170217
C17	C	0.221579	-0.109558	0.164401
C18	C	0.590322	-0.113793	0.120083
C19	C	0.673153	-0.115398	0.125893
C20	C	0.665958	-0.108706	-0.031896
C21	C	0.583132	-0.107094	-0.037705
C22	C	0.545318	-0.109643	0.038284
N23	N	0.426887	-0.110268	0.100175
N24	N	0.460657	-0.108002	0.032337
C25	C	0.940474	0.034234	0.066012
C26	C	0.933392	0.121291	0.065515
C27	C	1.088423	-0.103683	0.076404
C28	C	1.176573	-0.105400	0.082597
C29	C	0.947067	-0.252490	0.066490
C30	C	0.954150	-0.339548	0.066992
N31	N	0.934387	-0.100386	-0.139709
C32	C	1.001726	0.171400	0.070310
C33	C	0.995067	0.253199	0.069851
C34	C	0.920073	0.284888	0.064590
C35	C	0.851734	0.234773	0.059797
C36	C	0.858394	0.152975	0.060263
C37	C	0.892471	0.528539	0.062665
C38	C	0.885816	0.610343	0.062197
C39	C	1.029149	0.628763	0.072252
C40	C	1.035802	0.546963	0.072712
C41	C	0.967464	0.496855	0.067924
N42	N	0.913265	0.368500	0.064118
N43	N	0.974273	0.413245	0.068402
C44	C	0.983434	-0.146138	-0.181654
C45	C	0.979298	-0.142269	-0.272753
C46	C	0.926111	-0.092651	-0.321905
C47	C	0.877063	-0.046894	-0.279954
C48	C	0.881203	-0.050760	-0.188856
C49	C	0.908252	-0.075973	-0.594742
C50	C	0.904113	-0.072112	-0.685846
C51	C	1.006350	-0.167487	-0.678639
C52	C	1.010482	-0.171351	-0.587540
C53	C	0.961437	-0.125591	-0.545597
N54	N	0.921881	-0.088697	-0.415023
N55	N	0.965672	-0.129542	-0.452480
N56	N	0.953160	-0.117864	0.272209
H57	H	0.177746	-0.099483	-0.059996
H58	H	1.053795	-0.211753	-0.547526
C59	C	1.060303	-0.217813	-0.724784
N60	N	1.100945	-0.255718	-0.759540
H61	H	0.546491	-0.103699	-0.104314
C62	C	0.179983	-0.112351	0.247989
N63	N	0.148654	-0.114456	0.310950
C64	C	0.783221	0.097856	0.054985
N65	N	0.726598	0.056340	0.051013
H66	H	0.328000	-0.102400	-0.049444
C67	C	1.118301	0.512112	0.078498
N68	N	1.180440	0.485863	0.082853
H69	H	0.696755	-0.106633	-0.093761
H70	H	1.062793	0.145606	0.074588
H71	H	0.341058	-0.114548	0.236820
H72	H	1.026740	-0.186547	-0.141641
H73	H	0.709798	-0.118784	0.192507
H74	H	1.050712	0.293995	0.073754
H75	H	0.559544	-0.115865	0.181958
C76	C	1.104317	0.683888	0.077527
N77	N	1.160936	0.725408	0.081505
C78	C	0.803314	0.645198	0.056416
N79	N	0.741176	0.671451	0.052063
H80	H	0.836824	0.487750	0.058765
C81	C	0.854293	-0.025641	-0.548617
N82	N	0.813646	0.012269	-0.513872
H83	H	0.833761	-0.006490	-0.319980
C84	C	0.769240	0.269634	0.054003
N85	N	0.707103	0.295891	0.049632
C86	C	0.827246	-0.000431	-0.142718
N87	N	0.786605	0.037480	-0.107967
C88	C	1.033224	-0.192631	-0.318890
N89	N	1.073834	-0.230577	-0.353641
H90	H	0.860798	-0.031708	-0.725864
