data_functionalizedCrystal
_audit_creation_method	'MofGen! by Chris Wilmer'
_symmetry_space_group_name_H-M	'P1'
_symmetry_Int_Tables_number	1
_symmetry_cell_setting	triclinic
loop_
_symmetry_equiv_pos_as_xyz
  x,y,z
_cell_length_a	12.645331
_cell_length_b	12.645330
_cell_length_c	12.759393
_cell_angle_alpha	89.971026
_cell_angle_beta	89.981731
_cell_angle_gamma	90.018103
loop_
_atom_site_label
_atom_site_type_symbol
_atom_site_fract_x
_atom_site_fract_y
_atom_site_fract_z
Zn1	Zn	1.620734	-0.421976	-0.593956
Zn2	Zn	1.620615	-0.599277	-0.418281
Zn3	Zn	1.443448	-0.422029	-0.418300
Zn4	Zn	1.443430	-0.599200	-0.593927
O5	O	1.532057	-0.510621	-0.506116
O6	O	1.769065	-0.445506	-0.570657
O7	O	1.597071	-0.575819	-0.271263
O8	O	1.467022	-0.273675	-0.441621
O9	O	1.768978	-0.575768	-0.441590
O10	O	1.597274	-0.273636	-0.570675
O11	O	1.466907	-0.445596	-0.271276
O12	O	1.295098	-0.445521	-0.441592
O13	O	1.466993	-0.575636	-0.740952
O14	O	1.295085	-0.575687	-0.570625
O15	O	1.597257	-0.445431	-0.740974
O16	O	1.597054	-0.747614	-0.441561
O17	O	1.466877	-0.747557	-0.570607
C18	C	1.531979	-0.786050	-0.506101
C19	C	1.532043	-0.903880	-0.506130
C20	C	1.256627	-0.510602	-0.506108
C21	C	1.138797	-0.510620	-0.506129
C22	C	1.450487	-1.071453	-0.587563
C23	C	1.450070	-0.948893	-0.587301
C24	C	1.501797	-0.948483	-0.395409
C25	C	1.501299	-1.071081	-0.395904
C26	C	1.644344	-1.070967	-0.534520
C27	C	1.643656	-0.948360	-0.536941
C28	C	1.093942	-0.592647	-0.587185
C29	C	0.971382	-0.592984	-0.586944
C30	C	0.970843	-0.540467	-0.395273
C31	C	1.093441	-0.541046	-0.395742
C32	C	1.093651	-0.398573	-0.534962
C33	C	0.971046	-0.399191	-0.537403
C34	C	1.808562	-0.510640	-0.506125
C35	C	1.926392	-0.510648	-0.506129
C36	C	1.532136	-0.510519	-0.780149
C37	C	1.532170	-0.510476	-0.896926
C38	C	1.532163	-0.234115	-0.506154
C39	C	1.532209	-0.116285	-0.506170
C40	C	1.600003	-0.442667	-0.951801
C41	C	1.600021	-0.442621	-1.061525
C42	C	1.464369	-0.578202	-1.061490
C43	C	1.464347	-0.578241	-0.951768
C44	C	1.532039	-0.510646	-0.233149
C45	C	1.532210	-0.510390	-0.116372
H46	H	1.468993	-0.918733	-0.669400
H47	H	1.666466	-0.919203	-0.618426
H48	H	0.940421	-0.334852	-0.482716
C49	C	1.132860	-0.316012	-0.455229
N50	N	1.162404	-0.253834	-0.395176
H51	H	1.123111	-0.483854	-0.333278
H52	H	1.707750	-0.917713	-0.481975
H53	H	0.941998	-0.376697	-0.618986
H54	H	1.409101	-0.633459	-0.907087
C55	C	1.579652	-0.909090	-0.311238
N56	N	1.638292	-0.879415	-0.247842
H57	H	1.558239	-1.100742	-0.333192
H58	H	1.420680	-0.917874	-0.370958
H59	H	1.469237	-1.100858	-0.669931
C60	C	1.337743	-0.909396	-0.562005
N61	N	1.253128	-0.879648	-0.542978
C62	C	0.931467	-0.462238	-0.311440
N63	N	0.901806	-0.403316	-0.248298
C64	C	0.929328	-0.649894	-0.361786
N65	N	0.898060	-0.732318	-0.336570
H66	H	1.705229	-1.099959	-0.475238
C67	C	1.681614	-1.112620	-0.641742
N68	N	1.709674	-1.143993	-0.722507
H69	H	1.367874	-1.102355	-0.569022
H70	H	0.941330	-0.574382	-0.669128
C71	C	1.390557	-1.109848	-0.363465
N72	N	1.307141	-1.139041	-0.339034
H73	H	1.124607	-0.371328	-0.614435
C74	C	1.132033	-0.651679	-0.362826
N75	N	1.161095	-0.735011	-0.338036
H76	H	1.655257	-0.387403	-1.106200
H77	H	1.123461	-0.574259	-0.669625
H78	H	1.124720	-0.675203	-0.568288
C79	C	1.674601	-0.368113	-0.891480
N80	N	1.730787	-0.311953	-0.846048
C81	C	1.389766	-0.652738	-1.121826
N82	N	1.333572	-0.708881	-1.167269
H83	H	0.942024	-0.676020	-0.567816
