data_functionalizedCrystal
_audit_creation_method	'MofGen! by Chris Wilmer'
_symmetry_space_group_name_H-M	'P1'
_symmetry_Int_Tables_number	1
_symmetry_cell_setting	triclinic
loop_
_symmetry_equiv_pos_as_xyz
  x,y,z
_cell_length_a	14.560432
_cell_length_b	14.560432
_cell_length_c	14.560438
_cell_angle_alpha	59.995391
_cell_angle_beta	90.000111
_cell_angle_gamma	60.002120
loop_
_atom_site_label
_atom_site_type_symbol
_atom_site_fract_x
_atom_site_fract_y
_atom_site_fract_z
Zr1	Zr	0.884735	1.005365	-0.120627
O2	O	0.738089	1.196973	-0.267292
O3	O	0.929692	0.813753	-0.075653
O4	O	0.929692	1.005365	-0.267274
O5	O	0.738087	1.005364	0.075467
O6	O	1.080830	1.005368	-0.267274
O7	O	0.738089	1.005362	-0.075672
O8	O	1.080830	0.662611	0.075501
O9	O	0.738087	1.348122	-0.267308
O10	O	1.061656	0.892570	-0.056488
O11	O	0.948862	0.892569	0.056305
O12	O	0.948862	1.118167	-0.169304
O13	O	0.836068	1.118165	-0.056511
Zr14	Zr	1.125779	1.005375	0.120421
Zr15	Zr	1.125783	1.005372	-0.120628
Zr16	Zr	0.884732	1.005368	0.120422
Zr17	Zr	0.884732	1.246429	-0.120651
Zr18	Zr	1.125782	0.764310	0.120445
O19	O	1.080822	1.196987	0.075447
O20	O	1.080827	1.196982	-0.267293
O21	O	0.738084	1.196978	0.075448
O22	O	1.272425	0.813766	0.267086
O23	O	1.272430	0.813762	-0.075654
O24	O	0.929687	0.813758	0.267087
O25	O	1.272427	1.005376	-0.075673
O26	O	1.080822	1.005375	0.267068
O27	O	0.929684	1.005371	0.267068
O28	O	1.272425	1.005378	0.075466
O29	O	0.929687	1.348127	-0.267308
O30	O	1.080827	0.662613	0.267102
O31	O	1.272427	0.662618	0.267102
O32	O	1.272430	0.662616	0.075500
O33	O	0.738084	1.348124	-0.075706
O34	O	0.929684	1.348129	-0.075707
O35	O	1.061652	0.892573	0.169098
O36	O	1.174446	0.892575	0.056305
O37	O	1.061652	1.118171	-0.056511
O38	O	0.948858	1.118170	0.056282
C39	C	1.005262	0.703835	-0.000073
C40	C	1.005263	0.601497	-0.000062
C41	C	0.838710	0.575832	-0.166686
C42	C	0.755446	0.707191	-0.249941
C43	C	0.755452	0.803321	-0.249908
C44	C	0.838729	0.768085	-0.166607
C45	C	0.921993	0.636726	-0.083352
C46	C	0.921980	0.540603	-0.083396
C47	C	1.088527	0.470139	0.083193
C48	C	1.088528	0.374007	0.083157
C49	C	1.171804	0.434903	0.166493
C50	C	1.255075	0.303542	0.249746
C51	C	1.255066	0.207410	0.249708
C52	C	1.171792	0.242648	0.166412
C53	C	0.703744	1.005362	-0.000102
C54	C	0.601413	1.005359	-0.000102
C55	C	0.719154	0.769835	0.117667
C56	C	0.729948	0.652076	0.176547
C57	C	0.633795	0.652082	0.176544
C58	C	0.526841	0.769858	0.117658
C59	C	0.516047	0.887617	0.058778
C60	C	0.612208	0.887598	0.058785
C61	C	0.398308	1.123139	-0.058983
C62	C	0.494459	1.123136	-0.058988
C63	C	0.291353	1.240915	-0.117869
C64	C	0.280558	1.358676	-0.176756
C65	C	0.376719	1.358666	-0.176752
C66	C	0.483665	1.240894	-0.117867
C67	C	1.306770	1.005378	-0.000104
C68	C	1.409101	1.005380	-0.000104
C69	C	1.005262	1.005366	-0.301618
C70	C	1.005263	1.005365	-0.403949
C71	C	1.005252	1.306904	-0.000133
C72	C	1.005251	1.409243	-0.000144
C73	C	0.921987	1.005374	-0.548181
C74	C	0.921995	1.005364	-0.452024
C75	C	1.088535	1.005362	-0.452030
C76	C	1.088531	1.005362	-0.548180
C77	C	0.825834	1.005382	-0.548180
C78	C	0.825842	1.005372	-0.452023
C79	C	1.005252	1.005374	0.301412
C80	C	1.005251	1.005375	0.403743
C81	C	1.306775	0.703843	-0.000073
C82	C	1.409107	0.601508	-0.000063
C83	C	1.005257	0.703839	0.301442
C84	C	1.005257	0.601503	0.403784
C85	C	1.306770	0.703847	0.301442
C86	C	1.409101	0.601513	0.403783
C87	C	0.703744	1.306893	-0.301648
C88	C	0.601413	1.409227	-0.403989
C89	C	0.703739	1.306897	-0.000133
C90	C	0.601407	1.409232	-0.000143
C91	C	1.005257	1.306901	-0.301648
C92	C	1.005257	1.409237	-0.403990
C93	C	1.398311	0.553425	-0.058932
C94	C	1.494467	0.457277	-0.058926
C95	C	1.612213	0.457301	0.058826
C96	C	1.516058	0.553453	0.058813
C97	C	1.330332	0.553406	-0.126911
C98	C	1.426488	0.457259	-0.126905
C99	C	1.064134	0.553422	0.510741
C100	C	1.064125	0.457271	0.606898
C101	C	0.946360	0.457285	0.489127
C102	C	0.946363	0.553441	0.392973
C103	C	1.132129	0.553409	0.578736
C104	C	1.132120	0.457258	0.674893
C105	C	1.516054	0.553433	0.392990
C106	C	1.612200	0.457285	0.489154
C107	C	1.494428	0.457303	0.606903
C108	C	1.398284	0.553455	0.510739
C109	C	1.584049	0.553418	0.325009
C110	C	1.680196	0.457270	0.421174
H111	H	0.687639	0.910280	-0.317689
H112	H	0.561965	1.240875	-0.117861
H113	H	0.743723	1.095774	-0.471133
H114	H	1.094312	0.643425	0.578745
C115	C	1.171811	0.540651	0.166525
N116	N	1.171822	0.620300	0.166547
C117	C	1.572258	0.504603	0.256225
N118	N	1.563375	0.467835	0.204418
C119	C	1.259815	0.675019	-0.248544
N120	N	1.206704	0.766617	-0.340157
H121	H	0.817039	0.556185	0.224493
H122	H	1.485635	0.418163	0.693996
C123	C	1.253738	0.335631	0.745422
N124	N	1.345337	0.244023	0.798541
C125	C	1.180153	1.005311	-0.601034
N126	N	1.249173	1.005259	-0.640837
C127	C	1.249728	0.504601	0.566947
N128	N	1.338305	0.467837	0.558066
H129	H	1.435214	0.493396	-0.213962
H130	H	0.749364	1.098659	-0.624647
C131	C	1.750715	0.335640	0.421192
N132	N	1.803826	0.244030	0.421208
C133	C	1.527941	0.606353	0.123561
N134	N	1.536895	0.646196	0.172333
C135	C	1.426498	0.335626	-0.075784
N136	N	1.426507	0.244013	-0.037278
H137	H	1.156340	1.005350	-0.412875
C138	C	1.071531	0.506062	0.743691
N139	N	1.025897	0.542819	0.795511
H140	H	0.898407	0.592598	0.305886
C141	C	0.838702	0.470095	-0.166737
N142	N	0.838693	0.390454	-0.166777
H143	H	0.642588	0.556193	0.224492
H144	H	1.311201	0.592611	0.519537
H145	H	0.834114	0.914977	-0.529063
C146	C	1.748998	0.506078	0.432952
N147	N	1.800821	0.542837	0.441824
C148	C	0.421074	0.769857	0.117667
N149	N	0.341408	0.769858	0.117673
H150	H	1.584066	0.643435	0.272803
C151	C	0.838727	0.873835	-0.166571
N152	N	0.838728	0.953487	-0.166544
C153	C	0.824930	0.769818	0.117668
N154	N	0.904603	0.769802	0.117671
C155	C	0.663847	0.745939	-0.341569
N156	N	0.594854	0.775127	-0.410582
C157	C	0.848531	0.879360	-0.348717
N158	N	0.865621	0.784450	-0.270906
H159	H	1.322868	0.274867	0.317567
H160	H	1.322866	0.100453	0.317509
C161	C	1.171773	0.136914	0.166364
N162	N	1.171752	0.057278	0.166327
H163	H	0.898410	0.418143	0.480338
H164	H	0.213065	1.240911	-0.117861
H165	H	0.193473	1.454560	-0.224691
H166	H	0.367918	1.454560	-0.224684
C167	C	1.261540	0.504593	-0.066309
N168	N	1.209724	0.467827	-0.020664
C169	C	1.729863	0.404426	0.123592
N170	N	1.818479	0.364599	0.172378
