data_functionalizedCrystal
_audit_creation_method	'MofGen! by Chris Wilmer'
_symmetry_space_group_name_H-M	'P1'
_symmetry_Int_Tables_number	1
_symmetry_cell_setting	triclinic
loop_
_symmetry_equiv_pos_as_xyz
  x,y,z
_cell_length_a	16.625546
_cell_length_b	17.640112
_cell_length_c	17.640968
_cell_angle_alpha	87.860920
_cell_angle_beta	78.766516
_cell_angle_gamma	78.752230
loop_
_atom_site_label
_atom_site_type_symbol
_atom_site_fract_x
_atom_site_fract_y
_atom_site_fract_z
Zn1	Zn	-0.023167	-1.247778	-0.195079
Zn2	Zn	0.476833	-0.747778	0.304921
Zn3	Zn	-0.189521	-1.222008	-0.068091
Zn4	Zn	0.310479	-0.722008	0.431909
Zn5	Zn	-0.075617	-1.095110	-0.093723
Zn6	Zn	0.424383	-0.595110	0.406277
Zn7	Zn	-0.178908	-1.120749	-0.220673
Zn8	Zn	0.321092	-0.620749	0.279327
O9	O	-0.116803	-1.171411	-0.144392
O10	O	0.383197	-0.671411	0.355608
O11	O	-0.027726	-1.350629	-0.156795
O12	O	0.472274	-0.850629	0.343205
O13	O	-0.200804	-1.183660	0.034783
O14	O	0.299196	-0.683660	0.534783
O15	O	0.044187	-1.115417	-0.107184
O16	O	0.544187	-0.615417	0.392816
O17	O	-0.149946	-1.331696	-0.063498
O18	O	0.350054	-0.831696	0.436502
O19	O	0.082722	-1.227581	-0.181650
O20	O	0.582722	-0.727581	0.318350
O21	O	-0.117119	-1.090428	0.015951
O22	O	0.382881	-0.590428	0.515951
O23	O	-0.106828	-0.992242	-0.132002
O24	O	0.393172	-0.492242	0.367998
O25	O	-0.131856	-1.159114	-0.323552
O26	O	0.368144	-0.659114	0.176448
O27	O	-0.182715	-1.011078	-0.225272
O28	O	0.317285	-0.511078	0.274728
O29	O	-0.017434	-1.252442	-0.304748
O30	O	0.482566	-0.752442	0.195252
O31	O	-0.300961	-1.208521	-0.088315
O32	O	0.199039	-0.708521	0.411685
O33	O	-0.293163	-1.134126	-0.200417
O34	O	0.206837	-0.634126	0.299583
C35	C	-0.149311	-0.974106	-0.184196
C36	C	0.350689	-0.474106	0.315804
C37	C	-0.163234	-0.889701	-0.201243
C38	C	0.336766	-0.389701	0.298757
C39	C	-0.326314	-1.171333	-0.144374
C40	C	0.173686	-0.671333	0.355626
C41	C	-0.415926	-1.171374	-0.144378
C42	C	0.084074	-0.671374	0.355622
C43	C	-0.067611	-1.211513	-0.342476
C44	C	0.432389	-0.711513	0.157524
C45	C	-0.046647	-1.228602	-0.426888
C46	C	0.453353	-0.728602	0.073112
C47	C	-0.744060	-1.171522	-0.144431
C48	C	-0.244060	-0.671522	0.355569
C49	C	-0.652763	-1.171479	-0.144419
C50	C	-0.152763	-0.671479	0.355581
C51	C	-0.579996	-1.171448	-0.144404
C52	C	-0.079996	-0.671448	0.355596
C53	C	-0.488693	-1.171406	-0.144393
C54	C	0.011307	-0.671406	0.355607
C55	C	0.093533	-1.171514	-0.144422
C56	C	0.593533	-0.671514	0.355578
C57	C	0.183166	-1.171558	-0.144434
C58	C	0.683166	-0.671558	0.355566
C59	C	-0.084169	-1.369487	-0.104432
C60	C	0.415831	-0.869487	0.395568
C61	C	-0.070262	-1.453895	-0.087404
C62	C	0.429738	-0.953895	0.412596
C63	C	-0.011024	-0.563039	-0.014898
C64	C	0.488976	-0.063039	0.485102
C65	C	-0.024119	-0.483730	-0.030926
C66	C	0.475881	0.016270	0.469074
C67	C	-0.103324	-0.503365	-0.127880
C68	C	0.396676	-0.003365	0.372120
C69	C	-0.090232	-0.582678	-0.111863
C70	C	0.409768	-0.082678	0.388137
C71	C	-0.044082	-0.612508	-0.055370
C72	C	0.455918	-0.112508	0.444630
C73	C	-0.123289	-0.632147	-0.152335
C74	C	0.376711	-0.132147	0.347665
C75	C	-0.110201	-0.711452	-0.136316
C76	C	0.389799	-0.211452	0.363684
C77	C	-0.064056	-0.741288	-0.079824
C78	C	0.435944	-0.241288	0.420176
C79	C	-0.030994	-0.691813	-0.039351
C80	C	0.469006	-0.191813	0.460649
C81	C	-0.169444	-0.602314	-0.208823
C82	C	0.330556	-0.102314	0.291177
C83	C	-0.202502	-0.651783	-0.249296
C84	C	0.297498	-0.151783	0.250704
C85	C	-0.189409	-0.731091	-0.233281
C86	C	0.310591	-0.231091	0.266719
C87	C	-0.143264	-0.760927	-0.176789
C88	C	0.356736	-0.260927	0.323211
C89	C	-0.222471	-0.780566	-0.273754
C90	C	0.277529	-0.280566	0.226246
C91	C	-0.209383	-0.859871	-0.257735
C92	C	0.290617	-0.359871	0.242265
C93	C	-0.130176	-0.840232	-0.160770
C94	C	0.369824	-0.340232	0.339230
C95	C	-0.275571	-1.041880	-0.753453
C96	C	0.224429	-0.541880	-0.253453
C97	C	-0.255860	-1.057954	-0.832768
C98	C	0.244140	-0.557954	-0.332768
C99	C	-0.136723	-1.155128	-0.813179
C100	C	0.363277	-0.655128	-0.313179
C101	C	-0.156422	-1.139059	-0.733861
C102	C	0.343578	-0.639059	-0.233861
C103	C	-0.225847	-1.082435	-0.704005
C104	C	0.274153	-0.582435	-0.204005
C105	C	-0.106698	-1.179615	-0.684413
C106	C	0.393302	-0.679615	-0.184413
C107	C	-0.126397	-1.163551	-0.605102
C108	C	0.373603	-0.663551	-0.105102
C109	C	-0.195821	-1.106931	-0.575239
C110	C	0.304179	-0.606931	-0.075239
C111	C	-0.245547	-1.066371	-0.624694
C112	C	0.254453	-0.566371	-0.124694
C113	C	-0.037276	-1.236243	-0.714270
C114	C	0.462724	-0.736243	-0.214270
C115	C	0.012448	-1.276798	-0.664822
C116	C	0.512448	-0.776798	-0.164822
C117	C	-0.007248	-1.260730	-0.585510
C118	C	0.492752	-0.760730	-0.085510
C119	C	-0.076672	-1.204111	-0.555647
C120	C	0.423328	-0.704111	-0.055647
C121	C	0.042478	-1.301290	-0.536055
C122	C	0.542478	-0.801290	-0.036055
C123	C	0.022778	-1.285226	-0.456744
C124	C	0.522778	-0.785226	0.043256
C125	C	-0.096371	-1.188046	-0.476336
C126	C	0.403629	-0.688046	0.023664
C127	C	-0.165740	-1.131509	0.052931
C128	C	0.334260	-0.631509	0.552931
C129	C	-0.186451	-1.114568	0.137372
C130	C	0.313549	-0.614568	0.637372
H131	H	-0.092581	-0.864523	-0.114780
H132	H	0.407419	-0.364523	0.385220
H133	H	-0.240080	-0.627484	-0.295290
H134	H	0.259920	-0.127484	0.204710
H135	H	-0.332088	-0.995753	-0.729147
H136	H	0.167912	-0.495753	-0.229147
H137	H	-0.053403	-0.805864	-0.066781
H138	H	0.446597	-0.305864	0.433219
H139	H	-0.152888	-1.141919	-0.452030
H140	H	0.347112	-0.641919	0.047970
H141	H	0.006601	-0.716104	0.006640
H142	H	0.506601	-0.216104	0.506640
H143	H	-0.021240	-1.249322	-0.778850
H144	H	0.478760	-0.749322	-0.278850
H145	H	-0.260053	-0.756265	-0.319745
H146	H	0.239947	-0.256265	0.180255
H147	H	0.026571	-0.587330	0.031093
H148	H	0.526571	-0.087330	0.531093
H149	H	-0.302064	-1.020244	-0.600388
H150	H	0.197936	-0.520244	-0.100388
H151	H	-0.236301	-0.900151	-0.290693
H152	H	0.263699	-0.400151	0.209307
H153	H	-0.296357	-1.024924	-0.873027
H154	H	0.203643	-0.524924	-0.373027
H155	H	0.063269	-1.318249	-0.416482
H156	H	0.563269	-0.818249	0.083518
H157	H	-0.140902	-0.479066	-0.173874
H158	H	0.359098	0.020934	0.326126
H159	H	-0.080199	-1.201233	-0.837498
H160	H	0.419801	-0.701233	-0.337498
H161	H	0.002811	-0.443455	0.002031
H162	H	0.502811	0.056545	0.502031
H163	H	0.068973	-1.322904	-0.689141
H164	H	0.568973	-0.822904	-0.189141
H165	H	-0.180099	-0.537739	-0.221864
H166	H	0.319901	-0.037739	0.278136
H167	H	0.098999	-1.347399	-0.560375
H168	H	0.598999	-0.847399	-0.060375
H169	H	-0.211862	-1.093855	-0.510658
H170	H	0.288138	-0.593855	-0.010658
