data_functionalizedCrystal
_audit_creation_method	'MofGen! by Chris Wilmer'
_symmetry_space_group_name_H-M	'P1'
_symmetry_Int_Tables_number	1
_symmetry_cell_setting	triclinic
loop_
_symmetry_equiv_pos_as_xyz
  x,y,z
_cell_length_a	13.930277
_cell_length_b	14.853567
_cell_length_c	14.853559
_cell_angle_alpha	83.633192
_cell_angle_beta	89.993167
_cell_angle_gamma	90.004247
loop_
_atom_site_label
_atom_site_type_symbol
_atom_site_fract_x
_atom_site_fract_y
_atom_site_fract_z
O1	O	0.079773	1.196365	0.117692
O2	O	0.579773	1.696365	0.617692
O3	O	0.079786	0.933905	0.131713
O4	O	0.579786	1.433905	0.631713
O5	O	0.079779	1.072150	-0.006528
O6	O	0.579779	1.572150	0.493472
O7	O	0.079781	1.058121	0.255933
O8	O	0.579781	1.558121	0.755933
O9	O	-0.079883	1.072130	-0.006506
O10	O	0.420117	1.572130	0.493494
O11	O	-0.079875	0.933885	0.131735
O12	O	0.420125	1.433885	0.631735
O13	O	-0.079888	1.196345	0.117713
O14	O	0.420112	1.696345	0.617713
Zn15	Zn	-0.105232	1.065112	0.124727
Zn16	Zn	0.394768	1.565112	0.624727
Zn17	Zn	0.105130	1.065139	0.124699
Zn18	Zn	0.605130	1.565139	0.624699
O19	O	-0.079881	1.058100	0.255954
O20	O	0.420119	1.558100	0.755954
C21	C	-0.000043	0.900307	0.131089
C22	C	0.499957	1.400307	0.631089
C23	C	-0.000038	0.800223	0.129185
C24	C	0.499962	1.300223	0.629185
N25	N	-0.248798	1.065100	0.124746
N26	N	0.251202	1.565100	0.624746
C27	C	-0.000051	1.071506	-0.040106
C28	C	0.499949	1.571506	0.459894
C29	C	-0.000045	1.069605	-0.140190
C30	C	0.499955	1.569605	0.359810
C31	C	-0.701059	1.119893	0.179462
C32	C	-0.201059	1.619893	0.679462
C33	C	-0.701044	1.010412	0.069899
C34	C	-0.201044	1.510412	0.569899
C35	C	-0.600549	1.010399	0.069914
C36	C	-0.100549	1.510399	0.569914
C37	C	-0.550304	1.065134	0.124703
C38	C	-0.050304	1.565134	0.624703
C39	C	-0.600554	1.119883	0.179477
C40	C	-0.100554	1.619883	0.679477
C41	C	-0.550290	0.955658	0.015134
C42	C	-0.050290	1.455658	0.515134
C43	C	-0.449788	0.955642	0.015145
C44	C	0.050212	1.455642	0.515145
C45	C	-0.399542	1.010373	0.069940
C46	C	0.100458	1.510373	0.569940
C47	C	-0.449798	1.065124	0.124717
C48	C	0.050202	1.565124	0.624717
C49	C	-0.399553	1.119859	0.179506
C50	C	0.100447	1.619859	0.679506
C51	C	-0.449808	1.174605	0.234288
C52	C	0.050192	1.674605	0.734288
C53	C	-0.550307	1.174614	0.234271
C54	C	-0.050307	1.674614	0.734271
C55	C	-0.299043	1.010365	0.069957
C56	C	0.200957	1.510365	0.569957
C57	C	-0.299048	1.119849	0.179520
C58	C	0.200952	1.619849	0.679520
N59	N	0.248696	1.065157	0.124674
N60	N	0.748696	1.565157	0.624674
C61	C	-0.000057	1.229944	0.118338
C62	C	0.499943	1.729944	0.618338
C63	C	-0.000056	1.330027	0.120242
C64	C	0.499944	1.830027	0.620242
C65	C	-0.000038	1.742559	0.210408
C66	C	0.499962	2.242559	0.710408
C67	C	-0.000040	1.763845	0.046174
C68	C	0.499960	2.263845	0.546174
C69	C	-0.000045	1.669811	0.044384
C70	C	0.499955	2.169811	0.544384
C71	C	-0.000046	1.612147	0.125607
C72	C	0.499954	2.112147	0.625607
C73	C	-0.000040	1.648516	0.208620
C74	C	0.499960	2.148516	0.708620
C75	C	-0.000041	1.633434	-0.038627
C76	C	0.499959	2.133434	0.461373
C77	C	-0.000045	1.539395	-0.040421
C78	C	0.499955	2.039395	0.459579
C79	C	-0.000052	1.481729	0.040803
C80	C	0.499948	1.981729	0.540803
C81	C	-0.000048	1.518104	0.123819
C82	C	0.499952	2.018104	0.623819
C83	C	-0.000048	1.460440	0.205042
C84	C	0.499952	1.960440	0.705042
C85	C	-0.000051	1.496812	0.288060
C86	C	0.499949	1.996812	0.788060
C87	C	-0.000047	1.590850	0.289844
C88	C	0.499953	2.090850	0.789844
C89	C	-0.000056	1.387692	0.039019
C90	C	0.499944	1.887692	0.539019
C91	C	-0.000051	1.366397	0.203255
C92	C	0.499949	1.866397	0.703255
C93	C	0.086987	1.061552	-0.563377
C94	C	0.586987	1.561552	-0.063377
C95	C	-0.087082	1.061530	-0.563348
C96	C	0.412918	1.561530	-0.063348
C97	C	-0.087083	1.063323	-0.469315
C98	C	0.412917	1.563323	0.030685
C99	C	-0.000048	1.064230	-0.422308
C100	C	0.499952	1.564230	0.077692
C101	C	0.086989	1.063343	-0.469334
C102	C	0.586989	1.563343	0.030666
C103	C	-0.174118	1.064201	-0.422280
C104	C	0.325882	1.564201	0.077720
C105	C	-0.174123	1.065994	-0.328241
C106	C	0.325877	1.565994	0.171759
C107	C	-0.087086	1.066907	-0.281233
C108	C	0.412914	1.566907	0.218767
C109	C	-0.000046	1.066021	-0.328266
C110	C	0.499954	1.566021	0.171734
C111	C	0.086990	1.066927	-0.281259
C112	C	0.586990	1.566927	0.218741
C113	C	0.174031	1.066048	-0.328290
C114	C	0.674031	1.566048	0.171710
C115	C	0.174026	1.064256	-0.422326
C116	C	0.674026	1.564256	0.077674
C117	C	-0.087081	1.068698	-0.187197
C118	C	0.412919	1.568698	0.312803
C119	C	0.086992	1.068718	-0.187216
C120	C	0.586992	1.568718	0.312784
C121	C	-0.000049	1.058745	0.289532
C122	C	0.499951	1.558745	0.789532
C123	C	-0.000048	1.060646	0.389616
C124	C	0.499952	1.560646	0.889616
H125	H	-0.258146	1.164417	0.224141
H126	H	0.241854	1.664417	0.724141
C127	C	-0.605565	0.895451	-0.045127
C128	C	-0.105565	1.395451	0.454873
N129	N	-0.647204	0.850098	-0.090515
N130	N	-0.147204	1.350098	0.409485
H131	H	-0.591234	1.219187	0.278870
H132	H	-0.091234	1.719187	0.778870
H133	H	-0.000044	1.772178	0.277998
H134	H	0.499956	2.272178	0.777998
C135	C	0.269767	1.067047	-0.276571
C136	C	0.769767	1.567047	0.223429
N137	N	0.341873	1.067803	-0.237612
N138	N	0.841873	1.567803	0.262388
C139	C	-0.394517	0.895414	-0.045109
C140	C	0.105483	1.395414	0.454891
N141	N	-0.352886	0.850045	-0.090489
N142	N	0.147114	1.350045	0.409511
C143	C	0.269762	1.063279	-0.474066
C144	C	0.769762	1.563279	0.025934
N145	N	0.341870	1.062538	-0.513040
N146	N	0.841870	1.562538	-0.013040
H147	H	-0.157948	1.069394	-0.148906
H148	H	0.342052	1.569394	0.351094
C149	C	-0.269869	1.066967	-0.276516
C150	C	0.230131	1.566967	0.223484
N151	N	-0.341986	1.067704	-0.237557
N152	N	0.158014	1.567704	0.262443
C153	C	-0.000059	1.499394	-0.131741
C154	C	0.499941	1.999394	0.368259
N155	N	-0.000077	1.469264	-0.200524
N156	N	0.499923	1.969264	0.299476
C157	C	-0.182816	1.060522	-0.615058
C158	C	0.317184	1.560522	-0.115058
N159	N	-0.254926	1.059763	-0.654009
N160	N	0.245074	1.559763	-0.154009
H161	H	-0.000057	1.319452	0.269397
H162	H	0.499943	1.819452	0.769397
C163	C	-0.394526	1.234818	0.294548
C164	C	0.105474	1.734818	0.794548
N165	N	-0.352883	1.280170	0.339933
N166	N	0.147117	1.780170	0.839933
C167	C	-0.756317	0.950206	0.009636
C168	C	-0.256317	1.450206	0.509636
N169	N	-0.797953	0.904853	-0.035753
N170	N	-0.297953	1.404853	0.464247
C171	C	0.182728	1.060583	-0.615111
C172	C	0.682728	1.560583	-0.115111
N173	N	0.254841	1.059851	-0.654078
N174	N	0.754841	1.559851	-0.154078
C175	C	-0.269851	1.063189	-0.473991
C176	C	0.230149	1.563189	0.026009
N177	N	-0.341960	1.062424	-0.512944
N178	N	0.158040	1.562424	-0.012944
H179	H	-0.258130	0.965794	0.025351
H180	H	0.241870	1.465794	0.525351
C181	C	-0.756340	1.180112	0.239719
C182	C	-0.256340	1.680112	0.739719
N183	N	-0.797978	1.225471	0.285104
N184	N	-0.297978	1.725471	0.785104
H185	H	-0.000036	1.680391	-0.104754
H186	H	0.499964	2.180391	0.395246
C187	C	-0.000051	1.433370	0.377402
C188	C	0.499949	1.933370	0.877402
N189	N	-0.000052	1.385581	0.444692
N190	N	0.499948	1.885581	0.944692
H191	H	-0.000047	1.358081	-0.028573
H192	H	0.499953	1.858081	0.471427
H193	H	-0.000048	1.620473	0.357432
H194	H	0.499952	2.120473	0.857432
C195	C	-0.000046	1.827278	-0.043166
C196	C	0.499954	2.327278	0.456834
N197	N	-0.000055	1.875060	-0.110460
N198	N	0.499945	2.375060	0.389540
H199	H	0.157867	1.069460	-0.148950
H200	H	0.657867	1.569460	0.351050
