data_functionalizedCrystal
_audit_creation_method	'MofGen! by Chris Wilmer'
_symmetry_space_group_name_H-M	'P1'
_symmetry_Int_Tables_number	1
_symmetry_cell_setting	triclinic
loop_
_symmetry_equiv_pos_as_xyz
  x,y,z
_cell_length_a	12.594509
_cell_length_b	19.805407
_cell_length_c	19.805405
_cell_angle_alpha	89.974974
_cell_angle_beta	89.965297
_cell_angle_gamma	90.028465
loop_
_atom_site_label
_atom_site_type_symbol
_atom_site_fract_x
_atom_site_fract_y
_atom_site_fract_z
Zn1	Zn	-0.602015	-1.034752	-0.269468
Zn2	Zn	-0.424016	-1.034662	-0.382667
Zn3	Zn	-0.424022	-0.921562	-0.269494
Zn4	Zn	-0.601924	-0.921530	-0.382617
O5	O	-0.512994	-0.978126	-0.326062
O6	O	-0.578439	-1.129456	-0.284493
O7	O	-0.275071	-1.019634	-0.367686
O8	O	-0.447673	-0.936627	-0.174774
O9	O	-0.447664	-1.129390	-0.367660
O10	O	-0.578444	-1.019788	-0.174755
O11	O	-0.275075	-0.936540	-0.284539
O12	O	-0.447585	-0.826841	-0.284491
O13	O	-0.750882	-0.936573	-0.367576
O14	O	-0.578289	-0.826817	-0.367602
O15	O	-0.750949	-1.019757	-0.284445
O16	O	-0.447576	-1.019604	-0.477377
O17	O	-0.578284	-0.936486	-0.477341
C18	C	-0.512928	-0.802270	-0.326044
C19	C	-0.512925	-0.727038	-0.326053
C20	C	-0.580976	-0.265253	-0.369411
C21	C	-0.580958	-0.335941	-0.369411
C22	C	-0.513005	-0.371276	-0.326071
C23	C	-0.445058	-0.335920	-0.282734
C24	C	-0.445073	-0.265233	-0.282738
C25	C	-0.444998	-0.620993	-0.282717
C26	C	-0.444991	-0.691685	-0.282714
C27	C	-0.580883	-0.691702	-0.369389
C28	C	-0.580897	-0.621014	-0.369393
C29	C	-0.512948	-0.585664	-0.326059
C30	C	-0.512968	-0.509015	-0.326061
C31	C	-0.512989	-0.447924	-0.326065
C32	C	-0.790615	-0.978172	-0.326002
C33	C	-0.908921	-0.978191	-0.325977
C34	C	-0.978138	-0.932962	-0.371166
C35	C	-1.048937	-0.994719	-0.387705
C36	C	-1.048920	-0.916482	-0.309397
C37	C	-0.978162	-1.039980	-0.342549
C38	C	-0.978139	-0.961702	-0.264212
C39	C	-1.048907	-1.023502	-0.280727
C40	C	-0.236453	-0.978120	-0.326072
C41	C	-0.118148	-0.978232	-0.325906
C42	C	-0.512943	-0.978050	-0.501918
C43	C	-0.512956	-0.978079	-0.577150
C44	C	-0.513048	-0.154669	-0.326077
C45	C	-0.513038	-0.229901	-0.326076
C46	C	-0.444968	-1.021401	-0.612490
C47	C	-0.444991	-1.021430	-0.683179
C48	C	-0.512999	-0.978133	-0.718525
C49	C	-0.580995	-0.934810	-0.683180
C50	C	-0.580976	-0.934785	-0.612492
C51	C	-0.581074	-0.934910	-0.968253
C52	C	-0.581085	-0.934936	-1.038945
C53	C	-0.445089	-1.021554	-1.038939
C54	C	-0.445070	-1.021529	-0.968252
C55	C	-0.513070	-0.978209	-0.932912
C56	C	-0.513045	-0.978179	-0.856264
C57	C	-0.513019	-0.978159	-0.795172
C58	C	-0.513069	-0.978221	-0.149519
C59	C	-0.513101	-0.978262	-0.074287
H60	H	-0.636278	-0.364722	-0.404700
Cl61	Cl	-1.096910	-0.835885	-0.287790
H62	H	-0.389753	-0.236450	-0.247449
H63	H	-0.636235	-0.592248	-0.404682
Cl64	Cl	-1.096954	-1.016287	-0.468302
H65	H	-0.947211	-1.092199	-0.356602
H66	H	-0.389584	-1.056655	-0.583716
H67	H	-1.079783	-1.061812	-0.242482
Cl68	Cl	-0.359572	-1.075962	-0.923820
H69	H	-0.389627	-1.056706	-0.711950
H70	H	-0.389725	-1.056830	-1.067721
Cl71	Cl	-0.930158	-0.873954	-0.430255
H72	H	-0.947017	-0.947715	-0.212023
H73	H	-0.636439	-0.899635	-0.939485
H74	H	-0.636473	-0.899680	-1.067722
Cl75	Cl	-0.666497	-0.880383	-0.727615
H76	H	-0.389654	-0.720453	-0.247419
H77	H	-0.389725	-0.364695	-0.247449
Cl78	Cl	-0.359587	-0.576561	-0.228232
H79	H	-0.636318	-0.236488	-0.404699
Cl80	Cl	-0.666300	-0.736147	-0.423872
Cl81	Cl	-0.666454	-0.880324	-0.568064
