data_functionalizedCrystal
_audit_creation_method	'MofGen! by Chris Wilmer'
_symmetry_space_group_name_H-M	'P1'
_symmetry_Int_Tables_number	1
_symmetry_cell_setting	triclinic
loop_
_symmetry_equiv_pos_as_xyz
  x,y,z
_cell_length_a	10.967926
_cell_length_b	14.044190
_cell_length_c	9.482900
_cell_angle_alpha	100.185237
_cell_angle_beta	92.549900
_cell_angle_gamma	88.857419
loop_
_atom_site_label
_atom_site_type_symbol
_atom_site_fract_x
_atom_site_fract_y
_atom_site_fract_z
O1	O	1.628190	0.167989	0.286996
O2	O	1.279200	0.170075	0.199560
O3	O	1.448449	0.030855	0.241992
O4	O	1.458942	0.307209	0.244564
O5	O	1.414083	0.059253	0.475169
O6	O	1.244835	0.198473	0.432737
O7	O	1.593825	0.196386	0.520173
Cu8	Cu	1.416192	0.200023	0.497746
Cu9	Cu	1.456833	0.166439	0.221987
O10	O	1.424577	0.335606	0.477741
C11	C	1.217085	0.181977	0.304891
C12	C	1.083197	0.175119	0.271348
C13	C	1.005703	0.186773	0.377186
C14	C	0.867323	0.179685	0.342520
C15	C	1.426678	0.009569	0.357435
C16	C	1.412994	-0.096165	0.354020
C17	C	1.485028	-0.343775	0.372010
C18	C	1.388005	-0.289759	0.347712
C19	C	1.401912	-0.182033	0.351222
C20	C	1.471122	-0.451511	0.368500
C21	C	1.655941	0.184485	0.414839
C22	C	1.789830	0.191341	0.448373
C23	C	1.446348	0.356892	0.362295
C24	C	1.460033	0.462625	0.365701
N25	N	1.387616	0.223643	0.691702
N26	N	1.485418	0.142811	0.028034
C27	C	1.448396	0.173401	0.779139
C28	C	1.424630	0.193061	0.940598
H29	H	0.825924	0.206563	0.564657
H30	H	1.354990	0.250631	0.985263
H31	H	1.578528	-0.309116	0.395451
H32	H	1.518022	0.115827	0.734467
H33	H	1.555048	0.085234	0.983366
H34	H	1.294496	-0.324419	0.324276
H35	H	1.317981	0.281210	0.736373
H36	H	1.041805	0.201991	0.493461
C37	C	1.034992	0.155018	0.116325
C38	C	0.959076	0.231756	0.089689
C39	C	0.914665	0.213279	-0.053109
H40	H	0.989843	0.096794	0.099481
H41	H	1.101520	0.148671	0.054367
H42	H	0.892559	0.238092	0.151629
H43	H	1.004198	0.289989	0.106502
H44	H	0.981192	0.206932	-0.115068
H45	H	0.869521	0.155053	-0.069941
H46	H	0.863160	0.265346	-0.071204
C47	C	0.819124	0.159584	0.187489
C48	C	0.743208	0.236322	0.160853
C49	C	0.698797	0.217845	0.018055
H50	H	0.773975	0.101360	0.170645
H51	H	0.885652	0.153236	0.125531
H52	H	0.676690	0.242658	0.222793
H53	H	0.788330	0.294554	0.177666
H54	H	0.765324	0.211498	-0.043904
H55	H	0.653653	0.159619	0.001223
H56	H	0.647292	0.269912	-0.000040
