data_functionalizedCrystal
_audit_creation_method	'MofGen! by Chris Wilmer'
_symmetry_space_group_name_H-M	'P1'
_symmetry_Int_Tables_number	1
_symmetry_cell_setting	triclinic
loop_
_symmetry_equiv_pos_as_xyz
  x,y,z
_cell_length_a	23.532407
_cell_length_b	23.532407
_cell_length_c	9.016244
_cell_angle_alpha	89.993097
_cell_angle_beta	89.995357
_cell_angle_gamma	82.848712
loop_
_atom_site_label
_atom_site_type_symbol
_atom_site_fract_x
_atom_site_fract_y
_atom_site_fract_z
O1	O	0.755262	0.069133	-0.123262
O2	O	1.088595	0.402466	0.210072
O3	O	1.421929	0.735800	0.543405
O4	O	0.589399	0.079136	-0.123287
O5	O	0.922732	0.412469	0.210046
O6	O	1.256065	0.745803	0.543379
O7	O	0.677332	-0.008797	-0.123246
O8	O	1.010665	0.324536	0.210087
O9	O	1.343999	0.657869	0.543420
O10	O	0.667329	0.157066	-0.123302
O11	O	1.000662	0.490399	0.210031
O12	O	1.333995	0.823733	0.543364
O13	O	0.677319	-0.008795	0.123434
O14	O	1.010653	0.324538	0.456768
O15	O	1.343986	0.657872	0.790101
O16	O	0.589386	0.079138	0.123394
O17	O	0.922719	0.412471	0.456727
O18	O	1.256053	0.745805	0.790060
O19	O	0.755249	0.069135	0.123419
O20	O	1.088583	0.402468	0.456752
O21	O	1.421916	0.735802	0.790086
Cu22	Cu	0.672316	0.074137	0.145930
Cu23	Cu	1.005650	0.407470	0.479264
Cu24	Cu	1.338983	0.740803	0.812597
Cu25	Cu	0.672332	0.074134	-0.145798
Cu26	Cu	1.005665	0.407468	0.187535
Cu27	Cu	1.338998	0.740801	0.520868
O28	O	0.667316	0.157068	0.123378
O29	O	1.000649	0.490402	0.456712
O30	O	1.333983	0.823735	0.790045
C31	C	0.568176	0.078882	0.000050
C32	C	0.901510	0.412216	0.333384
C33	C	1.234843	0.745549	0.666717
C34	C	0.504959	0.078116	0.000042
C35	C	0.838293	0.411450	0.333375
C36	C	1.171626	0.744783	0.666708
C37	C	0.677071	-0.030012	0.000098
C38	C	1.010404	0.303321	0.333431
C39	C	1.343738	0.636654	0.666764
C40	C	0.676305	-0.093229	0.000109
C41	C	1.009638	0.240104	0.333442
C42	C	1.342972	0.573437	0.666776
C43	C	0.238792	0.022921	0.000101
C44	C	0.572125	0.356254	0.333434
C45	C	0.905458	0.689588	0.666767
C46	C	0.298192	0.023632	0.000100
C47	C	0.631525	0.356966	0.333433
C48	C	0.964859	0.690299	0.666767
O49	O	0.334937	-0.020153	0.000166
O50	O	0.668270	0.313180	0.333500
O51	O	1.001603	0.646513	0.666833
N52	N	0.320818	0.075909	0.000072
N53	N	0.654152	0.409242	0.333406
N54	N	0.987485	0.742575	0.666739
C55	C	0.284041	0.127477	0.000060
C56	C	0.617374	0.460810	0.333394
C57	C	0.950707	0.794144	0.666727
O58	O	0.308740	0.172007	0.000038
O59	O	0.642074	0.505341	0.333371
O60	O	0.975407	0.838674	0.666705
C61	C	0.224642	0.126765	0.000072
C62	C	0.557975	0.460098	0.333405
C63	C	0.891308	0.793432	0.666738
C64	C	0.202019	0.074485	0.000084
C65	C	0.535352	0.407819	0.333418
C66	C	0.868686	0.741152	0.666751
C67	C	0.216168	-0.029354	0.000115
C68	C	0.549502	0.303979	0.333448
C69	C	0.882835	0.637312	0.666782
C70	C	0.156772	-0.030066	0.000113
C71	C	0.490106	0.303268	0.333446
C72	C	0.823439	0.636601	0.666780
C73	C	0.119999	0.021499	0.000096
C74	C	0.453333	0.354832	0.333430
C75	C	0.786666	0.688165	0.666763
C76	C	0.142623	0.073774	0.000082
C77	C	0.475956	0.407107	0.333415
C78	C	0.809289	0.740441	0.666749
C79	C	0.187865	0.178333	0.000070
C80	C	0.521199	0.511666	0.333404
C81	C	0.854532	0.844999	0.666737
C82	C	0.128463	0.177616	0.000083
C83	C	0.461796	0.510949	0.333416
C84	C	0.795129	0.844283	0.666749
C85	C	0.105840	0.125336	0.000095
C86	C	0.439173	0.458670	0.333429
C87	C	0.772507	0.792003	0.666762
C88	C	0.046454	0.124627	0.000064
C89	C	0.379787	0.457960	0.333397
C90	C	0.713120	0.791294	0.666730
N91	N	0.023828	0.072351	0.000091
N92	N	0.357161	0.405684	0.333425
N93	N	0.690494	0.739017	0.666758
C94	C	0.060600	0.020787	0.000108
C95	C	0.393934	0.354120	0.333441
C96	C	0.727267	0.687453	0.666774
C97	C	0.408783	0.128968	0.000039
C98	C	0.742117	0.462302	0.333373
C99	C	1.075450	0.795635	0.666706
C100	C	0.468181	0.129681	0.000017
C101	C	0.801514	0.463014	0.333351
C102	C	1.134848	0.796348	0.666684
C103	C	0.482328	0.025836	0.000060
C104	C	0.815662	0.359170	0.333393
C105	C	1.148995	0.692503	0.666727
C106	C	0.422929	0.025124	0.000071
C107	C	0.756263	0.358457	0.333405
C108	C	1.089596	0.691791	0.666738
C109	C	0.386157	0.076692	0.000067
C110	C	0.719490	0.410025	0.333400
C111	C	1.052824	0.743359	0.666734
C112	C	-0.064136	0.019297	0.000102
C113	C	0.269197	0.352630	0.333435
C114	C	0.602530	0.685964	0.666769
C115	C	-0.123538	0.018590	0.000094
C116	C	0.209795	0.351924	0.333427
C117	C	0.543128	0.685257	0.666760
C118	C	-0.137680	0.122435	0.000059
C119	C	0.195653	0.455768	0.333392
C120	C	0.528986	0.789101	0.666726
C121	C	-0.078284	0.123142	0.000059
C122	C	0.255050	0.456475	0.333393
C123	C	0.588383	0.789808	0.666726
C124	C	-0.041512	0.071568	0.000086
C125	C	0.291821	0.404901	0.333419
C126	C	0.625154	0.738235	0.666753
O127	O	0.009675	0.168390	0.000003
O128	O	0.343008	0.501723	0.333337
O129	O	0.676341	0.835057	0.666670
O130	O	0.035892	-0.023737	0.000149
O131	O	0.369226	0.309597	0.333483
O132	O	0.702559	0.642930	0.666816
C133	C	0.723538	-0.492332	0.000035
C134	C	1.056872	-0.158999	0.333368
C135	C	1.390205	0.174334	0.666702
C136	C	0.722827	-0.551733	0.000024
C137	C	1.056160	-0.218399	0.333357
C138	C	1.389494	0.114934	0.666690
O139	O	0.766613	-0.588477	-0.000024
O140	O	1.099946	-0.255144	0.333309
O141	O	1.433280	0.078190	0.666642
N142	N	0.670551	-0.574359	0.000017
N143	N	1.003884	-0.241025	0.333350
N144	N	1.337217	0.092308	0.666683
C145	C	0.618982	-0.537581	0.000006
C146	C	0.952316	-0.204248	0.333339
C147	C	1.285649	0.129085	0.666673
O148	O	0.574452	-0.562281	-0.000003
O149	O	0.907785	-0.228948	0.333331
O150	O	1.241119	0.104386	0.666664
C151	C	0.619695	-0.478182	0.000007
C152	C	0.953028	-0.144849	0.333340
C153	C	1.286361	0.188485	0.666673
C154	C	0.671974	-0.455559	0.000029
C155	C	1.005308	-0.122226	0.333362
C156	C	1.338641	0.211107	0.666695
C157	C	0.775814	-0.469709	0.000055
C158	C	1.109147	-0.136376	0.333389
C159	C	1.442481	0.196958	0.666722
C160	C	0.776525	-0.410313	0.000069
C161	C	1.109858	-0.076980	0.333403
C162	C	1.443192	0.256354	0.666736
C163	C	0.724961	-0.373540	0.000063
C164	C	1.058294	-0.040207	0.333397
C165	C	1.391628	0.293127	0.666730
C166	C	0.672685	-0.396163	0.000043
C167	C	1.006019	-0.062830	0.333376
C168	C	1.339352	0.270503	0.666709
C169	C	0.568127	-0.441406	-0.000015
C170	C	0.901460	-0.108072	0.333319
C171	C	1.234794	0.225261	0.666652
C172	C	0.568843	-0.382003	-0.000015
C173	C	0.902177	-0.048670	0.333318
C174	C	1.235510	0.284663	0.666652
C175	C	0.621123	-0.359381	0.000007
C176	C	0.954457	-0.026047	0.333340
C177	C	1.287790	0.307286	0.666674
C178	C	0.621832	-0.299994	0.000051
C179	C	0.955166	0.033339	0.333384
C180	C	1.288499	0.366672	0.666717
N181	N	0.674109	-0.277368	0.000058
N182	N	1.007442	0.055965	0.333391
N183	N	1.340775	0.389299	0.666724
C184	C	0.725673	-0.314141	0.000064
C185	C	1.059006	0.019192	0.333397
C186	C	1.392340	0.352526	0.666731
C187	C	0.617491	-0.662324	0.000002
C188	C	0.950824	-0.328990	0.333335
C189	C	1.284158	0.004343	0.666668
C190	C	0.616778	-0.721722	0.000012
C191	C	0.950112	-0.388388	0.333345
C192	C	1.283445	-0.055055	0.666678
C193	C	0.720623	-0.735869	0.000026
C194	C	1.053957	-0.402536	0.333360
C195	C	1.387290	-0.069202	0.666693
C196	C	0.721335	-0.676470	0.000027
C197	C	1.054669	-0.343137	0.333361
C198	C	1.388002	-0.009803	0.666694
C199	C	0.669767	-0.639698	0.000009
C200	C	1.003101	-0.306364	0.333342
C201	C	1.336434	0.026969	0.666675
C202	C	0.727163	-0.189404	0.000095
C203	C	1.060496	0.143929	0.333428
C204	C	1.393829	0.477262	0.666762
C205	C	0.727869	-0.130002	0.000115
C206	C	1.061203	0.203331	0.333449
C207	C	1.394536	0.536664	0.666782
C208	C	0.624025	-0.115860	0.000092
C209	C	0.957358	0.217473	0.333426
C210	C	1.290691	0.550807	0.666759
C211	C	0.623318	-0.175257	0.000080
C212	C	0.956651	0.158076	0.333413
C213	C	1.289984	0.491410	0.666747
C214	C	0.674891	-0.212028	0.000076
C215	C	1.008225	0.121305	0.333410
C216	C	1.341558	0.454639	0.666743
O217	O	0.578069	-0.263215	0.000093
O218	O	0.911403	0.070118	0.333426
O219	O	1.244736	0.403452	0.666759
O220	O	0.770196	-0.289433	0.000053
O221	O	1.103529	0.043900	0.333386
O222	O	1.436863	0.377234	0.666719
C223	C	0.776472	0.069389	0.000078
C224	C	1.109805	0.402722	0.333412
C225	C	1.443138	0.736055	0.666745
C226	C	0.839689	0.070155	0.000077
C227	C	1.173022	0.403488	0.333411
C228	C	1.506355	0.736821	0.666744
C229	C	0.667577	0.178283	0.000031
C230	C	1.000910	0.511617	0.333364
C231	C	1.334244	0.844950	0.666698
C232	C	0.668343	0.241500	0.000010
C233	C	1.001676	0.574834	0.333343
C234	C	1.335010	0.908167	0.666677
N235	N	0.672310	0.074138	0.351116
N236	N	1.005643	0.407471	0.684450
N237	N	1.338977	0.740805	1.017783
N238	N	0.672343	0.074128	-0.350984
N239	N	1.005676	0.407462	-0.017651
N240	N	1.339009	0.740795	0.315682
C241	C	0.625131	0.121023	0.586127
C242	C	0.958465	0.454356	0.919461
C243	C	1.291798	0.787690	1.252794
C244	C	0.625232	0.121195	0.414236
C245	C	0.958565	0.454528	0.747569
C246	C	1.291898	0.787861	1.080903
C247	C	0.731662	0.086782	0.413459
C248	C	1.064996	0.420115	0.746792
C249	C	1.398329	0.753449	1.080125
C250	C	0.731404	0.087113	0.585403
C251	C	1.064737	0.420446	0.918737
C252	C	1.398070	0.753780	1.252070
C253	C	0.660730	0.014449	0.585678
C254	C	0.994063	0.347782	0.919011
C255	C	1.327396	0.681116	1.252345
C256	C	0.659357	0.014857	0.413724
C257	C	0.992691	0.348190	0.747057
C258	C	1.326024	0.681524	1.080390
H259	H	-0.141954	-0.023984	0.000100
H260	H	0.191379	0.309349	0.333433
H261	H	0.524713	0.642683	0.666767
H262	H	0.618411	0.002207	0.629124
H263	H	0.951745	0.335540	0.962457
H264	H	1.285078	0.668873	1.295791
H265	H	0.632609	0.165490	0.373076
H266	H	0.965943	0.498823	0.706409
H267	H	1.299276	0.832156	1.039743
H268	H	0.098525	0.219610	0.000086
H269	H	0.431858	0.552943	0.333419
H270	H	0.765191	0.886277	0.666753
H271	H	0.525555	-0.459814	-0.000042
H272	H	0.858889	-0.126481	0.333292
H273	H	1.192222	0.206853	0.666625
H274	H	-0.059864	0.165712	0.000047
H275	H	0.273470	0.499045	0.333381
H276	H	0.606803	0.832379	0.666714
H277	H	0.770443	-0.111587	0.000137
H278	H	1.103777	0.221747	0.333470
H279	H	1.437110	0.555080	0.666804
H280	H	0.695162	-0.020445	0.626346
H281	H	1.028496	0.312889	0.959680
H282	H	1.361829	0.646222	1.293013
H283	H	0.769159	-0.219337	0.000086
H284	H	1.102492	0.113996	0.333419
H285	H	1.435825	0.447330	0.666753
H286	H	0.819097	-0.391900	0.000081
H287	H	1.152430	-0.058566	0.333415
H288	H	1.485763	0.274767	0.666748
H289	H	0.138359	-0.072637	0.000129
H290	H	0.471692	0.260696	0.333463
H291	H	0.805026	0.594030	0.666796
H292	H	-0.167631	0.164417	0.000038
H293	H	0.165702	0.497750	0.333372
H294	H	0.499035	0.831084	0.666705
H295	H	0.763906	-0.658055	0.000044
H296	H	1.097239	-0.324722	0.333377
H297	H	1.430573	0.008612	0.666711
H298	H	0.404515	-0.017447	0.000083
H299	H	0.737848	0.315887	0.333416
H300	H	1.071181	0.649220	0.666749
H301	H	0.817806	-0.499644	0.000055
H302	H	1.151140	-0.166311	0.333388
H303	H	1.484473	0.167022	0.666722
H304	H	0.512280	-0.016150	0.000074
H305	H	0.845613	0.317183	0.333407
H306	H	1.178947	0.650516	0.666740
H307	H	0.762610	-0.765821	0.000026
H308	H	1.095943	-0.432487	0.333359
H309	H	1.429276	-0.099154	0.666693
H310	H	0.574207	-0.740135	0.000019
H311	H	0.907540	-0.406802	0.333353
H312	H	1.240874	-0.073469	0.666686
H313	H	0.486595	0.172252	-0.000014
H314	H	0.819928	0.505586	0.333320
H315	H	1.153261	0.838919	0.666653
H316	H	0.767614	0.054286	0.627001
H317	H	1.100947	0.387619	0.960335
H318	H	1.434281	0.720953	1.293668
H319	H	0.575496	-0.632386	-0.000001
H320	H	0.908829	-0.299053	0.333333
H321	H	1.242162	0.034281	0.666666
H322	H	0.767616	0.053522	0.372570
H323	H	1.100949	0.386855	0.705903
H324	H	1.434282	0.720189	1.039237
H325	H	-0.034204	-0.022699	0.000123
H326	H	0.299130	0.310634	0.333456
H327	H	0.632463	0.643967	0.666790
H328	H	0.378846	0.170964	0.000025
H329	H	0.712179	0.504297	0.333358
H330	H	1.045512	0.837630	0.666692
H331	H	0.526850	-0.352065	-0.000032
H332	H	0.860183	-0.018732	0.333301
H333	H	1.193516	0.314601	0.666634
H334	H	0.580747	-0.193677	0.000103
H335	H	0.914081	0.139656	0.333437
H336	H	1.247414	0.472990	0.666770
H337	H	0.742198	0.129798	0.370368
H338	H	1.075532	0.463132	0.703701
H339	H	1.408865	0.796465	1.037035
H340	H	0.582043	-0.085909	0.000093
H341	H	0.915376	0.247424	0.333426
H342	H	1.248709	0.580758	0.666759
H343	H	0.246104	-0.071347	0.000133
H344	H	0.579437	0.261987	0.333466
H345	H	0.912771	0.595320	0.666800
H346	H	0.632408	0.165068	0.629307
H347	H	0.965742	0.498401	0.962640
H348	H	1.299075	0.831735	1.295974
H349	H	0.615699	0.005254	0.372979
H350	H	0.949032	0.338587	0.706312
H351	H	1.282366	0.671920	1.039645
H352	H	0.581103	0.113711	0.372088
H353	H	0.914437	0.447044	0.705422
H354	H	1.247770	0.780377	1.038755
H355	H	0.580863	0.113666	0.627517
H356	H	0.914196	0.447000	0.960850
H357	H	1.247529	0.780333	1.294184
H358	H	0.206274	0.220904	0.000053
H359	H	0.539607	0.554238	0.333387
H360	H	0.872940	0.887571	0.666720
H361	H	0.691533	-0.021648	0.370764
H362	H	1.024866	0.311685	0.704097
H363	H	1.358199	0.645019	1.037431
H364	H	0.741688	0.130627	0.625479
H365	H	1.075022	0.463960	0.958813
H366	H	1.408355	0.797293	1.292146
