data_functionalizedCrystal
_audit_creation_method	'MofGen! by Chris Wilmer'
_symmetry_space_group_name_H-M	'P1'
_symmetry_Int_Tables_number	1
_symmetry_cell_setting	triclinic
loop_
_symmetry_equiv_pos_as_xyz
  x,y,z
_cell_length_a	11.026607
_cell_length_b	11.026607
_cell_length_c	9.482899
_cell_angle_alpha	101.395157
_cell_angle_beta	101.373676
_cell_angle_gamma	71.413983
loop_
_atom_site_label
_atom_site_type_symbol
_atom_site_fract_x
_atom_site_fract_y
_atom_site_fract_z
O1	O	1.711196	-0.549203	-0.120862
O2	O	2.211196	-0.049203	0.379138
O3	O	1.344615	-0.488441	-0.120871
O4	O	1.844615	0.011559	0.379129
O5	O	1.497524	-0.335531	-0.120862
O6	O	1.997524	0.164469	0.379138
O7	O	1.558287	-0.702112	-0.120871
O8	O	2.058287	-0.202112	0.379129
O9	O	1.528590	-0.304353	0.120933
O10	O	2.028590	0.195647	0.620933
O11	O	1.375681	-0.457263	0.120924
O12	O	1.875681	0.042737	0.620924
O13	O	1.742262	-0.518025	0.120933
O14	O	2.242262	-0.018025	0.620933
Cu15	Cu	1.561808	-0.484797	0.143006
Cu16	Cu	2.061808	0.015203	0.643006
Cu17	Cu	1.525069	-0.521669	-0.142944
Cu18	Cu	2.025069	-0.021669	0.357056
O19	O	1.589352	-0.670935	0.120924
O20	O	2.089352	-0.170935	0.620924
C21	C	1.312488	-0.461642	0.000025
C22	C	1.812488	0.038358	0.500025
C23	C	1.170474	-0.428226	0.000022
C24	C	1.670474	0.071774	0.500022
N25	N	1.499228	-0.547593	-0.344066
N26	N	1.999228	-0.047593	0.155934
C27	C	1.501847	-0.272283	0.000033
C28	C	2.001847	0.227717	0.500033
C29	C	1.468429	-0.130270	0.000027
C30	C	1.968429	0.369730	0.500027
C31	C	1.774388	-0.544824	0.000033
C32	C	2.274388	-0.044824	0.500033
C33	C	1.916401	-0.578242	0.000027
C34	C	2.416401	-0.078242	0.500027
C35	C	1.970051	-0.485972	0.000028
C36	C	2.470051	0.014028	0.500028
C37	C	2.116829	-0.520509	0.000021
C38	C	2.616829	-0.020509	0.500021
C39	C	1.585029	-0.734183	0.000025
C40	C	2.085029	-0.234183	0.500025
C41	C	1.618446	-0.876198	0.000022
C42	C	2.118446	-0.376198	0.500022
C43	C	1.560699	-0.076620	0.000028
C44	C	2.060699	0.423380	0.500028
C45	C	1.526162	0.070157	0.000021
C46	C	2.026162	0.570157	0.500021
C47	C	1.532690	-0.514004	-0.583677
C48	C	2.032690	-0.014004	-0.083677
C49	C	1.554202	-0.492446	-0.416258
C50	C	2.054202	0.007554	0.083742
N51	N	1.587657	-0.458865	0.344127
N52	N	2.087657	0.041135	0.844127
H53	H	1.907321	-0.381406	0.000055
H54	H	2.407321	0.118594	0.500055
Br55	Br	1.734983	-0.181169	0.000017
Br56	Br	2.234983	0.318831	0.500017
Br57	Br	2.020949	-0.752526	0.000037
Br58	Br	2.520949	-0.252526	0.500037
H59	H	1.421591	0.132885	0.000009
H60	H	1.921591	0.632885	0.500009
H61	H	1.723002	0.061061	-0.000085
H62	H	2.223002	0.561061	0.499915
Br63	Br	1.294141	-0.025726	0.000002
Br64	Br	1.794141	0.474274	0.500002
H65	H	1.469710	-0.577176	-0.645809
H66	H	1.969710	-0.077176	-0.145809
H67	H	1.617197	-0.429281	-0.354130
H68	H	2.117197	0.070719	0.145870
Br69	Br	2.065938	-0.253929	0.000048
Br70	Br	2.565938	0.246071	0.500048
H71	H	1.436244	-0.610769	-0.406194
H72	H	1.936244	-0.110769	0.093806
Br73	Br	1.692652	-0.353592	-0.552325
Br74	Br	2.192652	0.146408	-0.052325
H75	H	2.179558	-0.625078	0.000025
H76	H	2.679558	-0.125078	0.500025
