data_functionalizedCrystal
_audit_creation_method	'MofGen! by Chris Wilmer'
_symmetry_space_group_name_H-M	'P1'
_symmetry_Int_Tables_number	1
_symmetry_cell_setting	triclinic
loop_
_symmetry_equiv_pos_as_xyz
  x,y,z
_cell_length_a	8.559649
_cell_length_b	12.996460
_cell_length_c	8.597304
_cell_angle_alpha	97.700122
_cell_angle_beta	77.624695
_cell_angle_gamma	90.005408
loop_
_atom_site_label
_atom_site_type_symbol
_atom_site_fract_x
_atom_site_fract_y
_atom_site_fract_z
O1	O	2.119302	0.080838	-0.053153
O2	O	1.655363	0.088015	0.027746
O3	O	1.896461	0.064073	-0.242269
O4	O	1.878205	0.104780	0.216861
O5	O	1.896429	-0.107060	-0.242251
O6	O	1.655332	-0.083118	0.027764
O7	O	2.119271	-0.090294	-0.053136
Cu8	Cu	1.887298	-0.102332	-0.012684
Cu9	Cu	1.887336	0.100052	-0.012705
O10	O	1.878173	-0.066352	0.216879
C11	C	1.595913	0.002993	0.033886
C12	C	1.418819	0.004612	0.052135
N13	N	1.887284	-0.244678	-0.012672
C14	C	1.887291	-0.337783	-0.012669
C15	C	1.887306	-0.454589	-0.012681
C16	C	1.887326	-0.547689	-0.012701
C17	C	1.887343	-0.664503	-0.012712
C18	C	2.178721	-0.005270	-0.059275
C19	C	2.355816	-0.006882	-0.077524
C20	C	1.894483	-0.026655	-0.300494
C21	C	1.888619	-0.042032	-0.474013
N22	N	1.887362	0.242397	-0.012732
C23	C	1.880151	0.024377	0.275105
C24	C	1.886015	0.039762	0.448623
H25	H	1.337266	0.015698	0.177111
Br26	Br	1.889774	0.176105	-0.440524
Br27	Br	1.884822	-0.178381	-0.584861
H28	H	1.437359	-0.017957	-0.202492
