data_functionalizedCrystal
_audit_creation_method	'MofGen! by Chris Wilmer'
_symmetry_space_group_name_H-M	'P1'
_symmetry_Int_Tables_number	1
_symmetry_cell_setting	triclinic
loop_
_symmetry_equiv_pos_as_xyz
  x,y,z
_cell_length_a	17.699083
_cell_length_b	15.538191
_cell_length_c	16.776229
_cell_angle_alpha	89.995703
_cell_angle_beta	89.998886
_cell_angle_gamma	65.277554
loop_
_atom_site_label
_atom_site_type_symbol
_atom_site_fract_x
_atom_site_fract_y
_atom_site_fract_z
O1	O	0.971508	0.119201	-0.066172
O2	O	0.746892	0.134709	-0.066198
O3	O	0.902923	-0.010275	-0.066184
O4	O	0.815476	0.264184	-0.066186
O5	O	0.902910	-0.010283	0.066393
O6	O	0.746879	0.134700	0.066379
O7	O	0.971495	0.119192	0.066404
Zn8	Zn	0.859185	0.126945	0.087441
Zn9	Zn	0.859202	0.126956	-0.087235
O10	O	0.815463	0.264176	0.066390
C11	C	0.718840	0.134149	0.000087
C12	C	0.635277	0.132482	0.000077
C13	C	0.912066	-0.045395	0.000103
C14	C	0.939318	-0.150032	0.000098
C15	C	0.563403	0.217584	0.000077
C16	C	0.484889	0.216012	0.000087
C17	C	0.478252	0.129337	0.000092
C18	C	0.550134	0.044228	0.000095
C19	C	0.628646	0.045801	0.000090
C20	C	0.233505	0.037882	0.000115
C21	C	0.154985	0.036316	0.000117
C22	C	0.089748	0.208094	0.000111
C23	C	0.168260	0.209667	0.000107
C24	C	0.240135	0.124558	0.000114
C25	C	0.325269	0.126264	0.000104
C26	C	0.393120	0.127630	0.000096
C27	C	0.668571	-0.437202	0.000084
C28	C	0.694198	-0.535527	0.000089
C29	C	0.838344	-0.558300	0.000105
C30	C	0.812729	-0.459975	0.000096
C31	C	0.727842	-0.399434	0.000087
C32	C	0.872000	-0.422207	0.000099
C33	C	0.846387	-0.323891	0.000095
C34	C	0.761503	-0.263343	0.000087
C35	C	0.702229	-0.301118	0.000082
C36	C	0.956887	-0.482750	0.000114
C37	C	1.016158	-0.444981	0.000117
C38	C	0.990545	-0.346663	0.000107
C39	C	0.905661	-0.286116	0.000100
C40	C	1.049819	-0.308889	0.000112
C41	C	1.024206	-0.210573	0.000107
C42	C	0.880048	-0.187800	0.000095
C43	C	0.999546	0.119752	0.000117
C44	C	1.083109	0.121419	0.000122
C45	C	0.806321	0.299297	0.000102
C46	C	0.779068	0.403933	0.000101
N47	N	0.859179	0.126936	0.206652
N48	N	0.859216	0.126957	-0.206446
C49	C	0.928278	0.062764	0.248375
C50	C	0.928282	0.062763	0.331827
C51	C	0.859189	0.126940	0.373555
C52	C	0.790084	0.191115	0.331826
C53	C	0.790078	0.191111	0.248375
C54	C	0.790106	0.191134	0.668373
C55	C	0.790118	0.191135	0.751829
C56	C	0.928310	0.062786	0.751825
C57	C	0.928304	0.062781	0.668375
C58	C	0.859198	0.126953	0.626653
C59	C	0.859193	0.126952	0.536164
C60	C	0.859195	0.126946	0.464042
H61	H	0.426369	0.285311	0.000086
O62	O	0.797597	-0.128941	-0.000060
C63	C	0.778489	-0.071372	-0.068714
H64	H	0.827116	-0.107467	-0.116698
H65	H	0.714451	-0.060176	-0.091772
H66	H	0.778448	0.000076	-0.053190
O67	O	0.981913	-0.578277	0.000154
C68	C	1.069544	-0.623613	0.000149
H69	H	1.095593	-0.573402	0.025253
H70	H	1.091052	-0.690079	0.038644
H71	H	1.092846	-0.644019	-0.063450
H72	H	0.599448	-0.387905	0.000070
H73	H	0.733851	0.243398	0.785803
O74	O	1.081669	-0.173721	0.000142
C75	C	1.040857	-0.073963	0.000118
H76	H	0.975413	-0.050755	0.025212
H77	H	1.077150	-0.043867	0.038611
H78	H	1.037009	-0.046600	-0.063486
O79	O	0.619801	-0.242165	0.000035
C80	C	0.609909	-0.147292	0.000055
H81	H	0.668362	-0.143655	-0.025036
H82	H	0.554149	-0.102649	-0.038442
H83	H	0.599218	-0.118855	0.063658
O84	O	0.995450	0.000330	0.207968
C85	C	1.056446	-0.056295	0.262694
H86	H	1.025699	-0.057306	0.322184
H87	H	1.088679	-0.131592	0.238590
H88	H	1.104283	-0.025776	0.271560
H89	H	0.645927	-0.566272	0.000098
H90	H	0.149589	-0.034270	0.000122
H91	H	1.118934	-0.358196	0.000127
O92	O	0.569953	0.301723	0.000175
C93	C	0.613402	0.307781	0.068843
H94	H	0.653489	0.233443	0.091737
H95	H	0.654804	0.345239	0.053394
H96	H	0.567049	0.349559	0.116925
O97	O	0.995331	0.000335	0.372389
C98	C	0.970774	-0.057750	0.420685
H99	H	0.911499	-0.059255	0.395548
H100	H	1.022257	-0.132717	0.421628
H101	H	0.958709	-0.028247	0.483930
O102	O	0.920767	-0.617247	0.000078
C103	C	0.930667	-0.712123	0.000104
H104	H	0.872222	-0.715766	-0.024997
H105	H	0.986436	-0.756761	-0.038382
H106	H	0.941349	-0.740562	0.063710
H107	H	0.173657	0.280246	0.000099
H108	H	0.733809	0.243365	0.214405
O109	O	0.303233	-0.044875	0.000083
C110	C	0.280534	-0.121710	0.000106
H111	H	0.215005	-0.097646	-0.024995
H112	H	0.326033	-0.181329	-0.038381
H113	H	0.282212	-0.148287	0.063711
H114	H	0.031216	0.277393	0.000110
H115	H	0.544725	-0.026345	0.000111
H116	H	0.984568	0.010526	0.634403
O117	O	1.098637	-0.503700	0.000017
C118	C	1.136224	-0.486619	-0.068657
H119	H	1.097134	-0.411997	-0.091553
H120	H	1.201286	-0.493673	-0.053215
H121	H	1.140647	-0.540373	-0.116734
H122	H	0.984580	0.010531	0.785804
O123	O	0.722928	0.253563	0.627975
C124	C	0.661942	0.310192	0.682703
H125	H	0.692702	0.311209	0.742183
H126	H	0.629704	0.385488	0.658587
H127	H	0.614108	0.279673	0.691592
H128	H	0.733824	0.243366	0.365805
O129	O	0.736719	-0.167854	0.000189
C130	C	0.767671	-0.141246	0.068864
H131	H	0.824518	-0.204549	0.091763
H132	H	0.785966	-0.081066	0.053421
H133	H	0.717558	-0.116608	0.116938
H134	H	0.687169	-0.023498	0.000090
