data_functionalizedCrystal
_audit_creation_method	'MofGen! by Chris Wilmer'
_symmetry_space_group_name_H-M	'P1'
_symmetry_Int_Tables_number	1
_symmetry_cell_setting	triclinic
loop_
_symmetry_equiv_pos_as_xyz
  x,y,z
_cell_length_a	10.540539
_cell_length_b	10.489741
_cell_length_c	9.616153
_cell_angle_alpha	89.998052
_cell_angle_beta	89.995174
_cell_angle_gamma	84.532333
loop_
_atom_site_label
_atom_site_type_symbol
_atom_site_fract_x
_atom_site_fract_y
_atom_site_fract_z
O1	O	1.685914	0.179760	-0.115579
O2	O	1.316503	0.196697	-0.115596
O3	O	1.509614	0.002629	-0.115579
O4	O	1.492802	0.373827	-0.115596
O5	O	1.509587	0.002633	0.115712
O6	O	1.316476	0.196701	0.115695
O7	O	1.685887	0.179764	0.115712
Zn8	Zn	1.501177	0.188233	0.152426
Zn9	Zn	1.501212	0.188228	-0.152310
O10	O	1.492776	0.373831	0.115695
C11	C	1.269186	0.195429	0.000047
C12	C	1.128238	0.191629	0.000041
C13	C	0.944793	0.046011	0.000588
C14	C	1.091412	0.049864	0.000052
C15	C	1.066588	0.259850	-0.132036
C16	C	0.920043	0.255011	-0.132132
C17	C	0.919525	0.257900	0.130890
C18	C	1.066507	0.259206	0.132621
C19	C	1.508331	-0.044900	0.000066
C20	C	1.504532	-0.186529	0.000063
C21	C	1.381661	-0.254654	0.000047
C22	C	1.439691	-0.346782	0.114088
C23	C	1.439746	-0.346760	-0.113947
C24	C	1.562613	-0.276791	0.114199
C25	C	1.562651	-0.276760	-0.113939
C26	C	1.620770	-0.368860	0.000130
C27	C	1.733203	0.181032	0.000066
C28	C	1.874152	0.184832	0.000063
C29	C	1.494059	0.421361	0.000047
C30	C	1.497858	0.562990	0.000041
N31	N	1.501163	0.188236	0.360401
N32	N	1.501237	0.188215	-0.360285
C33	C	1.397545	0.291701	0.580761
C34	C	1.397773	0.292088	0.419594
C35	C	1.633890	0.218515	0.418855
C36	C	1.633325	0.219248	0.580073
C37	C	1.473374	0.054153	0.580317
C38	C	1.470328	0.055022	0.419090
H39	H	0.891838	0.204586	-0.230856
N40	N	0.877726	0.197137	0.263507
H41	H	0.828945	0.121621	0.240118
H42	H	0.955156	0.167121	0.320813
H43	H	1.387690	-0.377785	0.210498
N44	N	0.856966	0.393525	0.132070
H45	H	0.804813	0.408366	0.219698
H46	H	0.924717	0.455368	0.128923
N47	N	1.120734	0.193199	0.262057
H48	H	1.185019	0.119827	0.234944
H49	H	1.163755	0.256417	0.320631
H50	H	1.109182	0.212456	-0.230326
H51	H	1.614607	-0.245724	-0.210353
H52	H	1.299154	0.273870	0.380075
N53	N	1.370869	-0.387785	-0.241655
H54	H	1.416377	-0.361081	-0.327786
H55	H	1.369536	-0.483928	-0.241063
N56	N	1.573511	-0.047883	0.630808
H57	H	1.636628	-0.007538	0.691858
H58	H	1.531363	-0.114127	0.685934
H59	H	1.134009	-0.003815	0.094731
N60	N	1.754701	-0.434357	0.000226
H61	H	1.751407	-0.530266	-0.000591
H62	H	1.801435	-0.407670	-0.085072
H63	H	1.415684	0.391551	0.381010
H64	H	1.280637	-0.204991	0.000157
N65	N	1.266498	0.267954	0.632163
H66	H	1.273068	0.189887	0.694169
H67	H	1.228925	0.344874	0.686502
N68	N	1.098596	0.396117	0.143187
H69	H	1.194096	0.397754	0.149070
H70	H	1.065437	0.445229	0.058273
N71	N	1.666882	0.346611	0.365358
H72	H	1.677792	0.405832	0.446398
H73	H	1.748881	0.334516	0.310542
N74	N	1.420994	0.422719	0.634328
H75	H	1.498487	0.415328	0.696625
H76	H	1.435825	0.480671	0.553243
N77	N	1.096223	0.397748	-0.138578
H78	H	1.150025	0.417371	-0.055790
H79	H	1.144345	0.412318	-0.227105
H80	H	1.133162	-0.004197	-0.094786
H81	H	1.614546	-0.245964	0.210720
N82	N	1.665589	0.348799	0.629885
H83	H	1.752741	0.365308	0.594470
H84	H	1.600025	0.417245	0.593643
H85	H	1.712959	0.146910	0.619068
N86	N	1.347861	0.015991	0.634227
H87	H	1.307788	0.085228	0.697710
H88	H	1.288952	0.004160	0.553388
N89	N	1.340955	0.024690	0.368531
H90	H	1.340676	0.021653	0.263554
H91	H	1.321678	-0.061064	0.406706
H92	H	1.712936	0.145199	0.380509
H93	H	1.540845	-0.025687	0.378802
H94	H	0.914590	-0.009758	-0.093600
N95	N	0.906917	-0.028175	0.126059
H96	H	0.843593	0.027477	0.183781
H97	H	0.866876	-0.106959	0.094449
H98	H	0.872087	0.356966	-0.138131
