data_functionalizedCrystal
_audit_creation_method	'MofGen! by Chris Wilmer'
_symmetry_space_group_name_H-M	'P1'
_symmetry_Int_Tables_number	1
_symmetry_cell_setting	triclinic
loop_
_symmetry_equiv_pos_as_xyz
  x,y,z
_cell_length_a	21.295417
_cell_length_b	21.295418
_cell_length_c	19.805399
_cell_angle_alpha	89.962178
_cell_angle_beta	89.969157
_cell_angle_gamma	90.046319
loop_
_atom_site_label
_atom_site_type_symbol
_atom_site_fract_x
_atom_site_fract_y
_atom_site_fract_z
Zn1	Zn	-0.250358	0.962319	-0.383034
Zn2	Zn	0.249642	1.462319	0.116966
Zn3	Zn	-0.355627	0.962232	-0.269839
Zn4	Zn	0.144373	1.462232	0.230161
Zn5	Zn	-0.250404	0.857053	-0.269823
Zn6	Zn	0.249596	1.357053	0.230177
Zn7	Zn	-0.355622	0.857012	-0.382950
Zn8	Zn	0.144378	1.357012	0.117050
O9	O	-0.303003	0.909654	-0.326411
O10	O	0.196997	1.409654	0.173589
O11	O	-0.264305	1.050397	-0.368061
O12	O	0.235695	1.550397	0.131939
O13	O	-0.341690	0.948261	-0.175120
O14	O	0.158310	1.448261	0.324880
O15	O	-0.162309	0.871070	-0.284868
O16	O	0.337691	1.371070	0.215132
O17	O	-0.341645	1.050333	-0.284897
O18	O	0.158355	1.550333	0.215103
O19	O	-0.162275	0.948409	-0.368044
O20	O	0.337725	1.448409	0.131956
O21	O	-0.264384	0.870986	-0.175108
O22	O	0.235616	1.370986	0.324892
O23	O	-0.264379	0.768958	-0.284787
O24	O	0.235621	1.268958	0.215213
O25	O	-0.341638	0.871000	-0.477678
O26	O	0.158362	1.371000	0.022322
O27	O	-0.341683	0.768928	-0.367901
O28	O	0.158317	1.268928	0.132099
O29	O	-0.264300	0.948369	-0.477739
O30	O	0.235700	1.448369	0.022261
O31	O	-0.443716	0.948221	-0.284816
O32	O	0.056284	1.448221	0.215184
O33	O	-0.443712	0.870916	-0.367917
O34	O	0.056288	1.370916	0.132083
C35	C	-0.303036	0.746102	-0.326334
C36	C	0.196964	1.246102	0.173666
C37	C	-0.303065	0.676134	-0.326316
C38	C	0.196935	1.176134	0.173684
C39	C	-0.466555	0.909572	-0.326374
C40	C	0.033445	1.409572	0.173626
C41	C	-0.536523	0.909594	-0.326381
C42	C	-0.036523	1.409594	0.173619
C43	C	-0.343370	0.643268	-0.369529
C44	C	0.156630	1.143268	0.130471
C45	C	-0.343355	0.577526	-0.369560
C46	C	0.156645	1.077526	0.130440
C47	C	-0.303041	0.544652	-0.326365
C48	C	0.196959	1.044652	0.173635
C49	C	-0.262728	0.577526	-0.283149
C50	C	0.237272	1.077526	0.216851
C51	C	-0.262740	0.643267	-0.283125
C52	C	0.237260	1.143267	0.216875
N53	N	-0.298123	0.441381	-0.267165
N54	N	0.201877	0.941381	0.232835
N55	N	-0.298115	0.378930	-0.267190
N56	N	0.201885	0.878930	0.232810
C57	C	-0.303001	0.346577	-0.326437
C58	C	0.196999	0.846577	0.173563
N59	N	-0.307907	0.379035	-0.385659
N60	N	0.192093	0.879035	0.114341
N61	N	-0.307919	0.441492	-0.385633
N62	N	0.192081	0.941492	0.114367
C63	C	-0.303023	0.473366	-0.326387
C64	C	0.196977	0.973366	0.173613
C65	C	-0.343291	0.242426	-0.369686
C66	C	0.156709	0.742426	0.130314
C67	C	-0.343271	0.176682	-0.369718
C68	C	0.156729	0.676682	0.130282
C69	C	-0.262648	0.176683	-0.283301
C70	C	0.237352	0.676683	0.216699
C71	C	-0.262664	0.242426	-0.283276
C72	C	0.237336	0.742426	0.216724
C73	C	-0.302989	0.275293	-0.326467
C74	C	0.197011	0.775293	0.173533
C75	C	-0.569370	0.949882	-0.283154
C76	C	-0.069370	1.449882	0.216846
C77	C	-0.635113	0.949912	-0.283169
C78	C	-0.135113	1.449912	0.216831
C79	C	-0.668005	0.909642	-0.326404
C80	C	-0.168005	1.409642	0.173596
C81	C	-0.635150	0.869350	-0.369639
C82	C	-0.135150	1.369350	0.130361
C83	C	-0.569409	0.869326	-0.369627
C84	C	-0.069409	1.369326	0.130373
N85	N	-0.771286	0.854574	-0.331538
N86	N	-0.271286	1.354574	0.168462
N87	N	-0.833738	0.854598	-0.331545
N88	N	-0.333738	1.354598	0.168455
C89	C	-0.866080	0.909712	-0.326443
C90	C	-0.366080	1.409712	0.173557
N91	N	-0.833611	0.964801	-0.321320
N92	N	-0.333611	1.464801	0.178680
N93	N	-0.771154	0.964776	-0.321309
N94	N	-0.271154	1.464776	0.178691
C95	C	-0.739291	0.909663	-0.326422
C96	C	-0.239291	1.409663	0.173578
C97	C	-0.970213	0.950036	-0.283230
C98	C	-0.470213	1.450036	0.216770
C99	C	-1.035956	0.950067	-0.283250
C100	C	-0.535956	1.450067	0.216750
C101	C	-1.035992	0.869499	-0.369717
C102	C	-0.535992	1.369499	0.130283
C103	C	-0.970250	0.869474	-0.369700
C104	C	-0.470250	1.369474	0.130300
C105	C	-0.937364	0.909742	-0.326453
C106	C	-0.437364	1.409742	0.173547
C107	C	-0.138813	0.909754	-0.326464
C108	C	0.361187	1.409754	0.173536
C109	C	-0.068844	0.909797	-0.326486
C110	C	0.431156	1.409797	0.173514
C111	C	-0.302963	0.909689	-0.502954
C112	C	0.197037	1.409689	-0.002954
C113	C	-0.302946	0.909704	-0.578186
C114	C	0.197054	1.409704	-0.078186
C115	C	-0.302970	1.073844	-0.326490
C116	C	0.197030	1.573844	0.173510
C117	C	-0.302956	1.143812	-0.326524
C118	C	0.197044	1.643812	0.173476
C119	C	-0.262675	0.949991	-0.613564
C120	C	0.237325	1.449991	-0.113564
C121	C	-0.262657	0.949998	-0.684252
C122	C	0.237343	1.449998	-0.184252
C123	C	-0.302914	0.909720	-0.719562
C124	C	0.197086	1.409720	-0.219562
C125	C	-0.343187	0.869429	-0.684180
C126	C	0.156813	1.369429	-0.184180
C127	C	-0.343201	0.869420	-0.613492
C128	C	0.156799	1.369420	-0.113492
C129	C	-0.343128	0.869464	-0.969253
C130	C	0.156872	1.369464	-0.469253
C131	C	-0.343112	0.869478	-1.039945
C132	C	0.156888	1.369478	-0.539945
C133	C	-0.262583	0.950042	-1.040013
C134	C	0.237417	1.450042	-0.540013
C135	C	-0.262598	0.950033	-0.969326
C136	C	0.237402	1.450033	-0.469326
C137	C	-0.302869	0.909740	-0.933949
C138	C	0.197131	1.409740	-0.433949
C139	C	-0.302887	0.909733	-0.857301
C140	C	0.197113	1.409733	-0.357301
C141	C	-0.302899	0.909730	-0.796209
C142	C	0.197101	1.409730	-0.296209
C143	C	-0.302997	0.909655	-0.150555
C144	C	0.197003	1.409655	0.349445
C145	C	-0.302837	0.909762	-0.075324
C146	C	0.197163	1.409762	0.424676
H147	H	-0.376205	0.670025	-0.404700
H148	H	0.123795	1.170025	0.095300
F149	F	-0.670078	0.992794	-0.237159
F150	F	-0.170078	1.492794	0.262841
H151	H	-0.229819	0.982834	-0.940580
H152	H	0.270181	1.482834	-0.440580
F153	F	-0.219721	0.992925	-1.077668
F154	F	0.280279	1.492925	-0.577668
H155	H	-0.542664	0.836518	-0.404829
H156	H	-0.042664	1.336518	0.095171
H157	H	-0.661935	0.836563	-0.404843
H158	H	-0.161935	1.336563	0.095157
F159	F	-0.935211	0.992891	-0.237203
F160	F	-0.435211	1.492891	0.262797
F161	F	-0.219830	0.992864	-0.575991
F162	F	0.280170	1.492864	-0.075991
H163	H	-1.062773	0.836713	-0.404922
H164	H	-0.562773	1.336713	0.095078
H165	H	-0.229917	0.670026	-0.247935
H166	H	0.270083	1.170026	0.252065
F167	F	-0.219816	0.992898	-0.721900
F168	F	0.280184	1.492898	-0.221900
H169	H	-0.229847	0.269185	-0.248084
H170	H	0.270153	0.769185	0.251916
H171	H	-0.376176	0.550761	-0.404751
H172	H	0.123824	1.050761	0.095249
H173	H	-0.375895	0.836676	-1.068693
H174	H	0.124105	1.336676	-0.568693
F175	F	-0.385988	0.826580	-0.931612
F176	F	0.114012	1.326580	-0.431612
H177	H	-0.229903	0.550756	-0.247981
H178	H	0.270097	1.050756	0.252019
H179	H	-0.375988	0.836607	-0.584689
H180	H	0.124012	1.336607	-0.084689
H181	H	-1.062700	0.982878	-0.248051
H182	H	-0.562700	1.482878	0.251949
H183	H	-0.542596	0.982672	-0.247941
H184	H	-0.042596	1.482672	0.252059
F185	F	-0.386029	0.826559	-0.721761
F186	F	0.113971	1.326559	-0.221761
F187	F	-0.386205	0.277408	-0.415657
F188	F	0.113795	0.777408	0.084343
H189	H	-0.376091	0.149923	-0.404911
H190	H	0.123909	0.649923	0.095089
F191	F	-0.219739	0.141701	-0.237333
F192	F	0.280261	0.641701	0.262667
H193	H	-0.943504	0.836665	-0.404897
H194	H	-0.443504	1.336665	0.095103
