data_functionalizedCrystal
_audit_creation_method	'MofGen! by Chris Wilmer'
_symmetry_space_group_name_H-M	'P1'
_symmetry_Int_Tables_number	1
_symmetry_cell_setting	triclinic
loop_
_symmetry_equiv_pos_as_xyz
  x,y,z
_cell_length_a	10.489741
_cell_length_b	8.559649
_cell_length_c	7.681481
_cell_angle_alpha	85.090457
_cell_angle_beta	95.797272
_cell_angle_gamma	77.158919
loop_
_atom_site_label
_atom_site_type_symbol
_atom_site_fract_x
_atom_site_fract_y
_atom_site_fract_z
O1	O	0.029669	-2.104665	-0.146557
O2	O	-0.036125	-1.640222	-0.146527
O3	O	0.183482	-1.883011	-0.146547
O4	O	-0.189938	-1.861876	-0.146537
O5	O	0.210567	-1.912894	0.146309
O6	O	-0.009041	-1.670104	0.146328
O7	O	0.056754	-2.134548	0.146299
Zn8	Zn	0.028157	-1.907071	0.192810
Zn9	Zn	-0.007528	-1.867699	-0.193039
O10	O	-0.162854	-1.891759	0.146318
C11	C	-0.027569	-1.595691	-0.000096
C12	C	-0.042410	-1.418483	-0.000085
C13	C	-0.223759	-1.878414	-0.000109
C14	C	-0.364886	-1.883190	-0.000106
C15	C	-0.416762	-2.037669	-0.000130
C16	C	-0.503212	-1.979427	0.144267
C17	C	-0.529897	-1.949929	-0.144466
C18	C	-0.449466	-1.824897	0.144409
C19	C	-0.476152	-1.795407	-0.144453
C20	C	-0.562583	-1.737057	-0.000021
C21	C	0.244388	-1.896356	-0.000124
C22	C	0.385513	-1.891578	-0.000138
N23	N	0.052513	-1.933953	0.456142
C24	C	0.048199	-1.179080	-0.000121
C25	C	0.063044	-1.356292	-0.000096
N26	N	-0.031873	-1.840830	-0.456371
H27	H	-0.353727	-2.164698	0.000006
H28	H	-0.516049	-2.057248	0.266337
H29	H	0.164689	-1.438628	-0.000104
H30	H	-0.625385	-1.609938	0.000066
H31	H	-0.414208	-1.772056	0.266621
H32	H	-0.118006	-1.745770	0.468440
H33	H	-0.463277	-1.717641	-0.266529
H34	H	-0.565285	-2.002865	-0.266538
H35	H	0.138644	-2.029031	0.531341
H36	H	-0.144051	-1.336154	-0.000095
