data_functionalizedCrystal
_audit_creation_method	'MofGen! by Chris Wilmer'
_symmetry_space_group_name_H-M	'P1'
_symmetry_Int_Tables_number	1
_symmetry_cell_setting	triclinic
loop_
_symmetry_equiv_pos_as_xyz
  x,y,z
_cell_length_a	10.540514
_cell_length_b	10.540510
_cell_length_c	9.482900
_cell_angle_alpha	99.430215
_cell_angle_beta	80.616091
_cell_angle_gamma	84.514235
loop_
_atom_site_label
_atom_site_type_symbol
_atom_site_fract_x
_atom_site_fract_y
_atom_site_fract_z
O1	O	1.705497	0.159049	-0.120906
O2	O	1.336077	0.175939	-0.120904
O3	O	1.529235	-0.017216	-0.120904
O4	O	1.512339	0.352204	-0.120905
O5	O	1.490001	0.022177	0.120888
O6	O	1.296844	0.215332	0.120889
O7	O	1.666263	0.198442	0.120887
Cu8	Cu	1.477971	0.210484	0.142965
Cu9	Cu	1.524369	0.163897	-0.142982
O10	O	1.473106	0.391596	0.120887
C11	C	1.269157	0.194376	-0.000007
C12	C	1.128208	0.190606	-0.000007
C13	C	1.508359	-0.044823	-0.000011
C14	C	1.504594	-0.185774	-0.000020
C15	C	1.057488	0.328748	-0.000010
C16	C	0.910966	0.324783	-0.000567
C17	C	0.958240	0.093026	-0.137822
C18	C	1.104797	0.097862	-0.137930
C19	C	1.060582	0.140616	0.137043
C20	C	0.913311	0.139577	0.138846
C21	C	1.638690	-0.403152	0.000533
C22	C	1.642797	-0.256646	-0.000019
C23	C	1.456251	-0.253021	-0.138092
C24	C	1.453229	-0.399799	-0.138200
C25	C	1.405735	-0.354811	0.136763
C26	C	1.411996	-0.208174	0.138581
C27	C	1.733184	0.180005	-0.000013
C28	C	1.874135	0.183772	-0.000023
C29	C	1.493982	0.419203	-0.000009
C30	C	1.497749	0.560153	-0.000010
N31	N	1.445347	0.243250	0.344086
N32	N	1.557004	0.131121	-0.344103
C33	C	1.514738	0.173555	0.416285
C34	C	1.487603	0.200826	0.583702
H35	H	0.852272	0.394590	0.098191
H36	H	1.069990	0.400884	0.098792
H37	H	1.636501	0.051253	0.593773
H38	H	0.932331	0.123069	-0.240764
H39	H	1.355340	-0.206459	-0.143226
H40	H	1.446900	-0.162925	0.240725
H41	H	1.522055	-0.238910	-0.240845
H42	H	0.855769	0.206098	0.240792
H43	H	1.714561	-0.244399	-0.099166
H44	H	1.107634	0.038938	0.138373
H45	H	1.594230	0.093691	0.354156
H46	H	1.075119	0.203622	0.241523
H47	H	1.309743	-0.157740	0.146919
H48	H	1.350876	-0.423804	-0.144455
H49	H	0.887721	0.038152	0.147578
H50	H	1.365846	0.323104	0.406216
H51	H	1.103720	0.367891	-0.098683
H52	H	1.682093	-0.211183	0.098954
H53	H	0.885351	0.362083	-0.099928
H54	H	1.149793	0.130897	-0.241331
H55	H	1.676466	-0.428980	0.099552
H56	H	1.153768	-0.004571	-0.143813
H57	H	0.936705	-0.011379	-0.142557
H58	H	1.408096	0.280685	0.645827
H59	H	1.708198	-0.462703	-0.097926
H60	H	1.301820	-0.376800	0.137694
H61	H	1.518325	-0.456835	-0.241412
H62	H	1.432673	-0.379945	0.241423
