data_functionalizedCrystal
_audit_creation_method	'MofGen! by Chris Wilmer'
_symmetry_space_group_name_H-M	'P1'
_symmetry_Int_Tables_number	1
_symmetry_cell_setting	triclinic
loop_
_symmetry_equiv_pos_as_xyz
  x,y,z
_cell_length_a	10.540539
_cell_length_b	9.016244
_cell_length_c	10.540539
_cell_angle_alpha	89.999933
_cell_angle_beta	95.474508
_cell_angle_gamma	90.005301
loop_
_atom_site_label
_atom_site_type_symbol
_atom_site_fract_x
_atom_site_fract_y
_atom_site_fract_z
O1	O	1.685893	0.123263	-0.178895
O2	O	1.316480	0.123280	-0.195751
O3	O	1.509614	0.123269	-0.002617
O4	O	1.492759	0.123274	-0.372030
O5	O	1.509586	-0.123411	-0.002621
O6	O	1.316452	-0.123400	-0.195755
O7	O	1.685865	-0.123418	-0.178900
Cu8	Cu	1.501156	-0.145933	-0.187328
Cu9	Cu	1.501189	0.145795	-0.187323
O10	O	1.492730	-0.123407	-0.372034
C11	C	1.269163	-0.000058	-0.194489
C12	C	1.128215	-0.000051	-0.190707
N13	N	1.501141	-0.351119	-0.187331
C14	C	0.944788	-0.000628	-0.045790
C15	C	1.091406	-0.000057	-0.049624
C16	C	1.066558	0.140811	-0.258600
C17	C	0.920014	0.140914	-0.253785
C18	C	0.919493	-0.139608	-0.256660
C19	C	1.066475	-0.141455	-0.257960
C20	C	1.397510	-0.586146	-0.290298
C21	C	1.397739	-0.414255	-0.290684
C22	C	1.633864	-0.413464	-0.217464
C23	C	1.633298	-0.585409	-0.218193
C24	C	1.473367	-0.585663	-0.053892
C25	C	1.470322	-0.413709	-0.054757
C26	C	1.733182	-0.000077	-0.180161
C27	C	1.874130	-0.000074	-0.183943
C28	C	1.508336	-0.000068	0.044684
C29	C	1.504554	-0.000060	0.185632
N30	N	1.501213	0.350982	-0.187310
C31	C	1.494008	-0.000066	-0.419335
C32	C	1.497790	-0.000064	-0.560283
C33	C	1.359637	0.000500	0.369059
C34	C	1.363471	-0.000055	0.222441
C35	C	1.572434	-0.140930	0.247287
C36	C	1.567619	-0.141049	0.393832
C37	C	1.570520	0.139473	0.394355
C38	C	1.571820	0.141336	0.247373
H39	H	1.134008	-0.101034	0.003797
H40	H	1.303918	0.101521	0.397661
Br41	Br	1.743263	0.155522	0.206996
Br42	Br	1.493809	-0.315654	0.176289
Br43	Br	1.740366	0.141048	0.473066
H44	H	1.304121	-0.099949	0.399265
Br45	Br	1.274448	0.168255	0.151428
H46	H	1.524871	0.246244	0.425910
H47	H	1.299123	-0.372106	-0.272553
H48	H	1.415639	-0.373108	-0.389668
Br49	Br	1.673891	-0.652235	-0.380427
H50	H	1.669083	-0.147444	0.441800
H51	H	1.378630	-0.629106	-0.025213
H52	H	1.676041	-0.146173	0.224933
Br53	Br	1.489747	0.315060	0.178452
Br54	Br	1.137556	0.315544	-0.179992
Br55	Br	1.160966	0.168826	0.039648
H56	H	0.916191	-0.101649	0.009944
Br57	Br	0.894453	0.166792	0.046731
H58	H	1.517429	-0.246347	0.422030
H59	H	0.891816	0.246209	-0.203602
Br60	Br	1.675371	-0.341668	-0.377865
Br61	Br	1.587884	-0.342110	0.079122
Br62	Br	1.273776	-0.168631	0.152829
H63	H	1.712941	-0.626995	-0.146204
Br64	Br	1.765634	-0.345310	-0.095852
H65	H	0.872045	0.147309	-0.355250
Br66	Br	1.103852	0.149590	-0.431275
H67	H	1.372684	-0.372962	-0.031916
H68	H	0.887935	-0.246381	-0.211004
H69	H	1.107425	-0.245664	-0.208362
H70	H	1.090700	-0.149959	-0.360819
Br71	Br	0.840784	-0.141193	-0.426506
H72	H	1.548979	-0.626319	0.022762
H73	H	1.298584	-0.627535	-0.272446
H74	H	1.415177	-0.629339	-0.388722
