data_functionalizedCrystal
_audit_creation_method	'MofGen! by Chris Wilmer'
_symmetry_space_group_name_H-M	'P1'
_symmetry_Int_Tables_number	1
_symmetry_cell_setting	triclinic
loop_
_symmetry_equiv_pos_as_xyz
  x,y,z
_cell_length_a	21.395364
_cell_length_b	21.395361
_cell_length_c	21.395355
_cell_angle_alpha	90.021511
_cell_angle_beta	90.025677
_cell_angle_gamma	90.024740
loop_
_atom_site_label
_atom_site_type_symbol
_atom_site_fract_x
_atom_site_fract_y
_atom_site_fract_z
Zn1	Zn	-0.957859	0.249611	-0.354267
Zn2	Zn	-0.624526	0.582944	-0.020934
Zn3	Zn	-0.291192	0.916278	0.312400
Zn4	Zn	-0.957761	0.354371	-0.249484
Zn5	Zn	-0.624428	0.687704	0.083849
Zn6	Zn	-0.291095	1.021037	0.417182
Zn7	Zn	-0.853074	0.249600	-0.249502
Zn8	Zn	-0.519741	0.582933	0.083832
Zn9	Zn	-0.186407	0.916267	0.417165
Zn10	Zn	-0.853043	0.354344	-0.354222
Zn11	Zn	-0.519710	0.687677	-0.020889
Zn12	Zn	-0.186376	1.021010	0.312444
O13	O	-0.905434	0.301981	-0.301869
O14	O	-0.572101	0.635315	0.031464
O15	O	-0.238768	0.968648	0.364798
O16	O	-1.045524	0.263523	-0.340379
O17	O	-0.712191	0.596857	-0.007045
O18	O	-0.378857	0.930190	0.326288
O19	O	-0.943847	0.340479	-0.161809
O20	O	-0.610513	0.673813	0.171525
O21	O	-0.277180	1.007146	0.504858
O22	O	-0.867028	0.161924	-0.263425
O23	O	-0.533694	0.495257	0.069908
O24	O	-0.200361	0.828590	0.403241
O25	O	-1.045452	0.340490	-0.263395
O26	O	-0.712119	0.673823	0.069938
O27	O	-0.378786	1.007157	0.403271
O28	O	-0.944013	0.161932	-0.340396
O29	O	-0.610679	0.495265	-0.007063
O30	O	-0.277346	0.828598	0.326271
O31	O	-0.866933	0.263505	-0.161822
O32	O	-0.533600	0.596838	0.171512
O33	O	-0.200266	0.930172	0.504845
O34	O	-0.765392	0.263479	-0.263382
O35	O	-0.432059	0.596812	0.069952
O36	O	-0.098725	0.930145	0.403285
O37	O	-0.866975	0.340444	-0.441906
O38	O	-0.533642	0.673777	-0.108573
O39	O	-0.200308	1.007110	0.224761
O40	O	-0.765369	0.340433	-0.340320
O41	O	-0.432036	0.673767	-0.006986
O42	O	-0.098703	1.007100	0.326347
O43	O	-0.943983	0.263497	-0.441939
O44	O	-0.610650	0.596830	-0.108606
O45	O	-0.277316	0.930164	0.224728
O46	O	-0.943817	0.442045	-0.263352
O47	O	-0.610483	0.775378	0.069982
O48	O	-0.277150	1.108712	0.403315
O49	O	-0.866881	0.442025	-0.340302
O50	O	-0.533547	0.775358	-0.006969
O51	O	-0.200214	1.108692	0.326364
C52	C	-0.742647	0.301952	-0.301848
C53	C	-0.409313	0.635286	0.031485
C54	C	-0.075980	0.968619	0.364819
C55	C	-0.673006	0.301955	-0.301854
C56	C	-0.339672	0.635288	0.031479
C57	C	-0.006339	0.968622	0.364813
C58	C	-0.905486	0.301969	-0.465292
C59	C	-0.572153	0.635302	-0.131959
C60	C	-0.238820	0.968635	0.201374
C61	C	-0.905509	0.301963	-0.534933
C62	C	-0.572175	0.635297	-0.201600
C63	C	-0.238842	0.968630	0.131733
C64	C	-0.905352	0.464769	-0.301834
C65	C	-0.572018	0.798102	0.031499
C66	C	-0.238685	1.131436	0.364833
C67	C	-0.905374	0.534410	-0.301840
C68	C	-0.572040	0.867744	0.031493
C69	C	-0.238707	1.201077	0.364827
C70	C	-0.171246	0.261977	-0.342013
C71	C	0.162087	0.595311	-0.008680
C72	C	0.495421	0.928644	0.324653
C73	C	-0.236681	0.261975	-0.342015
C74	C	0.096652	0.595308	-0.008681
C75	C	0.429985	0.928641	0.324652
C76	C	-0.269367	0.301981	-0.301870
C77	C	0.063966	0.635315	0.031463
C78	C	0.397299	0.968648	0.364797
C79	C	-0.236612	0.342005	-0.261733
C80	C	0.096721	0.675338	0.071601
C81	C	0.430054	1.008672	0.404934
C82	C	-0.171178	0.342011	-0.261737
C83	C	0.162155	0.675344	0.071596
C84	C	0.495489	1.008678	0.404930
C85	C	-0.373004	0.306836	-0.245405
C86	C	-0.039670	0.640169	0.087929
C87	C	0.293663	0.973503	0.421262
C88	C	-0.438437	0.306826	-0.245399
C89	C	-0.105103	0.640159	0.087934
C90	C	0.228230	0.973492	0.421267
C91	C	-0.471188	0.301966	-0.301857
C92	C	-0.137855	0.635300	0.031477
C93	C	0.195479	0.968633	0.364810
C94	C	-0.438498	0.297104	-0.358322
C95	C	-0.105165	0.630438	-0.024988
C96	C	0.228168	0.963771	0.308345
C97	C	-0.373064	0.297110	-0.358326
C98	C	-0.039731	0.630444	-0.024993
C99	C	0.293603	0.963777	0.308341
C100	C	-0.340320	0.301980	-0.301861
C101	C	-0.006986	0.635313	0.031472
C102	C	0.326347	0.968646	0.364806
C103	C	-0.574888	0.261945	-0.341996
C104	C	-0.241554	0.595279	-0.008663
C105	C	0.091779	0.928612	0.324671
C106	C	-0.640324	0.261947	-0.341998
C107	C	-0.306991	0.595281	-0.008665
C108	C	0.026342	0.928614	0.324668
C109	C	-0.640254	0.341974	-0.261711
C110	C	-0.306920	0.675308	0.071623
C111	C	0.026413	1.008641	0.404956
C112	C	-0.574818	0.341976	-0.261714
C113	C	-0.241485	0.675309	0.071619
C114	C	0.091848	1.008643	0.404953
C115	C	-0.542139	0.301958	-0.301856
C116	C	-0.208806	0.635291	0.031477
C117	C	0.124527	0.968625	0.364811
C118	C	-0.068858	0.302003	-0.301885
C119	C	0.264476	0.635337	0.031448
C120	C	0.597809	0.968670	0.364782
C121	C	-0.138499	0.301993	-0.301879
C122	C	0.194834	0.635327	0.031454
C123	C	0.528168	0.968660	0.364788
C124	C	-0.905535	0.138558	-0.301918
C125	C	-0.572201	0.471891	0.031416
C126	C	-0.238868	0.805225	0.364749
C127	C	-0.905577	0.068917	-0.301938
C128	C	-0.572244	0.402250	0.031395
C129	C	-0.238911	0.735583	0.364728
C130	C	-0.945470	0.567113	-0.261813
C131	C	-0.612136	0.900446	0.071520
C132	C	-0.278803	1.233780	0.404854
C133	C	-0.945499	0.632548	-0.261827
C134	C	-0.612166	0.965882	0.071506
C135	C	-0.278832	1.299215	0.404840
C136	C	-0.905421	0.665279	-0.301861
C137	C	-0.572087	0.998612	0.031472
C138	C	-0.238754	1.331945	0.364805
C139	C	-0.865322	0.632568	-0.341896
C140	C	-0.531988	0.965901	-0.008563
C141	C	-0.198655	1.299235	0.324770
C142	C	-0.865298	0.567134	-0.341886
C143	C	-0.531965	0.900467	-0.008552
C144	C	-0.198632	1.233800	0.324781
C145	C	-0.849006	0.768988	-0.306770
C146	C	-0.515673	1.102321	0.026563
C147	C	-0.182339	1.435654	0.359896
C148	C	-0.849029	0.834421	-0.306777
C149	C	-0.515695	1.167754	0.026557
C150	C	-0.182362	1.501087	0.359890
C151	C	-0.905494	0.867099	-0.301898
C152	C	-0.572160	1.200433	0.031435
C153	C	-0.238827	1.533766	0.364768
C154	C	-0.961938	0.834337	-0.297000
C155	C	-0.628605	1.167670	0.036333
C156	C	-0.295271	1.501003	0.369666
C157	C	-0.961915	0.768903	-0.296990
C158	C	-0.628581	1.102236	0.036344
C159	C	-0.295248	1.435569	0.369677
C160	C	-0.905442	0.736231	-0.301878
C161	C	-0.572109	1.069564	0.031455
C162	C	-0.238775	1.402898	0.364789
C163	C	-0.945625	0.970754	-0.261884
C164	C	-0.612291	1.304088	0.071449
C165	C	-0.278958	1.637421	0.404783
C166	C	-0.945655	1.036191	-0.261903
C167	C	-0.612322	1.369524	0.071431
C168	C	-0.278988	1.702858	0.404764
C169	C	-0.865472	1.036209	-0.341969
C170	C	-0.532139	1.369543	-0.008636
C171	C	-0.198806	1.702876	0.324698
C172	C	-0.865448	0.970774	-0.341954
C173	C	-0.532114	1.304107	-0.008620
C174	C	-0.198781	1.637441	0.324713
C175	C	-0.905523	0.938051	-0.301908
C176	C	-0.572190	1.271384	0.031425
C177	C	-0.238856	1.604717	0.364759
C178	C	-0.945605	0.261895	-0.567665
C179	C	-0.612271	0.595229	-0.234331
C180	C	-0.278938	0.928562	0.099002
C181	C	-0.945604	0.261868	-0.633100
C182	C	-0.612271	0.595202	-0.299767
C183	C	-0.278937	0.928535	0.033566
C184	C	-0.905513	0.301921	-0.665802
C185	C	-0.572180	0.635254	-0.332469
C186	C	-0.238847	0.968587	0.000865
C187	C	-0.865409	0.341991	-0.633063
C188	C	-0.532076	0.675325	-0.299729
C189	C	-0.198743	1.008658	0.033604
C190	C	-0.865407	0.342013	-0.567629
C191	C	-0.532074	0.675346	-0.234295
C192	C	-0.198740	1.008679	0.099038
C193	C	-0.900538	0.358335	-0.769464
C194	C	-0.567204	0.691669	-0.436131
C195	C	-0.233871	1.025002	-0.102798
C196	C	-0.900544	0.358315	-0.834897
C197	C	-0.567211	0.691648	-0.501564
C198	C	-0.233878	1.024982	-0.168231
C199	C	-0.905517	0.301854	-0.867623
C200	C	-0.572184	0.635188	-0.534289
C201	C	-0.238851	0.968521	-0.200956
C202	C	-0.910497	0.245412	-0.834907
C203	C	-0.577163	0.578746	-0.501574
C204	C	-0.243830	0.912079	-0.168240
C205	C	-0.910494	0.245434	-0.769473
C206	C	-0.577161	0.578767	-0.436140
C207	C	-0.243828	0.912100	-0.102806
C208	C	-0.905511	0.301902	-0.736754
C209	C	-0.572178	0.635235	-0.403421
C210	C	-0.238845	0.968568	-0.070088
C211	C	-0.945615	0.261754	-0.971307
C212	C	-0.612281	0.595087	-0.637973
C213	C	-0.278948	0.928421	-0.304640
C214	C	-0.945610	0.261726	-1.036743
C215	C	-0.612276	0.595059	-0.703410
C216	C	-0.278943	0.928393	-0.370077
C217	C	-0.865418	0.341854	-1.036704
C218	C	-0.532085	0.675188	-0.703371
C219	C	-0.198752	1.008521	-0.370038
C220	C	-0.865420	0.341877	-0.971269
C221	C	-0.532087	0.675210	-0.637936
C222	C	-0.198754	1.008543	-0.304602
C223	C	-0.905522	0.301827	-0.938574
C224	C	-0.572189	0.635161	-0.605241
C225	C	-0.238855	0.968494	-0.271907
C226	C	-0.905419	0.301949	-0.139081
C227	C	-0.572085	0.635282	0.194252
C228	C	-0.238752	0.968615	0.527585
C229	C	-0.905518	0.301778	-0.069440
C230	C	-0.572185	0.635111	0.263893
C231	C	-0.238851	0.968444	0.597226
H232	H	-0.144643	0.229394	-0.374703
H233	H	0.188691	0.562727	-0.041369
H234	H	0.522024	0.896061	0.291964
H235	H	-0.465163	0.293144	-0.404295
H236	H	-0.131830	0.626478	-0.070961
H237	H	0.201504	0.959811	0.262372
H238	H	-0.978103	0.540471	-0.229207
H239	H	-0.644770	0.873805	0.104126
H240	H	-0.311436	1.207138	0.437460
N241	N	-0.541495	0.221092	-0.383013
N242	N	-0.208162	0.554425	-0.049680
N243	N	0.125172	0.887759	0.283654
N244	N	-0.504995	0.243210	-0.422894
N245	N	-0.171661	0.576543	-0.089561
N246	N	0.161672	0.909877	0.243773
H247	H	-0.481409	0.214361	-0.451864
H248	H	-0.148076	0.547694	-0.118531
H249	H	0.185257	0.881027	0.214802
H250	H	-0.263349	0.229386	-0.374696
H251	H	0.069984	0.562719	-0.041363
H252	H	0.403317	0.896053	0.291970
H253	H	-0.978254	0.229237	-0.659755
H254	H	-0.644920	0.562570	-0.326422
H255	H	-0.311587	0.895904	0.006911
H256	H	-0.978152	0.659180	-0.229232
H257	H	-0.644819	0.992513	0.104101
H258	H	-0.311486	1.325847	0.437435
N259	N	-0.339682	0.292144	-0.416004
N260	N	-0.006349	0.625477	-0.082670
N261	N	0.326985	0.958810	0.250663
N262	N	-0.368924	0.287803	-0.466411
N263	N	-0.035591	0.621136	-0.133077
N264	N	0.297742	0.954469	0.200256
H265	H	-0.345349	0.284297	-0.507147
H266	H	-0.012015	0.617630	-0.173814
H267	H	0.321318	0.950963	0.159520
N268	N	-0.824534	1.069625	-0.382872
N269	N	-0.491200	1.402959	-0.049539
N270	N	-0.157867	1.736292	0.283794
N271	N	-0.828658	1.062280	-0.440689
N272	N	-0.495325	1.395613	-0.107356
N273	N	-0.161992	1.728947	0.225977
H274	H	-0.799746	1.085882	-0.469581
H275	H	-0.466412	1.419215	-0.136248
H276	H	-0.133079	1.752549	0.197086
H277	H	-0.832795	0.944146	-0.374545
H278	H	-0.499462	1.277479	-0.041212
H279	H	-0.166128	1.610812	0.292122
N280	N	-0.673624	0.382841	-0.220695
N281	N	-0.340290	0.716174	0.112638
N282	N	-0.006957	1.049508	0.445971
N283	N	-0.644373	0.418564	-0.184858
N284	N	-0.311040	0.751897	0.148475
N285	N	0.022294	1.085231	0.481808
H286	H	-0.667942	0.447429	-0.155890
H287	H	-0.334609	0.780762	0.177443
H288	H	-0.001276	1.114096	0.510776
H289	H	-1.007873	0.742229	-0.293003
H290	H	-0.674540	1.075562	0.040330
H291	H	-0.341206	1.408896	0.373663
H292	H	-0.832753	0.374640	-0.540979
H293	H	-0.499420	0.707973	-0.207646
H294	H	-0.166086	1.041306	0.125688
H295	H	-0.465048	0.310781	-0.199422
H296	H	-0.131714	0.644114	0.133911
H297	H	0.201619	0.977448	0.467245
H298	H	-0.548155	0.374559	-0.229029
H299	H	-0.214822	0.707892	0.104304
H300	H	0.118511	1.041225	0.437637
N301	N	-0.339562	0.311803	-0.187725
N302	N	-0.006229	0.645137	0.145608
N303	N	0.327104	0.978470	0.478942
N304	N	-0.368754	0.316136	-0.137316
N305	N	-0.035421	0.649470	0.196017
N306	N	0.297913	0.982803	0.529350
H307	H	-0.345137	0.319645	-0.096581
H308	H	-0.011804	0.652978	0.236752
H309	H	0.321529	0.986311	0.570086
N310	N	-0.673767	0.221072	-0.383008
N311	N	-0.340434	0.554405	-0.049675
N312	N	-0.007101	0.887739	0.283659
N313	N	-0.644579	0.185350	-0.418845
N314	N	-0.311245	0.518683	-0.085512
N315	N	0.022088	0.852017	0.247822
H316	H	-0.668198	0.156481	-0.447810
H317	H	-0.334864	0.489815	-0.114477
H318	H	-0.001531	0.823148	0.218857
N319	N	-0.986560	0.220793	-1.070189
N320	N	-0.653227	0.554127	-0.736856
N321	N	-0.319894	0.887460	-0.403522
N322	N	-0.964542	0.180849	-1.106692
N323	N	-0.631209	0.514182	-0.773359
N324	N	-0.297876	0.847516	-0.440025
H325	H	-0.993464	0.151939	-1.130315
H326	H	-0.660130	0.485273	-0.796981
H327	H	-0.326797	0.818606	-0.463648
N328	N	-0.270006	0.382871	-0.220734
N329	N	0.063327	0.716204	0.112600
N330	N	0.396660	1.049538	0.445933
N331	N	-0.328429	0.382860	-0.220734
N332	N	0.004904	0.716194	0.112599
N333	N	0.338238	1.049527	0.445932
H334	H	-0.352014	0.411725	-0.191779
H335	H	-0.018681	0.745058	0.141554
H336	H	0.314652	1.078392	0.474887
N337	N	-0.791369	0.867874	-0.311776
N338	N	-0.458036	1.201207	0.021557
N339	N	-0.124703	1.534541	0.354891
N340	N	-0.740959	0.838692	-0.316141
N341	N	-0.407626	1.172025	0.017192
N342	N	-0.074292	1.505358	0.350525
H343	H	-0.700235	0.862316	-0.319673
H344	H	-0.366902	1.195650	0.013660
H345	H	-0.033568	1.528983	0.346993
N346	N	-0.791319	0.735621	-0.311761
N347	N	-0.457986	1.068954	0.021572
N348	N	-0.124652	1.402287	0.354906
N349	N	-0.740929	0.764877	-0.316129
N350	N	-0.407595	1.098211	0.017205
N351	N	-0.074262	1.431544	0.350538
H352	H	-0.700188	0.741313	-0.319655
H353	H	-0.366855	1.074647	0.013678
H354	H	-0.033522	1.407980	0.347012
H355	H	-0.832773	0.374508	-0.944619
H356	H	-0.499440	0.707841	-0.611286
H357	H	-0.166107	1.041175	-0.277952
H358	H	-0.832691	0.659221	-0.374494
H359	H	-0.499358	0.992554	-0.041161
H360	H	-0.166024	1.325888	0.292173
H361	H	-0.896494	0.404274	-0.861529
H362	H	-0.563160	0.737607	-0.528196
H363	H	-0.229827	1.070940	-0.194863
N364	N	-0.137734	0.382894	-0.220736
N365	N	0.195599	0.716227	0.112597
N366	N	0.528933	1.049561	0.445930
N367	N	-0.166921	0.418617	-0.184899
N368	N	0.166412	0.751950	0.148435
N369	N	0.499745	1.085283	0.481768
H370	H	-0.143301	0.447491	-0.155940
H371	H	0.190032	0.780824	0.177393
H372	H	0.523366	1.114158	0.510726
H373	H	-1.007918	0.860942	-0.293028
H374	H	-0.674584	1.194275	0.040305
H375	H	-0.341251	1.527609	0.373639
H376	H	-0.978264	0.229140	-0.944685
H377	H	-0.644931	0.562473	-0.611352
H378	H	-0.311598	0.895807	-0.278018
N379	N	-0.986578	0.937327	-0.220998
N380	N	-0.653245	1.270660	0.112335
N381	N	-0.319911	1.603993	0.445669
N382	N	-1.026479	0.900773	-0.243080
N383	N	-0.693146	1.234106	0.090254
N384	N	-0.359813	1.567440	0.423587
H385	H	-1.055406	0.877167	-0.214205
H386	H	-0.722073	1.210500	0.119128
H387	H	-0.388739	1.543834	0.452461
H388	H	-0.978310	1.062816	-0.229309
H389	H	-0.644977	1.396150	0.104024
H390	H	-0.311643	1.729483	0.437358
N391	N	-0.824337	0.533735	-0.382780
N392	N	-0.491004	0.867068	-0.049447
N393	N	-0.157670	1.200402	0.283886
N394	N	-0.788559	0.562962	-0.418528
N395	N	-0.455226	0.896295	-0.085195
N396	N	-0.121892	1.229629	0.248138
H397	H	-0.759629	0.539374	-0.447411
H398	H	-0.426295	0.872707	-0.114078
H399	H	-0.092962	1.206041	0.219256
H400	H	-0.978258	0.229283	-0.541049
H401	H	-0.644925	0.562617	-0.207715
H402	H	-0.311591	0.895950	0.125618
H403	H	-0.914547	0.199476	-0.742838
H404	H	-0.581214	0.532810	-0.409505
H405	H	-0.247880	0.866143	-0.076172
H406	H	-0.832770	0.374459	-1.063330
H407	H	-0.499436	0.707792	-0.729996
H408	H	-0.166103	1.041126	-0.396663
H409	H	-0.914547	0.199436	-0.861551
H410	H	-0.581214	0.532770	-0.528217
H411	H	-0.247880	0.866103	-0.194884
N412	N	-0.895451	0.416018	-0.736049
N413	N	-0.562117	0.749351	-0.402716
N414	N	-0.228784	1.082685	-0.069383
N415	N	-0.891011	0.466406	-0.765264
N416	N	-0.557677	0.799739	-0.431931
N417	N	-0.224344	1.133073	-0.098598
H418	H	-0.887417	0.507144	-0.741666
H419	H	-0.554083	0.840477	-0.408333
H420	H	-0.220750	1.173810	-0.075000
N421	N	-0.824458	0.382896	-0.666473
N422	N	-0.491124	0.716229	-0.333140
N423	N	-0.157791	1.049562	0.000194
N424	N	-0.824465	0.382872	-0.724896
N425	N	-0.491132	0.716205	-0.391562
N426	N	-0.157799	1.049538	-0.058229
H427	H	-0.795540	0.411759	-0.748493
H428	H	-0.462206	0.745093	-0.415159
H429	H	-0.128873	1.078426	-0.081826
