data_functionalizedCrystal
_audit_creation_method	'MofGen! by Chris Wilmer'
_symmetry_space_group_name_H-M	'P1'
_symmetry_Int_Tables_number	1
_symmetry_cell_setting	triclinic
loop_
_symmetry_equiv_pos_as_xyz
  x,y,z
_cell_length_a	11.169417
_cell_length_b	16.625546
_cell_length_c	11.169409
_cell_angle_alpha	89.961577
_cell_angle_beta	89.980487
_cell_angle_gamma	90.023717
loop_
_atom_site_label
_atom_site_type_symbol
_atom_site_fract_x
_atom_site_fract_y
_atom_site_fract_z
Zn1	Zn	1.834861	-0.320909	-0.678482
Zn2	Zn	2.168195	0.012424	-0.345149
Zn3	Zn	2.501528	0.345757	-0.011815
Zn4	Zn	1.834708	-0.455771	-0.477778
Zn5	Zn	2.168041	-0.122438	-0.144444
Zn6	Zn	2.501375	0.210895	0.188889
Zn7	Zn	1.634147	-0.320959	-0.477817
Zn8	Zn	1.967480	0.012374	-0.144484
Zn9	Zn	2.300814	0.345707	0.188849
Zn10	Zn	1.634112	-0.455707	-0.678424
Zn11	Zn	1.967445	-0.122373	-0.345090
Zn12	Zn	2.300779	0.210960	-0.011757
O13	O	1.734457	-0.388337	-0.578125
O14	O	2.067790	-0.055003	-0.244792
O15	O	2.401124	0.278330	0.088542
O16	O	2.002791	-0.338805	-0.651866
O17	O	2.336124	-0.005472	-0.318533
O18	O	2.669457	0.327861	0.014801
O19	O	1.808054	-0.437936	-0.309833
O20	O	2.141387	-0.104603	0.023500
O21	O	2.474720	0.228730	0.356834
O22	O	1.660851	-0.208120	-0.504477
O23	O	1.994184	0.125213	-0.171144
O24	O	2.327518	0.458546	0.162189
O25	O	2.002678	-0.437888	-0.504409
O26	O	2.336011	-0.104555	-0.171076
O27	O	2.669345	0.228779	0.162257
O28	O	1.808315	-0.208084	-0.651905
O29	O	2.141648	0.125250	-0.318571
O30	O	2.474981	0.458583	0.014762
O31	O	1.660702	-0.338891	-0.309862
O32	O	1.994036	-0.005557	0.023471
O33	O	2.327369	0.327776	0.356804
O34	O	1.466193	-0.338828	-0.504421
O35	O	1.799526	-0.005495	-0.171087
O36	O	2.132859	0.327839	0.162246
O37	O	1.660791	-0.437778	-0.846381
O38	O	1.994125	-0.104444	-0.513048
O39	O	2.327458	0.228889	-0.179714
O40	O	1.466167	-0.437826	-0.651805
O41	O	1.799500	-0.104493	-0.318472
O42	O	2.132834	0.228841	0.014862
O43	O	1.808281	-0.338743	-0.846424
O44	O	2.141614	-0.005409	-0.513091
O45	O	2.474947	0.327924	-0.179757
O46	O	1.808020	-0.568595	-0.504353
O47	O	2.141353	-0.235262	-0.171019
O48	O	2.474687	0.098071	0.162314
O49	O	1.660643	-0.568548	-0.651766
O50	O	1.993976	-0.235214	-0.318433
O51	O	2.327310	0.098119	0.014900
C52	C	1.422632	-0.388326	-0.578111
C53	C	1.755966	-0.054993	-0.244778
C54	C	2.089299	0.278341	0.088555
C55	C	1.289232	-0.388341	-0.578134
C56	C	1.622566	-0.055007	-0.244801
C57	C	1.955899	0.278326	0.088533
C58	C	1.734344	-0.597828	-0.578075
C59	C	2.067677	-0.264494	-0.244742
C60	C	2.401010	0.068839	0.088592
C61	C	1.734405	-0.687449	-0.578094
C62	C	2.067738	-0.354115	-0.244760
C63	C	2.401071	-0.020782	0.088573
C64	C	1.734614	-1.015624	-0.578219
C65	C	2.067947	-0.682291	-0.244885
C66	C	2.401281	-0.348958	0.088448
C67	C	1.734552	-0.924316	-0.578187
C68	C	2.067885	-0.590983	-0.244854
C69	C	2.401219	-0.257649	0.088480
C70	C	1.734508	-0.851539	-0.578155
C71	C	2.067842	-0.518206	-0.244822
C72	C	2.401175	-0.184873	0.088511
C73	C	1.734448	-0.760225	-0.578125
C74	C	2.067782	-0.426892	-0.244792
C75	C	2.401115	-0.093559	0.088541
C76	C	2.047499	-0.388348	-0.578140
C77	C	2.380833	-0.055015	-0.244806
C78	C	2.714166	0.278318	0.088527
C79	C	2.180899	-0.388353	-0.578146
C80	C	2.514233	-0.055020	-0.244812
C81	C	2.847566	0.278313	0.088521
C82	C	1.734549	-0.388247	-0.891168
C83	C	2.067883	-0.054914	-0.557834
C84	C	2.401216	0.278419	-0.224501
C85	C	1.734589	-0.388209	-1.024568
C86	C	2.067922	-0.054876	-0.691235
C87	C	2.401255	0.278458	-0.357901
C88	C	1.734604	-0.178028	-0.578202
C89	C	2.067937	0.155305	-0.244869
C90	C	2.401270	0.488639	0.088465
C91	C	1.734666	-0.088407	-0.578235
C92	C	2.068000	0.244927	-0.244901
C93	C	2.401333	0.578260	0.088432
C94	C	1.734434	-0.388368	-0.266300
C95	C	2.067768	-0.055034	0.067033
C96	C	2.401101	0.278299	0.400366
C97	C	1.734628	-0.388179	-0.132901
C98	C	2.067961	-0.054845	0.200432
C99	C	2.401294	0.278488	0.533766
