data_functionalizedCrystal
_audit_creation_method	'MofGen! by Chris Wilmer'
_symmetry_space_group_name_H-M	'P1'
_symmetry_Int_Tables_number	1
_symmetry_cell_setting	triclinic
loop_
_symmetry_equiv_pos_as_xyz
  x,y,z
_cell_length_a	19.188930
_cell_length_b	14.519709
_cell_length_c	12.996460
_cell_angle_alpha	90.007090
_cell_angle_beta	89.980533
_cell_angle_gamma	96.587538
loop_
_atom_site_label
_atom_site_type_symbol
_atom_site_fract_x
_atom_site_fract_y
_atom_site_fract_z
O1	O	0.926556	-0.115137	-0.085900
O2	O	0.723300	-0.130636	-0.085830
O3	O	0.830317	0.011385	-0.085857
O4	O	0.819539	-0.257159	-0.085872
O5	O	0.830306	0.011393	0.085276
O6	O	0.723288	-0.130629	0.085304
O7	O	0.926545	-0.115129	0.085234
Cu8	Cu	0.824915	-0.122878	0.100895
Cu9	Cu	0.824929	-0.122887	-0.101491
O10	O	0.819527	-0.257151	0.085262
C11	C	0.697281	-0.130131	-0.000254
C12	C	0.619771	-0.128624	-0.000227
N13	N	0.824911	-0.122871	0.243242
C14	C	0.829809	0.045746	-0.000290
C15	C	0.828304	0.148118	-0.000289
C16	C	0.575144	-0.211957	-0.000247
C17	C	0.502315	-0.210542	-0.000259
C18	C	0.474117	-0.125788	-0.000270
C19	C	0.518754	-0.042444	-0.000243
C20	C	0.591581	-0.043861	-0.000222
N21	N	0.365910	-0.061007	-0.058552
N22	N	0.296727	-0.059666	-0.058575
C23	C	0.254693	-0.121511	-0.000332
N24	N	0.284455	-0.184762	0.057920
N25	N	0.353645	-0.186106	0.057938
C26	C	0.395149	-0.124241	-0.000292
C27	C	0.131096	-0.203315	-0.000364
C28	C	0.058266	-0.201896	-0.000369
C29	C	0.074706	-0.033796	-0.000364
C30	C	0.147535	-0.035217	-0.000348
C31	C	0.175725	-0.119980	-0.000353
C32	C	0.952563	-0.115635	-0.000344
C33	C	1.030073	-0.117142	-0.000378
C34	C	0.820035	-0.291511	-0.000308
C35	C	0.821541	-0.393883	-0.000316
C36	C	0.822762	0.522979	-0.000314
C37	C	0.824301	0.418681	-0.000307
C38	C	0.825533	0.335552	-0.000300
C39	C	0.827072	0.231247	-0.000295
N40	N	0.824938	-0.122887	-0.243838
C41	C	0.824928	-0.122888	0.663056
C42	C	0.824921	-0.122887	0.546251
C43	C	0.824920	-0.122880	0.453153
C44	C	0.824913	-0.122877	0.336340
H45	H	0.598091	-0.280978	-0.000253
H46	H	0.627917	0.024001	-0.000205
H47	H	0.183871	0.032642	-0.000337
H48	H	0.465973	-0.278404	-0.000273
O49	O	0.491332	0.039863	-0.000440
C50	C	0.449718	0.045699	-0.089073
H51	H	0.467026	-0.002425	-0.151016
H52	H	0.392308	0.024193	-0.069056
C53	C	0.437176	0.205239	-0.053177
C54	C	0.458437	0.146138	-0.129260
H55	H	0.442551	0.267194	-0.077965
H56	H	0.465209	0.201307	0.006539
H57	H	0.389335	0.187306	-0.036503
H58	H	0.506279	0.164064	-0.145924
H59	H	0.430412	0.150075	-0.188981
H60	H	0.021931	-0.269760	-0.000380
O61	O	0.158369	-0.285730	-0.000312
C62	C	0.103359	-0.358982	-0.000348
H63	H	0.053844	-0.333329	0.032041
H64	H	0.093112	-0.384679	-0.082452
C65	C	0.184810	-0.470443	0.026989
C66	C	0.123997	-0.438939	0.066778
H67	H	0.197541	-0.519767	0.068390
H68	H	0.221873	-0.421093	0.027009
H69	H	0.176264	-0.491851	-0.041430
H70	H	0.132547	-0.417520	0.135190
H71	H	0.086936	-0.488287	0.066770
H72	H	0.051748	0.035213	-0.000437
