data_functionalizedCrystal
_audit_creation_method	'MofGen! by Chris Wilmer'
_symmetry_space_group_name_H-M	'P1'
_symmetry_Int_Tables_number	1
_symmetry_cell_setting	triclinic
loop_
_symmetry_equiv_pos_as_xyz
  x,y,z
_cell_length_a	10.967926
_cell_length_b	11.026660
_cell_length_c	9.730223
_cell_angle_alpha	89.999666
_cell_angle_beta	102.128227
_cell_angle_gamma	83.620037
loop_
_atom_site_label
_atom_site_type_symbol
_atom_site_fract_x
_atom_site_fract_y
_atom_site_fract_z
O1	O	-0.523477	1.614504	-0.238262
O2	O	-0.463870	1.260704	-0.224147
O3	O	-0.313860	1.445765	-0.188616
O4	O	-0.673486	1.429443	-0.273794
O5	O	-0.313865	1.445763	0.039963
O6	O	-0.463874	1.260702	0.004432
O7	O	-0.523481	1.614502	-0.009683
Zn8	Zn	-0.493678	1.437602	0.033666
Zn9	Zn	-0.493673	1.437604	-0.267497
O10	O	-0.673491	1.429441	-0.045215
C11	C	-0.452875	1.215401	-0.107254
C12	C	-0.420094	1.080415	-0.099491
C13	C	-0.476740	0.867846	-0.112912
C14	C	-0.510624	1.007361	-0.120934
C15	C	-0.720244	1.430630	-0.170578
C16	C	-0.859564	1.434183	-0.203576
C17	C	-0.921680	1.435767	-0.099877
C18	C	-1.065674	1.439440	-0.133980
C19	C	-0.267107	1.444576	-0.063255
C20	C	-0.127787	1.441023	-0.030266
C21	C	-0.534476	1.659805	-0.126580
C22	C	-0.567257	1.794791	-0.134352
N23	N	-0.493683	1.437609	0.239201
N24	N	-0.493660	1.437607	-0.473030
C25	C	-0.427293	1.519575	0.326852
C26	C	-0.427277	1.519572	0.470739
C27	C	-0.560053	1.355632	0.439308
C28	C	-0.560061	1.355630	0.295426
C29	C	-0.350640	1.614228	0.344999
C30	C	-0.350624	1.614225	0.488886
H31	H	-0.613211	1.048098	-0.145223
H32	H	-0.614108	1.288877	0.224063
N33	N	-1.136457	1.441232	-0.285020
H34	H	-1.120549	1.515882	-0.335781
H35	H	-1.106934	1.365363	-0.332422
H36	H	-0.868256	1.434397	0.014150
H37	H	-0.374160	0.827105	-0.088595
N38	N	-0.284203	1.026473	-0.067294
H39	H	-0.279255	0.934455	-0.066122
H40	H	-0.241230	1.054500	-0.141852
N41	N	-1.057044	1.439205	0.120791
H42	H	-0.964207	1.436836	0.123745
H43	H	-1.086645	1.515023	0.168226
H44	H	-0.912987	1.435537	-0.317604
H45	H	-0.669837	0.835533	-0.158639
N46	N	-0.631638	1.267213	0.499952
H47	H	-0.621557	1.279647	0.604403
H48	H	-0.723491	1.281985	0.453061
H49	H	-0.250249	1.593484	0.329722
N50	N	-0.416110	1.731139	0.270364
H51	H	-0.447737	1.787629	0.340130
H52	H	-0.355127	1.771902	0.226348
N53	N	-0.222122	1.575151	0.578424
H54	H	-0.191938	1.489714	0.553546
H55	H	-0.161635	1.633066	0.560683
H56	H	-0.392154	1.707649	0.518101
