data_functionalizedCrystal
_audit_creation_method	'MofGen! by Chris Wilmer'
_symmetry_space_group_name_H-M	'P1'
_symmetry_Int_Tables_number	1
_symmetry_cell_setting	triclinic
loop_
_symmetry_equiv_pos_as_xyz
  x,y,z
_cell_length_a	16.704494
_cell_length_b	12.970454
_cell_length_c	12.970454
_cell_angle_alpha	60.000396
_cell_angle_beta	90.000252
_cell_angle_gamma	56.632239
loop_
_atom_site_label
_atom_site_type_symbol
_atom_site_fract_x
_atom_site_fract_y
_atom_site_fract_z
Zr1	Zr	0.815202	1.020720	-0.081386
O2	O	0.680086	1.253674	-0.254942
O3	O	0.856622	0.800155	-0.028183
O4	O	0.856624	1.015242	-0.243271
O5	O	0.680083	1.038587	0.129812
O6	O	0.995880	0.996829	-0.234063
O7	O	0.680084	1.038586	-0.039854
O8	O	0.995877	0.612076	0.150690
O9	O	0.680086	1.423340	-0.254941
O10	O	0.978213	0.872546	0.001381
O11	O	0.874287	0.886289	0.121129
O12	O	0.874289	1.139527	-0.132109
O13	O	0.770363	1.153269	-0.012361
Zr14	Zr	1.037298	0.991355	0.203898
Zr15	Zr	1.037300	0.991353	-0.066700
Zr16	Zr	0.815200	1.020722	0.189212
Zr17	Zr	0.815203	1.291318	-0.081384
Zr18	Zr	1.037298	0.720757	0.203896
O19	O	0.995879	1.211920	0.150695
O20	O	0.995881	1.211918	-0.234061
O21	O	0.680084	1.253676	0.129814
O22	O	1.172414	0.758401	0.377454
O23	O	1.172417	0.758398	-0.007302
O24	O	0.856620	0.800157	0.356573
O25	O	1.172417	0.973487	-0.007300
O26	O	0.995877	0.996833	0.365783
O27	O	0.856620	1.015246	0.356575
O28	O	1.172416	0.973488	0.162366
O29	O	0.856625	1.399997	-0.243268
O30	O	0.995876	0.612078	0.365780
O31	O	1.172414	0.588735	0.377453
O32	O	1.172415	0.588734	0.162363
O33	O	0.680085	1.423341	-0.039851
O34	O	0.856624	1.399998	-0.028178
O35	O	0.978212	0.872548	0.254621
O36	O	1.082138	0.858806	0.134873
O37	O	0.978214	1.125786	0.001383
O38	O	0.874287	1.139528	0.121131
C39	C	0.926249	0.667561	0.061253
C40	C	0.926249	0.552685	0.061252
C41	C	0.648439	1.042771	0.042886
C42	C	0.554153	1.055238	0.036652
C43	C	0.485484	0.799913	0.164331
C44	C	0.396896	0.811619	0.158476
C45	C	0.288389	1.090357	0.019097
C46	C	0.376977	1.078650	0.024951
C47	C	0.475523	0.933423	0.097569
C48	C	0.564112	0.921718	0.103415
C49	C	0.455604	1.200454	-0.035956
C50	C	0.367016	1.212161	-0.041811
C51	C	1.204061	0.969304	0.079626
C52	C	1.298347	0.956837	0.085860
C53	C	0.926252	1.006035	-0.277221
C54	C	0.926253	1.006035	-0.392098
C55	C	0.926251	1.344514	0.061259
C56	C	0.926252	1.459389	0.061260
C57	C	0.926248	1.006039	0.399733
C58	C	0.926248	1.006040	0.514609
C59	C	1.204060	0.630827	0.079623
C60	C	1.298346	0.503485	0.085856
C61	C	0.926247	0.667563	0.399730
C62	C	0.926246	0.552688	0.514606
C63	C	1.204058	0.630829	0.418100
C64	C	1.298344	0.503487	0.539210
C65	C	0.648442	1.381245	-0.295588
C66	C	0.554157	1.508587	-0.416698
C67	C	0.648440	1.381247	0.042889
C68	C	0.554154	1.508590	0.036656
C69	C	0.926253	1.344512	-0.277218
C70	C	0.926254	1.459387	-0.392094
C71	C	1.288376	0.450856	0.019091
C72	C	1.376960	0.331220	0.024922
C73	C	1.475512	0.264207	0.097527
C74	C	1.485480	0.316847	0.164294
C75	C	1.396897	0.436488	0.158455
C76	C	1.396879	0.436512	0.533577
C77	C	1.485478	0.316874	0.647363
C78	C	1.475541	0.264207	0.766779
C79	C	1.376995	0.331195	0.772409
C80	C	1.288398	0.450838	0.658625
C81	C	0.455622	1.575576	-0.411065
C82	C	0.367022	1.695247	-0.524851
C83	C	0.376960	1.747920	-0.644267
C84	C	0.475505	1.680925	-0.649897
C85	C	0.564103	1.561264	-0.536113
C86	C	0.564124	1.561230	0.103410
C87	C	0.475541	1.680896	0.097549
C88	C	0.376989	1.747912	0.024940
C89	C	0.367021	1.695267	-0.041822
C90	C	0.455603	1.575611	-0.035967
H91	H	0.565723	0.681663	0.223467
C92	C	1.583875	0.314598	0.301505
C93	C	1.593814	0.243158	0.244119
H94	H	1.650758	0.269098	0.350787
H95	H	1.547060	0.301780	0.356108
H96	H	1.547079	0.421367	0.236532
H97	H	1.630603	0.136390	0.309093
H98	H	1.630645	0.255963	0.189512
H99	H	0.447471	1.532756	-0.090324
H100	H	0.286791	1.749776	-0.520242
C101	C	0.683823	1.600388	-0.607706
C102	C	0.672406	1.487644	-0.542337
H103	H	0.750680	1.554947	-0.611566
H104	H	0.676084	1.643477	-0.563347
H105	H	0.632457	1.679191	-0.692546
H106	H	0.723768	1.408846	-0.457493
H107	H	0.680155	1.444531	-0.586694
C108	C	0.748092	0.780001	0.174275
C109	C	0.672435	0.762090	0.183236
H110	H	0.814965	0.681449	0.223551
H111	H	0.740315	0.835344	0.206394
H112	H	0.740314	0.835337	0.086801
H113	H	0.680209	0.706763	0.270710
H114	H	0.680216	0.706723	0.151123
C115	C	0.513051	0.534927	0.296826
C116	C	0.407845	0.664861	0.231857
H117	H	0.519810	0.444323	0.342124
H118	H	0.545341	0.536164	0.356003
H119	H	0.545347	0.536165	0.236406
H120	H	0.375551	0.663629	0.292278
H121	H	0.375542	0.663623	0.172674
H122	H	0.208141	1.208593	-0.040007
C123	C	0.662469	1.559085	0.240566
C124	C	0.672446	1.487584	0.183227
H125	H	0.729342	1.513631	0.289835
H126	H	0.625659	1.546262	0.295175
H127	H	0.625654	1.665854	0.175569
H128	H	0.709255	1.380817	0.248225
H129	H	0.709273	1.500393	0.128615
H130	H	0.483677	1.723739	0.151921
H131	H	1.208169	0.505356	0.663228
H132	H	0.304809	1.845356	-0.736908
C133	C	1.309311	0.613468	0.211436
C134	C	1.407866	0.494308	0.231873
H135	H	1.316091	0.649159	0.256762
H136	H	1.272508	0.576227	0.241632
H137	H	1.272504	0.695842	0.122050
H138	H	1.444671	0.411929	0.321259
H139	H	1.444685	0.531545	0.201684
C140	C	0.183052	1.885059	-0.112637
C141	C	0.258686	1.768931	-0.121619
H142	H	0.116170	1.930524	-0.161889
H143	H	0.190831	1.961502	-0.144772
H144	H	0.190852	1.841897	-0.025157
H145	H	0.250890	1.812095	-0.209099
H146	H	0.250903	1.692475	-0.089489
H147	H	0.304868	1.845343	0.020184
H148	H	1.404990	0.479374	0.436353
H149	H	0.483585	1.723827	-0.747139
C150	C	0.204454	1.387001	-0.217398
C151	C	0.258690	1.371786	-0.121637
H152	H	0.137581	1.485553	-0.266687
H153	H	0.197710	1.309169	-0.178465
H154	H	0.241283	1.376627	-0.272000
H155	H	0.221864	1.382149	-0.067029
H156	H	0.265430	1.449641	-0.160572
C157	C	0.543216	1.306285	-0.088864
C158	C	0.444651	1.347222	-0.109337
H159	H	0.536453	1.396893	-0.134160
H160	H	0.580017	1.247117	-0.119074
H161	H	0.580018	1.247103	0.000529
H162	H	0.407853	1.406395	-0.198729
H163	H	0.407836	1.406416	-0.079133
H164	H	1.208138	0.505416	-0.040047
C165	C	1.583792	0.314727	0.512306
C166	C	1.593791	0.243243	0.641154
H167	H	1.650659	0.269263	0.508474
H168	H	1.546982	0.421485	0.470523
H169	H	1.546968	0.301887	0.470545
H170	H	1.630609	0.256092	0.682913
H171	H	1.630617	0.136459	0.682955
H172	H	1.368919	0.288296	0.869653
C173	C	0.339473	1.601820	-0.298924
C174	C	0.444679	1.517717	-0.279812
H175	H	0.332714	1.566118	-0.217895
H176	H	0.307171	1.588392	-0.345894
H177	H	0.307190	1.707991	-0.345927
H178	H	0.476961	1.411547	-0.232816
H179	H	0.476994	1.531132	-0.232821
H180	H	1.547633	0.166788	0.102272
H181	H	1.368823	0.288376	-0.029449
H182	H	1.547691	0.166785	0.859420
