data_functionalizedCrystal
_audit_creation_method	'MofGen! by Chris Wilmer'
_symmetry_space_group_name_H-M	'P1'
_symmetry_Int_Tables_number	1
_symmetry_cell_setting	triclinic
loop_
_symmetry_equiv_pos_as_xyz
  x,y,z
_cell_length_a	6.817900
_cell_length_b	15.300912
_cell_length_c	17.284648
_cell_angle_alpha	91.832575
_cell_angle_beta	103.040472
_cell_angle_gamma	104.173621
loop_
_atom_site_label
_atom_site_type_symbol
_atom_site_fract_x
_atom_site_fract_y
_atom_site_fract_z
V1	V	-4.014028	-0.107414	-0.245969
O2	O	-3.998246	0.022992	-0.241041
O3	O	-3.969034	-0.230132	-0.244524
O4	O	-3.958521	-0.097938	-0.353137
O5	O	-4.008832	-0.110117	-0.131676
V6	V	-4.498135	-0.092740	-0.232270
O7	O	-4.274004	-0.139602	-0.276020
O8	O	-4.688356	-0.060552	-0.202220
O9	O	-4.319922	0.029978	-0.233716
O10	O	-4.631314	-0.223146	-0.237198
O11	O	-4.620728	-0.090037	-0.346564
O12	O	-4.330435	-0.102216	-0.125102
C13	C	-3.815093	-0.260293	-0.240704
C14	C	-3.859545	-0.360566	-0.240237
C15	C	-4.233079	-0.796795	-0.242165
C16	C	-4.191293	-0.702576	-0.242599
C17	C	-3.988422	-0.651158	-0.238880
C18	C	-3.827322	-0.693963	-0.234717
C19	C	-3.869106	-0.788179	-0.234278
C20	C	-3.740245	-0.497587	-0.235636
C21	C	-3.698458	-0.403364	-0.236077
C22	C	-4.062432	-0.411984	-0.243958
C23	C	-4.104216	-0.506201	-0.243518
C24	C	-3.943113	-0.548999	-0.239357
C25	C	-3.801682	-0.091665	-0.379251
C26	C	-3.837606	-0.084729	-0.466862
C27	C	-3.896212	-0.163241	-0.519436
C28	C	-3.929974	-0.156723	-0.601756
C29	C	-3.905114	-0.071691	-0.631502
C30	C	-3.846508	0.006827	-0.578922
C31	C	-3.812762	0.000307	-0.496603
C32	C	-4.001579	-0.043425	-0.876474
C33	C	-4.035325	-0.036911	-0.958799
C34	C	-4.118793	-0.200462	-0.981628
C35	C	-4.085030	-0.206974	-0.899306
C36	C	-4.026438	-0.128456	-0.846734
N37	N	-3.939616	-0.065026	-0.715646
N38	N	-3.991951	-0.135122	-0.762592
C39	C	-4.137205	0.060134	-0.237533
C40	C	-4.071991	0.160407	-0.238006
C41	C	-4.150616	-0.108493	-0.098985
C42	C	-4.093932	-0.115424	-0.011372
H43	H	-3.916445	-0.232483	-0.495224
H44	H	-4.193606	-0.377134	-0.247344
H45	H	-3.765042	0.064241	-0.453798
N46	N	-4.111874	-0.298689	-0.867229
H47	H	-4.081600	-0.290905	-0.807103
H48	H	-4.012244	-0.330393	-0.883866
N49	N	-4.181995	-0.285145	-1.038329
H50	H	-4.199607	-0.268117	-1.094992
H51	H	-4.318080	-0.324859	-1.031660
N52	N	-4.323027	-0.561663	-0.247538
H53	H	-4.418746	-0.520256	-0.250239
H54	H	-4.323900	-0.595647	-0.198426
N55	N	-3.479644	-0.347905	-0.232056
H56	H	-3.477630	-0.281727	-0.232971
H57	H	-3.431851	-0.367788	-0.279357
H58	H	-3.609057	-0.532430	-0.232255
N59	N	-4.008518	0.054805	-0.990884
H60	H	-3.966286	0.103558	-0.945089
H61	H	-4.144462	0.058195	-1.027281
N62	N	-3.608504	-0.638514	-0.230705
H63	H	-3.558665	-0.593933	-0.181615
H64	H	-3.607602	-0.604589	-0.279849
H65	H	-3.953873	0.020510	-0.833679
N66	N	-4.451895	-0.852250	-0.246184
H67	H	-4.547599	-0.810837	-0.248884
H68	H	-4.452775	-0.886235	-0.197073
H69	H	-3.826281	0.076061	-0.603147
H70	H	-3.737932	-0.823024	-0.230897
H71	H	-3.977703	-0.220657	-0.644559
H72	H	-4.322473	-0.667735	-0.245989
