data_functionalizedCrystal
_audit_creation_method	'MofGen! by Chris Wilmer'
_symmetry_space_group_name_H-M	'P1'
_symmetry_Int_Tables_number	1
_symmetry_cell_setting	triclinic
loop_
_symmetry_equiv_pos_as_xyz
  x,y,z
_cell_length_a	12.645330
_cell_length_b	12.645331
_cell_length_c	12.645323
_cell_angle_alpha	89.985932
_cell_angle_beta	90.025653
_cell_angle_gamma	89.989462
loop_
_atom_site_label
_atom_site_type_symbol
_atom_site_fract_x
_atom_site_fract_y
_atom_site_fract_z
Zn1	Zn	-0.422083	-1.620770	0.599197
Zn2	Zn	0.077917	-1.120770	1.099197
Zn3	Zn	-0.599371	-1.620668	0.421935
Zn4	Zn	-0.099371	-1.120668	0.921935
Zn5	Zn	-0.422117	-1.443485	0.421968
Zn6	Zn	0.077883	-0.943485	0.921968
Zn7	Zn	-0.599299	-1.443483	0.599177
Zn8	Zn	-0.099299	-0.943483	1.099177
O9	O	-0.510718	-1.532102	0.510569
O10	O	-0.010718	-1.032102	1.010569
O11	O	-0.445617	-1.769104	0.575677
O12	O	0.054383	-1.269104	1.075677
O13	O	-0.575902	-1.597123	0.273592
O14	O	-0.075902	-1.097123	0.773592
O15	O	-0.273765	-1.467046	0.445500
O16	O	0.226235	-0.967046	0.945500
O17	O	-0.575870	-1.769029	0.445443
O18	O	-0.075870	-1.269029	0.945443
O19	O	-0.273740	-1.597296	0.575710
O20	O	0.226260	-1.097296	1.075710
O21	O	-0.445674	-1.466947	0.273616
O22	O	0.054326	-0.966947	0.773616
O23	O	-0.445604	-1.295137	0.445481
O24	O	0.054396	-0.795137	0.945481
O25	O	-0.575747	-1.467042	0.747527
O26	O	-0.075747	-0.967042	1.247527
O27	O	-0.575780	-1.295136	0.575675
O28	O	-0.075780	-0.795136	1.075675
O29	O	-0.445547	-1.597295	0.747542
O30	O	0.054453	-1.097295	1.247542
O31	O	-0.747709	-1.597121	0.445424
O32	O	-0.247709	-1.097121	0.945424
O33	O	-0.747656	-1.466944	0.575643
O34	O	-0.247656	-0.966944	1.075643
C35	C	-0.510688	-1.256672	0.510580
C36	C	-0.010688	-0.756672	1.010580
C37	C	-0.510701	-1.138842	0.510610
C38	C	-0.010701	-0.638842	1.010610
C39	C	-0.593041	-0.971312	0.592093
C40	C	-0.093041	-0.471312	1.092093
C41	C	-0.592777	-1.093872	0.592430
C42	C	-0.092777	-0.593872	1.092430
C43	C	-0.399046	-1.094353	0.541134
C44	C	0.100954	-0.594353	1.041134
C45	C	-0.399546	-0.971755	0.541711
C46	C	0.100454	-0.471755	1.041711
C47	C	-0.539112	-0.971599	0.398355
C48	C	-0.039112	-0.471599	0.898355
C49	C	-0.541556	-1.094205	0.398957
C50	C	-0.041556	-0.594205	0.898957
C51	C	-0.786147	-1.532050	0.510551
C52	C	-0.286147	-1.032050	1.010551
C53	C	-0.903977	-1.532125	0.510578
C54	C	-0.403977	-1.032125	1.010578
C55	C	-0.948848	-1.614113	0.428728
C56	C	-0.448848	-1.114113	0.928728
C57	C	-1.071408	-1.613925	0.428436
C58	C	-0.571408	-1.113925	0.928436
C59	C	-1.071980	-1.420408	0.480574
C60	C	-0.571980	-0.920408	0.980574
C61	C	-0.949383	-1.420829	0.479951
C62	C	-0.449383	-0.920829	0.979951
C63	C	-0.949058	-1.560988	0.622699
C64	C	-0.449058	-1.060988	1.122699
C65	C	-1.071663	-1.563506	0.622131
C66	C	-0.571663	-1.063506	1.122131
C67	C	-0.234212	-1.532183	0.510611
C68	C	0.265788	-1.032183	1.010611
C69	C	-0.116382	-1.532217	0.510629
C70	C	0.383618	-1.032217	1.010629
C71	C	-0.510636	-1.532180	0.787075
C72	C	-0.010636	-1.032180	1.287075
C73	C	-0.510601	-1.532213	0.904905
C74	C	-0.010601	-1.032213	1.404905
C75	C	-0.510743	-0.808607	0.510566
C76	C	-0.010743	-0.308607	1.010566
C77	C	-0.510742	-0.926437	0.510584
C78	C	-0.010742	-0.426437	1.010584
C79	C	-0.510723	-1.532085	0.235139
C80	C	-0.010723	-1.032085	0.735139
C81	C	-0.510459	-1.532257	0.117310
C82	C	-0.010459	-1.032257	0.617310
C83	C	-0.592123	-1.450018	1.072459
C84	C	-0.092123	-0.950018	1.572459
C85	C	-0.592527	-1.450234	0.949899
C86	C	-0.092527	-0.950234	1.449899
C87	C	-0.540923	-1.643915	0.949407
C88	C	-0.040923	-1.143915	1.449407
C89	C	-0.541434	-1.643465	1.072006
C90	C	-0.041434	-1.143465	1.572006
C91	C	-0.398300	-1.503761	1.072108
C92	C	0.101700	-1.003761	1.572108
C93	C	-0.398973	-1.501269	0.949502
C94	C	0.101027	-1.001269	1.449502
H95	H	-0.479165	-0.942576	0.337623
H96	H	0.020835	-0.442576	0.837623
H97	H	-0.334911	-1.556791	0.918873
H98	H	0.165089	-1.056791	1.418873
H99	H	-0.623424	-1.667617	1.100612
H100	H	-0.123424	-1.167617	1.600612
H101	H	-1.100676	-1.645788	0.644798
H102	H	-0.600676	-1.145788	1.144798
H103	H	-0.619141	-0.940684	0.370613
H104	H	-0.119141	-0.440684	0.870613
F105	F	-0.318773	-1.582052	1.110019
F106	F	0.181227	-1.082052	1.610019
H107	H	-0.918062	-1.641103	0.650091
H108	H	-0.418062	-1.141103	1.150091
F109	F	-1.110647	-1.722275	0.452987
F110	F	-0.610647	-1.222275	0.952987
H111	H	-0.483324	-1.706833	0.920263
H112	H	0.016676	-1.206833	1.420263
F113	F	-0.316717	-1.132426	0.465963
F114	F	0.183283	-0.632426	0.965963
H115	H	-0.336029	-0.942069	0.485066
H116	H	0.163971	-0.442069	0.985066
H117	H	-0.623718	-1.123295	0.375935
H118	H	-0.123718	-0.623295	0.875935
F119	F	-0.701009	-1.133192	0.567460
F120	F	-0.201009	-0.633192	1.067460
F121	F	-0.367019	-1.134507	0.647208
F122	F	0.132981	-0.634507	1.147208
F123	F	-0.567556	-1.341427	1.110990
F124	F	-0.067556	-0.841427	1.610990
F125	F	-0.468888	-1.134209	0.315314
F126	F	0.031112	-0.634209	0.815314
H127	H	-0.676113	-0.941829	0.573175
H128	H	-0.176113	-0.441829	1.073175
H129	H	-0.574509	-0.940520	0.674767
H130	H	-0.074509	-0.440520	1.174767
F131	F	-0.646967	-1.676028	0.909291
F132	F	-0.146967	-1.176028	1.409291
H133	H	-0.370661	-1.423726	1.103025
H134	H	0.129339	-0.923726	1.603025
H135	H	-0.918111	-1.595221	0.346125
H136	H	-0.418111	-1.095221	0.846125
H137	H	-0.919306	-1.697245	0.447276
H138	H	-0.419306	-1.197245	0.947276
F139	F	-0.910585	-1.338243	0.554501
F140	F	-0.410585	-0.838243	1.054501
F141	F	-0.368096	-0.934400	0.648949
F142	F	0.131904	-0.434400	1.148949
F143	F	-0.568238	-1.132236	0.701120
F144	F	-0.068238	-0.632236	1.201120
F145	F	-1.109849	-1.588955	0.319868
F146	F	-0.609849	-1.088955	0.819868
F147	F	-0.912107	-1.388905	0.372839
F148	F	-0.412107	-0.888905	0.872839
H149	H	-1.101114	-1.357681	0.538373
H150	H	-0.601114	-0.857681	1.038373
F151	F	-1.112213	-1.387968	0.374654
F152	F	-0.612213	-0.887968	0.874654
H153	H	-1.102272	-1.508197	0.686373
H154	H	-0.602272	-1.008197	1.186373
F155	F	-0.911110	-1.482954	0.702411
F156	F	-0.411110	-0.982954	1.202411
F157	F	-0.567720	-1.341969	0.910567
F158	F	-0.067720	-0.841969	1.410567
H159	H	-0.674752	-1.468647	1.103274
H160	H	-0.174752	-0.968647	1.603274
F161	F	-0.701197	-1.474872	0.911574
F162	F	-0.201197	-0.974872	1.411574
H163	H	-0.376106	-1.419066	0.920416
H164	H	0.123894	-0.919066	1.420416
F165	F	-0.467017	-1.726225	1.110790
F166	F	0.032983	-1.226225	1.610790
