data_functionalizedCrystal
_audit_creation_method	'MofGen! by Chris Wilmer'
_symmetry_space_group_name_H-M	'P1'
_symmetry_Int_Tables_number	1
_symmetry_cell_setting	triclinic
loop_
_symmetry_equiv_pos_as_xyz
  x,y,z
_cell_length_a	18.050590
_cell_length_b	18.050590
_cell_length_c	18.050583
_cell_angle_alpha	89.962959
_cell_angle_beta	89.999666
_cell_angle_gamma	90.007719
loop_
_atom_site_label
_atom_site_type_symbol
_atom_site_fract_x
_atom_site_fract_y
_atom_site_fract_z
Zn1	Zn	1.135350	-0.295821	-0.419598
Zn2	Zn	1.635350	0.204179	0.080402
Zn3	Zn	1.135280	-0.420034	-0.295406
Zn4	Zn	1.635280	0.079966	0.204594
Zn5	Zn	1.011167	-0.295839	-0.295456
Zn6	Zn	1.511167	0.204161	0.204544
Zn7	Zn	1.011139	-0.419950	-0.419589
Zn8	Zn	1.511139	0.080050	0.080411
O9	O	1.073234	-0.357911	-0.357512
O10	O	1.573234	0.142089	0.142488
O11	O	1.239266	-0.312326	-0.403106
O12	O	1.739266	0.187674	0.096894
O13	O	1.118798	-0.403602	-0.191488
O14	O	1.618798	0.096398	0.308512
O15	O	1.027682	-0.191912	-0.311948
O16	O	1.527682	0.308088	0.188052
O17	O	1.239214	-0.403585	-0.311863
O18	O	1.739214	0.096415	0.188137
O19	O	1.118919	-0.191899	-0.403155
O20	O	1.618919	0.308101	0.096845
O21	O	1.027613	-0.312356	-0.191525
O22	O	1.527613	0.187644	0.308475
O23	O	0.907239	-0.312275	-0.311939
O24	O	1.407239	0.187725	0.188061
O25	O	1.027633	-0.403442	-0.523514
O26	O	1.527633	0.096558	-0.023514
O27	O	0.907218	-0.403459	-0.403139
O28	O	1.407218	0.096541	0.096861
O29	O	1.118891	-0.312245	-0.523521
O30	O	1.618891	0.187755	-0.023521
O31	O	1.118771	-0.523948	-0.311854
O32	O	1.618771	-0.023948	0.188146
O33	O	1.027565	-0.523886	-0.403091
O34	O	1.527565	-0.023886	0.096909
C35	C	0.880282	-0.357860	-0.357544
C36	C	1.380282	0.142140	0.142456
C37	C	0.797736	-0.357856	-0.357575
C38	C	1.297736	0.142144	0.142425
C39	C	0.598296	-0.407584	-0.407052
C40	C	1.098296	0.092416	0.092948
C41	C	0.548891	-0.339865	-0.425328
C42	C	1.048891	0.160135	0.074672
C43	C	0.646606	-0.357898	-0.357539
C44	C	1.146606	0.142102	0.142461
C45	C	0.548928	-0.425656	-0.339262
C46	C	1.048928	0.074344	0.160738
C47	C	0.500621	-0.357944	-0.357505
C48	C	1.000621	0.142056	0.142495
C49	C	0.598289	-0.290143	-0.375851
C50	C	1.098289	0.209857	0.124149
C51	C	0.598330	-0.375979	-0.289753
C52	C	1.098330	0.124021	0.210247
C53	C	0.548948	-0.308213	-0.308004
C54	C	1.048948	0.191787	0.191996
C55	C	0.730704	-0.357872	-0.357560
C56	C	1.230704	0.142128	0.142440
C57	C	0.416524	-0.357962	-0.357484
C58	C	0.916524	0.142038	0.142516
C59	C	1.073177	-0.550863	-0.357482
C60	C	1.573177	-0.050863	0.142518
C61	C	1.073220	-0.633409	-0.357495
C62	C	1.573220	-0.133409	0.142505
C63	C	1.122921	-0.832866	-0.307949
C64	C	1.622921	-0.332866	0.192051
C65	C	1.141058	-0.882192	-0.375725
C66	C	1.641058	-0.382192	0.124275
C67	C	1.073263	-0.784539	-0.357524
C68	C	1.573263	-0.284539	0.142476
C69	C	1.055201	-0.882295	-0.289779
C70	C	1.555201	-0.382295	0.210221
C71	C	1.073305	-0.930524	-0.357547
C72	C	1.573305	-0.430524	0.142453
C73	C	1.091434	-0.832778	-0.425335
C74	C	1.591434	-0.332778	0.074665
C75	C	1.005546	-0.832877	-0.339344
C76	C	1.505546	-0.332877	0.160656
C77	C	1.023657	-0.882180	-0.407166
C78	C	1.523657	-0.382180	0.092834
C79	C	1.073240	-0.700441	-0.357510
C80	C	1.573240	-0.200441	0.142490
C81	C	1.073327	-1.014621	-0.357568
C82	C	1.573327	-0.514621	0.142432
C83	C	1.266940	-0.357963	-0.357480
C84	C	1.766940	0.142037	0.142520
C85	C	1.349485	-0.357984	-0.357467
C86	C	1.849485	0.142016	0.142533
C87	C	1.073267	-0.357832	-0.551218
C88	C	1.573267	0.142168	-0.051218
C89	C	1.073281	-0.357798	-0.633764
C90	C	1.573281	0.142202	-0.133764
C91	C	1.073312	-0.164205	-0.357558
C92	C	1.573312	0.335795	0.142442
C93	C	1.073345	-0.081660	-0.357578
C94	C	1.573345	0.418340	0.142422
C95	C	1.122957	-0.308181	-0.833218
C96	C	1.622957	0.191819	-0.333218
C97	C	1.055220	-0.289992	-0.882632
C98	C	1.555220	0.210008	-0.382632
C99	C	1.073311	-0.357785	-0.784894
C100	C	1.573311	0.142215	-0.284894
C101	C	1.141075	-0.375927	-0.882562
C102	C	1.641075	0.124073	-0.382562
C103	C	1.073345	-0.357772	-0.930879
C104	C	1.573345	0.142228	-0.430879
C105	C	1.005538	-0.339561	-0.833220
C106	C	1.505538	0.160439	-0.333220
C107	C	1.091438	-0.425528	-0.833147
C108	C	1.591438	0.074472	-0.333147
C109	C	1.023655	-0.407365	-0.882538
C110	C	1.523655	0.092635	-0.382538
C111	C	1.073292	-0.357791	-0.700796
C112	C	1.573292	0.142209	-0.200796
C113	C	1.073357	-0.357766	-1.014976
C114	C	1.573357	0.142234	-0.514976
C115	C	1.073244	-0.357936	-0.164560
C116	C	1.573244	0.142064	0.335440
C117	C	1.073374	-0.357761	-0.082014
C118	C	1.573374	0.142239	0.417986
H119	H	0.619880	-0.232843	-0.391360
H120	H	1.119880	0.267157	0.108640
F121	F	1.111492	-0.500395	-0.804713
F122	F	1.611492	-0.000395	-0.304713
F123	F	0.930689	-0.804543	-0.319203
F124	F	1.430689	-0.304543	0.180797
F125	F	1.111519	-0.804472	-0.500251
F126	F	1.611519	-0.304472	-0.000251
F127	F	0.626716	-0.395965	-0.214854
F128	F	1.126716	0.104035	0.285146
F129	F	0.968790	-0.910307	-0.462037
F130	F	1.468790	-0.410307	0.037963
F131	F	0.520803	-0.253257	-0.253255
F132	F	1.020803	0.246743	0.246745
H133	H	0.619965	-0.449529	-0.448970
H134	H	1.119965	0.050471	0.051030
F135	F	0.520507	-0.319894	-0.500236
F136	F	1.020507	0.180106	-0.000236
H137	H	1.039908	-0.904045	-0.232479
H138	H	1.539908	-0.404045	0.267521
F139	F	1.177828	-0.804561	-0.253208
F140	F	1.677828	-0.304561	0.246792
F141	F	0.520586	-0.500528	-0.319074
F142	F	1.020586	-0.000528	0.180926
F143	F	1.177745	-0.253319	-0.804910
F144	F	1.677745	0.246681	-0.304910
F145	F	1.035193	-0.215106	-0.911045
F146	F	1.535193	0.284894	-0.411045
F147	F	0.930628	-0.319419	-0.805012
F148	F	1.430628	0.180581	-0.305012
F149	F	0.968735	-0.462181	-0.910677
F150	F	1.468735	0.037819	-0.410677
F151	F	1.215960	-0.395993	-0.910892
F152	F	1.715960	0.104007	-0.410892
F153	F	1.215935	-0.910495	-0.395853
F154	F	1.715935	-0.410495	0.104147
