data_functionalizedCrystal
_audit_creation_method	'MofGen! by Chris Wilmer'
_symmetry_space_group_name_H-M	'P1'
_symmetry_Int_Tables_number	1
_symmetry_cell_setting	triclinic
loop_
_symmetry_equiv_pos_as_xyz
  x,y,z
_cell_length_a	17.699083
_cell_length_b	15.455313
_cell_length_c	17.699083
_cell_angle_alpha	92.658725
_cell_angle_beta	83.282848
_cell_angle_gamma	87.324896
loop_
_atom_site_label
_atom_site_type_symbol
_atom_site_fract_x
_atom_site_fract_y
_atom_site_fract_z
O1	O	-1.007399	0.072118	-0.092392
O2	O	-0.507399	0.572118	0.407608
O3	O	-0.787021	0.072123	-0.104845
O4	O	-0.287021	0.572123	0.395155
O5	O	-0.903436	0.072113	0.011570
O6	O	-0.403436	0.572113	0.511570
O7	O	-0.890984	0.072128	-0.208807
O8	O	-0.390984	0.572128	0.291193
O9	O	-0.896779	-0.072149	0.004940
O10	O	-0.396779	0.427851	0.504940
O11	O	-0.780364	-0.072139	-0.111475
O12	O	-0.280364	0.427861	0.388525
O13	O	-1.000742	-0.072144	-0.099022
O14	O	-0.500742	0.427856	0.400978
Cu15	Cu	-0.889945	-0.085313	-0.105854
Cu16	Cu	-0.389945	0.414687	0.394146
Cu17	Cu	-0.897818	0.085293	-0.098013
Cu18	Cu	-0.397818	0.585293	0.401987
O19	O	-0.884327	-0.072133	-0.215437
O20	O	-0.384327	0.427867	0.284563
C21	C	-0.755495	-0.000007	-0.107714
C22	C	-0.255495	0.499993	0.392286
C23	C	-0.671477	-0.000006	-0.106375
C24	C	-0.171477	0.499994	0.393625
N25	N	-0.884413	-0.205308	-0.111368
N26	N	-0.384413	0.294692	0.388632
C27	C	-0.628381	-0.078643	-0.109359
C28	C	-0.128381	0.421357	0.390641
C29	C	-0.549439	-0.078644	-0.108089
C30	C	-0.049439	0.421356	0.391911
C31	C	-0.513593	-0.000006	-0.103842
C32	C	-0.013593	0.499994	0.396158
C33	C	-0.556696	0.078638	-0.100856
C34	C	-0.056696	0.578638	0.399144
C35	C	-0.635637	0.078638	-0.102120
C36	C	-0.135637	0.578638	0.397880
C37	C	-0.238333	0.078640	-0.095756
C38	C	0.261667	0.578640	0.404244
C39	C	-0.159385	0.078634	-0.094495
C40	C	0.340615	0.578634	0.405505
C41	C	-0.152135	-0.078642	-0.101726
C42	C	0.347865	0.421358	0.398274
C43	C	-0.231076	-0.078642	-0.102990
C44	C	0.268924	0.421358	0.397010
C45	C	-0.274172	0.000001	-0.100000
C46	C	0.225828	0.500001	0.400000
C47	C	-0.359771	0.000001	-0.101375
C48	C	0.140229	0.500001	0.398625
C49	C	-0.427996	-0.000005	-0.102472
C50	C	0.072004	0.499995	0.397528
C51	C	-0.933888	-0.250707	-0.061929
C52	C	-0.433888	0.249293	0.438071
C53	C	-0.929711	-0.341515	-0.066106
C54	C	-0.429711	0.158485	0.433894
C55	C	-0.876063	-0.386922	-0.119726
C56	C	-0.376063	0.113078	0.380274
C57	C	-0.826584	-0.341517	-0.169167
C58	C	-0.326584	0.158483	0.330833
C59	C	-0.830757	-0.250711	-0.164986
C60	C	-0.330757	0.249289	0.335014
C61	C	-0.858050	-0.658502	-0.137753
C62	C	-0.358050	-0.158502	0.362247
C63	C	-0.853881	-0.749314	-0.141932
C64	C	-0.353881	-0.249314	0.358068
C65	C	-0.957008	-0.749305	-0.038869
C66	C	-0.457008	-0.249305	0.461131
C67	C	-0.961180	-0.658498	-0.034696
C68	C	-0.461180	-0.158498	0.465304
C69	C	-0.911698	-0.613101	-0.084134
C70	C	-0.411698	-0.113101	0.415866
N71	N	-0.871795	-0.479742	-0.123999
N72	N	-0.371795	0.020258	0.376001
N73	N	-0.915963	-0.520282	-0.079858
N74	N	-0.415963	-0.020282	0.420142
C75	C	-0.032268	-0.000011	-0.096148
C76	C	0.467732	0.499989	0.403852
C77	C	-0.116289	-0.000005	-0.097473
C78	C	0.383711	0.499995	0.402527
C79	C	-0.899661	-0.000018	0.036452
C80	C	-0.399661	0.499982	0.536452
C81	C	-0.898323	-0.000019	0.120470
C82	C	-0.398323	0.499981	0.620470
N83	N	-0.903356	0.205288	-0.092493
N84	N	-0.403356	0.705288	0.407507
C85	C	-0.888102	-0.000001	-0.240319
C86	C	-0.388102	0.499999	0.259681
C87	C	-0.889441	0.000005	-0.324337
C88	C	-0.389441	0.500005	0.175663
C89	C	-0.966656	-0.000021	0.169091
C90	C	-0.466656	0.499979	0.669091
C91	C	-0.965394	-0.000014	0.248035
C92	C	-0.465394	0.499986	0.748035
C93	C	-0.895798	-0.000009	0.278356
C94	C	-0.395798	0.499991	0.778356
C95	C	-0.827459	-0.000004	0.229729
C96	C	-0.327459	0.499996	0.729729
C97	C	-0.828722	-0.000006	0.150787
C98	C	-0.328722	0.499994	0.650787
C99	C	-0.822364	0.000003	0.548092
C100	C	-0.322364	0.500003	1.048092
C101	C	-0.821106	0.000002	0.627040
C102	C	-0.321106	0.500002	1.127040
C103	C	-0.959036	-0.000005	0.645340
C104	C	-0.459036	0.499995	1.145340
C105	C	-0.960299	-0.000007	0.566398
C106	C	-0.460299	0.499993	1.066398
C107	C	-0.891961	0.000003	0.517778
C108	C	-0.391961	0.500003	1.017778
C109	C	-0.893330	-0.000003	0.432179
C110	C	-0.393330	0.499997	0.932179
C111	C	-0.894427	-0.000009	0.363954
C112	C	-0.394427	0.499991	0.863954
H113	H	-0.657560	-0.142680	-0.112824
H114	H	-0.157560	0.357320	0.387176
H115	H	-0.977576	-0.213742	-0.018268
H116	H	-0.477576	0.286258	0.481732
Cl117	Cl	-0.786433	-0.806391	-0.209349
Cl118	Cl	-0.286433	-0.306391	0.290651
H119	H	-0.969996	-0.378478	-0.025848
H120	H	-0.469996	0.121522	0.474152
Cl121	Cl	-0.742814	0.000001	0.089663
Cl122	Cl	-0.242814	0.500001	0.589663
H123	H	-0.790469	-0.213748	-0.205244
H124	H	-0.290469	0.286252	0.294756
H125	H	-1.004864	-0.621529	0.008966
H126	H	-0.504864	-0.121529	0.508966
Cl127	Cl	-0.689816	0.177501	-0.098366
Cl128	Cl	-0.189816	0.677501	0.401634
Cl129	Cl	-0.759136	-0.398598	-0.236574
Cl130	Cl	-0.259136	0.101402	0.263426
H131	H	-0.130203	0.142674	-0.091035
H132	H	0.369797	0.642674	0.408965
Cl133	Cl	-1.047795	-0.000009	0.528286
Cl134	Cl	-0.547795	0.499991	1.028286
Cl135	Cl	-1.054153	-0.000036	0.130982
Cl136	Cl	-0.554153	0.499964	0.630982
Cl137	Cl	-1.044948	-0.000014	0.706468
Cl138	Cl	-0.544948	0.499986	1.206468
H139	H	-0.260257	-0.142677	-0.106452
H140	H	0.239743	0.357323	0.393548
Cl141	Cl	-0.292500	0.177506	-0.091999
Cl142	Cl	0.207500	0.677506	0.408001
Cl143	Cl	-0.795848	-0.601437	-0.199906
Cl144	Cl	-0.295848	-0.101437	0.300094
Cl145	Cl	-0.495262	-0.177508	-0.111853
Cl146	Cl	0.004738	0.322492	0.388147
H147	H	-0.527505	0.142666	-0.097392
H148	H	-0.027505	0.642666	0.402608
Cl149	Cl	-1.019208	-0.806379	0.023281
Cl150	Cl	-0.519208	-0.306379	0.523281
H151	H	-1.021038	-0.000018	0.287620
H152	H	-0.521038	0.499982	0.787620
H153	H	-0.117037	-0.142677	-0.104157
H154	H	0.382963	0.357323	0.395843
Cl155	Cl	-0.733607	0.000009	0.665156
Cl156	Cl	-0.233607	0.500009	1.165156
Cl157	Cl	-0.736453	0.000018	0.486980
Cl158	Cl	-0.236453	0.500018	0.986980
Cl159	Cl	-0.739966	0.000012	0.267847
Cl160	Cl	-0.239966	0.500012	0.767847
