data_functionalizedCrystal
_audit_creation_method	'MofGen! by Chris Wilmer'
_symmetry_space_group_name_H-M	'P1'
_symmetry_Int_Tables_number	1
_symmetry_cell_setting	triclinic
loop_
_symmetry_equiv_pos_as_xyz
  x,y,z
_cell_length_a	16.109301
_cell_length_b	8.965430
_cell_length_c	16.109301
_cell_angle_alpha	89.998998
_cell_angle_beta	96.538519
_cell_angle_gamma	90.001088
loop_
_atom_site_label
_atom_site_type_symbol
_atom_site_fract_x
_atom_site_fract_y
_atom_site_fract_z
O1	O	1.103132	0.123950	-0.106861
O2	O	1.603132	0.623950	0.393139
O3	O	0.861070	0.123974	-0.120160
O4	O	1.361070	0.623974	0.379840
O5	O	0.988750	0.123946	0.007520
O6	O	1.488750	0.623946	0.507520
O7	O	0.975451	0.123978	-0.234542
O8	O	1.475451	0.623978	0.265458
O9	O	0.988740	-0.124133	0.007512
O10	O	1.488740	0.375867	0.507512
O11	O	0.861059	-0.124105	-0.120169
O12	O	1.361059	0.375895	0.379831
O13	O	1.103121	-0.124129	-0.106869
O14	O	1.603121	0.375871	0.393131
Cu15	Cu	0.982089	-0.146768	-0.113520
Cu16	Cu	1.482089	0.353232	0.386480
Cu17	Cu	0.982102	0.146614	-0.113510
Cu18	Cu	1.482102	0.646614	0.386490
O19	O	0.975440	-0.124101	-0.234550
O20	O	1.475440	0.375899	0.265450
C21	C	0.830090	-0.000062	-0.119626
C22	C	1.330090	0.499938	0.380374
C23	C	0.737794	-0.000054	-0.118011
C24	C	1.237794	0.499946	0.381989
C25	C	0.515522	-0.000061	-0.190018
C26	C	1.015522	0.499939	0.309982
C27	C	0.428801	-0.000071	-0.188494
C28	C	0.928801	0.499929	0.311506
C29	C	0.448676	-0.000085	-0.037006
C30	C	0.948676	0.499915	0.462994
C31	C	0.535394	-0.000086	-0.038530
C32	C	1.035394	0.499914	0.461470
C33	C	0.568815	-0.000067	-0.115039
C34	C	1.068815	0.499933	0.384961
C35	C	0.395376	-0.000075	-0.111990
C36	C	0.895376	0.499925	0.388010
C37	C	0.301350	-0.000086	-0.110337
C38	C	0.801350	0.499914	0.389663
C39	C	0.662847	-0.000059	-0.116693
C40	C	1.162847	0.499941	0.383307
N41	N	0.982086	-0.353118	-0.113526
N42	N	1.482086	0.146882	0.386474
C43	C	0.923020	-0.450411	-0.172555
C44	C	1.423020	0.049589	0.327445
C45	C	0.998145	-0.549829	-0.188668
C46	C	1.498145	-0.049829	0.311332
C47	C	0.906992	-0.549826	-0.097421
C48	C	1.406992	-0.049826	0.402579
C49	C	1.057249	-0.450348	-0.129676
C50	C	1.557249	0.049652	0.370324
C51	C	0.966047	-0.450336	-0.038397
C52	C	1.466047	0.049664	0.461603
C53	C	1.041227	-0.549710	-0.054477
C54	C	1.541227	-0.049710	0.445523
C55	C	1.134101	-0.000089	-0.107404
C56	C	1.634101	0.499911	0.392596
C57	C	1.226397	-0.000088	-0.109019
C58	C	1.726397	0.499912	0.390981
C59	C	0.988206	-0.000094	0.038491
C60	C	1.488206	0.499906	0.538491
C61	C	0.986591	-0.000096	0.130786
C62	C	1.486591	0.499904	0.630786
N63	N	0.982111	0.352963	-0.113497
N64	N	1.482111	0.852963	0.386503
C65	C	0.975984	-0.000058	-0.265521
C66	C	1.475984	0.499942	0.234479
C67	C	0.977600	-0.000046	-0.357816
C68	C	1.477600	0.499954	0.142184
C69	C	1.058599	-0.000080	0.353059
C70	C	1.558599	0.499920	0.853059
C71	C	1.057075	-0.000067	0.439779
C72	C	1.557075	0.499933	0.939779
C73	C	0.905586	-0.000058	0.419905
C74	C	1.405586	0.499942	0.919905
C75	C	0.907111	-0.000060	0.333186
C76	C	1.407111	0.499940	0.833186
C77	C	0.983620	-0.000078	0.299766
C78	C	1.483620	0.499922	0.799766
C79	C	0.980571	-0.000064	0.473205
C80	C	1.480571	0.499936	0.973205
C81	C	0.978918	-0.000050	0.567231
C82	C	1.478918	0.499950	1.067231
C83	C	0.985273	-0.000089	0.205734
C84	C	1.485273	0.499911	0.705734
H85	H	0.873115	-0.406811	-0.222519
H86	H	1.373115	0.093189	0.277481
C87	C	0.821431	-0.000043	0.456667
C88	C	1.321431	0.499957	0.956667
H89	H	0.776995	-0.000025	0.412505
H90	H	1.276995	0.499975	0.912505
H91	H	0.817681	-0.086550	0.490085
H92	H	1.317681	0.413450	0.990085
H93	H	0.817694	0.086482	0.490079
H94	H	1.317694	0.586482	0.990079
C95	C	1.016500	-0.608880	-0.274474
C96	C	1.516500	-0.108880	0.225526
H97	H	1.066071	-0.667149	-0.267869
H98	H	1.566071	-0.167149	0.232131
H99	H	0.971099	-0.668692	-0.297936
H100	H	1.471099	-0.168692	0.202064
H101	H	1.023667	-0.527210	-0.310552
H102	H	1.523667	-0.027210	0.189448
C103	C	0.824632	-0.000050	0.274556
C104	C	1.324632	0.499950	0.774556
H105	H	0.836500	-0.000035	0.218124
H106	H	1.336500	0.499965	0.718124
H107	H	0.793253	-0.086555	0.284680
H108	H	1.293253	0.413445	0.784680
H109	H	0.793268	0.086477	0.284686
H110	H	1.293268	0.586477	0.784686
C111	C	0.552282	-0.000056	-0.274174
C112	C	1.052282	0.499944	0.225826
H113	H	0.508119	-0.000068	-0.318610
H114	H	1.008119	0.499932	0.181390
H115	H	0.585700	0.086453	-0.277920
H116	H	1.085700	0.586453	0.222080
H117	H	0.585696	-0.086579	-0.277917
H118	H	1.085696	0.413421	0.222083
C119	C	1.143070	-0.391578	-0.148173
C120	C	1.643070	0.108422	0.351827
H121	H	1.142527	-0.285616	-0.148102
H122	H	1.642527	0.214384	0.351898
H123	H	1.185056	-0.426368	-0.106482
H124	H	1.685056	0.073632	0.393518
H125	H	1.154562	-0.426473	-0.201364
H126	H	1.654562	0.073527	0.298636
C127	C	1.139550	-0.000063	0.498402
C128	C	1.639550	0.499937	0.998402
H129	H	1.127687	-0.000041	0.554836
H130	H	1.627687	0.499959	1.054836
H131	H	1.170922	-0.086574	0.488278
H132	H	1.670922	0.413426	0.988278
H133	H	1.170918	0.086458	0.488266
H134	H	1.670918	0.586458	0.988266
H135	H	0.385413	-0.000070	-0.249550
H136	H	0.885413	0.499930	0.250450
C137	C	1.108788	-0.608257	0.012976
C138	C	1.608788	-0.108257	0.512976
H139	H	1.162084	-0.574010	0.001406
H140	H	1.662084	-0.074010	0.501406
H141	H	1.097839	-0.572685	0.066198
H142	H	1.597839	-0.072685	0.566198
H143	H	1.108132	-0.714214	0.012922
H144	H	1.608132	-0.214214	0.512922
C145	C	1.142752	-0.000088	0.316294
C146	C	1.642752	0.499912	0.816294
H147	H	1.132924	-0.000104	0.257015
H148	H	1.632924	0.499896	0.757015
H149	H	1.173626	0.086421	0.334587
H150	H	1.673626	0.586421	0.834587
H151	H	1.173620	-0.086611	0.334592
H152	H	1.673620	0.413389	0.834592
H153	H	0.578788	-0.000094	0.022530
H154	H	1.078788	0.499906	0.522530
H155	H	0.421454	-0.000110	0.025285
H156	H	0.921454	0.499890	0.525285
C157	C	0.821190	-0.608841	-0.079025
C158	C	1.321190	-0.108841	0.420975
H159	H	0.779283	-0.574820	-0.121026
H160	H	1.279283	-0.074820	0.378974
H161	H	0.821959	-0.714786	-0.078636
H162	H	1.321959	-0.214786	0.421364
H163	H	0.809386	-0.573290	-0.026067
H164	H	1.309386	-0.073290	0.473933
H165	H	0.952440	-0.406599	0.025105
H166	H	1.452440	0.093401	0.525105
