data_functionalizedCrystal
_audit_creation_method	'MofGen! by Chris Wilmer'
_symmetry_space_group_name_H-M	'P1'
_symmetry_Int_Tables_number	1
_symmetry_cell_setting	triclinic
loop_
_symmetry_equiv_pos_as_xyz
  x,y,z
_cell_length_a	17.699083
_cell_length_b	11.026607
_cell_length_c	16.176319
_cell_angle_alpha	89.996049
_cell_angle_beta	89.998611
_cell_angle_gamma	95.934516
loop_
_atom_site_label
_atom_site_type_symbol
_atom_site_fract_x
_atom_site_fract_y
_atom_site_fract_z
O1	O	1.025155	0.153399	-0.068626
O2	O	1.525155	0.653399	0.431374
O3	O	0.807518	0.173357	-0.068652
O4	O	1.307518	0.673357	0.431348
O5	O	0.898299	-0.013222	-0.068638
O6	O	1.398299	0.486778	0.431362
O7	O	0.934374	0.339978	-0.068640
O8	O	1.434374	0.839978	0.431360
O9	O	0.898282	-0.013234	0.068855
O10	O	1.398282	0.486766	0.568855
O11	O	0.807501	0.173345	0.068841
O12	O	1.307501	0.673345	0.568841
O13	O	1.025137	0.153387	0.068867
O14	O	1.525137	0.653387	0.568867
Cu15	Cu	0.916317	0.163365	0.081408
Cu16	Cu	1.416317	0.663365	0.581408
Cu17	Cu	0.916338	0.163379	-0.081193
Cu18	Cu	1.416338	0.663379	0.418807
O19	O	0.934357	0.339966	0.068853
O20	O	1.434357	0.839966	0.568853
C21	C	0.779214	0.172636	0.000091
C22	C	1.279214	0.672636	0.500091
C23	C	0.694902	0.170490	0.000080
C24	C	1.194902	0.670490	0.500080
C25	C	0.661328	0.280008	0.000080
C26	C	1.161328	0.780008	0.500080
C27	C	0.582106	0.277985	0.000091
C28	C	1.082106	0.777985	0.500091
C29	C	0.536460	0.166443	0.000096
C30	C	1.036460	0.666443	0.500096
C31	C	0.570039	0.056917	0.000099
C32	C	1.070039	0.556917	0.500099
C33	C	0.649259	0.058941	0.000094
C34	C	1.149259	0.558941	0.500094
C35	C	0.250554	0.048751	0.000119
C36	C	0.750554	0.548751	0.500119
C37	C	0.171329	0.046735	0.000121
C38	C	0.671329	0.546735	0.500121
C39	C	0.183402	0.267794	0.000116
C40	C	0.683402	0.767794	0.500116
C41	C	0.262621	0.269819	0.000111
C42	C	0.762621	0.769819	0.500111
C43	C	0.296194	0.160293	0.000118
C44	C	0.796194	0.660293	0.500118
C45	C	0.382094	0.162488	0.000108
C46	C	0.882094	0.662488	0.500108
C47	C	0.450561	0.164247	0.000100
C48	C	0.950561	0.664247	0.500100
C49	C	0.891635	-0.058419	0.000106
C50	C	1.391635	0.441581	0.500106
C51	C	0.871796	-0.193075	0.000101
C52	C	1.371796	0.306925	0.500101
C53	C	0.926576	-0.267042	0.000107
C54	C	1.426576	0.232958	0.500107
C55	C	0.906072	-0.406216	0.000101
C56	C	1.406072	0.093784	0.500101
C57	C	1.053441	0.154108	0.000122
C58	C	1.553441	0.654108	0.500122
C59	C	1.137754	0.156254	0.000127
C60	C	1.637754	0.656254	0.500127
C61	C	0.941021	0.385163	0.000107
C62	C	1.441021	0.885163	0.500107
C63	C	0.960860	0.519819	0.000106
C64	C	1.460860	1.019819	0.500106
N65	N	0.916308	0.163354	0.195773
N66	N	1.416308	0.663354	0.695773
N67	N	0.916352	0.163380	-0.195559
N68	N	1.416352	0.663380	0.304441
C69	C	0.956526	0.080771	0.239044
C70	C	1.456526	0.580771	0.739044
C71	C	0.956530	0.080770	0.325591
C72	C	1.456530	0.580770	0.825591
C73	C	0.916320	0.163358	0.368866
C74	C	1.416320	0.663358	0.868866
C75	C	0.876097	0.245946	0.325590
C76	C	1.376097	0.745946	0.825590
C77	C	0.876089	0.245940	0.239044
C78	C	1.376089	0.745940	0.739044
C79	C	0.876126	0.245969	0.674618
C80	C	1.376126	0.745969	1.174618
C81	C	0.876138	0.245970	0.761169
C82	C	1.376138	0.745970	1.261169
C83	C	0.956566	0.080798	0.761165
C84	C	1.456566	0.580798	1.261165
C85	C	0.956559	0.080792	0.674619
C86	C	1.456559	0.580792	1.174619
C87	C	0.916333	0.163375	0.631350
C88	C	1.416333	0.663375	1.131350
C89	C	0.916328	0.163374	0.537506
C90	C	1.416328	0.663374	1.037506
C91	C	0.916328	0.163366	0.462709
C92	C	1.416328	0.663366	0.962709
H93	H	0.134166	-0.044102	0.000127
H94	H	0.634166	0.455898	0.500127
H95	H	0.989274	0.013523	0.203815
H96	H	1.489274	0.513523	0.703815
H97	H	0.156058	0.356975	0.000115
H98	H	0.656058	0.856975	0.500115
H99	H	0.809717	-0.232783	0.000088
H100	H	1.309717	0.267217	0.500088
N101	N	1.043098	-0.427615	0.000124
N102	N	1.543098	0.072385	0.500124
H103	H	1.069159	-0.455979	-0.050841
H104	H	1.569159	0.044021	0.449159
H105	H	1.046030	-0.335655	0.000158
H106	H	1.546030	0.164345	0.500158
N107	N	0.832747	0.335054	0.627967
N108	N	1.332747	0.835054	1.127967
H109	H	0.868970	0.388707	0.592051
H110	H	1.368970	0.888707	1.092051
H111	H	0.792924	0.288688	0.592118
H112	H	1.292924	0.788688	1.092118
H113	H	0.843990	-0.445918	0.000088
H114	H	1.343990	0.054082	0.500088
H115	H	0.843353	0.313187	0.360829
H116	H	1.343353	0.813187	0.860829
H117	H	0.676594	-0.030240	0.000094
H118	H	1.176594	0.469760	0.500094
H119	H	0.989277	0.013523	0.360821
H120	H	1.489277	0.513523	0.860821
N121	N	0.999932	-0.008279	0.627944
N122	N	1.499932	0.491721	1.127944
H123	H	1.025410	-0.060599	0.668489
H124	H	1.525410	0.439401	1.168489
H125	H	0.963656	-0.061849	0.592044
H126	H	1.463656	0.438151	1.092044
H127	H	0.989318	0.013551	0.796403
H128	H	1.489318	0.513551	1.296403
N129	N	0.545897	0.396110	0.000078
N130	N	1.045897	0.896110	0.500078
H131	H	0.488785	0.377906	0.000085
H132	H	0.988785	0.877906	0.500085
H133	H	0.562382	0.444735	0.051043
H134	H	1.062382	0.944735	0.551043
N135	N	0.832707	0.335011	0.192375
N136	N	1.332707	0.835011	0.692375
H137	H	0.853146	0.421091	0.207425
H138	H	1.353146	0.921091	0.707425
H139	H	0.838812	0.322369	0.130998
H140	H	1.338812	0.822369	0.630998
N141	N	0.710558	0.400315	0.000065
N142	N	1.210558	0.900315	0.500065
H143	H	0.677264	0.469386	0.000067
H144	H	1.177264	0.969386	0.500067
H145	H	0.743693	0.405971	0.051032
H146	H	1.243693	0.905971	0.551032
N147	N	0.311854	0.390123	0.000095
N148	N	0.811854	0.890123	0.500095
H149	H	0.278563	0.459198	0.000096
H150	H	0.778563	0.959198	0.500096
H151	H	0.344989	0.395778	0.051061
H152	H	0.844989	0.895778	0.551061
N153	N	0.832762	0.335045	0.807848
N154	N	1.332762	0.835045	1.307848
H155	H	0.807274	0.387356	0.767305
H156	H	1.307274	0.887356	1.267305
H157	H	0.792996	0.288658	0.843764
H158	H	1.292996	0.788658	1.343764
H159	H	0.277879	-0.040432	0.000126
H160	H	0.777879	0.459568	0.500126
H161	H	0.988654	-0.227333	0.000119
H162	H	1.488654	0.272667	0.500119
N163	N	0.520811	-0.063392	0.000117
N164	N	1.020811	0.436608	0.500117
H165	H	0.465531	-0.048059	0.000120
H166	H	0.965531	0.451941	0.500120
H167	H	0.532021	-0.111310	-0.050850
H168	H	1.032021	0.388690	0.449150
