data_functionalizedCrystal
_audit_creation_method	'MofGen! by Chris Wilmer'
_symmetry_space_group_name_H-M	'P1'
_symmetry_Int_Tables_number	1
_symmetry_cell_setting	triclinic
loop_
_symmetry_equiv_pos_as_xyz
  x,y,z
_cell_length_a	15.625950
_cell_length_b	17.038272
_cell_length_c	14.750779
_cell_angle_alpha	76.426773
_cell_angle_beta	120.090508
_cell_angle_gamma	87.507827
loop_
_atom_site_label
_atom_site_type_symbol
_atom_site_fract_x
_atom_site_fract_y
_atom_site_fract_z
O1	O	1.288219	0.023953	0.368446
O2	O	1.788219	0.523953	0.868446
O3	O	1.004079	0.057086	0.269569
O4	O	1.504079	0.557086	0.769569
O5	O	1.144462	-0.073175	0.318428
O6	O	1.644462	0.426825	0.818428
O7	O	1.147836	0.154214	0.319587
O8	O	1.647836	0.654214	0.819587
O9	O	1.184147	-0.109995	0.491890
O10	O	1.684147	0.390005	0.991890
O11	O	1.043764	0.020266	0.443031
O12	O	1.543764	0.520266	0.943031
O13	O	1.327904	-0.012866	0.541908
O14	O	1.827904	0.487134	1.041908
Zn15	Zn	1.192135	-0.002146	0.520011
Zn16	Zn	1.692135	0.497854	1.020011
Zn17	Zn	1.139848	0.046365	0.291467
Zn18	Zn	1.639848	0.546365	0.791467
O19	O	1.187521	0.117394	0.493049
O20	O	1.687521	0.617394	0.993049
C21	C	0.987386	0.040821	0.343586
C22	C	1.487386	0.540821	0.843586
C23	C	0.878520	0.047205	0.305703
C24	C	1.378520	0.547205	0.805703
C25	C	0.628518	-0.032081	0.653754
C26	C	1.128518	0.467919	1.153754
C27	C	0.526210	-0.026057	0.618108
C28	C	1.026210	0.473943	1.118108
C29	C	0.482998	0.014079	0.429024
C30	C	0.982998	0.514079	0.929024
C31	C	0.585304	0.008062	0.464654
C32	C	1.085304	0.508062	0.964654
C33	C	0.658057	-0.015020	0.577020
C34	C	1.158057	0.484980	1.077020
C35	C	0.614842	0.025124	0.387920
C36	C	1.114842	0.525124	0.887920
C37	C	0.717140	0.019103	0.423547
C38	C	1.217140	0.519103	0.923547
C39	C	0.789898	-0.003980	0.535909
C40	C	1.289898	0.496020	1.035909
C41	C	0.760354	-0.021040	0.612647
C42	C	1.260354	0.478960	1.112647
C43	C	0.542088	0.048200	0.275554
C44	C	1.042088	0.548200	0.775554
C45	C	0.571627	0.065261	0.198821
C46	C	1.071627	0.565261	0.698821
C47	C	0.673925	0.059247	0.234448
C48	C	1.173925	0.559247	0.734448
C49	C	0.746684	0.036164	0.346809
C50	C	1.246684	0.536164	0.846809
C51	C	0.703470	0.076307	0.157709
C52	C	1.203470	0.576307	0.657709
C53	C	0.805767	0.070286	0.193337
C54	C	1.305767	0.570286	0.693337
C55	C	0.848981	0.030143	0.382437
C56	C	1.348981	0.530143	0.882437
C57	C	1.161233	-0.120490	0.404090
C58	C	1.661233	0.379510	0.904090
C59	C	1.152068	-0.206618	0.400901
C60	C	1.652068	0.293382	0.900901
C61	C	1.236213	-0.262841	0.430183
C62	C	1.736213	0.237159	0.930183
C63	C	1.227593	-0.343764	0.427174
C64	C	1.727593	0.156236	0.927174
C65	C	1.134829	-0.368463	0.394890
C66	C	1.634829	0.131537	0.894890
C67	C	1.050677	-0.312233	0.365603
C68	C	1.550677	0.187767	0.865603
C69	C	1.059296	-0.231310	0.368604
C70	C	1.559296	0.268690	0.868604
C71	C	1.104380	-0.612008	0.384281
C72	C	1.604380	-0.112008	0.884281
C73	C	1.095768	-0.692938	0.381285
C74	C	1.595768	-0.192938	0.881285
C75	C	1.272684	-0.724463	0.442855
C76	C	1.772684	-0.224463	0.942855
C77	C	1.281296	-0.643539	0.445860
C78	C	1.781296	-0.143539	0.945860
C79	C	1.197143	-0.587314	0.416567
C80	C	1.697143	-0.087314	0.916567
C81	C	1.126017	-0.451180	0.391818
C82	C	1.626017	0.048820	0.891818
C83	C	1.205954	-0.504598	0.419632
C84	C	1.705954	-0.004598	0.919632
C85	C	1.344597	0.003398	0.467889
C86	C	1.844597	0.503398	0.967889
C87	C	1.453461	-0.002984	0.505765
C88	C	1.953461	0.497016	1.005765
C89	C	1.170750	0.164710	0.407385
C90	C	1.670750	0.664710	0.907385
C91	C	1.179913	0.250839	0.410567
C92	C	1.679913	0.750839	0.910567
N93	N	1.227826	-0.035255	0.675988
N94	N	1.727826	0.464745	1.175988
N95	N	1.104164	0.079467	0.135491
N96	N	1.604164	0.579467	0.635491
C97	C	1.004480	0.171900	0.950073
C98	C	1.504480	0.671900	1.450073
C99	C	1.029498	0.148705	1.059279
C100	C	1.529498	0.648705	1.559279
C101	C	1.153838	0.033396	1.102517
C102	C	1.653838	0.533396	1.602517
C103	C	1.128827	0.056579	0.993312
C104	C	1.628827	0.556579	1.493312
C105	C	1.054148	0.125833	0.917097
C106	C	1.554148	0.625833	1.417097
C107	C	1.178495	0.010512	0.960336
C108	C	1.678495	0.510512	1.460336
C109	C	1.153490	0.033697	0.851140
C110	C	1.653490	0.533697	1.351140
C111	C	1.078816	0.102949	0.774921
C112	C	1.578816	0.602949	1.274921
C113	C	1.029143	0.149018	0.807902
C114	C	1.529143	0.649018	1.307902
C115	C	1.253179	-0.058738	1.036553
C116	C	1.753179	0.441262	1.536553
C117	C	1.302847	-0.104805	1.003578
C118	C	1.802847	0.395195	1.503578
C119	C	1.277837	-0.081624	0.894379
C120	C	1.777837	0.418376	1.394379
C121	C	1.203163	-0.012372	0.818159
C122	C	1.703163	0.487628	1.318159
C123	C	1.327511	-0.127693	0.861398
C124	C	1.827511	0.372307	1.361398
C125	C	1.302505	-0.104508	0.752203
C126	C	1.802505	0.395492	1.252203
C127	C	1.178158	0.010813	0.708964
C128	C	1.678158	0.510813	1.208964
H129	H	0.829816	0.084184	0.130852
H130	H	1.329816	0.584184	0.630852
H131	H	1.311752	-0.242739	0.456478
H132	H	1.811752	0.257261	0.956478
H133	H	0.512379	0.084051	0.107332
H134	H	1.012379	0.584051	0.607332
O135	O	1.381354	-0.616909	0.480673
O136	O	1.881354	-0.116909	0.980673
H137	H	1.405697	-0.595815	0.554221
H138	H	1.905697	-0.095815	1.054221
O139	O	1.051841	0.127960	0.657143
O140	O	1.551841	0.627960	1.157143
H141	H	0.971037	0.126939	0.602551
H142	H	1.471037	0.626939	1.102551
H143	H	1.214645	-0.022990	1.164584
H144	H	1.714645	0.477010	1.664584
H145	H	0.687758	-0.050865	0.745253
H146	H	1.187758	0.449135	1.245253
O147	O	0.975919	0.198390	1.094848
O148	O	1.475919	0.698390	1.594848
H149	H	0.919786	0.250436	1.023502
H150	H	1.419786	0.750436	1.523502
H151	H	0.458792	0.053105	0.246550
H152	H	0.958792	0.553105	0.746550
O153	O	1.306001	-0.477955	0.454450
O154	O	1.806001	0.022045	0.954450
H155	H	1.330591	-0.486026	0.397933
H156	H	1.830591	0.013974	0.897933
O157	O	1.318352	-0.404411	0.458774
O158	O	1.818352	0.095589	0.958774
H159	H	1.384308	-0.373644	0.481746
H160	H	1.884308	0.126356	0.981746
O161	O	1.408058	-0.202383	0.943603
O162	O	1.908058	0.297617	1.443603
H163	H	1.417100	-0.210766	1.025073
H164	H	1.917100	0.289234	1.525073
H165	H	0.502166	-0.039935	0.680602
H166	H	1.002166	0.460065	1.180602
O167	O	1.280160	-0.083751	1.154333
O168	O	1.780160	0.416249	1.654333
H169	H	1.212551	-0.097018	1.157326
H170	H	1.712551	0.402982	1.657326
H171	H	1.341196	-0.770249	0.466702
H172	H	1.841196	-0.270249	0.966702
O173	O	0.948594	0.223712	0.725685
O174	O	1.448594	0.723712	1.225685
H175	H	0.918255	0.251856	0.766957
H176	H	1.418255	0.751856	1.266957
H177	H	0.644221	0.095092	0.066221
H178	H	1.144221	0.595092	0.566221
O179	O	1.383389	-0.179500	1.085779
O180	O	1.883389	0.320500	1.585779
H181	H	1.392430	-0.187887	1.167249
H182	H	1.892430	0.312113	1.667249
H183	H	1.020229	-0.713047	0.355011
H184	H	1.520229	-0.213047	0.855011
H185	H	1.342952	-0.142021	0.725356
H186	H	1.842952	0.357979	1.225356
O187	O	1.013625	-0.551376	0.352715
O188	O	1.513625	-0.051376	0.852715
H189	H	0.947681	-0.582153	0.329782
H190	H	1.447681	-0.082153	0.829782
H191	H	0.975145	-0.332348	0.339310
H192	H	1.475145	0.167652	0.839310
O193	O	0.968544	-0.170665	0.337033
O194	O	1.468544	0.329335	0.837033
H195	H	0.902594	-0.201437	0.314092
H196	H	1.402594	0.298563	0.814092
O197	O	1.025973	-0.477831	0.357021
O198	O	1.525973	0.022169	0.857021
H199	H	1.001643	-0.498942	0.283487
H200	H	1.501643	0.001058	0.783487
H201	H	1.117339	0.067201	0.646903
H202	H	1.617339	0.567201	1.146903
H203	H	0.908221	0.011360	0.473936
H204	H	1.408221	0.511360	0.973936
H205	H	0.943662	0.228289	0.888012
H206	H	1.443662	0.728289	1.388012
H207	H	0.873195	-0.008882	0.564915
H208	H	1.373195	0.491118	1.064915
H209	H	0.819594	-0.039823	0.704147
H210	H	1.319594	0.460177	1.204147
H211	H	0.423750	0.032868	0.337535
H212	H	0.923750	0.532868	0.837535
