data_functionalizedCrystal
_audit_creation_method	'MofGen! by Chris Wilmer'
_symmetry_space_group_name_H-M	'P1'
_symmetry_Int_Tables_number	1
_symmetry_cell_setting	triclinic
loop_
_symmetry_equiv_pos_as_xyz
  x,y,z
_cell_length_a	15.072220
_cell_length_b	15.995350
_cell_length_c	15.995343
_cell_angle_alpha	83.490780
_cell_angle_beta	89.994632
_cell_angle_gamma	89.989989
loop_
_atom_site_label
_atom_site_type_symbol
_atom_site_fract_x
_atom_site_fract_y
_atom_site_fract_z
O1	O	-0.073717	1.110994	0.107921
O2	O	-0.073736	0.867219	0.121248
O3	O	-0.073709	0.995774	-0.007304
O4	O	-0.073743	0.982439	0.236473
O5	O	0.073856	0.995739	-0.007295
O6	O	0.073829	0.867184	0.121257
O7	O	0.073848	1.110960	0.107929
Zn8	Zn	0.097268	0.989066	0.114594
Zn9	Zn	-0.097156	0.989112	0.114583
O10	O	0.073822	0.982405	0.236481
C11	C	0.000044	0.836007	0.120702
C12	C	0.000037	0.743056	0.119050
N13	N	0.229957	0.989041	0.114602
C14	C	0.000057	0.405309	0.113118
C15	C	0.000399	0.452745	0.021565
C16	C	0.000060	0.549436	0.023217
C17	C	0.000048	0.572869	0.116060
C18	C	-0.084222	0.531801	0.161212
C19	C	-0.084286	0.435165	0.158912
C20	C	0.083523	0.434787	0.160813
C21	C	0.084630	0.531732	0.160792
C22	C	0.000040	0.667567	0.117728
C23	C	0.000059	0.310611	0.111452
C24	C	0.589158	0.989096	0.114587
C25	C	0.551537	0.920079	0.183141
C26	C	0.448711	0.920239	0.183391
C27	C	0.410954	0.989068	0.114594
C28	C	0.448249	1.076432	0.133676
C29	C	0.551107	1.076043	0.134165
C30	C	0.551269	0.971530	0.026747
C31	C	0.448405	0.969528	0.027331
C32	C	0.310241	0.989058	0.114597
C33	C	0.689871	0.989113	0.114586
N34	N	0.770156	0.989124	0.114579
C35	C	0.000075	0.995206	-0.038494
C36	C	0.000082	0.993557	-0.131445
C37	C	0.000066	1.142172	0.108476
C38	C	0.000067	1.235122	0.110128
C39	C	0.000062	0.990563	-0.301631
C40	C	0.000052	0.897766	-0.324977
C41	C	-0.000293	0.896021	-0.421655
C42	C	0.000043	0.987615	-0.469191
C43	C	-0.084051	1.034295	-0.440097
C44	C	-0.084112	1.035395	-0.343305
C45	C	0.083703	1.036714	-0.343399
C46	C	0.084799	1.033288	-0.439894
C47	C	0.000029	0.985953	-0.563889
C48	C	0.000070	0.992228	-0.206933
C49	C	0.000035	0.982972	0.267672
C50	C	0.000022	0.984621	0.360622
H51	H	0.060468	0.577851	-0.012275
H52	H	-0.147271	0.416873	0.125978
O53	O	0.080448	0.428195	-0.026912
H54	H	0.120844	0.381916	0.013722
O55	O	-0.088863	1.125530	-0.323983
H56	H	-0.150641	1.155009	-0.351177
O57	O	0.414376	1.031784	-0.043422
H58	H	0.471263	1.065400	-0.075974
O59	O	-0.088401	0.550502	0.251564
H60	H	-0.091364	0.619609	0.253374
H61	H	0.575598	1.021861	-0.024269
H62	H	0.084526	1.105016	-0.329379
O63	O	0.084277	0.392703	0.250221
H64	H	0.023171	0.410003	0.282973
H65	H	-0.060168	0.862398	-0.295991
O66	O	0.091362	0.552082	0.250474
H67	H	0.090534	0.492800	0.293875
H68	H	-0.086938	1.101706	-0.471943
O69	O	-0.080616	0.847883	-0.446087
H70	H	-0.119371	0.825771	-0.388816
O71	O	0.582867	1.096547	0.219020
H72	H	0.656498	1.096478	0.220209
O73	O	-0.080088	0.586361	-0.024117
H74	H	-0.080605	0.655630	-0.023109
O75	O	0.168171	0.997919	-0.305961
H76	H	0.170895	0.930592	-0.316606
H77	H	-0.059692	0.433167	-0.014865
H78	H	-0.147218	1.003474	-0.316517
O79	O	0.416091	0.935098	0.269734
H80	H	0.342452	0.935255	0.270217
H81	H	0.147397	0.414237	0.130887
H82	H	-0.088119	0.402916	0.226128
O83	O	0.415304	0.834218	0.168346
H84	H	0.440007	0.786728	0.218976
H85	H	-0.146929	0.560191	0.129844
H86	H	0.575992	1.129005	0.086202
H87	H	0.146973	0.559035	0.127831
H88	H	-0.146879	1.002294	-0.460186
O89	O	0.091866	1.121824	-0.483530
H90	H	0.152361	1.152223	-0.461428
H91	H	0.423790	1.129018	0.085073
O92	O	0.585653	0.888958	0.002452
H93	H	0.630137	0.859516	0.052721
O94	O	0.079536	0.847618	-0.446861
H95	H	0.118734	0.825246	-0.389949
H96	H	0.147013	0.999295	-0.458456
H97	H	0.576295	0.854929	0.171960
O98	O	0.585738	0.934727	0.269006
H99	H	0.629414	0.990951	0.263069
H100	H	0.424030	0.905262	0.012850
O101	O	0.414123	1.097432	0.217570
H102	H	0.370611	1.045788	0.245802
H103	H	0.060349	0.861783	-0.296971
