data_functionalizedCrystal
_audit_creation_method	'MofGen! by Chris Wilmer'
_symmetry_space_group_name_H-M	'P1'
_symmetry_Int_Tables_number	1
_symmetry_cell_setting	triclinic
loop_
_symmetry_equiv_pos_as_xyz
  x,y,z
_cell_length_a	19.188930
_cell_length_b	26.210047
_cell_length_c	19.188930
_cell_angle_alpha	90.000631
_cell_angle_beta	83.144779
_cell_angle_gamma	90.022886
loop_
_atom_site_label
_atom_site_type_symbol
_atom_site_fract_x
_atom_site_fract_y
_atom_site_fract_z
O1	O	0.926151	0.042599	0.087158
O2	O	0.722839	0.042564	0.098892
O3	O	0.830362	0.042573	-0.008631
O4	O	0.818628	0.042591	0.194680
O5	O	0.830341	-0.042285	-0.008614
O6	O	0.722819	-0.042294	0.098909
O7	O	0.926130	-0.042259	0.087174
Cu8	Cu	0.824472	-0.050025	0.093043
Cu9	Cu	0.824497	0.050330	0.093023
O10	O	0.818607	-0.042267	0.194697
C11	C	0.696818	0.000131	0.098520
C12	C	0.619313	0.000117	0.097380
N13	N	0.824460	-0.120609	0.093056
C14	C	0.574389	0.000131	0.160470
C15	C	0.501566	0.000137	0.159399
C16	C	0.473669	0.000139	0.095233
C17	C	0.518603	0.000122	0.032133
C18	C	0.591425	0.000112	0.033207
N19	N	0.365696	0.029036	0.046180
N20	N	0.296517	0.029047	0.045164
C21	C	0.254260	0.000170	0.091994
N22	N	0.283794	-0.028713	0.139889
N23	N	0.352979	-0.028722	0.140906
C24	C	0.394707	0.000150	0.094061
C25	C	0.130372	0.000188	0.153928
C26	C	0.057547	0.000191	0.152853
C27	C	0.074586	0.000182	0.025586
C28	C	0.147409	0.000174	0.026662
C29	C	0.175298	0.000180	0.090835
C30	C	0.872103	-0.473119	0.045423
C31	C	0.872118	-0.686778	0.045413
O32	O	0.912599	-0.714396	0.004916
N33	N	0.824501	-0.713503	0.093008
C34	C	0.776872	-0.686809	0.140605
O35	O	0.736366	-0.714443	0.181083
C36	C	0.776854	-0.473152	0.140611
C37	C	0.824480	-0.446430	0.093018
C38	C	0.919724	-0.446397	-0.002167
C39	C	0.919723	-0.392985	-0.002162
C40	C	0.872099	-0.366296	0.045434
C41	C	0.824478	-0.393018	0.093023
C42	C	0.729223	-0.446460	0.188205
C43	C	0.729222	-0.393042	0.188201
C44	C	0.776848	-0.366320	0.140608
C45	C	0.776853	-0.312918	0.140624
N46	N	0.824471	-0.286193	0.093029
C47	C	0.872094	-0.312882	0.045434
C48	C	0.776886	-0.798983	0.140600
C49	C	0.776891	-0.852397	0.140599
C50	C	0.872137	-0.852361	0.045406
C51	C	0.872134	-0.798946	0.045410
C52	C	0.824504	-0.772258	0.093005
C53	C	0.872087	-0.200714	0.045450
C54	C	0.872083	-0.147298	0.045461
C55	C	0.776836	-0.147338	0.140652
C56	C	0.776842	-0.200750	0.140643
C57	C	0.824470	-0.227436	0.093036
O58	O	0.736388	-0.285266	0.181094
O59	O	0.912584	-0.285239	0.004953
C60	C	0.872105	-0.526530	0.045417
C61	C	0.824484	-0.553253	0.093007
C62	C	0.776860	-0.526563	0.140602
C63	C	0.824489	-0.606667	0.093007
C64	C	0.872112	-0.633356	0.045411
C65	C	0.919730	-0.606631	-0.002183
C66	C	0.919728	-0.553220	-0.002178
C67	C	0.729243	-0.553288	0.188197
C68	C	0.729249	-0.606700	0.188188
C69	C	0.776872	-0.633389	0.140593
C70	C	0.952151	0.000175	0.087546
C71	C	1.029656	0.000192	0.088687
C72	C	0.829972	0.000142	-0.034634
C73	C	0.828831	0.000137	-0.112138
N74	N	0.824515	0.120914	0.093004
C75	C	0.891922	0.000146	-0.157062
C76	C	0.890850	0.000154	-0.229886
C77	C	0.826684	0.000143	-0.257782
C78	C	0.763585	0.000138	-0.212849
C79	C	0.764658	0.000135	-0.140026
N80	N	0.777630	-0.028744	-0.365782
N81	N	0.776614	-0.028742	-0.434960
C82	C	0.823446	0.000153	-0.477191
N83	N	0.871342	0.029040	-0.447631
N84	N	0.872360	0.029036	-0.378447
C85	C	0.825513	0.000147	-0.336745
C86	C	0.885379	0.000171	-0.601079
C87	C	0.884305	0.000182	-0.673904
C88	C	0.757038	0.000161	-0.656865
C89	C	0.758114	0.000155	-0.584042
C90	C	0.822287	0.000157	-0.556154
C91	C	0.818997	0.000164	0.220700
C92	C	0.820138	0.000172	0.298204
H93	H	0.597091	0.000137	0.212725
O94	O	0.952185	0.000227	-0.273466
C95	C	0.991170	0.044185	-0.260870
H96	H	0.973868	0.058835	-0.205573
H97	H	1.049414	0.034304	-0.266176
H98	H	0.981754	0.074959	-0.300673
H99	H	0.690433	-0.371315	0.226958
H100	H	0.690468	-0.628453	0.226950
O101	O	0.947696	0.000089	-0.573952
C102	C	0.952113	-0.043855	-0.532330
H103	H	0.915674	-0.074579	-0.549444
H104	H	1.008401	-0.058595	-0.539042
H105	H	0.935835	-0.033926	-0.474850
O106	O	0.918367	-0.878236	-0.000927
C107	C	0.907211	-0.865200	-0.070015
H108	H	0.880303	-0.826424	-0.069862
H109	H	0.959793	-0.863362	-0.104538
H110	H	0.872519	-0.895272	-0.091512
H111	H	0.935683	0.000191	-0.710481
O112	O	0.458016	0.000177	0.220752
C113	C	0.498247	0.000166	0.277621
H114	H	0.552670	0.016218	0.259729
H115	H	0.471270	0.024816	0.321802
H116	H	0.503331	-0.040542	0.297319
H117	H	0.958501	-0.371231	-0.040918
O118	O	0.965895	-0.472341	-0.048472
C119	C	0.928657	-0.503262	-0.091454
H120	H	0.873595	-0.487192	-0.092500
H121	H	0.957320	-0.503850	-0.147019
H122	H	0.924943	-0.543747	-0.069602
O123	O	0.694767	0.000131	-0.684071
C124	C	0.707347	0.000151	-0.757980
H125	H	0.761880	-0.015907	-0.775250
H126	H	0.666292	-0.024488	-0.780219
H127	H	0.704039	0.040863	-0.778236
H128	H	0.738118	-0.874150	0.179361
H129	H	0.711340	0.000131	-0.235567
H130	H	0.051874	0.000215	-0.026659
O131	O	0.683079	-0.527312	0.234468
C132	C	0.720337	-0.496419	0.277468
H133	H	0.775050	-0.488392	0.249520
H134	H	0.691156	-0.458871	0.288604
H135	H	0.724931	-0.517013	0.329050
O136	O	0.918280	-0.772949	-0.000890
C137	C	0.880990	-0.742099	-0.043885
H138	H	0.826289	-0.734097	-0.015910
H139	H	0.910163	-0.704536	-0.055066
H140	H	0.876363	-0.762717	-0.095445
H141	H	0.706738	0.000145	-0.547464
O142	O	0.491474	0.000216	-0.030180
C143	C	0.449886	0.044166	-0.034610
H144	H	0.467026	0.074883	0.001816
H145	H	0.456606	0.058913	-0.090903
H146	H	0.392398	0.034241	-0.018326
O147	O	0.730671	-0.121350	0.186910
C148	C	0.767922	-0.090449	0.229906
H149	H	0.822644	-0.082435	0.201969
H150	H	0.738748	-0.052895	0.241013
H151	H	0.772495	-0.111029	0.281502
O152	O	0.918384	-0.226688	-0.000698
C153	C	0.961358	-0.257562	0.036582
H154	H	0.933380	-0.265583	0.091282
H155	H	0.972505	-0.295114	0.007400
H156	H	1.012936	-0.236955	0.041207
O157	O	0.635139	0.000171	-0.028037
C158	C	0.677792	0.044121	-0.031239
H159	H	0.681315	0.058777	0.024167
H160	H	0.732599	0.034231	-0.057412
H161	H	0.653954	0.074896	-0.063060
H162	H	0.910868	-0.125542	0.006705
O163	O	0.157352	0.000166	0.216323
C164	C	0.102081	0.000187	0.271781
H165	H	0.052655	-0.015875	0.252364
H166	H	0.117145	-0.024449	0.316598
H167	H	0.091747	0.040899	0.291225
O168	O	0.954214	0.000222	-0.129892
C169	C	0.958665	0.044178	-0.088293
H170	H	0.903583	0.058821	-0.069984
H171	H	0.986352	0.034298	-0.040692
H172	H	0.989657	0.074958	-0.120564
H173	H	0.690442	-0.468210	0.226959
H174	H	0.020970	0.000199	0.204232
H175	H	0.738068	-0.222507	0.179404
O176	O	0.190953	0.000189	-0.034689
C177	C	0.150718	0.000179	-0.091556
H178	H	0.096324	0.016253	-0.073670
H179	H	0.177737	0.024809	-0.135753
H180	H	0.145559	-0.040532	-0.111227
O181	O	0.730592	-0.773141	0.186908
C182	C	0.688560	-0.808189	0.228899
H183	H	0.717192	-0.846252	0.229607
H184	H	0.677735	-0.792765	0.284689
H185	H	0.636766	-0.813889	0.206358
O186	O	0.966015	-0.527345	-0.048481
C187	C	1.008054	-0.562364	-0.090473
H188	H	0.979429	-0.600447	-0.091185
H189	H	1.018879	-0.546933	-0.146262
H190	H	1.059848	-0.568031	-0.067930
O191	O	0.703305	0.000102	-0.096483
C192	C	0.646437	0.000110	-0.136716
H193	H	0.664320	-0.015948	-0.191126
H194	H	0.602238	-0.024535	-0.109720
H195	H	0.626769	0.040819	-0.141836
H196	H	0.958509	-0.628370	-0.040935
