data_functionalizedCrystal
_audit_creation_method	'MofGen! by Chris Wilmer'
_symmetry_space_group_name_H-M	'P1'
_symmetry_Int_Tables_number	1
_symmetry_cell_setting	triclinic
loop_
_symmetry_equiv_pos_as_xyz
  x,y,z
_cell_length_a	17.640112
_cell_length_b	18.101395
_cell_length_c	17.640968
_cell_angle_alpha	78.770922
_cell_angle_beta	92.139080
_cell_angle_gamma	101.255692
loop_
_atom_site_label
_atom_site_type_symbol
_atom_site_fract_x
_atom_site_fract_y
_atom_site_fract_z
Zn1	Zn	1.247775	-0.021279	-0.195081
Zn2	Zn	1.221983	-0.174071	-0.068105
Zn3	Zn	1.095100	-0.069453	-0.093729
Zn4	Zn	1.120725	-0.164323	-0.220687
O5	O	1.171396	-0.107282	-0.144400
O6	O	1.350625	-0.025466	-0.156797
O7	O	1.183633	-0.184434	0.034768
O8	O	1.115423	0.040585	-0.107181
O9	O	1.331676	-0.137722	-0.063509
O10	O	1.227592	0.075978	-0.181644
O11	O	1.090413	-0.107572	0.015942
O12	O	0.992228	-0.098119	-0.132010
O13	O	1.159097	-0.121107	-0.323562
O14	O	1.011054	-0.167820	-0.225285
O15	O	1.252440	-0.016013	-0.304750
O16	O	1.208481	-0.276426	-0.088338
O17	O	1.134087	-0.269264	-0.200439
C18	C	0.974086	-0.137139	-0.184207
C19	C	0.889679	-0.149927	-0.201255
C20	C	0.563038	-0.010125	-0.014899
C21	C	0.483727	-0.022153	-0.030928
C22	C	0.503352	-0.094901	-0.127887
C23	C	0.582666	-0.082876	-0.111869
C24	C	0.612502	-0.040488	-0.055373
C25	C	0.632131	-0.113239	-0.152344
C26	C	0.711437	-0.101218	-0.136324
C27	C	0.741280	-0.058834	-0.079829
C28	C	0.691809	-0.028467	-0.039353
C29	C	0.602292	-0.155631	-0.208836
C30	C	0.651757	-0.185994	-0.249311
C31	C	0.731066	-0.173968	-0.233295
C32	C	0.760908	-0.131585	-0.176800
C33	C	0.780536	-0.204335	-0.273771
C34	C	0.859843	-0.192314	-0.257751
C35	C	0.840215	-0.119564	-0.160780
C36	C	1.171290	-0.299713	-0.144399
C37	C	1.171319	-0.382019	-0.144409
C38	C	1.171494	-0.681075	-0.144416
C39	C	1.124853	-0.645221	-0.215066
C40	C	1.124537	-0.559687	-0.214938
C41	C	1.171407	-0.532710	-0.144413
C42	C	1.133552	-0.585373	-0.068746
C43	C	1.133246	-0.670995	-0.069175
C44	C	1.255975	-0.632588	-0.148704
C45	C	1.255858	-0.546609	-0.150555
C46	C	1.171358	-0.448861	-0.144407
C47	C	1.171539	-0.764926	-0.144418
C48	C	1.369476	-0.077307	-0.104439
C49	C	1.453886	-0.064534	-0.087409
C50	C	1.211504	-0.062099	-0.342481
C51	C	1.228596	-0.042845	-0.426892
C52	C	1.171526	0.085908	-0.144415
C53	C	1.171582	0.168234	-0.144421
C54	C	1.041843	-0.253106	-0.753474
C55	C	1.057920	-0.235002	-0.832787
C56	C	1.155109	-0.125577	-0.813189
C57	C	1.139039	-0.143670	-0.733873
C58	C	1.082405	-0.207436	-0.704022
C59	C	1.179601	-0.097999	-0.684421
C60	C	1.163534	-0.116093	-0.605112
C61	C	1.106905	-0.179858	-0.575254
C62	C	1.066339	-0.225530	-0.624712
C63	C	1.236238	-0.034237	-0.714273
C64	C	1.276800	0.011433	-0.664821
C65	C	1.260729	-0.006657	-0.585511
C66	C	1.204100	-0.070421	-0.555653
C67	C	1.301296	0.039015	-0.536052
C68	C	1.285229	0.020921	-0.456743
C69	C	1.188033	-0.088515	-0.476344
C70	C	1.131487	-0.152228	0.052919
C71	C	1.114543	-0.171252	0.137358
H72	H	0.627452	-0.220508	-0.295307
H73	H	0.443455	0.002582	0.002031
H74	H	1.020204	-0.277439	-0.600410
O75	O	1.324675	0.065385	-0.408813
C76	C	1.378117	0.125536	-0.452164
H77	H	1.358469	0.136295	-0.514978
H78	H	1.437485	0.109066	-0.448955
C79	C	1.406972	0.185743	-0.341853
C80	C	1.382837	0.198961	-0.419001
H81	H	1.409887	0.231035	-0.321396
H82	H	1.370970	0.145217	-0.312646
H83	H	1.456443	0.172017	-0.339189
H84	H	1.333363	0.212678	-0.421663
H85	H	1.418832	0.239492	-0.448209
O86	O	1.289469	-0.503277	-0.216903
C87	C	1.236872	-0.460600	-0.257641
H88	H	1.192138	-0.453826	-0.215781
H89	H	1.206533	-0.491926	-0.303796
C90	C	1.335770	-0.389136	-0.347755
C91	C	1.280831	-0.380810	-0.296340
H92	H	1.362885	-0.339919	-0.371629
H93	H	1.371205	-0.417890	-0.320310
H94	H	1.310479	-0.415243	-0.386210
H95	H	1.306123	-0.354712	-0.257881
H96	H	1.245401	-0.352050	-0.323779
H97	H	1.141899	-0.140425	-0.452041
H98	H	1.293746	-0.527294	-0.101558
H99	H	0.805856	-0.049049	-0.066785
H100	H	1.093827	-0.194591	-0.510674
H101	H	0.864511	-0.085034	-0.114787
O102	O	1.051040	-0.685360	-0.213430
C103	C	1.036100	-0.715703	-0.281459
H104	H	1.092966	-0.720536	-0.306961
H105	H	1.005684	-0.676124	-0.325166
C106	C	0.914207	-0.789849	-0.230956
C107	C	0.984051	-0.795791	-0.262275
H108	H	0.882098	-0.839249	-0.219125
H109	H	0.924271	-0.769405	-0.185125
H110	H	0.888871	-0.756863	-0.267384
H111	H	1.009390	-0.828768	-0.225843
H112	H	0.973990	-0.816243	-0.308099
H113	H	0.716105	0.006063	0.006640
O114	O	0.591895	0.031037	0.040033
C115	C	0.531235	0.055279	0.072311
H116	H	0.474145	0.015775	0.063569
H117	H	0.528483	0.116578	0.042708
C118	C	0.615927	0.100841	0.170105
C119	C	0.545809	0.052317	0.159374
H120	H	0.624918	0.099018	0.223808
H121	H	0.656796	0.084512	0.148357
H122	H	0.613626	0.151918	0.145431
H123	H	0.548115	0.001240	0.184039
H124	H	0.504940	0.068638	0.181127
H125	H	1.287333	-0.638077	-0.202087
H126	H	0.537715	-0.165417	-0.221877
O127	O	1.251851	-0.016793	-0.791313
C128	C	1.276689	-0.078775	-0.813870
H129	H	1.254422	-0.133830	-0.770786
H130	H	1.342550	-0.067605	-0.815220
C131	C	1.272281	-0.019582	-0.947800
C132	C	1.244927	-0.087202	-0.894888
H133	H	1.252692	-0.024780	-0.997777
H134	H	1.255550	0.022178	-0.932604
H135	H	1.327164	-0.010281	-0.948916
H136	H	1.190046	-0.096497	-0.893766
H137	H	1.261648	-0.128965	-0.910086
H138	H	1.165741	-0.569009	-0.015381
O139	O	0.474243	-0.136027	-0.182766
C140	C	0.393634	-0.140145	-0.188213
H141	H	0.377797	-0.090249	-0.165624
H142	H	0.362902	-0.196672	-0.152247
C143	C	0.387941	-0.196970	-0.301005
C144	C	0.368490	-0.135683	-0.273267
H145	H	0.372429	-0.194221	-0.353470
H146	H	0.442248	-0.194198	-0.297334
H147	H	0.362329	-0.244069	-0.271026
H148	H	0.394109	-0.088586	-0.303239
H149	H	0.314186	-0.138447	-0.276945
H150	H	0.995709	-0.305016	-0.729171
O151	O	0.751527	-0.245391	-0.328734
C152	C	0.715602	-0.199053	-0.387105
H153	H	0.740493	-0.136013	-0.387070
H154	H	0.650739	-0.210933	-0.375763
C155	C	0.699781	-0.294968	-0.466277
C156	C	0.730357	-0.217542	-0.466239
H157	H	0.708879	-0.306375	-0.515091
H158	H	0.723982	-0.326189	-0.426950
H159	H	0.645731	-0.304859	-0.456822
H160	H	0.784407	-0.207655	-0.475684
H161	H	0.706166	-0.186320	-0.505569
O162	O	1.059970	-0.575102	-0.061780
C163	C	1.042521	-0.520354	-0.125133
H164	H	1.082040	-0.517599	-0.175694
H165	H	1.051693	-0.461661	-0.108050
C166	C	0.909148	-0.546941	-0.087011
C167	C	0.957682	-0.543562	-0.149114
H168	H	0.856815	-0.561254	-0.101802
H169	H	0.920904	-0.583824	-0.044327
H170	H	0.916801	-0.498028	-0.072781
H171	H	0.950035	-0.592476	-0.163336
H172	H	0.945923	-0.506687	-0.191800
H173	H	1.164866	-0.695864	-0.015612
O174	O	1.297575	-0.660632	-0.087061
C175	C	1.250601	-0.723736	-0.040233
H176	H	1.201222	-0.749688	-0.076302
H177	H	1.225939	-0.703754	0.009393
C178	C	1.359951	-0.752729	0.036906
C179	C	1.299307	-0.784608	-0.007396
H180	H	1.389995	-0.790276	0.057165
H181	H	1.391598	-0.710213	0.005360
H182	H	1.339390	-0.736078	0.078256
H183	H	1.319868	-0.801249	-0.048750
H184	H	1.267664	-0.827128	0.024144
H185	H	1.024885	-0.272198	-0.873049
O186	O	0.907796	-0.221828	-0.297165
C187	C	0.864454	-0.261831	-0.350453
H188	H	0.808473	-0.239460	-0.364555
H189	H	0.850346	-0.325684	-0.324255
C190	C	0.980544	-0.276970	-0.407682
C191	C	0.911790	-0.249489	-0.425008
H192	H	1.009743	-0.269361	-0.453670
H193	H	1.009745	-0.250022	-0.371779
H194	H	0.968777	-0.330179	-0.385849
H195	H	0.923558	-0.196280	-0.446831
H196	H	0.882593	-0.276428	-0.460916
O197	O	1.155296	-0.651227	-0.282799
C198	C	1.219271	-0.687909	-0.267324
H199	H	1.214154	-0.723739	-0.206318
H200	H	1.274826	-0.642851	-0.272423
C201	C	1.227307	-0.696438	-0.400869
C202	C	1.221018	-0.740450	-0.325943
H203	H	1.228388	-0.728845	-0.437030
H204	H	1.184208	-0.671722	-0.411296
H205	H	1.273603	-0.658892	-0.405107
H206	H	1.174719	-0.777989	-0.321703
H207	H	1.264110	-0.765174	-0.315516
O208	O	1.210018	-0.063567	-0.842246
C209	C	1.176109	-0.011818	-0.896868
H210	H	1.111459	-0.021748	-0.885042
H211	H	1.185657	-0.021403	-0.957501
C212	C	1.292907	0.083270	-0.905131
C213	C	1.213504	0.071078	-0.890601
H214	H	1.315976	0.134404	-0.901269
H215	H	1.315754	0.048405	-0.868334
H216	H	1.300854	0.075278	-0.955658
H217	H	1.205559	0.079061	-0.840072
H218	H	1.190657	0.105946	-0.927391
H219	H	1.322913	0.063350	-0.689136
O220	O	1.050234	-0.549699	-0.213206
C221	C	1.035569	-0.496690	-0.279364
H222	H	1.078139	-0.495097	-0.326982
H223	H	1.042669	-0.437222	-0.264400
C224	C	0.900169	-0.523227	-0.249039
C225	C	0.952450	-0.521275	-0.307526
H226	H	0.848896	-0.538390	-0.266409
H227	H	0.910048	-0.558938	-0.204465
H228	H	0.906095	-0.473669	-0.236574
H229	H	0.946530	-0.570835	-0.319983
H230	H	0.942567	-0.485573	-0.352102
H231	H	1.347412	0.090929	-0.560368
O232	O	1.059021	-0.710299	-0.062709
C233	C	1.039687	-0.744280	-0.128043
H234	H	1.094685	-0.751442	-0.155410
H235	H	1.007973	-0.705993	-0.171791
C236	C	0.919567	-0.814644	-0.069732
C237	C	0.987116	-0.823448	-0.103342
H238	H	0.887136	-0.863477	-0.054498
H239	H	0.932590	-0.791749	-0.025716
H240	H	0.893148	-0.782736	-0.106194
H241	H	1.013538	-0.855347	-0.066877
H242	H	0.974096	-0.846350	-0.147351
H243	H	1.150097	-0.523052	-0.271551
