data_functionalizedCrystal
_audit_creation_method	'MofGen! by Chris Wilmer'
_symmetry_space_group_name_H-M	'P1'
_symmetry_Int_Tables_number	1
_symmetry_cell_setting	triclinic
loop_
_symmetry_equiv_pos_as_xyz
  x,y,z
_cell_length_a	29.839134
_cell_length_b	16.994731
_cell_length_c	29.839125
_cell_angle_alpha	89.938631
_cell_angle_beta	90.021980
_cell_angle_gamma	89.943075
loop_
_atom_site_label
_atom_site_type_symbol
_atom_site_fract_x
_atom_site_fract_y
_atom_site_fract_z
Zn1	Zn	0.687011	-0.314247	0.254372
Zn2	Zn	1.187011	0.185753	0.754372
Zn3	Zn	0.687065	-0.446128	0.179346
Zn4	Zn	1.187065	0.053872	0.679346
Zn5	Zn	0.611894	-0.314230	0.179242
Zn6	Zn	1.111894	0.185770	0.679242
Zn7	Zn	0.611964	-0.446102	0.254434
Zn8	Zn	1.111964	0.053898	0.754434
O9	O	0.649483	-0.380177	0.216848
O10	O	1.149483	0.119823	0.716848
O11	O	0.749885	-0.331760	0.244437
O12	O	1.249885	0.168240	0.744437
O13	O	0.677087	-0.428635	0.116465
O14	O	1.177087	0.071365	0.616465
O15	O	0.621806	-0.203851	0.189138
O16	O	1.121806	0.296149	0.689138
O17	O	0.749925	-0.428652	0.189316
O18	O	1.249925	0.071348	0.689316
O19	O	0.676994	-0.203864	0.244336
O20	O	1.176994	0.296136	0.744336
O21	O	0.621859	-0.331730	0.116388
O22	O	1.121859	0.168270	0.616388
O23	O	0.549036	-0.331705	0.189199
O24	O	1.049036	0.168295	0.689199
O25	O	0.621925	-0.428607	0.317293
O26	O	1.121925	0.071393	0.817293
O27	O	0.549087	-0.428590	0.244442
O28	O	1.049087	0.071410	0.744442
O29	O	0.677062	-0.331734	0.317248
O30	O	1.177062	0.168266	0.817248
O31	O	0.677155	-0.556506	0.189376
O32	O	1.177155	-0.056506	0.689376
O33	O	0.621978	-0.556487	0.244543
O34	O	1.121978	-0.056487	0.744543
C35	C	0.532761	-0.380143	0.216816
C36	C	1.032761	0.119857	0.716816
C37	C	0.482826	-0.380148	0.216813
C38	C	0.982826	0.119852	0.716813
C39	C	0.649506	-0.674437	0.216883
C40	C	1.149506	-0.174437	0.716883
C41	C	0.649546	-0.585115	0.216942
C42	C	1.149546	-0.085115	0.716942
Zn43	Zn	0.687130	-0.814213	0.179391
Zn44	Zn	1.187130	-0.314213	0.679391
Zn45	Zn	0.611748	-0.814264	0.254198
Zn46	Zn	1.111748	-0.314264	0.754198
Zn47	Zn	0.686794	-0.946382	0.254414
Zn48	Zn	1.186794	-0.446382	0.754414
Zn49	Zn	0.611959	-0.945847	0.179002
Zn50	Zn	1.111959	-0.445847	0.679002
O51	O	0.649408	-0.880176	0.216751
O52	O	1.149408	-0.380176	0.716751
O53	O	0.677183	-0.703839	0.189387
O54	O	1.177183	-0.203839	0.689387
O55	O	0.621474	-0.832035	0.317093
O56	O	1.121474	-0.332035	0.817093
O57	O	0.749705	-0.929052	0.244715
O58	O	1.249705	-0.429052	0.744715
O59	O	0.621800	-0.703876	0.244347
O60	O	1.121800	-0.203876	0.744347
O61	O	0.749952	-0.831948	0.189596
O62	O	1.249952	-0.331948	0.689596
O63	O	0.676610	-0.929101	0.317252
O64	O	1.176610	-0.429101	0.817252
O65	O	0.676815	-1.056692	0.244338
O66	O	1.176815	-0.556692	0.744338
O67	O	0.622160	-0.928141	0.116187
O68	O	1.122160	-0.428141	0.616187
O69	O	0.621834	-1.056299	0.188933
O70	O	1.121834	-0.556299	0.688933
O71	O	0.677388	-0.831430	0.116473
O72	O	1.177388	-0.331430	0.616473
O73	O	0.548909	-0.831516	0.243970
O74	O	1.048909	-0.331516	0.743970
O75	O	0.549064	-0.928190	0.188724
O76	O	1.049064	-0.428190	0.688724
C77	C	0.173219	-0.430700	0.245579
C78	C	0.673219	0.069300	0.745579
C79	C	-0.014454	-0.430722	0.245599
C80	C	0.485546	0.069278	0.745599
O81	O	-0.038688	-0.473666	0.270037
O82	O	0.461312	0.026334	0.770037
N83	N	-0.037959	-0.380206	0.216882
N84	N	0.462041	0.119794	0.716882
C85	C	-0.014543	-0.329677	0.188161
C86	C	0.485457	0.170323	0.688161
O87	O	-0.038841	-0.286704	0.163740
O88	O	0.461159	0.213296	0.663740
C89	C	0.173130	-0.329651	0.188144
C90	C	0.673130	0.170349	0.688144
C91	C	0.196632	-0.380176	0.216859
C92	C	0.696632	0.119824	0.716859
C93	C	0.196722	-0.481220	0.274292
C94	C	0.696722	0.018780	0.774292
C95	C	0.243637	-0.481217	0.274285
C96	C	0.743637	0.018783	0.774285
C97	C	0.267050	-0.430694	0.245565
C98	C	0.767050	0.069306	0.745565
C99	C	0.243548	-0.380173	0.216852
C100	C	0.743548	0.119827	0.716852
C101	C	0.196545	-0.279119	0.159425
C102	C	0.696545	0.220881	0.659425
C103	C	0.243466	-0.279115	0.159424
C104	C	0.743466	0.220885	0.659424
C105	C	0.266968	-0.329641	0.188139
C106	C	0.766968	0.170359	0.688139
C107	C	0.313876	-0.329647	0.188125
C108	C	0.813876	0.170353	0.688125
N109	N	0.337381	-0.380163	0.216841
N110	N	0.837381	0.119837	0.716841
C111	C	0.313968	-0.430686	0.245561
C112	C	0.813968	0.069314	0.745561
C113	C	-0.113073	-0.329695	0.188172
C114	C	0.386927	0.170305	0.688172
C115	C	-0.159991	-0.329702	0.188175
C116	C	0.340009	0.170298	0.688175
C117	C	-0.159899	-0.430747	0.245614
C118	C	0.340101	0.069253	0.745614
C119	C	-0.112980	-0.430743	0.245607
C120	C	0.387020	0.069257	0.745607
C121	C	-0.089568	-0.380211	0.216888
C122	C	0.410432	0.119789	0.716888
C123	C	0.412494	-0.430677	0.245544
C124	C	0.912494	0.069323	0.745544
C125	C	0.459413	-0.430671	0.245533
C126	C	0.959413	0.069329	0.745533
C127	C	0.459317	-0.329625	0.188096
C128	C	0.959317	0.170375	0.688096
C129	C	0.412402	-0.329632	0.188105
C130	C	0.912402	0.170368	0.688105
C131	C	0.388991	-0.380161	0.216833
C132	C	0.888991	0.119839	0.716833
O133	O	0.338139	-0.286719	0.163702
O134	O	0.838139	0.213281	0.663702
O135	O	0.338275	-0.473640	0.269986
O136	O	0.838275	0.026360	0.769986
C137	C	0.126304	-0.430703	0.245586
C138	C	0.626304	0.069297	0.745586
C139	C	0.102801	-0.380182	0.216873
C140	C	0.602801	0.119818	0.716873
C141	C	0.126214	-0.329659	0.188153
C142	C	0.626214	0.170341	0.688153
C143	C	0.055883	-0.380190	0.216876
C144	C	0.555883	0.119810	0.716876
C145	C	0.032470	-0.430713	0.245596
C146	C	0.532470	0.069287	0.745596
C147	C	0.055975	-0.481229	0.274313
C148	C	0.555975	0.018771	0.774313
C149	C	0.102891	-0.481226	0.274306
C150	C	0.602891	0.018774	0.774306
C151	C	0.102709	-0.279143	0.159436
C152	C	0.602709	0.220857	0.659436
C153	C	0.055794	-0.279150	0.159445
C154	C	0.555794	0.220850	0.659445
C155	C	0.032381	-0.329674	0.188165
C156	C	0.532381	0.170326	0.688165
C157	C	0.766662	-0.380211	0.216881
C158	C	1.266662	0.119789	0.716881
C159	C	0.816596	-0.380226	0.216895
C160	C	1.316596	0.119774	0.716895
C161	C	0.649495	-0.380170	0.334027
C162	C	1.149495	0.119830	0.834027
C163	C	0.649501	-0.380167	0.383961
C164	C	1.149501	0.119833	0.883961
C165	C	0.649383	-0.174436	0.216718
C166	C	1.149383	0.325564	0.716718
C167	C	0.649341	-0.085114	0.216661
C168	C	1.149341	0.414886	0.716661
C169	C	0.649497	-0.380127	0.100126
C170	C	1.149497	0.119873	0.600126
C171	C	0.649579	-0.379908	0.050192
C172	C	1.149579	0.120092	0.550192
C173	C	0.678241	-0.329593	0.693584
C174	C	1.178241	0.170407	1.193584
C175	C	0.678263	-0.329526	0.881257
C176	C	1.178263	0.170474	1.381257
O177	O	0.702665	-0.286601	0.905504
O178	O	1.202665	0.213399	1.405504
N179	N	0.649560	-0.379955	0.904746
N180	N	1.149560	0.120045	1.404746
C181	C	0.620848	-0.430402	0.881315
C182	C	1.120848	0.069598	1.381315
O183	O	0.596431	-0.473288	0.905600
O184	O	1.096431	0.026712	1.405600
C185	C	0.620823	-0.430465	0.693642
C186	C	1.120823	0.069535	1.193642
C187	C	0.649531	-0.380037	0.670155
C188	C	1.149531	0.119963	1.170155
C189	C	0.706946	-0.279169	0.670097
C190	C	1.206946	0.220831	1.170097
C191	C	0.706942	-0.279189	0.623182
C192	C	1.206942	0.220811	1.123182
C193	C	0.678232	-0.329634	0.599753
C194	C	1.178232	0.170366	1.099753
C195	C	0.649527	-0.380058	0.623240
C196	C	1.149527	0.119942	1.123240
C197	C	0.592109	-0.480907	0.670212
C198	C	1.092109	0.019093	1.170212
C199	C	0.592105	-0.480917	0.623290
C200	C	1.092105	0.019083	1.123290
C201	C	0.620813	-0.430489	0.599804
C202	C	1.120813	0.069511	1.099804
C203	C	0.620814	-0.430522	0.552896
C204	C	1.120814	0.069478	1.052896
N205	N	0.649517	-0.380093	0.529407
N206	N	1.149517	0.119907	1.029407
C207	C	0.678226	-0.329648	0.552835
C208	C	1.178226	0.170352	1.052835
C209	C	0.620863	-0.430367	0.979845
C210	C	1.120863	0.069633	1.479845
C211	C	0.620869	-0.430352	1.026763
C212	C	1.120869	0.069648	1.526763
C213	C	0.678284	-0.329474	1.026702
C214	C	1.178284	0.170526	1.526702
C215	C	0.678280	-0.329494	0.979784
C216	C	1.178280	0.170506	1.479784
C217	C	0.649566	-0.379937	0.956356
C218	C	1.149566	0.120063	1.456356
C219	C	0.678215	-0.329695	0.454309
C220	C	1.178215	0.170305	0.954309
C221	C	0.678210	-0.329722	0.407390
C222	C	1.178210	0.170278	0.907390
C223	C	0.620794	-0.430597	0.407455
C224	C	1.120794	0.069403	0.907455
C225	C	0.620801	-0.430573	0.454370
C226	C	1.120801	0.069427	0.954370
C227	C	0.649513	-0.380116	0.477796
C228	C	1.149513	0.119884	0.977796
O229	O	0.596421	-0.473419	0.528620
O230	O	1.096421	0.026581	1.028620
O231	O	0.702631	-0.286756	0.528542
O232	O	1.202631	0.213244	1.028542
C233	C	0.678245	-0.329573	0.740499
C234	C	1.178245	0.170427	1.240499
C235	C	0.649540	-0.379997	0.763986
C236	C	1.149540	0.120003	1.263986
C237	C	0.620830	-0.430441	0.740558
C238	C	1.120830	0.069559	1.240558
C239	C	0.649546	-0.379982	0.810904
C240	C	1.149546	0.120018	1.310904
C241	C	0.678255	-0.329538	0.834333
C242	C	1.178255	0.170462	1.334333
C243	C	0.706958	-0.279108	0.810843
C244	C	1.206958	0.220892	1.310843
C245	C	0.706954	-0.279128	0.763928
C246	C	1.206954	0.220872	1.263928
C247	C	0.592128	-0.480871	0.764047
C248	C	1.092128	0.019129	1.264047
C249	C	0.592134	-0.480847	0.810963
C250	C	1.092134	0.019153	1.310963
C251	C	0.620844	-0.430403	0.834391
C252	C	1.120844	0.069597	1.334391
C253	C	0.532686	-0.879799	0.216283
C254	C	1.032686	-0.379799	0.716283
C255	C	0.482752	-0.879614	0.216095
C256	C	0.982752	-0.379614	0.716095
C257	C	0.649835	-0.879720	0.099574
C258	C	1.149835	-0.379720	0.599574
C259	C	0.650017	-0.879525	0.049640
C260	C	1.150017	-0.379525	0.549640
C261	C	0.766585	-0.880554	0.217223
C262	C	1.266585	-0.380554	0.717223
C263	C	0.816519	-0.880714	0.217424
C264	C	1.316519	-0.380714	0.717424
C265	C	0.649014	-0.880588	0.333473
C266	C	1.149014	-0.380588	0.833473
C267	C	0.648956	-0.880635	0.383407
C268	C	1.148956	-0.380635	0.883407
C269	C	0.459235	-0.829147	0.244747
C270	C	0.959235	-0.329147	0.744747
C271	C	0.412316	-0.828958	0.244571
C272	C	0.912316	-0.328958	0.744571
C273	C	0.388916	-0.879241	0.215745
C274	C	0.888916	-0.379241	0.715745
C275	C	0.412436	-0.929710	0.187089
C276	C	0.912436	-0.429710	0.687089
C277	C	0.459354	-0.929894	0.187264
C278	C	0.959354	-0.429894	0.687264
C279	C	0.678860	-0.829082	0.026337
C280	C	1.178860	-0.329082	0.526337
C281	C	0.679040	-0.828899	-0.020582
C282	C	1.179040	-0.328899	0.479418
C283	C	0.650374	-0.879157	-0.044196
C284	C	1.150374	-0.379157	0.455804
C285	C	0.621529	-0.929606	-0.020889
C286	C	1.121529	-0.429606	0.479111
C287	C	0.621352	-0.929792	0.026028
C288	C	1.121352	-0.429792	0.526028
C289	C	0.839843	-0.931353	0.246216
C290	C	1.339843	-0.431353	0.746216
C291	C	0.886761	-0.931519	0.246405
C292	C	1.386761	-0.431519	0.746405
C293	C	0.910355	-0.881043	0.217804
C294	C	1.410355	-0.381043	0.717804
C295	C	0.887029	-0.830403	0.189009
C296	C	1.387029	-0.330403	0.689009
C297	C	0.840111	-0.830241	0.188818
C298	C	1.340111	-0.330241	0.688818
C299	C	0.677429	-0.931558	0.406919
C300	C	1.177429	-0.431558	0.906919
C301	C	0.677384	-0.931602	0.453838
C302	C	1.177384	-0.431602	0.953838
C303	C	0.648863	-0.880726	0.477244
C304	C	1.148863	-0.380726	0.977244
C305	C	0.620388	-0.829797	0.453729
C306	C	1.120388	-0.329797	0.953729
C307	C	0.620436	-0.829749	0.406811
C308	C	1.120436	-0.329749	0.906811
H309	H	0.478547	-0.471818	0.268916
H310	H	0.978547	0.028182	0.768916
H311	H	0.700572	-0.973078	0.472977
H312	H	1.200572	-0.473078	0.972977
H313	H	0.598191	-0.970525	-0.040123
H314	H	1.098191	-0.470525	0.459877
H315	H	-0.179123	-0.288567	0.164788
H316	H	0.320877	0.211433	0.664788
H317	H	0.478389	-0.288492	0.164712
H318	H	0.978389	0.211508	0.664712
C319	C	0.814460	-0.774521	0.157149
C320	C	1.314460	-0.274521	0.657149
N321	N	0.795143	-0.732549	0.133294
N322	N	1.295143	-0.232549	0.633294
C323	C	0.386453	-0.773443	0.276100
C324	C	0.886453	-0.273443	0.776100
N325	N	0.366974	-0.731630	0.299848
N326	N	0.866974	-0.231630	0.799848
H327	H	0.700660	-0.972983	0.387868
H328	H	1.200660	-0.472983	0.887868
C329	C	0.589224	-0.486050	0.480207
C330	C	1.089224	0.013950	0.980207
N331	N	0.565436	-0.527831	0.499663
N332	N	1.065436	-0.027831	0.999663
C333	C	0.738536	-0.223615	0.836624
C334	C	1.238536	0.276385	1.336624
N335	N	0.762317	-0.181816	0.856044
N336	N	1.262317	0.318184	1.356044
H337	H	0.597167	-0.788375	0.472793
H338	H	1.097167	-0.288375	0.972793
H339	H	0.350713	-0.879079	0.215606
H340	H	0.850713	-0.379079	0.715606
H341	H	0.568758	-0.521918	0.830082
H342	H	1.068758	-0.021918	1.330082
H343	H	0.597862	-0.970868	0.044998
H344	H	1.097862	-0.470868	0.544998
C345	C	0.650571	-0.878937	-0.095807
C346	C	1.150571	-0.378937	0.404193
N347	N	0.650720	-0.878765	-0.134680
N348	N	1.150720	-0.378765	0.365320
C349	C	-0.185662	-0.486318	0.277208
C350	C	0.314338	0.013682	0.777208
N351	N	-0.205069	-0.528168	0.301007
N352	N	0.294931	-0.028168	0.801007
H353	H	0.648828	-0.880772	0.515448
H354	H	1.148828	-0.380772	1.015448
C355	C	0.813898	-0.986889	0.277679
C356	C	1.313898	-0.486889	0.777679
N357	N	0.794360	-1.028725	0.301377
N358	N	1.294360	-0.528725	0.801377
C359	C	0.589107	-0.773734	0.380953
C360	C	1.089107	-0.273734	0.880953
N361	N	0.565507	-0.731540	0.361480
N362	N	1.065507	-0.231540	0.861480
H363	H	0.393438	-0.471820	0.268937
H364	H	0.893438	0.028180	0.768937
H365	H	0.478281	-0.788199	0.268222
H366	H	0.978281	-0.288199	0.768222
H367	H	0.905747	-0.972756	0.269855
H368	H	1.405747	-0.472756	0.769855
H369	H	0.906246	-0.789307	0.165723
H370	H	1.406246	-0.289307	0.665723
H371	H	0.948559	-0.881183	0.217964
H372	H	1.448559	-0.381183	0.717964
H373	H	0.177664	-0.522363	0.297681
H374	H	0.677664	-0.022363	0.797681
C375	C	0.269484	-0.536795	0.305876
C376	C	0.769484	-0.036795	0.805876
N377	N	0.288949	-0.578658	0.329673
N378	N	0.788949	-0.078658	0.829673
H379	H	-0.093848	-0.471884	0.268990
H380	H	0.406152	0.028116	0.768990
H381	H	-0.094015	-0.288545	0.164783
H382	H	0.405985	0.211455	0.664783
H383	H	0.597481	-0.471449	0.960775
H384	H	1.097481	0.028551	1.460775
H385	H	0.393376	-0.970647	0.163619
H386	H	0.893376	-0.470647	0.663619
H387	H	0.177417	-0.237978	0.136041
H388	H	0.677417	0.262022	0.636041
C389	C	0.485217	-0.985422	0.155746
C390	C	0.985217	-0.485422	0.655746
N391	N	0.504696	-1.027249	0.132005
N392	N	1.004696	-0.527249	0.632005
H393	H	0.702202	-0.788151	0.045557
H394	H	1.202202	-0.288151	0.545557
H395	H	0.262526	-0.237961	0.136039
H396	H	0.762526	0.262039	0.636039
C397	C	0.128737	-0.536806	0.305896
C398	C	0.628737	-0.036806	0.805896
N399	N	0.148202	-0.578670	0.329693
N400	N	0.648202	-0.078670	0.829693
C401	C	0.030212	-0.536804	0.305906
C402	C	0.530212	-0.036804	0.805906
N403	N	0.010805	-0.578657	0.329702
N404	N	0.510805	-0.078657	0.829702
C405	C	0.386548	-0.274058	0.156514
C406	C	0.886548	0.225942	0.656514
N407	N	0.367079	-0.232194	0.132722
N408	N	0.867079	0.267806	0.632722
C409	C	0.029946	-0.223563	0.127855
C410	C	0.529946	0.276437	0.627855
N411	N	0.010480	-0.181689	0.104066
N412	N	0.510480	0.318311	0.604066
H413	H	0.121767	-0.237999	0.136049
H414	H	0.621767	0.262001	0.636049
C415	C	0.709790	-0.274242	0.381557
C416	C	1.209790	0.225758	0.881557
N417	N	0.733574	-0.232453	0.362101
N418	N	1.233574	0.267547	0.862101
C419	C	0.710768	-0.773391	-0.046210
C420	C	1.210768	-0.273391	0.453790
N421	N	0.734665	-0.731580	-0.065512
N422	N	1.234665	-0.231580	0.434488
H423	H	0.730318	-0.238125	0.604063
H424	H	1.230318	0.261875	1.104063
C425	C	0.709803	-0.274194	0.480071
C426	C	1.209803	0.225806	0.980071
N427	N	0.733597	-0.232395	0.499475
N428	N	1.233597	0.267605	0.999475
H429	H	0.730324	-0.238087	0.689167
H430	H	1.230324	0.261913	1.189167
H431	H	0.701655	-0.288430	0.960664
H432	H	1.201655	0.211570	1.460664
H433	H	0.701661	-0.288401	1.045786
H434	H	1.201661	0.211599	1.545786
H435	H	0.597498	-0.471424	1.045882
H436	H	1.097498	0.028576	1.545882
H437	H	0.568732	-0.521970	0.689327
H438	H	1.068732	-0.021970	1.189327
H439	H	0.597421	-0.471670	0.388371
H440	H	1.097421	0.028330	0.888371
C441	C	0.738531	-0.223647	0.738098
C442	C	1.238531	0.276353	1.238098
N443	N	0.762316	-0.181853	0.718647
N444	N	1.262316	0.318147	1.218647
C445	C	0.560543	-0.536366	0.738282
C446	C	1.060543	-0.036366	1.238282
N447	N	0.536753	-0.578171	0.718878
N448	N	1.036753	-0.078171	1.218878
C449	C	0.560517	-0.536412	0.597523
C450	C	1.060517	-0.036412	1.097523
N451	N	0.536727	-0.578213	0.578116
N452	N	1.036727	-0.078213	1.078116
