data_functionalizedCrystal
_audit_creation_method	'MofGen! by Chris Wilmer'
_symmetry_space_group_name_H-M	'P1'
_symmetry_Int_Tables_number	1
_symmetry_cell_setting	triclinic
loop_
_symmetry_equiv_pos_as_xyz
  x,y,z
_cell_length_a	19.805407
_cell_length_b	12.759394
_cell_length_c	12.759395
_cell_angle_alpha	90.007983
_cell_angle_beta	90.006999
_cell_angle_gamma	90.013856
loop_
_atom_site_label
_atom_site_type_symbol
_atom_site_fract_x
_atom_site_fract_y
_atom_site_fract_z
Zn1	Zn	1.034711	-0.418439	0.594104
Zn2	Zn	1.534711	0.081561	1.094104
Zn3	Zn	1.034675	-0.594089	0.418427
Zn4	Zn	1.534675	-0.094089	0.918427
Zn5	Zn	0.921550	-0.418424	0.418431
Zn6	Zn	1.421550	0.081576	0.918431
Zn7	Zn	0.921514	-0.594077	0.594056
Zn8	Zn	1.421514	-0.094077	1.094056
O9	O	0.978112	-0.506257	0.506255
O10	O	1.478112	-0.006257	1.006255
O11	O	1.129423	-0.441751	0.570819
O12	O	1.629423	0.058249	1.070819
O13	O	1.019669	-0.570785	0.271407
O14	O	1.519669	-0.070785	0.771407
O15	O	0.936591	-0.271405	0.441756
O16	O	1.436591	0.228595	0.941756
O17	O	1.129396	-0.570800	0.441750
O18	O	1.629396	-0.070800	0.941750
O19	O	1.019730	-0.271416	0.570822
O20	O	1.519730	0.228584	1.070822
O21	O	0.936557	-0.441725	0.271409
O22	O	1.436557	0.058275	0.771409
O23	O	0.826829	-0.441714	0.441709
O24	O	1.326829	0.058286	0.941709
O25	O	0.936529	-0.570779	0.741083
O26	O	1.436529	-0.070779	1.241083
O27	O	0.826802	-0.570765	0.570740
O28	O	1.326802	-0.070765	1.070740
O29	O	1.019694	-0.441739	0.741119
O30	O	1.519694	0.058261	1.241119
O31	O	1.019634	-0.741108	0.441703
O32	O	1.519634	-0.241108	0.941703
O33	O	0.936495	-0.741099	0.570737
O34	O	1.436495	-0.241099	1.070737
C35	C	0.802256	-0.506237	0.506221
C36	C	1.302256	-0.006237	1.006221
C37	C	0.727024	-0.506254	0.506231
C38	C	1.227024	-0.006254	1.006231
C39	C	0.691684	-0.573552	0.573309
C40	C	1.191684	-0.073552	1.073309
C41	C	0.620996	-0.573554	0.573323
C42	C	1.120996	-0.073554	1.073323
C43	C	0.585649	-0.506262	0.506255
C44	C	1.085649	-0.006262	1.006255
C45	C	0.620994	-0.438956	0.439174
C46	C	1.120994	0.061044	0.939174
C47	C	0.691681	-0.438950	0.439165
C48	C	1.191681	0.061050	0.939165
C49	C	0.335921	-0.438980	0.439209
C50	C	0.835921	0.061020	0.939209
C51	C	0.265229	-0.438993	0.439220
C52	C	0.765229	0.061007	0.939220
C53	C	0.265235	-0.573583	0.573367
C54	C	0.765235	-0.073583	1.073367
C55	C	0.335922	-0.573577	0.573358
C56	C	0.835922	-0.073577	1.073358
C57	C	0.371261	-0.506268	0.506282
C58	C	0.871261	-0.006268	1.006282
C59	C	0.447910	-0.506265	0.506268
C60	C	0.947910	-0.006265	1.006268
C61	C	0.509002	-0.506269	0.506262
C62	C	1.009002	-0.006269	1.006262
C63	C	0.978075	-0.779225	0.506237
C64	C	1.478075	-0.279225	1.006237
C65	C	0.978121	-0.896001	0.506265
C66	C	1.478121	-0.396001	1.006265
C67	C	1.064628	-0.895854	0.640763
C68	C	1.564628	-0.395854	1.140763
C69	C	1.107903	-0.950642	0.708019
C70	C	1.607903	-0.450642	1.208019
C71	C	1.107943	-1.060363	0.708042
C72	C	1.607943	-0.560363	1.208042
C73	C	1.064702	-1.115300	0.640803
C74	C	1.564702	-0.615300	1.140803
C75	C	1.021427	-1.060513	0.573546
C76	C	1.521427	-0.560513	1.073546
C77	C	1.021393	-0.950789	0.573529
C78	C	1.521393	-0.450789	1.073529
C79	C	0.934918	-1.060660	0.439055
C80	C	1.434918	-0.560660	0.939055
C81	C	0.934880	-0.950938	0.439026
C82	C	1.434880	-0.450938	0.939026
C83	C	0.891677	-1.115596	0.371816
C84	C	1.391677	-0.615596	0.871816
C85	C	0.848404	-1.060809	0.304553
C86	C	1.348404	-0.560809	0.804553
C87	C	0.848366	-0.951081	0.304532
C88	C	1.348366	-0.451081	0.804532
C89	C	0.891605	-0.896151	0.371769
C90	C	1.391605	-0.396151	0.871769
C91	C	1.154655	-0.506278	0.506289
C92	C	1.654655	-0.006278	1.006289
C93	C	1.229887	-0.506287	0.506304
C94	C	1.729887	-0.006287	1.006304
C95	C	0.978112	-0.506259	0.780288
C96	C	1.478112	-0.006259	1.280288
C97	C	0.978111	-0.506260	0.897065
C98	C	1.478111	-0.006260	1.397065
C99	C	0.978169	-0.232224	0.506295
C100	C	1.478169	0.267776	1.006295
C101	C	0.978193	-0.115447	0.506312
C102	C	1.478193	0.384553	1.006312
C103	C	1.064716	-0.371900	1.116545
C104	C	1.564716	0.128100	1.616545
C105	C	1.108017	-0.304714	1.061701
C106	C	1.608017	0.195286	1.561701
C107	C	1.108017	-0.304708	0.951980
C108	C	1.608017	0.195292	1.451980
C109	C	1.064713	-0.371896	0.897099
C110	C	1.564713	0.128104	1.397099
C111	C	1.021412	-0.439081	0.951943
C112	C	1.521412	0.060919	1.451943
C113	C	1.021416	-0.439078	1.061667
C114	C	1.521416	0.060922	1.561667
C115	C	0.934811	-0.573446	0.951908
C116	C	1.434811	-0.073446	1.451908
C117	C	0.934806	-0.573449	1.061630
C118	C	1.434806	-0.073449	1.561630
C119	C	0.891506	-0.640634	0.897028
C120	C	1.391506	-0.140634	1.397028
C121	C	0.848201	-0.707816	0.951871
C122	C	1.348201	-0.207816	1.451871
C123	C	0.848203	-0.707819	1.061600
C124	C	1.348203	-0.207819	1.561600
C125	C	0.891506	-0.640634	1.116473
C126	C	1.391506	-0.140634	1.616473
C127	C	0.978109	-0.506274	1.233287
C128	C	1.478109	-0.006274	1.733287
C129	C	0.978110	-0.506260	1.116510
C130	C	1.478110	-0.006260	1.616510
H131	H	0.720458	-0.628352	0.627921
H132	H	1.220458	-0.128352	1.127921
H133	H	0.891710	-1.204937	0.371844
H134	H	1.391710	-0.704937	0.871844
Cl135	Cl	0.380338	-0.354360	0.354887
Cl136	Cl	0.880338	0.145640	0.854887
H137	H	0.236454	-0.628385	0.627988
H138	H	0.736454	-0.128385	1.127988
Cl139	Cl	1.162456	-0.220257	1.130698
Cl140	Cl	1.662456	0.279743	1.630698
H141	H	1.143108	-0.905903	0.762767
H142	H	1.643108	-0.405903	1.262767
Cl143	Cl	0.793767	-0.792291	1.130536
Cl144	Cl	1.293767	-0.292291	1.630536
H145	H	0.891512	-0.640628	0.807687
H146	H	1.391512	-0.140628	1.307687
H147	H	1.143174	-1.104971	0.762819
H148	H	1.643174	-0.604971	1.262819
Cl149	Cl	0.891507	-0.640626	1.254410
Cl150	Cl	1.391507	-0.140626	1.754410
Cl151	Cl	1.162456	-0.220251	0.883030
Cl152	Cl	1.662456	0.279749	1.383030
H153	H	1.064606	-0.806513	0.640741
H154	H	1.564606	-0.306513	1.140741
Cl155	Cl	0.794044	-1.129876	0.220043
Cl156	Cl	1.294044	-0.629876	0.720043
Cl157	Cl	0.576571	-0.658161	0.657654
Cl158	Cl	1.076571	-0.158161	1.157654
Cl159	Cl	0.793957	-0.882214	0.219980
Cl160	Cl	1.293957	-0.382214	0.719980
Cl161	Cl	0.220794	-0.354390	0.354900
Cl162	Cl	0.720794	0.145610	0.854900
Cl163	Cl	1.064851	-1.253237	0.640684
Cl164	Cl	1.564851	-0.753237	1.140684
H165	H	0.891581	-0.806809	0.371754
H166	H	1.391581	-0.306809	0.871754
Cl167	Cl	0.576558	-0.354354	0.354865
Cl168	Cl	1.076558	0.145646	0.854865
Cl169	Cl	1.064723	-0.371899	0.759162
Cl170	Cl	1.564723	0.128101	1.259162
H171	H	0.720455	-0.384144	0.384549
H172	H	1.220455	0.115856	0.884549
Cl173	Cl	0.793771	-0.792276	0.882875
Cl174	Cl	1.293771	-0.292276	1.382875
H175	H	0.364698	-0.628376	0.627969
H176	H	0.864698	-0.128376	1.127969
H177	H	1.064712	-0.371885	1.205886
H178	H	1.564712	0.128115	1.705886
