data_functionalizedCrystal
_audit_creation_method	'MofGen! by Chris Wilmer'
_symmetry_space_group_name_H-M	'P1'
_symmetry_Int_Tables_number	1
_symmetry_cell_setting	triclinic
loop_
_symmetry_equiv_pos_as_xyz
  x,y,z
_cell_length_a	13.897449
_cell_length_b	25.639239
_cell_length_c	13.897441
_cell_angle_alpha	90.034305
_cell_angle_beta	90.020733
_cell_angle_gamma	90.039966
loop_
_atom_site_label
_atom_site_type_symbol
_atom_site_fract_x
_atom_site_fract_y
_atom_site_fract_z
Zn1	Zn	1.474562	-0.208116	0.545356
Zn2	Zn	1.474397	-0.295559	0.384047
Zn3	Zn	1.313251	-0.208141	0.384075
Zn4	Zn	1.313174	-0.295524	0.545300
O5	O	1.393846	-0.251835	0.464695
O6	O	1.609522	-0.219720	0.523970
O7	O	1.452984	-0.283987	0.249069
O8	O	1.334751	-0.134973	0.405504
O9	O	1.609400	-0.283963	0.405457
O10	O	1.453265	-0.134954	0.523997
O11	O	1.334591	-0.219762	0.249089
O12	O	1.178259	-0.219729	0.405449
O13	O	1.334619	-0.283905	0.680289
O14	O	1.178202	-0.283929	0.523901
O15	O	1.453190	-0.219686	0.680331
O16	O	1.452909	-0.368719	0.405403
O17	O	1.334459	-0.368694	0.523874
C18	C	1.143232	-0.251828	0.464673
C19	C	1.036018	-0.251838	0.464686
C20	C	0.839722	-0.251840	0.464711
C21	C	0.948955	-0.251837	0.464695
C22	C	1.393684	-0.387678	0.464650
C23	C	1.393702	-0.445792	0.464664
C24	C	1.455684	-0.806155	0.403111
C25	C	1.455721	-0.860760	0.403124
O26	O	1.508251	-0.888997	0.350742
N27	N	1.394015	-0.888074	0.464758
C28	C	1.332275	-0.860782	0.526391
O29	O	1.279794	-0.889029	0.578817
C30	C	1.332243	-0.806178	0.526382
C31	C	1.393946	-0.778867	0.464737
C32	C	1.517382	-0.778844	0.341472
C33	C	1.517343	-0.724243	0.341458
C34	C	1.455606	-0.696954	0.403084
C35	C	1.393907	-0.724266	0.464723
C36	C	1.270509	-0.778887	0.588018
C37	C	1.270483	-0.724280	0.588004
C38	C	1.332186	-0.696968	0.526359
C39	C	1.332131	-0.642377	0.526334
N40	N	1.393837	-0.615062	0.464700
C41	C	1.455574	-0.642351	0.403075
C42	C	1.332348	-0.975452	0.526405
C43	C	1.332374	-1.030055	0.526410
C44	C	1.455821	-1.030029	0.403145
C45	C	1.455790	-0.975426	0.403136
C46	C	1.394054	-0.948138	0.464771
C47	C	1.455487	-0.527686	0.403050
C48	C	1.455440	-0.473081	0.403038
C49	C	1.331997	-0.473111	0.526307
C50	C	1.332040	-0.527712	0.526315
C51	C	1.393793	-0.554998	0.464683
O52	O	1.279630	-0.614105	0.578693
O53	O	1.508056	-0.614097	0.350666
C54	C	1.645439	-0.251843	0.464717
C55	C	1.752653	-0.251846	0.464727
C56	C	1.393914	-0.251789	0.716288
C57	C	1.393943	-0.251769	0.823502
C58	C	1.394035	-0.115462	0.464760
C59	C	1.394116	-0.057348	0.464788
C60	C	1.393833	-0.251843	0.214080
C61	C	1.393991	-0.251716	0.106867
C62	C	1.393970	-0.251734	1.019797
C63	C	1.393952	-0.251755	0.910564
H64	H	1.505686	-0.450845	0.352836
O65	O	1.577383	-0.697797	0.281555
C66	C	1.631861	-0.733601	0.227160
H67	H	1.635186	-0.772506	0.266686
H68	H	1.596589	-0.739456	0.153867
C69	C	1.730441	-0.664465	0.164811
C70	C	1.734532	-0.712247	0.213361
H71	H	1.793772	-0.651292	0.156295
H72	H	1.693736	-0.640342	0.201455
H73	H	1.701044	-0.669350	0.103738
H74	H	1.763917	-0.707360	0.274437
H75	H	1.771244	-0.736369	0.176727
O76	O	1.577516	-0.805353	0.281771
C77	C	1.639799	-0.836871	0.336781
H78	H	1.645621	-0.820392	0.412767
H79	H	1.610063	-0.878283	0.340041
C80	C	1.732987	-0.857856	0.196497
C81	C	1.740144	-0.837614	0.289822
H82	H	1.794883	-0.858317	0.167529
H83	H	1.691024	-0.836624	0.159434
H84	H	1.708203	-0.892365	0.199226
H85	H	1.764916	-0.803104	0.287090
H86	H	1.782114	-0.858841	0.326883
O87	O	1.210461	-0.697717	0.647745
C88	C	1.148144	-0.666200	0.592772
H89	H	1.182192	-0.658024	0.519701
H90	H	1.076684	-0.687292	0.582116
C91	C	1.088793	-0.624367	0.735574
C92	C	1.130614	-0.614321	0.645829
H93	H	1.077975	-0.592366	0.768303
H94	H	1.130774	-0.645602	0.772611
H95	H	1.029247	-0.641945	0.726681
H96	H	1.190164	-0.596750	0.654723
H97	H	1.088643	-0.593082	0.608794
H98	H	1.281799	-0.549950	0.576514
O99	O	1.210476	-0.805434	0.647770
C100	C	1.148226	-0.837088	0.592828
H101	H	1.142284	-0.820673	0.516844
H102	H	1.178074	-0.878456	0.589548
C103	C	1.055235	-0.858120	0.733209
C104	C	1.047930	-0.837956	0.639886
H105	H	0.993369	-0.858657	0.762238
H106	H	1.097176	-0.836795	0.770225
H107	H	1.080112	-0.892592	0.730463
H108	H	1.023065	-0.803482	0.642634
H109	H	1.005983	-0.859274	0.602871
O110	O	1.272171	-0.446572	0.586272
C111	C	1.327053	-0.414923	0.648584
H112	H	1.403026	-0.431340	0.654607
H113	H	1.330374	-0.373552	0.618745
C114	C	1.186577	-0.393898	0.741427
C115	C	1.279886	-0.414064	0.748830
H116	H	1.157481	-0.393365	0.803262
H117	H	1.149600	-0.415218	0.699444
H118	H	1.189358	-0.359424	0.716557
H119	H	1.277104	-0.448539	0.773688
H120	H	1.316861	-0.392749	0.790820
H121	H	1.506034	-0.953192	0.352940
O122	O	1.515500	-0.554106	0.343087
C123	C	1.569958	-0.518282	0.288703
H124	H	1.530416	-0.479385	0.285332
H125	H	1.643195	-0.512417	0.324087
C126	C	1.632493	-0.587390	0.190194
C127	C	1.583923	-0.539617	0.186046
H128	H	1.641112	-0.600551	0.126872
H129	H	1.595807	-0.611526	0.226835
H130	H	1.693518	-0.582496	0.219685
H131	H	1.522894	-0.544513	0.156567
H132	H	1.620599	-0.515482	0.149397
O133	O	1.515834	-1.056623	0.343441
C134	C	1.502645	-1.110673	0.356695
H135	H	1.470924	-1.118102	0.431074
H136	H	1.451408	-1.126251	0.299386
C137	C	1.639259	-1.129510	0.256759
C138	C	1.600307	-1.138635	0.348117
H139	H	1.699499	-1.146760	0.251464
H140	H	1.648143	-1.093096	0.247826
H141	H	1.596552	-1.142492	0.209012
H142	H	1.643007	-1.125647	0.395861
H143	H	1.591432	-1.175048	0.357058
H144	H	1.282120	-1.052287	0.576599
H145	H	1.282067	-0.953237	0.576593
