data_functionalizedCrystal
_audit_creation_method	'MofGen! by Chris Wilmer'
_symmetry_space_group_name_H-M	'P1'
_symmetry_Int_Tables_number	1
_symmetry_cell_setting	triclinic
loop_
_symmetry_equiv_pos_as_xyz
  x,y,z
_cell_length_a	10.489741
_cell_length_b	19.188930
_cell_length_c	9.565339
_cell_angle_alpha	89.995116
_cell_angle_beta	89.999100
_cell_angle_gamma	83.841978
loop_
_atom_site_label
_atom_site_type_symbol
_atom_site_fract_x
_atom_site_fract_y
_atom_site_fract_z
O1	O	1.691850	0.098497	-0.116191
O2	O	2.191850	0.598497	0.383809
O3	O	1.320448	0.107743	-0.116215
O4	O	1.820448	0.607743	0.383785
O5	O	1.516867	0.001537	-0.116175
O6	O	2.016867	0.501537	0.383825
O7	O	1.495431	0.204704	-0.116231
O8	O	1.995431	0.704704	0.383769
O9	O	1.516852	0.001543	0.116345
O10	O	2.016852	0.501543	0.616345
O11	O	1.320432	0.107750	0.116305
O12	O	1.820432	0.607750	0.616305
O13	O	1.691835	0.098504	0.116329
O14	O	2.191835	0.598504	0.616329
Zn15	Zn	1.506131	0.103128	0.153235
Zn16	Zn	2.006131	0.603128	0.653235
Zn17	Zn	1.506152	0.103119	-0.153121
Zn18	Zn	2.006152	0.603119	0.346879
O19	O	1.495416	0.204711	0.116289
O20	O	1.995416	0.704711	0.616289
C21	C	1.272924	0.107048	0.000043
C22	C	1.772924	0.607048	0.500043
C23	C	1.131341	0.104959	0.000035
C24	C	1.631341	0.604959	0.500035
C25	C	1.064712	0.037383	0.000067
C26	C	1.564712	0.537383	0.500067
C27	C	0.971879	0.069302	-0.114584
C28	C	1.471879	0.569302	0.385416
C29	C	0.971898	0.069325	0.114663
C30	C	1.471898	0.569325	0.614663
C31	C	1.040373	0.136906	-0.114710
C32	C	1.540373	0.636906	0.385290
C33	C	1.040401	0.136919	0.114640
C34	C	1.540401	0.636919	0.614640
C35	C	0.947595	0.168887	-0.000039
C36	C	1.447595	0.668887	0.499961
C37	C	1.516165	-0.024476	0.000089
C38	C	2.016165	0.475524	0.500089
C39	C	1.514081	-0.101994	0.000101
C40	C	2.014081	0.398006	0.500101
C41	C	1.629334	-0.146146	0.000115
C42	C	2.129334	0.353854	0.500115
C43	C	1.627376	-0.218983	0.000092
C44	C	2.127376	0.281017	0.500092
C45	C	1.510159	-0.247665	0.000084
C46	C	2.010159	0.252335	0.500084
C47	C	1.394892	-0.203503	0.000062
C48	C	1.894892	0.296497	0.500062
C49	C	1.396853	-0.130668	0.000071
C50	C	1.896853	0.369332	0.500071
N51	N	1.420556	-0.356268	0.079209
N52	N	1.920556	0.143732	0.579209
N53	N	1.418701	-0.425459	0.079204
N54	N	1.918701	0.074541	0.579204
C55	C	1.504244	-0.467113	0.000055
C56	C	2.004244	0.032887	0.500055
N57	N	1.591732	-0.436964	-0.079071
N58	N	2.091732	0.063036	0.420929
N59	N	1.593590	-0.367767	-0.079059
N60	N	2.093590	0.132233	0.420941
C61	C	1.508020	-0.326642	0.000074
C62	C	2.008020	0.173358	0.500074
C63	C	1.617382	-0.590244	0.000043
C64	C	2.117382	-0.090244	0.500043
C65	C	1.615419	-0.663081	0.000012
C66	C	2.115419	-0.163081	0.500012
C67	C	1.382932	-0.647600	-0.000004
C68	C	1.882932	-0.147600	0.499996
C69	C	1.384898	-0.574764	0.000013
C70	C	1.884898	-0.074764	0.500013
C71	C	1.502126	-0.546090	0.000043
C72	C	2.002126	-0.046090	0.500043
C73	C	1.739359	0.099199	0.000068
C74	C	2.239359	0.599199	0.500068
C75	C	1.880941	0.101288	0.000067
C76	C	2.380941	0.601288	0.500067
C77	C	1.496118	0.230723	0.000022
C78	C	1.996118	0.730723	0.500022
C79	C	1.498202	0.308242	0.000001
C80	C	1.998202	0.808242	0.500001
N81	N	1.506127	0.103134	0.362314
N82	N	2.006127	0.603134	0.862314
N83	N	1.506166	0.103108	-0.362200
N84	N	2.006166	0.603108	0.137800
C85	C	1.415262	0.152234	0.453499
C86	C	1.915262	0.652234	0.953499
C87	C	1.530443	0.166361	0.546681
C88	C	2.030443	0.666361	1.046681
C89	C	1.390995	0.089012	0.546688
C90	C	1.890995	0.589012	1.046688
C91	C	1.621366	0.117292	0.453444
C92	C	2.121366	0.617292	0.953444
C93	C	1.481842	0.039916	0.453443
C94	C	1.981842	0.539916	0.953443
C95	C	1.597107	0.054016	0.546583
C96	C	2.097107	0.554016	1.046583
H97	H	0.941511	0.040706	-0.211499
H98	H	1.441511	0.540706	0.288501
H99	H	1.674049	0.012480	0.587197
H100	H	2.174049	0.512480	1.087197
Br101	Br	1.091076	0.184544	0.276180
Br102	Br	1.591076	0.684544	0.776180
Br103	Br	1.223849	-0.686517	-0.000030
Br104	Br	1.723849	-0.186517	0.499970
Br105	Br	1.447504	-0.049147	0.385124
Br106	Br	1.947504	0.450853	0.885124
H107	H	1.721231	-0.254938	0.000098
H108	H	2.221231	0.245062	0.500098
Br109	Br	1.771848	-0.723005	0.000016
Br110	Br	2.271848	-0.223005	0.500016
Br111	Br	1.090690	0.184523	-0.276448
Br112	Br	1.590690	0.684523	0.223552
H113	H	1.293614	0.077080	0.587649
H114	H	1.793614	0.577080	1.087649
Br115	Br	1.788428	-0.107235	0.000117
Br116	Br	2.288428	0.392765	0.500117
H117	H	1.291047	-0.538814	0.000009
H118	H	1.791047	-0.038814	0.500009
H119	H	1.712836	-0.566896	0.000061
H120	H	2.212836	-0.066896	0.500061
Br121	Br	1.149538	-0.055221	-0.000089
Br122	Br	1.649538	0.444779	0.499911
H123	H	1.551011	0.219812	0.587634
H124	H	2.051011	0.719812	1.087634
H125	H	1.338490	0.193796	0.412628
H126	H	1.838490	0.693796	0.912628
Br127	Br	0.921320	0.021654	0.276218
Br128	Br	1.421320	0.521654	0.776218
H129	H	1.718768	0.129289	0.412658
H130	H	2.218768	0.629289	0.912658
H131	H	1.299453	-0.226861	0.000052
H132	H	1.799453	0.273139	0.500052
H133	H	1.302998	-0.094719	0.000060
H134	H	1.802998	0.405281	0.500060
H135	H	0.896927	0.224498	-0.000117
H136	H	1.396927	0.724498	0.499883
