data_functionalizedCrystal
_audit_creation_method	'MofGen! by Chris Wilmer'
_symmetry_space_group_name_H-M	'P1'
_symmetry_Int_Tables_number	1
_symmetry_cell_setting	triclinic
loop_
_symmetry_equiv_pos_as_xyz
  x,y,z
_cell_length_a	12.811415
_cell_length_b	12.837943
_cell_length_c	11.892095
_cell_angle_alpha	94.310562
_cell_angle_beta	88.492960
_cell_angle_gamma	90.588083
loop_
_atom_site_label
_atom_site_type_symbol
_atom_site_fract_x
_atom_site_fract_y
_atom_site_fract_z
O1	O	0.265180	-1.385142	-0.121163
O2	O	0.251783	-1.083182	-0.119797
O3	O	0.107445	-1.240668	-0.104992
O4	O	0.409518	-1.227656	-0.135968
O5	O	0.119459	-1.227537	0.081783
O6	O	0.263797	-1.070051	0.066978
O7	O	0.277194	-1.372010	0.065612
Zn8	Zn	0.272403	-1.218946	0.095950
Zn9	Zn	0.256574	-1.236247	-0.150135
O10	O	0.421532	-1.214524	0.050807
C11	C	0.074520	-1.232971	-0.007614
C12	C	-0.041488	-1.229587	0.004274
C13	C	0.253265	-1.037943	-0.025946
C14	C	0.239768	-0.922711	-0.024565
C15	C	0.275712	-1.417249	-0.028241
C16	C	0.289209	-1.532482	-0.029630
C17	C	-0.272570	-1.237526	-0.177031
C18	C	-0.381570	-1.234347	-0.165866
C19	C	-0.368491	-1.220041	0.037769
C20	C	-0.259491	-1.223221	0.026604
C21	C	-0.211534	-1.231965	-0.080800
C22	C	-0.102532	-1.235151	-0.091964
C23	C	-0.089455	-1.220839	0.111670
C24	C	-0.198455	-1.217659	0.122835
C25	C	0.454458	-1.222222	-0.046573
C26	C	0.570465	-1.225606	-0.058469
N27	N	0.283206	-1.207146	0.263896
C28	C	0.402028	-0.683625	-0.041188
C29	C	0.389351	-0.575353	-0.039890
C30	C	0.201738	-0.597892	-0.020663
C31	C	0.214415	-0.706164	-0.021961
C32	C	0.314563	-0.749026	-0.032226
C33	C	0.327239	-0.857301	-0.033532
C34	C	0.139627	-0.879837	-0.014297
C35	C	0.126950	-0.771565	-0.012999
N36	N	0.245764	-1.248054	-0.318080
C37	C	0.170532	-1.330162	0.512101
C38	C	0.178091	-1.321922	0.629667
C39	C	0.305879	-1.182421	0.616598
C40	C	0.298319	-1.190661	0.499031
C41	C	0.230645	-1.264535	0.446787
C42	C	0.223091	-1.272780	0.329218
C43	C	0.350873	-1.133274	0.316151
C44	C	0.358432	-1.125034	0.433718
H45	H	-0.063488	-1.242274	-0.179417
Cl46	Cl	-0.428797	-1.209019	0.172778
Cl47	Cl	0.426453	-1.050775	0.234031
H48	H	0.120208	-0.562967	-0.012214
Cl49	Cl	-0.212278	-1.248534	-0.312048
H50	H	0.115436	-1.390320	0.469562
Cl51	Cl	-0.458297	-1.241336	-0.286847
Cl52	Cl	-0.258754	-1.206659	0.257849
H53	H	-0.039748	-1.216314	0.190028
Cl54	Cl	0.138018	-1.365651	0.263541
Cl55	Cl	0.102515	-1.404426	0.711773
H56	H	0.483572	-0.718524	-0.049548
H57	H	0.045413	-0.736651	-0.004629
H58	H	0.413529	-1.064884	0.476269
H59	H	0.360970	-1.122267	0.659152
H60	H	0.408784	-0.892197	-0.041888
H61	H	0.460575	-0.522106	-0.047185
Cl62	Cl	0.029663	-0.962065	-0.003046
