data_functionalizedCrystal
_audit_creation_method	'MofGen! by Chris Wilmer'
_symmetry_space_group_name_H-M	'P1'
_symmetry_Int_Tables_number	1
_symmetry_cell_setting	triclinic
loop_
_symmetry_equiv_pos_as_xyz
  x,y,z
_cell_length_a	16.992694
_cell_length_b	26.210047
_cell_length_c	16.992695
_cell_angle_alpha	89.995410
_cell_angle_beta	90.668223
_cell_angle_gamma	90.003955
loop_
_atom_site_label
_atom_site_type_symbol
_atom_site_fract_x
_atom_site_fract_y
_atom_site_fract_z
O1	O	1.050856	0.042366	0.166906
O2	O	1.550856	0.542366	0.666906
O3	O	0.822456	0.042381	0.165074
O4	O	1.322456	0.542381	0.665074
O5	O	0.935741	0.042369	0.051790
O6	O	1.435741	0.542369	0.551790
O7	O	0.937572	0.042377	0.280190
O8	O	1.437572	0.542377	0.780190
O9	O	0.935719	-0.042489	0.051807
O10	O	1.435719	0.457511	0.551807
O11	O	0.822434	-0.042478	0.165092
O12	O	1.322434	0.457522	0.665092
O13	O	1.050834	-0.042493	0.166923
O14	O	1.550834	0.457507	0.666923
Cu15	Cu	0.936632	-0.050233	0.166009
Cu16	Cu	1.436632	0.449767	0.666009
Cu17	Cu	0.936658	0.050121	0.165989
Cu18	Cu	1.436658	0.550121	0.665989
O19	O	0.937550	-0.042481	0.280208
O20	O	1.437550	0.457519	0.780208
C21	C	0.793085	-0.000047	0.162727
C22	C	1.293085	0.499953	0.662727
C23	C	0.705600	-0.000041	0.155699
C24	C	1.205600	0.499959	0.655699
N25	N	0.936619	-0.120817	0.166023
N26	N	1.436619	0.379183	0.666023
C27	C	0.659610	-0.000039	0.223517
C28	C	1.159610	0.499961	0.723517
C29	C	0.577409	-0.000046	0.216908
C30	C	1.077409	0.499954	0.716908
C31	C	0.541201	-0.000052	0.142480
C32	C	1.041201	0.499948	0.642480
C33	C	0.587198	-0.000055	0.074657
C34	C	1.087198	0.499945	0.574657
C35	C	0.669397	-0.000052	0.081267
C36	C	1.169397	0.499948	0.581267
C37	C	0.295886	-0.000066	0.115086
C38	C	0.795886	0.499934	0.615086
C39	C	0.213681	-0.000069	0.108481
C40	C	0.713681	0.499931	0.608481
C41	C	0.203898	-0.000060	0.250732
C42	C	0.703898	0.499940	0.750732
C43	C	0.286099	-0.000054	0.257336
C44	C	0.786099	0.499946	0.757336
C45	C	0.332089	-0.000060	0.189512
C46	C	0.832089	0.499940	0.689512
N47	N	0.457178	-0.000058	0.135723
N48	N	0.957178	0.499942	0.635723
N49	N	0.416110	-0.000058	0.196270
N50	N	0.916110	0.499942	0.696270
C51	C	0.986816	-0.473336	0.115838
C52	C	1.486816	0.026664	0.615838
C53	C	0.986833	-0.686995	0.115828
C54	C	1.486833	-0.186995	0.615828
O55	O	1.029481	-0.714621	0.073160
O56	O	1.529481	-0.214621	0.573160
N57	N	0.936661	-0.713711	0.165972
N58	N	1.436661	-0.213711	0.665972
C59	C	0.886479	-0.687009	0.216117
C60	C	1.386479	-0.187009	0.716117
O61	O	0.843800	-0.714636	0.258761
O62	O	1.343800	-0.214636	0.758761
C63	C	0.886459	-0.473352	0.216123
C64	C	1.386459	0.026648	0.716123
C65	C	0.936639	-0.446638	0.165982
C66	C	1.436639	0.053362	0.665982
C67	C	1.036991	-0.446623	0.065700
C68	C	1.536991	0.053377	0.565700
C69	C	1.036990	-0.393211	0.065706
C70	C	1.536990	0.106789	0.565706
C71	C	0.986813	-0.366513	0.115850
C72	C	1.486813	0.133487	0.615850
C73	C	0.936637	-0.393227	0.165988
C74	C	1.436637	0.106773	0.665988
C75	C	0.836273	-0.446651	0.266264
C76	C	1.336273	0.053349	0.766264
C77	C	0.836271	-0.393233	0.266259
C78	C	1.336271	0.106767	0.766259
C79	C	0.886451	-0.366520	0.216118
C80	C	1.386451	0.133480	0.716118
C81	C	0.886459	-0.313117	0.216137
C82	C	1.386459	0.186883	0.716137
N83	N	0.936630	-0.286401	0.165994
N84	N	1.436630	0.213599	0.665994
C85	C	0.986807	-0.313099	0.115850
C86	C	1.486807	0.186901	0.615850
C87	C	0.886494	-0.799183	0.216112
C88	C	1.386494	-0.299183	0.716112
C89	C	0.886500	-0.852597	0.216112
C90	C	1.386500	-0.352597	0.716112
C91	C	0.986853	-0.852579	0.115822
C92	C	1.486853	-0.352579	0.615822
C93	C	0.986850	-0.799164	0.115826
C94	C	1.486850	-0.299164	0.615826
C95	C	0.936665	-0.772466	0.165969
C96	C	1.436665	-0.272466	0.665969
C97	C	0.986800	-0.200931	0.115867
C98	C	1.486800	0.299069	0.615867
C99	C	0.986796	-0.147515	0.115880
C100	C	1.486796	0.352485	0.615880
C101	C	0.886441	-0.147538	0.216167
C102	C	1.386441	0.352462	0.716167
C103	C	0.886447	-0.200949	0.216157
C104	C	1.386447	0.299051	0.716157
C105	C	0.936629	-0.227645	0.166001
C106	C	1.436629	0.272355	0.666001
O107	O	0.843826	-0.285458	0.258776
O108	O	1.343826	0.214542	0.758776
O109	O	1.029467	-0.285464	0.073200
O110	O	1.529467	0.214536	0.573200
C111	C	0.986818	-0.526748	0.115832
C112	C	1.486818	-0.026748	0.615832
C113	C	0.936642	-0.553461	0.165969
C114	C	1.436642	-0.053461	0.665969
C115	C	0.886465	-0.526763	0.216113
C116	C	1.386465	-0.026763	0.716113
C117	C	0.936648	-0.606875	0.165969
C118	C	1.436648	-0.106875	0.665969
C119	C	0.986825	-0.633573	0.115826
C120	C	1.486825	-0.133573	0.615826
C121	C	1.036996	-0.606857	0.065682
C122	C	1.536996	-0.106857	0.565682
C123	C	1.036995	-0.553446	0.065688
C124	C	1.536995	-0.053446	0.565688
C125	C	0.836294	-0.553479	0.266256
C126	C	1.336294	-0.053479	0.766256
C127	C	0.836300	-0.606891	0.266247
C128	C	1.336300	-0.106891	0.766247
C129	C	0.886477	-0.633589	0.216103
C130	C	1.386477	-0.133589	0.716103
C131	C	1.080205	-0.000064	0.169270
C132	C	1.580205	0.499936	0.669270
C133	C	1.167690	-0.000067	0.176299
C134	C	1.667690	0.499933	0.676299
C135	C	0.933374	-0.000060	0.022439
C136	C	1.433374	0.499940	0.522439
C137	C	0.926345	-0.000059	-0.065046
C138	C	1.426345	0.499941	0.434954
N139	N	0.936677	0.120705	0.165968
N140	N	1.436677	0.620705	0.665968
C141	C	0.994163	-0.000064	-0.111037
C142	C	1.494163	0.499936	0.388963
C143	C	0.987554	-0.000059	-0.193238
C144	C	1.487554	0.499941	0.306762
C145	C	0.913127	-0.000052	-0.229446
C146	C	1.413127	0.499948	0.270554
C147	C	0.845303	-0.000046	-0.183449
C148	C	1.345303	0.499954	0.316551
C149	C	0.851913	-0.000047	-0.101250
C150	C	1.351913	0.499953	0.398750
C151	C	0.885732	-0.000043	-0.474760
C152	C	1.385732	0.499957	0.025240
C153	C	0.879127	-0.000043	-0.556966
C154	C	1.379127	0.499957	-0.056966
C155	C	1.021379	-0.000056	-0.566749
C156	C	1.521379	0.499944	-0.066749
C157	C	1.027982	-0.000060	-0.484547
C158	C	1.527982	0.499940	0.015453
C159	C	0.960159	-0.000051	-0.438558
C160	C	1.460159	0.499949	0.061442
N161	N	0.906369	-0.000048	-0.313468
N162	N	1.406369	0.499952	0.186532
N163	N	0.966917	-0.000051	-0.354537
N164	N	1.466917	0.499949	0.145463
C165	C	0.939917	-0.000051	0.309559
C166	C	1.439917	0.499949	0.809559
C167	C	0.946945	-0.000048	0.397044
C168	C	1.446945	0.499952	0.897044
H169	H	0.689084	-0.000034	0.284124
H170	H	1.189084	0.499966	0.784124
Cl171	Cl	1.087734	-0.000078	-0.065526
Cl172	Cl	1.587734	0.499922	0.434474
H173	H	1.077855	-0.628603	0.024856
H174	H	1.577855	-0.128603	0.524856
H175	H	0.539966	-0.000044	0.272133
H176	H	1.039966	0.499956	0.772133
Cl177	Cl	0.541678	-0.000066	-0.018910
Cl178	Cl	1.041678	0.499934	0.481090
Cl179	Cl	1.049886	-0.113935	0.052842
Cl180	Cl	1.549886	0.386065	0.552842
H181	H	1.076596	-0.000062	-0.604202
H182	H	1.576596	0.499938	-0.104202
H183	H	1.027711	-0.777417	0.074997
H184	H	1.527711	-0.277417	0.574997
H185	H	0.784703	-0.000037	-0.212936
H186	H	1.284703	0.499963	0.287064
H187	H	0.795439	-0.628637	0.307085
H188	H	1.295439	-0.128637	0.807085
Cl189	Cl	1.072816	-0.000067	-0.251052
Cl190	Cl	1.572816	0.499933	0.248948
H191	H	0.315574	-0.000043	0.317942
H192	H	0.815574	0.499957	0.817942
H193	H	1.088589	-0.000066	-0.455073
H194	H	1.588589	0.499934	0.044927
Cl195	Cl	0.146078	-0.000055	0.335990
Cl196	Cl	0.646078	0.499945	0.835990
H197	H	0.796688	-0.000043	-0.063804
H198	H	1.296688	0.499957	0.436196
Cl199	Cl	0.773209	-0.519923	0.329301
Cl200	Cl	1.273209	-0.019923	0.829301
Cl201	Cl	1.049889	-0.234483	0.052814
Cl202	Cl	1.549889	0.265517	0.552814
Cl203	Cl	0.785554	-0.000038	-0.602483
Cl204	Cl	1.285554	0.499962	-0.102483
H205	H	0.184203	-0.000073	0.047870
H206	H	0.684203	0.499927	0.547870
H207	H	0.333322	-0.000072	0.059859
H208	H	0.833322	0.499928	0.559859
Cl209	Cl	0.727214	-0.000056	-0.003994
Cl210	Cl	1.227214	0.499944	0.496006
Cl211	Cl	0.800468	-0.000031	-0.416955
Cl212	Cl	1.300468	0.499969	0.083045
H213	H	1.077848	-0.371464	0.024875
H214	H	1.577848	0.128536	0.524875
Cl215	Cl	1.100080	-0.480177	0.002655
Cl216	Cl	1.600080	0.019823	0.502655
H217	H	0.795411	-0.468394	0.307092
H218	H	1.295411	0.031606	0.807092
H219	H	1.077856	-0.531699	0.024859
H220	H	1.577856	-0.031699	0.524859
H221	H	1.027710	-0.874325	0.074994
H222	H	1.527710	-0.374325	0.574994
Cl223	Cl	0.823425	-0.886173	0.279160
Cl224	Cl	1.323425	-0.386173	0.779160
H225	H	0.795401	-0.371499	0.307090
H226	H	1.295401	0.128501	0.807090
Cl227	Cl	0.823401	-0.765627	0.279157
Cl228	Cl	1.323401	-0.265627	0.779157
Cl229	Cl	0.823364	-0.113966	0.279203
Cl230	Cl	1.323364	0.386034	0.779203
Cl231	Cl	0.823370	-0.234531	0.279203
Cl232	Cl	1.323370	0.265469	0.779203
