data_functionalizedCrystal
_audit_creation_method	'MofGen! by Chris Wilmer'
_symmetry_space_group_name_H-M	'P1'
_symmetry_Int_Tables_number	1
_symmetry_cell_setting	triclinic
loop_
_symmetry_equiv_pos_as_xyz
  x,y,z
_cell_length_a	14.853567
_cell_length_b	17.019294
_cell_length_c	13.330367
_cell_angle_alpha	86.116384
_cell_angle_beta	89.995418
_cell_angle_gamma	83.514509
loop_
_atom_site_label
_atom_site_type_symbol
_atom_site_fract_x
_atom_site_fract_y
_atom_site_fract_z
O1	O	1.196089	0.102989	-0.092250
O2	O	1.696089	0.602989	0.407750
O3	O	0.933597	0.115258	-0.093326
O4	O	1.433597	0.615258	0.406674
O5	O	1.072165	-0.005701	-0.082863
O6	O	1.572165	0.494299	0.417137
O7	O	1.057521	0.223948	-0.102712
O8	O	1.557521	0.723948	0.397288
O9	O	1.072145	-0.005704	0.083984
O10	O	1.572145	0.494296	0.583984
O11	O	0.933577	0.115255	0.073521
O12	O	1.433577	0.615255	0.573521
O13	O	1.196069	0.102987	0.074598
O14	O	1.696069	0.602987	0.574598
Cu15	Cu	1.064821	0.109121	0.089294
Cu16	Cu	1.564821	0.609121	0.589294
Cu17	Cu	1.064845	0.109124	-0.108022
Cu18	Cu	1.564845	0.609124	0.391978
O19	O	1.057501	0.223946	0.064135
O20	O	1.557501	0.723946	0.564135
C21	C	0.899999	0.114701	-0.009857
C22	C	1.399999	0.614701	0.490143
C23	C	0.799920	0.113035	-0.009719
C24	C	1.299920	0.613035	0.490281
C25	C	1.071600	-0.035092	0.003098
C26	C	1.571600	0.464908	0.503098
C27	C	1.069933	-0.122664	0.010660
C28	C	1.569933	0.377336	0.510660
C29	C	0.387600	0.034141	-0.002878
C30	C	0.887600	0.534141	0.497122
C31	C	0.365930	0.177843	-0.015299
C32	C	0.865930	0.677843	0.484701
C33	C	0.459959	0.179409	-0.015438
C34	C	0.959959	0.679409	0.484562
C35	C	0.517814	0.108340	-0.009298
C36	C	1.017814	0.608340	0.490702
C37	C	0.481639	0.035705	-0.003019
C38	C	0.981639	0.535705	0.496981
C39	C	0.496141	0.252043	-0.021727
C40	C	0.996141	0.752043	0.478273
C41	C	0.590176	0.253613	-0.021866
C42	C	1.090176	0.753613	0.478134
C43	C	0.648033	0.182543	-0.015719
C44	C	1.148033	0.682543	0.484281
C45	C	0.611852	0.109904	-0.009439
C46	C	1.111852	0.609904	0.490561
C47	C	0.669707	0.038836	-0.003299
C48	C	1.169707	0.538836	0.496701
C49	C	0.633529	-0.033804	0.002988
C50	C	1.133529	0.466196	0.502988
C51	C	0.539495	-0.035365	0.003128
C52	C	1.039495	0.464635	0.503128
C53	C	0.742066	0.184104	-0.015859
C54	C	1.242066	0.684104	0.484141
C55	C	0.763745	0.040400	-0.003441
C56	C	1.263745	0.540400	0.496559
C57	C	1.069163	-0.163800	-0.076735
C58	C	1.569163	0.336200	0.423265
C59	C	1.067592	-0.246083	-0.069626
C60	C	1.567592	0.253917	0.430374
C61	C	1.066797	-0.287229	0.024878
C62	C	1.566797	0.212771	0.524878
C63	C	1.067564	-0.246087	0.112280
C64	C	1.567564	0.253913	0.612280
C65	C	1.069129	-0.163805	0.105170
C66	C	1.569129	0.336195	0.605170
C67	C	1.062065	-0.535667	0.050895
C68	C	1.562065	-0.035667	0.550895
C69	C	1.060503	-0.617955	0.057998
C70	C	1.560503	-0.117955	0.557998
C71	C	1.060529	-0.617945	-0.123910
C72	C	1.560529	-0.117945	0.376090
C73	C	1.062099	-0.535662	-0.131011
C74	C	1.562099	-0.035662	0.368989
C75	C	1.062862	-0.494527	-0.043609
C76	C	1.562862	0.005473	0.456391
C77	C	1.065193	-0.371336	0.032147
C78	C	1.565193	0.128664	0.532147
C79	C	1.064459	-0.410421	-0.050879
C80	C	1.564459	0.089579	0.449121
C81	C	1.229667	0.103544	-0.008874
C82	C	1.729667	0.603544	0.491126
C83	C	1.329746	0.105210	-0.009018
C84	C	1.829746	0.605210	0.490982
C85	C	1.058067	0.253337	-0.021829
C86	C	1.558067	0.753337	0.478171
C87	C	1.059733	0.340909	-0.029398
C88	C	1.559733	0.840909	0.470602
N89	N	1.064811	0.109118	0.228076
N90	N	1.564811	0.609118	0.728076
N91	N	1.064862	0.109121	-0.246804
N92	N	1.564862	0.609121	0.253196
C93	C	1.003484	0.162664	0.696067
C94	C	1.503484	0.662664	1.196067
C95	C	1.126230	0.055578	0.705298
C96	C	1.626230	0.555578	1.205298
C97	C	1.126220	0.055576	0.600280
C98	C	1.626220	0.555576	1.100280
C99	C	1.064842	0.109119	0.543150
C100	C	1.564842	0.609119	1.043150
C101	C	1.003474	0.162664	0.591039
C102	C	1.503474	0.662664	1.091039
C103	C	1.187593	0.002037	0.552383
C104	C	1.687593	0.502037	1.052383
C105	C	1.187586	0.002033	0.447358
C106	C	1.687586	0.502033	0.947358
C107	C	1.126202	0.055573	0.390227
C108	C	1.626202	0.555573	0.890227
C109	C	1.064831	0.109120	0.438122
C110	C	1.564831	0.609120	0.938122
C111	C	1.003453	0.162663	0.380992
C112	C	1.503453	0.662663	0.880992
C113	C	0.942077	0.216207	0.428886
C114	C	1.442077	0.716207	0.928886
C115	C	0.942091	0.216204	0.533908
C116	C	1.442091	0.716204	1.033908
C117	C	1.126189	0.055575	0.285205
C118	C	1.626189	0.555575	0.785205
C119	C	1.003443	0.162664	0.275964
C120	C	1.503443	0.662664	0.775964
H121	H	0.810846	-0.017474	0.001563
H122	H	1.310846	0.482526	0.501563
H123	H	1.062748	-0.502166	-0.207966
H124	H	1.562748	-0.002166	0.292034
H125	H	1.065100	-0.376915	-0.127824
H126	H	1.565100	0.123085	0.372176
H127	H	0.318819	0.235704	-0.020307
H128	H	0.818819	0.735704	0.479693
H129	H	0.892121	0.259799	0.572909
H130	H	1.392121	0.759799	1.072909
H131	H	0.953458	0.206262	0.229455
H132	H	1.453458	0.706262	0.729455
H133	H	1.059907	-0.651446	-0.195067
H134	H	1.559907	-0.151446	0.304933
H135	H	1.066911	-0.279595	0.189228
H136	H	1.566911	0.220405	0.689228
H137	H	1.069816	-0.130305	-0.153691
H138	H	1.569816	0.369695	0.346309
H139	H	0.771518	0.243245	-0.020976
H140	H	1.271518	0.743245	0.479024
H141	H	0.953510	0.206256	0.735065
H142	H	1.453510	0.706256	1.235065
H143	H	1.059851	-0.651454	0.134958
H144	H	1.559851	-0.151454	0.634958
H145	H	0.680646	-0.091668	0.007980
H146	H	1.180646	0.408332	0.507980
H147	H	1.176207	0.011989	0.751815
H148	H	1.676207	0.511989	1.251815
H149	H	1.066969	-0.279572	-0.140793
H150	H	1.566969	0.220428	0.359207
H151	H	1.069743	-0.130312	0.176337
H152	H	1.569743	0.369688	0.676337
H153	H	0.892107	0.259805	0.382359
H154	H	1.392107	0.759805	0.882359
H155	H	1.064549	-0.404846	0.109093
H156	H	1.564549	0.095154	0.609093
H157	H	1.237569	-0.041553	0.598900
H158	H	1.737569	0.458447	1.098900
H159	H	0.510030	-0.094504	0.008270
H160	H	1.010030	0.405496	0.508270
H161	H	1.237560	-0.041566	0.408370
H162	H	1.737560	0.458434	0.908370
H163	H	1.062704	-0.502187	0.122064
H164	H	1.562704	-0.002187	0.622064
H165	H	1.176165	0.011984	0.246215
H166	H	1.676165	0.511984	0.746215
H167	H	0.449030	0.309904	-0.026736
H168	H	0.949030	0.809904	0.473264
H169	H	0.619624	0.312759	-0.026986
H170	H	1.119624	0.812759	0.473014
H171	H	0.358140	-0.025000	0.002245
H172	H	0.858140	0.475000	0.502245
