data_functionalizedCrystal
_audit_creation_method	'MofGen! by Chris Wilmer'
_symmetry_space_group_name_H-M	'P1'
_symmetry_Int_Tables_number	1
_symmetry_cell_setting	triclinic
loop_
_symmetry_equiv_pos_as_xyz
  x,y,z
_cell_length_a	14.908294
_cell_length_b	18.215407
_cell_length_c	18.215405
_cell_angle_alpha	89.974667
_cell_angle_beta	93.262653
_cell_angle_gamma	86.721796
loop_
_atom_site_label
_atom_site_type_symbol
_atom_site_fract_x
_atom_site_fract_y
_atom_site_fract_z
Zn1	Zn	-0.510070	-1.101045	-0.316975
Zn2	Zn	-0.260070	-0.851045	-0.066975
Zn3	Zn	-0.010070	-0.601045	0.183025
Zn4	Zn	0.239930	-0.351045	0.433025
Zn5	Zn	-0.359205	-1.108060	-0.432950
Zn6	Zn	-0.109205	-0.858060	-0.182950
Zn7	Zn	0.140795	-0.608060	0.067050
Zn8	Zn	0.390795	-0.358060	0.317050
Zn9	Zn	-0.359229	-0.985083	-0.309904
Zn10	Zn	-0.109229	-0.735083	-0.059904
Zn11	Zn	0.140771	-0.485083	0.190096
Zn12	Zn	0.390771	-0.235083	0.440096
Zn13	Zn	-0.510012	-0.977946	-0.440002
Zn14	Zn	-0.260012	-0.727946	-0.190002
Zn15	Zn	-0.010012	-0.477946	0.059998
Zn16	Zn	0.239988	-0.227946	0.309998
O17	O	-0.434629	-1.043033	-0.374958
O18	O	-0.184629	-0.793033	-0.124958
O19	O	0.065371	-0.543033	0.125042
O20	O	0.315371	-0.293033	0.375042
O21	O	-0.490072	-1.204959	-0.332367
O22	O	-0.240072	-0.954959	-0.082367
O23	O	0.009928	-0.704959	0.167633
O24	O	0.259928	-0.454959	0.417633
O25	O	-0.232967	-1.097669	-0.410717
O26	O	0.017033	-0.847669	-0.160717
O27	O	0.267033	-0.597669	0.089283
O28	O	0.517033	-0.347669	0.339283
O29	O	-0.379272	-1.000517	-0.207859
O30	O	-0.129272	-0.750517	0.042141
O31	O	0.120728	-0.500517	0.292141
O32	O	0.370728	-0.250517	0.542141
O33	O	-0.379232	-1.210113	-0.417573
O34	O	-0.129232	-0.960113	-0.167573
O35	O	0.120768	-0.710113	0.082427
O36	O	0.370768	-0.460113	0.332427
O37	O	-0.490094	-1.085713	-0.213054
O38	O	-0.240094	-0.835713	0.036946
O39	O	0.009906	-0.585713	0.286946
O40	O	0.259906	-0.335713	0.536946
O41	O	-0.232985	-1.007319	-0.320315
O42	O	0.017015	-0.757319	-0.070315
O43	O	0.267015	-0.507319	0.179685
O44	O	0.517015	-0.257319	0.429685
O45	O	-0.379216	-0.881153	-0.327154
O46	O	-0.129216	-0.631153	-0.077154
O47	O	0.120784	-0.381153	0.172846
O48	O	0.370784	-0.131153	0.422846
O49	O	-0.636261	-0.988353	-0.429593
O50	O	-0.386261	-0.738353	-0.179593
O51	O	-0.136261	-0.488353	0.070407
O52	O	0.113739	-0.238353	0.320407
O53	O	-0.489996	-0.875909	-0.422737
O54	O	-0.239996	-0.625909	-0.172737
O55	O	0.010004	-0.375909	0.077263
O56	O	0.260004	-0.125909	0.327263
O57	O	-0.636303	-1.078793	-0.339205
O58	O	-0.386303	-0.828793	-0.089205
O59	O	-0.136303	-0.578793	0.160795
O60	O	0.113697	-0.328793	0.410795
O61	O	-0.379176	-1.090749	-0.536868
O62	O	-0.129176	-0.840749	-0.286868
O63	O	0.120824	-0.590749	-0.036868
O64	O	0.370824	-0.340749	0.213132
O65	O	-0.489973	-0.995155	-0.542050
O66	O	-0.239973	-0.745155	-0.292050
O67	O	0.010027	-0.495155	-0.042050
O68	O	0.260027	-0.245155	0.207950
C69	C	-0.434603	-0.851828	-0.374944
C70	C	-0.184603	-0.601828	-0.124944
C71	C	0.065397	-0.351828	0.125056
C72	C	0.315397	-0.101828	0.375056
C73	C	-0.434613	-0.770029	-0.374957
C74	C	-0.184613	-0.520029	-0.124957
C75	C	0.065387	-0.270029	0.125043
C76	C	0.315387	-0.020029	0.375043
C77	C	-0.434586	-1.042958	-0.566162
C78	C	-0.184586	-0.792958	-0.316162
C79	C	0.065414	-0.542958	-0.066162
C80	C	0.315414	-0.292958	0.183838
C81	C	-0.434597	-1.042991	-0.647961
C82	C	-0.184597	-0.792991	-0.397961
C83	C	0.065403	-0.542991	-0.147961
C84	C	0.315403	-0.292991	0.102039
C85	C	-0.669930	-1.031994	-0.385975
C86	C	-0.419930	-0.781994	-0.135975
C87	C	-0.169930	-0.531994	0.114025
C88	C	0.080070	-0.281994	0.364025
C89	C	-0.770202	-1.027290	-0.390669
C90	C	-0.520202	-0.777290	-0.140669
C91	C	-0.270202	-0.527290	0.109331
C92	C	-0.020202	-0.277290	0.359331
C93	C	-0.911509	-0.973574	-0.444338
C94	C	-0.661509	-0.723574	-0.194338
C95	C	-0.411509	-0.473574	0.055662
C96	C	-0.161509	-0.223574	0.305662
C97	C	-0.817295	-0.977993	-0.439932
C98	C	-0.567295	-0.727993	-0.189932
C99	C	-0.317295	-0.477993	0.060068
C100	C	-0.067295	-0.227993	0.310068
C101	C	-0.817329	-1.072171	-0.345808
C102	C	-0.567329	-0.822171	-0.095808
C103	C	-0.317329	-0.572171	0.154192
C104	C	-0.067329	-0.322171	0.404192
C105	C	-0.911543	-1.067752	-0.350214
C106	C	-0.661543	-0.817752	-0.100214
C107	C	-0.411543	-0.567752	0.149786
C108	C	-0.161543	-0.317752	0.399786
C109	C	-0.958629	-1.018453	-0.399481
C110	C	-0.708629	-0.768453	-0.149481
C111	C	-0.458629	-0.518453	0.100519
C112	C	-0.208629	-0.268453	0.350519
C113	C	-1.052845	-1.014038	-0.403890
C114	C	-0.802845	-0.764038	-0.153890
C115	C	-0.552845	-0.514038	0.096110
C116	C	-0.302845	-0.264038	0.346110
C117	C	-1.052877	-1.108212	-0.309763
C118	C	-0.802877	-0.858212	-0.059763
C119	C	-0.552877	-0.608212	0.190237
C120	C	-0.302877	-0.358212	0.440237
C121	C	-0.958663	-1.112631	-0.305357
C122	C	-0.708663	-0.862631	-0.055357
C123	C	-0.458663	-0.612631	0.194643
C124	C	-0.208663	-0.362631	0.444643
C125	C	-0.200243	-1.054072	-0.363931
C126	C	0.049757	-0.804072	-0.113931
C127	C	0.299757	-0.554072	0.136069
C128	C	0.549757	-0.304072	0.386069
C129	C	-0.099972	-1.058919	-0.359028
C130	C	0.150028	-0.808919	-0.109028
C131	C	0.400028	-0.558919	0.140972
C132	C	0.650028	-0.308919	0.390972
C133	C	-0.434656	-1.234985	-0.374972
C134	C	-0.184656	-0.984985	-0.124972
C135	C	0.065344	-0.734985	0.125028
C136	C	0.315344	-0.484985	0.375028
C137	C	-0.434667	-1.316783	-0.374978
C138	C	-0.184667	-1.066783	-0.124978
C139	C	0.065333	-0.816783	0.125022
C140	C	0.315333	-0.566783	0.375022
C141	C	-0.492224	-0.579128	-0.424797
C142	C	-0.242224	-0.329128	-0.174797
C143	C	0.007776	-0.079128	0.075203
C144	C	0.257776	0.170872	0.325203
C145	C	-0.492236	-0.502268	-0.424800
C146	C	-0.242236	-0.252268	-0.174800
C147	C	0.007764	-0.002268	0.075200
C148	C	0.257764	0.247732	0.325200
C149	C	-0.377053	-0.507690	-0.325132
C150	C	-0.127053	-0.257690	-0.075132
C151	C	0.122947	-0.007690	0.174868
C152	C	0.372947	0.242310	0.424868
C153	C	-0.377047	-0.584548	-0.325127
C154	C	-0.127047	-0.334548	-0.075127
C155	C	0.122953	-0.084548	0.174873
C156	C	0.372953	0.165452	0.424873
C157	C	-0.434631	-0.620265	-0.374963
C158	C	-0.184631	-0.370265	-0.124963
C159	C	0.065369	-0.120265	0.125037
C160	C	0.315369	0.129735	0.375037
C161	C	-0.434649	-0.466548	-0.374972
C162	C	-0.184649	-0.216548	-0.124972
C163	C	0.065351	0.033452	0.125028
C164	C	0.315351	0.283452	0.375028
C165	C	-0.434661	-0.383214	-0.374975
C166	C	-0.184661	-0.133214	-0.124975
C167	C	0.065339	0.116786	0.125025
C168	C	0.315339	0.366786	0.375025
C169	C	-0.434621	-0.703604	-0.374960
C170	C	-0.184621	-0.453604	-0.124960
C171	C	0.065379	-0.203604	0.125040
C172	C	0.315379	0.046396	0.375040
C173	C	-0.377011	-1.092873	-0.833438
C174	C	-0.127011	-0.842873	-0.583438
C175	C	0.122989	-0.592873	-0.333438
C176	C	0.372989	-0.342873	-0.083438
C177	C	-0.377033	-1.092905	-0.910298
C178	C	-0.127033	-0.842905	-0.660298
C179	C	0.122967	-0.592905	-0.410298
C180	C	0.372967	-0.342905	-0.160298
C181	C	-0.492312	-0.993285	-0.915729
C182	C	-0.242312	-0.743285	-0.665729
C183	C	0.007688	-0.493285	-0.415729
C184	C	0.257688	-0.243285	-0.165729
C185	C	-0.492294	-0.993258	-0.838870
C186	C	-0.242294	-0.743258	-0.588870
C187	C	0.007706	-0.493258	-0.338870
C188	C	0.257706	-0.243258	-0.088870
C189	C	-0.434638	-1.043050	-0.797727
C190	C	-0.184638	-0.793050	-0.547727
C191	C	0.065362	-0.543050	-0.297727
C192	C	0.315362	-0.293050	-0.047727
C193	C	-0.434678	-1.043110	-0.951445
C194	C	-0.184678	-0.793110	-0.701445
C195	C	0.065322	-0.543110	-0.451445
C196	C	0.315322	-0.293110	-0.201445
C197	C	-0.434702	-1.043144	-1.034779
C198	C	-0.184702	-0.793144	-0.784779
C199	C	0.065298	-0.543144	-0.534779
C200	C	0.315298	-0.293144	-0.284779
C201	C	-0.434615	-1.043017	-0.714387
C202	C	-0.184615	-0.793017	-0.464387
C203	C	0.065385	-0.543017	-0.214387
C204	C	0.315385	-0.293017	0.035613
C205	C	-0.434692	-1.043129	-0.183008
C206	C	-0.184692	-0.793129	0.066992
C207	C	0.065308	-0.543129	0.316992
C208	C	0.315308	-0.293129	0.566992
C209	C	-0.434719	-1.043169	-0.101210
C210	C	-0.184719	-0.793169	0.148790
C211	C	0.065281	-0.543169	0.398790
C212	C	0.315281	-0.293169	0.648790
H213	H	-1.091182	-0.973898	-0.444008
H214	H	-0.841182	-0.723898	-0.194008
H215	H	-0.591182	-0.473898	0.055992
H216	H	-0.341182	-0.223898	0.305992
H217	H	-0.330066	-1.133418	-0.799941
H218	H	-0.080066	-0.883418	-0.549941
H219	H	0.169934	-0.633418	-0.299941
H220	H	0.419934	-0.383418	-0.049941
H221	H	-0.330108	-1.133476	-0.939370
H222	H	-0.080108	-0.883476	-0.689370
H223	H	0.169892	-0.633476	-0.439370
H224	H	0.419892	-0.383476	-0.189370
F225	F	-0.961624	-0.921113	-0.496776
F226	F	-0.711624	-0.671113	-0.246776
F227	F	-0.461624	-0.421113	0.003224
F228	F	-0.211624	-0.171113	0.253224
H229	H	-0.330148	-0.618043	-0.284541
H230	H	-0.080148	-0.368043	-0.034541
H231	H	0.169852	-0.118043	0.215459
H232	H	0.419852	0.131957	0.465459
F233	F	-0.553513	-0.617137	-0.477836
F234	F	-0.303513	-0.367137	-0.227836
F235	F	-0.053513	-0.117137	0.022164
F236	F	0.196487	0.132863	0.272164
F237	F	-0.553636	-0.940230	-0.800862
F238	F	-0.303636	-0.690230	-0.550862
F239	F	-0.053636	-0.440230	-0.300862
F240	F	0.196364	-0.190230	-0.050862
F241	F	-0.767149	-0.930225	-0.487673
F242	F	-0.517149	-0.680225	-0.237673
F243	F	-0.267149	-0.430225	0.012327
F244	F	-0.017149	-0.180225	0.262327
F245	F	-0.908541	-1.165082	-0.252914
F246	F	-0.658541	-0.915082	-0.002914
F247	F	-0.408541	-0.665082	0.247086
F248	F	-0.158541	-0.415082	0.497086
F249	F	-0.767201	-1.124598	-0.293343
F250	F	-0.517201	-0.874598	-0.043343
F251	F	-0.267201	-0.624598	0.206657
F252	F	-0.017201	-0.374598	0.456657
F253	F	-1.103033	-1.155982	-0.262024
F254	F	-0.853033	-0.905982	-0.012024
F255	F	-0.603033	-0.655982	0.237976
F256	F	-0.353033	-0.405982	0.487976
H257	H	-0.539251	-0.952745	-0.949237
H258	H	-0.289251	-0.702745	-0.699237
H259	H	-0.039251	-0.452745	-0.449237
H260	H	0.210749	-0.202745	-0.199237
F261	F	-0.315771	-0.469672	-0.272097
F262	F	-0.065771	-0.219672	-0.022097
F263	F	0.184229	0.030328	0.227903
F264	F	0.434229	0.280328	0.477903
F265	F	-0.553535	-0.458490	-0.477839
F266	F	-0.303535	-0.208490	-0.227839
F267	F	-0.053535	0.041510	0.022161
F268	F	0.196465	0.291510	0.272161
