data_functionalizedCrystal
_audit_creation_method	'MofGen! by Chris Wilmer'
_symmetry_space_group_name_H-M	'P1'
_symmetry_Int_Tables_number	1
_symmetry_cell_setting	triclinic
loop_
_symmetry_equiv_pos_as_xyz
  x,y,z
_cell_length_a	17.038272
_cell_length_b	16.098678
_cell_length_c	14.044220
_cell_angle_alpha	92.981510
_cell_angle_beta	92.150217
_cell_angle_gamma	87.073965
loop_
_atom_site_label
_atom_site_type_symbol
_atom_site_fract_x
_atom_site_fract_y
_atom_site_fract_z
O1	O	1.048637	0.069154	0.210969
O2	O	0.820775	0.069179	0.207684
O3	O	0.931286	0.069159	0.071065
O4	O	0.938126	0.069174	0.347587
O5	O	0.937707	-0.069353	0.063110
O6	O	0.827196	-0.069333	0.199728
O7	O	1.055058	-0.069357	0.203014
Zn8	Zn	0.942147	-0.091336	0.200108
Zn9	Zn	0.933686	0.091158	0.210589
O10	O	0.944547	-0.069337	0.339632
C11	C	0.794648	-0.000074	0.200717
C12	C	0.707231	-0.000065	0.191798
C13	C	0.662845	-0.000061	0.273686
C14	C	0.580708	-0.000073	0.265300
C15	C	0.542959	-0.000083	0.175024
C16	C	0.587350	-0.000089	0.093129
C17	C	0.669486	-0.000083	0.101516
C18	C	0.295129	-0.000107	0.145392
C19	C	0.212988	-0.000110	0.137011
C20	C	0.206351	-0.000095	0.309183
C21	C	0.288488	-0.000084	0.317563
C22	C	0.332873	-0.000095	0.235667
C23	C	0.459002	-0.000092	0.166449
C24	C	0.416829	-0.000091	0.244243
N25	N	0.947926	-0.215884	0.192954
C26	C	0.901010	-0.259481	0.250917
C27	C	0.905075	-0.346669	0.245911
C28	C	0.956054	-0.390258	0.182936
C29	C	1.002976	-0.346655	0.124971
C30	C	0.998914	-0.259469	0.129983
C31	C	0.970772	-0.653505	0.164783
C32	C	0.974829	-0.740697	0.159773
C33	C	0.876929	-0.740705	0.280714
C34	C	0.872867	-0.653517	0.285717
C35	C	0.919793	-0.609921	0.227755
C36	C	0.960210	-0.479379	0.177815
C37	C	0.915641	-0.520803	0.232882
C38	C	1.081185	-0.000103	0.209981
C39	C	1.168602	-0.000106	0.218900
C40	C	0.931502	-0.000097	0.031532
C41	C	0.922571	-0.000097	-0.074414
N42	N	0.927912	0.215706	0.217736
C43	C	0.906242	-0.000083	-0.268391
C44	C	0.969587	-0.000088	-0.320917
C45	C	0.960501	-0.000080	-0.428852
C46	C	0.915327	-0.000091	-0.160446
C47	C	0.944330	-0.000079	0.379165
C48	C	0.953262	-0.000074	0.485112
H49	H	0.859493	-0.223996	0.302193
O50	O	1.052607	-0.388954	0.063896
C51	C	1.186663	-0.415569	0.017567
C52	C	1.130550	-0.367634	0.086822
H53	H	1.249690	-0.398336	0.036066
H54	H	1.181577	-0.485384	0.023934
H55	H	1.170250	-0.398431	-0.058622
H56	H	1.146927	-0.384703	0.163040
H57	H	1.135645	-0.297831	0.080372
H58	H	0.866873	-0.382165	0.293109
O59	O	0.163146	0.000019	0.388667
C60	C	0.063257	0.071799	0.483274
C61	C	0.112120	0.071768	0.393210
H62	H	0.022002	0.129810	0.486988
H63	H	0.027278	0.013869	0.480334
H64	H	0.104364	0.071765	0.549220
H65	H	0.071070	0.071831	0.327218
H66	H	0.148107	0.129693	0.396235
H67	H	0.845192	-0.000075	-0.304483
O68	O	0.422456	-0.000128	0.078683
C69	C	0.437693	-0.000069	-0.091200
C70	C	0.479184	-0.000048	0.008133
H71	H	0.483538	0.000013	-0.148265
H72	H	0.402125	-0.058051	-0.102827
H73	H	0.396685	0.057882	-0.096039
H74	H	0.520230	-0.057960	0.013043
H75	H	0.514702	0.057973	0.019717
O76	O	0.712684	0.000027	0.022046
C77	C	0.805901	0.071808	-0.064311
C78	C	0.757037	0.071781	0.025746
H79	H	0.841760	0.129823	-0.061359
H80	H	0.847268	0.013882	-0.068021
H81	H	0.764801	0.071761	-0.130263
H82	H	0.798077	0.071858	0.091749
H83	H	0.715661	0.129702	0.029372
O84	O	1.042474	-0.000217	-0.277979
C85	C	1.169413	-0.072035	-0.260927
C86	C	1.086908	-0.071977	-0.309643
H87	H	1.205356	-0.130056	-0.286493
H88	H	1.200102	-0.014114	-0.279873
H89	H	1.163838	-0.072001	-0.180287
H90	H	1.092413	-0.072041	-0.390292
H91	H	1.056250	-0.129893	-0.290619
H92	H	0.447568	-0.000088	0.317745
O93	O	1.016377	-0.611292	0.108378
C94	C	1.113938	-0.620494	-0.012073
C95	C	1.062320	-0.668407	0.051740
H96	H	1.151108	-0.666650	-0.057867
H97	H	1.074810	-0.579704	-0.060175
H98	H	1.154152	-0.579647	0.034639
H99	H	1.022099	-0.709299	0.005102
H100	H	1.101495	-0.709144	0.099847
O101	O	0.699389	-0.000087	0.361452
C102	C	0.684126	-0.000028	0.531338
C103	C	0.642644	-0.000015	0.432000
H104	H	0.638266	0.000048	0.588404
H105	H	0.725086	-0.058005	0.536304
H106	H	0.719740	0.057929	0.542849
H107	H	0.606987	-0.057932	0.420424
H108	H	0.601730	0.058001	0.427081
H109	H	0.831356	-0.618028	0.336995
H110	H	0.874137	-0.485310	0.284159
H111	H	0.319218	-0.000066	0.391075
O112	O	0.537506	0.000050	0.344786
C113	C	0.437622	0.071847	0.439389
C114	C	0.486481	0.071800	0.349320
H115	H	0.396369	0.129859	0.443094
H116	H	0.401643	0.013918	0.436463
H117	H	0.478732	0.071822	0.505331
H118	H	0.445428	0.071854	0.283330
H119	H	0.522469	0.129724	0.352329
H120	H	1.037120	-0.223973	0.082785
O121	O	0.831236	-0.783018	0.336916
C122	C	0.699656	-0.809674	0.380158
C123	C	0.751310	-0.761718	0.316431
H124	H	0.635026	-0.792458	0.363633
H125	H	0.711247	-0.879486	0.365755
H126	H	0.714466	-0.792538	0.458322
H127	H	0.736531	-0.778784	0.238246
H128	H	0.739711	-0.691918	0.330916
H129	H	1.001716	-0.514876	0.126538
H130	H	0.182254	-0.000118	0.063494
H131	H	0.331257	-0.000116	0.078707
H132	H	1.016345	-0.776184	0.108488
O133	O	0.550765	0.000013	0.005390
C134	C	0.527935	0.071790	-0.140184
C135	C	0.569426	0.071763	-0.040851
H136	H	0.542993	0.129803	-0.177590
H137	H	0.548431	0.013861	-0.184378
H138	H	0.461611	0.071750	-0.132090
H139	H	0.635755	0.071833	-0.048855
H140	H	0.548866	0.129687	0.003307
