data_functionalizedCrystal
_audit_creation_method	'MofGen! by Chris Wilmer'
_symmetry_space_group_name_H-M	'P1'
_symmetry_Int_Tables_number	1
_symmetry_cell_setting	triclinic
loop_
_symmetry_equiv_pos_as_xyz
  x,y,z
_cell_length_a	16.109301
_cell_length_b	16.109301
_cell_length_c	15.186229
_cell_angle_alpha	89.999362
_cell_angle_beta	89.996245
_cell_angle_gamma	83.461532
loop_
_atom_site_label
_atom_site_type_symbol
_atom_site_fract_x
_atom_site_fract_y
_atom_site_fract_z
O1	O	0.106866	1.103131	-0.073173
O2	O	0.120165	0.861069	-0.073187
O3	O	-0.007515	0.988749	-0.073174
O4	O	0.234547	0.975450	-0.073186
O5	O	-0.007517	0.988741	0.073284
O6	O	0.120164	0.861060	0.073270
O7	O	0.106864	1.103122	0.073284
Zn8	Zn	0.113514	0.982090	0.096531
Zn9	Zn	0.113516	0.982101	-0.096433
O10	O	0.234545	0.975442	0.073271
C11	C	-0.038491	0.988206	0.000055
C12	C	-0.130786	0.986591	0.000053
C13	C	0.119626	0.830090	0.000040
C14	C	0.118011	0.737794	0.000035
C15	C	-0.439785	1.057074	0.000042
C16	C	-0.353064	1.058600	0.000047
C17	C	-0.333191	0.907111	0.000050
C18	C	-0.419910	0.905586	0.000051
C19	C	-0.473205	0.980571	0.000043
C20	C	-0.299766	0.983620	0.000047
C21	C	-0.205740	0.985274	0.000052
C22	C	-0.567237	0.978917	0.000039
C23	C	0.190018	0.515522	0.000041
C24	C	0.188494	0.428802	0.000047
C25	C	0.037006	0.448676	0.000051
C26	C	0.038530	0.535395	0.000052
C27	C	0.115039	0.568815	0.000042
C28	C	0.111990	0.395376	0.000047
C29	C	0.110337	0.301350	0.000054
C30	C	0.116693	0.662847	0.000038
C31	C	0.265521	0.975985	0.000041
C32	C	0.357816	0.977600	0.000036
C33	C	0.107404	1.134101	0.000056
C34	C	0.109019	1.226397	0.000055
N35	N	0.113511	0.982088	0.228223
N36	N	0.113512	0.982109	-0.228126
C37	C	0.056994	1.038644	0.453952
C38	C	0.056992	1.038647	0.546142
C39	C	0.170032	0.925547	0.546139
C40	C	0.170030	0.925541	0.453951
C41	C	0.113511	0.982094	0.407860
C42	C	0.113512	0.982103	0.592238
C43	C	0.113510	0.982105	0.692194
C44	C	0.113512	0.982091	0.307897
H45	H	-0.483175	1.118131	0.000035
C46	C	-0.316307	1.142760	0.000044
N47	N	-0.288622	1.206153	0.000043
C48	C	-0.047150	0.411905	0.000053
N49	N	-0.110537	0.384210	0.000051
C50	C	-0.274559	0.824633	0.000048
N51	N	-0.230398	0.762509	0.000041
H52	H	-0.447120	0.843284	0.000056
C53	C	0.274180	0.552281	0.000042
N54	N	0.337573	0.579966	0.000047
C55	C	0.270977	0.370182	0.000050
N56	N	0.333108	0.326030	0.000055
H57	H	-0.022530	0.578788	0.000055
H58	H	0.010969	1.084694	0.583667
C59	C	0.232197	0.863340	0.596848
N60	N	0.279021	0.816484	0.635041
H61	H	0.010972	1.084692	0.416427
H62	H	0.216053	0.879487	0.416420
