data_functionalizedCrystal
_audit_creation_method	'MofGen! by Chris Wilmer'
_symmetry_space_group_name_H-M	'P1'
_symmetry_Int_Tables_number	1
_symmetry_cell_setting	triclinic
loop_
_symmetry_equiv_pos_as_xyz
  x,y,z
_cell_length_a	6.817900
_cell_length_b	10.992723
_cell_length_c	16.255661
_cell_angle_alpha	93.806710
_cell_angle_beta	103.488922
_cell_angle_gamma	108.770285
loop_
_atom_site_label
_atom_site_type_symbol
_atom_site_fract_x
_atom_site_fract_y
_atom_site_fract_z
V1	V	-4.053808	-0.178800	-0.263864
O2	O	-4.013050	0.007524	-0.258848
O3	O	-4.031834	-0.353504	-0.262052
O4	O	-4.005024	-0.176519	-0.378947
O5	O	-4.040046	-0.170686	-0.141144
V6	V	-4.534061	-0.156459	-0.249186
O7	O	-4.322238	-0.227809	-0.296060
O8	O	-4.715828	-0.107450	-0.216990
O9	O	-4.332828	0.018245	-0.250998
O10	O	-4.692215	-0.342783	-0.254201
O11	O	-4.665219	-0.164573	-0.371906
O12	O	-4.359638	-0.158740	-0.134103
C13	C	-3.883276	-0.396079	-0.257887
C14	C	-3.946595	-0.538904	-0.257173
C15	C	-4.257664	-0.749860	-0.260935
C16	C	-4.192142	-0.601384	-0.262005
C17	C	-3.905703	-0.608424	-0.335558
C18	C	-3.973015	-0.757095	-0.334913
C19	C	-3.878718	-0.718185	-0.173123
C20	C	-3.816417	-0.569463	-0.172892
C21	C	-3.849076	-0.170314	-0.406998
C22	C	-3.890648	-0.169605	-0.501079
C23	C	-3.799920	-0.161129	-0.723898
C24	C	-3.972914	-0.270523	-0.793370
C25	C	-3.966831	-0.168275	-0.673328
C26	C	-3.867938	-0.057629	-0.771493
C27	C	-4.040403	-0.166983	-0.839711
C28	C	-4.139321	-0.277766	-0.741569
C29	C	-4.034269	-0.064775	-0.719678
C30	C	-4.207404	-0.174200	-0.789130
C31	C	-3.924443	-0.169019	-0.577478
C32	C	-4.082810	-0.166248	-0.935560
C33	C	-4.144729	0.060813	-0.255160
C34	C	-4.060649	0.203637	-0.255880
C35	C	-4.178929	-0.164949	-0.106048
C36	C	-4.116594	-0.165652	-0.011966
H37	H	-4.392798	-0.804231	-0.320641
C38	C	-3.666925	-0.553790	-0.334810
N39	N	-3.487075	-0.512636	-0.334245
H40	H	-4.100189	-0.809162	-0.397231
C41	C	-3.938472	-0.388028	-0.836721
N42	N	-3.912513	-0.476527	-0.869371
H43	H	-3.847560	-0.522640	-0.114853
H44	H	-3.931962	-0.743405	-0.113030
C45	C	-3.572317	-0.509939	-0.161505
N46	N	-3.388456	-0.465126	-0.152942
C47	C	-4.352699	-0.783412	-0.184736
N48	N	-4.424277	-0.808685	-0.127337
C49	C	-4.331793	-0.576511	-0.343720
N50	N	-4.436972	-0.557780	-0.405275
C51	C	-3.777995	-0.799017	-0.334607
N52	N	-3.631111	-0.830590	-0.334386
H53	H	-3.999098	-0.588485	-0.397926
C54	C	-4.440731	-0.181729	-0.827459
N55	N	-4.616476	-0.187415	-0.856342
C56	C	-4.293772	-0.403591	-0.723374
N57	N	-4.410093	-0.498364	-0.709667
H58	H	-4.059681	0.022215	-0.687573
H59	H	-4.229884	-0.554014	-0.205979
C60	C	-3.566793	-0.153859	-0.685413
N61	N	-3.391209	-0.148391	-0.656425
H62	H	-3.753608	0.035381	-0.785107
H63	H	-3.730977	-0.747361	-0.168641
