data_functionalizedCrystal
_audit_creation_method	'MofGen! by Chris Wilmer'
_symmetry_space_group_name_H-M	'P1'
_symmetry_Int_Tables_number	1
_symmetry_cell_setting	triclinic
loop_
_symmetry_equiv_pos_as_xyz
  x,y,z
_cell_length_a	16.109301
_cell_length_b	17.699092
_cell_length_c	15.186229
_cell_angle_alpha	89.997943
_cell_angle_beta	89.999006
_cell_angle_gamma	83.373976
loop_
_atom_site_label
_atom_site_type_symbol
_atom_site_fract_x
_atom_site_fract_y
_atom_site_fract_z
O1	O	1.102966	0.097285	-0.073177
O2	O	1.602966	0.597285	0.426823
O3	O	0.860884	0.109392	-0.073189
O4	O	1.360884	0.609392	0.426811
O5	O	0.988761	-0.006841	-0.073180
O6	O	1.488761	0.493159	0.426820
O7	O	0.975089	0.213517	-0.073185
O8	O	1.475089	0.713517	0.426815
O9	O	0.988752	-0.006842	0.073277
O10	O	1.488752	0.493158	0.573277
O11	O	0.860875	0.109390	0.073268
O12	O	1.360875	0.609390	0.573268
O13	O	1.102958	0.097283	0.073280
O14	O	1.602958	0.597283	0.573280
Zn15	Zn	0.981915	0.103336	0.096528
Zn16	Zn	1.481915	0.603336	0.596528
Zn17	Zn	0.981926	0.103339	-0.096436
Zn18	Zn	1.481926	0.603339	0.403564
O19	O	0.975081	0.213516	0.073272
O20	O	1.475081	0.713516	0.573272
C21	C	0.829905	0.108900	0.000038
C22	C	1.329905	0.608900	0.500038
C23	C	0.737613	0.107430	0.000034
C24	C	1.237613	0.607430	0.500034
C25	C	0.428506	0.171593	0.000048
C26	C	0.928506	0.671593	0.500048
C27	C	0.515224	0.172982	0.000042
C28	C	1.015224	0.672982	0.500042
C29	C	0.535330	0.035076	0.000034
C30	C	1.035330	0.535076	0.500034
C31	C	0.448614	0.033688	0.000032
C32	C	0.948614	0.533688	0.500032
C33	C	0.395203	0.101949	0.000044
C34	C	0.895203	0.601949	0.500044
C35	C	0.568638	0.104726	0.000040
C36	C	1.068638	0.604726	0.500040
C37	C	0.662661	0.106231	0.000034
C38	C	1.162661	0.606231	0.500034
C39	C	0.301174	0.100444	0.000048
C40	C	0.801174	0.600444	0.500048
C41	C	0.988265	-0.035039	0.000047
C42	C	1.488265	0.464961	0.500047
C43	C	0.986792	-0.119059	0.000043
C44	C	1.486792	0.380941	0.500043
C45	C	0.986107	-0.158526	-0.079792
C46	C	1.486107	0.341474	0.420208
C47	C	0.984717	-0.237471	-0.079793
C48	C	1.484717	0.262529	0.420207
C49	C	0.984019	-0.276948	0.000041
C50	C	1.484019	0.223052	0.500041
C51	C	0.984702	-0.237475	0.079882
C52	C	1.484702	0.262525	0.579882
C53	C	0.986086	-0.158530	0.079883
C54	C	1.486086	0.341470	0.579883
C55	C	0.979122	-0.555848	0.079883
C56	C	1.479122	-0.055848	0.579883
C57	C	0.977740	-0.634798	0.079877
C58	C	1.477740	-0.134798	0.579877
C59	C	0.977753	-0.634789	-0.079793
C60	C	1.477753	-0.134789	0.420207
C61	C	0.979136	-0.555844	-0.079792
C62	C	1.479136	-0.055844	0.420208
C63	C	0.979815	-0.516377	0.000048
C64	C	1.479815	-0.016377	0.500048
C65	C	0.981320	-0.430776	0.000048
C66	C	1.481320	0.069224	0.500048
C67	C	0.982520	-0.362549	0.000042
C68	C	1.482520	0.137451	0.500042
C69	C	1.133936	0.097775	0.000051
C70	C	1.633936	0.597775	0.500051
C71	C	1.226229	0.099245	0.000050
C72	C	1.726229	0.599245	0.500050
C73	C	0.975576	0.241714	0.000043
C74	C	1.475576	0.741714	0.500043
C75	C	0.977049	0.325734	0.000041
C76	C	1.477049	0.825734	0.500041
N77	N	0.981913	0.103335	0.228220
N78	N	1.481913	0.603335	0.728220
N79	N	0.981934	0.103335	-0.228129
N80	N	1.481934	0.603335	0.271871
C81	C	1.038557	0.051884	0.453947
C82	C	1.538557	0.551884	0.953947
C83	C	1.038559	0.051882	0.546137
C84	C	1.538559	0.551882	1.046137
C85	C	0.925285	0.154787	0.546138
C86	C	1.425285	0.654787	1.046138
C87	C	0.925279	0.154785	0.453950
C88	C	1.425279	0.654785	0.953950
C89	C	0.981920	0.103334	0.407857
C90	C	1.481920	0.603334	0.907857
C91	C	0.981928	0.103335	0.592235
C92	C	1.481928	0.603335	1.092235
C93	C	0.981931	0.103333	0.692191
C94	C	1.481931	0.603333	1.192191
C95	C	0.981916	0.103335	0.307894
C96	C	1.481916	0.603335	0.807894
H97	H	0.542334	0.229693	0.000045
H98	H	1.042334	0.729693	0.500045
H99	H	0.879171	0.196679	0.583677
H100	H	1.379171	0.696679	1.083677
O101	O	0.864192	0.210282	0.404228
O102	O	1.364192	0.710282	0.904228
H103	H	0.824817	0.246068	0.451766
H104	H	1.324817	0.746068	0.951766
O105	O	0.592937	-0.038546	0.000028
O106	O	1.092937	0.461454	0.500028
H107	H	0.581103	-0.071880	0.059717
H108	H	1.081103	0.428120	0.559717
H109	H	1.084677	0.009986	0.583660
H110	H	1.584677	0.509986	1.083660
H111	H	0.385021	0.227176	0.000056
H112	H	0.885021	0.727176	0.500056
H113	H	0.979691	-0.523725	0.144894
H114	H	1.479691	-0.023725	0.644894
O115	O	0.412685	-0.041431	0.000038
O116	O	0.912685	0.458569	0.500038
H117	H	0.464391	-0.088664	0.000046
H118	H	0.964391	0.411336	0.500046
H119	H	0.984163	-0.269603	-0.144803
H120	H	1.484163	0.230397	0.355197
O121	O	0.976992	-0.677375	0.165992
O122	O	1.476992	-0.177375	0.665992
H123	H	0.975929	-0.738902	0.152575
H124	H	1.475929	-0.238902	0.652575
H125	H	0.986680	-0.126391	-0.144803
H126	H	1.486680	0.373609	0.355197
O127	O	0.979879	-0.513262	-0.165898
O128	O	1.479879	-0.013262	0.334102
H129	H	0.979158	-0.553969	-0.221415
H130	H	1.479158	-0.053969	0.278585
H131	H	0.977196	-0.666932	-0.144803
H132	H	1.477196	-0.166932	0.355197
O133	O	0.983965	-0.280049	0.165994
O134	O	1.483965	0.219951	0.665994
H135	H	0.982903	-0.341577	0.152583
H136	H	1.482903	0.158423	0.652583
H137	H	0.986632	-0.126396	0.144892
H138	H	1.486632	0.373604	0.644892
O139	O	1.099634	-0.003614	0.404227
O140	O	1.599634	0.496386	0.904227
H141	H	1.139011	-0.039396	0.451769
H142	H	1.639011	0.460604	0.951769
