data_functionalizedCrystal
_audit_creation_method	'MofGen! by Chris Wilmer'
_symmetry_space_group_name_H-M	'P1'
_symmetry_Int_Tables_number	1
_symmetry_cell_setting	triclinic
loop_
_symmetry_equiv_pos_as_xyz
  x,y,z
_cell_length_a	11.026623
_cell_length_b	14.853567
_cell_length_c	9.482944
_cell_angle_alpha	100.410757
_cell_angle_beta	81.814548
_cell_angle_gamma	83.889183
loop_
_atom_site_label
_atom_site_type_symbol
_atom_site_fract_x
_atom_site_fract_y
_atom_site_fract_z
O1	O	-1.627783	0.392915	0.120867
O2	O	-1.274406	0.349914	0.120872
O3	O	-1.460534	0.241709	0.120874
O4	O	-1.441655	0.501121	0.120866
O5	O	-1.426541	0.211125	-0.120917
O6	O	-1.240412	0.319330	-0.120918
O7	O	-1.593790	0.362331	-0.120923
Cu8	Cu	-1.413997	0.338038	-0.142998
Cu9	Cu	-1.454198	0.374207	0.142947
O10	O	-1.407661	0.470537	-0.120925
C11	C	-1.212185	0.326690	-0.000022
C12	C	-1.077431	0.303042	-0.000020
C13	C	-1.003736	0.368336	-0.000021
C14	C	-0.864461	0.343897	-0.000019
C15	C	-1.442683	0.192691	-0.000017
C16	C	-1.440121	0.092195	-0.000004
C17	C	-1.318717	-0.339932	-0.000030
C18	C	-1.539842	-0.325531	-0.000033
C19	C	-1.542253	-0.231108	-0.000025
C20	C	-1.432895	-0.191092	-0.000021
C21	C	-1.321125	-0.245500	-0.000026
C22	C	-1.654019	-0.176695	-0.000034
C23	C	-1.656435	-0.082265	-0.000028
C24	C	-1.547077	-0.042246	-0.000014
C25	C	-1.435302	-0.096660	-0.000017
C26	C	-1.325944	-0.056645	-0.000013
C27	C	-1.214170	-0.111056	-0.000006
C28	C	-1.211767	-0.205482	-0.000012
C29	C	-1.549480	0.052179	-0.000008
C30	C	-1.328351	0.037787	-0.000009
C31	C	-0.656011	0.385555	-0.000026
C32	C	-0.790766	0.409201	-0.000020
C33	C	-1.425513	0.519556	-0.000031
C34	C	-1.428076	0.620052	-0.000034
N35	N	-1.385731	0.312600	-0.344117
C36	C	-1.445852	0.366702	-0.416319
C37	C	-1.422344	0.345530	-0.583735
N38	N	-1.482474	0.399640	0.344066
H39	H	-1.037421	0.229052	0.000020
O40	O	-1.221996	0.076500	-0.000068
C41	C	-1.002428	0.052264	0.000038
C42	C	-1.122777	0.008300	0.000069
H43	H	-0.922183	-0.002851	0.000179
H44	H	-0.983707	0.083279	-0.101175
H45	H	-1.012322	0.108937	0.101203
H46	H	-1.112974	-0.048409	-0.101027
H47	H	-1.141458	-0.022653	0.101349
H48	H	-0.824456	0.269902	0.000021
H49	H	-1.125129	-0.078464	-0.000014
O50	O	-1.051251	0.456652	-0.000087
C51	C	-1.009753	0.612692	0.000003
C52	C	-0.955780	0.512706	0.000043
H53	H	-0.932595	0.658043	0.000139
H54	H	-1.054055	0.614284	-0.101211
H55	H	-1.082597	0.639782	0.101167
H56	H	-0.882891	0.485554	-0.101052
H57	H	-0.911557	0.511173	0.101324
O58	O	-0.838360	0.497544	0.000176
C59	C	-0.870504	0.656599	0.125496
C60	C	-0.816529	0.556597	0.125433
H61	H	-0.852896	0.704368	0.226770
H62	H	-0.824351	0.678886	0.024378
H63	H	-0.974315	0.660561	0.125425
H64	H	-0.712724	0.552558	0.125555
H65	H	-0.862776	0.534352	0.226542
O66	O	-1.658108	0.105029	0.000246
C67	C	-1.865478	0.162022	0.125461
C68	C	-1.742509	0.102155	0.125366
H69	H	-1.933758	0.159703	0.226594
H70	H	-1.848499	0.236412	0.125566
H71	H	-1.905241	0.134216	0.024221
H72	H	-1.702681	0.129880	0.226589
H73	H	-1.759563	0.027774	0.125185
O74	O	-1.760347	-0.215425	-0.000097
C75	C	-1.979943	-0.191177	-0.000004
C76	C	-1.859608	-0.147197	0.000025
H77	H	-2.060231	-0.136031	0.000126
H78	H	-1.970199	-0.247799	-0.101211
H79	H	-1.998493	-0.222254	0.101167
H80	H	-1.840987	-0.116067	-0.101077
H81	H	-1.869411	-0.090620	0.101300
O82	O	-1.527931	0.440759	-0.342374
C83	C	-1.582669	0.606098	-0.295432
C84	C	-1.489634	0.522306	-0.379287
H85	H	-1.551726	0.672051	-0.325222
H86	H	-1.678104	0.598325	-0.325278
H87	H	-1.587010	0.609949	-0.173622
H88	H	-1.485184	0.518404	-0.501116
H89	H	-1.394246	0.530113	-0.349320
O90	O	-1.564558	0.473703	-0.582003
C91	C	-1.619293	0.639041	-0.535086
C92	C	-1.526256	0.555246	-0.618925
H93	H	-1.588346	0.704991	-0.564884
H94	H	-1.714725	0.631267	-0.564939
H95	H	-1.623641	0.642900	-0.413274
H96	H	-1.521799	0.551337	-0.740757
H97	H	-1.430871	0.563055	-0.588952
H98	H	-1.747448	-0.037971	-0.000031
H99	H	-1.628875	-0.358120	-0.000048
H100	H	-1.353467	0.283531	-0.645858
O101	O	-1.303561	0.238700	-0.418444
C102	C	-1.205097	0.150283	-0.653072
C103	C	-1.298167	0.234018	-0.569085
H104	H	-1.200724	0.146459	-0.774879
H105	H	-1.109677	0.158033	-0.623163
H106	H	-1.236056	0.084322	-0.623334
H107	H	-1.267322	0.300019	-0.598778
H108	H	-1.393566	0.226187	-0.599000
H109	H	-1.120766	-0.249791	-0.000008
H110	H	-1.227715	-0.384237	-0.000019
