data_functionalizedCrystal
_audit_creation_method	'MofGen! by Chris Wilmer'
_symmetry_space_group_name_H-M	'P1'
_symmetry_Int_Tables_number	1
_symmetry_cell_setting	triclinic
loop_
_symmetry_equiv_pos_as_xyz
  x,y,z
_cell_length_a	23.096457
_cell_length_b	23.096457
_cell_length_c	15.698487
_cell_angle_alpha	89.999879
_cell_angle_beta	60.001174
_cell_angle_gamma	59.997748
loop_
_atom_site_label
_atom_site_type_symbol
_atom_site_fract_x
_atom_site_fract_y
_atom_site_fract_z
Zr1	Zr	0.633751	0.557755	-0.111789
O2	O	0.754543	0.465300	-0.247800
O3	O	0.512960	0.586099	-0.070096
O4	O	0.633753	0.586092	-0.247807
O5	O	0.633748	0.465309	0.070096
O6	O	0.633752	0.681374	-0.247810
O7	O	0.633750	0.465306	-0.070089
O8	O	0.417676	0.681385	0.070083
O9	O	0.849825	0.465298	-0.247798
O10	O	0.562642	0.669293	-0.052314
O11	O	0.562640	0.598188	0.052306
O12	O	0.704859	0.598180	-0.156926
O13	O	0.704857	0.527075	-0.052306
Zr14	Zr	0.633746	0.709723	0.111785
Zr15	Zr	0.633750	0.709718	-0.111793
Zr16	Zr	0.633747	0.557760	0.111790
Zr17	Zr	0.785713	0.557752	-0.111784
Zr18	Zr	0.481784	0.709726	0.111781
O19	O	0.754537	0.681378	0.070092
O20	O	0.754542	0.681371	-0.247807
O21	O	0.754538	0.465307	0.070099
O22	O	0.512954	0.802178	0.247797
O23	O	0.512959	0.802171	-0.070103
O24	O	0.512955	0.586106	0.247803
O25	O	0.633749	0.802168	-0.070099
O26	O	0.633744	0.681385	0.247804
O27	O	0.633745	0.586104	0.247807
O28	O	0.633747	0.802171	0.070085
O29	O	0.849824	0.586088	-0.247801
O30	O	0.417673	0.681389	0.247798
O31	O	0.417672	0.802180	0.247794
O32	O	0.417675	0.802176	0.070079
O33	O	0.849822	0.465302	-0.070083
O34	O	0.849821	0.586092	-0.070087
O35	O	0.562638	0.669297	0.156922
O36	O	0.562640	0.740402	0.052302
O37	O	0.704857	0.669290	-0.052310
O38	O	0.704855	0.598185	0.052310
C39	C	0.443666	0.633743	-0.000007
C40	C	0.379154	0.633744	-0.000009
C41	C	-0.081363	0.670856	-0.054595
C42	C	-0.020743	0.670854	-0.054605
C43	C	0.009569	0.633739	0.000006
C44	C	-0.020729	0.596608	0.054609
C45	C	-0.081342	0.596605	0.054608
N46	N	0.071961	0.638894	0.088878
N47	N	0.129540	0.638901	0.088877
C48	C	0.192194	0.633745	0.000009
N49	N	0.195088	0.628596	-0.088855
N50	N	0.137501	0.628593	-0.088852
C51	C	0.075294	0.633738	0.000012
C52	C	0.288221	0.670867	-0.054606
C53	C	0.348846	0.670860	-0.054619
C54	C	0.348852	0.596619	0.054605
C55	C	0.288234	0.596621	0.054607
C56	C	0.257919	0.633749	0.000004
C57	C	0.633749	0.443656	0.000004
C58	C	0.633750	0.379144	0.000006
C59	C	0.633756	-0.081369	0.077212
C60	C	0.633750	-0.020750	0.077221
C61	C	0.633752	0.009560	-0.000009
C62	C	0.633739	-0.020742	-0.077237
C63	C	0.633737	-0.081356	-0.077238
N64	N	0.680111	0.081551	-0.091592
N65	N	0.680115	0.139130	-0.091588
C66	C	0.633758	0.192186	-0.000011
N67	N	0.587408	0.185483	0.091567
N68	N	0.587407	0.127896	0.091562
C69	C	0.633755	0.075286	-0.000017
C70	C	0.633760	0.288215	0.077226
C71	C	0.633749	0.348837	0.077235
C72	C	0.633746	0.348840	-0.077231
C73	C	0.633749	0.288222	-0.077232
C74	C	0.633759	0.257912	-0.000004
C75	C	0.823831	0.633735	0.000003
C76	C	0.888343	0.633733	0.000005
C77	C	0.633753	0.633732	-0.279664
C78	C	0.633755	0.633730	-0.374579
C79	C	0.633748	0.823821	-0.000008
C80	C	0.633747	0.888333	-0.000010
C81	C	0.633740	0.633746	-0.548343
C82	C	0.633745	0.633739	-0.451646
C83	C	0.633744	0.633745	0.279660
C84	C	0.633742	0.633747	0.374575
C85	C	0.443666	0.823825	-0.000013
C86	C	0.379153	0.888339	-0.000017
C87	C	0.443662	0.633749	0.279655
C88	C	0.379148	0.633752	0.374568
C89	C	0.443661	0.823831	0.279649
C90	C	0.379147	0.888347	0.374560
C91	C	0.823836	0.443646	-0.279653
C92	C	0.888350	0.379130	-0.374564
C93	C	0.823831	0.443652	0.000009
C94	C	0.888344	0.379139	0.000013
C95	C	0.823835	0.633728	-0.279659
C96	C	0.888349	0.633725	-0.374572
C97	C	0.348858	0.881516	-0.054636
C98	C	0.288251	0.942128	-0.054661
C99	C	0.257934	1.009561	-0.000059
C100	C	0.288235	1.016382	0.054562
C101	C	0.348846	0.955771	0.054580
C102	C	0.348851	0.670873	0.473758
C103	C	0.288242	0.670873	0.562947
C104	C	0.257927	0.633757	0.552944
C105	C	0.288231	0.596632	0.453744
C106	C	0.348842	0.596628	0.364557
C107	C	0.348851	0.955767	0.364521
C108	C	0.288242	1.016392	0.453691
C109	C	0.257925	1.009596	0.552900
C110	C	0.288227	0.942169	0.562937
C111	C	0.348839	0.881545	0.473768
C112	C	0.918653	0.311711	-0.364524
C113	C	0.979281	0.251086	-0.453695
C114	C	1.009601	0.257882	-0.552904
C115	C	0.979295	0.325309	-0.562941
C116	C	0.918672	0.385932	-0.473772
C117	C	0.918645	0.385961	0.054623
C118	C	0.979269	0.325350	0.054623
C119	C	1.009588	0.257916	0.000018
C120	C	0.979284	0.251096	-0.054599
C121	C	0.918665	0.311706	-0.054604
C122	C	0.918644	0.670848	-0.364535
C123	C	0.979254	0.670859	-0.453708
C124	C	1.009571	0.633742	-0.552915
C125	C	0.979269	0.596617	-0.562949
C126	C	0.918657	0.596611	-0.473778
H127	H	0.003956	0.566387	0.099071
N128	N	0.381545	0.710900	0.484566
H129	H	0.424542	0.705271	0.413022
H130	H	0.335252	0.762810	0.524008
H131	H	0.263534	0.936646	0.643725
N132	N	0.011942	0.710894	-0.113500
H133	H	-0.034307	0.762821	-0.084849
H134	H	0.054951	0.705204	-0.105193
N135	N	0.633756	0.381510	0.160538
H136	H	0.684239	0.381418	0.126846
H137	H	0.583236	0.431885	0.201105
H138	H	-0.106007	0.566374	0.099071
N139	N	0.255519	1.089116	0.113468
H140	H	0.283901	1.084249	0.148081
H141	H	0.266065	1.115884	0.063326
H142	H	1.058964	0.208512	-0.625503
N143	N	1.012001	0.332633	-0.669948
H144	H	1.054999	0.283994	-0.724904
H145	H	0.965711	0.359430	-0.678220
N146	N	0.885970	0.304362	-0.257533
H147	H	0.896513	0.327861	-0.218097
H148	H	0.825133	0.327840	-0.218181
N149	N	0.633761	-0.114058	0.160509
H150	H	0.633764	-0.085661	0.209432
H151	H	0.583272	-0.113959	0.201014
N152	N	1.011958	0.332712	0.113519
H153	H	1.001426	0.309214	0.168471
H154	H	1.072793	0.309232	0.063350
H155	H	0.893964	0.440863	0.099096
N156	N	0.633759	0.011938	0.160513
H157	H	0.633764	-0.016460	0.209436
H158	H	0.684248	0.011839	0.126728
N159	N	0.633768	0.255518	0.160519
H160	H	0.633766	0.283916	0.209446
H161	H	0.583283	0.255611	0.201019
H162	H	0.633743	0.373520	-0.140109
N163	N	0.381553	0.963101	0.257520
H164	H	0.371002	0.939611	0.218083
H165	H	0.353149	1.015026	0.264787
H166	H	0.208571	1.058965	0.625499
N167	N	0.381502	0.808827	0.484598
H168	H	0.442350	0.782007	0.450040
H169	H	0.353035	0.813784	0.560997
N170	N	0.381502	0.556602	0.257577
H171	H	0.424498	0.562228	0.202585
H172	H	0.406603	0.504693	0.249318
H173	H	0.893997	0.566378	-0.481964
N174	N	1.011943	0.178369	-0.442851
H175	H	1.054950	0.140990	-0.514388
H176	H	1.037031	0.172759	-0.403395
H177	H	0.633746	0.263550	-0.140117
N178	N	0.381545	0.808791	-0.113530
H179	H	0.442394	0.781980	-0.168478
H180	H	0.370932	0.782050	-0.063369
N181	N	0.885988	0.458648	-0.484608
H182	H	0.914397	0.453748	-0.560989
H183	H	0.825141	0.485413	-0.450000
H184	H	1.058948	0.208569	0.000031
N185	N	0.255552	1.089109	0.442847
H186	H	0.212554	1.126488	0.514384
H187	H	0.301846	1.094720	0.403395
H188	H	0.208573	0.633766	0.625575
H189	H	0.263587	0.936560	-0.099140
N190	N	0.885943	0.710897	-0.257542
H191	H	0.842945	0.705268	-0.202564
H192	H	0.932232	0.691417	-0.249273
N193	N	0.255526	0.556607	0.442963
H194	H	0.212528	0.562251	0.514519
H195	H	0.230413	0.576103	0.403537
N196	N	0.381514	0.963139	0.113498
H197	H	0.442361	0.939648	0.063422
H198	H	0.353047	1.015070	0.148075
N199	N	0.192562	1.074931	-0.000084
H200	H	0.177974	1.060370	-0.042972
H201	H	0.142301	1.104084	0.073901
H202	H	1.003979	0.196183	-0.099057
H203	H	0.263540	0.701097	-0.099072
H204	H	0.893996	0.306142	-0.099072
N205	N	0.255563	0.710919	0.669933
H206	H	0.283961	0.734436	0.662728
H207	H	0.194713	0.748236	0.709315
H208	H	0.263565	0.566395	0.099074
N209	N	1.011926	0.710903	-0.442872
H210	H	0.983525	0.734408	-0.366492
H211	H	1.072776	0.676825	-0.477493
H212	H	0.373515	0.701087	-0.099087
N213	N	1.074938	0.633759	-0.649088
H214	H	1.089524	0.662912	-0.627667
H215	H	1.125202	0.583471	-0.691981
N216	N	1.011972	0.556585	-0.669954
H217	H	1.054969	0.562224	-0.724912
H218	H	1.037086	0.504675	-0.678220
H219	H	0.373535	0.566395	0.099064
N220	N	-0.114050	0.710889	-0.113501
H221	H	-0.174898	0.748241	-0.063419
H222	H	-0.085597	0.734359	-0.148092
N223	N	0.633746	0.011941	-0.160541
H224	H	0.583265	0.062336	-0.126849
H225	H	0.684268	0.011790	-0.201097
N226	N	0.633727	-0.114038	-0.160530
H227	H	0.633725	-0.085640	-0.209453
H228	H	0.684214	-0.164432	-0.201035
