data_functionalizedCrystal
_audit_creation_method	'MofGen! by Chris Wilmer'
_symmetry_space_group_name_H-M	'P1'
_symmetry_Int_Tables_number	1
_symmetry_cell_setting	triclinic
loop_
_symmetry_equiv_pos_as_xyz
  x,y,z
_cell_length_a	13.635800
_cell_length_b	17.982865
_cell_length_c	20.659037
_cell_angle_alpha	89.033677
_cell_angle_beta	121.789201
_cell_angle_gamma	77.549768
loop_
_atom_site_label
_atom_site_type_symbol
_atom_site_fract_x
_atom_site_fract_y
_atom_site_fract_z
V1	V	2.127182	-0.106136	0.237878
O2	O	2.121233	0.004358	0.233013
O3	O	2.099796	-0.209736	0.236575
O4	O	2.153694	-0.104829	0.341477
O5	O	2.066962	-0.101275	0.127385
V6	V	2.362838	-0.092881	0.224623
O7	O	2.271205	-0.135211	0.266954
O8	O	2.443914	-0.063805	0.195546
O9	O	2.278621	0.010719	0.225926
O10	O	2.427486	-0.203375	0.229487
O11	O	2.481757	-0.097742	0.335116
O12	O	2.224723	-0.094188	0.121024
V13	V	2.627182	-0.106136	0.237878
O14	O	2.621233	0.004358	0.233013
O15	O	2.599796	-0.209736	0.236575
O16	O	2.653694	-0.104829	0.341477
O17	O	2.566962	-0.101275	0.127385
V18	V	2.862838	-0.092881	0.224623
O19	O	2.771205	-0.135211	0.266954
O20	O	2.943914	-0.063805	0.195546
O21	O	2.778621	0.010719	0.225926
O22	O	2.927486	-0.203375	0.229487
O23	O	2.981757	-0.097742	0.335116
O24	O	2.724723	-0.094188	0.121024
C25	C	2.019880	-0.234981	0.232905
C26	C	2.038471	-0.319678	0.232530
C27	C	2.098507	-0.828456	0.160349
C28	C	2.081045	-0.748877	0.160711
C29	C	2.126322	-0.720186	0.230700
C30	C	2.189055	-0.771080	0.300329
C31	C	2.206509	-0.850658	0.299966
C32	C	2.118666	-0.450151	0.301798
C33	C	2.101209	-0.370567	0.302156
C34	C	1.993202	-0.348370	0.162543
C35	C	2.010656	-0.427948	0.162179
C36	C	2.073381	-0.478835	0.231809
C37	C	2.092313	-0.565124	0.231415
C38	C	2.107398	-0.633899	0.231095
C39	C	2.088632	-0.101161	0.366718
C40	C	2.150929	-0.100778	0.451413
C41	C	2.190206	0.035960	0.229593
C42	C	2.161238	0.120656	0.229973
C43	C	2.121454	-0.097859	0.095779
C44	C	2.048776	-0.098238	0.011083
C45	C	2.519880	-0.234981	0.232905
C46	C	2.538471	-0.319678	0.232530
C47	C	2.626234	-0.102228	0.975183
C48	C	2.567696	-0.102594	0.895603
C49	C	2.445558	-0.098961	0.851925
C50	C	2.381959	-0.094970	0.887830
C51	C	2.440500	-0.094610	0.967409
C52	C	2.145869	-0.096422	0.566898
C53	C	2.087331	-0.096780	0.487314
C54	C	2.273065	-0.104405	0.495092
C55	C	2.331605	-0.104045	0.574671
C56	C	2.268003	-0.100059	0.610571
C57	C	2.331480	-0.099664	0.696860
C58	C	2.382080	-0.099350	0.765636
C59	C	2.624937	-0.097858	1.095779
C60	C	2.562638	-0.098236	1.011083
C61	C	2.588632	-0.101161	0.366718
C62	C	2.650929	-0.100778	0.451413
C63	C	2.690206	0.035960	0.229593
C64	C	2.661238	0.120656	0.229973
C65	C	1.930143	-0.102224	-0.024807
C66	C	1.861836	-0.102571	-0.104388
C67	C	1.912167	-0.098938	-0.148078
C68	C	2.030811	-0.094949	-0.112183
C69	C	2.099113	-0.094596	-0.032604
C70	C	2.640041	-0.363349	0.236173
C71	C	2.657531	-0.442932	0.235832
C72	C	2.573446	-0.478843	0.231843
C73	C	2.471869	-0.435166	0.228203
C74	C	2.454384	-0.355585	0.228549
C75	C	2.773062	-0.104408	0.495082
C76	C	2.831607	-0.104038	0.574661
C77	C	2.768020	-0.100043	0.610570
C78	C	2.645875	-0.096410	0.566895
C79	C	2.587330	-0.096775	0.487317
C80	C	2.732162	0.164326	0.226333
C81	C	2.704946	0.243909	0.226677
C82	C	2.606809	0.279820	0.230668
C83	C	2.535877	0.236144	0.234306
C84	C	2.563090	0.156563	0.233956
H85	H	2.029968	-0.707446	0.104016
H86	H	2.061640	-0.851809	0.103356
H87	H	2.071776	-0.091988	-0.147768
H88	H	1.889140	-0.105183	0.010755
H89	H	2.282510	-0.092017	0.852261
C90	C	2.782988	0.291940	0.222684
C91	C	2.917176	0.273628	0.285998
C92	C	2.995221	0.321654	0.282006
C93	C	2.939078	0.387993	0.214700
C94	C	2.804884	0.406308	0.151381
C95	C	2.726839	0.358281	0.155373
H96	H	2.958742	0.224517	0.335827
H97	H	3.094560	0.308096	0.328880
H98	H	2.996852	0.423545	0.211745
H99	H	2.763318	0.455418	0.101552
H100	H	2.627499	0.371840	0.108499
H101	H	1.973790	-0.451303	0.105188
H102	H	2.740244	-0.478483	0.238795
H103	H	2.584664	0.344620	0.230952
H104	H	2.594115	-0.093158	0.596145
C105	C	2.187693	-0.506104	0.378400
C106	C	2.126156	-0.560158	0.393756
C107	C	2.195200	-0.616107	0.470368
C108	C	2.325781	-0.618002	0.531624
C109	C	2.387325	-0.563946	0.516269
C110	C	2.318281	-0.507997	0.439657
H111	H	2.029486	-0.558757	0.348410
H112	H	2.149640	-0.656123	0.481735
H113	H	2.376891	-0.659419	0.588337
H114	H	2.483995	-0.565348	0.561616
H115	H	2.363841	-0.467981	0.428291
H116	H	1.987869	-0.093813	0.451751
H117	H	2.371671	-0.320033	0.225579
H118	H	2.388709	-0.091359	0.996638
H119	H	2.195713	-0.091354	-0.003389
H120	H	2.138087	-0.347212	0.359152
C121	C	2.075915	-0.092032	0.606388
C122	C	2.113335	-0.157239	0.670598
C123	C	2.043384	-0.152849	0.710096
C124	C	1.936013	-0.083253	0.685384
C125	C	1.898588	-0.018042	0.621171
C126	C	1.968539	-0.022431	0.581673
H127	H	2.192822	-0.208762	0.688894
H128	H	2.071090	-0.201123	0.757630
H129	H	1.884232	-0.080004	0.714622
H130	H	1.819101	0.033482	0.602875
H131	H	1.940833	0.025843	0.534139
H132	H	2.455972	0.265395	0.237555
H133	H	1.942121	-0.306928	0.105848
H134	H	2.225912	-0.747714	0.357315
H135	H	2.257586	-0.892091	0.356661
H136	H	2.725685	-0.105184	1.010740
H137	H	2.619488	-0.105845	0.866377
H138	H	2.815706	-0.099748	0.675369
H139	H	2.431055	-0.107000	0.610230
H140	H	2.487881	-0.093820	0.451767
H141	H	1.765234	-0.105820	-0.133602
H142	H	2.324849	-0.107657	0.465855
H143	H	1.856543	-0.099235	-0.212874
H144	H	2.708516	-0.334120	0.239416
H145	H	2.403412	-0.464417	0.224955
H146	H	2.587697	-0.543644	0.231562
H147	H	2.824857	-0.107664	0.465856
H148	H	2.931064	-0.107000	0.610211
H149	H	2.812076	0.135099	0.223084
H150	H	2.505334	0.121011	0.236928
