data_functionalizedCrystal
_audit_creation_method	'MofGen! by Chris Wilmer'
_symmetry_space_group_name_H-M	'P1'
_symmetry_Int_Tables_number	1
_symmetry_cell_setting	triclinic
loop_
_symmetry_equiv_pos_as_xyz
  x,y,z
_cell_length_a	16.625548
_cell_length_b	12.759394
_cell_length_c	12.759387
_cell_angle_alpha	90.032817
_cell_angle_beta	89.978816
_cell_angle_gamma	89.984095
loop_
_atom_site_label
_atom_site_type_symbol
_atom_site_fract_x
_atom_site_fract_y
_atom_site_fract_z
Zn1	Zn	1.232728	0.418169	-0.594065
Zn2	Zn	1.232648	0.593890	-0.418383
Zn3	Zn	1.097888	0.418229	-0.418395
Zn4	Zn	1.097878	0.593810	-0.594015
O5	O	1.165286	0.506024	-0.506214
O6	O	1.345550	0.441487	-0.570777
O7	O	1.214742	0.570646	-0.271363
O8	O	1.115813	0.271200	-0.441724
O9	O	1.345491	0.570588	-0.441704
O10	O	1.214879	0.271156	-0.570788
O11	O	1.115735	0.441589	-0.271372
O12	O	0.985055	0.441511	-0.441675
O13	O	1.115796	0.570453	-0.741043
O14	O	0.985047	0.570510	-0.570702
O15	O	1.214869	0.441410	-0.741080
O16	O	1.214733	0.740900	-0.441655
O17	O	1.115718	0.740842	-0.570691
C18	C	1.165237	0.778992	-0.506189
C19	C	1.165290	0.895769	-0.506213
C20	C	0.955795	0.506009	-0.506185
C21	C	0.866174	0.506028	-0.506197
C22	C	1.165340	0.505916	-0.780248
C23	C	1.165364	0.505870	-0.897025
C24	C	0.537998	0.506035	-0.506242
C25	C	0.629307	0.506030	-0.506227
C26	C	0.702083	0.506032	-0.506219
C27	C	0.793397	0.506026	-0.506205
C28	C	1.375595	0.506040	-0.506245
C29	C	1.465216	0.506047	-0.506257
C30	C	1.165356	0.231991	-0.506263
C31	C	1.165386	0.115214	-0.506284
C32	C	1.268472	0.895776	-0.371949
C33	C	1.320083	0.950641	-0.304829
C34	C	1.320131	1.060362	-0.304858
C35	C	1.268562	1.115222	-0.372015
C36	C	1.216951	1.060357	-0.439135
C37	C	1.216907	0.950633	-0.439097
C38	C	1.113775	1.060350	-0.573403
C39	C	1.113722	0.950628	-0.573371
C40	C	1.062206	1.115209	-0.640561
C41	C	1.010590	1.060344	-0.707677
C42	C	1.010544	0.950616	-0.707645
C43	C	1.062110	0.895763	-0.640491
C44	C	1.062274	0.371473	-0.897053
C45	C	1.010744	0.304254	-0.951928
C46	C	1.010769	0.304216	-1.061649
C47	C	1.062326	0.371407	-1.116499
C48	C	1.113856	0.438626	-1.061624
C49	C	1.113828	0.438654	-0.951900
C50	C	1.216940	0.573026	-1.061596
C51	C	1.216922	0.573060	-0.951874
C52	C	1.268498	0.640217	-1.116445
C53	C	1.320034	0.707432	-1.061571
C54	C	1.320008	0.707467	-0.951842
C55	C	1.268452	0.640279	-0.897000
C56	C	1.165278	0.506057	-0.233247
C57	C	1.165411	0.505807	-0.116471
H58	H	1.268428	0.806435	-0.371905
C59	C	0.954032	0.230347	-0.891593
C60	C	0.954000	0.230380	-0.770903
C61	C	0.897285	0.156477	-0.710573
C62	C	0.840601	0.082542	-0.770933
C63	C	0.840631	0.082507	-0.891630
C64	C	0.897346	0.156409	-0.951960
H65	H	0.995962	0.285113	-0.726215
H66	H	0.897263	0.156503	-0.621225
H67	H	0.798618	0.027835	-0.726273
H68	H	0.798669	0.027773	-0.936318
H69	H	0.897367	0.156383	-1.041308
C70	C	1.376741	0.781335	-1.121904
C71	C	1.376764	0.781303	-1.242594
C72	C	1.433473	0.855206	-1.302932
C73	C	1.490161	0.929142	-1.242579
C74	C	1.490141	0.929178	-1.121882
C75	C	1.433431	0.855274	-1.061545
H76	H	1.334798	0.726568	-1.287276
H77	H	1.433488	0.855179	-1.392280
H78	H	1.532141	0.983850	-1.287245
H79	H	1.532106	0.983912	-1.077200
H80	H	1.433416	0.855301	-0.972197
C81	C	1.376902	1.120721	-0.231027
C82	C	1.342018	1.196263	-0.148533
C83	C	1.398788	1.256624	-0.074704
C84	C	1.490442	1.241442	-0.083368
C85	C	1.525330	1.165896	-0.165866
C86	C	1.468560	1.105536	-0.239695
H87	H	1.274166	1.207505	-0.142116
H88	H	1.372961	1.312547	-0.013634
H89	H	1.532467	1.286124	-0.028715
H90	H	1.593182	1.154655	-0.172283
H91	H	1.494387	1.049612	-0.300766
H92	H	1.062073	0.806422	-0.640452
H93	H	0.968807	0.249481	-1.106328
H94	H	1.361973	0.762202	-0.907170
H95	H	1.062256	0.371489	-0.807712
H96	H	1.268510	0.640186	-1.205787
H97	H	1.268428	0.640298	-0.807658
H98	H	1.362071	0.905965	-0.250151
C99	C	0.953768	0.890269	-0.781479
C100	C	0.897050	0.950616	-0.855343
C101	C	0.840273	0.890273	-0.929178
C102	C	0.840215	0.769583	-0.929150
C103	C	0.896935	0.709229	-0.855283
C104	C	0.953712	0.769572	-0.781448
H105	H	0.897092	1.039964	-0.855367
H106	H	0.798285	0.934952	-0.983859
H107	H	0.798185	0.724914	-0.983807
H108	H	0.896893	0.619881	-0.855260
H109	H	0.995700	0.724893	-0.726767
H110	H	1.268612	1.204563	-0.372042
H111	H	1.062334	0.371379	-1.205840
H112	H	1.062252	1.204550	-0.640584
H113	H	0.968611	1.105020	-0.762357
