data_functionalizedCrystal
_audit_creation_method	'MofGen! by Chris Wilmer'
_symmetry_space_group_name_H-M	'P1'
_symmetry_Int_Tables_number	1
_symmetry_cell_setting	triclinic
loop_
_symmetry_equiv_pos_as_xyz
  x,y,z
_cell_length_a	10.686220
_cell_length_b	13.032721
_cell_length_c	10.685986
_cell_angle_alpha	92.237678
_cell_angle_beta	99.031303
_cell_angle_gamma	100.973619
loop_
_atom_site_label
_atom_site_type_symbol
_atom_site_fract_x
_atom_site_fract_y
_atom_site_fract_z
Zn1	Zn	1.842335	-0.259867	-0.612164
Zn2	Zn	2.342335	0.240133	-0.112164
Zn3	Zn	1.827348	-0.447119	-0.431010
Zn4	Zn	2.327348	0.052881	0.068990
Zn5	Zn	1.642183	-0.284848	-0.420340
Zn6	Zn	2.142183	0.215152	0.079660
Zn7	Zn	1.598957	-0.447044	-0.659442
Zn8	Zn	2.098957	0.052956	-0.159442
O9	O	1.727706	-0.359719	-0.530739
O10	O	2.227706	0.140281	-0.030739
O11	O	2.019693	-0.274284	-0.572812
O12	O	2.519693	0.225716	-0.072812
O13	O	1.814604	-0.436078	-0.253716
O14	O	2.314604	0.063922	0.246284
O15	O	1.693096	-0.135289	-0.421535
O16	O	2.193096	0.364711	0.078465
O17	O	2.008682	-0.411856	-0.439719
O18	O	2.508682	0.088144	0.060281
O19	O	1.840147	-0.116936	-0.562467
O20	O	2.340147	0.383064	-0.062467
O21	O	1.678564	-0.316859	-0.245877
O22	O	2.178564	0.183141	0.254123
O23	O	1.457103	-0.316787	-0.467378
O24	O	1.957103	0.183213	0.032622
O25	O	1.619424	-0.411730	-0.829048
O26	O	2.119424	0.088270	-0.329048
O27	O	1.425345	-0.435952	-0.643045
O28	O	1.925345	0.064048	-0.143045
O29	O	1.798232	-0.274212	-0.794313
O30	O	2.298232	0.225788	-0.294313
O31	O	1.772689	-0.593354	-0.485563
O32	O	2.272689	-0.093354	0.014437
O33	O	1.604892	-0.593299	-0.653391
O34	O	2.104892	-0.093299	-0.153391
C35	C	1.394721	-0.379072	-0.559185
C36	C	1.894721	0.120928	-0.059185
C37	C	1.252263	-0.387375	-0.571388
C38	C	1.752263	0.112625	-0.071388
C39	C	1.682506	-0.631243	-0.575789
C40	C	2.182506	-0.131243	-0.075789
C41	C	1.663284	-0.747392	-0.595094
C42	C	2.163284	-0.247392	-0.095094
C43	C	1.737802	-0.799160	-0.520714
C44	C	2.237802	-0.299160	-0.020714
C45	C	1.717937	-0.919207	-0.540665
C46	C	2.217937	-0.419207	-0.040665
C47	C	2.061991	-0.340292	-0.502182
C48	C	2.561991	0.159708	-0.002182
C49	C	2.204443	-0.332013	-0.490013
C50	C	2.704443	0.167987	0.009987
C51	C	1.705678	-0.340176	-0.858559
C52	C	2.205678	0.159824	-0.358559
C53	C	1.696291	-0.331847	-0.998257
C54	C	2.196291	0.168153	-0.498257
C55	C	1.773115	-0.087132	-0.485537
C56	C	2.273115	0.412868	0.014463
C57	C	1.792466	0.029028	-0.466274
C58	C	2.292466	0.529028	0.033726
C59	C	1.749734	-0.379107	-0.204175
C60	C	2.249734	0.120893	0.295825
C61	C	1.759418	-0.387127	-0.064408
C62	C	2.259418	0.112873	0.435592
H63	H	1.816312	-0.754609	-0.442268
H64	H	2.316312	-0.254609	0.057732
H65	H	1.272487	-0.278264	-0.411008
H66	H	1.772487	0.221736	0.088992
H67	H	1.184211	-0.441135	-0.650392
H68	H	1.684211	0.058865	-0.150392
C69	C	1.611871	-0.979387	-0.646653
C70	C	2.111871	-0.479387	-0.146653
N71	N	1.531981	-1.024717	-0.726480
N72	N	2.031981	-0.524717	-0.226480
C73	C	1.898531	-0.910794	-0.360283
C74	C	2.398531	-0.410794	0.139717
N75	N	1.978416	-0.865467	-0.280450
N76	N	2.478416	-0.365467	0.219550
C77	C	1.613575	-0.259307	-1.066125
C78	C	2.113575	0.240693	-0.566125
N79	N	1.551270	-0.204669	-1.117252
N80	N	2.051270	0.295331	-0.617252
H81	H	1.584785	-0.791945	-0.673548
H82	H	2.084785	-0.291945	-0.173548
H83	H	1.820655	-0.440820	-1.014162
H84	H	2.320655	0.059180	-0.514162
