data_functionalizedCrystal
_audit_creation_method	'MofGen! by Chris Wilmer'
_symmetry_space_group_name_H-M	'P1'
_symmetry_Int_Tables_number	1
_symmetry_cell_setting	triclinic
loop_
_symmetry_equiv_pos_as_xyz
  x,y,z
_cell_length_a	12.970454
_cell_length_b	21.606444
_cell_length_c	12.970454
_cell_angle_alpha	89.998909
_cell_angle_beta	60.000396
_cell_angle_gamma	60.000971
loop_
_atom_site_label
_atom_site_type_symbol
_atom_site_fract_x
_atom_site_fract_y
_atom_site_fract_z
Zr1	Zr	1.128553	0.596224	-0.135326
O2	O	1.343634	0.497403	-0.299942
O3	O	0.913467	0.626518	-0.084863
O4	O	1.128555	0.626519	-0.299951
O5	O	1.128547	0.497401	0.084813
O6	O	1.128562	0.728369	-0.299957
O7	O	1.128547	0.497401	-0.084854
O8	O	0.743809	0.728367	0.084796
O9	O	1.513300	0.497403	-0.299940
O10	O	1.001942	0.715447	-0.063345
O11	O	1.001938	0.639438	0.063280
O12	O	1.255176	0.639439	-0.189958
O13	O	1.255171	0.563429	-0.063333
Zr14	Zr	1.128566	0.758662	0.135263
Zr15	Zr	1.128565	0.758663	-0.135335
Zr16	Zr	1.128555	0.596223	0.135273
Zr17	Zr	1.399151	0.596225	-0.135323
Zr18	Zr	0.857969	0.758661	0.135261
O19	O	1.343653	0.728368	0.084801
O20	O	1.343651	0.728369	-0.299956
O21	O	1.343636	0.497401	0.084815
O22	O	0.913485	0.857483	0.299879
O23	O	0.913483	0.857485	-0.084877
O24	O	0.913469	0.626516	0.299893
O25	O	1.128572	0.857485	-0.084875
O26	O	1.128565	0.728366	0.299889
O27	O	1.128558	0.626517	0.299895
O28	O	1.128573	0.857484	0.084791
O29	O	1.513310	0.626520	-0.299948
O30	O	0.743810	0.728366	0.299885
O31	O	0.743819	0.857483	0.299878
O32	O	0.743818	0.857484	0.084788
O33	O	1.513301	0.497402	-0.084850
O34	O	1.513311	0.626519	-0.084858
O35	O	1.001944	0.715446	0.189896
O36	O	1.001949	0.791456	0.063271
O37	O	1.255182	0.715448	-0.063343
O38	O	1.255177	0.639438	0.063282
C39	C	0.790083	0.677442	-0.000034
C40	C	0.675208	0.677442	-0.000035
C41	C	1.128545	0.474257	-0.000019
C42	C	1.128540	0.405298	-0.000015
C43	C	0.996356	0.412574	0.066072
C44	C	0.996360	0.347776	0.066073
C45	C	1.128550	0.275704	-0.000021
C46	C	1.260744	0.268429	-0.066109
C47	C	1.260739	0.333225	-0.066102
C48	C	1.260770	0.007111	-0.066137
C49	C	1.260765	-0.057687	-0.066142
C50	C	0.996391	0.021662	0.066038
C51	C	0.996385	0.086458	0.066045
C52	C	1.128579	0.079178	-0.000038
C53	C	1.128573	0.149439	-0.000036
C54	C	1.128557	0.205443	-0.000030
C55	C	1.467036	0.677444	-0.000028
C56	C	1.581912	0.677444	-0.000027
C57	C	1.128558	0.677444	-0.338509
C58	C	1.128557	0.677445	-0.453385
C59	C	1.128574	0.880629	-0.000044
C60	C	1.128579	0.949588	-0.000048
C61	C	1.128562	0.677441	0.338446
C62	C	1.128562	0.677441	0.453322
C63	C	0.790098	0.880628	-0.000046
C64	C	0.675227	0.949587	-0.000052
C65	C	0.790085	0.677441	0.338443
C66	C	0.675210	0.677440	0.453319
C67	C	0.790100	0.880627	0.338431
C68	C	0.675230	0.949585	0.453302
C69	C	1.467020	0.474259	-0.338494
C70	C	1.581890	0.405300	-0.453365
C71	C	1.467022	0.474258	-0.000016
C72	C	1.581892	0.405299	-0.000011
C73	C	1.467034	0.677445	-0.338506
C74	C	1.581910	0.677446	-0.453381
C75	C	0.621279	0.942295	-0.066157
C76	C	0.513361	1.007084	-0.066187
C77	C	0.459385	1.079163	-0.000104
C78	C	0.513343	1.086453	0.066004
C79	C	0.621267	1.021666	0.066026
C80	C	0.621288	1.021652	0.441150
C81	C	0.513370	1.086452	0.549073
C82	C	0.459389	1.079184	0.669147
C83	C	0.513341	1.007110	0.681297
C84	C	0.621264	0.942311	0.573375
C85	C	1.635845	0.333233	-0.441212
C86	C	1.743796	0.268433	-0.549136
C87	C	1.797783	0.275702	-0.669210
C88	C	1.743824	0.347776	-0.681360
C89	C	1.635882	0.412575	-0.573438
C90	C	1.635852	0.412590	0.066084
C91	C	1.743800	0.347802	0.066084
C92	C	1.797780	0.275723	-0.000004
C93	C	1.743816	0.268432	-0.066106
C94	C	1.635877	0.333220	-0.066113
H95	H	0.888722	0.353708	0.119889
H96	H	1.368377	0.327296	-0.119901
O97	O	0.673668	0.872347	0.585351
C98	C	0.795544	0.784692	0.665301
C99	C	0.736240	0.863952	0.651841
H100	H	0.846176	0.777874	0.719034
H101	H	0.702562	0.777867	0.719201
H102	H	0.881896	0.739633	0.567537
H103	H	0.649912	0.909059	0.749552
H104	H	0.829302	0.870713	0.597878
H105	H	1.787719	0.353753	0.119917
H106	H	0.469374	1.001203	0.779076
H107	H	0.371511	1.131953	0.757014
O108	O	1.583730	0.482535	-0.585426
C109	C	1.639582	0.570174	-0.665400
C110	C	1.698823	0.490920	-0.651917
H111	H	1.732599	0.576984	-0.719134
H112	H	1.589141	0.576996	-0.719309
H113	H	1.553109	0.615241	-0.567643
H114	H	1.785345	0.445805	-0.749621
H115	H	1.749171	0.484163	-0.597945
O116	O	1.583201	0.482621	0.130444
C117	C	1.372508	0.601847	0.295941
C118	C	1.431932	0.522558	0.223179
H119	H	1.250195	0.634165	0.370916
H120	H	1.429520	0.595966	0.343267
H121	H	1.393813	0.634131	0.227434
H122	H	1.410640	0.490231	0.291603
H123	H	1.374918	0.528494	0.175835
H124	H	0.665226	0.883611	-0.119986
H125	H	0.665178	1.027614	0.119865
O126	O	1.796367	0.198356	-0.130183
C127	C	1.962713	0.063375	-0.188776
C128	C	1.903310	0.142692	-0.116143
H129	H	2.049209	0.018349	-0.177472
H130	H	1.869796	0.056488	-0.149593
H131	H	2.013182	0.056570	-0.293121
H132	H	1.852858	0.149550	-0.011789
H133	H	1.996279	0.149542	-0.155429
O134	O	1.389144	-0.127719	-0.130506
C135	C	1.542542	-0.246943	-0.296007
C136	C	1.397130	-0.167652	-0.223242
H137	H	1.549033	-0.279257	-0.370983
H138	H	1.637085	-0.241064	-0.343331
H139	H	1.549116	-0.279228	-0.227502
H140	H	1.390414	-0.135323	-0.291664
H141	H	1.302656	-0.173585	-0.175899
H142	H	0.469441	1.001133	-0.120020
O143	O	1.583569	0.325996	-0.130328
C144	C	1.595048	0.240417	-0.261482
C145	C	1.654383	0.248497	-0.188783
H146	H	1.652298	0.177763	-0.308784
H147	H	1.472770	0.268711	-0.193057
H148	H	1.616218	0.268805	-0.336503
H149	H	1.633318	0.220105	-0.113762
H150	H	1.776643	0.220224	-0.257287
O151	O	1.389046	0.000170	-0.130216
C152	C	1.506230	0.064816	-0.188838
C153	C	1.360846	0.072784	-0.116193
H154	H	1.483480	0.123516	-0.177548
H155	H	1.571427	0.032547	-0.149654
H156	H	1.571425	0.032477	-0.293179
H157	H	1.295533	0.105139	-0.011842
H158	H	1.295760	0.105024	-0.155480
H159	H	0.371505	1.131911	-0.000131
H160	H	0.469380	1.145149	0.119807
H161	H	1.885670	0.222975	0.000012
H162	H	0.665224	1.027585	0.343389
H163	H	0.888712	0.471256	0.119898
H164	H	0.469453	1.145133	0.539158
H165	H	1.368376	0.209741	-0.119916
O166	O	1.796418	0.198410	-0.537381
C167	C	2.007085	0.079191	-0.582509
C168	C	1.947684	0.158471	-0.595890
H169	H	2.129395	0.046871	-0.629827
H170	H	1.950049	0.085089	-0.478166
H171	H	1.985788	0.046900	-0.629705
H172	H	1.968967	0.190806	-0.548764
H173	H	2.004721	0.152519	-0.700254
O174	O	0.867846	0.156412	0.130359
C175	C	0.605613	0.228278	0.261415
C176	C	0.751080	0.149011	0.188650
H177	H	0.511170	0.222322	0.308540
H178	H	0.598906	0.260607	0.336551
H179	H	0.599080	0.260595	0.192939
H180	H	0.757711	0.116632	0.257029
H181	H	0.757726	0.116741	0.113497
H182	H	1.591895	0.327301	-0.343452
H183	H	1.885676	0.222932	-0.757077
O184	O	1.796381	0.354695	-0.798098
C185	C	1.962735	0.290012	-1.022952
C186	C	1.903325	0.282071	-0.890821
H187	H	2.049231	0.231304	-1.097954
H188	H	1.869822	0.322266	-1.034427
H189	H	2.013204	0.322355	-1.034288
H190	H	1.852873	0.249712	-0.879394
H191	H	1.996291	0.249846	-0.879406
H192	H	0.888753	0.027583	0.119848
