data_functionalizedCrystal
_audit_creation_method	'MofGen! by Chris Wilmer'
_symmetry_space_group_name_H-M	'P1'
_symmetry_Int_Tables_number	1
_symmetry_cell_setting	triclinic
loop_
_symmetry_equiv_pos_as_xyz
  x,y,z
_cell_length_a	27.440280
_cell_length_b	16.704486
_cell_length_c	16.704493
_cell_angle_alpha	60.347015
_cell_angle_beta	94.158380
_cell_angle_gamma	57.651803
loop_
_atom_site_label
_atom_site_type_symbol
_atom_site_fract_x
_atom_site_fract_y
_atom_site_fract_z
Zr1	Zr	0.419918	0.947479	-0.174338
O2	O	0.327872	1.128095	-0.315646
O3	O	0.454073	0.766874	-0.121902
O4	O	0.438109	0.947477	-0.302503
O5	O	0.349675	0.947489	-0.002955
O6	O	0.518311	0.947464	-0.302507
O7	O	0.343836	0.947491	-0.135045
O8	O	0.546868	0.624396	0.020555
O9	O	0.321118	1.270556	-0.326017
O10	O	0.521320	0.841145	-0.110557
O11	O	0.465823	0.841153	-0.011977
O12	O	0.447028	1.053790	-0.224611
O13	O	0.391531	1.053799	-0.126031
Zr14	Zr	0.557144	0.947452	0.036324
Zr15	Zr	0.547832	0.947457	-0.174344
Zr16	Zr	0.429230	0.947474	0.036330
Zr17	Zr	0.409146	1.174687	-0.190878
Zr18	Zr	0.567916	0.720244	0.052865
O19	O	0.522989	1.128057	-0.016111
O20	O	0.509749	1.128064	-0.315654
O21	O	0.341113	1.128089	-0.016103
O22	O	0.649190	0.766836	0.177632
O23	O	0.635950	0.766842	-0.121911
O24	O	0.467314	0.766867	0.177640
O25	O	0.627387	0.947442	-0.135058
O26	O	0.538954	0.947453	0.164489
O27	O	0.458751	0.947467	0.164493
O28	O	0.633226	0.947439	-0.002969
O29	O	0.422792	1.270538	-0.326021
O30	O	0.554270	0.624393	0.188008
O31	O	0.655945	0.624375	0.188003
O32	O	0.648543	0.624379	0.020550
O33	O	0.328520	1.270552	-0.158564
O34	O	0.430194	1.270534	-0.158568
O35	O	0.530035	0.841140	0.086597
O36	O	0.585532	0.841132	-0.011983
O37	O	0.511239	1.053778	-0.126037
O38	O	0.455742	1.053786	-0.027457
C39	C	0.502006	0.663263	-0.048317
C40	C	0.506579	0.566807	-0.041295
C41	C	0.412922	0.542561	-0.185094
C42	C	0.417216	0.451937	-0.178502
C43	C	0.519462	0.294935	-0.021524
C44	C	0.515168	0.385559	-0.028116
C45	C	0.461896	0.509371	-0.109903
C46	C	0.457600	0.599996	-0.116490
C47	C	0.559849	0.442993	0.040483
C48	C	0.564142	0.352369	0.047075
C49	C	0.328531	0.947493	-0.068999
C50	C	0.274228	0.947503	-0.068997
C51	C	-0.065684	0.947440	-0.141776
C52	C	-0.116701	0.947431	-0.141776
O53	O	-0.145809	0.947387	-0.203639
N54	N	-0.139003	0.947432	-0.069008
C55	C	-0.110279	0.947429	0.003772
O56	O	-0.133933	0.947427	0.065667
C57	C	-0.059260	0.947429	0.003775
C58	C	-0.036966	0.947440	-0.069004
C59	C	-0.043389	0.947450	-0.214549
C60	C	0.007625	0.947461	-0.214550
C61	C	0.036343	0.947462	-0.141778
C62	C	0.014048	0.947451	-0.069005
C63	C	-0.030534	0.947417	0.076559
C64	C	0.020489	0.947416	0.076557
C65	C	0.042783	0.947428	0.003777
C66	C	0.093779	0.947463	0.003766
N67	N	0.116081	0.947462	-0.069002
C68	C	0.087362	0.947462	-0.141774
C69	C	-0.217424	0.947427	0.003759
C70	C	-0.268445	0.947435	0.003752
C71	C	-0.274863	0.947435	-0.141795
C72	C	-0.223843	0.947435	-0.141791
C73	C	-0.195122	0.947426	-0.069009
C74	C	0.194494	0.947486	-0.141771
C75	C	0.245510	0.947502	-0.141769
C76	C	0.251925	0.947495	0.003781
C77	C	0.200911	0.947486	0.003775
C78	C	0.172198	0.947477	-0.069005
O79	O	0.122919	0.947502	0.065601
O80	O	0.111028	0.947447	-0.203650
C81	C	0.648532	0.947438	-0.069014
C82	C	0.702834	0.947428	-0.069017
C83	C	0.476883	0.947471	-0.332520
C84	C	0.472930	0.947473	-0.421954
C85	C	0.475057	1.231668	-0.089697
C86	C	0.470484	1.328124	-0.096719
C87	C	0.553889	0.947439	-0.590004
C88	C	0.550177	0.947441	-0.674035
C89	C	0.461798	0.947469	-0.674045
C90	C	0.465510	0.947468	-0.590014
C91	C	0.511556	0.947454	-0.547997
C92	C	0.515265	0.947461	-0.463969
C93	C	0.426889	0.947481	-0.463976
C94	C	0.423177	0.947483	-0.548007
C95	C	0.500179	0.947460	0.194507
C96	C	0.504132	0.947458	0.283941
C97	C	0.662006	0.663235	-0.048325
C98	C	0.720882	0.566770	-0.041305
C99	C	0.513653	0.663257	0.215196
C100	C	0.522180	0.566799	0.311652
C101	C	0.673654	0.663229	0.215189
C102	C	0.736483	0.566762	0.311642
C103	C	0.303409	1.231701	-0.353203
C104	C	0.240580	1.328169	-0.449656
C105	C	0.315056	1.231696	-0.089689
C106	C	0.256181	1.328161	-0.096708
C107	C	0.463409	1.231674	-0.353210
C108	C	0.454883	1.328132	-0.449666
C109	C	0.715012	0.521475	-0.089473
C110	C	0.770326	0.430849	-0.082898
C111	C	0.831509	0.385512	-0.028149
C112	C	0.837377	0.430815	0.020019
C113	C	0.782063	0.521447	0.013438
C114	C	0.559702	0.521495	0.408413
C115	C	0.567711	0.430876	0.499050
C116	C	0.538201	0.385556	0.492926
C117	C	0.500674	0.430869	0.396155
C118	C	0.492662	0.521493	0.305519
C119	C	0.794962	0.521456	0.305480
C120	C	0.854001	0.430827	0.396099
C121	C	0.854559	0.385501	0.492880
C122	C	0.796073	0.430816	0.499040
C123	C	0.737036	0.521449	0.408421
C124	C	0.182100	1.373486	-0.443495
C125	C	0.123060	1.464143	-0.534116
C126	C	0.122502	1.509474	-0.630897
C127	C	0.180988	1.464153	-0.637056
C128	C	0.240026	1.373504	-0.546436
C129	C	0.262049	1.373465	-0.048551
C130	C	0.206733	1.464117	-0.055151
C131	C	0.145550	1.509457	-0.109902
C132	C	0.139682	1.464149	-0.158066
C133	C	0.194997	1.373505	-0.151472
C134	C	0.484402	1.373423	-0.443508
C135	C	0.476403	1.464043	-0.534130
C136	C	0.438881	1.509377	-0.630909
C137	C	0.409362	1.464076	-0.637064
C138	C	0.417365	1.373451	-0.546443
H139	H	0.607517	0.251552	0.113661
H140	H	0.182542	1.336582	-0.364699
H141	H	0.074425	1.583286	-0.704677
H142	H	0.786852	0.558314	0.052668
H143	H	-0.298254	0.947433	-0.201048
H144	H	0.901616	0.393941	0.391066
H145	H	0.424312	0.947468	-0.708259
H146	H	0.902635	0.311701	0.566660
H147	H	0.392417	0.947499	-0.429767
H148	H	0.599725	0.415974	0.101713
H149	H	0.263659	0.947515	-0.201038
H150	H	0.432370	1.583169	-0.704690
H151	H	0.462110	0.558367	0.226737
H152	H	0.887200	0.393889	0.064594
H153	H	0.552756	0.947455	-0.429762
H154	H	0.665198	0.558388	-0.134067
H155	H	0.765536	0.393974	-0.122123
H156	H	-0.194044	0.947429	0.063025
H157	H	0.591377	0.947440	-0.555800
H158	H	0.369536	0.643373	-0.251673
H159	H	0.583734	0.558385	0.413419
H160	H	0.584649	0.947426	-0.708234
H161	H	0.876544	0.311713	-0.022797
H162	H	-0.286600	0.947445	0.063005
H163	H	0.311863	1.336556	-0.003960
H164	H	0.689422	0.558326	0.413453
H165	H	0.378811	1.501001	-0.715874
H166	H	0.089860	1.501079	-0.202645
H167	H	0.393323	1.336585	-0.551472
H168	H	0.500442	1.500917	-0.529098
H169	H	0.796537	0.393897	0.577851
H170	H	0.075445	1.501028	-0.529081
H171	H	0.414218	0.700807	-0.183077
H172	H	0.211524	1.500991	-0.015925
H173	H	0.190210	1.336621	-0.190686
H174	H	0.562840	0.194116	0.045053
H175	H	0.476649	0.393956	0.391184
H176	H	0.171121	0.947476	-0.201034
H177	H	0.043873	0.947404	0.135828
H178	H	0.377337	0.478971	-0.239732
H179	H	0.025775	0.947466	-0.273810
H180	H	0.100514	1.583265	-0.115264
H181	H	0.180525	1.501074	-0.715866
H182	H	0.287641	1.336608	-0.551465
H183	H	-0.048679	0.947406	0.135823
H184	H	0.514955	1.336526	-0.364714
H185	H	-0.066766	0.947445	-0.273808
H186	H	-0.205694	0.947444	-0.201053
H187	H	0.182753	0.947494	0.063029
H188	H	0.275314	0.947501	0.063028
H189	H	0.598270	0.393992	0.577836
H190	H	0.385689	0.947489	-0.582224
H191	H	0.544730	0.311764	0.566736
H192	H	0.794520	0.558348	0.226685
