data_functionalizedCrystal
_audit_creation_method	'MofGen! by Chris Wilmer'
_symmetry_space_group_name_H-M	'P1'
_symmetry_Int_Tables_number	1
_symmetry_cell_setting	triclinic
loop_
_symmetry_equiv_pos_as_xyz
  x,y,z
_cell_length_a	25.639233
_cell_length_b	11.169417
_cell_length_c	11.169416
_cell_angle_alpha	89.991438
_cell_angle_beta	89.989665
_cell_angle_gamma	90.011875
loop_
_atom_site_label
_atom_site_type_symbol
_atom_site_fract_x
_atom_site_fract_y
_atom_site_fract_z
Zn1	Zn	-0.295629	-1.834847	-0.478010
Zn2	Zn	-0.208206	-1.834770	-0.678679
Zn3	Zn	-0.208209	-1.634167	-0.478002
Zn4	Zn	-0.295612	-1.634140	-0.678644
O5	O	-0.251914	-1.734481	-0.578334
O6	O	-0.284039	-2.002786	-0.504647
O7	O	-0.135042	-1.808139	-0.652070
O8	O	-0.219814	-1.660830	-0.310053
O9	O	-0.219809	-2.002730	-0.652078
O10	O	-0.284041	-1.808269	-0.310059
O11	O	-0.135044	-1.660756	-0.504634
O12	O	-0.219797	-1.466213	-0.504600
O13	O	-0.368780	-1.660785	-0.652018
O14	O	-0.284012	-1.466194	-0.652010
O15	O	-0.368792	-1.808243	-0.504613
O16	O	-0.219793	-1.808113	-0.846624
O17	O	-0.284009	-1.660711	-0.846598
C18	C	-0.251903	-1.422656	-0.578301
C19	C	-0.251911	-1.289256	-0.578316
C20	C	-0.388287	-1.734520	-0.578313
C21	C	-0.446401	-1.734536	-0.578304
C22	C	-0.806777	-1.811415	-0.501322
C23	C	-0.861381	-1.811430	-0.501289
O24	O	-0.889628	-1.876698	-0.435978
N25	N	-0.888684	-1.734668	-0.578022
C26	C	-0.861380	-1.657878	-0.654785
O27	O	-0.889617	-1.592587	-0.720049
C28	C	-0.806776	-1.657858	-0.654811
C29	C	-0.779476	-1.734633	-0.578082
C30	C	-0.779477	-1.888183	-0.424597
C31	C	-0.724876	-1.888169	-0.424633
C32	C	-0.697576	-1.811388	-0.501392
C33	C	-0.724876	-1.734620	-0.578117
C34	C	-0.779473	-1.581063	-0.731568
C35	C	-0.724866	-1.581049	-0.731587
C36	C	-0.697566	-1.657824	-0.654857
C37	C	-0.642975	-1.657825	-0.654911
N38	N	-0.615672	-1.734586	-0.578178
C39	C	-0.642972	-1.811368	-0.501418
C40	C	-0.976050	-1.657925	-0.654723
C41	C	-1.030653	-1.657950	-0.654704
C42	C	-1.030650	-1.811500	-0.501205
C43	C	-0.976047	-1.811480	-0.501231
C44	C	-0.948748	-1.734686	-0.577989
C45	C	-0.528307	-1.811334	-0.501499
C46	C	-0.473702	-1.811317	-0.501544
C47	C	-0.473709	-1.657763	-0.655037
C48	C	-0.528310	-1.657784	-0.654997
C49	C	-0.555607	-1.734574	-0.578218
O50	O	-0.614693	-1.592587	-0.720186
O51	O	-0.614728	-1.876637	-0.436154
C52	C	-0.116072	-1.734511	-0.578268
C53	C	-0.057958	-1.734727	-0.577939
C54	C	-0.251910	-1.734433	-0.890158
C55	C	-0.251926	-1.734523	-1.023558
C56	C	-0.251922	-1.047523	-0.578356
C57	C	-0.251917	-1.180923	-0.578335
C58	C	-0.251930	-1.734561	-0.265291
C59	C	-0.251936	-1.734596	-0.131891
H60	H	-0.451476	-1.873841	-0.439060
C61	C	-0.558327	-1.895813	-0.417044
N62	N	-0.580937	-1.959449	-0.353440
C63	C	-0.694853	-1.972612	-0.340206
N64	N	-0.672243	-2.036212	-0.276604
C65	C	-1.060677	-1.573500	-0.739121
N66	N	-1.083289	-1.509883	-0.802702
H67	H	-0.801699	-1.950708	-0.362084
H68	H	-0.953827	-1.595389	-0.717235
C69	C	-0.946022	-1.895928	-0.416814
N70	N	-0.923410	-1.959535	-0.353224
C71	C	-1.060691	-1.895954	-0.416759
N72	N	-1.083320	-1.959559	-0.353158
C73	C	-0.809491	-1.496593	-0.815968
N74	N	-0.832100	-1.432961	-0.879540
H75	H	-0.702642	-1.518500	-0.794081
H76	H	-0.550538	-1.595279	-0.717488
H77	H	-0.451471	-1.595254	-0.717537
