data_functionalizedCrystal
_audit_creation_method	'MofGen! by Chris Wilmer'
_symmetry_space_group_name_H-M	'P1'
_symmetry_Int_Tables_number	1
_symmetry_cell_setting	triclinic
loop_
_symmetry_equiv_pos_as_xyz
  x,y,z
_cell_length_a	15.944551
_cell_length_b	15.944545
_cell_length_c	14.472310
_cell_angle_alpha	89.996829
_cell_angle_beta	89.991464
_cell_angle_gamma	83.497456
loop_
_atom_site_label
_atom_site_type_symbol
_atom_site_fract_x
_atom_site_fract_y
_atom_site_fract_z
O1	O	1.114533	0.108327	-0.076749
O2	O	0.869983	0.121683	-0.076773
O3	O	0.998939	-0.007270	-0.076749
O4	O	0.985577	0.237280	-0.076772
O5	O	0.998905	-0.007263	0.076933
O6	O	0.869950	0.121690	0.076909
O7	O	1.114500	0.108334	0.076933
Cu8	Cu	0.992222	0.115013	0.090954
Cu9	Cu	0.992261	0.115004	-0.090793
O10	O	0.985544	0.237287	0.076910
C11	C	0.838672	0.121132	0.000066
C12	C	0.745426	0.119470	0.000057
C13	C	0.998368	-0.038561	0.000093
C14	C	0.996708	-0.131807	0.000095
C15	C	0.530571	0.035565	0.000083
C16	C	0.469567	0.074524	-0.075694
C17	C	0.574700	0.116463	0.000068
C18	C	0.469556	0.074551	0.075824
C19	C	0.409788	0.113552	0.000083
C20	C	0.514924	0.155444	-0.075771
C21	C	0.514920	0.155459	0.075815
C22	C	0.453933	0.194476	0.000020
C23	C	0.669703	0.118137	0.000059
C24	C	0.314787	0.111884	0.000086
C25	C	0.911814	-0.402440	0.000068
C26	C	0.952760	-0.351858	-0.075701
C27	C	0.990787	-0.467451	0.000068
C28	C	0.952748	-0.351878	0.075817
C29	C	0.993692	-0.302537	0.000083
C30	C	1.031712	-0.418097	-0.075764
C31	C	1.031688	-0.418121	0.075822
C32	C	1.072692	-0.367571	0.000034
C33	C	0.989112	-0.562453	0.000059
C34	C	0.995374	-0.207538	0.000086
C35	C	1.145810	0.108885	0.000093
C36	C	1.239056	0.110547	0.000095
C37	C	0.986114	0.268578	0.000066
C38	C	0.987774	0.361824	0.000057
N39	N	0.992200	0.115019	0.218785
N40	N	0.992289	0.114992	-0.218624
C41	C	0.992260	0.115001	0.592876
C42	C	0.923027	0.183770	0.553697
C43	C	0.923186	0.184020	0.446609
C44	C	0.992229	0.115010	0.407285
C45	C	1.079872	0.134157	0.446128
C46	C	1.079483	0.134646	0.553250
C47	C	0.974632	0.026881	0.553411
C48	C	0.972622	0.027468	0.446284
C49	C	0.992218	0.115013	0.302397
C50	C	0.992277	0.114999	0.697764
H51	H	0.449471	0.040305	-0.139752
O52	O	1.162849	-0.347046	-0.000012
H53	H	1.174341	-0.310239	0.062921
H54	H	0.919368	-0.322960	0.139873
O55	O	1.035086	-0.043491	0.410835
H56	H	1.000977	-0.089017	0.371763
H57	H	0.858040	0.172612	0.420348
O58	O	1.075816	-0.456467	0.160683
H59	H	1.074711	-0.525938	0.159535
O60	O	0.836449	0.168926	0.587859
H61	H	0.841834	0.112380	0.633132
H62	H	0.934128	0.248794	0.580602
O63	O	0.908603	-0.313518	-0.160556
H64	H	0.884839	-0.364106	-0.202497
H65	H	0.534925	0.189631	-0.139905
H66	H	0.934444	0.249413	0.420970
H67	H	0.843802	-0.418092	-0.000012
H68	H	0.420773	0.261684	-0.000029
O69	O	1.100058	0.219770	0.586339
H70	H	1.110187	0.260200	0.525830
H71	H	0.535037	0.189650	0.139876
H72	H	0.563906	-0.031573	-0.000004
H73	H	1.025120	-0.024295	0.578747
O74	O	1.075870	-0.456245	-0.160718
H75	H	1.074264	-0.525656	-0.160077
H76	H	1.132611	0.086533	0.579165
H77	H	0.912110	0.008470	0.580475
O78	O	1.149754	0.069582	0.412391
H79	H	1.122696	0.023048	0.367468
O80	O	1.100945	0.218318	0.410592
H81	H	1.049137	0.246638	0.365277
H82	H	0.908150	0.012937	0.420897
H83	H	0.449457	0.040322	0.139886
