data_functionalizedCrystal
_audit_creation_method	'MofGen! by Chris Wilmer'
_symmetry_space_group_name_H-M	'P1'
_symmetry_Int_Tables_number	1
_symmetry_cell_setting	triclinic
loop_
_symmetry_equiv_pos_as_xyz
  x,y,z
_cell_length_a	19.077105
_cell_length_b	29.839131
_cell_length_c	19.077569
_cell_angle_alpha	87.673679
_cell_angle_beta	85.299277
_cell_angle_gamma	87.737628
loop_
_atom_site_label
_atom_site_type_symbol
_atom_site_fract_x
_atom_site_fract_y
_atom_site_fract_z
Zn1	Zn	1.093625	-0.195626	-0.441828
Zn2	Zn	1.088771	-0.273652	-0.323930
Zn3	Zn	0.971007	-0.195633	-0.319224
Zn4	Zn	0.975670	-0.267822	-0.437050
O5	O	1.032268	-0.233183	-0.380508
O6	O	1.191630	-0.208413	-0.430158
O7	O	1.069167	-0.265745	-0.224654
O8	O	0.987353	-0.132766	-0.335518
O9	O	1.188064	-0.265739	-0.343538
O10	O	1.077440	-0.132761	-0.425595
O11	O	0.982646	-0.208424	-0.221196
O12	O	0.872977	-0.202772	-0.330885
O13	O	0.995300	-0.255803	-0.536336
O14	O	0.876403	-0.255809	-0.417451
O15	O	1.081961	-0.202761	-0.539846
O16	O	1.073688	-0.335745	-0.338905
O17	O	0.990593	-0.331462	-0.422014
C18	C	0.849111	-0.228659	-0.373139
C19	C	0.770756	-0.226734	-0.370003
C20	C	1.032140	-0.349904	-0.380468
C21	C	1.032150	-0.399838	-0.380477
C22	C	0.735744	-0.253488	-0.413530
C23	C	0.662122	-0.251674	-0.410587
C24	C	0.623512	-0.223106	-0.364113
C25	C	0.658529	-0.196349	-0.320585
C26	C	0.732151	-0.198162	-0.323532
C27	C	0.403135	-0.214716	-0.350478
C28	C	0.329509	-0.212907	-0.347532
C29	C	0.333106	-0.268231	-0.437535
C30	C	0.406728	-0.270043	-0.440475
C31	C	0.441739	-0.243284	-0.396950
N32	N	0.548258	-0.221252	-0.361103
N33	N	0.516992	-0.245137	-0.399965
C34	C	1.075620	-0.711701	-0.337302
C35	C	1.075709	-0.899376	-0.337333
O36	O	1.112566	-0.925527	-0.300594
N37	N	1.032417	-0.920628	-0.380567
C38	C	0.989103	-0.894957	-0.423800
O39	O	0.952288	-0.917340	-0.460579
C40	C	0.989019	-0.707284	-0.423772
C41	C	1.032309	-0.686035	-0.380530
C42	C	1.118907	-0.690452	-0.294064
C43	C	1.118882	-0.643536	-0.294054
C44	C	1.075570	-0.617870	-0.337282
C45	C	1.032283	-0.639119	-0.380520
C46	C	0.945710	-0.681615	-0.467008
C47	C	0.945694	-0.634693	-0.466998
C48	C	0.988984	-0.613444	-0.423757
C49	C	0.988946	-0.566537	-0.423738
N50	N	1.032238	-0.545285	-0.380504
C51	C	1.075550	-0.570952	-0.337276
C52	C	0.989149	-0.993489	-0.423810
C53	C	0.989169	-1.040407	-0.423816
C54	C	1.075776	-1.044822	-0.337351
C55	C	1.075752	-0.997903	-0.337341
C56	C	1.032441	-0.972237	-0.380576
C57	C	1.075493	-0.472425	-0.337258
C58	C	1.075462	-0.425505	-0.337249
C59	C	0.988858	-0.421093	-0.423717
C60	C	0.988887	-0.468010	-0.423723
C61	C	1.032210	-0.493674	-0.380491
O62	O	0.952114	-0.540358	-0.460464
O63	O	1.112371	-0.548561	-0.300514
C64	C	1.075646	-0.758617	-0.337312
C65	C	1.032359	-0.779867	-0.380550
C66	C	0.989047	-0.754200	-0.423778
C67	C	1.032379	-0.826785	-0.380556
C68	C	1.075691	-0.852451	-0.337329
C69	C	1.118983	-0.831200	-0.294095
C70	C	1.118957	-0.784284	-0.294085
C71	C	0.945756	-0.775451	-0.467012
C72	C	0.945784	-0.822368	-0.467018
C73	C	0.989096	-0.848034	-0.423790
C74	C	1.216141	-0.237725	-0.387906
C75	C	1.294496	-0.239661	-0.391059
C76	C	1.039692	-0.228631	-0.564385
C77	C	1.042856	-0.226691	-0.642743
C78	C	1.032417	-0.116007	-0.380564
C79	C	1.032481	-0.066074	-0.380589
C80	C	0.999223	-0.253394	-0.677729
C81	C	1.002202	-0.251571	-0.751354
C82	C	1.048809	-0.223043	-0.789993
C83	C	1.092447	-0.196339	-0.755002
C84	C	1.089471	-0.198164	-0.681378
C85	C	1.062549	-0.214625	-1.010381
C86	C	1.065520	-0.212800	-1.084010
C87	C	0.975275	-0.268033	-1.080358
C88	C	0.972301	-0.269854	-1.006732
C89	C	1.015941	-0.243152	-0.971748
N90	N	1.051853	-0.221178	-0.865250
N91	N	1.012900	-0.245019	-0.896492
C92	C	1.024914	-0.237686	-0.197348
C93	C	1.021887	-0.239503	-0.118996
H94	H	0.767175	-0.276753	-0.451371
H95	H	0.966672	-0.273316	-0.779837
H96	H	0.438159	-0.293307	-0.478317
Cl97	Cl	0.289088	-0.301870	-0.492249
H98	H	1.125001	-0.176420	-0.652893
Cl99	Cl	0.934450	-0.494723	-0.478070
H100	H	0.633618	-0.273460	-0.446030
Cl101	Cl	0.280971	-0.176994	-0.289099
Cl102	Cl	0.891301	-0.743192	-0.521361
Cl103	Cl	1.173430	-0.863475	-0.239750
H104	H	0.760657	-0.176373	-0.288092
H105	H	0.431632	-0.192931	-0.315031
H106	H	0.627088	-0.173087	-0.282749
H107	H	0.961262	-0.276619	-0.646275
Cl108	Cl	0.934416	-0.388818	-0.478062
H109	H	1.110713	-0.408205	-0.302034
H110	H	0.910426	-0.613798	-0.502208
H111	H	1.110772	-0.493316	-0.302056
H112	H	1.154134	-0.626238	-0.258845
H113	H	0.934359	-0.293092	-0.975279
Cl114	Cl	1.173364	-0.722711	-0.239714
H115	H	1.103471	-0.189565	-1.115467
Cl116	Cl	1.130175	-0.971195	-0.282979
H117	H	1.111042	-1.065728	-0.302153
H118	H	1.154208	-0.766987	-0.258873
H119	H	0.939746	-0.289773	-1.108850
H120	H	0.910526	-0.839664	-0.502230
Cl121	Cl	0.934737	-1.067114	-0.478171
H122	H	1.098084	-0.192882	-0.981906
Cl123	Cl	1.151043	-0.160477	-0.803576
H124	H	0.953879	-0.972595	-0.459018
Cl125	Cl	0.891294	-0.708316	-0.521382
