data_functionalizedCrystal
_audit_creation_method	'MofGen! by Chris Wilmer'
_symmetry_space_group_name_H-M	'P1'
_symmetry_Int_Tables_number	1
_symmetry_cell_setting	triclinic
loop_
_symmetry_equiv_pos_as_xyz
  x,y,z
_cell_length_a	12.645330
_cell_length_b	19.077105
_cell_length_c	19.077271
_cell_angle_alpha	89.912562
_cell_angle_beta	87.708706
_cell_angle_gamma	87.714233
loop_
_atom_site_label
_atom_site_type_symbol
_atom_site_fract_x
_atom_site_fract_y
_atom_site_fract_z
Zn1	Zn	-0.513030	1.058228	0.440441
Zn2	Zn	-0.683435	1.062902	0.322944
Zn3	Zn	-0.498782	0.945467	0.318234
Zn4	Zn	-0.682840	0.940703	0.435695
O5	O	-0.594522	1.001825	0.379329
O6	O	-0.541847	1.157179	0.428811
O7	O	-0.653227	1.051275	0.223988
O8	O	-0.352328	0.960462	0.334460
O9	O	-0.667043	1.160614	0.342487
O10	O	-0.362796	1.043307	0.424245
O11	O	-0.517563	0.964995	0.220528
O12	O	-0.516985	0.846504	0.329859
O13	O	-0.666028	0.952343	0.534656
O14	O	-0.652211	0.843004	0.416157
O15	O	-0.541269	1.038688	0.538142
O16	O	-0.831700	1.046655	0.337885
O17	O	-0.831263	0.956876	0.420724
C18	C	-0.582988	0.819257	0.371983
C19	C	-0.578081	0.741153	0.368857
C20	C	-0.646278	0.702659	0.412248
C21	C	-0.641653	0.629272	0.409314
C22	C	-0.568835	0.594381	0.362985
C23	C	-0.500630	0.632880	0.319592
C24	C	-0.505251	0.706266	0.322529
C25	C	-0.547451	0.375094	0.349391
C26	C	-0.542838	0.301703	0.346455
C27	C	-0.683860	0.298100	0.436179
C28	C	-0.688479	0.371487	0.439110
C29	C	-0.620270	0.409980	0.395719
N30	N	-0.564108	0.519367	0.359983
N31	N	-0.624992	0.484992	0.398725
C32	C	-0.869948	1.001774	0.379317
C33	C	-0.987781	1.001816	0.379338
C34	C	-1.155138	0.945553	0.431628
C35	C	-1.032551	0.945283	0.431441
C36	C	-1.026777	0.984764	0.304480
C37	C	-1.149374	0.984420	0.304797
C38	C	-1.160676	1.075486	0.401318
C39	C	-1.038135	1.074965	0.402919
C40	C	-0.318022	1.001895	0.379357
C41	C	-0.200195	1.001924	0.379369
C42	C	-0.605171	0.994462	0.562608
C43	C	-0.609710	0.991325	0.640711
C44	C	-0.606101	1.185106	0.386704
C45	C	-0.611035	1.263209	0.389847
C46	C	-0.546890	1.034804	0.679220
C47	C	-0.551149	1.031847	0.752605
C48	C	-0.618235	0.985415	0.787480
C49	C	-0.681057	0.941931	0.748966
C50	C	-0.676791	0.944885	0.675582
C51	C	-0.637953	0.971758	1.006761
C52	C	-0.642216	0.968809	1.080150
C53	C	-0.512306	1.058724	1.083784
C54	C	-0.508051	1.061677	1.010399
C55	C	-0.570869	1.018190	0.971891
N56	N	-0.622593	0.982393	0.862492
N57	N	-0.566505	1.021209	0.896880
C58	C	-0.583936	1.009153	1.196762
C59	C	-0.579396	1.012288	1.118659
H60	H	-0.697188	0.597933	0.444648
F61	F	-0.743650	0.898607	0.634598
H62	H	-0.999106	0.890688	0.416665
F63	F	-1.198876	1.130336	0.351624
F64	F	-0.981089	0.915347	0.280278
F65	F	-1.181171	0.914250	0.280947
H66	H	-0.747777	0.399891	0.476835
F67	F	-0.998369	0.958773	0.503871
F68	F	-0.423125	0.595744	0.270288
H69	H	-1.188558	0.955752	0.487216
F70	F	-0.723787	0.739786	0.461555
F71	F	-0.713617	0.919384	1.117265
F72	F	-0.475493	1.084227	0.642110
F73	F	-1.190084	0.874635	0.412553
H74	H	-0.453426	1.099489	0.982008
H75	H	-0.689120	0.936358	0.975416
F76	F	-0.756449	0.257128	0.482354
H77	H	-0.461162	1.094127	1.115145
H78	H	-1.178956	1.023859	0.264372
F79	F	-0.752451	0.892511	0.786084
H80	H	-0.483528	0.273297	0.308732
F81	F	-0.474854	0.416052	0.303212
F82	F	-0.988628	1.036900	0.252023
H83	H	-0.449711	0.737607	0.287199
H84	H	-1.195781	1.091627	0.455134
F85	F	-1.005451	1.091846	0.474947
F86	F	-0.998756	1.132441	0.357106
H87	H	-0.499997	1.067254	0.783956
