data_functionalizedCrystal
_audit_creation_method	'MofGen! by Chris Wilmer'
_symmetry_space_group_name_H-M	'P1'
_symmetry_Int_Tables_number	1
_symmetry_cell_setting	triclinic
loop_
_symmetry_equiv_pos_as_xyz
  x,y,z
_cell_length_a	8.497374
_cell_length_b	8.497374
_cell_length_c	17.077404
_cell_angle_alpha	90.003463
_cell_angle_beta	89.998682
_cell_angle_gamma	90.005237
loop_
_atom_site_label
_atom_site_type_symbol
_atom_site_fract_x
_atom_site_fract_y
_atom_site_fract_z
Zn1	Zn	0.628320	0.892179	1.200049
Zn2	Zn	0.892066	0.628445	1.200043
Zn3	Zn	0.628295	0.628399	1.068818
Zn4	Zn	0.892053	0.892169	1.068799
O5	O	0.760183	0.760298	1.134427
O6	O	0.663322	0.857218	1.309895
O7	O	0.857071	0.407677	1.182641
O8	O	0.407536	0.663375	1.086236
O9	O	0.857095	0.663454	1.309891
O10	O	0.407554	0.857174	1.182652
O11	O	0.663279	0.407643	1.086230
O12	O	0.663267	0.663364	0.958968
O13	O	0.857074	1.112932	1.086204
O14	O	0.857049	0.857155	0.958955
O15	O	0.663310	1.112940	1.182633
O16	O	1.112826	0.663443	1.182623
O17	O	1.112817	0.857200	1.086198
C18	C	0.760155	0.760254	0.930479
C19	C	0.760180	0.760273	0.843230
C20	C	0.861235	0.861018	0.802253
C21	C	0.861238	0.861043	0.720272
C22	C	0.760194	0.760315	0.679270
C23	C	0.659128	0.659565	0.720253
C24	C	0.659118	0.659549	0.802232
C25	C	0.659160	0.659603	0.549383
C26	C	0.659171	0.659617	0.467398
C27	C	0.861280	0.861097	0.467423
C28	C	0.861270	0.861081	0.549402
C29	C	0.760206	0.760329	0.590379
C30	C	1.170063	0.760321	1.134417
C31	C	1.348707	0.760295	1.134438
C32	C	0.760186	1.171778	1.134421
C33	C	0.760202	1.350422	1.134423
C34	C	0.760213	0.760343	1.339171
C35	C	0.760226	0.760362	1.426421
H36	H	0.576873	0.577613	0.434016
H37	H	0.943522	0.943038	0.835631
C38	C	0.547960	0.548727	0.847311
C39	C	0.424205	0.617270	0.903670
C40	C	0.313037	0.506452	0.948749
C41	C	0.325624	0.327092	0.937470
C42	C	0.449383	0.258540	0.881109
C43	C	0.560551	0.369358	0.836029
H44	H	0.414883	0.750051	0.912022
H45	H	0.221422	0.557200	0.990471
H46	H	0.243330	0.245058	0.970840
H47	H	0.458705	0.125759	0.872757
H48	H	0.652166	0.318610	0.794307
H49	H	0.943529	0.943079	0.686913
C50	C	0.547986	0.548785	0.594462
C51	C	0.368667	0.561930	0.583189
C52	C	0.257501	0.451114	0.628271
C53	C	0.325654	0.327154	0.684626
C54	C	0.504983	0.314004	0.695902
C55	C	0.616149	0.424819	0.650820
H56	H	0.318207	0.653697	0.541469
H57	H	0.124749	0.460849	0.619923
H58	H	0.243363	0.245121	0.717998
H59	H	0.555443	0.222236	0.737622
H60	H	0.748901	0.415084	0.659168
C61	C	0.972452	0.971928	0.422353
C62	C	0.972468	0.971960	0.332179
C63	C	1.083645	1.082777	0.287105
C64	C	1.194806	1.193562	0.332205
C65	C	1.194794	1.193534	0.422383
C66	C	1.083617	1.082718	0.467457
H67	H	0.890177	0.889947	0.298789
H68	H	1.083654	1.082797	0.220349
H69	H	1.277106	1.275595	0.298838
H70	H	1.277086	1.275548	0.455773
H71	H	1.083609	1.082698	0.534214
H72	H	0.943557	0.943095	0.582784
H73	H	0.576850	0.577557	0.686862
