data_functionalizedCrystal
_audit_creation_method	'MofGen! by Chris Wilmer'
_symmetry_space_group_name_H-M	'P1'
_symmetry_Int_Tables_number	1
_symmetry_cell_setting	triclinic
loop_
_symmetry_equiv_pos_as_xyz
  x,y,z
_cell_length_a	13.033855
_cell_length_b	13.033304
_cell_length_c	18.050582
_cell_angle_alpha	82.793347
_cell_angle_beta	97.195636
_cell_angle_gamma	90.900605
loop_
_atom_site_label
_atom_site_type_symbol
_atom_site_fract_x
_atom_site_fract_y
_atom_site_fract_z
Zn1	Zn	-0.210061	-1.624402	0.547871
Zn2	Zn	-0.382035	-1.646178	0.410149
Zn3	Zn	-0.231889	-1.452428	0.406176
Zn4	Zn	-0.403797	-1.474247	0.516788
O5	O	-0.306945	-1.549314	0.470246
O6	O	-0.214631	-1.771217	0.544273
O7	O	-0.362145	-1.620458	0.305693
O8	O	-0.085077	-1.456996	0.436319
O9	O	-0.340979	-1.787215	0.443089
O10	O	-0.069040	-1.583345	0.540422
O11	O	-0.251833	-1.478111	0.302775
O12	O	-0.272935	-1.311396	0.406178
O13	O	-0.378071	-1.494184	0.624840
O14	O	-0.399236	-1.327427	0.487444
O15	O	-0.235733	-1.604502	0.647677
O16	O	-0.528838	-1.641615	0.412948
O17	O	-0.544827	-1.515299	0.491296
C18	C	-0.340817	-1.282094	0.443007
C19	C	-0.355332	-1.167779	0.431370
C20	C	-0.299385	-1.108910	0.476308
C21	C	-0.314386	-0.990760	0.464282
C22	C	-0.574144	-1.583216	0.449199
C23	C	-0.688441	-1.597813	0.440229
C24	C	-0.747350	-1.541776	0.474950
C25	C	-0.865482	-1.556861	0.465681
C26	C	-0.038699	-1.515307	0.491394
C27	C	0.075611	-1.500816	0.500407
C28	C	-0.306895	-1.549348	0.663959
C29	C	-0.306873	-1.549363	0.746508
C30	C	-0.272937	-0.817577	0.497587
C31	C	-0.258432	-0.931893	0.509226
C32	C	-0.306914	-1.549329	0.277298
C33	C	-0.306621	-1.549477	0.194793
C34	C	-0.384176	-1.489412	0.933553
C35	C	-0.397412	-1.586447	0.990526
C36	C	-0.306788	-1.549404	0.897650
C37	C	-0.293516	-1.452417	0.987767
C38	C	-0.306709	-1.549435	1.043645
C39	C	-0.320067	-1.646494	0.953537
C40	C	-0.216136	-1.512395	0.950770
C41	C	-0.229329	-1.609490	1.007730
C42	C	-0.306836	-1.549385	0.813546
C43	C	-0.306659	-1.549465	1.127749
H44	H	-0.373391	-0.953693	0.416900
Br45	Br	-0.088460	-1.460150	0.921358
Br46	Br	-0.160068	-0.993659	0.588190
H47	H	-0.240378	-1.145980	0.523682
H48	H	-0.414333	-1.130708	0.383992
Br49	Br	-0.493362	-1.404959	0.879948
Br50	Br	-0.750138	-1.696387	0.379236
H51	H	-0.710330	-1.482627	0.511536
H52	H	-0.887372	-1.441663	0.536995
Br53	Br	-0.525127	-1.638656	1.019902
Br54	Br	-0.274858	-1.315691	1.013245
Br55	Br	-0.927174	-1.655439	0.404685
Br56	Br	-0.338880	-1.783281	0.928212
H57	H	-0.163842	-1.660303	1.039765
