data_functionalizedCrystal
_audit_creation_method	'MofGen! by Chris Wilmer'
_symmetry_space_group_name_H-M	'P1'
_symmetry_Int_Tables_number	1
_symmetry_cell_setting	triclinic
loop_
_symmetry_equiv_pos_as_xyz
  x,y,z
_cell_length_a	25.639239
_cell_length_b	19.805407
_cell_length_c	19.805399
_cell_angle_alpha	89.980427
_cell_angle_beta	89.971274
_cell_angle_gamma	90.038686
loop_
_atom_site_label
_atom_site_type_symbol
_atom_site_fract_x
_atom_site_fract_y
_atom_site_fract_z
Zn1	Zn	-0.208163	1.034678	-0.382714
Zn2	Zn	0.291837	1.534678	0.117286
Zn3	Zn	-0.295597	1.034569	-0.269524
Zn4	Zn	0.204403	1.534569	0.230476
Zn5	Zn	-0.208177	0.921493	-0.269539
Zn6	Zn	0.291823	1.421493	0.230461
Zn7	Zn	-0.295569	0.921432	-0.382670
Zn8	Zn	0.204431	1.421432	0.117330
O9	O	-0.251877	0.978043	-0.326112
O10	O	0.248123	1.478043	0.173888
O11	O	-0.219767	1.129380	-0.367711
O12	O	0.280233	1.629380	0.132289
O13	O	-0.284018	1.019548	-0.174809
O14	O	0.215982	1.519548	0.325191
O15	O	-0.135010	0.936578	-0.284576
O16	O	0.364990	1.436578	0.215424
O17	O	-0.284004	1.129300	-0.284551
O18	O	0.215996	1.629300	0.215449
O19	O	-0.135000	1.019735	-0.367726
O20	O	0.365000	1.519735	0.132274
O21	O	-0.219791	0.936472	-0.174820
O22	O	0.280209	1.436472	0.325180
O23	O	-0.219764	0.826768	-0.284534
O24	O	0.280236	1.326768	0.215466
O25	O	-0.283957	0.936475	-0.477393
O26	O	0.216043	1.436475	0.022607
O27	O	-0.283971	0.826723	-0.367651
O28	O	0.216029	1.326723	0.132349
O29	O	-0.219740	1.019676	-0.477425
O30	O	0.280260	1.519676	0.022575
O31	O	-0.368758	1.019489	-0.284508
O32	O	0.131242	1.519489	0.215492
O33	O	-0.368738	0.936368	-0.367637
O34	O	0.131262	1.436368	0.132363
C35	C	-0.251867	0.802187	-0.326090
C36	C	0.248133	1.302187	0.173910
C37	C	-0.251875	0.726955	-0.326097
C38	C	0.248125	1.226955	0.173903
C39	C	-0.285357	0.691605	-0.369306
C40	C	0.214643	1.191605	0.130694
C41	C	-0.285358	0.620917	-0.369315
C42	C	0.214642	1.120917	0.130685
C43	C	-0.251879	0.585579	-0.326112
C44	C	0.248121	1.085579	0.173888
C45	C	-0.218393	0.620934	-0.282901
C46	C	0.281607	1.120934	0.217099
C47	C	-0.218390	0.691621	-0.282895
C48	C	0.281610	1.191621	0.217105
C49	C	-0.218404	0.335860	-0.282923
C50	C	0.281596	0.835860	0.217077
C51	C	-0.218411	0.265168	-0.282931
C52	C	0.281589	0.765168	0.217069
C53	C	-0.285373	0.265156	-0.369343
C54	C	0.214627	0.765156	0.130657
C55	C	-0.285370	0.335843	-0.369338
C56	C	0.214630	0.835843	0.130662
C57	C	-0.251882	0.371192	-0.326129
C58	C	0.248118	0.871192	0.173871
C59	C	-0.251881	0.447840	-0.326121
C60	C	0.248119	0.947840	0.173879
C61	C	-0.251883	0.508932	-0.326117
C62	C	0.248117	1.008932	0.173883
C63	C	-0.387719	0.977929	-0.326081
C64	C	0.112281	1.477929	0.173919
C65	C	-0.445833	0.977942	-0.326090
C66	C	0.054167	1.477942	0.173910
C67	C	-0.806194	1.021437	-0.282901
C68	C	-0.306194	1.521437	0.217099
C69	C	-0.860799	1.021463	-0.282910
C70	C	-0.360799	1.521463	0.217090
O71	O	-0.889034	1.058326	-0.246154
O72	O	-0.389034	1.558326	0.253846
N73	N	-0.888116	0.978162	-0.326157
N74	N	-0.388116	1.478162	0.173843
C75	C	-0.860825	0.934836	-0.369402
C76	C	-0.360825	1.434836	0.130598
O77	O	-0.889075	0.898008	-0.406189
O78	O	-0.389075	1.398008	0.093811
C79	C	-0.806222	0.934814	-0.369396
C80	C	-0.306222	1.434814	0.130604
C81	C	-0.778908	0.978113	-0.326141
C82	C	-0.278908	1.478113	0.173859
C83	C	-0.778880	1.064733	-0.239650
C84	C	-0.278880	1.564733	0.260350
C85	C	-0.724279	1.064706	-0.239640
C86	C	-0.224279	1.564706	0.260360
C87	C	-0.696993	1.021382	-0.282881
C88	C	-0.196993	1.521382	0.217119
C89	C	-0.724307	0.978086	-0.326132
C90	C	-0.224307	1.478086	0.173868
C91	C	-0.778933	0.891492	-0.412645
C92	C	-0.278933	1.391492	0.087355
C93	C	-0.724326	0.891474	-0.412635
C94	C	-0.224326	1.391474	0.087365
C95	C	-0.697012	0.934773	-0.369381
C96	C	-0.197012	1.434773	0.130619
C97	C	-0.642421	0.934735	-0.369363
C98	C	-0.142421	1.434735	0.130637
N99	N	-0.615104	0.978036	-0.326116
N100	N	-0.115104	1.478036	0.173884
C101	C	-0.642390	1.021360	-0.282875
C102	C	-0.142390	1.521360	0.217125
C103	C	-0.975496	0.934887	-0.369413
C104	C	-0.475496	1.434887	0.130587
C105	C	-1.030098	0.934906	-0.369416
C106	C	-0.530098	1.434906	0.130584
C107	C	-1.030068	1.021533	-0.282924
C108	C	-0.530068	1.521533	0.217076
C109	C	-0.975464	1.021511	-0.282918
C110	C	-0.475464	1.521511	0.217082
C111	C	-0.948179	0.978188	-0.326166
C112	C	-0.448179	1.478188	0.173834
C113	C	-0.527725	1.021299	-0.282857
C114	C	-0.027725	1.521299	0.217143
C115	C	-0.473119	1.021266	-0.282849
C116	C	0.026881	1.521266	0.217151
C117	C	-0.473155	0.934641	-0.369343
C118	C	0.026845	1.434641	0.130657
C119	C	-0.527756	0.934671	-0.369349
C120	C	-0.027756	1.434671	0.130651
C121	C	-0.555039	0.978006	-0.326104
C122	C	-0.055039	1.478006	0.173896
O123	O	-0.614151	0.897893	-0.406101
O124	O	-0.114151	1.397893	0.093899
O125	O	-0.614134	1.058188	-0.246101
O126	O	-0.114134	1.558188	0.253899
C127	C	-0.115504	0.978175	-0.326158
C128	C	0.384496	1.478175	0.173842
C129	C	-0.057389	0.978232	-0.326177
C130	C	0.442611	1.478232	0.173823
C131	C	-0.251844	0.978081	-0.502655
C132	C	0.248156	1.478081	-0.002655
C133	C	-0.251830	0.978097	-0.577887
C134	C	0.248170	1.478097	-0.077887
C135	C	-0.251887	1.154585	-0.326134
C136	C	0.248113	1.654585	0.173866
C137	C	-0.251891	1.229817	-0.326144
C138	C	0.248109	1.729817	0.173856
C139	C	-0.218390	1.021421	-0.613249
C140	C	0.281610	1.521421	-0.113249
C141	C	-0.218375	1.021428	-0.683937
C142	C	0.281625	1.521428	-0.183937
C143	C	-0.251802	0.978114	-0.719262
C144	C	0.248198	1.478114	-0.219262
C145	C	-0.285243	0.934785	-0.683895
C146	C	0.214757	1.434785	-0.183895
C147	C	-0.285255	0.934775	-0.613208
C148	C	0.214745	1.434775	-0.113208
C149	C	-0.285194	0.934823	-0.968969
C150	C	0.214806	1.434823	-0.468969
C151	C	-0.285181	0.934838	-1.039661
C152	C	0.214819	1.434838	-0.539661
C153	C	-0.218314	1.021476	-1.039698
C154	C	0.281686	1.521476	-0.539698
C155	C	-0.218326	1.021466	-0.969011
C156	C	0.281674	1.521466	-0.469011
C157	C	-0.251765	0.978135	-0.933650
C158	C	0.248235	1.478135	-0.433650
C159	C	-0.251780	0.978127	-0.857001
C160	C	0.248220	1.478127	-0.357001
C161	C	-0.251790	0.978125	-0.795909
C162	C	0.248210	1.478125	-0.295909
C163	C	-0.251872	0.978044	-0.150256
C164	C	0.248128	1.478044	0.349744
C165	C	-0.251738	0.978159	-0.075024
C166	C	0.248262	1.478159	0.424976
H167	H	-0.191140	0.364633	-0.247735
H168	H	0.308860	0.864633	0.252265
O169	O	-0.185843	1.063425	-0.578968
O170	O	0.314157	1.563425	-0.078968
C171	C	-0.096912	1.096388	-0.557417
C172	C	0.403088	1.596388	-0.057417
C173	C	-0.133715	1.048767	-0.596265
C174	C	0.366285	1.548767	-0.096265
H175	H	-0.054759	1.084564	-0.571398
H176	H	0.445241	1.584564	-0.071398
H177	H	-0.102617	1.088941	-0.500811
H178	H	0.397383	1.588941	-0.000811
H179	H	-0.106120	1.150954	-0.571316
H180	H	0.393880	1.650954	-0.071316
H181	H	-0.124529	0.994183	-0.582422
H182	H	0.375471	1.494183	-0.082422
H183	H	-0.128003	1.056273	-0.652861
H184	H	0.371997	1.556273	-0.152861
O185	O	-0.185809	1.063627	-1.073944
O186	O	0.314191	1.563627	-0.573944
C187	C	-0.119464	1.149535	-1.066517
C188	C	0.380536	1.649535	-0.566517
C189	C	-0.156255	1.101845	-1.027653
C190	C	0.343745	1.601845	-0.527653
H191	H	-0.095552	1.180436	-1.029108
H192	H	0.404448	1.680436	-0.529108
H193	H	-0.143439	1.184952	-1.099593
H194	H	0.356561	1.684952	-0.599593
H195	H	-0.092138	1.118481	-1.099631
H196	H	0.407862	1.618481	-0.599631
H197	H	-0.183589	1.132844	-0.994502
H198	H	0.316411	1.632844	-0.494502
H199	H	-0.132248	1.066425	-0.994619
H200	H	0.367752	1.566425	-0.494619
O201	O	-1.056547	0.892818	-0.411492
O202	O	-0.556547	1.392818	0.088508
C203	C	-1.050800	0.806865	-0.497250
C204	C	-0.550800	1.306865	0.002750
C205	C	-1.020784	0.854504	-0.449640
C206	C	-0.520784	1.354504	0.050360
H207	H	-1.021898	0.775865	-0.528095
H208	H	-0.521898	1.275865	-0.028095
H209	H	-1.076306	0.837895	-0.532724
H210	H	-0.576306	1.337895	-0.032724
H211	H	-1.076422	0.771531	-0.466138
H212	H	-0.576422	1.271531	0.033862
H213	H	-0.995134	0.889847	-0.480697
H214	H	-0.495134	1.389847	0.019303
H215	H	-0.995311	0.823431	-0.414164
H216	H	-0.495311	1.323431	0.085836
H217	H	-0.801163	0.856230	-0.447864
H218	H	-0.301163	1.356230	0.052136
O219	O	-0.185810	0.725991	-0.241016
O220	O	0.314190	1.225991	0.258984
C221	C	-0.115226	0.805879	-0.232067
C222	C	0.384774	1.305879	0.267933
C223	C	-0.152085	0.766988	-0.279571
C224	C	0.347915	1.266988	0.220429
H225	H	-0.087957	0.839045	-0.263219
H226	H	0.412043	1.339045	0.236781
H227	H	-0.091261	0.768510	-0.201200
H228	H	0.408739	1.268510	0.298800
H229	H	-0.139204	0.838909	-0.196602
H230	H	0.360796	1.338909	0.303398
H231	H	-0.128148	0.733957	-0.315076
H232	H	0.371852	1.233957	0.184924
H233	H	-0.176051	0.804393	-0.310390
H234	H	0.323949	1.304393	0.189610
H235	H	-0.312480	0.899489	-0.584417
H236	H	0.187520	1.399489	-0.084417
O237	O	-0.317836	0.370138	-0.411404
O238	O	0.182164	0.870138	0.088596
C239	C	-0.343348	0.391763	-0.526476
C240	C	0.156652	0.891763	-0.026476
C241	C	-0.306541	0.352896	-0.478910
C242	C	0.193459	0.852896	0.021090
H243	H	-0.334237	0.377826	-0.581063
H244	H	0.165763	0.877826	-0.081063
H245	H	-0.337593	0.448365	-0.519109
H246	H	0.162407	0.948365	-0.019109
H247	H	-0.385493	0.377835	-0.514459
H248	H	0.114507	0.877835	-0.014459
H249	H	-0.264382	0.366767	-0.490897
H250	H	0.235618	0.866767	0.009103
H251	H	-0.312342	0.296303	-0.486285
H252	H	0.187658	0.796303	0.013715
H253	H	-0.312402	0.899563	-1.068421
H254	H	0.187598	1.399563	-0.568421
H255	H	-0.450882	1.056525	-0.247624
H256	H	0.049118	1.556525	0.252376
H257	H	-1.052294	1.056812	-0.247717
H258	H	-0.552294	1.556812	0.252283
O259	O	-0.317659	0.892612	-0.718177
O260	O	0.182341	1.392612	-0.218177
C261	C	-0.343051	0.777459	-0.739741
C262	C	0.156949	1.277459	-0.239741
C263	C	-0.306297	0.825141	-0.700890
C264	C	0.193703	1.325141	-0.200890
H265	H	-0.333885	0.722900	-0.725768
H266	H	0.166115	1.222900	-0.225768
H267	H	-0.337300	0.784849	-0.796346
H268	H	0.162700	1.284849	-0.296346
H269	H	-0.385210	0.789338	-0.725835
H270	H	0.114790	1.289338	-0.225835
H271	H	-0.264124	0.813293	-0.714740
H272	H	0.235876	1.313293	-0.214740
H273	H	-0.312094	0.817743	-0.644295
H274	H	0.187906	1.317743	-0.144295
O275	O	-0.317910	0.586500	-0.411190
O276	O	0.182090	1.086500	0.088810
C277	C	-0.388531	0.506665	-0.420122
C278	C	0.111469	1.006665	0.079878
C279	C	-0.351690	0.545589	-0.372622
C280	C	0.148310	1.045589	0.127378
H281	H	-0.415859	0.473590	-0.388959
H282	H	0.084141	0.973590	0.111041
H283	H	-0.364594	0.473560	-0.455564
H284	H	0.135406	0.973560	0.044436
H285	H	-0.412440	0.544073	-0.451014
H286	H	0.087560	1.044073	0.048986
H287	H	-0.327774	0.508230	-0.341687
H288	H	0.172226	1.008230	0.158313
H289	H	-0.375657	0.578704	-0.337225
H290	H	0.124343	1.078704	0.162775
O291	O	-0.185832	1.063414	-0.718313
O292	O	0.314168	1.563414	-0.218313
C293	C	-0.115236	1.072595	-0.798160
C294	C	0.384764	1.572595	-0.298160
C295	C	-0.152057	1.024969	-0.759264
C296	C	0.347943	1.524969	-0.259264
H297	H	-0.087927	1.041532	-0.831288
H298	H	0.412073	1.541532	-0.331288
H299	H	-0.091312	1.103536	-0.760794
H300	H	0.408688	1.603536	-0.260794
H301	H	-0.139240	1.107984	-0.831228
H302	H	0.360760	1.607984	-0.331228
H303	H	-0.128093	0.989539	-0.726194
H304	H	0.371907	1.489539	-0.226194
H305	H	-0.175983	0.994076	-0.796665
H306	H	0.324017	1.494076	-0.296665
H307	H	-0.312639	0.236367	-0.404528
H308	H	0.187361	0.736367	0.095472
O309	O	-0.185940	0.230736	-0.240977
O310	O	0.314060	0.730736	0.259023
C311	C	-0.156263	0.121841	-0.202705
C312	C	0.343737	0.621841	0.297295
C313	C	-0.193064	0.160752	-0.250242
C314	C	0.306936	0.660752	0.249758
H315	H	-0.162002	0.065253	-0.210189
H316	H	0.337998	0.565253	0.289811
H317	H	-0.165392	0.135664	-0.148092
H318	H	0.334608	0.635664	0.351908
H319	H	-0.114118	0.135809	-0.214676
H320	H	0.385882	0.635809	0.285324
H321	H	-0.235221	0.146806	-0.238332
H322	H	0.264779	0.646806	0.261668
H323	H	-0.183890	0.146926	-0.304841
H324	H	0.316110	0.646926	0.195159
H325	H	-0.702113	0.856196	-0.447855
H326	H	-0.202113	1.356196	0.052145
O327	O	-0.554211	0.892587	-0.411427
O328	O	-0.054211	1.392587	0.088573
C329	C	-0.548472	0.806640	-0.497192
C330	C	-0.048472	1.306640	0.002808
C331	C	-0.518452	0.854269	-0.449577
C332	C	-0.018452	1.354269	0.050423
H333	H	-0.519574	0.775637	-0.528038
H334	H	-0.019574	1.275637	-0.028038
H335	H	-0.573974	0.837678	-0.532664
H336	H	-0.073974	1.337678	-0.032664
H337	H	-0.574099	0.771309	-0.466083
H338	H	-0.074099	1.271309	0.033917
H339	H	-0.492797	0.889610	-0.480631
H340	H	0.007203	1.389610	0.019369
H341	H	-0.492983	0.823189	-0.414102
H342	H	0.007017	1.323189	0.085898
O343	O	-0.949014	1.063638	-0.240882
O344	O	-0.449014	1.563638	0.259118
C345	C	-0.954762	1.149529	-0.155061
C346	C	-0.454762	1.649529	0.344939
C347	C	-0.984778	1.101864	-0.202646
C348	C	-0.484778	1.601864	0.297354
H349	H	-0.983664	1.180437	-0.124125
H350	H	-0.483664	1.680437	0.375875
H351	H	-0.929172	1.184941	-0.186131
H352	H	-0.429172	1.684941	0.313869
H353	H	-0.929223	1.118455	-0.119666
H354	H	-0.429223	1.618455	0.380334
H355	H	-1.010345	1.132883	-0.238051
H356	H	-0.510345	1.632883	0.261949
H357	H	-1.010334	1.066449	-0.171534
H358	H	-0.510334	1.566449	0.328466
H359	H	-0.312430	0.899550	-0.940187
H360	H	0.187570	1.399550	-0.440187
H361	H	-0.191108	1.056739	-0.940252
H362	H	0.308892	1.556739	-0.440252
H363	H	-0.312622	0.720372	-0.404485
H364	H	0.187378	1.220372	0.095515
O365	O	-0.554142	1.063412	-0.240783
O366	O	-0.054142	1.563412	0.259217
C367	C	-0.548334	1.149352	-0.155016
C368	C	-0.048334	1.649352	0.344984
C369	C	-0.518352	1.101688	-0.202622
C370	C	-0.018352	1.601688	0.297378
H371	H	-0.519411	1.180320	-0.124161
H372	H	-0.019411	1.680320	0.375839
H373	H	-0.573925	1.118344	-0.119552
H374	H	-0.073925	1.618344	0.380448
H375	H	-0.573869	1.184714	-0.186132
H376	H	-0.073869	1.684714	0.313868
H377	H	-0.492789	1.066316	-0.171561
H378	H	0.007211	1.566316	0.328439
H379	H	-0.492795	1.132738	-0.238089
H380	H	0.007205	1.632738	0.261911
O381	O	-0.446563	0.892623	-0.411325
O382	O	0.053437	1.392623	0.088675
C383	C	-0.362450	0.854181	-0.449613
C384	C	0.137550	1.354181	0.050387
C385	C	-0.392502	0.901806	-0.402041
C386	C	0.107498	1.401806	0.097959
H387	H	-0.318737	0.861579	-0.442113
H388	H	0.181263	1.361579	0.057887
H389	H	-0.373109	0.866044	-0.504218
H390	H	0.126891	1.366044	-0.004218
H391	H	-0.373262	0.799620	-0.437692
H392	H	0.126738	1.299620	0.062308
H393	H	-0.381706	0.956383	-0.413901
H394	H	0.118294	1.456383	0.086099
H395	H	-0.381840	0.889884	-0.347450
H396	H	0.118160	1.389884	0.152550
H397	H	-0.953283	0.899603	-0.404628
H398	H	-0.453283	1.399603	0.095372
O399	O	-0.185917	0.586504	-0.240958
O400	O	0.314083	1.086504	0.259042
C401	C	-0.156217	0.477615	-0.202701
C402	C	0.343783	0.977615	0.297299
C403	C	-0.193032	0.516520	-0.250225
C404	C	0.306968	1.016520	0.249775
H405	H	-0.161949	0.421026	-0.210187
H406	H	0.338051	0.921026	0.289813
H407	H	-0.165340	0.491432	-0.148084
H408	H	0.334660	0.991432	0.351916
H409	H	-0.114076	0.491594	-0.214682
H410	H	0.385924	0.991594	0.285318
H411	H	-0.235185	0.502562	-0.238304
H412	H	0.264815	1.002562	0.261696
H413	H	-0.183865	0.502700	-0.304827
H414	H	0.316135	1.002700	0.195173
H415	H	-0.702043	1.099966	-0.204421
H416	H	-0.202043	1.599966	0.295579
H417	H	-0.801091	1.100016	-0.204438
H418	H	-0.301091	1.600016	0.295562
