data_functionalizedCrystal
_audit_creation_method	'MofGen! by Chris Wilmer'
_symmetry_space_group_name_H-M	'P1'
_symmetry_Int_Tables_number	1
_symmetry_cell_setting	triclinic
loop_
_symmetry_equiv_pos_as_xyz
  x,y,z
_cell_length_a	10.654550
_cell_length_b	10.654551
_cell_length_c	9.730223
_cell_angle_alpha	90.001469
_cell_angle_beta	89.996251
_cell_angle_gamma	84.485132
loop_
_atom_site_label
_atom_site_type_symbol
_atom_site_fract_x
_atom_site_fract_y
_atom_site_fract_z
O1	O	1.667835	0.176393	-0.114394
O2	O	1.302356	0.193199	-0.114371
O3	O	1.493498	0.002057	-0.114383
O4	O	1.476693	0.367535	-0.114381
O5	O	1.493496	0.002062	0.114197
O6	O	1.302354	0.193204	0.114209
O7	O	1.667832	0.176398	0.114186
Zn8	Zn	1.485093	0.184802	0.150490
Zn9	Zn	1.485096	0.184795	-0.150674
O10	O	1.476691	0.367540	0.114199
C11	C	1.255557	0.191968	-0.000078
C12	C	1.116114	0.188276	-0.000069
C13	C	1.036629	0.300817	-0.000089
C14	C	0.905608	0.297341	-0.000113
C15	C	0.933570	0.068771	-0.000104
C16	C	1.064589	0.072249	-0.000070
C17	C	1.088154	0.416844	-0.000088
C18	C	1.008667	0.529395	-0.000109
C19	C	0.877647	0.525918	-0.000133
C20	C	0.826112	0.409891	-0.000136
C21	C	1.492263	-0.044739	-0.000096
C22	C	1.488570	-0.184182	-0.000105
C23	C	1.486839	-0.249696	-0.124702
C24	C	1.483359	-0.380717	-0.124695
C25	C	1.483346	-0.380697	0.124515
C26	C	1.486817	-0.249678	0.124507
C27	C	1.488592	-0.184200	-0.249314
C28	C	1.486862	-0.249715	-0.373921
C29	C	1.483382	-0.380735	-0.373914
C30	C	1.481631	-0.446241	-0.249301
C31	C	1.714632	0.177629	-0.000109
C32	C	1.854075	0.181321	-0.000127
C33	C	1.477926	0.414336	-0.000091
C34	C	1.481619	0.553779	-0.000091
N35	N	1.485100	0.184805	0.356026
N36	N	1.485099	0.184782	-0.356211
C37	C	1.569760	0.100197	0.427947
C38	C	1.569756	0.100181	0.571830
C39	C	1.400430	0.269395	0.571859
C40	C	1.400428	0.269403	0.427979
C41	C	1.667522	0.002506	0.427931
C42	C	1.667519	0.002491	0.571814
H43	H	1.194836	0.419687	-0.000075
N44	N	0.877993	-0.056365	-0.000102
H45	H	0.782932	-0.041490	-0.000126
H46	H	0.907021	-0.105670	-0.084830
N47	N	1.064242	0.654533	-0.000090
H48	H	1.159303	0.639661	-0.000074
H49	H	1.035253	0.703827	-0.084832
H50	H	1.331492	0.338271	0.630458
H51	H	1.488276	-0.196370	-0.475376
N52	N	1.150330	-0.049131	-0.000042
H53	H	1.097811	-0.123161	-0.000058
H54	H	1.205326	-0.052669	-0.084764
H55	H	1.478779	-0.552924	-0.249306
N56	N	1.795351	0.030992	0.623550
H57	H	1.852397	0.043730	0.542858
H58	H	1.785799	0.110122	0.681265
H59	H	1.646079	-0.094026	0.388878
N60	N	1.488687	-0.178994	0.258883
H61	H	1.410365	-0.192284	0.313364
H62	H	1.565849	-0.211320	0.313252
N63	N	0.791916	0.647305	-0.000162
H64	H	0.701097	0.627502	-0.000180
H65	H	0.808692	0.697828	0.084575
H66	H	1.331481	0.338287	0.369422
H67	H	1.481922	-0.434042	0.225969
H68	H	1.758706	0.033094	0.383299
H69	H	1.491429	-0.077517	-0.249334
N70	N	1.627142	-0.118352	0.630932
H71	H	1.607632	-0.176729	0.553670
H72	H	1.697418	-0.160380	0.689363
H73	H	0.719425	0.407069	-0.000134
N74	N	1.481586	-0.451410	-0.508301
H75	H	1.483250	-0.390037	-0.587238
H76	H	1.557891	-0.515248	-0.513662
