data_functionalizedCrystal
_audit_creation_method	'MofGen! by Chris Wilmer'
_symmetry_space_group_name_H-M	'P1'
_symmetry_Int_Tables_number	1
_symmetry_cell_setting	triclinic
loop_
_symmetry_equiv_pos_as_xyz
  x,y,z
_cell_length_a	14.560432
_cell_length_b	14.560438
_cell_length_c	14.560438
_cell_angle_alpha	60.001579
_cell_angle_beta	90.001615
_cell_angle_gamma	60.001007
loop_
_atom_site_label
_atom_site_type_symbol
_atom_site_fract_x
_atom_site_fract_y
_atom_site_fract_z
Zr1	Zr	0.884749	1.005297	-0.120508
O2	O	0.738102	1.196894	-0.267151
O3	O	0.929704	0.813698	-0.075556
O4	O	0.929702	1.005298	-0.267155
O5	O	0.738107	1.005294	0.075587
O6	O	1.080839	1.005302	-0.267155
O7	O	0.738104	1.005294	-0.075552
O8	O	1.080844	0.662564	0.075580
O9	O	0.738102	1.348032	-0.267148
O10	O	1.061670	0.892510	-0.056382
O11	O	0.948879	0.892507	0.056412
O12	O	0.948876	1.118091	-0.169171
O13	O	0.836085	1.118089	-0.056377
Zr14	Zr	1.125800	1.005304	0.120542
Zr15	Zr	1.125796	1.005304	-0.120508
Zr16	Zr	0.884753	1.005298	0.120542
Zr17	Zr	0.884750	1.246345	-0.120503
Zr18	Zr	1.125799	0.764257	0.120537
O19	O	1.080845	1.196904	0.075590
O20	O	1.080840	1.196903	-0.267152
O21	O	0.738107	1.196895	0.075591
O22	O	1.272447	0.813708	0.267185
O23	O	1.272442	0.813707	-0.075557
O24	O	0.929709	0.813699	0.267185
O25	O	1.272442	1.005307	-0.075553
O26	O	1.080847	1.005304	0.267189
O27	O	0.929710	1.005300	0.267189
O28	O	1.272445	1.005308	0.075586
O29	O	0.929702	1.348037	-0.267148
O30	O	1.080847	0.662565	0.267182
O31	O	1.272447	0.662570	0.267182
O32	O	1.272444	0.662569	0.075580
O33	O	0.738105	1.348032	-0.075546
O34	O	0.929705	1.348037	-0.075546
O35	O	1.061673	0.892510	0.169205
O36	O	1.174464	0.892513	0.056411
O37	O	1.061670	1.118095	-0.056378
O38	O	0.948879	1.118092	0.056416
C39	C	1.005274	0.703787	0.000011
C40	C	1.005274	0.601456	0.000009
C41	C	1.064147	0.553381	-0.058868
C42	C	1.064151	0.457222	-0.058857
C43	C	0.946400	0.457224	0.058909
C44	C	0.946403	0.553375	0.058905
C45	C	0.703761	1.005293	0.000018
C46	C	0.601431	1.005290	0.000018
C47	C	0.719171	0.769780	0.117760
C48	C	0.729964	0.652030	0.176625
C49	C	0.633812	0.652035	0.176622
C50	C	0.526858	0.769804	0.117750
C51	C	0.516064	0.887555	0.058885
C52	C	0.612225	0.887537	0.058891
C53	C	0.398325	1.123062	-0.058849
C54	C	0.494476	1.123059	-0.058854
C55	C	0.291371	1.240831	-0.117721
C56	C	0.280576	1.358585	-0.176595
C57	C	0.376737	1.358574	-0.176591
C58	C	0.483683	1.240810	-0.117720
C59	C	1.306788	1.005309	0.000016
C60	C	1.409119	1.005311	0.000016
C61	C	1.005270	1.005300	-0.301499
C62	C	1.005268	1.005299	-0.403831
C63	C	1.005275	1.306815	0.000023
C64	C	1.005275	1.409146	0.000025
C65	C	0.922013	1.005300	-0.548070
C66	C	0.922008	1.005294	-0.451915
C67	C	1.088545	1.005298	-0.451901
C68	C	1.088553	1.005294	-0.548049
C69	C	1.005279	1.005302	0.301533
C70	C	1.005281	1.005302	0.403865
C71	C	1.306787	0.703795	0.000011
C72	C	1.409118	0.601466	0.000009
C73	C	1.005279	0.703788	0.301528
C74	C	1.005280	0.601457	0.403858
C75	C	1.306792	0.703796	0.301527
C76	C	1.409124	0.601468	0.403857
C77	C	0.703757	1.306806	-0.301493
C78	C	0.601425	1.409134	-0.403823
C79	C	0.703762	1.306807	0.000023
C80	C	0.601431	1.409135	0.000025
C81	C	1.005270	1.306814	-0.301494
C82	C	1.005269	1.409144	-0.403824
C83	C	1.398318	0.553388	-0.058867
C84	C	1.494473	0.457248	-0.058873
C85	C	1.612222	0.457268	0.058881
C86	C	1.516069	0.553414	0.058880
C87	C	1.064157	0.553382	0.510809
C88	C	1.064145	0.457240	0.606956
C89	C	0.946378	0.457254	0.489184
C90	C	0.946384	0.553401	0.393041
C91	C	1.516075	0.553393	0.393057
C92	C	1.612223	0.457253	0.489211
C93	C	1.494455	0.457268	0.606960
C94	C	1.398309	0.553413	0.510808
H95	H	0.797469	0.769764	0.117759
H96	H	0.898461	0.592517	0.106855
H97	H	1.311218	0.592559	0.519610
H98	H	0.367936	1.454462	-0.224511
H99	H	1.112085	0.592524	-0.106822
N100	N	0.587397	1.240789	-0.117717
H101	H	0.633679	1.194541	-0.037972
H102	H	0.564248	1.333283	-0.163990
N103	N	0.882907	0.405366	0.122429
H104	H	0.891835	0.337161	0.113497
H105	H	0.800569	0.478797	0.091518
H106	H	1.699306	0.418115	0.480410
H107	H	0.898434	0.592547	0.305949
N108	N	1.727579	0.405429	0.122376
H109	H	1.770098	0.308914	0.181627
H110	H	1.719737	0.450571	0.159600
H111	H	1.156342	1.005294	-0.412742
H112	H	1.485670	0.418108	-0.106817
N113	N	0.832208	1.005298	-0.599930
H114	H	0.779460	1.005291	-0.554885
H115	H	0.868630	0.925215	-0.599781
H116	H	1.156365	1.005292	-0.587184
N117	N	0.845318	0.525012	0.240124
H118	H	0.904596	0.542869	0.231194
H119	H	0.854210	0.473602	0.209196
N120	N	1.527711	0.605286	0.122377
H121	H	1.610053	0.560251	0.159678
H122	H	1.490381	0.588555	0.181566
N123	N	1.282965	0.605220	-0.122362
H124	H	1.290719	0.560172	-0.159661
H125	H	1.240502	0.701738	-0.181553
N126	N	1.127678	0.605216	0.522471
H127	H	1.164973	0.560169	0.604817
H128	H	1.073623	0.701734	0.485145
H129	H	0.854205	1.005290	-0.412782
H130	H	0.642605	0.556152	0.224560
N131	N	0.165231	1.485598	-0.240092
H132	H	0.156236	1.537071	-0.209201
H133	H	0.106024	1.467632	-0.231139
N134	N	1.127646	0.405388	0.722311
H135	H	1.164955	0.450424	0.714569
H136	H	1.186831	0.308869	0.764768
H137	H	0.898429	0.418113	0.480391
H138	H	1.485664	0.418128	0.694049
N139	N	1.127652	0.405367	-0.122358
H140	H	1.164944	0.450418	-0.159666
H141	H	1.073588	0.422092	-0.181544
N142	N	0.423144	0.769825	0.117750
H143	H	0.423103	0.723590	0.197492
H144	H	0.423144	0.723627	0.084186
H145	H	1.524886	0.592519	0.305977
H146	H	0.213083	1.240827	-0.117714
