data_functionalizedCrystal
_audit_creation_method	'MofGen! by Chris Wilmer'
_symmetry_space_group_name_H-M	'P1'
_symmetry_Int_Tables_number	1
_symmetry_cell_setting	triclinic
loop_
_symmetry_equiv_pos_as_xyz
  x,y,z
_cell_length_a	17.038272
_cell_length_b	14.519731
_cell_length_c	13.596369
_cell_angle_alpha	89.993029
_cell_angle_beta	90.000447
_cell_angle_gamma	87.400205
loop_
_atom_site_label
_atom_site_type_symbol
_atom_site_fract_x
_atom_site_fract_y
_atom_site_fract_z
O1	O	1.037705	0.200288	-0.081672
O2	O	1.537705	0.700288	0.418328
O3	O	0.810069	0.197107	-0.081701
O4	O	1.310069	0.697107	0.418299
O5	O	0.929914	0.064921	-0.081677
O6	O	1.429914	0.564921	0.418323
O7	O	0.917860	0.332473	-0.081697
O8	O	1.417860	0.832473	0.418303
O9	O	0.929902	0.064913	0.081906
O10	O	1.429902	0.564913	0.581906
O11	O	0.810057	0.197099	0.081882
O12	O	1.310057	0.697099	0.581882
O13	O	1.037693	0.200279	0.081911
O14	O	1.537693	0.700279	0.581911
Zn15	Zn	0.923873	0.198688	0.107868
Zn16	Zn	1.423873	0.698688	0.607868
Zn17	Zn	0.923889	0.198699	-0.107659
Zn18	Zn	1.423889	0.698699	0.392341
O19	O	0.917848	0.332465	0.081886
O20	O	1.417848	0.832465	0.581886
C21	C	0.780930	0.194211	0.000087
C22	C	1.280930	0.694211	0.500087
C23	C	0.694122	0.185581	0.000076
C24	C	1.194122	0.685581	0.500076
C25	C	0.929343	0.030515	0.000115
C26	C	1.429343	0.530515	0.500115
C27	C	0.927651	-0.071995	0.000115
C28	C	1.427651	0.428005	0.500115
C29	C	0.926276	-0.155245	0.000112
C30	C	1.426276	0.344755	0.500112
C31	C	0.924557	-0.259685	0.000105
C32	C	1.424557	0.240315	0.500105
C33	C	0.923193	-0.342928	0.000098
C34	C	1.423193	0.157072	0.500098
C35	C	0.921475	-0.447375	0.000092
C36	C	1.421475	0.052625	0.500092
C37	C	0.644142	0.264813	0.000071
C38	C	1.144142	0.764813	0.500071
C39	C	0.562578	0.256699	0.000085
C40	C	1.062578	0.756699	0.500085
C41	C	0.530996	0.169352	0.000097
C42	C	1.030996	0.669352	0.500097
C43	C	0.580983	0.090113	0.000105
C44	C	1.080983	0.590113	0.500105
C45	C	0.662545	0.098228	0.000098
C46	C	1.162545	0.598228	0.500098
C47	C	0.285189	0.140683	0.000126
C48	C	0.785189	0.640683	0.500126
C49	C	0.203620	0.132573	0.000130
C50	C	0.703620	0.632573	0.500130
C51	C	0.185221	0.299160	0.000112
C52	C	0.685221	0.799160	0.500112
C53	C	0.266786	0.307267	0.000099
C54	C	0.766786	0.807267	0.500099
C55	C	0.316766	0.228029	0.000112
C56	C	0.816766	0.728029	0.500112
C57	C	0.447624	0.161055	0.000109
C58	C	0.947624	0.661055	0.500109
C59	C	0.400136	0.236326	0.000107
C60	C	0.900136	0.736326	0.500107
C61	C	1.066832	0.203176	0.000121
C62	C	1.566832	0.703176	0.500121
C63	C	1.153640	0.211806	0.000125
C64	C	1.653640	0.711806	0.500125
C65	C	0.918419	0.366872	0.000093
C66	C	1.418419	0.866872	0.500093
C67	C	0.920112	0.469382	0.000086
C68	C	1.420112	0.969382	0.500086
N69	N	0.923868	0.198680	0.254960
N70	N	1.423868	0.698680	0.754960
N71	N	0.923900	0.198700	-0.254751
N72	N	1.423900	0.698700	0.245249
C73	C	0.923888	0.198700	0.656251
C74	C	1.423888	0.698700	1.156251
C75	C	0.923880	0.198697	0.544600
C76	C	1.423880	0.698697	1.044600
C77	C	0.923878	0.198691	0.455609
C78	C	1.423878	0.698691	0.955609
C79	C	0.923870	0.198687	0.343951
C80	C	1.423870	0.698687	0.843951
H81	H	0.669849	0.335940	0.000060
H82	H	1.169849	0.835940	0.500060
H83	H	0.325874	0.076161	0.000137
H84	H	0.825874	0.576161	0.500137
H85	H	0.177910	0.061441	0.000139
H86	H	0.677910	0.561441	0.500139
C87	C	0.546240	-0.005970	0.000120
C88	C	1.046240	0.494030	0.500120
N89	N	0.520072	-0.078342	0.000128
N90	N	1.020072	0.421658	0.500128
H91	H	0.703240	0.033709	0.000102
H92	H	1.203240	0.533709	0.500102
C93	C	0.434879	0.332405	0.000094
C94	C	0.934879	0.832405	0.500094
N95	N	0.461054	0.404773	0.000079
N96	N	0.961054	0.904773	0.500079
C97	C	0.412876	0.064975	0.000115
C98	C	0.912876	0.564975	0.500115
N99	N	0.386700	-0.007393	0.000121
N100	N	0.886700	0.492607	0.500121
H101	H	0.521886	0.321219	0.000080
H102	H	1.021886	0.821219	0.500080
H103	H	0.292493	0.378394	0.000077
H104	H	0.792493	0.878394	0.500077
H105	H	0.144519	0.363671	0.000103
H106	H	0.644519	0.863671	0.500103
