data_functionalizedCrystal
_audit_creation_method	'MofGen! by Chris Wilmer'
_symmetry_space_group_name_H-M	'P1'
_symmetry_Int_Tables_number	1
_symmetry_cell_setting	triclinic
loop_
_symmetry_equiv_pos_as_xyz
  x,y,z
_cell_length_a	27.732048
_cell_length_b	27.732048
_cell_length_c	15.186229
_cell_angle_alpha	89.991324
_cell_angle_beta	90.002148
_cell_angle_gamma	82.642655
loop_
_atom_site_label
_atom_site_type_symbol
_atom_site_fract_x
_atom_site_fract_y
_atom_site_fract_z
O1	O	0.640926	0.057516	-0.073124
O2	O	1.140926	0.557516	0.426876
O3	O	0.500133	0.066262	-0.073152
O4	O	1.000133	0.566262	0.426848
O5	O	0.574902	-0.008508	-0.073121
O6	O	1.074902	0.491492	0.426879
O7	O	0.566157	0.132286	-0.073156
O8	O	1.066157	0.632286	0.426844
O9	O	0.574897	-0.008509	0.073336
O10	O	1.074897	0.491491	0.573336
O11	O	0.500128	0.066261	0.073305
O12	O	1.000128	0.566261	0.573305
O13	O	0.640921	0.057515	0.073333
O14	O	1.140921	0.557515	0.573333
Zn15	Zn	0.570524	0.061888	0.096572
Zn16	Zn	1.070524	0.561888	0.596572
Zn17	Zn	0.570530	0.061889	-0.096392
Zn18	Zn	1.070530	0.561889	0.403608
O19	O	0.566152	0.132285	0.073301
O20	O	1.066152	0.632285	0.573301
C21	C	0.574716	-0.026515	0.000110
C22	C	1.074716	0.473485	0.500110
C23	C	0.574164	-0.080170	0.000117
C24	C	1.074164	0.419830	0.500117
C25	C	0.482124	0.066078	0.000073
C26	C	0.982124	0.566078	0.500073
C27	C	0.428469	0.065525	0.000063
C28	C	0.928469	0.565525	0.500063
C29	C	0.614867	-0.418985	0.000080
C30	C	1.114867	0.081015	0.500080
C31	C	0.612816	-0.620645	0.000068
C32	C	1.112816	-0.120645	0.500068
O33	O	0.650037	-0.651900	0.000036
O34	O	1.150037	-0.151900	0.500036
N35	N	0.568481	-0.639768	0.000060
N36	N	1.068481	-0.139768	0.500060
C37	C	0.524656	-0.608474	0.000049
C38	C	1.024656	-0.108474	0.500049
O39	O	0.486899	-0.629367	0.000033
O40	O	0.986899	-0.129367	0.500033
C41	C	0.526707	-0.406815	0.000055
C42	C	1.026707	0.093185	0.500055
C43	C	0.571045	-0.387694	0.000072
C44	C	1.071045	0.112306	0.500072
C45	C	0.659202	-0.399864	0.000096
C46	C	1.159202	0.100136	0.500096
C47	C	0.659714	-0.349452	0.000104
C48	C	1.159714	0.150548	0.500104
C49	C	0.615892	-0.318161	0.000096
C50	C	1.115892	0.181839	0.500096
C51	C	0.571557	-0.337282	0.000080
C52	C	1.071557	0.162718	0.500080
C53	C	0.482882	-0.375521	0.000038
C54	C	0.982882	0.124479	0.500038
C55	C	0.483399	-0.325104	0.000038
C56	C	0.983399	0.174896	0.500038
C57	C	0.527737	-0.305983	0.000055
C58	C	1.027737	0.194017	0.500055
C59	C	0.528247	-0.255580	0.000080
C60	C	1.028247	0.244420	0.500080
N61	N	0.572583	-0.236456	0.000088
N62	N	1.072583	0.263544	0.500088
C63	C	0.616405	-0.267747	0.000096
C64	C	1.116405	0.232253	0.500096
C65	C	0.523582	-0.714348	0.000047
C66	C	1.023582	-0.214348	0.500047
C67	C	0.523069	-0.764762	0.000047
C68	C	1.023069	-0.264762	0.500047
C69	C	0.611230	-0.776930	0.000064
C70	C	1.111230	-0.276930	0.500064
C71	C	0.611742	-0.726514	0.000071
C72	C	1.111742	-0.226514	0.500071
C73	C	0.567917	-0.695224	0.000055
C74	C	1.067917	-0.195224	0.500055
C75	C	0.617477	-0.161878	0.000114
C76	C	1.117477	0.338122	0.500114
C77	C	0.617986	-0.111461	0.000125
C78	C	1.117986	0.388539	0.500125
C79	C	0.529825	-0.099298	0.000104
C80	C	1.029825	0.400702	0.500104
C81	C	0.529316	-0.149710	0.000097
C82	C	1.029316	0.350290	0.500097
C83	C	0.573147	-0.180999	0.000099
C84	C	1.073147	0.319001	0.500099
O85	O	0.491047	-0.224296	0.000101
O86	O	0.991047	0.275704	0.500101
O87	O	0.654156	-0.246844	0.000093
O88	O	1.154156	0.253156	0.500093
C89	C	0.614355	-0.469397	0.000072
C90	C	1.114355	0.030603	0.500072
C91	C	0.570021	-0.488518	0.000056
C92	C	1.070021	0.011482	0.500056
C93	C	0.526198	-0.457228	0.000048
C94	C	1.026198	0.042772	0.500048
C95	C	0.569508	-0.538933	0.000056
C96	C	1.069508	-0.038933	0.500056
C97	C	0.613330	-0.570223	0.000064
C98	C	1.113330	-0.070223	0.500064
C99	C	0.657665	-0.551100	0.000072
C100	C	1.157665	-0.051100	0.500072
C101	C	0.658177	-0.500688	0.000080
C102	C	1.158177	-0.000688	0.500080
C103	C	0.481863	-0.476351	0.000040
C104	C	0.981863	0.023649	0.500040
C105	C	0.481355	-0.526764	0.000033
C106	C	0.981355	-0.026764	0.500033
C107	C	0.525177	-0.558054	0.000041
C108	C	1.025177	-0.058054	0.500041
C109	C	0.089654	0.106229	0.000091
C110	C	0.589654	0.606229	0.500091
C111	C	-0.112006	0.104178	0.000099
C112	C	0.387994	0.604178	0.500099
O113	O	-0.143262	0.141398	0.000128
O114	O	0.356738	0.641398	0.500128
N115	N	-0.131130	0.059843	0.000109
N116	N	0.368870	0.559843	0.500109
C117	C	-0.099835	0.016017	0.000122
C118	C	0.400165	0.516017	0.500122
O119	O	-0.120728	-0.021740	0.000139
O120	O	0.379272	0.478260	0.500139
C121	C	0.101824	0.018068	0.000120
C122	C	0.601824	0.518068	0.500120
C123	C	0.120944	0.062407	0.000101
C124	C	0.620944	0.562407	0.500101
C125	C	0.108775	0.150563	0.000073
C126	C	0.608775	0.650563	0.500073
C127	C	0.159187	0.151075	0.000066
C128	C	0.659187	0.651075	0.500066
C129	C	0.190477	0.107253	0.000077
C130	C	0.690477	0.607253	0.500077
C131	C	0.171356	0.062919	0.000095
C132	C	0.671356	0.562919	0.500095
C133	C	0.133117	-0.025757	0.000139
C134	C	0.633117	0.474243	0.500139
C135	C	0.183535	-0.025240	0.000141
C136	C	0.683535	0.474760	0.500141
C137	C	0.202655	0.019098	0.000123
C138	C	0.702655	0.519098	0.500123
C139	C	0.253059	0.019609	0.000098
C140	C	0.753059	0.519609	0.500098
N141	N	0.272183	0.063944	0.000089
N142	N	0.772183	0.563944	0.500089
C143	C	0.240892	0.107766	0.000078
C144	C	0.740892	0.607766	0.500078
C145	C	-0.205709	0.014943	0.000121
C146	C	0.294291	0.514943	0.500121
C147	C	-0.256124	0.014430	0.000120
C148	C	0.243876	0.514430	0.500120
C149	C	-0.268291	0.102591	0.000099
C150	C	0.231709	0.602591	0.500099
C151	C	-0.217876	0.103104	0.000094
C152	C	0.282124	0.603104	0.500094
C153	C	-0.186585	0.059278	0.000112
C154	C	0.313415	0.559278	0.500112
C155	C	0.346761	0.108839	0.000063
C156	C	0.846761	0.608839	0.500063
C157	C	0.397178	0.109347	0.000052
C158	C	0.897178	0.609347	0.500052
C159	C	0.409341	0.021186	0.000078
C160	C	0.909341	0.521186	0.500078
C161	C	0.358929	0.020678	0.000084
C162	C	0.858929	0.520678	0.500084
C163	C	0.327639	0.064508	0.000079
C164	C	0.827639	0.564508	0.500079
O165	O	0.284343	-0.017592	0.000079
O166	O	0.784343	0.482408	0.500079
O167	O	0.261794	0.145518	0.000080
O168	O	0.761794	0.645518	0.500080
C169	C	0.039242	0.105716	0.000098
C170	C	0.539242	0.605716	0.500098
C171	C	0.020120	0.061382	0.000115
C172	C	0.520120	0.561382	0.500115
C173	C	0.051411	0.017560	0.000126
C174	C	0.551411	0.517560	0.500126
C175	C	-0.030294	0.060869	0.000114
C176	C	0.469706	0.560869	0.500114
C177	C	-0.061585	0.104691	0.000104
C178	C	0.438415	0.604691	0.500104
C179	C	-0.042461	0.149026	0.000094
C180	C	0.457539	0.649026	0.500094
C181	C	0.007951	0.149539	0.000087
C182	C	0.507951	0.649539	0.500087
C183	C	0.032287	-0.026775	0.000135
C184	C	0.532287	0.473225	0.500135
C185	C	-0.018125	-0.027284	0.000141
C186	C	0.481875	0.472716	0.500141
C187	C	-0.049416	0.016538	0.000131
C188	C	0.450584	0.516538	0.500131
C189	C	0.658931	0.057699	0.000106
C190	C	1.158931	0.557699	0.500106
C191	C	0.712586	0.058252	0.000110
C192	C	1.212586	0.558252	0.500110
C193	C	0.566338	0.150292	0.000068
C194	C	1.066338	0.650292	0.500068
C195	C	0.566891	0.203947	0.000055
C196	C	1.066891	0.703947	0.500055
N197	N	0.570523	0.061887	0.228265
N198	N	1.070523	0.561887	0.728265
N199	N	0.570535	0.061887	-0.228084
N200	N	1.070535	0.561887	0.271916
C201	C	0.603642	0.028790	0.454002
C202	C	1.103642	0.528790	0.954002
C203	C	0.603644	0.028789	0.546191
C204	C	1.103644	0.528789	1.046191
C205	C	0.537413	0.094985	0.546172
C206	C	1.037413	0.594985	1.046172
C207	C	0.537409	0.094984	0.453984
C208	C	1.037409	0.594984	0.953984
C209	C	0.570527	0.061886	0.407901
C210	C	1.070527	0.561886	0.907901
C211	C	0.570532	0.061887	0.592279
C212	C	1.070532	0.561887	1.092279
C213	C	0.570533	0.061886	0.692235
C214	C	1.070533	0.561886	1.192235
C215	C	0.570525	0.061887	0.307939
C216	C	1.070525	0.561887	0.807939
H217	H	0.654093	-0.095896	0.000141
H218	H	1.154093	0.404104	0.500141
H219	H	0.510440	0.121935	0.416447
H220	H	1.010440	0.621935	0.916447
C221	C	0.706953	-0.479662	0.000093
C222	C	1.206953	0.020338	0.500093
N223	N	0.743694	-0.463829	0.000100
N224	N	1.243694	0.036171	0.500100
H225	H	-0.202311	0.139207	0.000084
H226	H	0.297689	0.639207	0.500084
C227	C	0.337895	-0.028096	0.000093
C228	C	0.837895	0.471904	0.500093
N229	N	0.322056	-0.064833	0.000107
N230	N	0.822056	0.435167	0.500107
H231	H	0.653168	-0.187348	0.000112
H232	H	1.153168	0.312652	0.500112
H233	H	0.209009	-0.060929	0.000156
H234	H	0.709009	0.439071	0.500156
H235	H	0.412743	0.145454	0.000037
H236	H	0.912743	0.645454	0.500037
H237	H	-0.293777	0.138273	0.000091
H238	H	0.206223	0.638273	0.500091
C239	C	0.312350	0.157054	0.000053
C240	C	0.812350	0.657054	0.500053
N241	N	0.286432	0.193370	0.000039
N242	N	0.786432	0.693370	0.500039
H243	H	0.434827	-0.014492	0.000083
H244	H	0.934827	0.485508	0.500083
H245	H	0.695819	-0.333889	0.000114
H246	H	1.195819	0.166111	0.500114
C247	C	0.066701	-0.074986	0.000143
C248	C	0.566701	0.425014	0.500143
N249	N	0.092620	-0.111302	0.000143
N250	N	0.592620	0.388698	0.500143
H251	H	-0.271687	-0.021674	0.000122
H252	H	0.228313	0.478326	0.500122
H253	H	0.694889	-0.425336	0.000099
H254	H	1.194889	0.074664	0.500099
H255	H	0.494146	-0.073812	0.000100
H256	H	0.994146	0.426188	0.500100
H257	H	0.647846	-0.710950	0.000084
H258	H	1.147846	-0.210950	0.500084
C259	C	0.028977	0.198314	0.000077
C260	C	0.528977	0.698314	0.500077
N261	N	0.044810	0.235055	0.000074
N262	N	0.544810	0.735055	0.500074
C263	C	0.180212	0.199851	0.000065
C264	C	0.680212	0.699851	0.500065
N265	N	0.196046	0.236592	0.000071
N266	N	0.696046	0.736592	0.500071
H267	H	0.630609	0.001838	0.583724
H268	H	1.130609	0.501838	1.083724
C269	C	0.500985	0.131389	0.596872
C270	C	1.000985	0.631389	1.096872
N271	N	0.473546	0.158809	0.635058
N272	N	0.973546	0.658809	1.135058
C273	C	-0.076890	0.197231	0.000086
C274	C	0.423110	0.697231	0.500086
N275	N	-0.102825	0.233536	0.000086
N276	N	0.397175	0.733536	0.500086
C277	C	0.474293	-0.785789	0.000040
C278	C	0.974293	-0.285789	0.500040
N279	N	0.437554	-0.801624	0.000028
N280	N	0.937554	-0.301624	0.500028
H281	H	0.646911	-0.802415	0.000071
H282	H	1.146911	-0.302415	0.500071
H283	H	0.630608	0.001839	0.416483
H284	H	1.130608	0.501839	0.916483
H285	H	0.083302	0.186251	0.000068
H286	H	0.583302	0.686251	0.500068
H287	H	-0.180236	-0.020747	0.000136
H288	H	0.319764	0.479253	0.500136
C289	C	0.705870	-0.585529	0.000079
C290	C	1.205870	-0.085529	0.500079
N291	N	0.742175	-0.611464	0.000079
N292	N	1.242175	-0.111464	0.500079
H293	H	0.446777	-0.391080	0.000019
H294	H	0.946777	0.108920	0.500019
C295	C	0.475367	-0.679934	0.000031
C296	C	0.975367	-0.179934	0.500031
N297	N	0.439051	-0.654016	0.000022
N298	N	0.939051	-0.154016	0.500022
C299	C	0.480543	-0.170743	0.000084
C300	C	0.980543	0.329257	0.500084
N301	N	0.443805	-0.186582	0.000065
N302	N	0.943805	0.313418	0.500065
C303	C	0.435186	-0.290687	0.000024
C304	C	0.935186	0.209313	0.500024
N305	N	0.398872	-0.264766	0.000017
N306	N	0.898872	0.235234	0.500017
H307	H	0.445246	-0.542327	0.000027
H308	H	0.945246	-0.042327	0.500027
H309	H	0.446177	-0.450879	0.000032
H310	H	0.946177	0.049121	0.500032
C311	C	-0.039151	-0.076063	0.000167
C312	C	0.460849	0.423937	0.500167
N313	N	-0.054987	-0.112802	0.000196
N314	N	0.445013	0.387198	0.500196
H315	H	0.117558	-0.061861	0.000155
H316	H	0.617558	0.438139	0.500155
