data_functionalizedCrystal
_audit_creation_method	'MofGen! by Chris Wilmer'
_symmetry_space_group_name_H-M	'P1'
_symmetry_Int_Tables_number	1
_symmetry_cell_setting	triclinic
loop_
_symmetry_equiv_pos_as_xyz
  x,y,z
_cell_length_a	16.625548
_cell_length_b	16.625546
_cell_length_c	16.625525
_cell_angle_alpha	89.905447
_cell_angle_beta	89.938871
_cell_angle_gamma	90.023536
loop_
_atom_site_label
_atom_site_type_symbol
_atom_site_fract_x
_atom_site_fract_y
_atom_site_fract_z
Zn1	Zn	1.233003	-0.320467	-0.455899
Zn2	Zn	1.483003	-0.070467	-0.205899
Zn3	Zn	1.733003	0.179533	0.044101
Zn4	Zn	1.983003	0.429533	0.294101
Zn5	Zn	1.232811	-0.455461	-0.321061
Zn6	Zn	1.482811	-0.205461	-0.071061
Zn7	Zn	1.732811	0.044539	0.178939
Zn8	Zn	1.982811	0.294539	0.428939
Zn9	Zn	1.098070	-0.320648	-0.321079
Zn10	Zn	1.348070	-0.070648	-0.071079
Zn11	Zn	1.598070	0.179352	0.178921
Zn12	Zn	1.848070	0.429352	0.428921
Zn13	Zn	1.098136	-0.455263	-0.455851
Zn14	Zn	1.348136	-0.205263	-0.205851
Zn15	Zn	1.598136	0.044737	0.044149
Zn16	Zn	1.848136	0.294737	0.294149
O17	O	1.165505	-0.387960	-0.388472
O18	O	1.415505	-0.137960	-0.138472
O19	O	1.665505	0.112040	0.111528
O20	O	1.915505	0.362040	0.361528
O21	O	1.345810	-0.338380	-0.438025
O22	O	1.595810	-0.088380	-0.188025
O23	O	1.845810	0.161620	0.061975
O24	O	2.095810	0.411620	0.311975
O25	O	1.214829	-0.437736	-0.208230
O26	O	1.464829	-0.187736	0.041770
O27	O	1.714829	0.062264	0.291770
O28	O	1.964829	0.312264	0.541770
O29	O	1.116022	-0.207792	-0.338991
O30	O	1.366022	0.042208	-0.088991
O31	O	1.616022	0.292208	0.161009
O32	O	1.866022	0.542208	0.411009
O33	O	1.345669	-0.437560	-0.338960
O34	O	1.595669	-0.187560	-0.088960
O35	O	1.845669	0.062440	0.161040
O36	O	2.095669	0.312440	0.411040
O37	O	1.215157	-0.207658	-0.438042
O38	O	1.465157	0.042342	-0.188042
O39	O	1.715157	0.292342	0.061958
O40	O	1.965157	0.542342	0.311958
O41	O	1.115835	-0.338690	-0.208244
O42	O	1.365835	-0.088690	0.041756
O43	O	1.615835	0.161310	0.291756
O44	O	1.865835	0.411310	0.541756
O45	O	0.985246	-0.338499	-0.338944
O46	O	1.235246	-0.088499	-0.088944
O47	O	1.485246	0.161501	0.161056
O48	O	1.735246	0.411501	0.411056
O49	O	1.116134	-0.437224	-0.568690
O50	O	1.366134	-0.187224	-0.318690
O51	O	1.616134	0.062776	-0.068690
O52	O	1.866134	0.312776	0.181310
O53	O	0.985294	-0.437400	-0.437961
O54	O	1.235294	-0.187400	-0.187961
O55	O	1.485294	0.062600	0.062039
O56	O	1.735294	0.312600	0.312039
O57	O	1.215221	-0.338189	-0.568725
O58	O	1.465221	-0.088189	-0.318725
O59	O	1.715221	0.161811	-0.068725
O60	O	1.965221	0.411811	0.181275
O61	O	1.214893	-0.568267	-0.338913
O62	O	1.464893	-0.318267	-0.088913
O63	O	1.714893	-0.068267	0.161087
O64	O	1.964893	0.181733	0.411087
O65	O	1.115948	-0.568122	-0.437943
O66	O	1.365948	-0.318122	-0.187943
O67	O	1.615948	-0.068122	0.062057
O68	O	1.865948	0.181878	0.312057
C69	C	0.956014	-0.387948	-0.388450
C70	C	1.206014	-0.137948	-0.138450
C71	C	1.456014	0.112052	0.111550
C72	C	1.706014	0.362052	0.361550
C73	C	0.866393	-0.387963	-0.388459
C74	C	1.116393	-0.137963	-0.138459
C75	C	1.366393	0.112037	0.111541
C76	C	1.616393	0.362037	0.361541
C77	C	0.538217	-0.387968	-0.388494
C78	C	0.788217	-0.137968	-0.138494
C79	C	1.038217	0.112032	0.111506
C80	C	1.288217	0.362032	0.361506
C81	C	0.629526	-0.387964	-0.388482
C82	C	0.879526	-0.137964	-0.138482
C83	C	1.129526	0.112036	0.111518
C84	C	1.379526	0.362036	0.361518
C85	C	0.702302	-0.387966	-0.388476
C86	C	0.952302	-0.137966	-0.138476
C87	C	1.202302	0.112034	0.111524
C88	C	1.452302	0.362034	0.361524
C89	C	0.793617	-0.387961	-0.388465
C90	C	1.043617	-0.137961	-0.138465
C91	C	1.293617	0.112039	0.111535
C92	C	1.543617	0.362039	0.361535
C93	C	1.165429	-0.597451	-0.388439
C94	C	1.415429	-0.347451	-0.138439
C95	C	1.665429	-0.097451	0.111561
C96	C	1.915429	0.152549	0.361561
C97	C	1.165470	-0.687072	-0.388451
C98	C	1.415470	-0.437072	-0.138451
C99	C	1.665470	-0.187072	0.111549
C100	C	1.915470	0.062928	0.361549
C101	C	1.165610	-1.015247	-0.388535
C102	C	1.415610	-0.765247	-0.138535
C103	C	1.665610	-0.515247	0.111465
C104	C	1.915610	-0.265247	0.361465
C105	C	1.165569	-0.923939	-0.388514
C106	C	1.415569	-0.673939	-0.138514
C107	C	1.665569	-0.423939	0.111486
C108	C	1.915569	-0.173939	0.361486
C109	C	1.165539	-0.851162	-0.388493
C110	C	1.415539	-0.601162	-0.138493
C111	C	1.665539	-0.351162	0.111507
C112	C	1.915539	-0.101162	0.361507
C113	C	1.165499	-0.759848	-0.388472
C114	C	1.415499	-0.509848	-0.138472
C115	C	1.665499	-0.259848	0.111528
C116	C	1.915499	-0.009848	0.361528
C117	C	1.375814	-0.387972	-0.388495
C118	C	1.625814	-0.137972	-0.138495
C119	C	1.875814	0.112028	0.111505
C120	C	2.125814	0.362028	0.361505
C121	C	1.465435	-0.387977	-0.388505
C122	C	1.715435	-0.137977	-0.138505
C123	C	1.965435	0.112023	0.111495
C124	C	2.215435	0.362023	0.361495
C125	C	1.165706	-0.387664	-0.598782
C126	C	1.415706	-0.137664	-0.348782
C127	C	1.665706	0.112336	-0.098782
C128	C	1.915706	0.362336	0.151218
C129	C	1.165792	-0.387538	-0.688403
C130	C	1.415792	-0.137538	-0.438403
C131	C	1.665792	0.112462	-0.188403
C132	C	1.915792	0.362462	0.061597
C133	C	1.165604	-0.177651	-0.388524
C134	C	1.415604	0.072349	-0.138524
C135	C	1.665604	0.322349	0.111476
C136	C	1.915604	0.572349	0.361476
C137	C	1.165646	-0.088030	-0.388546
C138	C	1.415646	0.161970	-0.138546
C139	C	1.665646	0.411970	0.111454
C140	C	1.915646	0.661970	0.361454
C141	C	1.165351	-0.388196	-0.178981
C142	C	1.415351	-0.138196	0.071019
C143	C	1.665351	0.111804	0.321019
C144	C	1.915351	0.361804	0.571019
C145	C	1.165421	-0.388095	-0.089360
C146	C	1.415421	-0.138095	0.160640
C147	C	1.665421	0.111905	0.410640
C148	C	1.915421	0.361905	0.660640
C149	C	1.165492	-0.388000	-0.016578
C150	C	1.415492	-0.138000	0.233422
C151	C	1.665492	0.112000	0.483422
C152	C	1.915492	0.362000	0.733422
C153	C	1.165578	-0.387874	0.074730
C154	C	1.415578	-0.137874	0.324730
C155	C	1.665578	0.112126	0.574730
C156	C	1.915578	0.362126	0.824730
C157	C	1.165643	-0.387769	0.147506
C158	C	1.415643	-0.137769	0.397506
C159	C	1.665643	0.112231	0.647506
C160	C	1.915643	0.362231	0.897506
C161	C	1.165728	-0.387643	0.238820
C162	C	1.415728	-0.137643	0.488820
C163	C	1.665728	0.112357	0.738820
C164	C	1.915728	0.362357	0.988820
