data_functionalizedCrystal
_audit_creation_method	'MofGen! by Chris Wilmer'
_symmetry_space_group_name_H-M	'P1'
_symmetry_Int_Tables_number	1
_symmetry_cell_setting	triclinic
loop_
_symmetry_equiv_pos_as_xyz
  x,y,z
_cell_length_a	18.215407
_cell_length_b	12.827892
_cell_length_c	18.215399
_cell_angle_alpha	89.976162
_cell_angle_beta	89.983101
_cell_angle_gamma	90.012851
loop_
_atom_site_label
_atom_site_type_symbol
_atom_site_fract_x
_atom_site_fract_y
_atom_site_fract_z
Zn1	Zn	1.125120	-0.416115	-0.416079
Zn2	Zn	1.625120	0.083885	0.083921
Zn3	Zn	1.125049	-0.590874	-0.293022
Zn4	Zn	1.625049	-0.090874	0.206978
Zn5	Zn	1.002053	-0.416140	-0.293033
Zn6	Zn	1.502053	0.083860	0.206967
Zn7	Zn	1.002039	-0.590807	-0.416053
Zn8	Zn	1.502039	-0.090807	0.083947
O9	O	1.063566	-0.503484	-0.354547
O10	O	1.563566	-0.003484	0.145453
O11	O	1.228095	-0.439314	-0.399762
O12	O	1.728095	0.060686	0.100238
O13	O	1.108710	-0.567734	-0.190039
O14	O	1.608710	-0.067734	0.309961
O15	O	1.018414	-0.269900	-0.309371
O16	O	1.518414	0.230100	0.190629
O17	O	1.228043	-0.567709	-0.309352
O18	O	1.728043	-0.067709	0.190648
O19	O	1.108831	-0.269882	-0.399773
O20	O	1.608831	0.230118	0.100227
O21	O	1.018345	-0.439357	-0.190047
O22	O	1.518345	0.060643	0.309953
O23	O	0.899067	-0.439292	-0.309345
O24	O	1.399067	0.060708	0.190655
O25	O	1.018390	-0.567595	-0.519041
O26	O	1.518390	-0.067595	-0.019041
O27	O	0.899057	-0.567619	-0.399728
O28	O	1.399057	-0.067619	0.100272
O29	O	1.108818	-0.439249	-0.519060
O30	O	1.608818	0.060751	-0.019060
O31	O	1.108696	-0.737101	-0.309327
O32	O	1.608696	-0.237101	0.190673
O33	O	1.018321	-0.737052	-0.399717
O34	O	1.518321	-0.237052	0.100283
C35	C	0.872359	-0.503452	-0.354535
C36	C	1.372359	-0.003452	0.145465
C37	C	0.790560	-0.503463	-0.354548
C38	C	1.290560	-0.003463	0.145452
C39	C	0.525517	-0.570413	-0.401544
C40	C	1.025517	-0.070413	0.098456
C41	C	0.602376	-0.570404	-0.401541
C42	C	1.102376	-0.070404	0.098459
C43	C	0.602355	-0.436578	-0.307562
C44	C	1.102355	0.063422	0.192438
C45	C	0.525498	-0.436593	-0.307563
C46	C	1.025498	0.063407	0.192437
C47	C	0.487081	-0.503509	-0.354558
C48	C	0.987081	-0.003509	0.145442
C49	C	0.640797	-0.503485	-0.354554
C50	C	1.140797	-0.003485	0.145446
C51	C	0.724131	-0.503475	-0.354550
C52	C	1.224131	-0.003475	0.145450
C53	C	0.403742	-0.503521	-0.354561
C54	C	0.903742	-0.003521	0.145439
C55	C	1.063519	-0.774994	-0.354534
C56	C	1.563519	-0.274994	0.145466
C57	C	1.063567	-0.891147	-0.354553
C58	C	1.563567	-0.391147	0.145447
C59	C	1.108341	-0.942921	-0.309874
C60	C	1.608341	-0.442921	0.190126
C61	C	1.108391	-1.062972	-0.309893
C62	C	1.608391	-0.562972	0.190107
C63	C	1.255518	-0.503517	-0.354559
C64	C	1.755518	-0.003517	0.145441
C65	C	1.337317	-0.503531	-0.354564
C66	C	1.837317	-0.003531	0.145436
C67	C	1.063610	-0.503412	-0.546500
C68	C	1.563610	-0.003412	-0.046500
C69	C	1.063629	-0.503381	-0.628299
C70	C	1.563629	-0.003381	-0.128299
C71	C	1.063632	-0.230914	-0.354576
C72	C	1.563632	0.269086	0.145424
C73	C	1.063660	-0.114760	-0.354588
C74	C	1.563660	0.385240	0.145412
C75	C	1.110732	-0.436489	-0.816504
C76	C	1.610732	0.063511	-0.316504
C77	C	1.110741	-0.436459	-0.893363
C78	C	1.610741	0.063541	-0.393363
C79	C	1.016579	-0.570111	-0.893331
C80	C	1.516579	-0.070111	-0.393331
C81	C	1.016567	-0.570136	-0.816474
C82	C	1.516567	-0.070136	-0.316474
C83	C	1.063648	-0.503326	-0.778062
C84	C	1.563648	-0.003326	-0.278062
C85	C	1.063668	-0.503271	-0.931778
C86	C	1.563668	-0.003271	-0.431778
C87	C	1.063678	-0.503239	-1.015112
C88	C	1.563678	-0.003239	-0.515112
C89	C	1.063638	-0.503357	-0.694723
C90	C	1.563638	-0.003357	-0.194723
C91	C	1.063563	-0.503480	-0.163341
C92	C	1.563563	-0.003480	0.336659
C93	C	1.063687	-0.503216	-0.081542
C94	C	1.563687	-0.003216	0.418458
H95	H	0.494203	-0.382109	-0.269297
H96	H	0.994203	0.117891	0.230703
H97	H	1.025323	-1.070243	-0.392839
H98	H	1.525323	-0.570243	0.107161
F99	F	1.013515	-0.949372	-0.404573
F100	F	1.513515	-0.449372	0.095427
F101	F	0.643279	-0.641616	-0.451549
F102	F	1.143279	-0.141616	0.048451
F103	F	1.158401	-0.884696	-0.259862
F104	F	1.658401	-0.384696	0.240138
F105	F	1.160837	-0.365382	-0.775626
F106	F	1.660837	0.134618	-0.275626
H107	H	1.149080	-0.382031	-0.924659
H108	H	1.649080	0.117969	-0.424659
H109	H	1.146721	-1.107497	-0.271640
H110	H	1.646721	-0.607497	0.228360
F111	F	0.484633	-0.641634	-0.451559
F112	F	0.984633	-0.141634	0.048441
F113	F	0.966478	-0.641215	-0.934218
F114	F	1.466478	-0.141215	-0.434218
H115	H	0.633644	-0.382095	-0.269301
H116	H	1.133644	0.117905	0.230699
F117	F	0.966448	-0.641272	-0.775559
F118	F	1.466448	-0.141272	-0.275559
