data_functionalizedCrystal
_audit_creation_method	'MofGen! by Chris Wilmer'
_symmetry_space_group_name_H-M	'P1'
_symmetry_Int_Tables_number	1
_symmetry_cell_setting	triclinic
loop_
_symmetry_equiv_pos_as_xyz
  x,y,z
_cell_length_a	15.995350
_cell_length_b	15.995350
_cell_length_c	14.472310
_cell_angle_alpha	90.001162
_cell_angle_beta	89.990621
_cell_angle_gamma	83.492375
loop_
_atom_site_label
_atom_site_type_symbol
_atom_site_fract_x
_atom_site_fract_y
_atom_site_fract_z
O1	O	1.110997	0.107921	-0.076758
O2	O	0.867221	0.121248	-0.076776
O3	O	0.995773	-0.007303	-0.076766
O4	O	0.982445	0.236472	-0.076769
O5	O	0.995740	-0.007296	0.076916
O6	O	0.867188	0.121256	0.076906
O7	O	1.110963	0.107928	0.076924
Cu8	Cu	0.989073	0.114593	0.090947
Cu9	Cu	0.989112	0.114584	-0.090800
O10	O	0.982412	0.236480	0.076913
C11	C	0.836010	0.120701	0.000062
C12	C	0.743060	0.119049	0.000055
C13	C	0.405312	0.113117	0.000074
C14	C	0.452746	0.021565	0.000418
C15	C	0.549436	0.023217	0.000065
C16	C	0.572873	0.116060	0.000065
C17	C	0.531804	0.161212	-0.087692
C18	C	0.435169	0.158912	-0.087759
C19	C	0.434792	0.160812	0.087007
C20	C	0.531737	0.160790	0.088160
C21	C	0.667570	0.117727	0.000057
C22	C	0.310614	0.111452	0.000076
C23	C	0.995205	-0.038494	0.000073
C24	C	0.993553	-0.131444	0.000068
C25	C	0.987621	-0.469192	0.000071
C26	C	0.896069	-0.421758	-0.000281
C27	C	0.897721	-0.325068	0.000066
C28	C	0.990564	-0.301631	0.000069
C29	C	1.035701	-0.342705	0.087831
C30	C	1.033401	-0.439340	0.087904
C31	C	1.035330	-0.439707	-0.086861
C32	C	1.035309	-0.342762	-0.088021
C33	C	0.992231	-0.206934	0.000071
C34	C	0.985956	-0.563890	0.000075
C35	C	1.142175	0.108476	0.000083
C36	C	1.235125	0.110127	0.000084
C37	C	0.982980	0.267671	0.000072
C38	C	0.984631	0.360621	0.000071
N39	N	0.989051	0.114598	0.218778
N40	N	0.989140	0.114572	-0.218631
C41	C	0.989111	0.114581	0.592869
C42	C	0.920095	0.183135	0.553698
C43	C	0.920254	0.183385	0.446610
C44	C	0.989081	0.114590	0.407278
C45	C	1.076445	0.133671	0.446122
C46	C	1.076057	0.134159	0.553243
C47	C	0.971542	0.026741	0.553398
C48	C	0.969538	0.027327	0.446270
C49	C	0.989069	0.114593	0.302390
C50	C	0.989128	0.114579	0.697757
H51	H	0.560193	0.129845	-0.153002
H52	H	1.000459	-0.457639	0.153505
H53	H	0.545930	0.229421	-0.090955
C54	C	0.799188	0.236783	0.357613
C55	C	0.832573	0.168079	0.411165
H56	H	0.745052	0.227340	0.335736
H57	H	0.794619	0.286382	0.394212
H58	H	0.835245	0.243210	0.306561
H59	H	0.796518	0.161656	0.462221
H60	H	0.837137	0.118466	0.374564
H61	H	0.547101	0.228494	0.093461
C62	C	1.140353	-0.530382	-0.168405
C63	C	1.126454	-0.482582	-0.087667
H64	H	1.196608	-0.556848	-0.168897
H65	H	1.102536	-0.572044	-0.170324
H66	H	1.131355	-0.494664	-0.220749
H67	H	1.135445	-0.518301	-0.035322
H68	H	1.164283	-0.440914	-0.085739
H69	H	0.859490	-0.440293	-0.063217
H70	H	1.103014	-0.327400	-0.093317
C71	C	0.851241	-0.199327	-0.084722
C72	C	0.849836	-0.286697	-0.084870
H73	H	0.821684	-0.175644	-0.137165
H74	H	0.825120	-0.176236	-0.030040
H75	H	0.907875	-0.186849	-0.086876
H76	H	0.793202	-0.299175	-0.082708
H77	H	0.875954	-0.309795	-0.139566
H78	H	0.859626	-0.441349	0.062299
H79	H	0.577852	-0.012275	0.062973
H80	H	0.414242	0.130885	0.153524
H81	H	0.434210	-0.015027	0.063352
H82	H	0.433166	-0.014865	-0.062168
H83	H	0.577308	-0.012521	-0.062951
H84	H	0.931159	0.247952	0.580608
H85	H	0.861973	-0.297200	0.063079
H86	H	1.129018	0.086196	0.579154
H87	H	0.403031	0.228313	0.087600
C88	C	0.482684	0.090126	-0.228803
C89	C	0.410466	0.114446	-0.176310
H90	H	0.467435	0.062668	-0.283468
H91	H	0.508943	0.138483	-0.244834
H92	H	0.520644	0.052719	-0.193709
H93	H	0.372508	0.151858	-0.211402
H94	H	0.384194	0.066082	-0.160280
C95	C	1.122964	-0.570281	0.093428
C96	C	1.124134	-0.482881	0.093305
H97	H	1.178978	-0.597157	0.096763
H98	H	1.091950	-0.586087	0.145313
H99	H	1.097181	-0.586874	0.038281
H100	H	1.149912	-0.466288	0.148455
H101	H	1.155160	-0.467069	0.041415
C102	C	0.452629	0.305835	-0.096319
C103	C	0.391629	0.249646	-0.093157
H104	H	0.425751	0.361848	-0.099664
H105	H	0.486348	0.299502	-0.042208
H106	H	0.487150	0.294269	-0.149239
H107	H	0.357112	0.261207	-0.040233
H108	H	0.357896	0.255983	-0.147274
C109	C	0.944385	0.324074	0.487756
C110	C	0.935410	0.271377	0.411996
H111	H	0.953751	0.378396	0.466385
H112	H	0.894619	0.328253	0.524071
H113	H	0.990885	0.301315	0.524182
H114	H	0.888906	0.294133	0.375573
H115	H	0.985182	0.267201	0.375665
C116	C	1.081896	-0.081093	0.511649
C117	C	1.039478	-0.042134	0.587596
H118	H	1.123840	-0.123604	0.532768
H119	H	1.042987	-0.105674	0.473509
H120	H	1.107639	-0.040421	0.477173
H121	H	1.013729	-0.082804	0.622069
H122	H	1.078392	-0.017553	0.625752
C123	C	1.145146	-0.274602	0.015959
C124	C	1.127779	-0.323633	0.092252
H125	H	1.201989	-0.262824	0.018693
H126	H	1.136398	-0.304407	-0.039326
H127	H	1.108837	-0.223317	0.016780
H128	H	1.164084	-0.374921	0.091428
H129	H	1.136535	-0.293828	0.147551
H130	H	1.004324	-0.314320	0.153137
H131	H	1.091540	0.198219	0.578220
H132	H	1.005412	-0.460250	-0.153379
C133	C	0.994148	-0.218835	-0.178040
C134	C	0.990824	-0.305910	-0.175672
H135	H	0.966687	-0.196083	-0.232154
H136	H	0.966796	-0.193724	-0.124993
H137	H	1.051217	-0.207647	-0.178595
H138	H	0.933754	-0.317098	-0.175110
H139	H	1.018173	-0.331029	-0.228733
C140	C	0.503859	0.085975	0.226588
C141	C	0.568585	0.116287	0.175804
H142	H	0.526615	0.058495	0.280690
H143	H	0.463579	0.131632	0.243572
H144	H	0.477498	0.047230	0.189947
H145	H	0.594943	0.155038	0.212443
H146	H	0.608880	0.070624	0.158822
C147	C	0.838857	0.096948	0.645622
C148	C	0.832142	0.168055	0.588513
H149	H	0.784557	0.087642	0.667125
H150	H	0.862614	0.049277	0.611625
H151	H	0.873944	0.105708	0.696858
H152	H	0.797059	0.159292	0.537274
H153	H	0.808373	0.215737	0.622511
H154	H	1.092297	0.197002	0.419285
H155	H	1.129029	0.085068	0.420643
C156	C	0.882659	0.005008	0.315298
C157	C	0.882780	0.007775	0.412002
H158	H	0.829099	-0.007064	0.294142
H159	H	0.894122	0.057863	0.291496
H160	H	0.924668	-0.037662	0.294675
H161	H	0.840776	0.050450	0.432625
H162	H	0.871307	-0.045087	0.435813
H163	H	0.909219	0.008392	0.580461
H164	H	1.016541	-0.026079	0.419500
