data_functionalizedCrystal
_audit_creation_method	'MofGen! by Chris Wilmer'
_symmetry_space_group_name_H-M	'P1'
_symmetry_Int_Tables_number	1
_symmetry_cell_setting	triclinic
loop_
_symmetry_equiv_pos_as_xyz
  x,y,z
_cell_length_a	14.519709
_cell_length_b	15.995292
_cell_length_c	12.996460
_cell_angle_alpha	89.997047
_cell_angle_beta	90.000034
_cell_angle_gamma	83.574380
loop_
_atom_site_label
_atom_site_type_symbol
_atom_site_fract_x
_atom_site_fract_y
_atom_site_fract_z
O1	O	1.223644	0.109763	-0.085425
O2	O	1.473644	0.359763	0.164575
O3	O	1.723644	0.609763	0.414575
O4	O	1.973644	0.859763	0.664575
O5	O	0.955141	0.122689	-0.085456
O6	O	1.205141	0.372689	0.164544
O7	O	1.455141	0.622689	0.414544
O8	O	1.705141	0.872689	0.664544
O9	O	1.096760	-0.005654	-0.085441
O10	O	1.346760	0.244346	0.164559
O11	O	1.596760	0.494346	0.414559
O12	O	1.846760	0.744346	0.664559
O13	O	1.082025	0.238106	-0.085440
O14	O	1.332025	0.488106	0.164560
O15	O	1.582025	0.738106	0.414560
O16	O	1.832025	0.988106	0.664560
O17	O	1.096745	-0.005661	0.085692
O18	O	1.346745	0.244339	0.335692
O19	O	1.596745	0.494339	0.585692
O20	O	1.846745	0.744339	0.835692
O21	O	0.955126	0.122682	0.085678
O22	O	1.205126	0.372682	0.335678
O23	O	1.455126	0.622682	0.585678
O24	O	1.705126	0.872682	0.835678
O25	O	1.223629	0.109756	0.085708
O26	O	1.473629	0.359756	0.335708
O27	O	1.723629	0.609756	0.585708
O28	O	1.973629	0.859756	0.835708
Cu29	Cu	1.089376	0.116218	0.101319
Cu30	Cu	1.339376	0.366218	0.351319
Cu31	Cu	1.589376	0.616218	0.601319
Cu32	Cu	1.839376	0.866218	0.851319
Cu33	Cu	1.089394	0.116227	-0.101067
Cu34	Cu	1.339394	0.366227	0.148933
Cu35	Cu	1.589394	0.616227	0.398933
Cu36	Cu	1.839394	0.866227	0.648933
O37	O	1.082010	0.238099	0.085694
O38	O	1.332010	0.488099	0.335694
O39	O	1.582010	0.738099	0.585694
O40	O	1.832010	0.988099	0.835694
C41	C	0.920775	0.122083	0.000107
C42	C	1.170775	0.372083	0.250107
C43	C	1.420775	0.622083	0.500107
C44	C	1.670775	0.872083	0.750107
C45	C	0.818397	0.120278	0.000095
C46	C	1.068397	0.370278	0.250095
C47	C	1.318397	0.620278	0.500095
C48	C	1.568397	0.870278	0.750095
C49	C	0.443515	0.113632	0.000142
C50	C	0.693515	0.363632	0.250142
C51	C	0.943515	0.613632	0.500142
C52	C	1.193515	0.863632	0.750142
C53	C	0.547819	0.115478	0.000128
C54	C	0.797819	0.365478	0.250128
C55	C	1.047819	0.615478	0.500128
C56	C	1.297819	0.865478	0.750128
C57	C	0.630953	0.116955	0.000117
C58	C	0.880953	0.366955	0.250117
C59	C	1.130953	0.616955	0.500117
C60	C	1.380953	0.866955	0.750117
C61	C	0.735264	0.118801	0.000106
C62	C	0.985264	0.368801	0.250106
C63	C	1.235264	0.618801	0.500106
C64	C	1.485264	0.868801	0.750106
C65	C	1.096153	-0.036854	0.000123
C66	C	1.346153	0.213146	0.250123
C67	C	1.596153	0.463146	0.500123
C68	C	1.846153	0.713146	0.750123
C69	C	1.094355	-0.129810	0.000115
C70	C	1.344355	0.120190	0.250115
C71	C	1.594355	0.370190	0.500115
C72	C	1.844355	0.620190	0.750115
C73	C	1.087745	-0.467558	0.000124
C74	C	1.337745	-0.217558	0.250124
C75	C	1.587745	0.032442	0.500124
C76	C	1.837745	0.282442	0.750124
C77	C	1.189962	-0.444093	0.000518
C78	C	1.439962	-0.194093	0.250518
C79	C	1.689962	0.055907	0.500518
C80	C	1.939962	0.305907	0.750518
C81	C	1.191905	-0.347414	0.000128
C82	C	1.441905	-0.097414	0.250128
C83	C	1.691905	0.152586	0.500128
C84	C	1.941905	0.402586	0.750128
C85	C	1.091025	-0.299997	0.000120
C86	C	1.341025	-0.049997	0.250120
C87	C	1.591025	0.200003	0.500120
C88	C	1.841025	0.450003	0.750120
C89	C	1.039930	-0.329171	-0.097609
C90	C	1.289930	-0.079171	0.152391
C91	C	1.539930	0.170829	0.402391
C92	C	1.789930	0.420829	0.652391
C93	C	1.038699	-0.425963	-0.097687
C94	C	1.288699	-0.175963	0.152313
C95	C	1.538699	0.074037	0.402313
C96	C	1.788699	0.324037	0.652313
C97	C	1.036595	-0.425831	0.096924
C98	C	1.286595	-0.175831	0.346924
C99	C	1.536595	0.074169	0.596924
C100	C	1.786595	0.324169	0.846924
C101	C	1.040383	-0.329333	0.098212
C102	C	1.290383	-0.079333	0.348212
C103	C	1.540383	0.170667	0.598212
C104	C	1.790383	0.420667	0.848212
C105	C	1.092873	-0.205298	0.000114
C106	C	1.342873	0.044702	0.250114
C107	C	1.592873	0.294702	0.500114
C108	C	1.842873	0.544702	0.750114
C109	C	1.085894	-0.562257	0.000122
C110	C	1.335894	-0.312257	0.250122
C111	C	1.585894	-0.062257	0.500122
C112	C	1.835894	0.187743	0.750122
C113	C	1.257995	0.110362	0.000143
C114	C	1.507995	0.360362	0.250143
C115	C	1.757995	0.610362	0.500143
C116	C	2.007995	0.860362	0.750143
C117	C	1.360373	0.112167	0.000149
C118	C	1.610373	0.362167	0.250149
C119	C	1.860373	0.612167	0.500149
C120	C	2.110373	0.862167	0.750149
C121	C	1.082617	0.269299	0.000127
C122	C	1.332617	0.519299	0.250127
C123	C	1.582617	0.769299	0.500127
C124	C	1.832617	1.019299	0.750127
C125	C	1.084415	0.362254	0.000129
C126	C	1.334415	0.612254	0.250129
C127	C	1.584415	0.862254	0.500129
C128	C	1.834415	1.112254	0.750129
N129	N	1.089371	0.116212	0.243666
N130	N	1.339371	0.366212	0.493666
N131	N	1.589371	0.616212	0.743666
N132	N	1.839371	0.866212	0.993666
N133	N	1.089407	0.116226	-0.243414
N134	N	1.339407	0.366226	0.006586
N135	N	1.589407	0.616226	0.256586
N136	N	1.839407	0.866226	0.506586
C137	C	1.089393	0.116227	0.663480
C138	C	1.339393	0.366227	0.913480
C139	C	1.589393	0.616227	1.163480
C140	C	1.839393	0.866227	1.413480
C141	C	1.089384	0.116226	0.546675
C142	C	1.339384	0.366226	0.796675
C143	C	1.589384	0.616226	1.046675
C144	C	1.839384	0.866226	1.296675
C145	C	1.089382	0.116220	0.453577
C146	C	1.339382	0.366220	0.703577
C147	C	1.589382	0.616220	0.953577
C148	C	1.839382	0.866220	1.203577
C149	C	1.089373	0.116217	0.336764
C150	C	1.339373	0.366217	0.586764
C151	C	1.589373	0.616217	0.836764
C152	C	1.839373	0.866217	1.086764
H153	H	1.231922	-0.328332	0.070183
H154	H	1.481922	-0.078332	0.320183
H155	H	1.731922	0.171668	0.570183
H156	H	1.981922	0.421668	0.820183
H157	H	1.229355	-0.472034	0.070603
H158	H	1.479355	-0.222034	0.320603
H159	H	1.729355	0.027966	0.570603
H160	H	1.979355	0.277966	0.820603
H161	H	1.229149	-0.473049	-0.069166
H162	H	1.479149	-0.223049	0.180834
H163	H	1.729149	0.026951	0.430834
H164	H	1.979149	0.276951	0.680834
H165	H	1.232170	-0.328946	-0.070041
H166	H	1.482170	-0.078946	0.179959
H167	H	1.732170	0.171054	0.429959
H168	H	1.982170	0.421054	0.679959
H169	H	1.068779	-0.453875	0.171001
H170	H	1.318779	-0.203875	0.421001
H171	H	1.568779	0.046125	0.671001
H172	H	1.818779	0.296125	0.921001
H173	H	1.074098	-0.452723	-0.170734
H174	H	1.324098	-0.202723	0.079266
H175	H	1.574098	0.047277	0.329266
H176	H	1.824098	0.297277	0.579266
H177	H	0.963753	-0.440625	-0.102121
H178	H	1.213753	-0.190625	0.147879
H179	H	1.463753	0.059375	0.397879
H180	H	1.713753	0.309375	0.647879
H181	H	0.965696	-0.297414	-0.101248
H182	H	1.215696	-0.047414	0.148752
H183	H	1.465696	0.202586	0.398752
H184	H	1.715696	0.452586	0.648752
H185	H	1.077588	-0.310715	0.170511
H186	H	1.327588	-0.060715	0.420511
H187	H	1.577588	0.189285	0.670511
H188	H	1.827588	0.439285	0.920511
H189	H	0.966750	-0.296474	0.104108
H190	H	1.216750	-0.046474	0.354108
H191	H	1.466750	0.203526	0.604108
H192	H	1.716750	0.453526	0.854108
H193	H	1.075424	-0.309054	-0.170331
H194	H	1.325424	-0.059054	0.079669
H195	H	1.575424	0.190946	0.329669
H196	H	1.825424	0.440946	0.579669
H197	H	0.961356	-0.439934	0.097576
H198	H	1.211356	-0.189934	0.347576
H199	H	1.461356	0.060066	0.597576
H200	H	1.711356	0.310066	0.847576
