data_functionalizedCrystal
_audit_creation_method	'MofGen! by Chris Wilmer'
_symmetry_space_group_name_H-M	'P1'
_symmetry_Int_Tables_number	1
_symmetry_cell_setting	triclinic
loop_
_symmetry_equiv_pos_as_xyz
  x,y,z
_cell_length_a	10.489741
_cell_length_b	14.750779
_cell_length_c	15.538191
_cell_angle_alpha	97.569385
_cell_angle_beta	114.094366
_cell_angle_gamma	102.775709
loop_
_atom_site_label
_atom_site_type_symbol
_atom_site_fract_x
_atom_site_fract_y
_atom_site_fract_z
O1	O	1.594061	-0.079758	-0.152656
O2	O	1.216946	-0.079773	-0.165096
O3	O	1.478910	-0.079767	-0.022245
O4	O	1.332097	-0.079764	-0.295507
O5	O	1.552962	0.079885	0.018133
O6	O	1.290998	0.079879	-0.124718
O7	O	1.668113	0.079893	-0.112279
Zn8	Zn	1.491313	0.105235	-0.112088
Zn9	Zn	1.393747	-0.105114	-0.165287
O10	O	1.406149	0.079888	-0.255129
C11	C	1.206886	0.000051	-0.143968
C12	C	1.066590	0.000046	-0.141160
N13	N	1.557909	0.248792	-0.075780
N14	N	1.327164	-0.248671	-0.201587
C15	C	1.041668	0.000054	-0.050267
C16	C	0.892617	-0.078661	-0.113110
C17	C	0.965650	0.078744	-0.073323
C18	C	0.919357	-0.078733	-0.204057
C19	C	0.992438	0.078741	-0.164239
C20	C	0.843375	0.000008	-0.227154
C21	C	1.678172	0.000067	-0.133407
C22	C	1.818465	0.000067	-0.136217
C23	C	1.531296	0.000056	0.032934
C24	C	1.577046	0.000048	0.137196
C25	C	1.141189	0.600601	-0.302948
C26	C	1.187862	0.701101	-0.277512
C27	C	1.419845	0.701069	-0.151065
C28	C	1.373189	0.600567	-0.176487
C29	C	1.233860	0.550341	-0.252430
C30	C	1.465860	0.550306	-0.125969
C31	C	1.419210	0.449813	-0.151393
C32	C	1.279889	0.399580	-0.227335
C33	C	1.187210	0.449848	-0.277854
C34	C	1.605192	0.600534	-0.050031
C35	C	1.697863	0.550273	0.000487
C36	C	1.651209	0.449778	-0.024932
C37	C	1.511888	0.399545	-0.100874
C38	C	1.743888	0.399511	0.025587
C39	C	1.697238	0.299017	0.000163
C40	C	1.465238	0.299052	-0.126298
C41	C	1.353763	0.000063	-0.310310
C42	C	1.308009	0.000064	-0.414572
C43	C	1.122490	0.000052	0.428071
C44	C	1.165517	0.000056	0.526046
C45	C	1.407528	0.000064	0.546849
C46	C	1.364520	0.000056	0.448873
C47	C	1.221999	0.000051	0.389491
C48	C	1.464028	0.000055	0.410293
C49	C	1.421025	0.000051	0.312327
C50	C	1.278512	0.000049	0.252940
C51	C	1.178996	0.000047	0.291525
C52	C	1.606551	0.000067	0.469678
C53	C	1.706060	0.000065	0.431099
C54	C	1.663054	0.000055	0.333129
C55	C	1.520541	0.000053	0.273742
C56	C	1.762570	0.000057	0.294544
C57	C	1.719567	0.000053	0.196577
C58	C	1.477538	0.000049	0.175775
H59	H	1.126836	-0.000046	0.024426
H60	H	1.036084	0.145294	-0.185834
C61	C	1.056035	0.000051	0.568477
N62	N	0.973574	0.000048	0.600436
H63	H	1.857336	0.440418	0.087414
C64	C	0.833710	-0.168561	-0.083891
N65	N	0.789350	-0.236271	-0.061876
H66	H	1.641556	0.000061	0.549446
H67	H	1.533290	0.741974	-0.089234
C68	C	1.022215	0.000040	0.226199
N69	N	0.904135	0.000039	0.176996
C70	C	0.990214	0.168647	0.001390
N71	N	1.008722	0.236359	0.057669
H72	H	1.878615	0.000071	0.342909
C73	C	0.894573	-0.168742	-0.278728
N74	N	0.875912	-0.236538	-0.334965
H75	H	1.523571	0.000072	0.595211
H76	H	1.811308	0.591179	0.062318
C77	C	1.311935	0.243798	-0.209801
N78	N	1.196463	0.202181	-0.272682
H79	H	0.758369	-0.000034	-0.301961
H80	H	1.800598	0.000054	0.165166
H81	H	1.241911	0.317752	-0.248037
C82	C	1.033907	0.394593	-0.361357
N83	N	0.918435	0.352976	-0.424238
H84	H	1.027728	0.559706	-0.364782
C85	C	1.085902	0.756385	-0.333090
N86	N	1.009108	0.798023	-0.374951
H87	H	1.643171	0.682362	-0.029337
H88	H	1.772702	0.258095	0.041300
H89	H	1.361480	0.000038	0.127421
H90	H	1.243504	0.000052	0.173171
H91	H	1.006433	0.000040	0.379716
H92	H	1.822102	0.000073	0.479461
