data_functionalizedCrystal
_audit_creation_method	'MofGen! by Chris Wilmer'
_symmetry_space_group_name_H-M	'P1'
_symmetry_Int_Tables_number	1
_symmetry_cell_setting	triclinic
loop_
_symmetry_equiv_pos_as_xyz
  x,y,z
_cell_length_a	18.215407
_cell_length_b	21.295417
_cell_length_c	18.215399
_cell_angle_alpha	89.968895
_cell_angle_beta	89.982632
_cell_angle_gamma	90.027146
loop_
_atom_site_label
_atom_site_type_symbol
_atom_site_fract_x
_atom_site_fract_y
_atom_site_fract_z
Zn1	Zn	1.125047	-0.250659	-0.416051
Zn2	Zn	1.458381	0.082675	-0.082718
Zn3	Zn	1.791714	0.416008	0.250615
Zn4	Zn	1.124945	-0.355930	-0.292978
Zn5	Zn	1.458279	-0.022596	0.040355
Zn6	Zn	1.791612	0.310737	0.373688
Zn7	Zn	1.001980	-0.250674	-0.293004
Zn8	Zn	1.335313	0.082660	0.040329
Zn9	Zn	1.668647	0.415993	0.373663
Zn10	Zn	1.001935	-0.355889	-0.416008
Zn11	Zn	1.335269	-0.022556	-0.082675
Zn12	Zn	1.668602	0.310777	0.250658
O13	O	1.063477	-0.303288	-0.354510
O14	O	1.396810	0.030046	-0.021177
O15	O	1.730144	0.363379	0.312156
O16	O	1.228018	-0.264634	-0.399733
O17	O	1.561351	0.068700	-0.066399
O18	O	1.894685	0.402033	0.266934
O19	O	1.108610	-0.341991	-0.189997
O20	O	1.441943	-0.008657	0.143336
O21	O	1.775276	0.324676	0.476669
O22	O	1.018366	-0.162582	-0.309355
O23	O	1.351700	0.170751	0.023978
O24	O	1.685033	0.504084	0.357312
O25	O	1.227943	-0.341976	-0.309311
O26	O	1.561276	-0.008643	0.024022
O27	O	1.894610	0.324691	0.357355
O28	O	1.108783	-0.162571	-0.399758
O29	O	1.442117	0.170762	-0.066424
O30	O	1.775450	0.504095	0.266909
O31	O	1.018267	-0.264659	-0.190016
O32	O	1.351601	0.068674	0.143317
O33	O	1.684934	0.402007	0.476650
O34	O	0.898990	-0.264620	-0.309314
O35	O	1.232323	0.068713	0.024020
O36	O	1.565656	0.402047	0.357353
O37	O	1.018290	-0.341907	-0.518998
O38	O	1.351624	-0.008574	-0.185665
O39	O	1.684957	0.324760	0.147668
O40	O	0.898957	-0.341921	-0.399684
O41	O	1.232290	-0.008588	-0.066351
O42	O	1.565624	0.324745	0.266982
O43	O	1.108740	-0.264594	-0.519030
O44	O	1.442074	0.068739	-0.185697
O45	O	1.775407	0.402072	0.147637
O46	O	1.108567	-0.444014	-0.309270
O47	O	1.441900	-0.110680	0.024064
O48	O	1.775233	0.222653	0.357397
O49	O	1.018192	-0.443984	-0.399660
O50	O	1.351525	-0.110651	-0.066326
O51	O	1.684858	0.222683	0.267007
C52	C	0.872271	-0.303268	-0.354498
C53	C	1.205604	0.030065	-0.021164
C54	C	1.538937	0.363398	0.312169
C55	C	0.790472	-0.303275	-0.354510
C56	C	1.123805	0.030058	-0.021176
C57	C	1.457138	0.363391	0.312157
C58	C	1.063383	-0.466839	-0.354473
C59	C	1.396716	-0.133506	-0.021140
C60	C	1.730050	0.199827	0.312193
C61	C	1.063410	-0.536808	-0.354482
C62	C	1.396744	-0.203474	-0.021149
C63	C	1.730077	0.129859	0.312185
C64	C	0.602316	-0.263086	-0.401666
C65	C	0.935649	0.070247	-0.068333
C66	C	1.268983	0.403581	0.265000
C67	C	0.525457	-0.263092	-0.401669
C68	C	0.858790	0.070242	-0.068335
C69	C	1.192124	0.403575	0.264998
C70	C	0.525390	-0.343507	-0.307368
C71	C	0.858723	-0.010174	0.025966
C72	C	1.192057	0.323160	0.359299
C73	C	0.602247	-0.343498	-0.307362
C74	C	0.935581	-0.010165	0.025971
C75	C	1.268914	0.323169	0.359305
C76	C	0.640708	-0.303289	-0.354515
C77	C	0.974042	0.030045	-0.021182
C78	C	1.307375	0.363378	0.312151
C79	C	0.486992	-0.303303	-0.354524
C80	C	0.820326	0.030030	-0.021190
C81	C	1.153659	0.363364	0.312143
C82	C	0.403659	-0.303309	-0.354526
C83	C	0.736992	0.030024	-0.021193
C84	C	1.070325	0.363358	0.312141
C85	C	0.724047	-0.303281	-0.354512
C86	C	1.057381	0.030052	-0.021179
C87	C	1.390714	0.363385	0.312154
C88	C	1.110464	-0.569611	-0.401588
C89	C	1.443797	-0.236278	-0.068255
C90	C	1.777130	0.097055	0.265079
C91	C	1.110490	-0.635354	-0.401606
C92	C	1.443823	-0.302020	-0.068273
C93	C	1.777156	0.031313	0.265060
C94	C	1.063470	-0.668290	-0.354505
C95	C	1.396803	-0.334957	-0.021172
C96	C	1.730137	-0.001623	0.312162
C97	C	1.016408	-0.635478	-0.307396
C98	C	1.349741	-0.302145	0.025938
C99	C	1.683074	0.031188	0.359271
C100	C	1.016378	-0.569737	-0.307384
C101	C	1.349711	-0.236404	0.025949
C102	C	1.683044	0.096930	0.359283
N103	N	1.057911	-0.771552	-0.290099
N104	N	1.391245	-0.438219	0.043234
N105	N	1.724578	-0.104886	0.376568
N106	N	1.057944	-0.834004	-0.290112
N107	N	1.391277	-0.500670	0.043221
N108	N	1.724611	-0.167337	0.376555
C109	C	1.063556	-0.866365	-0.354538
C110	C	1.396889	-0.533031	-0.021205
C111	C	1.730223	-0.199698	0.312128
N112	N	1.069149	-0.833915	-0.418952
N113	N	1.402482	-0.500582	-0.085619
N114	N	1.735815	-0.167248	0.247714
N115	N	1.069120	-0.771458	-0.418938
N116	N	1.402453	-0.438125	-0.085605
N117	N	1.735786	-0.104791	0.247728
C118	C	1.063497	-0.739575	-0.354513
C119	C	1.396830	-0.406242	-0.021179
C120	C	1.730164	-0.072909	0.312154
C121	C	1.110640	-0.970454	-0.401668
C122	C	1.443973	-0.637121	-0.068335
C123	C	1.777307	-0.303787	0.264999
C124	C	1.110661	-1.036198	-0.401687
C125	C	1.443994	-0.702864	-0.068354
C126	C	1.777327	-0.369531	0.264979
C127	C	1.016583	-1.036321	-0.307470
C128	C	1.349916	-0.702988	0.025863
C129	C	1.683249	-0.369654	0.359196
C130	C	1.016558	-0.970579	-0.307458
C131	C	1.349891	-0.637245	0.025876
C132	C	1.683225	-0.303912	0.359209
C133	C	1.063591	-0.937649	-0.354555
C134	C	1.396924	-0.604316	-0.021222
C135	C	1.730257	-0.270982	0.312111
C136	C	1.255430	-0.303308	-0.354524
C137	C	1.588763	0.030026	-0.021191
C138	C	1.922097	0.363359	0.312143
C139	C	1.337229	-0.303316	-0.354530
C140	C	1.670562	0.030017	-0.021196
C141	C	2.003895	0.363350	0.312137
C142	C	1.063522	-0.303244	-0.546463
C143	C	1.396855	0.030089	-0.213130
C144	C	1.730188	0.363422	0.120203
C145	C	1.063541	-0.303226	-0.628262
C146	C	1.396874	0.030107	-0.294929
C147	C	1.730208	0.363441	0.038404
C148	C	1.063591	-0.139098	-0.354564
C149	C	1.396924	0.194236	-0.021231
C150	C	1.730258	0.527569	0.312103
C151	C	1.063640	-0.069129	-0.354587
C152	C	1.396973	0.264204	-0.021253
C153	C	1.730306	0.597537	0.312080
C154	C	1.110655	-0.262932	-0.816474
C155	C	1.443988	0.070402	-0.483141
C156	C	1.777322	0.403735	-0.149807
C157	C	1.110664	-0.262913	-0.893333
C158	C	1.443997	0.070420	-0.559999
C159	C	1.777330	0.403753	-0.226666
C160	C	1.016479	-0.343423	-0.893289
C161	C	1.349812	-0.010089	-0.559955
C162	C	1.683145	0.323244	-0.226622
C163	C	1.016467	-0.343438	-0.816431
C164	C	1.349800	-0.010104	-0.483098
C165	C	1.683134	0.323229	-0.149765
C166	C	1.063559	-0.303193	-0.778026
C167	C	1.396893	0.030140	-0.444693
C168	C	1.730226	0.363474	-0.111359
C169	C	1.063580	-0.303160	-0.931742
C170	C	1.396913	0.030174	-0.598409
C171	C	1.730247	0.363507	-0.265076
C172	C	1.063589	-0.303140	-1.015076
C173	C	1.396922	0.030193	-0.681743
C174	C	1.730256	0.363526	-0.348409
C175	C	1.063549	-0.303211	-0.694687
C176	C	1.396883	0.030122	-0.361354
C177	C	1.730216	0.363455	-0.028020
C178	C	1.063475	-0.303286	-0.163304
C179	C	1.396808	0.030048	0.170029
C180	C	1.730141	0.363381	0.503362
C181	C	1.063598	-0.303127	-0.081506
C182	C	1.396931	0.030207	0.251828
C183	C	1.730265	0.363540	0.585161
H184	H	0.633628	-0.230343	-0.440059
H185	H	0.966962	0.102990	-0.106726
H186	H	1.300295	0.436324	0.226607
H187	H	1.149013	-0.230128	-0.924634
H188	H	1.482346	0.103206	-0.591300
H189	H	1.815679	0.436539	-0.257967
H190	H	0.494201	-0.230354	-0.440062
H191	H	0.827535	0.102980	-0.106729
H192	H	1.160868	0.436313	0.226604
H193	H	1.148758	-0.542802	-0.439940
H194	H	1.482092	-0.209469	-0.106606
H195	H	1.815425	0.123865	0.226727
H196	H	0.633507	-0.376236	-0.268962
H197	H	0.966841	-0.042903	0.064371
H198	H	1.300174	0.290430	0.397704
N199	N	0.486101	-0.384573	-0.259199
N200	N	0.819435	-0.051240	0.074135
N201	N	1.152768	0.282094	0.407468
N202	N	0.443206	-0.362380	-0.212352
N203	N	0.776539	-0.029047	0.120981
N204	N	1.109872	0.304287	0.454314
H205	H	0.415459	-0.391384	-0.178332
H206	H	0.748792	-0.058051	0.155002
H207	H	1.082125	0.275283	0.488335
N208	N	0.968382	-0.384525	-0.932532
N209	N	1.301715	-0.051192	-0.599198
N210	N	1.635048	0.282142	-0.265865
N211	N	0.968398	-0.384507	-1.001154
N212	N	1.301731	-0.051174	-0.667820
N213	N	1.635065	0.282159	-0.334487
H214	H	0.934429	-0.413537	-1.028869
H215	H	1.267763	-0.080204	-0.695536
H216	H	1.601096	0.253129	-0.362203
H217	H	0.978111	-0.376223	-0.785126
H218	H	1.311444	-0.042889	-0.451793
H219	H	1.644777	0.290444	-0.118459
N220	N	1.158560	-0.668862	-0.449731
N221	N	1.491893	-0.335528	-0.116398
N222	N	1.825226	-0.002195	0.216935
N223	N	1.200546	-0.639453	-0.491779
N224	N	1.533880	-0.306119	-0.158446
N225	N	1.867213	0.027214	0.174888
H226	H	1.234497	-0.663115	-0.525767
H227	H	1.567831	-0.329782	-0.192434
H228	H	1.901164	0.003551	0.140900
N229	N	0.968378	-0.669128	-0.259292
N230	N	1.301711	-0.335795	0.074041
N231	N	1.635045	-0.002462	0.407374
N232	N	0.968411	-0.727825	-0.259308
N233	N	1.301744	-0.394492	0.074025
N234	N	1.635078	-0.061159	0.407359
H235	H	0.934486	-0.751591	-0.225336
H236	H	1.267819	-0.418258	0.107997
H237	H	1.601153	-0.084925	0.441330
H238	H	0.978061	-0.543028	-0.269024
H239	H	1.311394	-0.209694	0.064309
H240	H	1.644727	0.123639	0.397643
H241	H	1.148934	-0.943642	-0.440020
H242	H	1.482268	-0.610308	-0.106687
H243	H	1.815601	-0.276975	0.226646
H244	H	0.978294	-1.063137	-0.269124
H245	H	1.311627	-0.729804	0.064209
H246	H	1.644960	-0.396470	0.397542
N247	N	1.158725	-1.069698	-0.449820
N248	N	1.492058	-0.736365	-0.116487
N249	N	1.825392	-0.403032	0.216847
N250	N	1.200709	-1.040286	-0.491867
N251	N	1.534042	-0.706953	-0.158533
N252	N	1.867376	-0.373619	0.174800
H253	H	1.234655	-1.063946	-0.525862
H254	H	1.567989	-0.730612	-0.192529
H255	H	1.901322	-0.397279	0.140805
N256	N	0.968490	-0.937076	-0.259333
N257	N	1.301823	-0.603743	0.074000
N258	N	1.635157	-0.270410	0.407333
N259	N	0.926508	-0.966488	-0.217284
N260	N	1.259841	-0.633155	0.116049
N261	N	1.593175	-0.299822	0.449383
H262	H	0.892555	-0.942828	-0.183295
H263	H	1.225889	-0.609495	0.150038
H264	H	1.559222	-0.276161	0.483372
N265	N	1.158750	-0.221811	-0.777255
N266	N	1.492083	0.111523	-0.443921
N267	N	1.825416	0.444856	-0.110588
N268	N	1.153903	-0.163724	-0.785864
N269	N	1.487236	0.169610	-0.452530
N270	N	1.820569	0.502943	-0.119197
H271	H	1.187869	-0.134678	-0.758167
H272	H	1.521203	0.198655	-0.424834
H273	H	1.854536	0.531988	-0.091501
