data_functionalizedCrystal
_audit_creation_method	'MofGen! by Chris Wilmer'
_symmetry_space_group_name_H-M	'P1'
_symmetry_Int_Tables_number	1
_symmetry_cell_setting	triclinic
loop_
_symmetry_equiv_pos_as_xyz
  x,y,z
_cell_length_a	19.805407
_cell_length_b	25.639239
_cell_length_c	25.639233
_cell_angle_alpha	89.981253
_cell_angle_beta	89.985655
_cell_angle_gamma	90.038686
loop_
_atom_site_label
_atom_site_type_symbol
_atom_site_fract_x
_atom_site_fract_y
_atom_site_fract_z
Zn1	Zn	1.034643	-0.208214	-0.295633
Zn2	Zn	1.034544	-0.295633	-0.208197
Zn3	Zn	0.921468	-0.208214	-0.208209
Zn4	Zn	0.921397	-0.295621	-0.295599
O5	O	0.978013	-0.251920	-0.251910
O6	O	1.129346	-0.219816	-0.284044
O7	O	1.019532	-0.284042	-0.135034
O8	O	0.936552	-0.135048	-0.219825
O9	O	1.129274	-0.284043	-0.219805
O10	O	1.019701	-0.135049	-0.284055
O11	O	0.936456	-0.219815	-0.135042
O12	O	0.826742	-0.219803	-0.219792
O13	O	0.936431	-0.284021	-0.368769
O14	O	0.826690	-0.284020	-0.283998
O15	O	1.019632	-0.219804	-0.368794
O16	O	1.019463	-0.368797	-0.219773
O17	O	0.936335	-0.368788	-0.283986
C18	C	0.802157	-0.251910	-0.251893
C19	C	0.726925	-0.251919	-0.251898
C20	C	0.977899	-0.387763	-0.251886
C21	C	0.977912	-0.445877	-0.251893
C22	C	0.691571	-0.285407	-0.285276
C23	C	0.620883	-0.285408	-0.285283
C24	C	0.585549	-0.251923	-0.251910
C25	C	0.620908	-0.218431	-0.218531
C26	C	0.691595	-0.218428	-0.218526
C27	C	0.335835	-0.218442	-0.218548
C28	C	0.265143	-0.218449	-0.218554
C29	C	0.265122	-0.285423	-0.285305
C30	C	0.335810	-0.285420	-0.285300
C31	C	0.371162	-0.251926	-0.251923
C32	C	0.447810	-0.251925	-0.251917
C33	C	0.508902	-0.251926	-0.251914
C34	C	1.021411	-0.806232	-0.218531
C35	C	1.021437	-0.860837	-0.218538
O36	O	1.058303	-0.889067	-0.190145
N37	N	0.978132	-0.888159	-0.251944
C38	C	0.934802	-0.860875	-0.285350
O39	O	0.897971	-0.889129	-0.313766
C40	C	0.934780	-0.806272	-0.285345
C41	C	0.978083	-0.778952	-0.251933
C42	C	1.064711	-0.778912	-0.185121
C43	C	1.064684	-0.724312	-0.185114
C44	C	1.021356	-0.697031	-0.218516
C45	C	0.978056	-0.724351	-0.251925
C46	C	0.891455	-0.778989	-0.318753
C47	C	0.891436	-0.724382	-0.318746
C48	C	0.934740	-0.697062	-0.285333
C49	C	0.934701	-0.642470	-0.285320
N50	N	0.978006	-0.615148	-0.251913
C51	C	1.021334	-0.642428	-0.218511
C52	C	0.934853	-0.975546	-0.285358
C53	C	0.934872	-1.030148	-0.285361
C54	C	1.021508	-1.030106	-0.218549
C55	C	1.021485	-0.975502	-0.218544
C56	C	0.978159	-0.948223	-0.251951
C57	C	1.021273	-0.527763	-0.218497
C58	C	1.021240	-0.473158	-0.218491
C59	C	0.934607	-0.473205	-0.285305
C60	C	0.934637	-0.527805	-0.285309
C61	C	0.977976	-0.555083	-0.251904
O62	O	0.897856	-0.614206	-0.313699
O63	O	1.058166	-0.614167	-0.190104
C64	C	1.154556	-0.251931	-0.251927
C65	C	1.229788	-0.251935	-0.251934
C66	C	0.978035	-0.251911	-0.388283
C67	C	0.978044	-0.251907	-0.446397
C68	C	0.978146	-0.115547	-0.251945
C69	C	0.978202	-0.057433	-0.251960
C70	C	1.021422	-0.218370	-0.806779
C71	C	1.021430	-0.218356	-0.861383
O72	O	1.058257	-0.189903	-0.889636
N73	N	0.978119	-0.251785	-0.888680
C74	C	0.934791	-0.285227	-0.861369
O75	O	0.897951	-0.313659	-0.889601
C76	C	0.934780	-0.285238	-0.806766
C77	C	0.978099	-0.251811	-0.779472
C78	C	1.064737	-0.184945	-0.779485
C79	C	1.064730	-0.184960	-0.724884
C80	C	1.021407	-0.218401	-0.697578
C81	C	0.978091	-0.251826	-0.724871
C82	C	0.891449	-0.318677	-0.779456
C83	C	0.891441	-0.318685	-0.724849
C84	C	0.934761	-0.285258	-0.697555
C85	C	0.934761	-0.285282	-0.642964
N86	N	0.978073	-0.251853	-0.615667
C87	C	1.021395	-0.218412	-0.642974
C88	C	0.934817	-0.285200	-0.976040
C89	C	0.934831	-0.285191	-1.030642
C90	C	1.021470	-0.218319	-1.030652
C91	C	1.021459	-0.218331	-0.976049
C92	C	0.978129	-0.251770	-0.948743
C93	C	1.021376	-0.218447	-0.528309
C94	C	1.021367	-0.218467	-0.473704
C95	C	0.934726	-0.285337	-0.473698
C96	C	0.934738	-0.285319	-0.528299
C97	C	0.978065	-0.251870	-0.555603
O98	O	0.897951	-0.313718	-0.614677
O99	O	1.058223	-0.189980	-0.614736
C100	C	0.978030	-0.251892	-0.116067
C101	C	0.978152	-0.251748	-0.057954
H102	H	0.720335	-0.312677	-0.312450
H103	H	0.720379	-0.191155	-0.191350
H104	H	1.056565	-0.549966	-0.191296
C105	C	1.112502	-0.211075	-0.914651
C106	C	1.069069	-0.181582	-0.946049
H107	H	1.141896	-0.188385	-0.896135
H108	H	1.086700	-0.230986	-0.890572
H109	H	1.138374	-0.233852	-0.935955
H110	H	1.043193	-0.158808	-0.924745
H111	H	1.094874	-0.161663	-0.970131
H112	H	0.592134	-0.191164	-0.191360
H113	H	0.364575	-0.312689	-0.312474
H114	H	0.236376	-0.191178	-0.191377
H115	H	1.056790	-1.052327	-0.191353
H116	H	1.099997	-0.801118	-0.157921
H117	H	1.100003	-0.157739	-0.702667
C118	C	1.107120	-0.980958	-0.152504
C119	C	1.069089	-0.945475	-0.181819
H120	H	1.136513	-0.962421	-0.129834
H121	H	1.077653	-1.002283	-0.132488
H122	H	1.132994	-1.002228	-0.175312
H123	H	1.043211	-0.924207	-0.159012
H124	H	1.098560	-0.924141	-0.201837
H125	H	0.899604	-1.052388	-0.312564
C126	C	0.849213	-0.981081	-0.351395
C127	C	0.887216	-0.945563	-0.322077
H128	H	0.819802	-0.962572	-0.374061
H129	H	0.878695	-1.002345	-0.371416
H130	H	0.823358	-1.002409	-0.328589
H131	H	0.913074	-0.924237	-0.344882
H132	H	0.857729	-0.924290	-0.302054
C133	C	0.896245	-0.315037	-0.389985
C134	C	0.887103	-0.322090	-0.443675
H135	H	0.866838	-0.337723	-0.371451
H136	H	0.941707	-0.322699	-0.381045
H137	H	0.886378	-0.279905	-0.381048
H138	H	0.896975	-0.357221	-0.452613
H139	H	0.841631	-0.314432	-0.452619
C140	C	0.805812	-0.384792	-0.730328
C141	C	0.843822	-0.355454	-0.694835
H142	H	0.776422	-0.407495	-0.711798
H143	H	0.779942	-0.362005	-0.751618
H144	H	0.835296	-0.404779	-0.751632
H145	H	0.814338	-0.335464	-0.673534
H146	H	0.869694	-0.378243	-0.673536
H147	H	1.099947	-0.702071	-0.157908
C148	C	0.849193	-0.351290	-1.025133
C149	C	0.887218	-0.321939	-1.060640
H150	H	0.819793	-0.373973	-1.043652
H151	H	0.878662	-0.371295	-1.003840
H152	H	0.823326	-0.328507	-1.003833
H153	H	0.913088	-0.344722	-1.081937
H154	H	0.857744	-0.301933	-1.081942
H155	H	0.592101	-0.312678	-0.312462
H156	H	0.364610	-0.191174	-0.191367
H157	H	1.056502	-0.450915	-0.191281
C158	C	0.805835	-0.773522	-0.384802
C159	C	0.843858	-0.809009	-0.355486
H160	H	0.776453	-0.792056	-0.407483
H161	H	0.779955	-0.752259	-0.362000
H162	H	0.835312	-0.752191	-0.404812
H163	H	0.814381	-0.830338	-0.335473
H164	H	0.869739	-0.830281	-0.378291
H165	H	0.856155	-0.702173	-0.345952
H166	H	0.236330	-0.312693	-0.312484
C167	C	1.059932	-0.188600	-1.114365
C168	C	1.069082	-0.181552	-1.060675
H169	H	1.089320	-0.165898	-1.132900
H170	H	1.069815	-0.223722	-1.123309
H171	H	1.014458	-0.180949	-1.123299
H172	H	1.114555	-0.189206	-1.051741
H173	H	1.059204	-0.146421	-1.051728
C174	C	0.925265	-0.355631	-0.589708
C175	C	0.887124	-0.322062	-0.558305
H176	H	0.895864	-0.378313	-0.608228
H177	H	0.951060	-0.335711	-0.613784
H178	H	0.954729	-0.375641	-0.568407
H179	H	0.857662	-0.302050	-0.579607
H180	H	0.861317	-0.341984	-0.534227
H181	H	0.899378	-0.550050	-0.312518
C182	C	0.896117	-0.389515	-0.314959
C183	C	0.886986	-0.443211	-0.322022
H184	H	0.866723	-0.370999	-0.337631
H185	H	0.886232	-0.380595	-0.279826
H186	H	0.941588	-0.380537	-0.322638
H187	H	0.841516	-0.452190	-0.314339
H188	H	0.896866	-0.452135	-0.357163
H189	H	1.056645	-0.191246	-0.451484
H190	H	1.056656	-0.191208	-0.550534
H191	H	1.100016	-0.157711	-0.801712
C192	C	0.925334	-0.355548	-0.914629
C193	C	0.887195	-0.321966	-0.946025
H194	H	0.895933	-0.378243	-0.896099
H195	H	0.954806	-0.375540	-0.935931
H196	H	0.951122	-0.335636	-0.890557
H197	H	0.861411	-0.341878	-0.970099
H198	H	0.857712	-0.301973	-0.924720
H199	H	0.856174	-0.345897	-0.801669
