data_functionalizedCrystal
_audit_creation_method	'MofGen! by Chris Wilmer'
_symmetry_space_group_name_H-M	'P1'
_symmetry_Int_Tables_number	1
_symmetry_cell_setting	triclinic
loop_
_symmetry_equiv_pos_as_xyz
  x,y,z
_cell_length_a	11.026607
_cell_length_b	19.188930
_cell_length_c	9.482900
_cell_angle_alpha	99.297616
_cell_angle_beta	78.636152
_cell_angle_gamma	95.865399
loop_
_atom_site_label
_atom_site_type_symbol
_atom_site_fract_x
_atom_site_fract_y
_atom_site_fract_z
O1	O	1.627581	0.283622	-0.120957
O2	O	1.274451	0.250352	-0.120952
O3	O	1.461202	0.166632	-0.120926
O4	O	1.440830	0.367342	-0.120983
O5	O	1.423268	0.183725	0.120861
O6	O	1.236517	0.267445	0.120835
O7	O	1.589648	0.300715	0.120830
Cu8	Cu	1.409619	0.285641	0.142910
Cu9	Cu	1.454480	0.265426	-0.143032
O10	O	1.402896	0.384435	0.120804
C11	C	1.210306	0.252761	-0.000057
C12	C	1.075688	0.234464	-0.000054
C13	C	1.001617	0.284984	-0.000069
C14	C	0.862482	0.266075	-0.000066
C15	C	1.441575	0.149084	-0.000029
C16	C	1.439592	0.071328	-0.000016
C17	C	1.549173	0.040370	-0.000011
C18	C	1.547315	-0.032693	-0.000034
C19	C	1.435865	-0.074793	-0.000033
C20	C	1.326271	-0.043828	-0.000047
C21	C	1.328134	0.029233	-0.000038
N22	N	1.337766	-0.187838	0.082253
N23	N	1.336003	-0.257242	0.082248
C24	C	1.430246	-0.294921	-0.000063
N25	N	1.526334	-0.260572	-0.082349
N26	N	1.528099	-0.191161	-0.082338
C27	C	1.433833	-0.154016	-0.000044
C28	C	1.537820	-0.405101	-0.000085
C29	C	1.535959	-0.478166	-0.000117
C30	C	1.314910	-0.489299	-0.000115
C31	C	1.316776	-0.416236	-0.000098
C32	C	1.428234	-0.374141	-0.000075
C33	C	1.653793	0.298306	-0.000068
C34	C	1.788412	0.316602	-0.000081
C35	C	1.422524	0.401983	-0.000097
C36	C	1.424509	0.479738	-0.000119
N37	N	1.378075	0.299859	0.344025
N38	N	1.486034	0.251204	-0.344148
C39	C	1.445167	0.269615	0.416234
C40	C	1.418931	0.281452	0.583648
H41	H	0.827994	0.373857	-0.000087
C42	C	1.022690	0.158161	-0.000109
C43	C	0.895233	0.154572	-0.000146
C44	C	0.846378	0.084290	-0.000218
H45	H	1.036083	0.141472	0.084189
H46	H	1.062606	0.129608	-0.084455
H47	H	0.855330	0.183114	0.084191
H48	H	0.881806	0.171246	-0.084438
H49	H	0.886294	0.055738	-0.084564
H50	H	0.859779	0.067607	0.084082
H51	H	0.759896	0.081845	-0.000256
C52	C	1.666413	-0.066177	0.000051
C53	C	1.764414	-0.013673	0.000104
C54	C	1.874140	-0.044488	0.000203
H55	H	1.683683	-0.100393	-0.084243
H56	H	1.657101	-0.088472	0.084401
H57	H	1.773726	0.008611	-0.084237
H58	H	1.747185	0.020546	0.084392
H59	H	1.864829	-0.066783	0.084553
H60	H	1.891398	-0.078703	-0.084092
H61	H	1.940645	-0.008868	0.000253
C62	C	1.205379	-0.089647	0.000029
C63	C	1.227193	-0.160255	0.000065
C64	C	1.115852	-0.202482	0.000147
H65	H	1.173407	-0.086003	-0.084265
H66	H	1.147027	-0.074046	0.084379
H67	H	1.285525	-0.175852	-0.084277
H68	H	1.259147	-0.163921	0.084353
H69	H	1.057500	-0.186880	0.084497
H70	H	1.083888	-0.198832	-0.084149
H71	H	1.130635	-0.250393	0.000184
C72	C	1.658966	-0.359520	-0.000165
C73	C	1.754548	-0.402278	-0.000224
C74	C	1.866167	-0.360317	-0.000324
H75	H	1.651245	-0.324825	0.084132
H76	H	1.677577	-0.336755	-0.084513
H77	H	1.735940	-0.425031	0.084115
H78	H	1.762308	-0.436972	-0.084514
H79	H	1.884779	-0.337553	-0.084672
H80	H	1.858434	-0.325624	0.083974
H81	H	1.931035	-0.389323	-0.000378
H82	H	1.639931	0.074639	0.000002
H83	H	1.224167	-0.523576	-0.000122
H84	H	1.562899	0.216543	0.593739
H85	H	1.342057	0.316106	0.645762
C86	C	1.054273	0.361357	0.000210
C87	C	0.995166	0.403251	0.124612
C88	C	1.043647	0.473610	0.124929
H89	H	1.040768	0.378068	-0.084015
H90	H	1.140765	0.363958	0.000290
H91	H	0.908694	0.400654	0.124519
H92	H	1.008666	0.386564	0.208857
H93	H	1.130139	0.476210	0.125009
H94	H	1.030139	0.490313	0.040698
H95	H	1.003558	0.502042	0.209340
H96	H	1.238897	0.054438	-0.000042
C97	C	1.547516	0.223294	0.333458
C98	C	1.522143	0.154847	0.370329
C99	C	1.616394	0.112159	0.294077
H100	H	1.624660	0.242606	0.358230
H101	H	1.551502	0.221446	0.231937
H102	H	1.518170	0.156697	0.471827
H103	H	1.445015	0.135515	0.345552
H104	H	1.620380	0.110311	0.192557
H105	H	1.693533	0.131477	0.318856
H106	H	1.599186	0.065712	0.319073
H107	H	1.227542	-0.391030	-0.000094
H108	H	1.301206	0.334511	0.406145
H109	H	0.822904	0.208818	-0.000087
H110	H	1.625199	-0.503371	-0.000121
