data_functionalizedCrystal
_audit_creation_method	'MofGen! by Chris Wilmer'
_symmetry_space_group_name_H-M	'P1'
_symmetry_Int_Tables_number	1
_symmetry_cell_setting	triclinic
loop_
_symmetry_equiv_pos_as_xyz
  x,y,z
_cell_length_a	18.050591
_cell_length_b	18.050589
_cell_length_c	17.077396
_cell_angle_alpha	89.974523
_cell_angle_beta	89.977811
_cell_angle_gamma	90.024669
loop_
_atom_site_label
_atom_site_type_symbol
_atom_site_fract_x
_atom_site_fract_y
_atom_site_fract_z
Zn1	Zn	1.135310	-0.295724	-0.443967
Zn2	Zn	1.135216	-0.419923	-0.312710
Zn3	Zn	1.011124	-0.295743	-0.312704
Zn4	Zn	1.011078	-0.419869	-0.443922
O5	O	1.073182	-0.357815	-0.378326
O6	O	1.239222	-0.312213	-0.426577
O7	O	1.118735	-0.403481	-0.202862
O8	O	1.027657	-0.191816	-0.330132
O9	O	1.239153	-0.403462	-0.330143
O10	O	1.118896	-0.191802	-0.426571
O11	O	1.027565	-0.312247	-0.202858
O12	O	0.907194	-0.312194	-0.330089
O13	O	1.027577	-0.403370	-0.553775
O14	O	0.907159	-0.403389	-0.426494
O15	O	1.118851	-0.312161	-0.553808
O16	O	1.118689	-0.523840	-0.330099
O17	O	1.027486	-0.523800	-0.426500
C18	C	0.880230	-0.357788	-0.378287
C19	C	0.797684	-0.357795	-0.378288
C20	C	0.548856	-0.308152	-0.325987
C21	C	0.598290	-0.290063	-0.397624
C22	C	0.500564	-0.357833	-0.378353
C23	C	0.598211	-0.375869	-0.306688
C24	C	0.646549	-0.357813	-0.378317
C25	C	0.548911	-0.339708	-0.450028
C26	C	0.548827	-0.425546	-0.359043
C27	C	0.598240	-0.407482	-0.430730
C28	C	0.416465	-0.357843	-0.378372
C29	C	0.730645	-0.357803	-0.378306
C30	C	1.073092	-0.550767	-0.378313
C31	C	1.073122	-0.633313	-0.378333
C32	C	1.023574	-0.832769	-0.430738
C33	C	1.005473	-0.882210	-0.359107
C34	C	1.073195	-0.784443	-0.378344
C35	C	1.091332	-0.882083	-0.449983
C36	C	1.073264	-0.930428	-0.378360
C37	C	1.055059	-0.832797	-0.306675
C38	C	1.140949	-0.832666	-0.397599
C39	C	1.122874	-0.882085	-0.325919
C40	C	1.073153	-0.700345	-0.378335
C41	C	1.073306	-1.014524	-0.378360
C42	C	1.266888	-0.357841	-0.378366
C43	C	1.349433	-0.357853	-0.378383
C44	C	1.073219	-0.357757	-0.583070
C45	C	1.073235	-0.357733	-0.670320
C46	C	1.073292	-0.164109	-0.378356
C47	C	1.073339	-0.081563	-0.378369
C48	C	1.025778	-0.310221	-0.711307
C49	C	1.025790	-0.310204	-0.793288
C50	C	1.073264	-0.357696	-0.834280
C51	C	1.120723	-0.405212	-0.793287
C52	C	1.120707	-0.405232	-0.711308
C53	C	1.120755	-0.405166	-0.964157
C54	C	1.120773	-0.405145	-1.046141
C55	C	1.025838	-0.310138	-1.046137
C56	C	1.025822	-0.310158	-0.964158
C57	C	1.073283	-0.357674	-0.923171
C58	C	1.073188	-0.357818	-0.174378
C59	C	1.073316	-0.357634	-0.087129
H60	H	0.620004	-0.232788	-0.413955
H61	H	1.106645	-0.903733	-0.510561
H62	H	1.198201	-0.810889	-0.413904
H63	H	0.527346	-0.324378	-0.510636
H64	H	0.527085	-0.482802	-0.342700
H65	H	0.527174	-0.266116	-0.281773
H66	H	0.619785	-0.449487	-0.475050
H67	H	0.619868	-0.391132	-0.246097
H68	H	0.981550	-0.811114	-0.474983
H69	H	0.987123	-0.271544	-0.677938
H70	H	0.948208	-0.903989	-0.342836
H71	H	1.039679	-0.811237	-0.246081
H72	H	1.164866	-0.903603	-0.281566
H73	H	0.987142	-0.271519	-0.826656
H74	H	0.987168	-0.271483	-0.930785
H75	H	0.987195	-0.271448	-1.079513
H76	H	1.159431	-0.443816	-1.079515
H77	H	1.159410	-0.443852	-0.930787
H78	H	1.159374	-0.443884	-0.826669
H79	H	1.159357	-0.443915	-0.677937
