data_functionalizedCrystal
_audit_creation_method	'MofGen! by Chris Wilmer'
_symmetry_space_group_name_H-M	'P1'
_symmetry_Int_Tables_number	1
_symmetry_cell_setting	triclinic
loop_
_symmetry_equiv_pos_as_xyz
  x,y,z
_cell_length_a	15.297475
_cell_length_b	13.897448
_cell_length_c	15.298159
_cell_angle_alpha	80.336326
_cell_angle_beta	88.366721
_cell_angle_gamma	80.320483
loop_
_atom_site_label
_atom_site_type_symbol
_atom_site_fract_x
_atom_site_fract_y
_atom_site_fract_z
Zn1	Zn	1.253282	-0.750942	0.726578
Zn2	Zn	1.753282	-0.250942	1.226578
Zn3	Zn	1.278590	-0.889795	0.580102
Zn4	Zn	1.778590	-0.389795	1.080102
Zn5	Zn	1.132197	-0.696701	0.554825
Zn6	Zn	1.632197	-0.196701	1.054825
Zn7	Zn	1.106787	-0.880349	0.701225
Zn8	Zn	1.606787	-0.380349	1.201225
O9	O	1.192714	-0.804447	0.640682
O10	O	1.692714	-0.304447	1.140682
O11	O	1.379214	-0.796014	0.728336
O12	O	1.879214	-0.296014	1.228336
O13	O	1.280396	-0.845433	0.454179
O14	O	1.780396	-0.345433	0.954179
O15	O	1.148302	-0.568928	0.577641
O16	O	1.648302	-0.068928	1.077641
O17	O	1.397808	-0.898028	0.620721
O18	O	1.897808	-0.398028	1.120721
O19	O	1.237263	-0.608779	0.703827
O20	O	1.737263	-0.108779	1.203827
O21	O	1.172842	-0.703568	0.435608
O22	O	1.672842	-0.203568	0.935608
O23	O	1.006251	-0.694409	0.553057
O24	O	1.506251	-0.194409	1.053057
O25	O	1.104994	-0.881930	0.827158
O26	O	1.604994	-0.381930	1.327158
O27	O	0.987583	-0.829335	0.660616
O28	O	1.487583	-0.329335	1.160616
O29	O	1.212624	-0.786855	0.845785
O30	O	1.712624	-0.286855	1.345785
O31	O	1.255757	-1.023509	0.596137
O32	O	1.755757	-0.523509	1.096137
O33	O	1.129534	-1.016570	0.685126
O34	O	1.629534	-0.516570	1.185126
C35	C	0.965135	-0.754962	0.601343
C36	C	1.465135	-0.254962	1.101343
C37	C	0.867772	-0.733819	0.584534
C38	C	1.367772	-0.233819	1.084534
C39	C	0.554600	-0.955568	0.760820
C40	C	1.054600	-0.455568	1.260820
C41	C	0.646077	-0.975440	0.776610
C42	C	1.146077	-0.475440	1.276610
C43	C	0.701505	-0.915036	0.728593
C44	C	1.201505	-0.415036	1.228593
C45	C	0.665447	-0.834757	0.664782
C46	C	1.165447	-0.334757	1.164782
C47	C	0.573961	-0.814888	0.648985
C48	C	1.073961	-0.314888	1.148985
C49	C	0.720866	-0.774356	0.616758
C50	C	1.220866	-0.274356	1.116758
C51	C	0.684808	-0.694078	0.552947
C52	C	1.184808	-0.194078	1.052947
C53	C	0.593330	-0.674212	0.537154
C54	C	1.093330	-0.174212	1.037154
C55	C	0.537902	-0.734615	0.585171
C56	C	1.037902	-0.234615	1.085171
C57	C	0.812352	-0.794226	0.632555
C58	C	1.312352	-0.294226	1.132555
C59	C	0.831713	-0.653546	0.520720
C60	C	1.331713	-0.153546	1.020720
C61	C	0.740236	-0.633674	0.504930
C62	C	1.240236	-0.133674	1.004930
C63	C	1.192654	-1.055043	0.640646
C64	C	1.692654	-0.555043	1.140646
C65	C	1.192704	-1.162271	0.640674
C66	C	1.692704	-0.662271	1.140674
C67	C	1.192787	-1.358595	0.640744
C68	C	1.692787	-0.858595	1.140744
C69	C	1.192738	-1.249346	0.640707
C70	C	1.692738	-0.749346	1.140707
C71	C	1.421182	-0.854125	0.680176
C72	C	1.921182	-0.354125	1.180176
C73	C	1.518541	-0.875295	0.697006
C74	C	2.018541	-0.375295	1.197006
C75	C	1.153151	-0.839389	0.869141
C76	C	1.653151	-0.339389	1.369141
C77	C	1.136292	-0.854279	0.966496
C78	C	1.636292	-0.354279	1.466496
C79	C	1.192794	-0.552880	0.640742
C80	C	1.692794	-0.052880	1.140742
C81	C	1.192829	-0.445677	0.640768
C82	C	1.692829	0.054323	1.140768
C83	C	1.312925	-0.698260	1.279718
C84	C	1.812925	-0.198260	1.779718
C85	C	1.328770	-0.684272	1.188249
C86	C	1.828770	-0.184272	1.688249
C87	C	1.280652	-0.726772	1.132806
C88	C	1.780652	-0.226772	1.632806
C89	C	1.216686	-0.783263	1.168842
C90	C	1.716686	-0.283263	1.668842
C91	C	1.200843	-0.797258	1.260321
C92	C	1.700843	-0.297258	1.760321
C93	C	1.168571	-0.825771	1.113409
C94	C	1.668571	-0.325771	1.613409
C95	C	1.104604	-0.882262	1.149444
C96	C	1.604604	-0.382262	1.649444
C97	C	1.088765	-0.896254	1.240914
C98	C	1.588765	-0.396254	1.740914
C99	C	1.136883	-0.853754	1.296357
C100	C	1.636883	-0.353754	1.796357
C101	C	1.184413	-0.811776	1.021930
C102	C	1.684413	-0.311776	1.521930
C103	C	1.072332	-0.910775	1.002532
C104	C	1.572332	-0.410775	1.502532
C105	C	1.056486	-0.924762	1.094002
C106	C	1.556486	-0.424762	1.594002
C107	C	1.232113	-0.769656	1.413111
C108	C	1.732113	-0.269656	1.913111
C109	C	1.248964	-0.754755	1.315754
C110	C	1.748964	-0.254755	1.815754
H111	H	0.563976	-0.608852	0.485186
H112	H	1.063976	-0.108852	0.985186
H113	H	0.509464	-1.004745	0.799903
H114	H	1.009464	-0.504745	1.299903
O115	O	1.020403	-0.956582	0.942735
O116	O	1.520403	-0.456582	1.442735
H117	H	0.973262	-0.998214	0.983159
H118	H	1.473262	-0.498214	1.483159
H119	H	0.775990	-0.931220	0.741453
H120	H	1.275990	-0.431220	1.241453
O121	O	0.851243	-0.880792	0.701387
O122	O	1.351243	-0.380792	1.201387
H123	H	0.836291	-0.950343	0.683221
H124	H	1.336291	-0.450343	1.183221
H125	H	0.463412	-0.718438	0.572320
H126	H	0.963412	-0.218438	1.072320
O127	O	0.701346	-0.547112	0.436082
O128	O	1.201346	-0.047112	0.936082
H129	H	0.628425	-0.543459	0.433158
H130	H	1.128425	-0.043459	0.933158
H131	H	0.876843	-0.604362	0.481619
H132	H	1.376843	-0.104362	0.981619
O133	O	1.253403	-0.750853	0.983069
O134	O	1.753403	-0.250853	1.483069
H135	H	1.221439	-0.686883	0.934623
H136	H	1.721439	-0.186883	1.434623
H137	H	1.380854	-0.638280	1.158916
H138	H	1.880854	-0.138280	1.658916
O139	O	1.297730	-0.711680	1.034147
O140	O	1.797730	-0.211680	1.534147
H141	H	1.350286	-0.665250	1.018402
H142	H	1.850286	-0.165250	1.518402
H143	H	1.004404	-0.970757	1.123355
H144	H	1.504404	-0.470757	1.623355
O145	O	1.364797	-0.652394	1.339508
O146	O	1.864797	-0.152394	1.839508
H147	H	1.343022	-0.671603	1.409166
H148	H	1.843022	-0.171603	1.909166
O149	O	1.119787	-0.868842	1.395016
O150	O	1.619787	-0.368842	1.895016
H151	H	1.163994	-0.829796	1.427510
H152	H	1.663994	-0.329796	1.927510
O153	O	0.684970	-1.062011	0.845436
O154	O	1.184970	-0.562011	1.345436
H155	H	0.631060	-1.100669	0.876180
H156	H	1.131060	-0.600669	1.376180
H157	H	1.036686	-0.942262	1.270252
H158	H	1.536686	-0.442262	1.770252
