data_functionalizedCrystal
_audit_creation_method	'MofGen! by Chris Wilmer'
_symmetry_space_group_name_H-M	'P1'
_symmetry_Int_Tables_number	1
_symmetry_cell_setting	triclinic
loop_
_symmetry_equiv_pos_as_xyz
  x,y,z
_cell_length_a	11.169417
_cell_length_b	25.639239
_cell_length_c	11.169417
_cell_angle_alpha	90.014562
_cell_angle_beta	90.000551
_cell_angle_gamma	90.039936
loop_
_atom_site_label
_atom_site_type_symbol
_atom_site_fract_x
_atom_site_fract_y
_atom_site_fract_z
Zn1	Zn	1.834501	-0.208219	0.678474
Zn2	Zn	2.334501	0.291781	1.178474
Zn3	Zn	1.834358	-0.295631	0.477767
Zn4	Zn	2.334358	0.204369	0.977767
Zn5	Zn	1.633854	-0.208213	0.477810
Zn6	Zn	2.133854	0.291787	0.977810
Zn7	Zn	1.633695	-0.295627	0.678413
Zn8	Zn	2.133695	0.204373	1.178413
O9	O	1.734102	-0.251922	0.578116
O10	O	2.234102	0.248078	1.078116
O11	O	2.002432	-0.219818	0.651858
O12	O	2.502432	0.280182	1.151858
O13	O	1.807767	-0.284034	0.309823
O14	O	2.307767	0.215966	0.809823
O15	O	1.660596	-0.135049	0.504472
O16	O	2.160596	0.364951	1.004472
O17	O	2.002326	-0.284040	0.504399
O18	O	2.502326	0.215960	1.004399
O19	O	1.808011	-0.135053	0.651899
O20	O	2.308011	0.364947	1.151899
O21	O	1.660457	-0.219809	0.309854
O22	O	2.160457	0.280191	0.809854
O23	O	1.465883	-0.219805	0.504412
O24	O	1.965883	0.280195	1.004412
O25	O	1.660327	-0.284032	0.846371
O26	O	2.160327	0.215968	1.346371
O27	O	1.465767	-0.284027	0.651794
O28	O	1.965767	0.215973	1.151794
O29	O	1.807858	-0.219814	0.846416
O30	O	2.307858	0.280186	1.346416
O31	O	1.807613	-0.368796	0.504339
O32	O	2.307613	0.131204	1.004339
O33	O	1.660187	-0.368793	0.651753
O34	O	2.160187	0.131207	1.151753
C35	C	1.422277	-0.251915	0.578102
C36	C	1.922277	0.248085	1.078102
C37	C	1.288877	-0.251925	0.578125
C38	C	1.788877	0.248075	1.078125
C39	C	1.733900	-0.387765	0.578061
C40	C	2.233900	0.112235	1.078061
C41	C	1.733924	-0.445879	0.578078
C42	C	2.233924	0.054121	1.078078
C43	C	1.811067	-0.806231	0.501488
C44	C	2.311067	-0.306231	1.001488
C45	C	1.811113	-0.860835	0.501504
C46	C	2.311113	-0.360835	1.001504
O47	O	1.876494	-0.889063	0.436325
O48	O	2.376494	-0.389063	0.936325
N49	N	1.734313	-0.888161	0.578195
N50	N	2.234313	-0.388161	1.078195
C51	C	1.657470	-0.860880	0.654884
C52	C	2.157470	-0.360880	1.154884
O53	O	1.592150	-0.889137	0.720118
O54	O	2.092150	-0.389137	1.220118
C55	C	1.657430	-0.806277	0.654873
C56	C	2.157430	-0.306277	1.154873
C57	C	1.734227	-0.778954	0.578168
C58	C	2.234227	-0.278954	1.078168
C59	C	1.887858	-0.778908	0.424791
C60	C	2.387858	-0.278908	0.924791
C61	C	1.887810	-0.724307	0.424774
C62	C	2.387810	-0.224307	0.924774
C63	C	1.810970	-0.697030	0.501454
C64	C	2.310970	-0.197030	1.001454
C65	C	1.734178	-0.724353	0.578151
C66	C	2.234178	-0.224353	1.078151
C67	C	1.580594	-0.778997	0.731567
C68	C	2.080594	-0.278997	1.231567
C69	C	1.580561	-0.724390	0.731550
C70	C	2.080561	-0.224390	1.231550
C71	C	1.657358	-0.697067	0.654845
C72	C	2.157358	-0.197067	1.154845
C73	C	1.657290	-0.642476	0.654814
C74	C	2.157290	-0.142476	1.154814
N75	N	1.734091	-0.615149	0.578123
N76	N	2.234091	-0.115149	1.078123
C77	C	1.810930	-0.642427	0.501443
C78	C	2.310930	-0.142427	1.001443
C79	C	1.657560	-0.975551	0.654902
C80	C	2.157560	-0.475551	1.154902
C81	C	1.657593	-1.030153	0.654908
C82	C	2.157593	-0.530153	1.154908
C83	C	1.811238	-1.030105	0.501530
C84	C	2.311238	-0.530105	1.001530
C85	C	1.811199	-0.975501	0.501519
C86	C	2.311199	-0.475501	1.001519
C87	C	1.734360	-0.948225	0.578211
C88	C	2.234360	-0.448225	1.078211
C89	C	1.810822	-0.527762	0.501412
C90	C	2.310822	-0.027762	1.001412
C91	C	1.810764	-0.473156	0.501398
C92	C	2.310764	0.026844	1.001398
C93	C	1.657123	-0.473210	0.654780
C94	C	2.157123	0.026790	1.154780
C95	C	1.657177	-0.527810	0.654790
C96	C	2.157177	-0.027810	1.154790
C97	C	1.734036	-0.555085	0.578102
C98	C	2.234036	-0.055085	1.078102
O99	O	1.591946	-0.614213	0.719963
O100	O	2.091946	-0.114213	1.219963
O101	O	1.876250	-0.614163	0.436231
O102	O	2.376250	-0.114163	0.936231
C103	C	2.047144	-0.251930	0.578130
C104	C	2.547144	0.248070	1.078130
C105	C	2.180544	-0.251933	0.578137
C106	C	2.680544	0.248067	1.078137
C107	C	1.734090	-0.251923	0.891158
C108	C	2.234090	0.248077	1.391158
C109	C	1.734086	-0.251924	1.024558
C110	C	2.234086	0.248076	1.524558
C111	C	1.734337	-0.115549	0.578197
C112	C	2.234337	0.384451	1.078197
C113	C	1.734438	-0.057435	0.578232
C114	C	2.234438	0.442565	1.078232
C115	C	1.734099	-0.251931	1.266291
C116	C	2.234099	0.248069	1.766291
C117	C	1.734089	-0.251924	1.132891
C118	C	2.234089	0.248076	1.632891
H119	H	1.873301	-0.450911	0.438931
H120	H	2.373301	0.049089	0.938931
H121	H	1.594557	-0.450992	0.717208
H122	H	2.094557	0.049008	1.217208
H123	H	1.950348	-0.702064	0.362318
H124	H	2.450348	-0.202064	0.862318
F125	F	1.575841	-1.059227	0.736534
F126	F	2.075841	-0.559227	1.236534
F127	F	1.893017	-1.059145	0.419918
F128	F	2.393017	-0.559145	0.919918
H129	H	1.873734	-0.953258	0.439060
H130	H	2.373734	-0.453258	0.939060
H131	H	1.594979	-0.953345	0.717351
H132	H	2.094979	-0.453345	1.217351
H133	H	1.518051	-0.801234	0.794022
H134	H	2.018051	-0.301234	1.294022
F135	F	1.892624	-0.556782	0.419791
F136	F	2.392624	-0.056782	0.919791
F137	F	1.969651	-0.807930	0.343172
F138	F	2.469651	-0.307930	0.843172
H139	H	1.517991	-0.702184	0.794006
H140	H	2.017991	-0.202184	1.294006
H141	H	1.594646	-0.550058	0.717253
H142	H	2.094646	-0.050058	1.217253
