data_functionalizedCrystal
_audit_creation_method	'MofGen! by Chris Wilmer'
_symmetry_space_group_name_H-M	'P1'
_symmetry_Int_Tables_number	1
_symmetry_cell_setting	triclinic
loop_
_symmetry_equiv_pos_as_xyz
  x,y,z
_cell_length_a	21.395362
_cell_length_b	18.215405
_cell_length_c	21.395355
_cell_angle_alpha	90.019851
_cell_angle_beta	90.043940
_cell_angle_gamma	90.040762
loop_
_atom_site_label
_atom_site_type_symbol
_atom_site_fract_x
_atom_site_fract_y
_atom_site_fract_z
Zn1	Zn	0.957885	-0.292758	0.354580
Zn2	Zn	1.457885	0.207242	0.854580
Zn3	Zn	0.957798	-0.415806	0.249800
Zn4	Zn	1.457798	0.084194	0.749800
Zn5	Zn	0.853100	-0.292792	0.249781
Zn6	Zn	1.353100	0.207208	0.749781
Zn7	Zn	0.853080	-0.415821	0.354505
Zn8	Zn	1.353080	0.084179	0.854505
O9	O	0.905466	-0.354294	0.302166
O10	O	1.405466	0.145706	0.802166
O11	O	1.045551	-0.309060	0.340720
O12	O	1.545551	0.190940	0.840720
O13	O	0.943882	-0.399496	0.162119
O14	O	1.443882	0.100504	0.662119
O15	O	0.867045	-0.189803	0.263706
O16	O	1.367045	0.310197	0.763706
O17	O	1.045487	-0.399463	0.263739
O18	O	1.545487	0.100537	0.763739
O19	O	0.944030	-0.189778	0.340702
O20	O	1.444030	0.310222	0.840702
O21	O	0.866960	-0.309118	0.162106
O22	O	1.366960	0.190882	0.662106
O23	O	0.765419	-0.309133	0.263634
O24	O	1.265419	0.190867	0.763634
O25	O	0.867010	-0.399488	0.442193
O26	O	1.367010	0.100512	0.942193
O27	O	0.765404	-0.399522	0.340573
O28	O	1.265404	0.100478	0.840573
O29	O	0.944010	-0.309074	0.442248
O30	O	1.444010	0.190926	0.942248
O31	O	0.943862	-0.518792	0.263666
O32	O	1.443862	-0.018792	0.763666
O33	O	0.866926	-0.518803	0.340592
O34	O	1.366926	-0.018803	0.840592
C35	C	0.742678	-0.354333	0.302094
C36	C	1.242678	0.145667	0.802094
C37	C	0.673037	-0.354367	0.302077
C38	C	1.173037	0.145633	0.802077
C39	C	0.905399	-0.545500	0.302136
C40	C	1.405399	-0.045500	0.802136
C41	C	0.905428	-0.627299	0.302144
C42	C	1.405428	-0.127299	0.802144
C43	C	0.640332	-0.401495	0.342080
C44	C	1.140332	0.098505	0.842080
C45	C	0.574897	-0.401477	0.342108
C46	C	1.074897	0.098523	0.842108
C47	C	0.542168	-0.354339	0.302122
C48	C	1.042168	0.145661	0.802122
C49	C	0.574881	-0.307202	0.262117
C50	C	1.074881	0.192798	0.762117
C51	C	0.640315	-0.307216	0.262094
C52	C	1.140315	0.192784	0.762094
C53	C	0.438443	-0.348410	0.245717
C54	C	0.938443	0.151590	0.745717
C55	C	0.373010	-0.348401	0.245738
C56	C	0.873010	0.151599	0.745738
C57	C	0.340348	-0.354291	0.302191
C58	C	0.840348	0.145709	0.802191
C59	C	0.373126	-0.360205	0.358625
C60	C	0.873126	0.139795	0.858625
C61	C	0.438560	-0.360219	0.358602
C62	C	0.938560	0.139781	0.858602
C63	C	0.471216	-0.354318	0.302142
C64	C	0.971216	0.145682	0.802142
C65	C	0.236691	-0.401402	0.342228
C66	C	0.736691	0.098598	0.842228
C67	C	0.171254	-0.401379	0.342256
C68	C	0.671254	0.098621	0.842256
C69	C	0.171239	-0.307107	0.262260
C70	C	0.671239	0.192893	0.762260
C71	C	0.236675	-0.307127	0.262236
C72	C	0.736675	0.192873	0.762236
C73	C	0.269396	-0.354278	0.302219
C74	C	0.769396	0.145722	0.802219
C75	C	0.945583	-0.815463	0.262163
C76	C	1.445583	-0.315463	0.762163
C77	C	0.945611	-0.892322	0.262178
C78	C	1.445611	-0.392322	0.762178
C79	C	0.865428	-0.892373	0.342215
C80	C	1.365428	-0.392373	0.842215
C81	C	0.865404	-0.815516	0.342203
C82	C	1.365404	-0.315516	0.842203
C83	C	0.905480	-0.777063	0.302173
C84	C	1.405480	-0.277063	0.802173
C85	C	0.905533	-0.930779	0.302200
C86	C	1.405533	-0.430779	0.802200
C87	C	0.905563	-1.014112	0.302217
C88	C	1.405563	-0.514112	0.802217
C89	C	0.905451	-0.693724	0.302157
C90	C	1.405451	-0.193724	0.802157
C91	C	1.068889	-0.354256	0.302240
C92	C	1.568889	0.145744	0.802240
C93	C	1.138530	-0.354239	0.302271
C94	C	1.638530	0.145761	0.802271
C95	C	0.905518	-0.354279	0.465590
C96	C	1.405518	0.145721	0.965590
C97	C	0.905540	-0.354273	0.535231
C98	C	1.405540	0.145727	1.035231
C99	C	0.905549	-0.162341	0.302210
C100	C	1.405549	0.337659	0.802210
C101	C	0.905585	-0.080542	0.302229
C102	C	1.405585	0.419458	0.802229
C103	C	0.905450	-0.354256	0.139379
C104	C	1.405450	0.145744	0.639379
C105	C	0.905549	-0.354055	0.069738
C106	C	1.405549	0.145945	0.569738
C107	C	0.945632	-0.307192	0.567974
C108	C	1.445632	0.192808	1.067974
C109	C	0.945631	-0.307161	0.633409
C110	C	1.445631	0.192839	1.133409
C111	C	0.905545	-0.354223	0.666099
C112	C	1.405545	0.145777	1.166099
C113	C	0.865445	-0.401307	0.633349
C114	C	1.365445	0.098693	1.133349
C115	C	0.865442	-0.401332	0.567914
C116	C	1.365442	0.098668	1.067914
C117	C	0.900574	-0.420488	0.769762
C118	C	1.400574	0.079512	1.269762
C119	C	0.900581	-0.420465	0.835195
C120	C	1.400581	0.079535	1.335195
C121	C	0.905548	-0.354145	0.867920
C122	C	1.405548	0.145855	1.367920
C123	C	0.910522	-0.287847	0.835205
C124	C	1.410522	0.212153	1.335205
C125	C	0.910520	-0.287872	0.769770
C126	C	1.410520	0.212128	1.269770
C127	C	0.905542	-0.354200	0.737052
C128	C	1.405542	0.145800	1.237052
C129	C	0.945642	-0.307026	0.971616
C130	C	1.445642	0.192974	1.471616
C131	C	0.945637	-0.306993	1.037052
C132	C	1.445637	0.193007	1.537052
C133	C	0.865454	-0.401146	1.036990
C134	C	1.365454	0.098854	1.536990
C135	C	0.865455	-0.401172	0.971555
C136	C	1.365455	0.098828	1.471555
C137	C	0.905553	-0.354113	0.938872
C138	C	1.405553	0.145887	1.438872
H139	H	0.666970	-0.439889	0.374638
H140	H	1.166970	0.060111	0.874638
H141	H	0.666942	-0.268837	0.229519
H142	H	1.166942	0.231163	0.729519
C143	C	1.024846	-0.823135	0.183055
C144	C	1.524846	-0.323135	0.683055
C145	C	0.989639	-0.773195	0.218167
C146	C	1.489639	-0.273195	0.718167
H147	H	1.052048	-0.797040	0.155897
H148	H	1.552048	-0.297040	0.655897
H149	H	0.997570	-0.853160	0.159059
H150	H	1.497570	-0.353160	0.659059
H151	H	1.048805	-0.853065	0.210397
H152	H	1.548805	-0.353065	0.710397
H153	H	0.965676	-0.743268	0.190825
H154	H	1.465676	-0.243268	0.690825
H155	H	1.016918	-0.743156	0.242165
H156	H	1.516918	-0.243156	0.742165
H157	H	0.346327	-0.343590	0.199787
H158	H	0.846327	0.156410	0.699787
H159	H	0.978268	-0.923584	0.229598
H160	H	1.478268	-0.423584	0.729598
H161	H	0.832798	-0.923691	0.374805
H162	H	1.332798	-0.423691	0.874805
C163	C	0.097596	-0.500363	0.350827
C164	C	0.597596	-0.000363	0.850827
C165	C	0.135299	-0.453184	0.386230
C166	C	0.635299	0.046816	0.886230
H167	H	0.075396	-0.532342	0.377976
H168	H	0.575396	-0.032342	0.877976
H169	H	0.123069	-0.528469	0.323480
H170	H	0.623069	-0.028469	0.823480
H171	H	0.068745	-0.472272	0.327022
H172	H	0.568745	0.027728	0.827022
H173	H	0.164153	-0.481275	0.410032
H174	H	0.664153	0.018725	0.910032
H175	H	0.109824	-0.425075	0.413588
H176	H	0.609824	0.074925	0.913588
H177	H	0.832812	-0.439515	0.944895
H178	H	1.332812	0.060485	1.444895
C179	C	0.511915	-0.404108	0.175453
C180	C	1.011915	0.095892	0.675453
C181	C	0.474347	-0.341939	0.183661
C182	C	0.974347	0.158061	0.683661
H183	H	0.534083	-0.400108	0.137146
H184	H	1.034083	0.099892	0.637146
H185	H	0.486353	-0.446750	0.174580
H186	H	0.986353	0.053250	0.674580
H187	H	0.540793	-0.407618	0.209065
H188	H	1.040793	0.092382	0.709065
H189	H	0.445465	-0.338431	0.150052
H190	H	0.945465	0.161569	0.650052
H191	H	0.499911	-0.299284	0.184529
H192	H	0.999911	0.200716	0.684529
C193	C	0.856696	-0.500352	0.494320
C194	C	1.356696	-0.000352	0.994320
C195	C	0.821375	-0.453090	0.531916
C196	C	1.321375	0.046910	1.031916
H197	H	0.829490	-0.532302	0.472093
H198	H	1.329490	-0.032302	0.972093
H199	H	0.883975	-0.528484	0.519869
H200	H	1.383975	-0.028484	1.019869
H201	H	0.880571	-0.472319	0.465493
H202	H	1.380571	0.027681	0.965493
H203	H	0.797503	-0.481122	0.560747
H204	H	1.297503	0.018878	1.060747
H205	H	0.794086	-0.424955	0.506365
H206	H	1.294086	0.075045	1.006365
C207	C	0.786141	-0.823281	0.421317
C208	C	1.286141	-0.323281	0.921317
C209	C	0.821318	-0.773301	0.386184
C210	C	1.321318	-0.273301	0.886184
H211	H	0.758925	-0.797217	0.448466
H212	H	1.258925	-0.297217	0.948466
H213	H	0.813435	-0.853207	0.445323
H214	H	1.313435	-0.353207	0.945323
H215	H	0.762198	-0.853307	0.393986
H216	H	1.262198	-0.353307	0.893986
H217	H	0.845264	-0.743278	0.413515
H218	H	1.345264	-0.243278	0.913515
H219	H	0.794021	-0.743362	0.362176
H220	H	1.294021	-0.243362	0.862176
H221	H	0.978282	-0.268872	0.541367
H222	H	1.478282	0.231128	1.041367
C223	C	0.976223	-0.182363	1.057209
C224	C	1.476223	0.317637	1.557209
C225	C	0.989710	-0.255234	1.073042
C226	C	1.489710	0.244766	1.573042
H227	H	1.003436	-0.150409	1.079424
H228	H	1.503436	0.349591	1.579424
H229	H	0.934137	-0.171598	1.067905
H230	H	1.434137	0.328402	1.567905
H231	H	0.981960	-0.175659	1.013559
H232	H	1.481960	0.324341	1.513559
H233	H	0.983968	-0.261939	1.116691
H234	H	1.483968	0.238061	1.616691
H235	H	1.031806	-0.266002	1.062350
H236	H	1.531806	0.233998	1.562350
H237	H	0.978278	-0.268818	0.660074
H238	H	1.478278	0.231182	1.160074
C239	C	0.890654	-0.551567	0.776325
C240	C	1.390654	-0.051567	1.276325
C241	C	0.895043	-0.493387	0.733794
C242	C	1.395043	0.006613	1.233794
H243	H	0.887220	-0.596567	0.754119
H244	H	1.387220	-0.096567	1.254119
H245	H	0.854778	-0.545045	0.801846
H246	H	1.354778	-0.045045	1.301846
H247	H	0.926994	-0.552553	0.801848
H248	H	1.426994	-0.052553	1.301848
H249	H	0.858700	-0.492397	0.708274
H250	H	1.358700	0.007603	1.208274
H251	H	0.930922	-0.499910	0.708262
H252	H	1.430922	0.000090	1.208262
H253	H	0.263334	-0.439792	0.374787
H254	H	0.763334	0.060208	0.874787
C255	C	0.920336	-0.156781	0.776344
C256	C	1.420336	0.343219	1.276344
C257	C	0.915977	-0.215002	0.733809
C258	C	1.415977	0.284998	1.233809
H259	H	0.923698	-0.111793	0.754142
H260	H	1.423698	0.388207	1.254142
H261	H	0.956241	-0.163226	0.801889
H262	H	1.456241	0.336774	1.301889
H263	H	0.884017	-0.155832	0.801843
H264	H	1.384017	0.344168	1.301843
H265	H	0.952298	-0.215954	0.708313
H266	H	1.452298	0.284046	1.208313
H267	H	0.880068	-0.208554	0.708254
H268	H	1.380068	0.291446	1.208254
H269	H	0.914568	-0.233843	0.861848
H270	H	1.414568	0.266157	1.361848
C271	C	1.029934	-0.296814	0.898101
C272	C	1.529934	0.203186	1.398101
C273	C	0.989715	-0.255297	0.935688
C274	C	1.489715	0.244703	1.435688
H275	H	1.057145	-0.264878	0.875927
H276	H	1.557145	0.235122	1.375927
H277	H	1.006059	-0.324853	0.869234
H278	H	1.506059	0.175147	1.369234
H279	H	1.053880	-0.328861	0.923655
H280	H	1.553880	0.171139	1.423655
H281	H	0.965764	-0.223254	0.910133
H282	H	1.465764	0.276746	1.410133
H283	H	1.013592	-0.227246	0.964559
H284	H	1.513592	0.272754	1.464559
H285	H	0.832808	-0.439457	1.063606
H286	H	1.332808	0.060543	1.563606
H287	H	0.144592	-0.268723	0.229705
H288	H	0.644592	0.231277	0.729705
H289	H	0.263303	-0.268754	0.229659
H290	H	0.763303	0.231246	0.729659
H291	H	0.896535	-0.474448	0.861827
H292	H	1.396535	0.025552	1.361827
H293	H	0.548229	-0.268820	0.229561
H294	H	1.048229	0.231180	0.729561
H295	H	0.832804	-0.439623	0.659969
H296	H	1.332804	0.060377	1.159969
C297	C	0.353029	-0.432761	0.450111
C298	C	0.853029	0.067239	0.950111
C299	C	0.337237	-0.366666	0.420688
C300	C	0.837237	0.133334	0.920688
H301	H	0.330869	-0.436748	0.488423
H302	H	0.830869	0.063252	0.988423
H303	H	0.396685	-0.433616	0.458165
H304	H	0.896685	0.066384	0.958165
H305	H	0.342232	-0.472744	0.423699
H306	H	0.842232	0.027256	0.923699
H307	H	0.348039	-0.326683	0.447098
H308	H	0.848039	0.173317	0.947098
H309	H	0.293571	-0.365805	0.412636
H310	H	0.793571	0.134195	0.912636
C311	C	0.581477	-0.494667	0.421175
C312	C	1.081477	0.005333	0.921175
C313	C	0.538938	-0.453281	0.386084
C314	C	1.038938	0.046719	0.886084
H315	H	0.559278	-0.526649	0.448322
H316	H	1.059278	-0.026649	0.948322
H317	H	0.607050	-0.462652	0.445182
H318	H	1.107050	0.037348	0.945182
H319	H	0.606947	-0.522776	0.393818
H320	H	1.106947	-0.022776	0.893818
H321	H	0.513471	-0.425168	0.413441
H322	H	1.013471	0.074832	0.913441
H323	H	0.513355	-0.485300	0.362076
H324	H	1.013355	0.014700	0.862076
C325	C	0.458862	-0.307751	0.459563
C326	C	0.958862	0.192249	0.959563
C327	C	0.474590	-0.366707	0.420631
C328	C	0.974590	0.133293	0.920631
H329	H	0.481109	-0.311753	0.497856
H330	H	0.981109	0.188247	0.997856
H331	H	0.415224	-0.308594	0.467656
H332	H	0.915224	0.191406	0.967656
H333	H	0.469598	-0.262923	0.439583
H334	H	0.969598	0.237077	0.939583
H335	H	0.463849	-0.411535	0.440610
H336	H	0.963849	0.088465	0.940610
H337	H	0.518238	-0.365871	0.412540
H338	H	1.018238	0.134129	0.912540
