data_functionalizedCrystal
_audit_creation_method	'MofGen! by Chris Wilmer'
_symmetry_space_group_name_H-M	'P1'
_symmetry_Int_Tables_number	1
_symmetry_cell_setting	triclinic
loop_
_symmetry_equiv_pos_as_xyz
  x,y,z
_cell_length_a	16.109302
_cell_length_b	10.489716
_cell_length_c	15.186229
_cell_angle_alpha	90.000291
_cell_angle_beta	89.994701
_cell_angle_gamma	83.995458
loop_
_atom_site_label
_atom_site_type_symbol
_atom_site_fract_x
_atom_site_fract_y
_atom_site_fract_z
O1	O	1.104131	0.163953	-0.073260
O2	O	0.862194	0.184355	-0.073252
O3	O	0.988679	-0.011526	-0.073260
O4	O	0.977647	0.359834	-0.073253
O5	O	0.988670	-0.011528	0.073198
O6	O	0.862186	0.184353	0.073205
O7	O	1.104123	0.163950	0.073197
Zn8	Zn	0.983153	0.174151	0.096454
Zn9	Zn	0.983164	0.174155	-0.096510
O10	O	0.977638	0.359831	0.073204
C11	C	0.831210	0.183527	-0.000023
C12	C	0.738900	0.181049	-0.000020
C13	C	0.526519	0.175317	0.079805
C14	C	0.439785	0.172975	0.079802
C15	C	0.439804	0.172985	-0.079874
C16	C	0.526538	0.175318	-0.079870
C17	C	0.569892	0.176491	-0.000028
C18	C	0.396425	0.171815	-0.000035
C19	C	0.302383	0.169276	-0.000039
C20	C	0.663940	0.179028	-0.000024
C21	C	0.987845	-0.059047	-0.000034
C22	C	0.985366	-0.200642	-0.000042
C23	C	1.062930	-0.299441	-0.000036
C24	C	1.021947	-0.376206	-0.072244
C25	C	1.021921	-0.376172	0.072152
C26	C	0.944416	-0.275542	-0.072309
C27	C	0.944401	-0.275503	0.072152
C28	C	0.903361	-0.352218	-0.000073
C29	C	1.135107	0.164778	-0.000034
C30	C	1.227417	0.167257	-0.000043
C31	C	0.978472	0.407353	-0.000024
C32	C	0.980951	0.548948	-0.000021
N33	N	0.983151	0.174148	0.228147
N34	N	0.983172	0.174148	-0.228202
C35	C	1.039178	0.087441	0.453867
C36	C	1.039181	0.087438	0.546056
C37	C	0.927140	0.260859	0.546072
C38	C	0.927134	0.260855	0.453884
C39	C	0.983157	0.174147	0.407784
C40	C	0.983166	0.174148	0.592161
C41	C	0.983168	0.174146	0.692117
C42	C	0.983154	0.174148	0.307821
H43	H	0.561854	0.176270	-0.144883
C44	C	1.154074	-0.267420	-0.000137
N45	N	1.222722	-0.243300	-0.000217
C46	C	0.574207	0.176592	0.167633
N47	N	0.610124	0.177547	0.233788
C48	C	1.066187	-0.435618	-0.154714
N49	N	1.099515	-0.480368	-0.216827
H50	H	0.911694	-0.231762	-0.133422
C51	C	0.392077	0.171700	0.167624
N52	N	0.356143	0.170743	0.233776
H53	H	0.835843	-0.375669	-0.000110
H54	H	0.404494	0.172031	-0.144879
C55	C	0.900196	-0.216080	0.154632
N56	N	0.866906	-0.171325	0.216764
C57	C	1.066169	-0.435531	0.154626
N58	N	1.099502	-0.480235	0.216743
H59	H	1.084795	0.016837	0.416334
H60	H	1.084796	0.016832	0.583574
C61	C	0.865515	0.356230	0.596791
N62	N	0.819098	0.428065	0.634991
C63	C	0.865541	0.356301	0.403189
N64	N	0.819165	0.428208	0.365006
