data_functionalizedCrystal
_audit_creation_method	'MofGen! by Chris Wilmer'
_symmetry_space_group_name_H-M	'P1'
_symmetry_Int_Tables_number	1
_symmetry_cell_setting	triclinic
loop_
_symmetry_equiv_pos_as_xyz
  x,y,z
_cell_length_a	10.654550
_cell_length_b	9.065218
_cell_length_c	8.140239
_cell_angle_alpha	90.002802
_cell_angle_beta	89.996625
_cell_angle_gamma	95.249592
loop_
_atom_site_label
_atom_site_type_symbol
_atom_site_fract_x
_atom_site_fract_y
_atom_site_fract_z
O1	O	0.184157	-1.959391	-0.136617
O2	O	0.684157	-1.459391	0.363383
O3	O	0.199263	-1.530024	-0.136620
O4	O	0.699263	-1.030024	0.363380
O5	O	0.009010	-1.754580	-0.136608
O6	O	0.509010	-1.254580	0.363392
O7	O	0.374410	-1.734836	-0.136629
O8	O	0.874410	-1.234836	0.363371
O9	O	0.009008	-1.754567	0.136619
O10	O	0.509008	-1.254567	0.636619
O11	O	0.199261	-1.530011	0.136607
O12	O	0.699261	-1.030011	0.636607
O13	O	0.184155	-1.959379	0.136610
O14	O	0.684155	-1.459379	0.636610
Zn15	Zn	0.191708	-1.744693	0.179989
Zn16	Zn	0.691708	-1.244693	0.679989
Zn17	Zn	0.191711	-1.744710	-0.179999
Zn18	Zn	0.691711	-1.244710	0.320001
O19	O	0.374408	-1.734823	0.136598
O20	O	0.874408	-1.234823	0.636598
C21	C	0.197810	-1.475039	-0.000006
C22	C	0.697810	-0.975039	0.499994
C23	C	0.193469	-1.311220	-0.000007
C24	C	0.693469	-0.811220	0.499993
C25	C	-0.037795	-1.753124	0.000005
C26	C	0.462205	-1.253124	0.500005
C27	C	-0.177255	-1.748786	0.000002
C28	C	0.322745	-1.248786	0.500002
C29	C	0.185608	-2.014364	-0.000007
C30	C	0.685608	-1.514364	0.499993
C31	C	0.189949	-2.178183	-0.000017
C32	C	0.689949	-1.678183	0.499983
C33	C	-0.256217	-1.881001	0.000002
C34	C	0.243783	-1.381001	0.500002
C35	C	-0.387254	-1.876917	-0.000018
C36	C	0.112746	-1.376917	0.499982
C37	C	-0.360354	-1.608391	-0.000031
C38	C	0.139646	-1.108391	0.499969
C39	C	-0.229320	-1.612477	-0.000023
C40	C	0.270680	-1.112477	0.499977
C41	C	-0.582482	-2.032639	-0.095750
C42	C	-0.082482	-1.532639	0.404250
C43	C	-0.661449	-2.164861	-0.095722
C44	C	-0.161449	-1.664861	0.404278
C45	C	-0.630803	-2.284719	0.000029
C46	C	-0.130803	-1.784719	0.500029
C47	C	-0.521192	-2.272361	0.095790
C48	C	-0.021192	-1.772361	0.595790
C49	C	-0.442232	-2.140137	0.095777
C50	C	0.057768	-1.640137	0.595777
C51	C	-0.472876	-2.020284	-0.000012
C52	C	0.027124	-1.520284	0.499988
C53	C	-0.034091	-1.456765	0.095723
C54	C	0.465909	-0.956765	0.595723
C55	C	0.044872	-1.324539	0.095721
C56	C	0.544872	-0.824539	0.595721
C57	C	0.014230	-1.204668	-0.000020
C58	C	0.514230	-0.704668	0.499980
C59	C	-0.095383	-1.217011	-0.095757
C60	C	0.404617	-0.717011	0.404243
C61	C	-0.174347	-1.349237	-0.095755
C62	C	0.325653	-0.849237	0.404245
C63	C	-0.143695	-1.469109	-0.000018
C64	C	0.356305	-0.969109	0.499982
C65	C	0.421213	-1.736279	-0.000018
C66	C	0.921213	-1.236279	0.499982
C67	C	0.560673	-1.740616	-0.000026
C68	C	1.060673	-1.240616	0.499974
N69	N	0.191705	-1.744693	0.425672
N70	N	0.691705	-1.244693	0.925672
N71	N	0.191704	-1.744722	-0.425682
N72	N	0.691704	-1.244722	0.074318
H73	H	-0.213831	-1.991993	0.000019
H74	H	0.286169	-1.491993	0.500019
Br75	Br	0.007509	-1.619457	0.225652
Br76	Br	0.507509	-1.119457	0.725652
H77	H	-0.120351	-1.119389	-0.173682
H78	H	0.379649	-0.619389	0.326318
Br79	Br	0.193611	-1.307768	0.225699
Br80	Br	0.693611	-0.807768	0.725699
Br81	Br	-0.810201	-2.181631	-0.225677
Br82	Br	-0.310201	-1.681631	0.274323
H83	H	-0.263590	-1.359287	-0.173733
H84	H	0.236410	-0.859287	0.326267
H85	H	0.078524	-1.096996	0.000009
H86	H	0.578524	-0.596996	0.500009
H87	H	-0.607436	-1.935055	-0.173741
H88	H	-0.107436	-1.435055	0.326259
Br89	Br	-0.431022	-1.423409	-0.000070
Br90	Br	0.068978	-0.923409	0.499930
H91	H	-0.496258	-2.369961	0.173771
H92	H	0.003742	-1.869961	0.673771
H93	H	-0.352992	-2.130073	0.173750
H94	H	0.147008	-1.630073	0.673750
H95	H	-0.695107	-2.392377	0.000049
H96	H	-0.195107	-1.892377	0.500049
