data_functionalizedCrystal
_audit_creation_method	'MofGen! by Chris Wilmer'
_symmetry_space_group_name_H-M	'P1'
_symmetry_Int_Tables_number	1
_symmetry_cell_setting	triclinic
loop_
_symmetry_equiv_pos_as_xyz
  x,y,z
_cell_length_a	10.654562
_cell_length_b	10.489716
_cell_length_c	9.565339
_cell_angle_alpha	89.996818
_cell_angle_beta	90.000092
_cell_angle_gamma	84.509620
loop_
_atom_site_label
_atom_site_type_symbol
_atom_site_fract_x
_atom_site_fract_y
_atom_site_fract_z
O1	O	1.667888	0.179235	0.116338
O2	O	1.302418	0.196288	0.116320
O3	O	1.493485	0.002158	0.116334
O4	O	1.476821	0.373365	0.116324
O5	O	1.493493	0.002164	-0.116186
O6	O	1.302426	0.196294	-0.116200
O7	O	1.667896	0.179241	-0.116182
Zn8	Zn	1.485163	0.187768	-0.153109
Zn9	Zn	1.485151	0.187761	0.153247
O10	O	1.476829	0.373371	-0.116197
C11	C	1.255624	0.195035	0.000057
C12	C	1.116180	0.191279	0.000051
C13	C	1.050653	0.189530	-0.126685
C14	C	0.919630	0.186011	-0.126661
C15	C	0.919670	0.185995	0.126845
C16	C	1.050693	0.189505	0.126820
C17	C	1.116140	0.191304	-0.253454
C18	C	1.050613	0.189557	-0.380200
C19	C	0.919590	0.186037	-0.380176
C20	C	0.854093	0.184266	-0.253407
C21	C	1.492237	-0.045371	0.000079
C22	C	1.488491	-0.187000	0.000091
C23	C	1.605659	-0.284725	0.000084
C24	C	1.543741	-0.362062	0.114722
C25	C	1.543722	-0.362020	-0.114524
C26	C	1.426621	-0.262471	0.114824
C27	C	1.426620	-0.262424	-0.114526
C28	C	1.364615	-0.339711	0.000140
C29	C	1.714690	0.180493	0.000084
C30	C	1.854134	0.184250	0.000099
C31	C	1.478077	0.420899	0.000062
C32	C	1.481823	0.562529	0.000059
N33	N	1.485179	0.187773	-0.362188
C34	C	1.573570	0.098000	-0.453347
C35	C	1.459859	0.072215	-0.546522
C36	C	1.598845	0.213475	-0.546568
C37	C	1.371410	0.161930	-0.453311
C38	C	1.510472	0.303240	-0.453350
C39	C	1.396679	0.277503	-0.546483
N40	N	1.485145	0.187746	0.362326
H41	H	0.866242	0.184604	-0.483379
C42	C	0.709963	0.180388	-0.253389
N43	N	0.601405	0.177475	-0.253377
H44	H	1.275247	0.140068	-0.412520
H45	H	1.648247	0.022043	-0.412452
C46	C	1.539458	0.435131	-0.398005
N47	N	1.561305	0.534470	-0.356315
H48	H	1.694986	0.235226	-0.587532
C49	C	1.610575	-0.420761	-0.245462
N50	N	1.660936	-0.465000	-0.344080
H51	H	0.866332	0.184556	0.230054
C52	C	1.260269	0.195171	-0.253491
N53	N	1.368827	0.198084	-0.253518
C54	C	1.122775	0.191439	0.266236
N55	N	1.177068	0.192896	0.371248
C56	C	1.743341	-0.251442	0.000247
N57	N	1.847041	-0.226372	0.000376
C58	C	1.430944	-0.059713	-0.601849
N59	N	1.409181	-0.159082	-0.643528
C60	C	1.610558	-0.420866	0.245657
N61	N	1.660893	-0.465158	0.344270
H62	H	1.103950	0.190989	-0.483411
H63	H	1.377183	-0.219148	0.211849
C64	C	1.226829	-0.372662	0.000214
N65	N	1.123049	-0.397483	0.000278
H66	H	1.377205	-0.218882	-0.211455
C67	C	1.295567	0.380051	-0.601392
N68	N	1.219406	0.457284	-0.642754
