data_functionalizedCrystal
_audit_creation_method	'MofGen! by Chris Wilmer'
_symmetry_space_group_name_H-M	'P1'
_symmetry_Int_Tables_number	1
_symmetry_cell_setting	triclinic
loop_
_symmetry_equiv_pos_as_xyz
  x,y,z
_cell_length_a	12.759401
_cell_length_b	19.077068
_cell_length_c	19.077237
_cell_angle_alpha	94.655611
_cell_angle_beta	87.690551
_cell_angle_gamma	92.327081
loop_
_atom_site_label
_atom_site_type_symbol
_atom_site_fract_x
_atom_site_fract_y
_atom_site_fract_z
Zn1	Zn	1.612852	-0.296662	-0.409791
Zn2	Zn	1.599161	-0.409820	-0.296636
Zn3	Zn	1.430395	-0.291952	-0.291928
Zn4	Zn	1.430316	-0.414513	-0.414486
O5	O	1.518181	-0.353237	-0.353210
O6	O	1.758057	-0.311680	-0.394787
O7	O	1.571078	-0.390249	-0.197364
O8	O	1.460361	-0.193927	-0.303627
O9	O	1.747998	-0.394817	-0.311652
O10	O	1.594411	-0.197388	-0.390221
O11	O	1.447086	-0.303652	-0.193905
O12	O	1.283364	-0.308202	-0.308180
O13	O	1.460227	-0.402815	-0.512510
O14	O	1.283306	-0.398247	-0.398223
O15	O	1.594335	-0.316231	-0.509061
O16	O	1.571001	-0.509092	-0.316204
O17	O	1.446951	-0.512540	-0.402788
C18	C	1.245214	-0.353223	-0.353200
C19	C	1.128437	-0.353235	-0.353213
C20	C	1.073564	-0.400191	-0.400027
C21	C	0.963840	-0.400200	-0.400035
C22	C	0.963872	-0.306296	-0.306409
C23	C	1.073594	-0.306284	-0.306405
C24	C	1.073545	-0.454408	-0.454079
C25	C	0.963821	-0.454417	-0.454087
C26	C	1.507511	-0.536395	-0.360532
C27	C	1.503044	-0.614752	-0.363688
C28	C	1.565586	-0.649747	-0.320129
C29	C	1.561391	-0.723372	-0.323101
C30	C	1.494648	-0.762000	-0.369630
C31	C	1.432104	-0.727000	-0.413194
C32	C	1.436305	-0.653376	-0.410225
C33	C	1.475156	-0.982385	-0.383344
C34	C	1.470958	-1.056013	-0.386309
C35	C	1.600247	-1.052380	-0.296216
C36	C	1.604437	-0.978756	-0.293248
C37	C	1.541897	-0.943762	-0.336815
N38	N	1.490356	-0.837256	-0.372668
N39	N	1.546196	-0.868507	-0.333780
C40	C	1.792214	-0.353251	-0.353221
C41	C	1.908991	-0.353257	-0.353225
C42	C	1.528799	-0.360572	-0.537079
C43	C	1.533324	-0.363698	-0.615433
C44	C	1.528922	-0.169364	-0.345875
C45	C	1.533499	-0.091008	-0.342749
C46	C	1.565779	-0.386170	-1.056677
C47	C	1.561513	-0.383228	-0.983055
C48	C	1.494830	-0.336667	-0.944450
C49	C	1.432402	-0.293051	-0.979472
C50	C	1.436664	-0.295996	-1.053093
C51	C	1.475157	-0.323027	-0.724075
C52	C	1.470903	-0.320083	-0.650449
C53	C	1.600012	-0.410262	-0.654037
C54	C	1.604273	-0.413200	-0.727659
C55	C	1.541841	-0.369586	-0.762675
N56	N	1.490470	-0.333658	-0.869197
N57	N	1.546196	-0.372599	-0.837927
C58	C	1.507668	-0.345879	-0.170055
C59	C	1.503359	-0.342554	-0.091693
H60	H	1.103431	-0.505452	-0.436506
H61	H	1.612329	-0.418753	-0.954548
H62	H	1.620085	-0.424081	-1.088103
C63	C	1.359038	-0.241842	-0.937013
H64	H	1.322462	-0.216295	-0.968414
H65	H	1.399350	-0.209978	-0.907066
H66	H	1.310022	-0.267668	-0.909372
C67	C	0.918152	-0.527350	-0.437157
H68	H	0.973827	-0.557336	-0.430181
H69	H	0.877900	-0.547043	-0.475223
H70	H	0.874564	-0.522663	-0.395611
C71	C	1.397549	-0.268866	-0.607982
H72	H	1.403965	-0.273354	-0.559122
H73	H	1.327052	-0.279659	-0.620454
H74	H	1.416398	-0.221982	-0.618164
H75	H	1.424319	-0.287514	-0.752576
H76	H	1.658785	-0.947306	-0.255360
H77	H	0.919205	-0.268069	-0.268300
H78	H	1.107327	-0.442048	-0.508119
H79	H	0.933927	-0.437020	-0.505208
H80	H	1.651165	-1.080880	-0.260747
C81	C	1.406363	-0.943898	-0.431261
H82	H	1.418428	-0.894518	-0.422838
H83	H	1.334496	-0.955593	-0.421393
H84	H	1.423739	-0.957828	-0.479122
H85	H	1.619930	-0.618300	-0.282237
C86	C	1.630182	-0.761863	-0.275182
H87	H	1.670522	-0.728313	-0.247039
H88	H	1.675852	-0.791623	-0.303328
H89	H	1.586603	-0.789392	-0.245603
H90	H	1.416621	-1.087463	-0.424211
C91	C	1.358686	-0.769488	-0.464374
H92	H	1.365131	-0.818348	-0.459899
H93	H	1.377426	-0.759286	-0.511260
H94	H	1.288193	-0.757050	-0.453524
C95	C	1.367511	-0.614881	-0.458142
H96	H	1.327154	-0.648430	-0.486275
H97	H	1.411084	-0.587353	-0.487719
H98	H	1.321839	-0.585120	-0.429991
H99	H	1.658572	-0.451115	-0.759086
C100	C	1.668670	-0.458240	-0.615520
H101	H	1.656578	-0.449823	-0.566145
H102	H	1.740563	-0.448416	-0.627173
H103	H	1.651209	-0.506087	-0.629472
H104	H	1.385835	-0.260479	-1.081602
H105	H	1.118268	-0.268043	-0.268289
