data_functionalizedCrystal
_audit_creation_method	'MofGen! by Chris Wilmer'
_symmetry_space_group_name_H-M	'P1'
_symmetry_Int_Tables_number	1
_symmetry_cell_setting	triclinic
loop_
_symmetry_equiv_pos_as_xyz
  x,y,z
_cell_length_a	6.817900
_cell_length_b	9.109307
_cell_length_c	19.453030
_cell_angle_alpha	100.626931
_cell_angle_beta	101.707737
_cell_angle_gamma	111.764999
loop_
_atom_site_label
_atom_site_type_symbol
_atom_site_fract_x
_atom_site_fract_y
_atom_site_fract_z
V1	V	-4.061561	-0.227159	-0.232693
O2	O	-3.992514	0.009170	-0.214277
O3	O	-4.066600	-0.448739	-0.244553
O4	O	-4.003810	-0.224431	-0.328041
O5	O	-4.055738	-0.216691	-0.130211
V6	V	-4.539476	-0.198801	-0.218801
O7	O	-4.335121	-0.289365	-0.263166
O8	O	-4.716113	-0.136595	-0.188328
O9	O	-4.311230	0.022780	-0.206941
O10	O	-4.725919	-0.435130	-0.237217
O11	O	-4.662695	-0.209269	-0.321283
O12	O	-4.374020	-0.201529	-0.123453
C13	C	-3.924904	-0.502732	-0.244353
C14	C	-4.010248	-0.683882	-0.254686
C15	C	-3.844808	-0.216602	-0.350850
C16	C	-3.879227	-0.215837	-0.428886
C17	C	-3.970643	-0.364789	-0.484571
C18	C	-4.003012	-0.364088	-0.557897
C19	C	-3.943919	-0.214425	-0.575533
C20	C	-3.852501	-0.065454	-0.519837
C21	C	-3.820155	-0.066161	-0.446514
N22	N	-3.823943	-0.097084	-0.673953
N23	N	-3.854671	-0.096423	-0.743608
C24	C	-4.041375	-0.212288	-0.796451
N25	N	-4.196177	-0.328864	-0.777010
N26	N	-4.165440	-0.329529	-0.707349
C27	C	-3.978985	-0.213643	-0.655038
C28	C	-4.167896	-0.360490	-0.931646
C29	C	-4.200275	-0.359783	-1.004973
C30	C	-4.049742	-0.061145	-0.966910
C31	C	-4.017386	-0.061857	-0.893586
C32	C	-4.076458	-0.211534	-0.875959
C33	C	-4.116271	0.076764	-0.207139
C34	C	-4.010164	0.257912	-0.196811
C35	C	-4.196366	-0.209363	-0.100641
C36	C	-4.141183	-0.210119	-0.022604
H37	H	-4.075589	-0.772647	-0.312159
Br38	Br	-3.696059	0.136005	-0.370935
Br39	Br	-4.050841	-0.567922	-0.460651
H40	H	-3.944846	-0.653333	-0.139343
Br41	Br	-4.127091	-0.566251	-0.633482
H42	H	-3.804395	0.056402	-0.534201
Br43	Br	-4.248058	-0.563617	-0.907718
Br44	Br	-4.324376	-0.561952	-1.080550
H45	H	-4.001639	0.060713	-0.981269
Br46	Br	-3.893234	0.140307	-0.818007
