data_functionalizedCrystal
_audit_creation_method	'MofGen! by Chris Wilmer'
_symmetry_space_group_name_H-M	'P1'
_symmetry_Int_Tables_number	1
_symmetry_cell_setting	triclinic
loop_
_symmetry_equiv_pos_as_xyz
  x,y,z
_cell_length_a	18.050582
_cell_length_b	21.395364
_cell_length_c	18.050589
_cell_angle_alpha	90.043172
_cell_angle_beta	89.981795
_cell_angle_gamma	89.985084
loop_
_atom_site_label
_atom_site_type_symbol
_atom_site_fract_x
_atom_site_fract_y
_atom_site_fract_z
Zn1	Zn	-0.419935	0.957810	-0.295410
Zn2	Zn	-0.295755	0.957735	-0.419594
Zn3	Zn	-0.295759	0.853043	-0.295454
Zn4	Zn	-0.419903	0.852999	-0.419595
O5	O	-0.357838	0.905397	-0.357514
O6	O	-0.403474	1.045478	-0.311864
O7	O	-0.191830	0.943834	-0.403144
O8	O	-0.312247	0.866991	-0.191524
O9	O	-0.312239	1.045423	-0.403101
O10	O	-0.403478	0.943963	-0.191492
O11	O	-0.191834	0.866918	-0.311939
O12	O	-0.312216	0.765359	-0.311941
O13	O	-0.523832	0.866916	-0.403104
O14	O	-0.403424	0.765327	-0.403147
O15	O	-0.523855	0.943920	-0.311866
O16	O	-0.312208	0.943792	-0.523519
O17	O	-0.403419	0.866843	-0.523520
C18	C	-0.357817	0.742609	-0.357550
C19	C	-0.357826	0.672968	-0.357583
C20	C	-0.405405	0.640306	-0.310154
C21	C	-0.405408	0.574871	-0.310134
C22	C	-0.357839	0.542100	-0.357557
C23	C	-0.310251	0.574770	-0.404989
C24	C	-0.310244	0.640204	-0.405003
C25	C	-0.351875	0.438379	-0.424437
C26	C	-0.351887	0.372946	-0.424426
C27	C	-0.357856	0.340279	-0.357516
C28	C	-0.363828	0.373053	-0.290616
C29	C	-0.363822	0.438487	-0.290629
C30	C	-0.357841	0.471147	-0.357547
C31	C	-0.405441	0.236665	-0.310061
C32	C	-0.405439	0.171228	-0.310040
C33	C	-0.310285	0.171128	-0.404902
C34	C	-0.310283	0.236563	-0.404917
C35	C	-0.357865	0.269328	-0.357497
C36	C	-0.551544	0.905422	-0.357481
C37	C	-0.634089	0.905432	-0.357467
C38	C	-0.833527	0.863589	-0.407014
C39	C	-0.882920	0.920752	-0.425150
C40	C	-0.785220	0.905463	-0.357410
C41	C	-0.882909	0.848331	-0.339253
C42	C	-0.931205	0.905488	-0.357356
C43	C	-0.833525	0.962656	-0.375581
C44	C	-0.833510	0.890197	-0.289653
C45	C	-0.882880	0.947399	-0.307763
C46	C	-0.701122	0.905448	-0.357442
C47	C	-1.015302	0.905509	-0.357324
C48	C	-0.164886	0.905409	-0.357493
C49	C	-0.082340	0.905520	-0.357298
C50	C	-0.357826	0.905321	-0.550466
C51	C	-0.357845	0.905346	-0.633011
C52	C	-0.357859	1.068820	-0.357478
C53	C	-0.357868	1.138462	-0.357463
C54	C	-0.407429	0.863543	-0.832490
C55	C	-0.339661	0.848274	-0.881928
C56	C	-0.357855	0.905408	-0.784142
C57	C	-0.425630	0.920707	-0.881785
C58	C	-0.357870	0.905466	-0.930127
C59	C	-0.290052	0.890109	-0.832493
C60	C	-0.376066	0.962569	-0.832345
C61	C	-0.308252	0.947322	-0.881762
C62	C	-0.357847	0.905373	-0.700043
C63	C	-0.357870	0.905501	-1.014223
C64	C	-0.357867	0.905490	-0.163808
C65	C	-0.357879	0.905530	-0.081262
H66	H	-0.347027	0.346266	-0.478899
H67	H	-0.271542	0.263157	-0.443542
H68	H	-0.391488	1.010870	-0.810552
H69	H	-0.904413	0.982862	-0.265792
H70	H	-0.444180	0.263343	-0.271445
H71	H	-0.482940	0.933624	-0.903437
H72	H	-0.444150	0.666979	-0.271540
H73	H	-0.811924	1.010996	-0.390981
N74	N	-0.806268	0.873954	-0.217819
N75	N	-0.822060	0.822092	-0.190170
H76	H	-0.802821	0.810614	-0.139436
N77	N	-0.910109	0.787704	-0.320016
N78	N	-0.865672	0.744298	-0.306844
H79	H	-0.884878	0.701477	-0.293264
N80	N	-0.454030	0.541508	-0.261693
N81	N	-0.496517	0.570769	-0.219368
H82	H	-0.530863	0.547209	-0.185162
N83	N	-0.261662	0.541308	-0.453442
N84	N	-0.219184	0.570482	-0.495790
H85	H	-0.184864	0.546851	-0.530011
N86	N	-0.345766	0.471734	-0.492795
N87	N	-0.340438	0.442466	-0.552519
H88	H	-0.336122	0.466022	-0.600795
H89	H	-0.271498	0.666797	-0.443626
N90	N	-0.218139	0.873815	-0.805457
N91	N	-0.190250	0.822154	-0.821908
H92	H	-0.139463	0.810642	-0.802815
N93	N	-0.459944	0.819060	-0.805353
N94	N	-0.453058	0.762491	-0.821287
H95	H	-0.490143	0.731073	-0.802121
H96	H	-0.444182	0.144636	-0.271413
H97	H	-0.324272	0.799962	-0.903724
H98	H	-0.811858	0.828211	-0.449018
H99	H	-0.266287	0.982751	-0.903260
H100	H	-0.368682	0.465170	-0.236157
H101	H	-0.271553	0.144447	-0.443515
H102	H	-0.368689	0.346458	-0.236132
N103	N	-0.910142	0.936965	-0.497007
N104	N	-0.894327	0.903697	-0.551728
H105	H	-0.913550	0.915143	-0.602478
