data_functionalizedCrystal
_audit_creation_method	'MofGen! by Chris Wilmer'
_symmetry_space_group_name_H-M	'P1'
_symmetry_Int_Tables_number	1
_symmetry_cell_setting	triclinic
loop_
_symmetry_equiv_pos_as_xyz
  x,y,z
_cell_length_a	15.944551
_cell_length_b	15.944551
_cell_length_c	14.185569
_cell_angle_alpha	76.843158
_cell_angle_beta	103.159808
_cell_angle_gamma	83.498738
loop_
_atom_site_label
_atom_site_type_symbol
_atom_site_fract_x
_atom_site_fract_y
_atom_site_fract_z
O1	O	1.095494	0.127352	-0.083318
O2	O	1.595494	0.627352	0.416682
O3	O	0.850939	0.140714	-0.083343
O4	O	1.350939	0.640714	0.416657
O5	O	0.979897	0.011756	-0.083321
O6	O	1.479897	0.511756	0.416679
O7	O	0.966536	0.256310	-0.083340
O8	O	1.466536	0.756310	0.416660
O9	O	1.017992	-0.026335	0.083520
O10	O	1.517992	0.473665	0.583520
O11	O	0.889034	0.102623	0.083498
O12	O	1.389034	0.602623	0.583498
O13	O	1.133590	0.089261	0.083523
O14	O	1.633590	0.589261	0.583523
Cu15	Cu	1.014790	0.092464	0.098744
Cu16	Cu	1.514790	0.592464	0.598744
Cu17	Cu	0.969738	0.137511	-0.098565
Cu18	Cu	1.469738	0.637511	0.401435
O19	O	1.004632	0.218219	0.083501
O20	O	1.504632	0.718219	0.583501
C21	C	0.838692	0.121115	0.000074
C22	C	1.338692	0.621115	0.500074
C23	C	0.745444	0.119455	0.000065
C24	C	1.245444	0.619455	0.500065
C25	C	0.530593	0.035544	0.000091
C26	C	1.030593	0.535544	0.500091
C27	C	0.450789	0.093288	-0.082174
C28	C	0.950789	0.593288	0.417826
C29	C	0.574721	0.116445	0.000077
C30	C	1.074721	0.616445	0.500077
C31	C	0.488370	0.055753	0.082319
C32	C	0.988370	0.555753	0.582319
C33	C	0.409812	0.113530	0.000093
C34	C	0.909812	0.613530	0.500093
C35	C	0.496130	0.174226	-0.082256
C36	C	0.996130	0.674226	0.417744
C37	C	0.533734	0.136662	0.082311
C38	C	1.033734	0.636662	0.582311
C39	C	0.453943	0.194470	0.000026
C40	C	0.953943	0.694470	0.500026
C41	C	0.669721	0.118122	0.000067
C42	C	1.169721	0.618122	0.500067
C43	C	0.314811	0.111861	0.000096
C44	C	0.814811	0.611861	0.500096
C45	C	0.998390	-0.038583	0.000100
C46	C	1.498390	0.461417	0.500100
C47	C	0.996728	-0.131830	0.000100
C48	C	1.496728	0.368170	0.500100
C49	C	0.912818	-0.346681	0.000078
C50	C	1.412818	0.153319	0.500078
C51	C	0.970565	-0.426481	0.082344
C52	C	1.470565	0.073519	0.582344
C53	C	0.993719	-0.302554	0.000092
C54	C	1.493719	0.197446	0.500092
C55	C	0.933025	-0.388909	-0.082148
C56	C	1.433025	0.111091	0.417852
C57	C	0.990805	-0.467463	0.000080
C58	C	1.490805	0.032537	0.500080
C59	C	1.051503	-0.381140	0.082427
C60	C	1.551503	0.118860	0.582427
C61	C	1.013935	-0.343546	-0.082139
C62	C	1.513935	0.156454	0.417861
C63	C	1.071745	-0.423332	0.000148
C64	C	1.571745	0.076668	0.500148
C65	C	0.995395	-0.207553	0.000100
C66	C	1.495395	0.292447	0.500100
C67	C	0.989137	-0.562464	0.000079
C68	C	1.489137	-0.062464	0.500079
C69	C	1.145836	0.108861	0.000103
C70	C	1.645836	0.608861	0.500103
C71	C	1.239083	0.110523	0.000106
C72	C	1.739083	0.610523	0.500106
C73	C	0.986138	0.268559	0.000078
C74	C	1.486138	0.768559	0.500078
C75	C	0.987799	0.361807	0.000071
C76	C	1.487799	0.861807	0.500071
N77	N	1.046484	0.060780	0.237521
N78	N	1.546484	0.560780	0.737521
N79	N	0.938052	0.169189	-0.237341
N80	N	1.438052	0.669189	0.262659
C81	C	0.844936	0.262241	0.605136
C82	C	1.344936	0.762241	1.105136
C83	C	0.868949	0.238246	0.710162
C84	C	1.368949	0.738246	1.210162
C85	C	0.983165	0.124096	0.710142
C86	C	1.483165	0.624096	1.210142
C87	C	0.959159	0.148079	0.605115
C88	C	1.459159	0.648079	1.105115
C89	C	0.890044	0.217152	0.552620
C90	C	1.390044	0.717152	1.052620
C91	C	1.004267	0.102990	0.552598
C92	C	1.504267	0.602990	1.052598
C93	C	0.980265	0.126974	0.447580
C94	C	1.480265	0.626974	0.947580
C95	C	0.911155	0.196047	0.395077
C96	C	1.411155	0.696047	0.895077
C97	C	0.866043	0.241136	0.447601
C98	C	1.366043	0.741136	0.947601
C99	C	1.073385	0.033921	0.605095
C100	C	1.573385	0.533921	1.105095
C101	C	1.118493	-0.011168	0.552579
C102	C	1.618493	0.488832	1.052579
C103	C	1.094487	0.012812	0.447558
C104	C	1.594487	0.512812	0.947558
C105	C	1.025377	0.081884	0.395056
C106	C	1.525377	0.581884	0.895056
C107	C	1.139600	-0.032278	0.395035
C108	C	1.639600	0.467722	0.895035
C109	C	1.115598	-0.008294	0.290016
C110	C	1.615598	0.491706	0.790016
C111	C	1.001376	0.105868	0.290037
C112	C	1.501376	0.605868	0.790037
H113	H	0.569745	0.154972	0.151857
H114	H	1.069745	0.654972	0.651857
C115	C	1.165206	-0.057892	0.232239
C116	C	1.665206	0.442108	0.732239
H117	H	1.141015	-0.033710	0.162176
H118	H	1.641015	0.466290	0.662176
H119	H	1.160014	-0.117888	0.249452
H120	H	1.660014	0.382112	0.749452
H121	H	1.225197	-0.052661	0.249435
H122	H	1.725197	0.447339	0.749435
H123	H	1.138964	-0.456503	0.000201
H124	H	1.638964	0.043497	0.500201
H125	H	0.809757	0.297377	0.404857
H126	H	1.309757	0.797377	0.904857
H127	H	0.414800	0.074950	-0.151717
H128	H	0.914800	0.574950	0.348283
H129	H	0.484164	0.005644	0.151865
H130	H	0.984164	0.505644	0.651865
C131	C	1.059182	0.048117	0.767892
C132	C	1.559182	0.548117	1.267892
H133	H	1.067014	0.040286	0.837959
H134	H	1.567014	0.540286	1.337959
H135	H	1.111304	0.061201	0.750670
H136	H	1.611304	0.561201	1.250670
H137	H	1.046115	-0.004020	0.750684
H138	H	1.546115	0.495980	1.250684
C139	C	0.884749	0.222435	0.279559
C140	C	1.384749	0.722435	0.779559
H141	H	0.837132	0.270033	0.255819
H142	H	1.337132	0.770033	0.755819
H143	H	0.867823	0.174169	0.255799
H144	H	1.367823	0.674169	0.755799
H145	H	0.933002	0.239400	0.255792
H146	H	1.433002	0.739400	0.755792
H147	H	0.788651	0.318482	0.562393
H148	H	1.288651	0.818482	1.062393
C149	C	0.819288	0.287811	0.767927
C150	C	1.319288	0.787811	1.267927
H151	H	0.774676	0.332367	0.721618
H152	H	1.274676	0.832367	1.221618
H153	H	0.858832	0.313449	0.808913
H154	H	1.358832	0.813449	1.308913
H155	H	0.793693	0.248179	0.808875
H156	H	1.293693	0.748179	1.308875
C157	C	1.194510	-0.087147	0.610328
C158	C	1.694510	0.412853	1.110328
H159	H	1.202342	-0.094978	0.680396
H160	H	1.702342	0.405022	1.180396
H161	H	1.246632	-0.074063	0.593106
H162	H	1.746632	0.425937	1.093106
H163	H	1.181443	-0.139284	0.593120
H164	H	1.681443	0.360716	1.093120
C165	C	1.215622	-0.108251	0.452787
C166	C	1.715622	0.391749	0.952787
H167	H	1.223455	-0.116078	0.522853
H168	H	1.723455	0.383922	1.022853
H169	H	1.267741	-0.095162	0.435561
H170	H	1.767741	0.404838	0.935561
H171	H	1.202562	-0.160392	0.435584
H172	H	1.702562	0.339608	0.935584
C173	C	0.575573	-0.055140	-0.000004
C174	C	1.075573	0.444860	0.499996
H175	H	0.622857	-0.077183	0.058474
H176	H	1.122857	0.422817	0.558474
H177	H	0.597038	-0.050210	-0.057894
H178	H	1.097038	0.449790	0.442106
H179	H	0.534571	-0.093979	-0.000635
H180	H	1.034571	0.406021	0.499365
C181	C	0.501648	0.241903	-0.176300
C182	C	1.001648	0.741903	0.323700
H183	H	0.561267	0.242529	-0.175745
H184	H	1.061267	0.742529	0.324255
H185	H	0.474662	0.298229	-0.176518
H186	H	0.974662	0.798229	0.323482
H187	H	0.472433	0.226694	-0.234658
H188	H	0.972433	0.726694	0.265342
H189	H	0.420773	0.261689	-0.000025
H190	H	0.920773	0.761689	0.499975
H191	H	1.032242	-0.307537	-0.151686
H192	H	1.532242	0.192463	0.348314
C193	C	0.865336	-0.394591	-0.176103
C194	C	1.365336	0.105409	0.323897
H195	H	0.808915	-0.368097	-0.176001
H196	H	1.308915	0.131903	0.323999
H197	H	0.865137	-0.454214	-0.175760
H198	H	1.365137	0.045786	0.324240
H199	H	0.880189	-0.364946	-0.234516
H200	H	1.380189	0.135054	0.265484
H201	H	0.845687	-0.313391	0.000153
H202	H	1.345687	0.186609	0.500153
H203	H	0.952228	-0.462466	0.151888
H204	H	1.452228	0.037534	0.651888
H205	H	1.101589	-0.377046	0.152053
H206	H	1.601589	0.122954	0.652053
H207	H	0.945090	0.162109	0.247294
H208	H	1.445090	0.662109	0.747294
H209	H	1.092927	0.014399	0.690608
H210	H	1.592927	0.514399	1.190608
