data_functionalizedCrystal
_audit_creation_method	'MofGen! by Chris Wilmer'
_symmetry_space_group_name_H-M	'P1'
_symmetry_Int_Tables_number	1
_symmetry_cell_setting	triclinic
loop_
_symmetry_equiv_pos_as_xyz
  x,y,z
_cell_length_a	19.077068
_cell_length_b	19.077148
_cell_length_c	19.076919
_cell_angle_alpha	89.924853
_cell_angle_beta	94.470751
_cell_angle_gamma	89.885327
loop_
_atom_site_label
_atom_site_type_symbol
_atom_site_fract_x
_atom_site_fract_y
_atom_site_fract_z
Zn1	Zn	-0.340464	-1.044046	-0.453520
Zn2	Zn	0.159536	-0.544046	0.046480
Zn3	Zn	-0.453614	-1.043959	-0.340361
Zn4	Zn	0.046386	-0.543959	0.159639
Zn5	Zn	-0.331035	-0.931658	-0.330949
Zn6	Zn	0.168965	-0.431658	0.169051
Zn7	Zn	-0.453188	-0.921799	-0.453095
Zn8	Zn	0.046812	-0.421799	0.046905
O9	O	-0.394575	-0.985366	-0.394481
O10	O	0.105425	-0.485366	0.105519
O11	O	-0.359598	-1.142194	-0.442626
O12	O	0.140402	-0.642194	0.057374
O13	O	-0.433586	-1.033152	-0.240637
O14	O	0.066414	-0.533152	0.259363
O15	O	-0.233811	-0.950729	-0.343447
O16	O	0.266189	-0.450729	0.156553
O17	O	-0.442728	-1.142130	-0.359489
O18	O	0.057272	-0.642130	0.140511
O19	O	-0.240738	-1.033300	-0.433500
O20	O	0.259262	-0.533300	0.066500
O21	O	-0.343528	-0.950645	-0.233722
O22	O	0.156472	-0.450645	0.266278
O23	O	-0.343115	-0.832191	-0.343035
O24	O	0.156885	-0.332191	0.156965
O25	O	-0.442002	-0.933926	-0.551627
O26	O	0.057998	-0.433926	-0.051627
O27	O	-0.432860	-0.824947	-0.432775
O28	O	0.067140	-0.324947	0.067225
O29	O	-0.359185	-1.023740	-0.551940
O30	O	0.140815	-0.523740	-0.051940
O31	O	-0.552032	-1.023592	-0.359077
O32	O	-0.052032	-0.523592	0.140923
O33	O	-0.551719	-0.933841	-0.441902
O34	O	-0.051719	-0.433841	0.058098
C35	C	-0.386918	-0.803117	-0.386838
C36	C	0.113082	-0.303117	0.113162
C37	C	-0.383660	-0.725150	-0.383586
C38	C	0.116340	-0.225150	0.116414
C39	C	-0.360265	-0.286677	-0.360268
C40	C	0.139735	0.213323	0.139732
C41	C	-0.363330	-0.359936	-0.363328
C42	C	0.136670	0.140064	0.136672
C43	C	-0.411659	-0.392810	-0.411510
C44	C	0.088341	0.107190	0.088490
C45	C	-0.456921	-0.352421	-0.456641
C46	C	0.043079	0.147579	0.043359
C47	C	-0.453852	-0.279164	-0.453584
C48	C	0.046148	0.220836	0.046416
C49	C	-0.425853	-0.611503	-0.425659
C50	C	0.074147	-0.111503	0.074341
C51	C	-0.428920	-0.684766	-0.428711
C52	C	0.071080	-0.184766	0.071289
C53	C	-0.335328	-0.692276	-0.335399
C54	C	0.164672	-0.192276	0.164601
C55	C	-0.332266	-0.619016	-0.332343
C56	C	0.167734	-0.119016	0.167657
C57	C	-0.377525	-0.578634	-0.377476
C58	C	0.122475	-0.078634	0.122524
N59	N	-0.414795	-0.467692	-0.414638
N60	N	0.085205	0.032308	0.085362
N61	N	-0.374386	-0.503753	-0.374351
N62	N	0.125614	-0.003753	0.125649
C63	C	-0.577410	-0.977656	-0.401480
C64	C	-0.077410	-0.477656	0.098520
C65	C	-0.655631	-0.974421	-0.404501
C66	C	-0.155631	-0.474421	0.095499
C67	C	-0.692522	-1.019663	-0.362836
C68	C	-0.192522	-0.519663	0.137164
C69	C	-0.766020	-1.016624	-0.365681
C70	C	-0.266020	-0.516624	0.134319
C71	C	-0.802625	-0.968340	-0.410188
C72	C	-0.302625	-0.468340	0.089812
C73	C	-0.765729	-0.923096	-0.451858
C74	C	-0.265729	-0.423096	0.048142
C75	C	-0.692233	-0.926138	-0.449016
C76	C	-0.192233	-0.426138	0.050984
C77	C	-1.022419	-0.954229	-0.423311
C78	C	-0.522419	-0.454229	0.076689
C79	C	-1.095919	-0.951188	-0.426149
C80	C	-0.595919	-0.451188	0.073851
C81	C	-1.096206	-1.044717	-0.339973
C82	C	-0.596206	-0.544717	0.160027
C83	C	-1.022708	-1.047753	-0.337132
C84	C	-0.522708	-0.547753	0.162868
C85	C	-0.985819	-1.002512	-0.378804
C86	C	-0.485819	-0.502512	0.121196
N87	N	-0.877751	-0.965231	-0.413096
N88	N	-0.377751	-0.465231	0.086904
N89	N	-0.910694	-1.005624	-0.375899
N90	N	-0.410694	-0.505624	0.124101
C91	C	-0.211027	-0.993124	-0.387471
C92	C	0.288973	-0.493124	0.112529
C93	C	-0.132810	-0.996430	-0.384484
C94	C	0.367190	-0.496430	0.115516
C95	C	-0.401598	-0.977743	-0.578031
C96	C	0.098402	-0.477743	-0.078031
C97	C	-0.404590	-0.974494	-0.656249
C98	C	0.095410	-0.474494	-0.156249
C99	C	-0.402259	-0.168326	-0.402147
C100	C	0.097741	0.331674	0.097853
C101	C	-0.405525	-0.246294	-0.405393
C102	C	0.094475	0.253706	0.094607
C103	C	-0.362879	-1.019727	-0.693160
C104	C	0.137121	-0.519727	-0.193160
C105	C	-0.365688	-1.016667	-0.766654
C106	C	0.134312	-0.516667	-0.266654
C107	C	-0.410212	-0.968376	-0.803236
C108	C	0.089788	-0.468376	-0.303236
C109	C	-0.451924	-0.923138	-0.766320
C110	C	0.048076	-0.423138	-0.266320
C111	C	-0.449111	-0.926196	-0.692827
C112	C	0.050889	-0.426196	-0.192827
C113	C	-0.423245	-0.954214	-1.023017
C114	C	0.076755	-0.454214	-0.523017
C115	C	-0.426056	-0.951161	-1.096515
C116	C	0.073944	-0.451161	-0.596515
C117	C	-0.339819	-1.044689	-1.096844
C118	C	0.160181	-0.544689	-0.596844
C119	C	-0.337013	-1.047745	-1.023350
C120	C	0.162987	-0.547745	-0.523350
C121	C	-0.378723	-1.002505	-0.986440
C122	C	0.121277	-0.502505	-0.486440
N123	N	-0.413086	-0.965248	-0.878358
N124	N	0.086914	-0.465248	-0.378358
N125	N	-0.375845	-1.005630	-0.911319
N126	N	0.124155	-0.505630	-0.411319
C127	C	-0.387531	-0.993001	-0.211645
C128	C	0.112469	-0.493001	0.288355
C129	C	-0.384346	-0.996394	-0.133426
C130	C	0.115654	-0.496394	0.366574
H131	H	-0.496269	-0.379193	-0.495875
H132	H	0.003731	0.120807	0.004125
H133	H	-0.992906	-1.087070	-0.300891
H134	H	-0.492906	-0.587070	0.199109
H135	H	-0.796053	-1.053464	-0.331753
H136	H	-0.296053	-0.553464	0.168247
C137	C	-0.462706	-0.495877	-0.462416
C138	C	0.037294	0.004123	0.037584
C139	C	-0.475604	-0.567121	-0.475265
C140	C	0.024396	-0.067121	0.024735
H141	H	-0.493420	-0.468476	-0.493046
H142	H	0.006580	0.031524	0.006954
H143	H	-0.470618	-0.485395	-0.415013
H144	H	0.029382	0.014605	0.084987
H145	H	-0.415333	-0.485442	-0.470487
H146	H	0.084667	0.014558	0.029513
H147	H	-0.522976	-0.577557	-0.467189
H148	H	-0.022976	-0.077557	0.032811
H149	H	-0.467698	-0.577607	-0.522679
H150	H	0.032302	-0.077607	-0.022679
C151	C	-0.277915	-1.111862	-0.700874
C152	C	0.222085	-0.611862	-0.200874
C153	C	-0.313935	-1.072809	-0.652953
C154	C	0.186065	-0.572809	-0.152953
H155	H	-0.247694	-1.144629	-0.676051
H156	H	0.252306	-0.644629	-0.176051
H157	H	-0.310799	-1.136205	-0.731834
H158	H	0.189201	-0.636205	-0.231834
H159	H	-0.250813	-1.081236	-0.727229
H160	H	0.249187	-0.581236	-0.227229
H161	H	-0.341040	-1.103435	-0.626601
H162	H	0.158960	-0.603435	-0.126601
H163	H	-0.281046	-1.048465	-0.621980
H164	H	0.218954	-0.548465	-0.121980
H165	H	-1.126249	-1.081551	-0.306047
H166	H	-0.626249	-0.581551	0.193953
H167	H	-0.320911	-0.259916	-0.321031
H168	H	0.179089	0.240084	0.178969
H169	H	-1.125722	-0.911877	-0.462404
H170	H	-0.625722	-0.411877	0.037596
H171	H	-0.292916	-0.592256	-0.293103
H172	H	0.207084	-0.092256	0.206897
C173	C	-0.298469	-0.807908	-0.298654
C174	C	0.201531	-0.307908	0.201346
C175	C	-0.285575	-0.736665	-0.285797
C176	C	0.214425	-0.236665	0.214203
H177	H	-0.267747	-0.835311	-0.268035
H178	H	0.232253	-0.335311	0.231965
H179	H	-0.345833	-0.818348	-0.290581
H180	H	0.154167	-0.318348	0.209419
H181	H	-0.290560	-0.818383	-0.346066
H182	H	0.209440	-0.318383	0.153934
H183	H	-0.293489	-0.726190	-0.238386
H184	H	0.206511	-0.226190	0.261614
H185	H	-0.238199	-0.726221	-0.293865
H186	H	0.261801	-0.226221	0.206135
H187	H	-0.331724	-1.053502	-0.796703
H188	H	0.168276	-0.553502	-0.296703
H189	H	-0.490706	-0.246284	-0.490332
H190	H	0.009294	0.253716	0.009668
C191	C	-0.700195	-1.111809	-0.277945
C192	C	-0.200195	-0.611809	0.222055
C193	C	-0.652290	-1.072739	-0.313912
C194	C	-0.152290	-0.572739	0.186088
H195	H	-0.675357	-1.144580	-0.247745
H196	H	-0.175357	-0.644580	0.252255
H197	H	-0.726585	-1.081199	-0.250833
H198	H	-0.226585	-0.581199	0.249167
H199	H	-0.731125	-1.136154	-0.310867
H200	H	-0.231125	-0.636154	0.189133
H201	H	-0.621363	-1.048390	-0.280990
H202	H	-0.121363	-0.548390	0.219010
H203	H	-0.625888	-1.103353	-0.341025
H204	H	-0.125888	-0.603353	0.158975
H205	H	-0.483069	-0.889355	-0.662775
H206	H	0.016931	-0.389355	-0.162775
H207	H	-0.326478	-0.392813	-0.326579
H208	H	0.173522	0.107187	0.173421
H209	H	-0.468276	-0.711530	-0.467951
H210	H	0.031724	-0.211530	0.032049
H211	H	-0.992389	-0.917390	-0.457241
H212	H	-0.492389	-0.417390	0.042759
H213	H	-0.305860	-1.081520	-1.126904
H214	H	0.194140	-0.581520	-0.626904
C215	C	-0.252046	-1.139880	-1.031060
C216	C	0.247954	-0.639880	-0.531060
C217	C	-0.288067	-1.100825	-0.983141
C218	C	0.211933	-0.600825	-0.483141
H219	H	-0.221827	-1.172647	-1.006235
H220	H	0.278173	-0.672647	-0.506235
H221	H	-0.284929	-1.164223	-1.062021
H222	H	0.215071	-0.664223	-0.562021
H223	H	-0.224942	-1.109256	-1.057414
H224	H	0.275058	-0.609256	-0.557414
H225	H	-0.315175	-1.131448	-0.956790
H226	H	0.184825	-0.631448	-0.456790
H227	H	-0.255179	-1.076481	-0.952168
H228	H	0.244821	-0.576481	-0.452168
H229	H	-0.457219	-0.917386	-0.992975
H230	H	0.042781	-0.417386	-0.492975
H231	H	-0.795538	-0.883785	-0.488099
H232	H	-0.295538	-0.383785	0.011901
C233	C	-0.468651	-0.904942	-1.209029
C234	C	0.031349	-0.404942	-0.709029
C235	C	-0.474992	-0.898068	-1.136728
C236	C	0.025008	-0.398068	-0.636728
H237	H	-0.498862	-0.872168	-1.233854
H238	H	0.001138	-0.372168	-0.733854
H239	H	-0.421402	-0.896183	-1.218830
H240	H	0.078598	-0.396183	-0.718830
H241	H	-0.481402	-0.951136	-1.223438
H242	H	0.018598	-0.451136	-0.723438
H243	H	-0.462236	-0.851875	-1.122317
H244	H	0.037764	-0.351875	-0.622317
H245	H	-0.522251	-0.906821	-1.126922
H246	H	-0.022251	-0.406821	-0.626922
C247	C	-0.699327	-0.833384	-0.534481
C248	C	-0.199327	-0.333384	-0.034481
C249	C	-0.651679	-0.876408	-0.494816
C250	C	-0.151679	-0.376408	0.005184
H251	H	-0.674290	-0.802682	-0.562756
H252	H	-0.174290	-0.302682	-0.062756
H253	H	-0.730269	-0.861621	-0.563806
H254	H	-0.230269	-0.361621	-0.063806
H255	H	-0.725729	-0.806661	-0.503778
H256	H	-0.225729	-0.306661	-0.003778
H257	H	-0.625281	-0.903136	-0.525520
H258	H	-0.125281	-0.403136	-0.025520
H259	H	-0.620725	-0.848168	-0.465488
H260	H	-0.120725	-0.348168	0.034512
C261	C	-0.494531	-0.876925	-0.878831
C262	C	0.005469	-0.376925	-0.378831
C263	C	-0.500866	-0.870055	-0.806529
C264	C	-0.000866	-0.370055	-0.306529
H265	H	-0.524751	-0.844156	-0.903652
H266	H	-0.024751	-0.344156	-0.403652
H267	H	-0.447285	-0.868156	-0.888636
H268	H	0.052715	-0.368156	-0.388636
H269	H	-0.507274	-0.923121	-0.893241
H270	H	-0.007274	-0.423121	-0.393241
H271	H	-0.488119	-0.823861	-0.792118
H272	H	0.011881	-0.323861	-0.292118
H273	H	-0.548123	-0.878819	-0.796719
H274	H	-0.048123	-0.378819	-0.296719
