data_functionalizedCrystal
_audit_creation_method	'MofGen! by Chris Wilmer'
_symmetry_space_group_name_H-M	'P1'
_symmetry_Int_Tables_number	1
_symmetry_cell_setting	triclinic
loop_
_symmetry_equiv_pos_as_xyz
  x,y,z
_cell_length_a	17.699083
_cell_length_b	8.559649
_cell_length_c	16.176319
_cell_angle_alpha	89.994559
_cell_angle_beta	89.998611
_cell_angle_gamma	76.530840
loop_
_atom_site_label
_atom_site_type_symbol
_atom_site_fract_x
_atom_site_fract_y
_atom_site_fract_z
O1	O	0.992507	0.202110	-0.068628
O2	O	1.492507	0.702110	0.431372
O3	O	0.770623	0.228405	-0.068655
O4	O	1.270623	0.728405	0.431345
O5	O	0.901113	-0.017421	-0.068638
O6	O	1.401113	0.482579	0.431362
O7	O	0.862017	0.447935	-0.068645
O8	O	1.362017	0.947935	0.431355
O9	O	0.901098	-0.017436	0.068855
O10	O	1.401098	0.482564	0.568855
O11	O	0.770608	0.228389	0.068838
O12	O	1.270608	0.728389	0.568838
O13	O	0.992492	0.202094	0.068865
O14	O	1.492492	0.702094	0.568865
Cu15	Cu	0.881549	0.215240	0.081406
Cu16	Cu	1.381549	0.715240	0.581406
Cu17	Cu	0.881566	0.215259	-0.081196
Cu18	Cu	1.381566	0.715259	0.418804
O19	O	0.862002	0.447920	0.068849
O20	O	1.362002	0.947920	0.568849
C21	C	0.742473	0.227455	0.000088
C22	C	1.242473	0.727455	0.500088
C23	C	0.658616	0.224628	0.000078
C24	C	1.158616	0.724628	0.500078
C25	C	0.904069	-0.076970	0.000107
C26	C	1.404069	0.423030	0.500107
C27	C	0.912888	-0.254384	0.000104
C28	C	1.412888	0.245616	0.500104
C29	C	0.601734	0.368922	0.000076
C30	C	1.101734	0.868922	0.500076
C31	C	0.522943	0.366257	0.000087
C32	C	1.022943	0.866257	0.500087
C33	C	0.501037	0.219296	0.000094
C34	C	1.001037	0.719296	0.500094
C35	C	0.557926	0.074990	0.000098
C36	C	1.057926	0.574990	0.500098
C37	C	0.636715	0.077657	0.000093
C38	C	1.136715	0.577657	0.500093
C39	C	0.240179	0.064231	0.000118
C40	C	0.740179	0.564231	0.500118
C41	C	0.161383	0.061575	0.000121
C42	C	0.661383	0.561575	0.500121
C43	C	0.126407	0.352831	0.000112
C44	C	0.626407	0.852831	0.500112
C45	C	0.205196	0.355498	0.000108
C46	C	0.705196	0.855498	0.500108
C47	C	0.262078	0.211193	0.000116
C48	C	0.762078	0.711193	0.500116
C49	C	0.347512	0.214085	0.000106
C50	C	0.847512	0.714085	0.500106
C51	C	0.415605	0.216402	0.000098
C52	C	0.915605	0.716402	0.500098
C53	C	1.020643	0.203044	0.000120
C54	C	1.520643	0.703044	0.500120
C55	C	1.104499	0.205871	0.000125
C56	C	1.604499	0.705871	0.500125
C57	C	0.859047	0.507469	0.000101
C58	C	1.359047	1.007469	0.500101
C59	C	0.850227	0.684883	0.000099
C60	C	1.350227	1.184883	0.500099
N61	N	0.881542	0.215226	0.195771
N62	N	1.381542	0.715226	0.695771
N63	N	0.881580	0.215260	-0.195561
N64	N	1.381580	0.715260	0.304439
C65	C	0.939336	0.106419	0.239043
C66	C	1.439336	0.606419	0.739043
C67	C	0.939340	0.106417	0.325590
C68	C	1.439340	0.606417	0.825590
C69	C	0.881552	0.215232	0.368864
C70	C	1.381552	0.715232	0.868864
C71	C	0.823752	0.324044	0.325586
C72	C	1.323752	0.824044	0.825586
C73	C	0.823746	0.324037	0.239041
C74	C	1.323746	0.824037	0.739041
C75	C	0.823776	0.324074	0.674614
C76	C	1.323776	0.824074	1.174614
C77	C	0.823789	0.324076	0.761166
C78	C	1.323789	0.824076	1.261166
C79	C	0.939370	0.106455	0.761164
C80	C	1.439370	0.606455	1.261164
C81	C	0.939364	0.106447	0.674618
C82	C	1.439364	0.606447	1.174618
C83	C	0.881562	0.215253	0.631348
C84	C	1.381562	0.715253	1.131348
C85	C	0.881558	0.215252	0.537504
C86	C	1.381558	0.715252	1.037504
C87	C	0.881559	0.215242	0.462706
C88	C	1.381559	0.715242	0.962706
H89	H	0.619562	0.488595	0.000070
H90	H	1.119562	0.988595	0.500070
H91	H	0.776714	0.412670	0.639391
H92	H	1.276714	0.912670	1.139391
Cl93	Cl	0.708226	-0.103749	0.000099
Cl94	Cl	1.208226	0.396251	0.500099
H95	H	0.986434	0.017854	0.796403
H96	H	1.486434	0.517854	1.296403
H97	H	0.986422	0.017846	0.639387
H98	H	1.486422	0.517846	1.139387
Cl99	Cl	0.451436	0.547664	0.000080
Cl100	Cl	0.951436	1.047664	0.500080
Cl101	Cl	0.751135	0.460879	0.815567
Cl102	Cl	1.251135	0.960879	1.315567
Cl103	Cl	1.006138	-0.383662	0.000126
Cl104	Cl	1.506138	0.116338	0.500126
Cl105	Cl	1.011991	-0.030377	0.184650
Cl106	Cl	1.511991	0.469623	0.684650
H107	H	0.223027	0.475168	0.000099
H108	H	0.723027	0.975168	0.500099
Cl109	Cl	1.011995	-0.030372	0.379990
Cl110	Cl	1.511995	0.469628	0.879990
H111	H	0.080083	0.470330	0.000110
H112	H	0.580083	0.970330	0.500110
H113	H	0.789834	-0.231386	0.000095
H114	H	1.289834	0.268614	0.500095
H115	H	0.776697	0.412637	0.360825
H116	H	1.276697	0.912637	0.860825
H117	H	0.776683	0.412636	0.203810
H118	H	1.276683	0.912636	0.703810
Cl119	Cl	0.133846	-0.123191	0.000130
Cl120	Cl	0.633846	0.376809	0.500130
Cl121	Cl	0.311678	-0.117181	0.000128
Cl122	Cl	0.811678	0.382819	0.500128
H123	H	0.540084	-0.044668	0.000115
H124	H	1.040084	0.455332	0.500115
