data_functionalizedCrystal
_audit_creation_method	'MofGen! by Chris Wilmer'
_symmetry_space_group_name_H-M	'P1'
_symmetry_Int_Tables_number	1
_symmetry_cell_setting	triclinic
loop_
_symmetry_equiv_pos_as_xyz
  x,y,z
_cell_length_a	13.262390
_cell_length_b	14.971487
_cell_length_c	14.048226
_cell_angle_alpha	90.005694
_cell_angle_beta	74.076255
_cell_angle_gamma	95.960164
loop_
_atom_site_label
_atom_site_type_symbol
_atom_site_fract_x
_atom_site_fract_y
_atom_site_fract_z
O1	O	1.392868	-0.120492	-0.439785
O2	O	1.087292	-0.133589	-0.360670
O3	O	1.248270	0.003137	-0.402343
O4	O	1.231890	-0.257217	-0.398111
O5	O	1.248251	0.003145	-0.244017
O6	O	1.087273	-0.133581	-0.202344
O7	O	1.392849	-0.120483	-0.281458
Zn8	Zn	1.240058	-0.127031	-0.216763
Zn9	Zn	1.240083	-0.127042	-0.425365
O10	O	1.231871	-0.257209	-0.239785
C11	C	1.048176	-0.132850	-0.271382
C12	C	0.931652	-0.130651	-0.241214
C13	C	0.603241	-0.124457	-0.501403
C14	C	0.712722	-0.126519	-0.529750
C15	C	0.767460	-0.127553	-0.457618
C16	C	0.712706	-0.126523	-0.357135
C17	C	0.603216	-0.124454	-0.328786
C18	C	0.767435	-0.127549	-0.285001
C19	C	0.712681	-0.126520	-0.184518
C20	C	0.603202	-0.124451	-0.156174
C21	C	0.548464	-0.123418	-0.228306
C22	C	0.876925	-0.129619	-0.313350
C23	C	0.876900	-0.129615	-0.140733
C24	C	0.767419	-0.127553	-0.112387
C25	C	1.247528	0.036468	-0.322991
C26	C	1.245332	0.135771	-0.322425
C27	C	1.431965	-0.121222	-0.370748
C28	C	1.548489	-0.123421	-0.400923
N29	N	1.240048	-0.127023	-0.074400
C30	C	1.339903	0.192729	-0.346910
C31	C	1.337833	0.286035	-0.346386
C32	C	1.241193	0.322379	-0.321369
C33	C	1.146615	0.265413	-0.296885
C34	C	1.148685	0.172110	-0.297417
C35	C	1.142307	0.459888	-0.295777
C36	C	1.140236	0.553198	-0.295243
C37	C	1.331455	0.573813	-0.344745
C38	C	1.333525	0.480509	-0.345277
C39	C	1.238947	0.423550	-0.320791
C40	C	1.232613	0.709460	-0.319143
C41	C	1.234806	0.610157	-0.319728
N42	N	1.240101	-0.127042	-0.567730
C43	C	1.311352	-0.066506	-0.043041
C44	C	1.311359	-0.066506	0.056615
C45	C	1.240066	-0.127027	0.124909
C46	C	1.168755	-0.187547	0.093544
C47	C	1.168744	-0.187542	-0.006108
C48	C	1.168786	-0.187553	0.301251
C49	C	1.168798	-0.187559	0.400910
C50	C	1.311400	-0.066517	0.363975
C51	C	1.311389	-0.066512	0.264322
C52	C	1.240079	-0.127033	0.232964
H53	H	0.757295	-0.127353	-0.611563
H54	H	1.065291	0.413513	-0.275840
Br55	Br	1.459811	0.651113	-0.377978
H56	H	0.558665	-0.123607	-0.560122
Br57	Br	1.408151	0.015616	0.171632
Br58	Br	0.951179	-0.131006	-0.042834
H59	H	1.412218	0.450921	-0.365641
Br60	Br	0.916043	-0.130353	-0.496090
Br61	Br	1.071964	-0.269670	-0.048665
Br62	Br	1.408125	0.015629	0.099178
H63	H	0.459315	-0.121742	-0.205231
H64	H	1.369410	-0.017226	-0.098642
Br65	Br	1.072000	-0.269687	0.258699
Br66	Br	1.408181	0.015614	0.406533
Br67	Br	1.020335	0.094807	-0.264194
Br68	Br	0.528896	-0.123047	-0.019805
Br69	Br	0.693098	-0.126158	0.023979
H70	H	1.061543	0.582786	-0.274857
H71	H	1.110743	-0.236841	0.456512
Br72	Br	1.071991	-0.269679	0.186227
H73	H	1.418599	0.163145	-0.367275
Br74	Br	1.466185	0.363333	-0.379617
H75	H	0.921494	-0.130459	-0.395164
H76	H	1.067928	0.295013	-0.276523
