data_functionalizedCrystal
_audit_creation_method	'MofGen! by Chris Wilmer'
_symmetry_space_group_name_H-M	'P1'
_symmetry_Int_Tables_number	1
_symmetry_cell_setting	triclinic
loop_
_symmetry_equiv_pos_as_xyz
  x,y,z
_cell_length_a	14.853566
_cell_length_b	14.044190
_cell_length_c	13.930277
_cell_angle_alpha	89.990896
_cell_angle_beta	89.995631
_cell_angle_gamma	88.413096
loop_
_atom_site_label
_atom_site_type_symbol
_atom_site_fract_x
_atom_site_fract_y
_atom_site_fract_z
O1	O	1.206177	0.123761	-0.079778
O2	O	0.944886	0.138506	-0.079795
O3	O	1.071607	-0.006856	-0.079768
O4	O	1.079457	0.269124	-0.079805
O5	O	1.071587	-0.006859	0.079894
O6	O	0.944867	0.138503	0.079867
O7	O	1.206158	0.123758	0.079884
Zn8	Zn	1.075509	0.131130	0.105225
Zn9	Zn	1.075535	0.131134	-0.105136
O10	O	1.079438	0.269120	0.079857
C11	C	0.911235	0.137837	0.000034
C12	C	0.810993	0.135835	0.000028
C13	C	0.387147	0.127372	-0.086986
C14	C	0.387148	0.127369	0.087084
C15	C	0.481331	0.129248	0.087081
C16	C	0.528426	0.130191	0.000043
C17	C	0.481339	0.129254	-0.086992
C18	C	0.528425	0.130195	0.174114
C19	C	0.622613	0.132075	0.174114
C20	C	0.669711	0.133011	0.087075
C21	C	0.622618	0.132073	0.000037
C22	C	0.669714	0.133016	-0.087001
C23	C	0.622623	0.132071	-0.174040
C24	C	0.528437	0.130190	-0.174030
C25	C	0.763897	0.134893	0.087066
C26	C	0.763905	0.134898	-0.087006
C27	C	1.068162	-0.042177	0.000065
C28	C	1.057918	-0.147416	0.000073
C29	C	1.111844	-0.397632	0.000039
C30	C	1.039204	-0.340098	0.000041
C31	C	1.049619	-0.232880	0.000059
C32	C	1.101431	-0.504860	0.000021
C33	C	1.239809	0.124428	0.000053
C34	C	1.340052	0.126429	0.000052
C35	C	1.082882	0.304441	0.000021
C36	C	1.093126	0.409680	0.000007
N37	N	1.075498	0.131127	0.248791
N38	N	1.075552	0.131130	-0.248702
C39	C	1.019419	0.195475	0.701048
C40	C	1.131675	0.066786	0.701042
C41	C	1.131664	0.066783	0.600546
C42	C	1.075531	0.131128	0.550297
C43	C	1.019408	0.195476	0.600543
C44	C	1.187793	0.002442	0.550292
C45	C	1.187785	0.002437	0.449790
C46	C	1.131646	0.066779	0.399539
C47	C	1.075520	0.131129	0.449792
C48	C	1.019386	0.195474	0.399543
C49	C	0.963255	0.259821	0.449793
C50	C	0.963269	0.259818	0.550292
C51	C	1.131632	0.066781	0.299040
C52	C	1.019376	0.195475	0.299037
H53	H	0.490087	0.129420	-0.244893
H54	H	0.802244	0.135663	-0.157884
H55	H	1.177382	0.014402	0.741958
C56	C	1.205137	-0.355816	-0.000086
C57	C	1.215329	-0.299633	-0.082203
C58	C	1.301252	-0.261074	-0.082341
H59	H	1.249436	-0.405911	-0.000136
H60	H	1.212204	-0.317657	0.055572
H61	H	1.208272	-0.337790	-0.137847
H62	H	1.171051	-0.249523	-0.082171
H63	H	1.308319	-0.222915	-0.026683
H64	H	1.345544	-0.311175	-0.082388
H65	H	1.308176	-0.222943	-0.138051
C66	C	1.248639	-0.067371	0.605020
C67	C	1.236612	-0.053617	0.703788
C68	C	1.292641	-0.117922	0.754238
H69	H	1.309675	-0.057019	0.588658
H70	H	1.233753	-0.130680	0.588618
H71	H	1.251504	0.009677	0.720184
H72	H	1.175588	-0.063976	0.720179
H73	H	1.277755	-0.181232	0.737835
H74	H	1.353674	-0.107566	0.737868
H75	H	1.284483	-0.108605	0.821257
C76	C	0.902429	0.329834	0.395282
C77	C	0.924553	0.423020	0.419691
C78	C	0.868550	0.487540	0.369480
H79	H	0.841397	0.319550	0.411715
H80	H	0.910479	0.320681	0.328223
H81	H	0.916496	0.432169	0.486734
H82	H	0.985575	0.433334	0.403255
H83	H	0.876600	0.478387	0.302422
H84	H	0.807522	0.477248	0.385917
H85	H	0.883559	0.550774	0.386028
C86	C	0.335968	0.126544	-0.181451
C87	C	0.278322	0.206967	-0.186556
C88	C	0.231169	0.206244	-0.273569
H89	H	0.301584	0.070634	-0.185154
H90	H	0.377476	0.127428	-0.233315
H91	H	0.236818	0.206075	-0.134707
H92	H	0.312683	0.262889	-0.182870
H93	H	0.272677	0.207128	-0.325433
H94	H	0.196790	0.150331	-0.277264
H95	H	0.192056	0.260813	-0.277048
H96	H	0.348796	0.126608	0.157946
H97	H	0.973661	0.247870	0.258131
C98	C	0.945926	-0.381965	0.000080
C99	C	0.954002	-0.481529	0.000091
C100	C	0.868098	-0.520133	0.000142
H101	H	0.914023	-0.361303	-0.055580
H102	H	0.914081	-0.361285	0.055783
H103	H	0.985833	-0.502201	-0.055607
H104	H	0.985889	-0.502217	0.055746
H105	H	0.836253	-0.499453	0.055845
H106	H	0.836202	-0.499465	-0.055518
H107	H	0.873566	-0.587691	0.000159
C108	C	0.902437	0.329639	0.605024
C109	C	0.914484	0.315885	0.703791
C110	C	0.858473	0.380197	0.754243
H111	H	0.841395	0.319295	0.588690
H112	H	0.917325	0.392947	0.588594
H113	H	0.899590	0.252593	0.720215
H114	H	0.975514	0.326238	0.720153
H115	H	0.873362	0.443505	0.737813
H116	H	0.797435	0.369847	0.737902
H117	H	0.866646	0.370880	0.821262
C118	C	1.248749	-0.067534	0.395410
C119	C	1.297893	-0.123899	0.460928
C120	C	1.354051	-0.188377	0.410868
H121	H	1.289095	-0.033475	0.356184
H122	H	1.213153	-0.107113	0.356244
H123	H	1.333487	-0.084325	0.500078
H124	H	1.257570	-0.157979	0.500157
H125	H	1.318455	-0.227956	0.371702
H126	H	1.394392	-0.154310	0.371643
H127	H	1.387396	-0.226634	0.455314
C128	C	1.192433	-0.003094	0.244346
C129	C	1.139755	-0.061210	0.186637
C130	C	1.195743	-0.125576	0.136225
H131	H	1.225899	-0.041506	0.288545
H132	H	1.232673	0.031084	0.205079
H133	H	1.099532	-0.095386	0.225900
H134	H	1.106291	-0.022825	0.142421
H135	H	1.235983	-0.091398	0.096958
H136	H	1.229207	-0.163981	0.180430
H137	H	1.160010	-0.165010	0.097057
H138	H	0.973715	0.247863	0.741965
C139	C	0.477132	0.129134	0.268506
C140	C	0.384571	0.127258	0.249879
C141	C	0.337289	0.126271	0.336813
H142	H	0.490026	0.184667	0.304321
H143	H	0.494945	0.074187	0.304292
H144	H	0.366765	0.182200	0.214108
H145	H	0.371651	0.071728	0.214078
H146	H	0.355101	0.071324	0.372600
H147	H	0.350189	0.181806	0.372622
H148	H	0.274482	0.124989	0.324187
H149	H	0.660947	0.132843	0.244986
H150	H	0.660980	0.132845	-0.244906
H151	H	0.802234	0.135671	0.157932
