data_functionalizedCrystal
_audit_creation_method	'MofGen! by Chris Wilmer'
_symmetry_space_group_name_H-M	'P1'
_symmetry_Int_Tables_number	1
_symmetry_cell_setting	triclinic
loop_
_symmetry_equiv_pos_as_xyz
  x,y,z
_cell_length_a	19.805407
_cell_length_b	13.897447
_cell_length_c	19.805399
_cell_angle_alpha	89.974846
_cell_angle_beta	89.983114
_cell_angle_gamma	90.019530
loop_
_atom_site_label
_atom_site_type_symbol
_atom_site_fract_x
_atom_site_fract_y
_atom_site_fract_z
Zn1	Zn	1.034750	-0.384024	-0.382738
Zn2	Zn	1.034684	-0.545334	-0.269557
Zn3	Zn	0.921570	-0.384054	-0.269562
Zn4	Zn	0.921542	-0.545279	-0.382704
O5	O	0.978136	-0.464673	-0.326140
O6	O	1.129458	-0.405432	-0.367736
O7	O	1.019663	-0.523976	-0.174841
O8	O	0.936623	-0.249069	-0.284592
O9	O	1.129409	-0.523946	-0.284583
O10	O	1.019776	-0.249046	-0.367741
O11	O	0.936559	-0.405484	-0.174845
O12	O	0.826850	-0.405431	-0.284559
O13	O	0.936575	-0.523852	-0.477425
O14	O	0.826829	-0.523882	-0.367683
O15	O	1.019749	-0.405379	-0.477450
O16	O	1.019636	-0.680308	-0.284550
O17	O	0.936511	-0.680268	-0.367678
C18	C	0.802280	-0.464654	-0.326118
C19	C	0.727048	-0.464670	-0.326125
C20	C	0.978081	-0.715287	-0.326125
C21	C	0.978120	-0.822501	-0.326140
C22	C	0.691711	-0.526440	-0.369338
C23	C	0.621023	-0.526441	-0.369347
C24	C	0.585673	-0.464677	-0.326140
C25	C	0.621015	-0.402900	-0.282925
C26	C	0.691702	-0.402894	-0.282920
C27	C	0.335942	-0.402921	-0.282948
C28	C	0.265250	-0.402934	-0.282955
C29	C	0.265262	-0.526469	-0.369375
C30	C	0.335949	-0.526463	-0.369370
C31	C	0.371285	-0.464683	-0.326158
C32	C	0.447934	-0.464680	-0.326149
C33	C	0.509026	-0.464684	-0.326145
C34	C	0.978153	-0.909571	-0.326156
C35	C	0.978200	-1.018803	-0.326173
C36	C	1.154679	-0.464692	-0.326163
C37	C	1.229911	-0.464700	-0.326172
C38	C	0.978166	-0.464606	-0.502683
C39	C	0.978179	-0.464577	-0.577915
C40	C	0.978210	-0.213080	-0.326171
C41	C	0.978242	-0.105866	-0.326184
C42	C	0.934919	-0.402873	-0.613261
C43	C	0.934928	-0.402854	-0.683949
C44	C	0.978201	-0.464536	-0.719291
C45	C	1.021463	-0.526247	-0.683940
C46	C	1.021450	-0.526269	-0.613253
C47	C	1.021517	-0.526156	-0.969014
C48	C	1.021528	-0.526127	-1.039706
C49	C	0.934995	-0.402741	-1.039710
C50	C	0.934982	-0.402764	-0.969023
C51	C	0.978241	-0.464478	-0.933678
C52	C	0.978229	-0.464499	-0.857030
C53	C	0.978217	-0.464510	-0.795938
C54	C	0.978146	-0.464670	-0.150284
C55	C	0.978264	-0.464427	-0.075053
H56	H	0.720488	-0.576739	-0.404520
H57	H	0.364704	-0.352624	-0.247757
C58	C	0.156884	-0.348115	-0.244576
C59	C	0.226390	-0.335048	-0.235451
H60	H	0.132895	-0.306216	-0.215244
H61	H	0.145319	-0.334075	-0.290064
H62	H	0.145300	-0.412916	-0.234597
H63	H	0.237976	-0.270249	-0.245435
H64	H	0.237960	-0.349082	-0.189953
C65	C	0.843955	-0.389298	-1.119186
C66	C	0.887433	-0.334912	-1.078560
H67	H	0.814592	-0.347421	-1.143165
H68	H	0.869726	-0.426019	-1.150349
H69	H	0.818052	-0.431327	-1.091591
H70	H	0.913340	-0.292887	-1.106155
H71	H	0.861659	-0.298174	-1.047394
C72	C	0.628108	-0.280782	-0.197503
C73	C	0.582161	-0.335005	-0.235431
H74	H	0.604121	-0.238863	-0.168183
H75	H	0.655660	-0.322758	-0.171561
H76	H	0.655697	-0.243939	-0.227043
H77	H	0.554575	-0.371853	-0.205890
H78	H	0.554597	-0.293024	-0.261375
H79	H	1.056734	-0.576418	-0.940245
H80	H	0.899684	-0.352639	-0.584491
C81	C	0.800057	-0.348028	-0.244541
C82	C	0.730549	-0.334995	-0.235419
H83	H	0.824037	-0.306101	-0.215219
H84	H	0.811623	-0.412810	-0.234552
H85	H	0.811653	-0.333994	-0.290037
H86	H	0.718952	-0.349036	-0.189924
H87	H	0.718979	-0.270198	-0.245403
C88	C	0.628135	-0.648580	-0.454751
C89	C	0.582180	-0.594357	-0.416838
H90	H	0.604154	-0.690516	-0.484066
H91	H	0.655719	-0.606606	-0.480698
H92	H	0.655692	-0.685404	-0.425201
H93	H	0.554627	-0.557527	-0.446388
H94	H	0.554585	-0.636336	-0.390889
C95	C	0.849401	-0.280878	-0.676853
C96	C	0.887380	-0.335020	-0.722801
H97	H	0.820049	-0.238995	-0.700840
H98	H	0.823492	-0.322906	-0.649275
H99	H	0.878908	-0.244001	-0.649290
H100	H	0.857873	-0.371903	-0.750361
H101	H	0.913291	-0.292987	-0.750391
H102	H	0.899747	-0.352533	-0.940251
H103	H	1.056682	-0.576508	-0.584475
H104	H	0.236483	-0.576769	-0.404563
H105	H	1.056694	-0.576473	-0.712721
C106	C	0.328860	-0.648568	-0.454802
C107	C	0.374805	-0.594352	-0.416867
H108	H	0.352849	-0.690474	-0.484129
H109	H	0.301274	-0.685415	-0.425272
H110	H	0.301305	-0.606580	-0.480743
H111	H	0.402357	-0.636340	-0.390923
H112	H	0.402403	-0.557502	-0.446401
C113	C	1.107057	-0.648118	-1.032605
C114	C	1.069093	-0.593940	-1.078555
H115	H	1.136416	-0.689983	-1.056591
H116	H	1.132958	-0.606112	-1.005044
H117	H	1.077542	-0.685016	-1.005025
H118	H	1.098608	-0.557036	-1.106131
H119	H	1.043189	-0.635951	-1.106127
