data_functionalizedCrystal
_audit_creation_method	'MofGen! by Chris Wilmer'
_symmetry_space_group_name_H-M	'P1'
_symmetry_Int_Tables_number	1
_symmetry_cell_setting	triclinic
loop_
_symmetry_equiv_pos_as_xyz
  x,y,z
_cell_length_a	23.532407
_cell_length_b	23.532407
_cell_length_c	15.072220
_cell_angle_alpha	90.014788
_cell_angle_beta	89.992736
_cell_angle_gamma	82.848712
loop_
_atom_site_label
_atom_site_type_symbol
_atom_site_fract_x
_atom_site_fract_y
_atom_site_fract_z
O1	O	0.755251	0.069141	0.073735
O2	O	0.589388	0.079144	0.073751
O3	O	0.677321	-0.008789	0.073726
O4	O	0.667318	0.157074	0.073760
O5	O	0.677330	-0.008803	-0.073839
O6	O	0.589397	0.079130	-0.073814
O7	O	0.755260	0.069127	-0.073830
Zn8	Zn	0.672330	0.074127	-0.097251
Zn9	Zn	0.672318	0.074144	0.097172
O10	O	0.667327	0.157060	-0.073805
C11	C	0.568176	0.078882	-0.000030
C12	C	0.504959	0.078116	-0.000025
C13	C	0.238792	0.022921	-0.000060
C14	C	0.298192	0.023632	-0.000060
O15	O	0.334937	-0.020153	-0.000099
N16	N	0.320818	0.075909	-0.000043
C17	C	0.284041	0.127477	-0.000036
O18	O	0.308740	0.172007	-0.000023
C19	C	0.224642	0.126765	-0.000043
C20	C	0.202019	0.074485	-0.000050
C21	C	0.216169	-0.029354	-0.000069
C22	C	0.156772	-0.030066	-0.000068
C23	C	0.119999	0.021499	-0.000058
C24	C	0.142623	0.073774	-0.000049
C25	C	0.187865	0.178333	-0.000042
C26	C	0.128463	0.177616	-0.000049
C27	C	0.105840	0.125336	-0.000057
C28	C	0.046454	0.124627	-0.000038
N29	N	0.023828	0.072351	-0.000055
C30	C	0.060600	0.020787	-0.000064
C31	C	0.408783	0.128968	-0.000024
C32	C	0.468181	0.129681	-0.000010
C33	C	0.482328	0.025836	-0.000036
C34	C	0.422929	0.025124	-0.000043
C35	C	0.386157	0.076692	-0.000040
C36	C	-0.064136	0.019297	-0.000061
C37	C	-0.123538	0.018590	-0.000056
C38	C	-0.137680	0.122435	-0.000035
C39	C	-0.078284	0.123142	-0.000036
C40	C	-0.041512	0.071568	-0.000051
O41	O	0.009675	0.168390	-0.000002
O42	O	0.035892	-0.023737	-0.000089
C43	C	0.677071	-0.030012	-0.000058
C44	C	0.676305	-0.093229	-0.000065
C45	C	0.723538	-0.492332	-0.000021
C46	C	0.722827	-0.551733	-0.000014
O47	O	0.766613	-0.588477	0.000015
N48	N	0.670551	-0.574359	-0.000010
C49	C	0.618982	-0.537581	-0.000004
O50	O	0.574452	-0.562281	0.000002
C51	C	0.619695	-0.478182	-0.000004
C52	C	0.671974	-0.455559	-0.000017
C53	C	0.775814	-0.469709	-0.000033
C54	C	0.776525	-0.410313	-0.000042
C55	C	0.724961	-0.373540	-0.000038
C56	C	0.672685	-0.396163	-0.000026
C57	C	0.568127	-0.441406	0.000009
C58	C	0.568843	-0.382003	0.000009
C59	C	0.621123	-0.359381	-0.000004
C60	C	0.621832	-0.299994	-0.000030
N61	N	0.674109	-0.277368	-0.000035
C62	C	0.725673	-0.314141	-0.000038
C63	C	0.617491	-0.662324	-0.000001
C64	C	0.616778	-0.721722	-0.000007
C65	C	0.720623	-0.735869	-0.000016
C66	C	0.721335	-0.676470	-0.000016
C67	C	0.669767	-0.639698	-0.000005
C68	C	0.727163	-0.189404	-0.000057
C69	C	0.727869	-0.130002	-0.000069
C70	C	0.624025	-0.115860	-0.000055
C71	C	0.623318	-0.175257	-0.000048
C72	C	0.674891	-0.212028	-0.000046
O73	O	0.578069	-0.263215	-0.000055
O74	O	0.770196	-0.289433	-0.000032
C75	C	0.776472	0.069389	-0.000047
C76	C	0.839689	0.070155	-0.000046
C77	C	0.667577	0.178283	-0.000019
C78	C	0.668343	0.241500	-0.000006
N79	N	0.672311	0.074152	0.229861
N80	N	0.672342	0.074114	-0.229940
C81	C	0.672321	0.074140	0.410858
C82	C	0.625182	0.121093	0.448540
C83	C	0.625307	0.121251	0.551366
C84	C	0.672331	0.074127	0.589063
C85	C	0.731705	0.086682	0.551724
C86	C	0.731423	0.087027	0.448866
C87	C	0.660624	0.014485	0.448730
C88	C	0.659277	0.014882	0.551595
C89	C	0.672340	0.074119	0.689776
C90	C	0.672316	0.074149	0.310145
H91	H	-0.141954	-0.023984	-0.000060
C92	C	0.780226	0.041687	0.584707
H93	H	0.764667	0.014781	0.621635
H94	H	0.798818	0.022389	0.535304
H95	H	0.807124	0.060133	0.617551
H96	H	0.742315	0.129671	0.577511
H97	H	0.767585	0.054155	0.423936
H98	H	-0.034204	-0.022699	-0.000074
C99	C	0.131895	-0.087574	-0.000092
H100	H	0.162309	-0.118177	-0.000109
H101	H	0.109010	-0.090015	0.051361
H102	H	0.109027	-0.090013	-0.051564
C103	C	0.256610	-0.086080	-0.000072
H104	H	0.234621	-0.117310	-0.000071
H105	H	0.280087	-0.087976	-0.051525
H106	H	0.280065	-0.087957	0.051400
C107	C	-0.178138	0.179151	-0.000031
H108	H	-0.216752	0.171235	-0.000043
H109	H	-0.171321	0.200613	0.051428
H110	H	-0.171305	0.200591	-0.051497
C111	C	0.745397	0.145780	0.416485
H112	H	0.745350	0.146507	0.353463
H113	H	0.717368	0.174987	0.438285
H114	H	0.782101	0.152087	0.437722
C115	C	0.559273	-0.746603	-0.000003
H116	H	0.566228	-0.787246	-0.000005
H117	H	0.538053	-0.733947	0.051457
H118	H	0.538061	-0.733971	-0.051468
C119	C	0.834033	-0.385435	-0.000039
H120	H	0.864637	-0.415850	-0.000030
H121	H	0.836482	-0.362567	-0.051496
H122	H	0.836465	-0.362552	0.051429
H123	H	0.695004	-0.020452	0.424357
C124	C	0.603398	-0.001947	0.413702
H125	H	0.586103	0.027425	0.375649
H126	H	0.610192	-0.036891	0.381638
H127	H	0.578588	-0.006496	0.462215
H128	H	0.615601	0.005344	0.576002
H129	H	0.525555	-0.459814	0.000025
H130	H	-0.059864	0.165712	-0.000028
C131	C	0.560763	-0.621879	-0.000006
H132	H	0.529531	-0.643866	-0.000011
H133	H	0.558872	-0.598401	0.051451
H134	H	0.558885	-0.598425	-0.051474
C135	C	0.088016	0.234342	-0.000038
H136	H	0.110001	0.265576	-0.000025
H137	H	0.064553	0.236222	-0.051494
H138	H	0.064549	0.236228	0.051431
H139	H	0.691408	-0.021669	0.577250
H140	H	0.581165	0.113833	0.576614
C141	C	0.567309	-0.075403	-0.000046
H142	H	0.575224	-0.036788	-0.000042
H143	H	0.545855	-0.082236	-0.051497
H144	H	0.545860	-0.082219	0.051427
C145	C	0.785379	-0.105121	-0.000078
H146	H	0.815985	-0.135532	-0.000070
H147	H	0.787822	-0.082254	-0.051539
H148	H	0.787812	-0.082233	0.051385
H149	H	0.404515	-0.017447	-0.000049
C150	C	0.565343	0.111261	0.415132
H151	H	0.568570	0.078435	0.377898
H152	H	0.541507	0.105475	0.464346
H153	H	0.549039	0.143806	0.382517
C154	C	0.522784	-0.030886	-0.000053
H155	H	0.500807	-0.062125	-0.000056
H156	H	0.546255	-0.032767	-0.051512
H157	H	0.546243	-0.032760	0.051413
H158	H	0.526850	-0.352065	0.000019
H159	H	0.486595	0.172252	0.000008
H160	H	0.378846	0.170964	-0.000015
H161	H	0.580747	-0.193677	-0.000062
C162	C	0.635096	0.180573	0.413674
H163	H	0.667840	0.176916	0.376255
H164	H	0.602508	0.196664	0.380968
H165	H	0.641069	0.204833	0.462295
H166	H	0.206274	0.220904	-0.000032
H167	H	0.632760	0.165523	0.576002
C168	C	0.777345	-0.776324	-0.000013
H169	H	0.808585	-0.754347	-0.000024
H170	H	0.779219	-0.799780	0.051447
H171	H	0.779227	-0.799800	-0.051478
H172	H	0.769159	-0.219337	-0.000051
C173	C	0.832540	-0.510151	-0.000044
H174	H	0.863770	-0.488161	-0.000058
H175	H	0.834428	-0.533612	0.051411
H176	H	0.834424	-0.533622	-0.051514
C177	C	0.778842	-0.651590	-0.000022
H178	H	0.809447	-0.682003	-0.000020
H179	H	0.781285	-0.628720	-0.051479
H180	H	0.781277	-0.628707	0.051445
