data_functionalizedCrystal
_audit_creation_method	'MofGen! by Chris Wilmer'
_symmetry_space_group_name_H-M	'P1'
_symmetry_Int_Tables_number	1
_symmetry_cell_setting	triclinic
loop_
_symmetry_equiv_pos_as_xyz
  x,y,z
_cell_length_a	10.540539
_cell_length_b	10.489741
_cell_length_c	9.016244
_cell_angle_alpha	89.998079
_cell_angle_beta	89.994699
_cell_angle_gamma	84.532333
loop_
_atom_site_label
_atom_site_type_symbol
_atom_site_fract_x
_atom_site_fract_y
_atom_site_fract_z
O1	O	1.685915	0.179759	-0.123270
O2	O	1.316504	0.196697	-0.123288
O3	O	1.509615	0.002629	-0.123269
O4	O	1.492803	0.373827	-0.123288
O5	O	1.509586	0.002634	0.123411
O6	O	1.316475	0.196701	0.123393
O7	O	1.685886	0.179764	0.123411
Cu8	Cu	1.501178	0.188233	0.145926
Cu9	Cu	1.501212	0.188228	-0.145803
O10	O	1.492775	0.373831	0.123393
C11	C	1.269186	0.195429	0.000050
C12	C	1.128238	0.191629	0.000044
C13	C	0.944793	0.046011	0.000627
C14	C	1.091412	0.049864	0.000055
C15	C	1.066589	0.259849	-0.140821
C16	C	0.920044	0.255011	-0.140924
C17	C	0.919524	0.257900	0.139598
C18	C	1.066506	0.259206	0.141445
C19	C	1.508331	-0.044900	0.000070
C20	C	1.504532	-0.186529	0.000067
C21	C	1.381661	-0.254654	0.000050
C22	C	1.439690	-0.346782	0.121680
C23	C	1.439747	-0.346761	-0.121528
C24	C	1.562612	-0.276791	0.121797
C25	C	1.562652	-0.276760	-0.121520
C26	C	1.620770	-0.368860	0.000139
C27	C	1.733203	0.181032	0.000070
C28	C	1.874152	0.184832	0.000067
C29	C	1.494059	0.421361	0.000050
C30	C	1.497858	0.562990	0.000043
N31	N	1.501164	0.188236	0.351112
N32	N	1.501236	0.188215	-0.350989
C33	C	1.397545	0.291701	0.586135
C34	C	1.397774	0.292088	0.414244
C35	C	1.633890	0.218515	0.413455
C36	C	1.633325	0.219248	0.585400
C37	C	1.473374	0.054153	0.585661
C38	C	1.470329	0.055022	0.413706
H39	H	0.891840	0.204586	-0.246216
H40	H	0.916190	-0.009992	0.101649
H41	H	0.914591	-0.009759	-0.099827
O42	O	1.421499	0.423833	0.359712
H43	H	1.515162	0.448585	0.401353
H44	H	1.657690	0.317055	0.625486
H45	H	1.540846	-0.025687	0.370738
O46	O	1.147841	-0.021248	0.133806
H47	H	1.252855	-0.018560	0.133534
H48	H	1.387754	-0.377720	-0.224366
H49	H	1.107450	0.209368	0.245656
O50	O	0.856505	0.390052	-0.149430
H51	H	0.930486	0.458520	-0.153464
H52	H	1.133163	-0.004197	-0.101092
O53	O	0.856988	0.393535	0.140869
H54	H	0.799724	0.409712	0.243632
O55	O	1.754698	-0.434366	0.000225
H56	H	1.805367	-0.406339	0.101287
H57	H	1.088955	0.363958	-0.146067
H58	H	1.299155	0.273869	0.372096
H59	H	1.280637	-0.204991	0.000168
H60	H	1.109184	0.212455	-0.245651
H61	H	1.614544	-0.245963	0.224740
O62	O	0.877747	0.197123	0.281043
H63	H	0.824171	0.114151	0.253464
O64	O	1.370825	-0.387852	0.257891
H65	H	1.271592	-0.341694	0.257642
O66	O	1.098610	0.396113	0.152728
H67	H	1.159327	0.418233	0.057295
O68	O	1.631477	-0.235627	-0.257720
H69	H	1.580292	-0.263343	-0.358543
H70	H	1.658800	0.315217	0.370374
H71	H	1.298617	0.273762	0.627525
O72	O	1.420954	0.422713	0.643321
H73	H	1.506122	0.414444	0.716328
O74	O	1.738686	0.123303	0.640511
H75	H	1.789823	0.076594	0.544346
O76	O	1.738601	0.121403	0.359286
H77	H	1.831343	0.144959	0.404910
O78	O	1.347852	0.015995	0.643141
H79	H	1.303920	0.092168	0.717512
H80	H	1.372688	0.032071	0.372961
O81	O	1.573499	-0.047889	0.639527
H82	H	1.642780	-0.003421	0.711071
