data_functionalizedCrystal
_audit_creation_method	'MofGen! by Chris Wilmer'
_symmetry_space_group_name_H-M	'P1'
_symmetry_Int_Tables_number	1
_symmetry_cell_setting	triclinic
loop_
_symmetry_equiv_pos_as_xyz
  x,y,z
_cell_length_a	16.992694
_cell_length_b	14.185569
_cell_length_c	16.992695
_cell_angle_alpha	104.070102
_cell_angle_beta	90.668223
_cell_angle_gamma	75.925569
loop_
_atom_site_label
_atom_site_type_symbol
_atom_site_fract_x
_atom_site_fract_y
_atom_site_fract_z
O1	O	1.034137	0.083296	0.183621
O2	O	0.805731	0.083325	0.181795
O3	O	0.919020	0.083303	0.068506
O4	O	0.920848	0.083318	0.296910
O5	O	0.952487	-0.083539	0.035044
O6	O	0.839198	-0.083516	0.148333
O7	O	1.067604	-0.083545	0.150158
Cu8	Cu	0.956456	-0.098765	0.146190
Cu9	Cu	0.916878	0.098544	0.185763
O10	O	0.954315	-0.083523	0.263447
C11	C	0.793103	-0.000092	0.162709
C12	C	0.705617	-0.000081	0.155683
N13	N	0.984299	-0.237541	0.118356
C14	C	0.659625	-0.000077	0.223501
C15	C	0.577427	-0.000091	0.216889
C16	C	0.541221	-0.000102	0.142460
C17	C	0.587219	-0.000109	0.074635
C18	C	0.669417	-0.000102	0.081246
C19	C	0.295912	-0.000131	0.115059
C20	C	0.213708	-0.000135	0.108454
C21	C	0.203922	-0.000119	0.250709
C22	C	0.286120	-0.000106	0.257314
C23	C	0.332112	-0.000118	0.189489
N24	N	0.457201	-0.000113	0.135700
N25	N	0.416132	-0.000113	0.196248
C26	C	0.807236	-0.605156	0.295334
C27	C	0.828333	-0.710182	0.274255
C28	C	0.928674	-0.710163	0.173979
C29	C	0.907583	-0.605135	0.195046
C30	C	0.846864	-0.552640	0.255725
C31	C	0.947212	-0.552618	0.155437
C32	C	0.926125	-0.447600	0.176506
C33	C	0.865410	-0.395097	0.237184
C34	C	0.825778	-0.447621	0.276793
C35	C	1.007934	-0.605116	0.094763
C36	C	1.047563	-0.552599	0.055154
C37	C	1.026472	-0.447579	0.076219
C38	C	0.965758	-0.395076	0.136896
C39	C	1.066105	-0.395055	0.036609
C40	C	1.045018	-0.290036	0.057678
C41	C	0.944671	-0.290057	0.157965
C42	C	1.080231	-0.000126	0.169245
C43	C	1.167716	-0.000131	0.176273
C44	C	0.933397	-0.000118	0.022415
C45	C	0.926368	-0.000116	-0.065069
N46	N	0.889041	0.237321	0.213592
C47	C	0.994188	-0.000126	-0.111062
C48	C	0.987577	-0.000116	-0.193261
C49	C	0.913147	-0.000103	-0.229467
C50	C	0.845322	-0.000090	-0.183467
C51	C	0.851932	-0.000093	-0.101268
C52	C	0.885749	-0.000085	-0.474777
C53	C	0.879144	-0.000085	-0.556983
C54	C	1.021401	-0.000109	-0.566770
C55	C	1.028006	-0.000118	-0.484571
C56	C	0.960179	-0.000100	-0.438578
N57	N	0.906388	-0.000095	-0.313487
N58	N	0.966937	-0.000101	-0.354557
C59	C	0.939937	-0.000100	0.309539
C60	C	0.946964	-0.000095	0.397025
H61	H	0.689097	-0.000067	0.284110
H62	H	1.042804	-0.000126	-0.230705
H63	H	0.166467	-0.000111	0.305928
H64	H	1.025103	-0.690629	0.077614
F65	F	1.073410	-0.000150	-0.072539
H66	H	1.076621	-0.000122	-0.604227
H67	H	0.757787	-0.562412	0.344738
F68	F	0.761146	-0.391749	0.341367
F69	F	0.813560	-0.000064	-0.425838
H70	H	1.077289	-0.247277	0.025424
H71	H	1.088615	-0.000129	-0.455099
H72	H	0.818535	-0.000091	-0.586461
H73	H	0.796705	-0.000085	-0.063822
H74	H	0.539984	-0.000087	0.272115
F75	F	0.175180	-0.000164	0.029228
H76	H	0.978114	-0.752916	0.124576
F77	F	0.766104	-0.000065	-0.222000
H78	H	1.097003	-0.595353	0.005751
H79	H	0.796058	-0.752935	0.306516
H80	H	0.333350	-0.000141	0.059830
F81	F	0.324646	-0.000089	0.336534
F82	F	0.718365	-0.000109	0.009063
F83	F	0.548685	-0.000127	-0.004580
F84	F	1.130732	-0.450935	-0.027960
F85	F	0.880039	-0.234186	0.222539
F86	F	0.842972	-0.283326	0.259610
