data_functionalizedCrystal
_audit_creation_method	'MofGen! by Chris Wilmer'
_symmetry_space_group_name_H-M	'P1'
_symmetry_Int_Tables_number	1
_symmetry_cell_setting	triclinic
loop_
_symmetry_equiv_pos_as_xyz
  x,y,z
_cell_length_a	11.792254
_cell_length_b	11.792241
_cell_length_c	10.868271
_cell_angle_alpha	89.998441
_cell_angle_beta	89.995692
_cell_angle_gamma	84.196007
loop_
_atom_site_label
_atom_site_type_symbol
_atom_site_fract_x
_atom_site_fract_y
_atom_site_fract_z
O1	O	-1.506901	-0.155631	0.102322
O2	O	-1.006901	0.344369	0.602322
O3	O	-1.176561	-0.171649	0.102324
O4	O	-0.676561	0.328351	0.602324
O5	O	-1.349747	0.001530	0.102314
O6	O	-0.849747	0.501530	0.602314
O7	O	-1.333715	-0.328810	0.102332
O8	O	-0.833715	0.171190	0.602332
O9	O	-1.349732	0.001525	-0.102330
O10	O	-0.849732	0.501525	0.397670
O11	O	-1.176546	-0.171654	-0.102320
O12	O	-0.676546	0.328346	0.397680
O13	O	-1.506885	-0.155636	-0.102323
O14	O	-1.006885	0.344364	0.397677
Zn15	Zn	-1.341713	-0.163646	-0.134813
Zn16	Zn	-0.841713	0.336354	0.365187
Zn17	Zn	-1.341733	-0.163639	0.134815
Zn18	Zn	-0.841733	0.336361	0.634815
O19	O	-1.333699	-0.328815	-0.102313
O20	O	-0.833699	0.171185	0.397687
C21	C	-1.134263	-0.170642	0.000002
C22	C	-0.634263	0.329358	0.500002
C23	C	-1.008250	-0.167622	0.000003
C24	C	-0.508250	0.332378	0.500003
C25	C	-1.348732	0.043819	-0.000008
C26	C	-0.848732	0.543819	0.499992
C27	C	-1.345718	0.169832	-0.000006
C28	C	-0.845718	0.669832	0.499994
N29	N	-1.341707	-0.163651	-0.318827
N30	N	-0.841707	0.336349	0.181173
C31	C	-1.549183	-0.156643	0.000002
C32	C	-1.049183	0.343357	0.500002
C33	C	-1.675196	-0.159663	0.000009
C34	C	-1.175196	0.340337	0.500009
C35	C	-0.905913	-0.165168	0.000008
C36	C	-0.405913	0.334832	0.500008
C37	C	-0.777527	-0.162100	0.000009
C38	C	-0.277527	0.337900	0.500009
C39	C	-1.334714	-0.371104	0.000012
C40	C	-0.834714	0.128896	0.500012
C41	C	-1.337728	-0.497118	0.000019
C42	C	-0.837728	0.002882	0.500019
C43	C	-1.340175	0.400545	0.000014
C44	C	-0.840175	0.900545	0.500014
C45	C	-1.343255	0.272160	0.000003
C46	C	-0.843255	0.772160	0.500003
C47	C	-1.341716	-0.163651	-0.430165
C48	C	-0.841716	0.336349	0.069835
C49	C	-1.341730	-0.163640	-0.569843
C50	C	-0.841730	0.336360	-0.069843
N51	N	-1.341748	-0.163626	0.318829
N52	N	-0.841748	0.336374	0.818829
