data_functionalizedCrystal
_audit_creation_method	'MofGen! by Chris Wilmer'
_symmetry_space_group_name_H-M	'P1'
_symmetry_Int_Tables_number	1
_symmetry_cell_setting	triclinic
loop_
_symmetry_equiv_pos_as_xyz
  x,y,z
_cell_length_a	6.817900
_cell_length_b	9.652871
_cell_length_c	17.078472
_cell_angle_alpha	85.702312
_cell_angle_beta	80.693980
_cell_angle_gamma	112.253171
loop_
_atom_site_label
_atom_site_type_symbol
_atom_site_fract_x
_atom_site_fract_y
_atom_site_fract_z
V1	V	4.108717	0.466449	-0.109425
O2	O	4.116141	0.457725	0.005611
O3	O	4.039025	0.463110	-0.217310
O4	O	4.105481	0.669952	-0.107587
O5	O	4.049224	0.249451	-0.104872
V6	V	4.589252	0.440513	-0.095683
O7	O	4.376531	0.523343	-0.139567
O8	O	4.771636	0.383619	-0.065541
O9	O	4.435738	0.443852	0.012202
O10	O	4.699226	0.449237	-0.210719
O11	O	4.766142	0.657511	-0.100236
O12	O	4.369282	0.237010	-0.097521
C13	C	3.877384	0.455714	-0.243615
C14	C	3.901990	0.454340	-0.331811
C15	C	4.096535	0.461154	-0.377282
C16	C	4.119647	0.459872	-0.460152
C17	C	3.948208	0.451766	-0.497550
C18	C	3.753650	0.444956	-0.452074
C19	C	3.730545	0.446249	-0.369206
C20	C	3.997691	0.447110	-0.744957
C21	C	4.020809	0.445814	-0.827831
C22	C	4.386807	0.460733	-0.835904
C23	C	4.363680	0.462015	-0.753033
C24	C	4.169130	0.455214	-0.707565
N25	N	3.971825	0.450451	-0.582257
N26	N	4.145520	0.456540	-0.622861
C27	C	3.962155	0.719558	-0.103651
C28	C	4.040652	0.885922	-0.102862
C29	C	4.182912	1.187395	-0.101455
C30	C	4.104408	1.021026	-0.102227
C31	C	4.260719	0.451244	0.038503
C32	C	4.215353	0.452628	0.126698
H33	H	3.614067	0.438365	-0.482531
C34	C	3.832207	0.436908	-0.868968
N35	N	3.690160	0.430201	-0.899952
C36	C	4.552336	0.471044	-0.711911
N37	N	4.694453	0.477880	-0.680941
H38	H	3.839275	0.441563	-0.707946
H39	H	4.236137	0.467740	-0.346838
C40	C	3.516530	0.438748	-0.319188
N41	N	3.355329	0.433101	-0.281516
C42	C	4.333657	0.467363	-0.510166
N43	N	4.494858	0.473005	-0.547835
H44	H	4.545203	0.466270	-0.872933
