data_functionalizedCrystal
_audit_creation_method	'MofGen! by Chris Wilmer'
_symmetry_space_group_name_H-M	'P1'
_symmetry_Int_Tables_number	1
_symmetry_cell_setting	triclinic
loop_
_symmetry_equiv_pos_as_xyz
  x,y,z
_cell_length_a	14.908571
_cell_length_b	12.759400
_cell_length_c	14.909241
_cell_angle_alpha	86.675800
_cell_angle_beta	83.210755
_cell_angle_gamma	86.710990
loop_
_atom_site_label
_atom_site_type_symbol
_atom_site_fract_x
_atom_site_fract_y
_atom_site_fract_z
Zn1	Zn	1.413404	-0.473612	-0.591537
Zn2	Zn	1.913404	0.026388	-0.091537
Zn3	Zn	1.404582	-0.658899	-0.440175
Zn4	Zn	1.904582	-0.158899	0.059825
Zn5	Zn	1.253300	-0.473638	-0.431469
Zn6	Zn	1.753300	0.026362	0.068531
Zn7	Zn	1.262018	-0.639650	-0.582776
Zn8	Zn	1.762018	-0.139650	-0.082776
O9	O	1.333326	-0.561450	-0.511489
O10	O	1.833326	-0.061450	-0.011489
O11	O	1.538901	-0.506236	-0.578769
O12	O	2.038901	-0.006236	-0.078769
O13	O	1.377174	-0.642390	-0.312351
O14	O	1.877174	-0.142390	0.187649
O15	O	1.274581	-0.326615	-0.452725
O16	O	1.774581	0.173385	0.047275
O17	O	1.532420	-0.642365	-0.467563
O18	O	2.032420	-0.142365	0.032437
O19	O	1.392209	-0.326596	-0.570327
O20	O	1.892209	0.173404	-0.070327
O21	O	1.266028	-0.506280	-0.305955
O22	O	1.766028	-0.006280	0.194045
O23	O	1.127788	-0.487615	-0.444230
O24	O	1.627788	0.012385	0.055770
O25	O	1.289440	-0.609559	-0.710606
O26	O	1.789440	-0.109559	-0.210606
O27	O	1.134193	-0.609583	-0.555394
O28	O	1.634193	-0.109583	-0.055394
O29	O	1.400662	-0.487571	-0.717044
O30	O	1.900662	0.012429	-0.217044
O31	O	1.385628	-0.803365	-0.459068
O32	O	1.885628	-0.303365	0.040932
O33	O	1.280886	-0.789223	-0.563836
O34	O	1.780886	-0.289223	-0.063836
C35	C	1.098147	-0.546514	-0.497917
C36	C	1.598147	-0.046514	0.002083
C37	C	0.997538	-0.540148	-0.492132
C38	C	1.497538	-0.040148	0.007868
C39	C	0.815192	-0.655410	-0.596863
C40	C	1.315192	-0.155410	-0.096863
C41	C	0.720661	-0.649432	-0.591431
C42	C	1.220661	-0.149432	-0.091431
C43	C	0.713944	-0.522209	-0.475841
C44	C	1.213944	-0.022209	0.024159
C45	C	0.808475	-0.528187	-0.481273
C46	C	1.308475	-0.028187	0.018727
C47	C	0.859096	-0.594791	-0.541785
C48	C	1.359096	-0.094791	-0.041785
C49	C	0.953628	-0.600774	-0.547212
C50	C	1.453628	-0.100774	-0.047212
C51	C	0.946909	-0.473546	-0.431628
C52	C	1.446909	0.026454	0.068372
C53	C	0.852378	-0.467568	-0.426196
C54	C	1.352378	0.032432	0.073804
C55	C	1.333271	-0.834415	-0.511467
C56	C	1.833271	-0.334415	-0.011467
C57	C	1.333332	-0.951194	-0.511493
C58	C	1.833332	-0.451194	-0.011493
C59	C	1.387939	-1.013385	-0.457008
C60	C	1.887939	-0.513385	0.042992
C61	C	1.387996	-1.123111	-0.457039
C62	C	1.887996	-0.623111	0.042961
C63	C	1.278832	-1.108444	-0.566042
C64	C	1.778832	-0.608444	-0.066042
C65	C	1.278780	-0.998721	-0.566015
C66	C	1.778780	-0.498721	-0.066015
C67	C	1.442491	-0.965858	-0.402485
C68	C	1.942491	-0.465858	0.097515
C69	C	1.497102	-1.028050	-0.347994
C70	C	1.997102	-0.528050	0.152006
C71	C	1.497159	-1.137776	-0.348026
C72	C	1.997159	-0.637776	0.151974
C73	C	1.442605	-1.185310	-0.402547
C74	C	1.942605	-0.685310	0.097453
C75	C	1.569423	-0.576445	-0.525115
C76	C	2.069423	-0.076445	-0.025115
C77	C	1.670033	-0.582835	-0.530921
C78	C	2.170033	-0.082835	-0.030921
C79	C	1.347007	-0.546415	-0.747587
C80	C	1.847007	-0.046415	-0.247587
C81	C	1.352838	-0.540008	-0.848198
C82	C	1.852838	-0.040008	-0.348198
C83	C	1.333407	-0.287419	-0.511532
C84	C	1.833407	0.212581	-0.011532
C85	C	1.333441	-0.170644	-0.511551
C86	C	1.833441	0.329356	-0.011551
C87	C	1.247979	-0.655018	-1.030555
C88	C	1.747979	-0.155018	-0.530555
C89	C	1.253454	-0.649002	-1.125088
C90	C	1.753454	-0.149002	-0.625088
C91	C	1.369267	-0.521964	-1.131798
C92	C	1.869267	-0.021964	-0.631798
C93	C	1.363792	-0.527981	-1.037265
C94	C	1.863792	-0.027981	-0.537265
C95	C	1.303145	-0.594509	-0.986647
C96	C	1.803145	-0.094509	-0.486647
C97	C	1.297666	-0.600519	-0.892112
C98	C	1.797666	-0.100519	-0.392112
C99	C	1.413482	-0.473488	-0.898824
C100	C	1.913482	0.026512	-0.398824
C101	C	1.418957	-0.467472	-0.993357
C102	C	1.918957	0.032528	-0.493357
C103	C	1.319750	-0.576354	-0.276313
C104	C	1.819750	-0.076354	0.223687
C105	C	1.314095	-0.582476	-0.175712
C106	C	1.814095	-0.082476	0.324288
H107	H	0.811150	-0.413338	-0.376932
H108	H	1.311150	0.086662	0.123068
H109	H	1.541632	-1.188409	-0.303664
H110	H	2.041632	-0.688409	0.196336
H111	H	0.856408	-0.709648	-0.646129
H112	H	1.356408	-0.209648	-0.146129
Cl113	Cl	1.002107	-0.397344	-0.362376
Cl114	Cl	1.502107	0.102656	0.137624
Cl115	Cl	1.210253	-1.168203	-0.634576
Cl116	Cl	1.710253	-0.668203	-0.134576
H117	H	1.248275	-0.654679	-0.850900
H118	H	1.748275	-0.154679	-0.350900
Cl119	Cl	1.171732	-0.738640	-0.966918
Cl120	Cl	1.671732	-0.238640	-0.466918
H121	H	1.234315	-0.948084	-0.610383
H122	H	1.734315	-0.448084	-0.110383
Cl123	Cl	1.495197	-0.383844	-1.057000
Cl124	Cl	1.995197	0.116156	-0.557000
Cl125	Cl	0.665470	-0.725640	-0.660676
Cl126	Cl	1.165470	-0.225640	-0.160676
H127	H	1.208534	-0.698276	-1.160834
H128	H	1.708534	-0.198276	-0.660834
Cl129	Cl	1.442284	-1.323251	-0.402188
Cl130	Cl	1.942284	-0.823251	0.097812
H131	H	0.672712	-0.467976	-0.426582
H132	H	1.172712	0.032024	0.073418
Cl133	Cl	1.442690	-0.827919	-0.402710
Cl134	Cl	1.942690	-0.327919	0.097290
Cl135	Cl	1.445512	-0.438349	-1.195448
Cl136	Cl	1.945512	0.061651	-0.695448
H137	H	1.458398	-0.424212	-0.863064
H138	H	1.958398	0.075788	-0.363064
Cl139	Cl	1.565688	-0.968294	-0.279466
Cl140	Cl	2.065688	-0.468294	0.220534
H141	H	0.994842	-0.655008	-0.596482
H142	H	1.494842	-0.155008	-0.096482
