data_functionalizedCrystal
_audit_creation_method	'MofGen! by Chris Wilmer'
_symmetry_space_group_name_H-M	'P1'
_symmetry_Int_Tables_number	1
_symmetry_cell_setting	triclinic
loop_
_symmetry_equiv_pos_as_xyz
  x,y,z
_cell_length_a	8.559649
_cell_length_b	8.559649
_cell_length_c	7.088929
_cell_angle_alpha	84.655815
_cell_angle_beta	84.678677
_cell_angle_gamma	110.221336
loop_
_atom_site_label
_atom_site_type_symbol
_atom_site_fract_x
_atom_site_fract_y
_atom_site_fract_z
O1	O	-2.108165	-0.036299	-0.159126
O2	O	-1.632684	0.047479	-0.159095
O3	O	-1.912315	-0.232152	-0.159111
O4	O	-1.828534	0.243333	-0.159110
O5	O	-1.949694	-0.269597	0.158862
O6	O	-1.670063	0.010034	0.158878
O7	O	-2.145544	-0.073744	0.158847
Cu8	Cu	-1.911217	-0.035274	0.187896
Cu9	Cu	-1.867012	0.009009	-0.188144
O10	O	-1.865913	0.205887	0.158863
C11	C	-1.591065	0.035105	-0.000105
C12	C	-1.411367	0.054003	-0.000094
C13	C	-1.937353	-0.311183	-0.000129
C14	C	-1.956251	-0.490881	-0.000140
C15	C	-1.187165	-0.061371	-0.000130
C16	C	-1.366867	-0.080274	-0.000102
C17	C	-1.840874	0.284919	-0.000123
C18	C	-1.821975	0.464618	-0.000124
N19	N	-1.942320	-0.066423	0.452382
N20	N	-1.835923	0.040144	-0.452630
H21	H	-1.466255	-0.209701	-0.000109
O22	O	-2.074011	-0.198227	0.549478
C23	C	-2.167870	-0.292297	0.418396
H24	H	-2.144965	-0.209347	0.275658
H25	H	-2.307225	-0.339828	0.476343
H26	H	-2.127320	-0.403780	0.397191
H27	H	-1.692557	-0.436005	-0.000110
H28	H	-2.085680	-0.590270	-0.000133
H29	H	-1.725655	0.150579	0.465730
H30	H	-1.311987	0.183424	-0.000107
