data_functionalizedCrystal
_audit_creation_method	'MofGen! by Chris Wilmer'
_symmetry_space_group_name_H-M	'P1'
_symmetry_Int_Tables_number	1
_symmetry_cell_setting	triclinic
loop_
_symmetry_equiv_pos_as_xyz
  x,y,z
_cell_length_a	26.210047
_cell_length_b	17.038272
_cell_length_c	17.038272
_cell_angle_alpha	91.111556
_cell_angle_beta	89.995980
_cell_angle_gamma	89.989185
loop_
_atom_site_label
_atom_site_type_symbol
_atom_site_fract_x
_atom_site_fract_y
_atom_site_fract_z
O1	O	0.042366	-1.048768	-0.170536
O2	O	0.542366	-0.548768	0.329464
O3	O	0.042381	-0.820957	-0.167828
O4	O	0.542381	-0.320957	0.332172
O5	O	0.042369	-0.933508	-0.055276
O6	O	0.542369	-0.433508	0.444724
O7	O	0.042377	-0.936216	-0.283088
O8	O	0.542377	-0.436216	0.216912
O9	O	-0.042489	-0.933470	-0.055273
O10	O	0.457511	-0.433470	0.444727
O11	O	-0.042477	-0.820919	-0.167825
O12	O	0.457523	-0.320919	0.332175
O13	O	-0.042492	-1.048730	-0.170533
O14	O	0.457508	-0.548730	0.329467
Cu15	Cu	-0.050233	-0.934821	-0.169179
Cu16	Cu	0.449767	-0.434821	0.330821
Cu17	Cu	0.050121	-0.934866	-0.169182
Cu18	Cu	0.550121	-0.434866	0.330818
O19	O	-0.042481	-0.936178	-0.283085
O20	O	0.457519	-0.436178	0.216915
C21	C	-0.000047	-0.791645	-0.165364
C22	C	0.499953	-0.291645	0.334636
C23	C	-0.000041	-0.704361	-0.158016
C24	C	0.499959	-0.204361	0.341984
C25	C	-0.000060	-0.931027	-0.025982
C26	C	0.499940	-0.431027	0.474018
C27	C	-0.000059	-0.923679	0.061301
C28	C	0.499941	-0.423679	0.561301
N29	N	-0.120817	-0.934795	-0.169177
N30	N	0.379183	-0.434795	0.330823
C31	C	-0.473333	-0.985655	-0.219999
C32	C	0.026667	-0.485655	0.280001
C33	C	-0.686991	-0.985678	-0.220000
C34	C	-0.186991	-0.485678	0.280000
O35	O	-0.714615	-1.028902	-0.263202
O36	O	-0.214615	-0.528902	0.236798
N37	N	-0.713711	-0.934884	-0.169176
N38	N	-0.213711	-0.434884	0.330824
C39	C	-0.687013	-0.884084	-0.118343
C40	C	-0.187013	-0.384084	0.381657
O41	O	-0.714642	-0.840887	-0.075108
O42	O	-0.214642	-0.340887	0.424892
C43	C	-0.473355	-0.884066	-0.118339
C44	C	0.026645	-0.384066	0.381661
C45	C	-0.446638	-0.934857	-0.169173
C46	C	0.053362	-0.434857	0.330827
C47	C	-0.446616	-1.036443	-0.270828
C48	C	0.053384	-0.536443	0.229172
C49	C	-0.393204	-1.036434	-0.270831
C50	C	0.106796	-0.536434	0.229169
C51	C	-0.366510	-0.985636	-0.220004
C52	C	0.133490	-0.485636	0.279996
C53	C	-0.393227	-0.934848	-0.169175
C54	C	0.106773	-0.434848	0.330825
C55	C	-0.446658	-0.833270	-0.067503
C56	C	0.053342	-0.333270	0.432497
C57	C	-0.393240	-0.833272	-0.067505
C58	C	0.106760	-0.333272	0.432495
C59	C	-0.366523	-0.884063	-0.118339
C60	C	0.133477	-0.384063	0.381661
C61	C	-0.313121	-0.884041	-0.118350
C62	C	0.186879	-0.384041	0.381650
N63	N	-0.286401	-0.934835	-0.169175
N64	N	0.213599	-0.434835	0.330825
C65	C	-0.313096	-0.985633	-0.220002
C66	C	0.186904	-0.485633	0.279998
C67	C	-0.799186	-0.884097	-0.118350
C68	C	-0.299186	-0.384097	0.381650
C69	C	-0.852600	-0.884100	-0.118352
C70	C	-0.352600	-0.384100	0.381648
C71	C	-0.852575	-0.985695	-0.220008
C72	C	-0.352575	-0.485695	0.279992
C73	C	-0.799160	-0.985687	-0.220010
C74	C	-0.299160	-0.485687	0.279990
C75	C	-0.772466	-0.934891	-0.169175
C76	C	-0.272466	-0.434891	0.330825
C77	C	-0.200928	-0.985609	-0.220003
C78	C	0.299072	-0.485609	0.279997
C79	C	-0.147512	-0.985593	-0.220003
C80	C	0.352488	-0.485593	0.279997
C81	C	-0.147541	-0.884001	-0.118344
C82	C	0.352459	-0.384001	0.381656
C83	C	-0.200953	-0.884014	-0.118347
C84	C	0.299047	-0.384014	0.381653
C85	C	-0.227645	-0.934824	-0.169179
C86	C	0.272355	-0.434824	0.330821
O87	O	-0.285465	-0.840846	-0.075165
O88	O	0.214535	-0.340846	0.424835
O89	O	-0.285457	-1.028835	-0.263219
O90	O	0.214543	-0.528835	0.236781
C91	C	-0.526744	-0.985664	-0.219997
C92	C	-0.026744	-0.485664	0.280003
C93	C	-0.553461	-0.934876	-0.169168
C94	C	-0.053461	-0.434876	0.330832
C95	C	-0.526767	-0.884078	-0.118341
C96	C	-0.026767	-0.384078	0.381659
C97	C	-0.606875	-0.934879	-0.169170
C98	C	-0.106875	-0.434879	0.330830
C99	C	-0.633570	-0.985677	-0.219997
C100	C	-0.133570	-0.485677	0.280003
C101	C	-0.606850	-1.036471	-0.270822
C102	C	-0.106850	-0.536471	0.229178
C103	C	-0.553439	-1.036462	-0.270824
C104	C	-0.053439	-0.536462	0.229176
C105	C	-0.553486	-0.833285	-0.067517
C106	C	-0.053486	-0.333285	0.432483
C107	C	-0.606898	-0.833297	-0.067519
C108	C	-0.106898	-0.333297	0.432481
C109	C	-0.633592	-0.884095	-0.118346
C110	C	-0.133592	-0.384095	0.381654
N111	N	0.120705	-0.934898	-0.169179
N112	N	0.620705	-0.434898	0.330821
C113	C	-0.000064	-1.078042	-0.172997
C114	C	0.499936	-0.578042	0.327003
C115	C	-0.000066	-1.165326	-0.180346
C116	C	0.499934	-0.665326	0.319654
C117	C	-0.000039	-0.658752	-0.225479
C118	C	0.499961	-0.158752	0.274521
C119	C	-0.000046	-0.576740	-0.218570
C120	C	0.499954	-0.076740	0.281430
C121	C	-0.000052	-0.540339	-0.144197
C122	C	0.499948	-0.040339	0.355803
C123	C	-0.000055	-0.585954	-0.076728
C124	C	0.499945	-0.085954	0.423272
C125	C	-0.000052	-0.667965	-0.083638
C126	C	0.499948	-0.167965	0.416362
C127	C	-0.000066	-0.292951	-0.119787
C128	C	0.499934	0.207049	0.380213
C129	C	-0.000068	-0.210935	-0.112882
C130	C	0.499932	0.289065	0.387118
C131	C	-0.000060	-0.201726	-0.254725
C132	C	0.499940	0.298274	0.245275
C133	C	-0.000054	-0.283739	-0.261628
C134	C	0.499946	0.216261	0.238372
C135	C	-0.000060	-0.329347	-0.194159
C136	C	0.499940	0.170653	0.305841
C137	C	-0.000058	-0.456510	-0.137133
C138	C	0.499942	0.043490	0.362867
C139	C	-0.000058	-0.413174	-0.201224
C140	C	0.499942	0.086826	0.298776
C141	C	-0.000051	-0.938660	-0.312379
C142	C	0.499949	-0.438660	0.187621
C143	C	-0.000048	-0.946008	-0.399663
C144	C	0.499952	-0.446008	0.100337
C145	C	-0.000064	-0.991142	0.106911
C146	C	0.499936	-0.491142	0.606911
C147	C	-0.000059	-0.984233	0.188923
C148	C	0.499941	-0.484233	0.688923
C149	C	-0.000052	-0.909860	0.225324
C150	C	0.499948	-0.409860	0.725324
C151	C	-0.000046	-0.842391	0.179708
C152	C	0.499954	-0.342391	0.679708
C153	C	-0.000047	-0.849301	0.097698
C154	C	0.499953	-0.349301	0.597698
C155	C	-0.000043	-0.885449	0.472712
C156	C	0.499957	-0.385449	0.972712
C157	C	-0.000043	-0.878545	0.554728
C158	C	0.499957	-0.378545	1.054728
C159	C	-0.000056	-1.020387	0.563937
C160	C	0.499944	-0.520387	1.063937
C161	C	-0.000060	-1.027291	0.481924
C162	C	0.499940	-0.527291	0.981924
C163	C	-0.000051	-0.959822	0.436316
C164	C	0.499949	-0.459822	0.936316
C165	C	-0.000048	-0.902796	0.309153
C166	C	0.499952	-0.402796	0.809153
C167	C	-0.000051	-0.966886	0.352488
C168	C	0.499949	-0.466886	0.852488
H169	H	-0.125761	-1.026953	-0.261402
H170	H	0.374239	-0.526953	0.238598
H171	H	-0.000073	-1.051705	0.077279
H172	H	0.499927	-0.551705	0.577279
H173	H	-0.000043	-0.313370	-0.322190
H174	H	0.499957	0.186630	0.177810
H175	H	-0.000044	-0.539608	-0.273507
H176	H	0.499956	-0.039608	0.226493
H177	H	-0.222654	-1.026984	-0.261395
H178	H	0.277346	-0.526984	0.238605
H179	H	-0.000056	-0.164583	-0.309653
H180	H	0.499944	0.335417	0.190347
F181	F	-0.635270	-1.090530	-0.324918
F182	F	-0.135270	-0.590530	0.175082
F183	F	-0.000065	-0.547212	0.002426
F184	F	0.499935	-0.047212	0.502426
F185	F	-0.000039	-0.799383	0.593467
F186	F	0.499961	-0.299383	1.093467
H187	H	-0.468345	-1.077812	-0.312218
H188	H	0.031655	-0.577812	0.187782
H189	H	-0.000072	-0.181300	-0.052315
H190	H	0.499928	0.318700	0.447685
H191	H	-0.000064	-1.039170	0.226054
H192	H	0.499936	-0.539170	0.726054
H193	H	-0.000066	-1.087853	0.452293
H194	H	0.499934	-0.587853	0.952293
F195	F	-0.229388	-0.829949	-0.064252
F196	F	0.270612	-0.329949	0.435748
F197	F	-0.000032	-0.813642	0.424182
F198	F	0.499968	-0.313642	0.924182
F199	F	-0.770783	-0.830017	-0.064252
F200	F	-0.270783	-0.330017	0.435748
H201	H	-0.000062	-1.075316	0.601079
H202	H	0.499938	-0.575316	1.101079
F203	F	-0.000073	-0.341480	-0.047979
F204	F	0.499927	0.158520	0.452021
H205	H	-0.371509	-0.791907	-0.026108
H206	H	0.128491	-0.291907	0.473892
F207	F	-0.770731	-1.039748	-0.274111
F208	F	-0.270731	-0.539748	0.225889
H209	H	-0.000037	-0.781835	0.209353
H210	H	0.499963	-0.281835	0.709353
H211	H	-0.000043	-0.794365	0.060564
H212	H	0.499957	-0.294365	0.560564
H213	H	-0.531757	-0.791919	-0.026125
H214	H	-0.031757	-0.291919	0.473875
H215	H	-0.000034	-0.688384	-0.286042
H216	H	0.499966	-0.188384	0.213958
H217	H	-0.628646	-0.791929	-0.026126
H218	H	-0.128646	-0.291929	0.473874
F219	F	-0.000055	-1.046037	0.313746
F220	F	0.499945	-0.546037	0.813746
F221	F	-0.364777	-1.090484	-0.324945
F222	F	0.135223	-0.590484	0.175055
F223	F	-0.000056	-0.716505	-0.011834
F224	F	0.499944	-0.216505	0.488166
F225	F	-0.000039	-0.823644	0.347901
F226	F	0.499961	-0.323644	0.847901
F227	F	-0.525011	-1.090518	-0.324933
F228	F	-0.025011	-0.590518	0.175067
F229	F	-0.880994	-1.039759	-0.274101
F230	F	-0.380994	-0.539759	0.225899
F231	F	-0.000054	-0.451917	-0.280375
F232	F	0.499946	0.048083	0.219625
H233	H	-0.874349	-0.842732	-0.076967
H234	H	-0.374349	-0.342732	0.423033
H235	H	-0.468402	-0.791911	-0.026108
H236	H	0.031598	-0.291911	0.473892
H237	H	-0.125797	-0.842641	-0.076965
H238	H	0.374203	-0.342641	0.423035
H239	H	-0.000077	-0.426863	-0.076578
H240	H	0.499923	0.073137	0.423422
