data_functionalizedCrystal
_audit_creation_method	'MofGen! by Chris Wilmer'
_symmetry_space_group_name_H-M	'P1'
_symmetry_Int_Tables_number	1
_symmetry_cell_setting	triclinic
loop_
_symmetry_equiv_pos_as_xyz
  x,y,z
_cell_length_a	16.992701
_cell_length_b	10.723022
_cell_length_c	15.455313
_cell_angle_alpha	92.691706
_cell_angle_beta	87.136501
_cell_angle_gamma	87.567198
loop_
_atom_site_label
_atom_site_type_symbol
_atom_site_fract_x
_atom_site_fract_y
_atom_site_fract_z
O1	O	1.045224	0.259599	-0.072134
O2	O	0.816923	0.256697	-0.072134
O3	O	0.936340	0.077025	-0.072131
O4	O	0.925807	0.439271	-0.072137
O5	O	0.929511	0.087255	0.072131
O6	O	0.810094	0.266927	0.072128
O7	O	1.038395	0.269828	0.072128
Cu8	Cu	0.923621	0.269311	0.085300
Cu9	Cu	0.931697	0.257214	-0.085306
O10	O	0.918978	0.449500	0.072125
C11	C	0.784276	0.258076	-0.000003
C12	C	0.697172	0.246930	-0.000003
C13	C	0.207810	0.172036	-0.000005
C14	C	0.289652	0.182519	-0.000000
C15	C	0.321830	0.300562	-0.000006
C16	C	0.272160	0.408130	-0.000008
C17	C	0.190319	0.397646	-0.000007
C18	C	0.565661	0.344013	-0.000004
C19	C	0.647509	0.354489	-0.000008
C20	C	0.664994	0.128877	0.000002
C21	C	0.583151	0.118403	-0.000002
C22	C	0.533488	0.225971	-0.000000
N23	N	0.405486	0.311280	-0.000004
N24	N	0.449834	0.215252	0.000004
C25	C	0.932159	0.035574	-0.000001
C26	C	0.929867	-0.103178	-0.000004
C27	C	0.994315	-0.315808	-0.000008
C28	C	0.996686	-0.172401	-0.000005
C29	C	1.071042	0.268449	-0.000005
C30	C	1.158146	0.279595	-0.000010
C31	C	0.923159	0.490951	-0.000007
C32	C	0.925451	0.629702	-0.000010
N33	N	0.917946	0.277820	0.205296
N34	N	0.937378	0.248696	-0.205301
C35	C	0.968697	0.201520	0.250691
C36	C	0.964413	0.207967	0.341499
C37	C	0.909381	0.290721	0.386910
C38	C	0.858625	0.367023	0.341508
C39	C	0.862906	0.360569	0.250702
C40	C	0.890903	0.318545	0.658490
C41	C	0.886627	0.324996	0.749303
C42	C	0.992414	0.165938	0.749288
C43	C	0.996693	0.159496	0.658480
C44	C	0.945935	0.235794	0.613086
N45	N	0.905002	0.297315	0.479730
N46	N	0.950310	0.229192	0.520268
H47	H	0.181617	0.075912	-0.000006
H48	H	0.149883	0.485233	-0.000008
C49	C	0.798082	0.458040	0.391463
N50	N	0.752480	0.526596	0.429088
C51	C	0.848172	-0.289897	-0.000009
N52	N	0.789962	-0.229341	-0.000011
H53	H	0.849574	0.380672	0.621538
H54	H	1.005737	0.145838	0.378460
H55	H	0.556958	0.022280	0.000003
H56	H	1.033739	0.103818	0.786256
C57	C	0.344279	0.064194	0.000005
N58	N	0.385423	-0.024934	0.000009
H59	H	1.055648	-0.125515	-0.000035
H60	H	0.525235	0.431603	-0.000007
C61	C	1.029236	0.110484	0.200748
N62	N	1.074833	0.041908	0.163133
H63	H	0.705438	0.041302	0.000001
C64	C	1.057228	0.068454	0.608535
N65	N	1.102824	-0.000119	0.570917
H66	H	0.298366	0.504244	-0.000008
C67	C	0.826083	0.416031	0.799253
N68	N	0.780484	0.484595	0.836875
H69	H	0.673704	0.450620	-0.000001
H70	H	1.051516	-0.375326	-0.000004
C71	C	0.807083	0.444515	0.200767
N72	N	0.765035	0.507747	0.163157
H73	H	0.870903	-0.150058	-0.000010
