data_functionalizedCrystal
_audit_creation_method	'MofGen! by Chris Wilmer'
_symmetry_space_group_name_H-M	'P1'
_symmetry_Int_Tables_number	1
_symmetry_cell_setting	triclinic
loop_
_symmetry_equiv_pos_as_xyz
  x,y,z
_cell_length_a	12.759401
_cell_length_b	21.295417
_cell_length_c	12.759393
_cell_angle_alpha	89.961905
_cell_angle_beta	89.979062
_cell_angle_gamma	90.032032
loop_
_atom_site_label
_atom_site_type_symbol
_atom_site_fract_x
_atom_site_fract_y
_atom_site_fract_z
Zn1	Zn	1.606151	-0.250553	-0.593965
Zn2	Zn	1.605994	-0.355835	-0.418261
Zn3	Zn	1.430450	-0.250587	-0.418300
Zn4	Zn	1.430393	-0.355791	-0.593899
O5	O	1.518247	-0.303192	-0.506106
O6	O	1.753151	-0.264523	-0.570669
O7	O	1.582665	-0.341906	-0.271245
O8	O	1.453846	-0.162493	-0.441646
O9	O	1.753035	-0.341874	-0.441580
O10	O	1.582933	-0.162468	-0.570706
O11	O	1.453694	-0.264581	-0.271274
O12	O	1.283421	-0.264538	-0.441582
O13	O	1.453750	-0.341799	-0.740929
O14	O	1.283380	-0.341831	-0.570594
O15	O	1.582879	-0.264481	-0.740977
O16	O	1.582610	-0.443919	-0.441516
O17	O	1.453597	-0.443886	-0.570556
C18	C	1.245279	-0.303184	-0.506085
C19	C	1.128503	-0.303196	-0.506101
C20	C	1.073647	-0.343504	-0.573172
C21	C	0.963923	-0.343506	-0.573193
C22	C	0.963921	-0.262891	-0.439063
C23	C	1.073643	-0.262886	-0.439048
C24	C	1.518109	-0.466743	-0.506048
C25	C	1.518146	-0.536711	-0.506058
C26	C	1.585383	-0.569574	-0.438936
C27	C	1.585432	-0.635316	-0.438960
C28	C	1.518226	-0.668194	-0.506094
C29	C	1.450985	-0.635323	-0.573230
C30	C	1.450945	-0.569582	-0.573212
N31	N	1.426319	-0.771460	-0.514097
N32	N	1.426360	-0.833912	-0.514108
C33	C	1.518344	-0.866268	-0.506155
N34	N	1.610287	-0.833814	-0.498169
N35	N	1.610245	-0.771357	-0.498153
C36	C	1.518262	-0.739479	-0.506122
C37	C	1.585640	-0.970417	-0.439054
C38	C	1.585691	-1.036160	-0.439085
C39	C	1.451233	-1.036166	-0.573350
C40	C	1.451192	-0.970423	-0.573325
C41	C	1.518393	-0.937553	-0.506171
C42	C	1.792280	-0.303200	-0.506128
C43	C	1.909057	-0.303203	-0.506137
C44	C	1.518325	-0.303131	-0.780140
C45	C	1.518359	-0.303105	-0.896916
C46	C	1.518414	-0.139001	-0.506188
C47	C	1.518485	-0.069033	-0.506222
C48	C	1.585601	-0.262839	-0.951805
C49	C	1.585619	-0.262812	-1.061529
C50	C	1.451149	-0.343322	-1.061466
C51	C	1.451127	-0.343346	-0.951744
C52	C	1.518229	-0.303206	-0.233139
C53	C	1.518399	-0.303055	-0.116363
H54	H	0.919264	-0.376328	-0.627810
O55	O	1.385700	-0.382348	-1.114680
C56	C	1.206967	-0.412919	-1.148157
C57	C	1.280966	-0.368671	-1.087851
H58	H	1.122275	-0.401886	-1.126473
H59	H	1.218442	-0.405987	-1.236021
H60	H	1.225416	-0.463678	-1.126569
H61	H	1.262564	-0.317895	-1.109352
H62	H	1.269478	-0.375658	-1.000003
H63	H	1.118311	-0.376325	-0.627773
H64	H	1.118308	-0.230058	-0.384431
O65	O	1.385554	-0.667188	-0.638392
C66	C	1.206825	-0.687404	-0.689203
C67	C	1.280805	-0.651269	-0.615349
H68	H	1.122119	-0.674556	-0.670584
H69	H	1.225140	-0.674414	-0.773949
H70	H	1.218454	-0.740033	-0.677703
H71	H	1.269217	-0.598631	-0.626756
H72	H	1.262472	-0.664310	-0.530631
O73	O	1.650718	-0.537574	-0.373860
C74	C	1.792570	-0.463308	-0.359835
C75	C	1.718628	-0.499501	-0.433648
H76	H	1.847509	-0.432528	-0.408146
H77	H	1.744402	-0.432540	-0.304867
H78	H	1.840589	-0.498104	-0.311840
H79	H	1.670593	-0.464751	-0.481712
H80	H	1.766856	-0.530278	-0.488547
O81	O	1.385918	-0.382554	-0.898464
C82	C	1.334757	-0.489633	-0.864864
C83	C	1.408685	-0.445308	-0.925250
H84	H	1.353123	-0.540378	-0.886515
H85	H	1.346293	-0.482789	-0.777013
H86	H	1.250063	-0.478538	-0.886415
H87	H	1.493408	-0.456375	-0.903787
H88	H	1.397058	-0.452160	-1.013086
O89	O	1.385817	-0.938427	-0.638372
C90	C	1.243877	-0.864303	-0.652350
C91	C	1.317864	-0.900488	-0.578560
H92	H	1.188904	-0.833631	-0.604020
H93	H	1.292007	-0.833427	-0.707303
H94	H	1.195897	-0.899103	-0.700363
H95	H	1.365860	-0.865734	-0.530479
H96	H	1.269674	-0.931373	-0.523676
O97	O	0.910465	-0.223796	-0.373963
C98	C	0.741432	-0.188045	-0.314592
C99	C	0.801836	-0.232363	-0.388354
H100	H	0.653595	-0.194946	-0.326216
H101	H	0.762874	-0.199034	-0.229813
H102	H	0.763120	-0.137307	-0.333192
H103	H	0.780180	-0.283116	-0.369848
H104	H	0.780388	-0.221319	-0.473110
O105	O	1.650778	-0.667151	-0.373651
C106	C	1.784161	-0.660212	-0.240505
C107	C	1.710196	-0.624084	-0.314397
H108	H	1.832236	-0.625409	-0.192595
H109	H	1.736013	-0.691025	-0.185472
H110	H	1.839047	-0.690956	-0.288809
H111	H	1.655296	-0.593307	-0.266178
H112	H	1.758410	-0.593311	-0.369433
H113	H	1.396192	-0.542825	-0.627872
O114	O	1.650869	-0.938549	-0.373686
C115	C	1.701903	-0.918466	-0.195009
C116	C	1.627985	-0.954604	-0.268920
H117	H	1.683413	-0.931423	-0.110290
H118	H	1.786636	-0.931343	-0.213451
H119	H	1.690333	-0.865837	-0.206576
H120	H	1.639460	-1.007241	-0.257395
H121	H	1.543278	-0.941675	-0.250460
O122	O	1.385986	-1.068192	-0.638471
C123	C	1.326515	-1.169473	-0.698062
C124	C	1.400439	-1.133278	-0.624234
H125	H	1.338190	-1.222101	-0.686592
H126	H	1.241775	-1.156653	-0.679536
H127	H	1.344905	-1.156454	-0.782777
H128	H	1.382143	-1.146278	-0.539494
H129	H	1.485156	-1.146101	-0.642850
H130	H	1.640449	-1.062916	-0.384429
H131	H	1.640373	-0.230023	-1.106215
O132	O	1.650934	-0.223688	-0.898707
C133	C	1.784349	-0.143853	-0.910356
C134	C	1.710397	-0.188152	-0.970615
H135	H	1.832460	-0.115121	-0.968467
H136	H	1.736187	-0.110905	-0.859025
H137	H	1.839201	-0.172776	-0.858953
H138	H	1.655530	-0.159280	-1.022076
H139	H	1.758624	-0.221102	-1.021880
