data_functionalizedCrystal
_audit_creation_method	'MofGen! by Chris Wilmer'
_symmetry_space_group_name_H-M	'P1'
_symmetry_Int_Tables_number	1
_symmetry_cell_setting	triclinic
loop_
_symmetry_equiv_pos_as_xyz
  x,y,z
_cell_length_a	12.759400
_cell_length_b	25.639243
_cell_length_c	12.759393
_cell_angle_alpha	89.974648
_cell_angle_beta	90.029805
_cell_angle_gamma	89.982675
loop_
_atom_site_label
_atom_site_type_symbol
_atom_site_fract_x
_atom_site_fract_y
_atom_site_fract_z
Zn1	Zn	-0.418140	-0.799361	0.594149
Zn2	Zn	-0.593856	-0.799307	0.418471
Zn3	Zn	-0.418200	-0.711923	0.418471
Zn4	Zn	-0.593786	-0.711919	0.594095
O5	O	-0.505995	-0.755627	0.506296
O6	O	-0.441454	-0.872519	0.570868
O7	O	-0.570609	-0.787694	0.271450
O8	O	-0.271171	-0.723546	0.441797
O9	O	-0.570551	-0.872479	0.441798
O10	O	-0.271127	-0.787786	0.570867
O11	O	-0.441555	-0.723493	0.271450
O12	O	-0.441487	-0.638757	0.441745
O13	O	-0.570432	-0.723539	0.741123
O14	O	-0.570490	-0.638754	0.570775
O15	O	-0.441386	-0.787782	0.741163
O16	O	-0.740868	-0.787690	0.441746
O17	O	-0.740816	-0.723487	0.570776
C18	C	-0.505988	-0.619785	0.506254
C19	C	-0.506010	-0.561671	0.506261
C20	C	-0.778963	-0.755596	0.506278
C21	C	-0.895739	-0.755631	0.506305
C22	C	-0.438879	-0.201323	0.573614
C23	C	-0.438878	-0.146718	0.573621
O24	O	-0.381782	-0.118494	0.630835
N25	N	-0.505991	-0.119388	0.506324
C26	C	-0.573102	-0.146665	0.439010
O27	O	-0.630187	-0.118405	0.381769
C28	C	-0.573097	-0.201268	0.438999
C29	C	-0.505987	-0.228596	0.506307
C30	C	-0.371774	-0.228650	0.640916
C31	C	-0.371776	-0.283251	0.640911
C32	C	-0.438884	-0.310524	0.573604
C33	C	-0.505990	-0.283196	0.506302
C34	C	-0.640202	-0.228544	0.371679
C35	C	-0.640191	-0.283151	0.371674
C36	C	-0.573081	-0.310479	0.438982
C37	C	-0.573101	-0.365070	0.438989
N38	N	-0.505987	-0.392400	0.506285
C39	C	-0.438879	-0.365127	0.573593
C40	C	-0.573107	-0.031994	0.439036
C41	C	-0.573118	0.022608	0.439052
C42	C	-0.438892	0.022551	0.573662
C43	C	-0.438887	-0.032052	0.573651
C44	C	-0.505994	-0.059325	0.506333
C45	C	-0.438890	-0.479792	0.573577
C46	C	-0.438902	-0.534398	0.573569
C47	C	-0.573124	-0.534336	0.438955
C48	C	-0.573116	-0.479735	0.438967
C49	C	-0.505991	-0.452465	0.506281
O50	O	-0.630165	-0.393328	0.381801
O51	O	-0.381795	-0.393394	0.630814
C52	C	-0.950489	-0.789066	0.573569
C53	C	-1.060213	-0.789096	0.573597
C54	C	-1.060428	-0.722253	0.439089
C55	C	-0.950706	-0.722221	0.439066
C56	C	-0.231962	-0.755672	0.506338
C57	C	-0.115185	-0.755692	0.506356
C58	C	-0.505895	-0.755666	0.780330
C59	C	-0.505852	-0.755683	0.897107
C60	C	-0.506003	0.108000	0.506339
C61	C	-0.506005	0.049886	0.506356
C62	C	-0.506020	-0.755618	0.233329
C63	C	-0.505767	-0.755703	0.116553
C64	C	-0.438646	-0.789137	0.951991
C65	C	-0.438601	-0.789146	1.061715
C66	C	-0.572975	-0.722245	1.061661
C67	C	-0.573014	-0.722234	0.951939
H68	H	-0.384252	-0.556645	0.628383
Br69	Br	-0.664124	-0.676855	1.136082
Br70	Br	-0.664193	-0.069001	0.347671
Br71	Br	-0.664213	0.059688	0.347714
H72	H	-0.383874	-0.816386	1.106397
H73	H	-0.905737	-0.816270	0.628320
Br74	Br	-0.876397	-0.676835	0.347785
H75	H	-0.694850	-0.206304	0.316869
Br76	Br	-0.664219	-0.676824	0.877446
Br77	Br	-0.280691	-0.320329	0.732260
Br78	Br	-0.347790	-0.442791	0.664932
Br79	Br	-1.134512	-0.834470	0.664897
Br80	Br	-0.347496	-0.834530	0.877579
H81	H	-0.384238	-0.054299	0.628457
Br82	Br	-0.280685	-0.191647	0.732274
H83	H	-1.105196	-0.695053	0.384344
H84	H	-0.384246	0.044766	0.628464
H85	H	-0.694837	-0.305353	0.316852
Br86	Br	-0.664230	-0.442647	0.347655
H87	H	-0.627764	-0.556551	0.384158
