data_functionalizedCrystal
_audit_creation_method	'MofGen! by Chris Wilmer'
_symmetry_space_group_name_H-M	'P1'
_symmetry_Int_Tables_number	1
_symmetry_cell_setting	triclinic
loop_
_symmetry_equiv_pos_as_xyz
  x,y,z
_cell_length_a	18.101395
_cell_length_b	19.805407
_cell_length_c	19.805399
_cell_angle_alpha	90.019573
_cell_angle_beta	89.974882
_cell_angle_gamma	89.968896
loop_
_atom_site_label
_atom_site_type_symbol
_atom_site_fract_x
_atom_site_fract_y
_atom_site_fract_z
Zn1	Zn	-0.294847	-1.034714	-0.382731
Zn2	Zn	0.205153	-0.534714	0.117269
Zn3	Zn	-0.418690	-1.034619	-0.269548
Zn4	Zn	0.081310	-0.534619	0.230452
Zn5	Zn	-0.294867	-0.921528	-0.269556
Zn6	Zn	0.205133	-0.421528	0.230444
Zn7	Zn	-0.418651	-0.921482	-0.382695
Zn8	Zn	0.081349	-0.421482	0.117305
O9	O	-0.356764	-0.978086	-0.326132
O10	O	0.143236	-0.478086	0.173868
O11	O	-0.311283	-1.129418	-0.367729
O12	O	0.188717	-0.629418	0.132271
O13	O	-0.402290	-1.019597	-0.174832
O14	O	0.097710	-0.519597	0.325168
O15	O	-0.191232	-0.936601	-0.284587
O16	O	0.308768	-0.436601	0.215413
O17	O	-0.402270	-1.129348	-0.284574
O18	O	0.097730	-0.629348	0.215426
O19	O	-0.191217	-1.019758	-0.367737
O20	O	0.308783	-0.519758	0.132263
O21	O	-0.311318	-0.936510	-0.174838
O22	O	0.188682	-0.436510	0.325162
O23	O	-0.311279	-0.826806	-0.284552
O24	O	0.188721	-0.326806	0.215448
O25	O	-0.402203	-0.936523	-0.477416
O26	O	0.097797	-0.436523	0.022584
O27	O	-0.402223	-0.826772	-0.367674
O28	O	0.097777	-0.326772	0.132326
O29	O	-0.311245	-1.019714	-0.477443
O30	O	0.188755	-0.519714	0.022557
O31	O	-0.522318	-1.019553	-0.284538
O32	O	-0.022318	-0.519553	0.215462
O33	O	-0.522289	-0.936432	-0.367667
O34	O	-0.022289	-0.436432	0.132333
C35	C	-0.356750	-0.802230	-0.326110
C36	C	0.143250	-0.302230	0.173890
C37	C	-0.356761	-0.726998	-0.326117
C38	C	0.143239	-0.226998	0.173883
C39	C	-0.549174	-0.977995	-0.326112
C40	C	-0.049174	-0.477995	0.173888
C41	C	-0.631489	-0.978018	-0.326127
C42	C	-0.131489	-0.478018	0.173873
C43	C	-0.356717	-0.978124	-0.502675
C44	C	0.143283	-0.478124	-0.002675
C45	C	-0.356697	-0.978140	-0.577907
C46	C	0.143303	-0.478140	-0.077907
C47	C	-0.930579	-0.978167	-0.326163
C48	C	-0.430579	-0.478167	0.173837
C49	C	-0.899267	-0.925991	-0.378595
C50	C	-0.399267	-0.425991	0.121405
C51	C	-0.813649	-0.925743	-0.378431
C52	C	-0.313649	-0.425743	0.121569
C53	C	-0.782197	-0.978093	-0.326146
C54	C	-0.282197	-0.478093	0.173854
C55	C	-0.813345	-0.958782	-0.254811
C56	C	-0.313345	-0.458782	0.245189
C57	C	-0.898990	-0.958446	-0.255125
C58	C	-0.398990	-0.458446	0.244875
C59	C	-0.898924	-1.049768	-0.344438
C60	C	-0.398924	-0.549768	0.155562
C61	C	-0.813273	-1.049347	-0.346002
C62	C	-0.313273	-0.549347	0.153998
C63	C	-0.698337	-0.978053	-0.326131
C64	C	-0.198337	-0.478053	0.173869
C65	C	-1.014439	-0.978206	-0.326173
C66	C	-0.514439	-0.478206	0.173827
C67	C	-0.163602	-0.978195	-0.326167
C68	C	0.336398	-0.478195	0.173833
C69	C	-0.081288	-0.978242	-0.326182
C70	C	0.418712	-0.478242	0.173818
C71	C	-0.356779	-1.154629	-0.326155
C72	C	0.143221	-0.654629	0.173845
C73	C	-0.356785	-1.229861	-0.326164
C74	C	0.143215	-0.729861	0.173836
C75	C	-0.404187	-0.691654	-0.369329
C76	C	0.095813	-0.191654	0.130671
C77	C	-0.404188	-0.620965	-0.369339
C78	C	0.095812	-0.120965	0.130661
C79	C	-0.356767	-0.585622	-0.326132
C80	C	0.143233	-0.085622	0.173868
C81	C	-0.309336	-0.620971	-0.282919
C82	C	0.190664	-0.120971	0.217081
C83	C	-0.309332	-0.691658	-0.282913
C84	C	0.190668	-0.191658	0.217087
C85	C	-0.309353	-0.335898	-0.282941
C86	C	0.190647	0.164102	0.217059
C87	C	-0.309363	-0.265206	-0.282948
C88	C	0.190637	0.234794	0.217052
C89	C	-0.404209	-0.265205	-0.369367
C90	C	0.095791	0.234795	0.130633
C91	C	-0.404205	-0.335892	-0.369361
C92	C	0.095795	0.164108	0.130639
C93	C	-0.356771	-0.371235	-0.326150
C94	C	0.143229	0.128765	0.173850
C95	C	-0.356770	-0.447883	-0.326141
C96	C	0.143230	0.052117	0.173859
C97	C	-0.356772	-0.508975	-0.326137
C98	C	0.143228	-0.008975	0.173863
C99	C	-0.309333	-1.021458	-0.613266
C100	C	0.190667	-0.521458	-0.113266
C101	C	-0.309311	-1.021465	-0.683955
C102	C	0.190689	-0.521465	-0.183955
C103	C	-0.356659	-0.978157	-0.719283
C104	C	0.143341	-0.478157	-0.219283
C105	C	-0.404025	-0.934834	-0.683919
C106	C	0.095975	-0.434834	-0.183919
C107	C	-0.404042	-0.934824	-0.613231
C108	C	0.095958	-0.434824	-0.113231
C109	C	-0.403956	-0.934872	-0.968992
C110	C	0.096044	-0.434872	-0.468992
C111	C	-0.403937	-0.934887	-1.039684
C112	C	0.096063	-0.434887	-0.539684
C113	C	-0.309225	-1.021513	-1.039716
C114	C	0.190775	-0.521513	-0.539716
C115	C	-0.309242	-1.021503	-0.969028
C116	C	0.190758	-0.521503	-0.469028
C117	C	-0.356606	-0.978178	-0.933670
C118	C	0.143394	-0.478178	-0.433670
C119	C	-0.356628	-0.978170	-0.857022
C120	C	0.143372	-0.478170	-0.357022
C121	C	-0.356641	-0.978168	-0.795930
C122	C	0.143359	-0.478168	-0.295930
C123	C	-0.356757	-0.978087	-0.150276
C124	C	0.143243	-0.478087	0.349724
C125	C	-0.356568	-0.978202	-0.075045
C126	C	0.143432	-0.478202	0.424955
H127	H	-0.792587	-0.937825	-0.431325
H128	H	-0.292587	-0.437825	0.068675
C129	C	-0.183816	-1.054567	-1.061500
C130	C	0.316184	-0.554567	-0.561500
C131	C	-0.257153	-1.069134	-1.078581
C132	C	0.242847	-0.569134	-0.578581
H133	H	-0.151673	-1.083969	-1.085489
H134	H	0.348327	-0.583969	-0.585489
H135	H	-0.172974	-1.009104	-1.073081
H136	H	0.327026	-0.509104	-0.573081
H137	H	-0.177065	-1.060759	-1.014343
H138	H	0.322935	-0.560759	-0.514343
H139	H	-0.263906	-1.062936	-1.125737
H140	H	0.236094	-0.562936	-0.625737
H141	H	-0.267999	-1.114607	-1.067004
H142	H	0.232001	-0.614607	-0.567004
H143	H	-0.919706	-0.994801	-0.214727
H144	H	-0.419706	-0.494801	0.285273
C145	C	-0.740440	-1.057181	-0.230755
C146	C	-0.240440	-0.557181	0.269245
C147	C	-0.785842	-1.008464	-0.200630
C148	C	-0.285842	-0.508464	0.299370
H149	H	-0.723457	-1.087849	-0.197304
H150	H	-0.223457	-0.587849	0.302696
H151	H	-0.767732	-1.081077	-0.264009
H152	H	-0.267732	-0.581077	0.235991
H153	H	-0.699332	-1.035654	-0.251372
H154	H	-0.199332	-0.535654	0.248628
H155	H	-0.826953	-1.029990	-0.180017
H156	H	-0.326953	-0.529990	0.319983
H157	H	-0.758549	-0.984565	-0.167363
H158	H	-0.258549	-0.484565	0.332637
H159	H	-0.442573	-0.899569	-0.712688
H160	H	0.057427	-0.399569	-0.212688
H161	H	-0.442808	-0.592192	-0.404525
H162	H	0.057192	-0.092192	0.095475
H163	H	-0.920853	-0.873241	-0.366642
H164	H	-0.420853	-0.373241	0.133358
C165	C	-0.446310	-0.444250	-0.407724
C166	C	0.053690	0.055750	0.092276
C167	C	-0.456329	-0.374742	-0.416856
C168	C	0.043671	0.125258	0.083144
H169	H	-0.478492	-0.468232	-0.437046
H170	H	0.021508	0.031768	0.062954
H171	H	-0.396570	-0.455854	-0.417707
H172	H	0.103430	0.044146	0.082293
H173	H	-0.457086	-0.455804	-0.362228
H174	H	0.042914	0.044196	0.137772
H175	H	-0.445547	-0.363187	-0.462352
H176	H	0.054453	0.136813	0.037648
H177	H	-0.506080	-0.363132	-0.406878
H178	H	-0.006080	0.136868	0.093122
C179	C	-0.865117	-0.846158	-0.221553
C180	C	-0.365117	-0.346158	0.278447
C181	C	-0.926053	-0.887788	-0.234234
C182	C	-0.426053	-0.387788	0.265766
H183	H	-0.881823	-0.802535	-0.208661
H184	H	-0.381823	-0.302535	0.291339
H185	H	-0.836336	-0.865001	-0.186166
H186	H	-0.336336	-0.365001	0.313834
H187	H	-0.835871	-0.842697	-0.261237
H188	H	-0.335871	-0.342697	0.238763
H189	H	-0.955295	-0.891254	-0.194548
H190	H	-0.455295	-0.391254	0.305452
H191	H	-0.954846	-0.868941	-0.269623
H192	H	-0.454846	-0.368941	0.230377
H193	H	-0.270735	-0.364665	-0.247751
H194	H	0.229265	0.135335	0.252249
C195	C	-0.446301	-0.800010	-0.407692
C196	C	0.053699	-0.300010	0.092308
C197	C	-0.456315	-0.730501	-0.416823
C198	C	0.043685	-0.230501	0.083177
H199	H	-0.478486	-0.823989	-0.437013
H200	H	0.021514	-0.323989	0.062987
H201	H	-0.396562	-0.811617	-0.417678
H202	H	0.103438	-0.311617	0.082322
H203	H	-0.457076	-0.811564	-0.362195
H204	H	0.042924	-0.311564	0.137805
H205	H	-0.445535	-0.718946	-0.462319
H206	H	0.054465	-0.218946	0.037681
H207	H	-0.506065	-0.718889	-0.406842
H208	H	-0.006065	-0.218889	0.093158
H209	H	-0.270742	-0.236431	-0.247765
H210	H	0.229258	0.263569	0.252235
H211	H	-0.442494	-0.899617	-1.068446
H212	H	0.057506	-0.399617	-0.568446
C213	C	-0.497558	-0.849230	-0.976071
C214	C	0.002442	-0.349230	-0.476071
C215	C	-0.456008	-0.887241	-0.930133
C216	C	0.043992	-0.387241	-0.430133
H217	H	-0.529693	-0.819823	-0.952077
H218	H	-0.029693	-0.319823	-0.452077
H219	H	-0.465277	-0.823378	-1.003649
H220	H	0.034723	-0.323378	-0.503649
H221	H	-0.525892	-0.878714	-1.003635
H222	H	-0.025892	-0.378714	-0.503635
H223	H	-0.427670	-0.857758	-0.902572
H224	H	0.072330	-0.357758	-0.402572
H225	H	-0.488293	-0.913096	-0.902543
H226	H	0.011707	-0.413096	-0.402543
C227	C	-0.974780	-1.024131	-0.440492
C228	C	-0.474780	-0.524131	0.059508
C229	C	-0.928007	-1.073536	-0.413465
C230	C	-0.428007	-0.573536	0.086535
H231	H	-0.992731	-1.038799	-0.483110
H232	H	-0.492731	-0.538799	0.016890
H233	H	-1.015187	-1.016905	-0.410739
H234	H	-0.515187	-0.516905	0.089261
H235	H	-0.948138	-0.983186	-0.445967
H236	H	-0.448138	-0.483186	0.054033
H237	H	-0.954651	-1.114481	-0.407986
H238	H	-0.454651	-0.614481	0.092014
H239	H	-0.887594	-1.080771	-0.443226
H240	H	-0.387594	-0.580771	0.056774
C241	C	-0.497682	-0.849214	-0.620296
C242	C	0.002318	-0.349214	-0.120296
C243	C	-0.456120	-0.887219	-0.574362
C244	C	0.043880	-0.387219	-0.074362
H245	H	-0.529837	-0.819828	-0.596298
H246	H	-0.029837	-0.319828	-0.096298
H247	H	-0.465411	-0.823339	-0.647862
H248	H	0.034589	-0.323339	-0.147862
H249	H	-0.525995	-0.878702	-0.647872
H250	H	-0.025995	-0.378702	-0.147872
H251	H	-0.427802	-0.857731	-0.546788
H252	H	0.072198	-0.357731	-0.046788
H253	H	-0.488395	-0.913096	-0.546784
H254	H	0.011605	-0.413096	-0.046784
H255	H	-0.791960	-0.906997	-0.239053
H256	H	-0.291960	-0.406997	0.260947
H257	H	-0.270722	-0.592189	-0.247742
H258	H	0.229278	-0.092189	0.252258
H259	H	-0.442829	-0.236420	-0.404554
H260	H	0.057171	0.263580	0.095446
C261	C	-0.966803	-1.152305	-0.326331
C262	C	-0.466803	-0.652305	0.173669
C263	C	-0.926258	-1.102253	-0.292893
C264	C	-0.426258	-0.602253	0.207107
H265	H	-0.983675	-1.184705	-0.294508
H266	H	-0.483675	-0.684705	0.205492
H267	H	-1.007987	-1.132304	-0.348305
H268	H	-0.507987	-0.632304	0.151695
H269	H	-0.936236	-1.173859	-0.358850
H270	H	-0.436236	-0.673859	0.141150
H271	H	-0.956825	-1.080696	-0.260378
H272	H	-0.456825	-0.580696	0.239622
H273	H	-0.885068	-1.122256	-0.270908
H274	H	-0.385068	-0.622256	0.229092
C275	C	-0.215589	-0.684564	-0.197480
C276	C	0.284411	-0.184564	0.302520
C277	C	-0.257207	-0.730511	-0.235407
C278	C	0.242793	-0.230511	0.264593
H279	H	-0.183411	-0.708551	-0.168149
H280	H	0.316589	-0.208551	0.331851
H281	H	-0.187303	-0.657021	-0.227016
H282	H	0.312697	-0.157021	0.272984
H283	H	-0.247829	-0.656965	-0.171544
H284	H	0.252171	-0.156965	0.328456
H285	H	-0.224967	-0.758106	-0.261347
H286	H	0.275033	-0.258106	0.238653
H287	H	-0.285494	-0.758065	-0.205867
H288	H	0.214506	-0.258065	0.294133
H289	H	-0.270779	-1.056727	-0.584508
H290	H	0.229221	-0.556727	-0.084508
H291	H	-0.270690	-1.056772	-0.940268
H292	H	0.229310	-0.556772	-0.440268
C293	C	-0.846699	-0.811235	-0.352388
C294	C	-0.346699	-0.311235	0.147612
C295	C	-0.786070	-0.854100	-0.362078
C296	C	-0.286070	-0.354100	0.137922
H297	H	-0.829671	-0.767007	-0.342285
H298	H	-0.329671	-0.267007	0.157715
H299	H	-0.875695	-0.810123	-0.392331
H300	H	-0.375695	-0.310123	0.107669
H301	H	-0.875840	-0.827502	-0.315966
H302	H	-0.375840	-0.327502	0.184034
H303	H	-0.756931	-0.837836	-0.398503
H304	H	-0.256931	-0.337836	0.101497
H305	H	-0.757062	-0.855210	-0.322131
H306	H	-0.257062	-0.355210	0.177869
C307	C	-0.813826	-1.132583	-0.434171
C308	C	-0.313826	-0.632583	0.065829
C309	C	-0.785824	-1.068995	-0.416889
C310	C	-0.285824	-0.568995	0.083111
H311	H	-0.796892	-1.144702	-0.477941
H312	H	-0.296892	-0.644702	0.022059
H313	H	-0.797298	-1.165089	-0.402320
H314	H	-0.297298	-0.665089	0.097680
H315	H	-0.866279	-1.131077	-0.433984
H316	H	-0.366279	-0.631077	0.066016
H317	H	-0.733370	-1.070502	-0.417071
H318	H	-0.233370	-0.570502	0.082929
H319	H	-0.802348	-1.036481	-0.448748
H320	H	-0.302348	-0.536481	0.051252
H321	H	-0.270744	-1.056741	-0.712741
H322	H	0.229256	-0.556741	-0.212741
H323	H	-0.919817	-0.937953	-0.431660
H324	H	-0.419817	-0.437953	0.068340
H325	H	-0.791859	-1.090278	-0.310597
H326	H	-0.291859	-0.590278	0.189403
