data_functionalizedCrystal
_audit_creation_method	'MofGen! by Chris Wilmer'
_symmetry_space_group_name_H-M	'P1'
_symmetry_Int_Tables_number	1
_symmetry_cell_setting	triclinic
loop_
_symmetry_equiv_pos_as_xyz
  x,y,z
_cell_length_a	27.732064
_cell_length_b	27.732048
_cell_length_c	26.210047
_cell_angle_alpha	90.009625
_cell_angle_beta	90.008789
_cell_angle_gamma	82.646040
loop_
_atom_site_label
_atom_site_type_symbol
_atom_site_fract_x
_atom_site_fract_y
_atom_site_fract_z
O1	O	0.640930	0.057554	0.042343
O2	O	0.500138	0.066291	0.042365
O3	O	0.574907	-0.008474	0.042344
O4	O	0.566161	0.132319	0.042365
O5	O	0.574884	-0.008474	-0.042514
O6	O	0.500115	0.066291	-0.042493
O7	O	0.640907	0.057554	-0.042515
Cu8	Cu	0.570509	0.061923	-0.050252
Cu9	Cu	0.570536	0.061923	0.050103
O10	O	0.566138	0.132319	-0.042493
C11	C	0.482120	0.066106	-0.000061
C12	C	0.428465	0.065551	-0.000053
C13	C	0.574712	-0.026481	-0.000087
C14	C	0.574159	-0.080136	-0.000091
C15	C	0.051392	0.017583	-0.000089
C16	C	0.253053	0.019630	-0.000076
O17	O	0.284305	-0.017591	-0.000100
N18	N	0.272180	0.063964	-0.000067
C19	C	0.240889	0.107790	-0.000065
O20	O	0.261785	0.145546	-0.000062
C21	C	0.039230	0.105743	-0.000082
C22	C	0.020105	0.061406	-0.000086
C23	C	0.032267	-0.026750	-0.000094
C24	C	-0.018145	-0.027261	-0.000094
C25	C	-0.049432	0.016561	-0.000091
C26	C	-0.030307	0.060895	-0.000086
C27	C	0.007940	0.149568	-0.000084
C28	C	-0.042478	0.149053	-0.000089
C29	C	-0.061602	0.104716	-0.000093
C30	C	-0.112006	0.104206	-0.000084
N31	N	-0.131134	0.059872	-0.000092
C32	C	-0.099846	0.016049	-0.000096
C33	C	0.346763	0.108861	-0.000055
C34	C	0.397178	0.109373	-0.000050
C35	C	0.409338	0.021213	-0.000062
C36	C	0.358923	0.020701	-0.000063
C37	C	0.327636	0.064527	-0.000064
C38	C	-0.205716	0.014979	-0.000097
C39	C	-0.256133	0.014472	-0.000095
C40	C	-0.268289	0.102632	-0.000086
C41	C	-0.217876	0.103140	-0.000085
C42	C	-0.186590	0.059309	-0.000092
O43	O	-0.143287	0.141407	-0.000065
O44	O	-0.120752	-0.021701	-0.000110
C45	C	0.101804	0.018094	-0.000089
C46	C	0.120929	0.062428	-0.000085
C47	C	0.089642	0.106250	-0.000081
C48	C	0.171344	0.062940	-0.000079
C49	C	0.202631	0.019117	-0.000083
C50	C	0.183504	-0.025217	-0.000092
C51	C	0.133092	-0.025728	-0.000092
C52	C	0.108770	0.150585	-0.000072
C53	C	0.159183	0.151092	-0.000071
C54	C	0.190470	0.107270	-0.000075
C55	C	0.614862	-0.418948	-0.000071
C56	C	0.612811	-0.620608	-0.000063
O57	O	0.650032	-0.651862	-0.000047
N58	N	0.568476	-0.639735	-0.000057
C59	C	0.524651	-0.608442	-0.000049
O60	O	0.486895	-0.629338	-0.000038
C61	C	0.526703	-0.406784	-0.000053
C62	C	0.571040	-0.387660	-0.000064
C63	C	0.659196	-0.399824	-0.000082
C64	C	0.659709	-0.349412	-0.000086
C65	C	0.615887	-0.318124	-0.000080
C66	C	0.571553	-0.337248	-0.000069
C67	C	0.482878	-0.375493	-0.000041
C68	C	0.483395	-0.325075	-0.000041
C69	C	0.527733	-0.305952	-0.000053
C70	C	0.528243	-0.255548	-0.000067
N71	N	0.572578	-0.236422	-0.000074
C72	C	0.616400	-0.267710	-0.000080
C73	C	0.523577	-0.714317	-0.000048
C74	C	0.523064	-0.764731	-0.000048
C75	C	0.611225	-0.776893	-0.000061
C76	C	0.611737	-0.726478	-0.000065
C77	C	0.567912	-0.695190	-0.000054
C78	C	0.617472	-0.161841	-0.000090
C79	C	0.617981	-0.111424	-0.000097
C80	C	0.529821	-0.099266	-0.000081
C81	C	0.529312	-0.149679	-0.000077
C82	C	0.573142	-0.180965	-0.000080
O83	O	0.491043	-0.224267	-0.000078
O84	O	0.654151	-0.246805	-0.000080
C85	C	0.614350	-0.469360	-0.000066
C86	C	0.570016	-0.488484	-0.000055
C87	C	0.526194	-0.457196	-0.000049
C88	C	0.569503	-0.538899	-0.000055
C89	C	0.613325	-0.570187	-0.000061
C90	C	0.657660	-0.551060	-0.000068
C91	C	0.658172	-0.500648	-0.000072
C92	C	0.481859	-0.476323	-0.000042
C93	C	0.481351	-0.526735	-0.000038
C94	C	0.525172	-0.558023	-0.000045
C95	C	0.658925	0.057739	-0.000087
C96	C	0.712580	0.058295	-0.000092
C97	C	0.566333	0.150326	-0.000062
C98	C	0.566886	0.203981	-0.000054
N99	N	0.570493	0.061922	-0.120836
C100	C	0.599628	0.091035	-0.473350
C101	C	0.599642	0.091035	-0.687009
O102	O	0.624403	0.115782	-0.714631
N103	N	0.570548	0.061918	-0.713730
C104	C	0.541450	0.032796	-0.687033
O105	O	0.516707	0.008027	-0.714663
C106	C	0.541439	0.032794	-0.473375
C107	C	0.570531	0.061917	-0.446657
C108	C	0.628719	0.120155	-0.446632
C109	C	0.628713	0.120157	-0.393221
C110	C	0.599616	0.091039	-0.366527
C111	C	0.570526	0.061919	-0.393246
C112	C	0.512344	0.003671	-0.446679
C113	C	0.512345	0.003672	-0.393262
C114	C	0.541437	0.032795	-0.366543
C115	C	0.541423	0.032803	-0.313141
N116	N	0.570518	0.061920	-0.286420
C117	C	0.599614	0.091038	-0.313113
C118	C	0.541457	0.032800	-0.799206
C119	C	0.541459	0.032801	-0.852620
C120	C	0.599653	0.091039	-0.852593
C121	C	0.599648	0.091040	-0.799178
C122	C	0.570552	0.061917	-0.772485
C123	C	0.599599	0.091040	-0.200945
C124	C	0.599589	0.091040	-0.147529
C125	C	0.541398	0.032801	-0.147562
C126	C	0.541406	0.032802	-0.200973
C127	C	0.570511	0.061923	-0.227664
O128	O	0.516679	0.008064	-0.285486
O129	O	0.624361	0.115795	-0.285474
C130	C	0.599634	0.091033	-0.526762
C131	C	0.570543	0.061913	-0.553480
C132	C	0.541447	0.032795	-0.526787
C133	C	0.570545	0.061914	-0.606894
C134	C	0.599642	0.091032	-0.633587
C135	C	0.628736	0.120150	-0.606866
C136	C	0.628731	0.120151	-0.553455
C137	C	0.512352	0.003678	-0.553508
C138	C	0.512360	0.003679	-0.606919
C139	C	0.541456	0.032797	-0.633612
N140	N	0.570556	0.061919	0.120686
H141	H	-0.271701	-0.021634	-0.000097
H142	H	0.653163	-0.187309	-0.000091
H143	H	0.694883	-0.425295	-0.000085
N144	N	0.178706	0.196389	-0.000061
N145	N	0.150760	0.235511	-0.000058
H146	H	0.164546	0.267502	-0.000055
H147	H	-0.293772	0.138311	-0.000081
N148	N	0.438632	-0.293110	-0.000038
N149	N	0.439091	-0.248097	-0.000043
H150	H	0.407478	-0.225522	-0.000043
H151	H	0.057737	-0.062438	-0.000098
N152	N	0.511731	0.003058	-0.879901
N153	N	0.485755	-0.022936	-0.856055
H154	H	0.464759	-0.043944	-0.875320
N155	N	-0.173770	-0.029796	-0.000108
N156	N	-0.190861	-0.069373	-0.000112
H157	H	-0.168300	-0.100996	-0.000118
H158	H	0.494142	-0.073782	-0.000078
H159	H	0.652421	0.143866	-0.531706
N160	N	0.339398	-0.024592	-0.000066
N161	N	0.367344	-0.063713	-0.000066
H162	H	0.353558	-0.095704	-0.000069
H163	H	0.517763	0.009083	-0.777478
N164	N	0.113562	-0.071018	-0.000112
N165	N	0.086789	-0.081143	-0.035889
H166	H	0.072999	-0.113132	-0.035905
N167	N	0.215475	-0.069977	-0.000091
N168	N	0.260486	-0.069507	-0.000089
H169	H	0.283068	-0.101116	-0.000091
N170	N	-0.074442	0.193817	-0.000083
N171	N	-0.119455	0.193358	-0.000083
H172	H	-0.142030	0.224972	-0.000077
N173	N	0.657031	-0.706954	-0.000079
N174	N	0.696152	-0.734901	-0.000089
H175	H	0.728143	-0.721116	-0.000099
N176	N	0.511687	0.003064	-0.228278
N177	N	0.479594	0.022155	-0.258094
H178	H	0.458608	0.001149	-0.277377
H179	H	0.083300	0.186271	-0.000070
H180	H	0.493209	-0.165249	-0.000082
H181	H	0.434821	-0.014469	-0.000063
H182	H	-0.033711	-0.063365	-0.000099
H183	H	0.694276	-0.485083	-0.000082
N184	N	0.629325	0.120795	-0.228195
N185	N	0.623193	0.165882	-0.222215
H186	H	0.644185	0.186900	-0.241459
N187	N	0.705003	-0.329891	-0.000096
N188	N	0.744123	-0.357840	-0.000100
H189	H	0.776115	-0.344056	-0.000105
N190	N	0.655993	-0.808852	-0.000059
N191	N	0.695578	-0.791776	-0.000058
H192	H	0.727194	-0.814347	-0.000052
H193	H	0.693341	-0.576544	-0.000075
H194	H	0.654087	-0.095857	-0.000108
H195	H	0.652426	0.143861	-0.628609
H196	H	0.023501	0.185672	-0.000079
H197	H	0.487888	-0.688846	-0.000040
N198	N	0.436053	-0.546257	-0.000033
N199	N	0.396932	-0.518310	-0.000026
H200	H	0.364941	-0.532096	-0.000019
N201	N	-0.198331	0.148424	-0.000072
N202	N	-0.171549	0.158548	0.035697
H203	H	-0.157748	0.190531	0.035702
H204	H	0.486960	-0.780296	-0.000047
H205	H	0.517707	0.009095	-0.125818
N206	N	0.437089	-0.444374	-0.000034
N207	N	0.397511	-0.461463	-0.000028
H208	H	0.365889	-0.438900	-0.000025
N209	N	0.437583	-0.395010	-0.000028
N210	N	0.398464	-0.367060	-0.000017
H211	H	0.366471	-0.380842	-0.000006
H212	H	0.623280	0.114758	-0.125778
H213	H	0.652405	0.143869	-0.371471
N214	N	0.416702	0.154667	-0.000035
N215	N	0.388756	0.193788	-0.000031
H216	H	0.402542	0.225779	-0.000023
N217	N	0.658448	0.149901	-0.473885
N218	N	0.684419	0.175895	-0.450013
H219	H	0.705415	0.196908	-0.469257
N220	N	0.629371	0.120787	-0.771896
N221	N	0.655348	0.146781	-0.795742
H222	H	0.676344	0.167789	-0.776477
N223	N	0.314815	0.153636	-0.000057
N224	N	0.331906	0.193213	-0.000048
H225	H	0.309345	0.224836	-0.000048
N226	N	0.629366	0.120785	-0.879872
N227	N	0.629358	0.120780	-0.927563
H228	H	0.650343	0.141786	-0.946832
H229	H	0.488654	-0.020045	-0.468424
H230	H	0.488651	-0.020045	-0.371531
H231	H	0.488664	-0.020035	-0.628669
N232	N	0.482631	-0.026070	-0.526247
N233	N	0.488753	-0.071159	-0.532221
H234	H	0.467758	-0.092169	-0.512971
