data_functionalizedCrystal
_audit_creation_method	'MofGen! by Chris Wilmer'
_symmetry_space_group_name_H-M	'P1'
_symmetry_Int_Tables_number	1
_symmetry_cell_setting	triclinic
loop_
_symmetry_equiv_pos_as_xyz
  x,y,z
_cell_length_a	13.339070
_cell_length_b	11.792241
_cell_length_c	12.376457
_cell_angle_alpha	101.354533
_cell_angle_beta	75.589755
_cell_angle_gamma	99.911355
loop_
_atom_site_label
_atom_site_type_symbol
_atom_site_fract_x
_atom_site_fract_y
_atom_site_fract_z
O1	O	1.364732	0.554298	-0.094048
O2	O	1.069793	0.479486	-0.094041
O3	O	1.224419	0.353927	-0.094037
O4	O	1.210107	0.679857	-0.094053
O5	O	1.185776	0.385262	0.093974
O6	O	1.031151	0.510821	0.093970
O7	O	1.326090	0.585633	0.093963
Zn8	Zn	1.172485	0.553202	0.123817
Zn9	Zn	1.223398	0.511917	-0.123896
O10	O	1.171464	0.711191	0.093958
C11	C	1.012713	0.482516	-0.000035
C12	C	0.900204	0.444848	-0.000032
C13	C	0.537024	0.737736	-0.000064
C14	C	0.642733	0.773131	-0.000070
C15	C	0.707105	0.691063	-0.000060
C16	C	0.665760	0.573595	-0.000045
C17	C	0.560044	0.538195	-0.000047
C18	C	0.730125	0.491522	-0.000044
C19	C	0.688780	0.374054	-0.000028
C20	C	0.583073	0.338661	-0.000030
C21	C	0.518700	0.420728	-0.000040
C22	C	0.835841	0.526922	-0.000041
C23	C	0.858861	0.327381	-0.000025
C24	C	0.753152	0.291986	-0.000018
C25	C	1.204198	0.327027	-0.000032
C26	C	1.201507	0.200184	-0.000033
C27	C	1.196562	-0.032056	-0.000052
C28	C	1.199310	0.097178	-0.000042
C29	C	1.383170	0.582602	-0.000046
C30	C	1.495681	0.620269	-0.000057
C31	C	1.191685	0.738092	-0.000049
C32	C	1.194378	0.864933	-0.000056
N33	N	1.137745	0.581379	0.292874
N34	N	1.258146	0.483733	-0.292953
C35	C	1.338788	0.418302	0.647865
C36	C	1.363097	0.398579	0.529526
C37	C	1.306760	0.444277	0.470357
C38	C	1.226112	0.509702	0.529539
C39	C	1.201806	0.529435	0.647890
C40	C	1.169779	0.555410	0.470382
C41	C	1.089130	0.620835	0.529564
C42	C	1.064828	0.640564	0.647903
C43	C	1.121164	0.594866	0.707072
C44	C	1.194085	0.535677	0.352031
C45	C	1.057103	0.646810	0.352056
C46	C	1.032794	0.666533	0.470396
H47	H	0.719476	0.196340	-0.000015
O48	O	1.399547	0.369032	0.711686
H49	H	1.459714	0.320228	0.650656
O50	O	0.821116	0.729236	-0.000044
H51	H	0.859782	0.768872	-0.076671
O52	O	1.450066	0.328007	0.465692
H53	H	1.485149	0.299533	0.526714
H54	H	1.101370	0.610920	0.803434
H55	H	0.967129	0.719805	0.518596
H56	H	0.676390	0.868772	-0.000091
H57	H	0.869493	0.622565	-0.000049
O58	O	0.996317	0.696088	0.288257
H59	H	1.026755	0.671359	0.196023
O60	O	0.467590	0.826240	-0.000065
H61	H	0.434624	0.802104	-0.076692
O62	O	0.404681	0.382547	-0.000028
H63	H	0.366870	0.459351	-0.000036
H64	H	0.549416	0.243008	-0.000030
H65	H	0.999168	0.693848	0.696090
H66	H	0.911274	0.260553	-0.000021
H67	H	1.259749	0.482408	0.303856
H68	H	1.326556	0.428215	0.374000
