data_functionalizedCrystal
_audit_creation_method	'MofGen! by Chris Wilmer'
_symmetry_space_group_name_H-M	'P1'
_symmetry_Int_Tables_number	1
_symmetry_cell_setting	triclinic
loop_
_symmetry_equiv_pos_as_xyz
  x,y,z
_cell_length_a	6.817900
_cell_length_b	7.190334
_cell_length_c	15.866870
_cell_angle_alpha	74.030337
_cell_angle_beta	102.655915
_cell_angle_gamma	60.611776
loop_
_atom_site_label
_atom_site_type_symbol
_atom_site_fract_x
_atom_site_fract_y
_atom_site_fract_z
V1	V	-4.278433	0.767890	-0.130870
O2	O	-4.203398	0.646163	0.007859
O3	O	-4.283778	0.865652	-0.261003
O4	O	-4.314452	1.055795	-0.128168
O5	O	-4.172512	0.454703	-0.125896
V6	V	-4.744158	0.717916	-0.114358
O7	O	-4.578733	0.877511	-0.167091
O8	O	-4.894056	0.608295	-0.078137
O9	O	-4.515607	0.620154	0.015776
O10	O	-4.936591	0.839643	-0.253087
O11	O	-4.967477	1.031103	-0.119332
O12	O	-4.484933	0.430011	-0.117060
C13	C	-4.139122	0.880119	-0.292749
C14	C	-4.225342	0.961971	-0.399130
C15	C	-4.178259	1.122659	-0.123299
C16	C	-4.291433	1.363135	-0.121924
C17	C	-3.991620	0.202729	-0.682960
C18	C	-4.072667	0.279712	-0.782926
C19	C	-4.279585	0.691098	-0.809332
C20	C	-4.198544	0.614148	-0.709366
C21	C	-4.054566	0.369961	-0.646187
C22	C	-4.261489	0.781381	-0.672594
C23	C	-4.180466	0.704438	-0.572637
C24	C	-4.036496	0.460261	-0.509452
C25	C	-3.973542	0.293018	-0.546230
C26	C	-4.405482	1.025568	-0.735775
C27	C	-4.468428	1.192801	-0.699003
C28	C	-4.387389	1.115858	-0.599044
C29	C	-4.243420	0.871681	-0.535859
C30	C	-4.450344	1.283101	-0.562266
C31	C	-4.369320	1.206158	-0.462309
C32	C	-4.162396	0.794738	-0.435902
C33	C	-4.323605	0.605685	0.047516
C34	C	-4.216628	0.523848	0.153897
H35	H	-4.045122	0.595894	-0.384457
O36	O	-3.834058	0.055818	-0.484893
C37	C	-3.810401	-0.305635	-0.436370
C38	C	-3.968627	-0.037034	-0.505882
H39	H	-3.919116	-0.380798	-0.453328
H40	H	-3.763392	-0.331999	-0.358600
H41	H	-3.631457	-0.403000	-0.445766
H42	H	-4.147669	0.060504	-0.496573
H43	H	-4.015437	-0.010849	-0.583626
O44	O	-4.590578	1.520348	-0.623615
C45	C	-4.970202	1.909279	-0.681336
C46	C	-4.811658	1.640646	-0.611828
H47	H	-5.148955	2.006626	-0.671817
H48	H	-5.017521	1.935693	-0.759118
H49	H	-4.861395	1.984417	-0.664484
H50	H	-4.920319	1.565330	-0.628593
H51	H	-4.764323	1.614394	-0.534068
O52	O	-3.958202	0.385814	-0.412378
C53	C	-4.076708	0.401867	-0.280779
C54	C	-4.165714	0.486406	-0.390732
H55	H	-4.244434	0.483118	-0.263241
H56	H	-3.956865	0.461119	-0.255722
H57	H	-3.962903	0.198611	-0.241962
H58	H	-4.279618	0.689653	-0.429627
H59	H	-4.285427	0.426975	-0.415715
O60	O	-3.851882	-0.034559	-0.621717
C61	C	-3.655097	-0.434530	-0.606058
C62	C	-3.813380	-0.165892	-0.675523
H63	H	-3.623875	-0.540793	-0.649531
H64	H	-3.755811	-0.469832	-0.562353
H65	H	-3.468259	-0.491849	-0.554850
H66	H	-4.000239	-0.108388	-0.726791
H67	H	-3.712474	-0.130739	-0.719160
O68	O	-4.011924	0.117374	-0.818706
C69	C	-4.161306	-0.020684	-0.920904
C70	C	-4.230439	0.163259	-0.880433
H71	H	-4.337934	0.016379	-0.970835
H72	H	-4.044601	-0.208474	-0.858621
H73	H	-4.050174	-0.006035	-0.963272
H74	H	-4.341656	0.148828	-0.838078
H75	H	-4.347024	0.350973	-0.942759
O76	O	-4.430746	1.368531	-0.426543
C77	C	-4.637229	1.534052	-0.333565
C78	C	-4.567873	1.350094	-0.374031
H79	H	-4.748062	1.519174	-0.291083
H80	H	-4.754185	1.721862	-0.395854
H81	H	-4.460604	1.497190	-0.283740
H82	H	-4.744363	1.386734	-0.423842
H83	H	-4.450821	1.162343	-0.311695
H84	H	-4.471452	1.088208	-0.817166
O85	O	-4.419362	0.928195	-0.870840
C86	C	-4.636011	1.229079	-1.036535
C87	C	-4.477689	0.960492	-0.966989
H88	H	-4.683260	1.255281	-1.114287
H89	H	-4.527320	1.304361	-1.019741
H90	H	-4.814826	1.326456	-1.027057
H91	H	-4.298857	0.862917	-0.976427
H92	H	-4.586566	0.885393	-0.983801
O93	O	-4.608206	1.429898	-0.760510
C94	C	-4.824855	1.730782	-0.926205
C95	C	-4.666533	1.462196	-0.856659
H96	H	-4.872104	1.756985	-1.003958
H97	H	-4.716164	1.806064	-0.909411
H98	H	-5.003669	1.828159	-0.916728
H99	H	-4.487700	1.364621	-0.866098
H100	H	-4.775410	1.387097	-0.873472
