data_functionalizedCrystal
_audit_creation_method	'MofGen! by Chris Wilmer'
_symmetry_space_group_name_H-M	'P1'
_symmetry_Int_Tables_number	1
_symmetry_cell_setting	triclinic
loop_
_symmetry_equiv_pos_as_xyz
  x,y,z
_cell_length_a	19.377369
_cell_length_b	18.760492
_cell_length_c	18.760487
_cell_angle_alpha	90.032206
_cell_angle_beta	48.651259
_cell_angle_gamma	72.123992
loop_
_atom_site_label
_atom_site_type_symbol
_atom_site_fract_x
_atom_site_fract_y
_atom_site_fract_z
Zr1	Zr	0.779864	0.049676	0.544490
O2	O	0.928503	-0.036994	0.403577
O3	O	0.631225	0.057372	0.606481
O4	O	0.779864	-0.064119	0.579386
O5	O	0.779864	0.201800	0.430665
O6	O	0.779864	-0.064047	0.696689
O7	O	0.779864	0.084497	0.430671
O8	O	0.513976	0.153278	0.745157
O9	O	1.045752	-0.015525	0.382198
O10	O	0.692363	0.083510	0.697755
O11	O	0.692363	0.170998	0.610209
O12	O	0.867366	0.027958	0.578308
O13	O	0.867366	0.115446	0.490762
Zr14	Zr	0.779864	0.236876	0.731565
Zr15	Zr	0.779864	0.049791	0.731574
Zr16	Zr	0.779864	0.236761	0.544480
Zr17	Zr	0.966862	0.083916	0.510393
Zr18	Zr	0.592865	0.202636	0.765661
O19	O	0.928502	0.229180	0.669573
O20	O	0.928503	-0.036830	0.669587
O21	O	0.928503	0.229016	0.403563
O22	O	0.631225	0.323546	0.872478
O23	O	0.631225	0.057536	0.872491
O24	O	0.631225	0.323382	0.606467
O25	O	0.779864	0.084752	0.845389
O26	O	0.779864	0.350670	0.696668
O27	O	0.779864	0.350598	0.579365
O28	O	0.779864	0.202055	0.845383
O29	O	1.045752	-0.015434	0.530905
O30	O	0.513976	0.301986	0.745149
O31	O	0.513976	0.302077	0.893856
O32	O	0.513976	0.153370	0.893864
O33	O	1.045752	0.133182	0.382190
O34	O	1.045751	0.133273	0.530898
O35	O	0.692362	0.258594	0.697746
O36	O	0.692362	0.171106	0.785292
O37	O	0.867365	0.115554	0.665846
O38	O	0.867365	0.203042	0.578299
C39	C	0.545958	0.100447	0.680677
C40	C	0.466572	0.085911	0.695152
C41	C	0.779864	0.143132	0.404013
C42	C	0.779864	0.143083	0.324590
C43	C	0.779864	0.377290	0.638015
C44	C	0.779864	0.456712	0.638011
C45	C	0.205174	0.266691	0.514638
C46	C	0.130488	0.253095	0.528359
C47	C	0.130497	0.161764	0.619751
C48	C	0.205181	0.175356	0.606041
C49	C	0.242514	0.227820	0.553483
C50	C	0.242522	0.136484	0.644887
C51	C	0.317203	0.150072	0.631174
C52	C	0.354543	0.202531	0.578616
C53	C	0.317195	0.241407	0.539770
C54	C	0.205192	0.084016	0.697439
C55	C	0.242533	0.045145	0.736284
C56	C	0.317210	0.058736	0.722577
C57	C	0.354551	0.111195	0.670019
C58	C	0.354558	0.019860	0.761423
C59	C	0.429239	0.033447	0.747710
C60	C	0.429232	0.124783	0.656307
C61	C	1.013770	0.186105	0.595377
C62	C	1.093156	0.200641	0.580902
C63	C	0.779864	-0.090738	0.638039
C64	C	0.779864	-0.170161	0.638043
C65	C	0.688511	0.821526	0.700393
C66	C	0.871217	0.763525	0.575689
C67	C	0.871218	0.688903	0.575680
C68	C	0.779865	0.680590	0.638030
C69	C	0.688509	0.746899	0.700388
C70	C	0.962572	0.622589	0.513329
C71	C	0.962577	0.547961	0.513319
C72	C	0.871222	0.539647	0.575664
C73	C	0.779863	0.605962	0.638025
C74	C	0.688509	0.597649	0.700375
C75	C	0.597149	0.663962	0.762731
C76	C	0.597154	0.738584	0.762734
C77	C	0.871217	0.465025	0.575661
C78	C	0.688508	0.523021	0.700370
C79	C	0.871217	0.114431	-0.073577
C80	C	0.688511	0.172428	0.051132
C81	C	0.688509	0.172353	0.125754
C82	C	0.779863	0.143315	0.100713
C83	C	0.871219	0.114353	0.001050
C84	C	0.597156	0.201307	0.225422
C85	C	0.597151	0.201232	0.300051
C86	C	0.688506	0.172199	0.275011
C87	C	0.779865	0.143237	0.175341
C88	C	0.871218	0.114199	0.150300
C89	C	0.962579	0.085241	0.050630
C90	C	0.962574	0.085320	-0.023990
C91	C	0.688511	0.172121	0.349631
C92	C	0.871220	0.114121	0.224927
C93	C	0.779864	0.143420	0.872041
C94	C	0.779864	0.143469	0.951464
C95	C	0.545957	0.100591	0.914691
C96	C	0.466572	0.086104	1.008589
C97	C	0.545957	0.334461	0.680665
C98	C	0.466572	0.399347	0.695136
C99	C	0.545957	0.334605	0.914679
C100	C	0.466571	0.399540	1.008572
C101	C	1.013771	-0.048053	0.361375
C102	C	1.093157	-0.112989	0.267482
C103	C	1.013771	0.185961	0.361363
C104	C	1.093156	0.200448	0.267466
C105	C	1.013771	-0.047909	0.595389
C106	C	1.093156	-0.112796	0.580919
C107	C	0.429291	0.033569	1.006990
C108	C	0.354710	0.019941	1.095208
C109	C	0.317406	0.058853	1.185023
C110	C	0.354694	0.111391	1.186619
C111	C	0.429278	0.125014	1.098401
C112	C	0.429291	0.475551	0.747625
C113	C	0.354710	0.536527	0.761217
C114	C	0.317406	0.521298	0.722324
C115	C	0.354694	0.445088	0.669828
C116	C	0.429279	0.384114	0.656231
C117	C	0.429291	0.384367	1.098372
C118	C	0.354710	0.445375	1.186600
C119	C	0.317405	0.521555	1.185027
C120	C	0.354693	0.536729	1.095217
C121	C	0.429278	0.475722	1.006991
C122	C	1.130446	-0.097813	0.177681
C123	C	1.205050	-0.158818	0.089449
C124	C	1.242359	-0.234997	0.091021
C125	C	1.205066	-0.250171	0.180831
C126	C	1.130468	-0.189167	0.269060
C127	C	1.130444	0.252977	0.269063
C128	C	1.205046	0.266587	0.180842
C129	C	1.242353	0.227673	0.091025
C130	C	1.205062	0.175138	0.089431
C131	C	1.130467	0.161524	0.177650
C132	C	1.130437	-0.097543	0.619824
C133	C	1.205018	-0.158505	0.606246
C134	C	1.242323	-0.234719	0.553756
C135	C	1.205035	-0.249971	0.514851
C136	C	1.130450	-0.189010	0.528435
H137	H	0.459630	0.167504	0.613509
F138	F	1.090755	0.294399	0.364642
H139	H	1.235401	-0.146448	0.016331
H140	H	1.100109	0.118752	0.176337
F141	F	1.090751	-0.016742	0.175986
H142	H	0.459653	0.322341	1.099671
F143	F	0.238024	0.586477	1.278934
F144	F	0.591286	0.202932	0.455699
F145	F	0.315037	0.617630	0.817092
F146	F	1.090784	-0.205330	0.364631
F147	F	0.315036	0.429210	1.282171
F148	F	1.244717	0.322504	0.182560
F149	F	0.499927	0.655105	0.829091
F150	F	1.321752	-0.299917	-0.002889
H151	H	0.459622	0.488087	0.933877
F152	F	0.238025	0.586201	0.736804
H153	H	0.945601	0.090857	-0.154730
H154	H	0.324159	-0.022862	0.804207
F155	F	1.244694	-0.142256	0.647654
F156	F	1.321744	0.242171	-0.002859
H157	H	0.614116	0.516262	0.751139
F158	F	0.314981	0.617811	1.093559
F159	F	0.499931	0.809162	0.829093
H160	H	0.459656	0.487965	0.779298
H161	H	0.459664	0.001870	0.933865
H162	H	0.614127	0.875521	0.751159
F163	F	0.499938	0.232205	0.252064
H164	H	1.036954	0.061744	-0.105144
F165	F	0.499919	0.232054	0.406120
H166	H	0.235572	0.309413	0.471840
F167	F	0.315036	-0.035973	1.093489
H168	H	0.945593	0.770299	0.524932
F169	F	0.238024	0.044348	1.278905
H170	H	0.614135	0.196066	0.071513
H171	H	1.235452	-0.312204	0.182099
F172	F	1.321706	-0.299592	0.539304
H173	H	0.324310	0.432699	0.638165
H174	H	1.235449	0.143457	0.016290
H175	H	0.459623	0.322066	0.613494
H176	H	0.459622	0.167797	1.099717
H177	H	1.235420	-0.312032	0.472113
F178	F	0.125714	0.069555	0.712025
F179	F	1.059790	0.631442	0.446983
F180	F	1.090747	-0.016435	0.675692
H181	H	0.324309	0.143070	1.259759
F182	F	1.059809	0.477392	0.446952
H183	H	1.100104	-0.201440	0.496747
H184	H	0.415357	0.213590	0.567448
H185	H	0.347593	0.284129	0.496973
H186	H	0.212130	0.002426	0.779074
H187	H	0.100090	0.284751	0.496720
H188	H	0.100095	0.119046	0.662540
H189	H	0.459643	0.001793	0.779341
H190	H	0.945612	0.090484	0.204525
H191	H	0.945601	0.411037	0.524895
H192	H	1.036959	0.061594	0.030252
