data_functionalizedCrystal
_audit_creation_method	'MofGen! by Chris Wilmer'
_symmetry_space_group_name_H-M	'P1'
_symmetry_Int_Tables_number	1
_symmetry_cell_setting	triclinic
loop_
_symmetry_equiv_pos_as_xyz
  x,y,z
_cell_length_a	23.532407
_cell_length_b	15.944551
_cell_length_c	14.421503
_cell_angle_alpha	89.996660
_cell_angle_beta	90.002238
_cell_angle_gamma	83.173708
loop_
_atom_site_label
_atom_site_type_symbol
_atom_site_fract_x
_atom_site_fract_y
_atom_site_fract_z
O1	O	-0.755658	-0.101953	-0.076998
O2	O	-0.422325	0.231381	0.256335
O3	O	-0.088991	0.564714	0.589669
O4	O	-0.589852	-0.116706	-0.077025
O5	O	-0.256518	0.216627	0.256308
O6	O	0.076815	0.549960	0.589641
O7	O	-0.677283	0.012983	-0.077003
O8	O	-0.343949	0.346317	0.256331
O9	O	-0.010616	0.679650	0.589664
O10	O	-0.668227	-0.231642	-0.077021
O11	O	-0.334894	0.101691	0.256313
O12	O	-0.001560	0.435024	0.589646
O13	O	-0.677268	0.012964	0.077221
O14	O	-0.343935	0.346297	0.410554
O15	O	-0.010601	0.679631	0.743887
O16	O	-0.589837	-0.116726	0.077198
O17	O	-0.256504	0.216608	0.410531
O18	O	0.076829	0.549941	0.743865
O19	O	-0.755643	-0.101972	0.077225
O20	O	-0.422310	0.231361	0.410559
O21	O	-0.088977	0.564695	0.743892
Cu22	Cu	-0.672739	-0.109351	0.091294
Cu23	Cu	-0.339406	0.223983	0.424627
Cu24	Cu	-0.006072	0.557316	0.757960
Cu25	Cu	-0.672756	-0.109328	-0.091094
Cu26	Cu	-0.339423	0.224006	0.242240
Cu27	Cu	-0.006090	0.557339	0.575573
O28	O	-0.668213	-0.231662	0.077203
O29	O	-0.334879	0.101672	0.410536
O30	O	-0.001546	0.435005	0.743869
C31	C	-0.676899	0.044265	0.000109
C32	C	-0.343566	0.377598	0.333443
C33	C	-0.010233	0.710931	0.666776
C34	C	-0.675772	0.137501	0.000110
C35	C	-0.342439	0.470834	0.333443
C36	C	-0.009106	0.804168	0.666776
C37	C	-0.568627	-0.116340	0.000083
C38	C	-0.235294	0.216993	0.333416
C39	C	0.098040	0.550326	0.666749
C40	C	-0.505406	-0.115211	0.000073
C41	C	-0.172072	0.218123	0.333406
C42	C	0.161261	0.551456	0.666739
C43	C	-0.776868	-0.102338	0.000115
C44	C	-0.443535	0.230995	0.333448
C45	C	-0.110202	0.564329	0.666782
C46	C	-0.840090	-0.103468	0.000119
C47	C	-0.506756	0.229866	0.333453
C48	C	-0.173423	0.563199	0.666786
C49	C	-0.106572	-0.184874	0.000109
C50	C	0.226761	0.148460	0.333443
C51	C	0.560094	0.481793	0.666776
C52	C	-0.047168	-0.183824	0.000115
C53	C	0.286165	0.149509	0.333448
C54	C	0.619499	0.482842	0.666782
O55	O	-0.010674	-0.248403	0.000144
O56	O	0.322660	0.084931	0.333477
O57	O	0.655993	0.418264	0.666811
N58	N	-0.024243	-0.106724	0.000119
N59	N	0.309090	0.226610	0.333453
N60	N	0.642423	0.559943	0.666786
C61	C	-0.060726	-0.030668	0.000127
C62	C	0.272607	0.302666	0.333461
C63	C	0.605940	0.635999	0.666794
O64	O	-0.035772	0.035009	0.000132
O65	O	0.297561	0.368342	0.333466
O66	O	0.630895	0.701675	0.666799
C67	C	-0.120129	-0.031718	0.000128
C68	C	0.213204	0.301615	0.333461
C69	C	0.546537	0.634949	0.666795
C70	C	-0.143051	-0.108823	0.000114
C71	C	0.190283	0.224510	0.333448
C72	C	0.523616	0.557843	0.666781
C73	C	-0.129494	-0.261973	0.000097
C74	C	0.203839	0.071361	0.333430
C75	C	0.537172	0.404694	0.666763
C76	C	-0.188894	-0.263022	0.000089
C77	C	0.144439	0.070312	0.333423
C78	C	0.477772	0.403645	0.666756
C79	C	-0.225373	-0.186971	0.000094
C80	C	0.107961	0.146362	0.333428
C81	C	0.441294	0.479695	0.666761
C82	C	-0.202451	-0.109872	0.000107
C83	C	0.130882	0.223461	0.333440
C84	C	0.464216	0.556794	0.666774
C85	C	-0.156611	0.044337	0.000143
C86	C	0.176722	0.377671	0.333476
C87	C	0.510056	0.711004	0.666809
C88	C	-0.216018	0.043281	0.000144
C89	C	0.117316	0.376614	0.333478
C90	C	0.450649	0.709947	0.666811
C91	C	-0.238939	-0.033825	0.000131
C92	C	0.094394	0.299508	0.333464
C93	C	0.427728	0.632842	0.666797
C94	C	-0.298329	-0.034871	0.000105
C95	C	0.035004	0.298462	0.333438
C96	C	0.368337	0.631796	0.666771
N97	N	-0.321254	-0.111971	0.000100
N98	N	0.012079	0.221362	0.333434
N99	N	0.345412	0.554695	0.666767
C100	C	-0.284776	-0.188022	0.000095
C101	C	0.048557	0.145312	0.333429
C102	C	0.381891	0.478645	0.666762
C103	C	0.064025	-0.028468	0.000127
C104	C	0.397358	0.304865	0.333460
C105	C	0.730692	0.638199	0.666794
C106	C	0.123427	-0.027417	0.000119
C107	C	0.456760	0.305916	0.333453
C108	C	0.790094	0.639250	0.666786
C109	C	0.136981	-0.180574	0.000109
C110	C	0.470314	0.152759	0.333442
C111	C	0.803648	0.486093	0.666776
C112	C	0.077578	-0.181624	0.000110
C113	C	0.410911	0.151709	0.333443
C114	C	0.744244	0.485043	0.666777
C115	C	0.041100	-0.105569	0.000123
C116	C	0.374433	0.227765	0.333456
C117	C	0.707767	0.561098	0.666789
C118	C	-0.409521	-0.190219	0.000079
C119	C	-0.076188	0.143115	0.333412
C120	C	0.257145	0.476448	0.666745
C121	C	-0.468927	-0.191261	0.000067
C122	C	-0.135594	0.142072	0.333401
C123	C	0.197739	0.475406	0.666734
C124	C	-0.482476	-0.038104	0.000083
C125	C	-0.149143	0.295229	0.333416
C126	C	0.184191	0.628562	0.666749
C127	C	-0.423075	-0.037062	0.000089
C128	C	-0.089742	0.296272	0.333422
C129	C	0.243591	0.629605	0.666756
C130	C	-0.386599	-0.113126	0.000090
C131	C	-0.053265	0.220208	0.333424
C132	C	0.280068	0.553541	0.666757
O133	O	-0.334859	0.029673	0.000080
O134	O	-0.001525	0.363007	0.333413
O135	O	0.331808	0.696340	0.666746
O136	O	-0.309738	-0.253687	0.000103
O137	O	0.023595	0.079646	0.333436
O138	O	0.356928	0.412980	0.666769
C139	C	-0.668596	-0.262943	0.000089
C140	C	-0.335262	0.070390	0.333422
C141	C	-0.001929	0.403724	0.666755
C142	C	-0.669723	-0.356179	0.000082
C143	C	-0.336389	-0.022846	0.333416
C144	C	-0.003056	0.310487	0.666749
N145	N	-0.672731	-0.109366	0.219575
N146	N	-0.339398	0.223967	0.552908
N147	N	-0.006064	0.557301	0.886241
C148	C	-0.618885	0.351879	0.000087
C149	C	-0.285551	0.685212	0.333421
C150	C	0.047782	1.018545	0.666754
C151	C	-0.645294	0.413109	0.076133
C152	C	-0.311961	0.746442	0.409467
C153	C	0.021372	1.079775	0.742800
C154	C	-0.673733	0.308210	0.000102
C155	C	-0.340400	0.641543	0.333435
C156	C	-0.007067	0.974876	0.666769
C157	C	-0.645322	0.413111	-0.075919
C158	C	-0.311988	0.746445	0.257414
C159	C	0.021345	1.079778	0.590748
C160	C	-0.671760	0.473106	0.000091
C161	C	-0.338427	0.806439	0.333424
C162	C	-0.005093	1.139773	0.666757
C163	C	-0.700158	0.368212	0.076211
C164	C	-0.366825	0.701545	0.409544
C165	C	-0.033491	1.034879	0.742877
C166	C	-0.700178	0.368208	-0.075910
C167	C	-0.366844	0.701542	0.257424
C168	C	-0.033511	1.034875	0.590757
C169	C	-0.726627	0.429421	0.000155
C170	C	-0.393294	0.762755	0.333488
C171	C	-0.059961	1.096088	0.666821
C172	C	-0.674869	0.213217	0.000109
C173	C	-0.341535	0.546550	0.333443
C174	C	-0.008202	0.879884	0.666776
C175	C	-0.670629	0.568097	0.000090
C176	C	-0.337296	0.901431	0.333424
C177	C	-0.003962	1.234764	0.666757
N178	N	-0.672769	-0.109306	-0.219375
N179	N	-0.339435	0.224028	0.113959
N180	N	-0.006102	0.557361	0.447292
C181	C	-0.632296	-0.169308	0.469218
C182	C	-0.298963	0.164025	0.802551
C183	C	0.034371	0.497359	1.135885
C184	C	-0.683757	-0.185182	0.531028
C185	C	-0.350423	0.148152	0.864361
C186	C	-0.017090	0.481485	1.197694
C187	C	-0.672745	-0.109346	0.408736
C188	C	-0.339412	0.223987	0.742070
C189	C	-0.006078	0.557321	1.075403
C190	C	-0.621298	-0.093492	0.531020
C191	C	-0.287964	0.239842	0.864354
C192	C	0.045369	0.573175	1.197687
C193	C	-0.672754	-0.109328	0.591458
C194	C	-0.339420	0.224005	0.924791
C195	C	-0.006087	0.557338	1.258124
C196	C	-0.724232	-0.125257	0.469185
C197	C	-0.390898	0.208076	0.802519
C198	C	-0.057565	0.541410	1.135852
C199	C	-0.661739	-0.033535	0.469172
C200	C	-0.328405	0.299799	0.802506
C201	C	0.004928	0.633132	1.135839
C202	C	-0.713237	-0.049376	0.530954
C203	C	-0.379903	0.283958	0.864288
C204	C	-0.046570	0.617291	1.197621
C205	C	-0.672739	-0.109358	0.303475
C206	C	-0.339406	0.223975	0.636808
C207	C	-0.006072	0.557308	0.970142
C208	C	-0.672766	-0.109315	0.696717
C209	C	-0.339432	0.224018	1.030050
C210	C	-0.006099	0.557351	1.363383
H211	H	-0.487586	-0.254052	0.000056
H212	H	-0.154253	0.079281	0.333389
H213	H	0.179081	0.412615	0.666723
H214	H	-0.598124	-0.220056	0.442111
H215	H	-0.264791	0.113277	0.775445
H216	H	0.068542	0.446611	1.108778
F217	F	-0.521309	0.042829	0.000090
F218	F	-0.187976	0.376163	0.333423
F219	F	0.145358	0.709496	0.666756
F220	F	-0.370708	-0.271175	0.000081
F221	F	-0.037375	0.062159	0.333414
F222	F	0.295959	0.395492	0.666747
F223	F	-0.614965	0.439126	0.160157
F224	F	-0.281632	0.772460	0.493490
F225	F	0.051701	1.105793	0.826823
F226	F	-0.559378	0.307842	0.000172
F227	F	-0.226045	0.641176	0.333505
F228	F	0.107289	0.974509	0.666839
F229	F	-0.757999	0.016916	0.566168
F230	F	-0.424666	0.350250	0.899501
F231	F	-0.091332	0.683583	1.232835
H232	H	-0.723331	0.348409	0.140572
H233	H	-0.389998	0.681742	0.473905
H234	H	-0.056665	1.015076	0.807239
F235	F	-0.213281	-0.345089	0.000079
F236	F	0.120052	-0.011755	0.333413
F237	F	0.453385	0.321578	0.666746
F238	F	-0.254837	0.124232	0.000160
F239	F	0.078496	0.457565	0.333494
F240	F	0.411829	0.790899	0.666827
H241	H	-0.772194	0.462964	0.000205
H242	H	-0.438861	0.796297	0.333538
H243	H	-0.105527	1.129631	0.666872
F244	F	-0.695936	-0.268969	0.566541
F245	F	-0.362603	0.064364	0.899875
F246	F	-0.029270	0.397698	1.233208
H247	H	-0.723363	0.348281	-0.140196
H248	H	-0.390029	0.681615	0.193137
H249	H	-0.056696	1.014948	0.526470
H250	H	-0.622122	0.433001	-0.140214
H251	H	-0.288788	0.766334	0.193119
H252	H	0.044545	1.099667	0.526452
H253	H	-0.767753	-0.138736	0.442138
H254	H	-0.434420	0.194598	0.775471
H255	H	-0.101086	0.527931	1.108805
H256	H	-0.652405	0.030549	0.441981
H257	H	-0.319072	0.363882	0.775315
H258	H	0.014262	0.697215	1.108648
H259	H	-0.099799	-0.323906	0.000096
H260	H	0.233535	0.009428	0.333429
H261	H	0.566868	0.342761	0.666763
F262	F	0.053189	-0.263689	0.000097
F263	F	0.386522	0.069644	0.333431
F264	F	0.719856	0.402977	0.666764
F265	F	-0.564425	-0.075973	0.566525
F266	F	-0.231092	0.257361	0.899858
F267	F	0.102242	0.590694	1.233191
H268	H	0.166693	-0.242498	0.000109
H269	H	0.500026	0.090835	0.333443
H270	H	0.833359	0.424168	0.666776
F271	F	0.025207	0.052486	0.000132
F272	F	0.358540	0.385820	0.333465
F273	F	0.691873	0.719153	0.666798
F274	F	0.147815	0.054649	0.000113
F275	F	0.481148	0.387982	0.333446
F276	F	0.814481	0.721316	0.666780
F277	F	-0.132230	0.126405	0.000144
F278	F	0.201103	0.459738	0.333477
F279	F	0.534437	0.793072	0.666811
F280	F	-0.398680	0.045002	0.000104
F281	F	-0.065347	0.378335	0.333437
F282	F	0.267987	0.711668	0.666771
