data_functionalizedCrystal
_audit_creation_method	'MofGen! by Chris Wilmer'
_symmetry_space_group_name_H-M	'P1'
_symmetry_Int_Tables_number	1
_symmetry_cell_setting	triclinic
loop_
_symmetry_equiv_pos_as_xyz
  x,y,z
_cell_length_a	10.654550
_cell_length_b	12.503572
_cell_length_c	10.654551
_cell_angle_alpha	86.439802
_cell_angle_beta	84.485132
_cell_angle_gamma	93.555982
loop_
_atom_site_label
_atom_site_type_symbol
_atom_site_fract_x
_atom_site_fract_y
_atom_site_fract_z
O1	O	1.675028	0.089402	0.169189
O2	O	1.309548	0.089384	0.185997
O3	O	1.500690	0.089394	-0.005146
O4	O	1.483885	0.089392	0.360332
O5	O	1.486315	-0.089248	0.009253
O6	O	1.295173	-0.089258	0.200396
O7	O	1.660653	-0.089240	0.183589
Cu8	Cu	1.476600	-0.105561	0.193307
Cu9	Cu	1.493600	0.105705	0.176278
O10	O	1.469510	-0.089250	0.374732
C11	C	1.255562	0.000061	0.191963
C12	C	1.116118	0.000054	0.188271
N13	N	1.464653	-0.254154	0.205283
C14	C	1.036634	0.000069	0.300812
C15	C	0.905615	0.000088	0.297334
C16	C	0.933577	0.000081	0.068765
C17	C	1.064593	0.000055	0.072245
C18	C	1.088159	0.000069	0.416838
C19	C	1.008674	0.000085	0.529388
C20	C	0.877655	0.000104	0.525910
C21	C	0.826121	0.000106	0.409882
C22	C	1.447077	-0.473270	0.222912
C23	C	1.523129	-0.526593	0.146668
C24	C	1.513350	-0.648517	0.156477
C25	C	1.456855	-0.351335	0.213105
C26	C	1.714638	0.000086	0.177623
C27	C	1.854083	0.000099	0.181313
C28	C	1.492269	0.000075	-0.044745
C29	C	1.488577	0.000082	-0.184188
N30	N	1.505558	0.254298	0.164292
C31	C	1.494680	0.097459	-0.257549
C32	C	1.491199	0.097453	-0.388569
C33	C	1.475517	-0.097313	-0.372856
C34	C	1.478989	-0.097306	-0.241837
C35	C	1.504268	0.194847	-0.199900
C36	C	1.510374	0.292231	-0.273262
C37	C	1.506893	0.292226	-0.404282
C38	C	1.497307	0.194837	-0.461940
C39	C	1.477932	0.000071	0.414330
C40	C	1.481624	0.000071	0.553773
H41	H	1.194841	0.000059	0.419683
F42	F	1.472498	-0.200945	-0.163758
F43	F	1.352381	-0.533280	0.317855
H44	H	1.518166	0.371522	-0.226306
F45	F	1.063522	0.000072	0.652866
F46	F	1.493591	0.194837	-0.601384
F47	F	0.793064	0.000111	0.645693
F48	F	1.507979	0.194861	-0.060459
F49	F	0.686675	0.000112	0.406187
F50	F	1.513378	0.395869	-0.482354
F51	F	0.878726	0.000087	-0.054711
F52	F	1.618212	-0.466581	0.052101
F53	F	1.465317	-0.200953	-0.434225
H54	H	1.129312	0.000045	-0.019396
