data_functionalizedCrystal
_audit_creation_method	'MofGen! by Chris Wilmer'
_symmetry_space_group_name_H-M	'P1'
_symmetry_Int_Tables_number	1
_symmetry_cell_setting	triclinic
loop_
_symmetry_equiv_pos_as_xyz
  x,y,z
_cell_length_a	10.654556
_cell_length_b	10.654550
_cell_length_c	9.730223
_cell_angle_alpha	89.998521
_cell_angle_beta	89.998368
_cell_angle_gamma	84.486233
loop_
_atom_site_label
_atom_site_type_symbol
_atom_site_fract_x
_atom_site_fract_y
_atom_site_fract_z
O1	O	1.667834	0.176437	-0.114228
O2	O	2.167834	0.676437	0.385772
O3	O	1.302357	0.193234	-0.114241
O4	O	1.802357	0.693234	0.385759
O5	O	1.493499	0.002097	-0.114236
O6	O	1.993499	0.502097	0.385764
O7	O	1.476693	0.367575	-0.114234
O8	O	1.976693	0.867575	0.385766
O9	O	1.493486	0.002091	0.114344
O10	O	1.993486	0.502091	0.614344
O11	O	1.302345	0.193229	0.114339
O12	O	1.802345	0.693229	0.614339
O13	O	1.667822	0.176431	0.114352
O14	O	2.167822	0.676431	0.614352
Zn15	Zn	1.485081	0.184829	0.150637
Zn16	Zn	1.985081	0.684829	0.650637
Zn17	Zn	1.485098	0.184836	-0.150527
Zn18	Zn	1.985098	0.684836	0.349473
O19	O	1.476680	0.367569	0.114346
O20	O	1.976680	0.867569	0.614346
C21	C	1.255553	0.191997	0.000047
C22	C	1.755553	0.691997	0.500047
C23	C	1.116110	0.188302	0.000041
C24	C	1.616110	0.688302	0.500041
C25	C	0.919571	0.183102	-0.124547
C26	C	1.419571	0.683102	0.375453
C27	C	1.050594	0.186566	-0.124556
C28	C	1.550594	0.686566	0.375444
C29	C	1.050599	0.186560	0.124655
C30	C	1.550599	0.686560	0.624655
C31	C	0.919580	0.183087	0.124662
C32	C	1.419580	0.683087	0.624662
C33	C	1.492258	-0.044704	0.000051
C34	C	1.992258	0.455296	0.500051
C35	C	1.488567	-0.184147	0.000042
C36	C	1.988567	0.315853	0.500042
C37	C	1.714626	0.177669	0.000061
C38	C	2.214626	0.677669	0.500061
C39	C	1.854069	0.181364	0.000057
C40	C	2.354069	0.681364	0.500057
C41	C	1.483357	-0.380685	-0.124547
C42	C	1.983357	0.119315	0.375453
C43	C	1.486838	-0.249665	-0.124555
C44	C	1.986838	0.250335	0.375445
C45	C	1.486826	-0.249659	0.124655
C46	C	1.986826	0.250341	0.624655
C47	C	1.483353	-0.380678	0.124662
C48	C	1.983353	0.119322	0.624662
C49	C	1.477920	0.414370	0.000056
C50	C	1.977920	0.914370	0.500056
C51	C	1.481612	0.553813	0.000057
C52	C	1.981612	1.053813	0.500057
N53	N	1.485079	0.184824	0.356173
N54	N	1.985079	0.684824	0.856173
N55	N	1.485109	0.184832	-0.356063
N56	N	1.985109	0.684832	0.143937
C57	C	1.569746	0.100224	0.428102
C58	C	2.069746	0.600224	0.928102
C59	C	1.569759	0.100225	0.571985
C60	C	2.069759	0.600225	1.071985
C61	C	1.400434	0.269436	0.571998
C62	C	1.900434	0.769436	1.071998
C63	C	1.400416	0.269428	0.428118
C64	C	1.900416	0.769428	0.928118
H65	H	1.103920	0.187979	-0.226021
H66	H	1.603920	0.687979	0.273979
Cl67	Cl	1.132963	0.188740	0.281292
Cl68	Cl	1.632963	0.688740	0.781292
H69	H	1.638700	0.031334	0.630545
H70	H	2.138700	0.531334	1.130545
H71	H	0.866247	0.181671	0.226136
H72	H	1.366247	0.681671	0.726136
H73	H	1.481938	-0.434019	-0.226009
H74	H	1.981938	0.065981	0.273991
Cl75	Cl	1.489006	-0.167294	0.281292
Cl76	Cl	1.989006	0.332706	0.781292
Cl77	Cl	0.837220	0.180929	-0.281193
Cl78	Cl	1.337220	0.680929	0.218807
Cl79	Cl	1.489035	-0.167326	-0.281208
Cl80	Cl	1.989035	0.332674	0.218792
Cl81	Cl	1.481168	-0.463030	0.281320
Cl82	Cl	1.981168	0.036970	0.781320
H83	H	1.638682	0.031332	0.369528
H84	H	2.138682	0.531332	0.869528
Cl85	Cl	1.294010	0.375796	0.662449
Cl86	Cl	1.794010	0.875796	1.162449
H87	H	1.331464	0.338320	0.369550
H88	H	1.831464	0.838320	0.869550
