data_functionalizedCrystal
_audit_creation_method	'MofGen! by Chris Wilmer'
_symmetry_space_group_name_H-M	'P1'
_symmetry_Int_Tables_number	1
_symmetry_cell_setting	triclinic
loop_
_symmetry_equiv_pos_as_xyz
  x,y,z
_cell_length_a	19.805407
_cell_length_b	12.827892
_cell_length_c	19.805399
_cell_angle_alpha	90.022529
_cell_angle_beta	90.019573
_cell_angle_gamma	90.015392
loop_
_atom_site_label
_atom_site_type_symbol
_atom_site_fract_x
_atom_site_fract_y
_atom_site_fract_z
Zn1	Zn	1.034788	-0.416057	0.382743
Zn2	Zn	1.534788	0.083943	0.882743
Zn3	Zn	1.034724	-0.590812	0.269565
Zn4	Zn	1.534724	-0.090812	0.769565
Zn5	Zn	0.921602	-0.416086	0.269568
Zn6	Zn	1.421602	0.083914	0.769568
Zn7	Zn	0.921587	-0.590757	0.382712
Zn8	Zn	1.421587	-0.090757	0.882712
O9	O	0.978175	-0.503428	0.326147
O10	O	1.478175	-0.003428	0.826147
O11	O	1.129496	-0.439250	0.367742
O12	O	1.629496	0.060750	0.867742
O13	O	1.019698	-0.567670	0.174849
O14	O	1.519698	-0.067670	0.674849
O15	O	0.936649	-0.269846	0.284595
O16	O	1.436649	0.230154	0.784595
O17	O	1.129449	-0.567642	0.284590
O18	O	1.629449	-0.067642	0.784590
O19	O	1.019806	-0.269825	0.367745
O20	O	1.519806	0.230175	0.867745
O21	O	0.936588	-0.439299	0.174851
O22	O	1.436588	0.060701	0.674851
O23	O	0.826884	-0.439245	0.284565
O24	O	1.326884	0.060755	0.784565
O25	O	0.936624	-0.567547	0.477433
O26	O	1.436624	-0.067547	0.977433
O27	O	0.826873	-0.567575	0.367691
O28	O	1.326873	-0.067575	0.867691
O29	O	1.019792	-0.439196	0.477456
O30	O	1.519792	0.060804	0.977456
O31	O	1.019684	-0.737041	0.284560
O32	O	1.519684	-0.237041	0.784560
O33	O	0.936563	-0.737000	0.367688
O34	O	1.436563	-0.237000	0.867688
C35	C	0.802319	-0.503408	0.326125
C36	C	1.302319	-0.003408	0.826125
C37	C	0.727087	-0.503425	0.326132
C38	C	1.227087	-0.003425	0.826132
C39	C	0.978133	-0.774938	0.326135
C40	C	1.478133	-0.274938	0.826135
C41	C	0.978177	-0.891091	0.326153
C42	C	1.478177	-0.391091	0.826153
C43	C	0.691755	-0.570347	0.369346
C44	C	1.191755	-0.070347	0.869346
C45	C	0.621067	-0.570349	0.369355
C46	C	1.121067	-0.070349	0.869355
C47	C	0.585712	-0.503433	0.326147
C48	C	1.085712	-0.003433	0.826147
C49	C	0.621049	-0.436504	0.282931
C50	C	1.121049	0.063496	0.782931
C51	C	0.691736	-0.436497	0.282926
C52	C	1.191736	0.063503	0.782926
C53	C	0.335975	-0.436527	0.282954
C54	C	0.835975	0.063473	0.782954
C55	C	0.265283	-0.436540	0.282961
C56	C	0.765283	0.063460	0.782961
C57	C	0.265306	-0.570378	0.369383
C58	C	0.765306	-0.070378	0.869383
C59	C	0.335993	-0.570372	0.369378
C60	C	0.835993	-0.070372	0.869378
C61	C	0.371324	-0.503439	0.326165
C62	C	0.871324	-0.003439	0.826165
C63	C	0.447973	-0.503436	0.326156
C64	C	0.947973	-0.003436	0.826156
C65	C	0.509065	-0.503440	0.326152
C66	C	1.009065	-0.003440	0.826152
C67	C	1.019357	-0.942862	0.285064
C68	C	1.519357	-0.442862	0.785064
C69	C	1.019403	-1.062912	0.285081
C70	C	1.519403	-0.562912	0.785081
C71	C	1.154718	-0.503449	0.326169
C72	C	1.654718	-0.003449	0.826169
C73	C	1.229950	-0.503458	0.326179
C74	C	1.729950	-0.003458	0.826179
C75	C	0.978213	-0.503362	0.502690
C76	C	1.478213	-0.003362	1.002690
C77	C	0.978229	-0.503334	0.577922
C78	C	1.478229	-0.003334	1.077922
C79	C	0.978236	-0.230858	0.326174
C80	C	1.478236	0.269142	0.826174
C81	C	0.978262	-0.114705	0.326185
C82	C	1.478262	0.385295	0.826185
C83	C	0.978176	-0.503418	0.150291
C84	C	1.478176	-0.003418	0.650291
C85	C	0.978291	-0.503152	0.075060
C86	C	1.478291	-0.003152	0.575060
C87	C	1.021536	-0.436499	0.613279
C88	C	1.521536	0.063501	1.113279
C89	C	1.021543	-0.436468	0.683968
C90	C	1.521543	0.063532	1.183968
C91	C	0.978246	-0.503280	0.719298
C92	C	1.478246	-0.003280	1.219298
C93	C	0.934935	-0.570118	0.683935
C94	C	1.434935	-0.070118	1.183935
C95	C	0.934925	-0.570143	0.613248
C96	C	1.434925	-0.070143	1.113248
C97	C	0.934973	-0.570021	0.969009
C98	C	1.434973	-0.070021	1.469009
C99	C	0.934988	-0.569994	1.039701
C100	C	1.434988	-0.069994	1.539701
C101	C	1.021591	-0.436347	1.039728
C102	C	1.521591	0.063653	1.539728
C103	C	1.021581	-0.436371	0.969041
C104	C	1.521581	0.063629	1.469041
C105	C	0.978268	-0.503205	0.933685
C106	C	1.478268	-0.003205	1.433685
C107	C	0.978260	-0.503236	0.857037
C108	C	1.478260	-0.003236	1.357037
C109	C	0.978257	-0.503255	0.795945
C110	C	1.478257	-0.003255	1.295945
H111	H	0.592303	-0.624844	0.404544
H112	H	1.092303	-0.124844	0.904544
H113	H	1.054581	-0.898310	0.249875
H114	H	1.554581	-0.398310	0.749875
O115	O	0.892956	-0.635121	0.578821
O116	O	1.392956	-0.135121	1.078821
C117	C	0.931476	-0.702646	0.537946
C118	C	1.431476	-0.202646	1.037946
H119	H	0.982777	-0.665797	0.527377
H120	H	1.482777	-0.165797	1.027377
H121	H	0.903900	-0.716659	0.488228
H122	H	1.403900	-0.216659	0.988228
H123	H	0.938897	-0.780083	0.565178
H124	H	1.438897	-0.280083	1.065178
O125	O	1.063580	-0.371397	0.718234
O126	O	1.563580	0.128603	1.218234
C127	C	1.048799	-0.267250	0.700973
C128	C	1.548799	0.232750	1.200973
H129	H	1.022770	-0.265109	0.649646
H130	H	1.522770	0.234891	1.149646
H131	H	1.097659	-0.220402	0.698562
H132	H	1.597659	0.279598	1.198562
H133	H	1.014018	-0.232023	0.740753
H134	H	1.514018	0.267977	1.240753
H135	H	1.056795	-0.382096	0.584519
H136	H	1.556795	0.117904	1.084519
O137	O	1.063660	-0.371371	0.934827
O138	O	1.563660	0.128629	1.434827
C139	C	1.101898	-0.312389	0.981193
C140	C	1.601898	0.187611	1.481193
H141	H	1.074184	-0.308750	1.031577
H142	H	1.574184	0.191250	1.531577
H143	H	1.109131	-0.230061	0.960779
H144	H	1.609131	0.269939	1.460779
H145	H	1.153297	-0.350658	0.988716
H146	H	1.653297	0.149342	1.488716
H147	H	0.364733	-0.382034	0.247762
H148	H	0.864733	0.117966	0.747762
H149	H	0.720536	-0.624841	0.404529
H150	H	1.220536	-0.124841	0.904529
H151	H	0.943002	-1.070191	0.361363
H152	H	1.443002	-0.570191	0.861363
O153	O	1.063597	-0.371445	1.074179
O154	O	1.563597	0.128555	1.574179
C155	C	1.054335	-0.385759	1.144145
C156	C	1.554335	0.114241	1.644145
H157	H	1.002093	-0.419971	1.153788
H158	H	1.502093	0.080029	1.653788
H159	H	1.058948	-0.307471	1.171016
H160	H	1.558948	0.192529	1.671016
H161	H	1.094472	-0.441406	1.164209
H162	H	1.594472	0.058594	1.664209
H163	H	0.899728	-0.624402	1.068465
H164	H	1.399728	-0.124402	1.568465
O165	O	0.936062	-0.944119	0.368104
O166	O	1.436062	-0.444119	0.868104
C167	C	0.868584	-0.917652	0.353250
C168	C	1.368584	-0.417652	0.853250
H169	H	0.867118	-0.838405	0.327263
H170	H	1.367118	-0.338405	0.827263
H171	H	0.838202	-0.914022	0.402072
H172	H	1.338202	-0.414022	0.902072
H173	H	0.845868	-0.979123	0.318403
H174	H	1.345868	-0.479123	0.818403
H175	H	0.899715	-0.624457	0.940230
H176	H	1.399715	-0.124457	1.440230
O177	O	1.061463	-1.116178	0.243196
O178	O	1.561463	-0.616178	0.743196
C179	C	1.052153	-1.224183	0.252544
C180	C	1.552153	-0.724183	0.752544
H181	H	1.029923	-1.238955	0.304758
H182	H	1.529923	-0.738955	0.804758
H183	H	1.102855	-1.265659	0.248067
H184	H	1.602855	-0.765659	0.748067
H185	H	1.016154	-1.255271	0.212369
H186	H	1.516154	-0.755271	0.712369
H187	H	0.899680	-0.624514	0.712707
H188	H	1.399680	-0.124514	1.212707
H189	H	0.236531	-0.624874	0.404572
H190	H	0.736531	-0.124874	0.904572
O191	O	0.370232	-0.635406	0.411414
O192	O	0.870232	-0.135406	0.911414
C193	C	0.323888	-0.694493	0.449548
C194	C	0.823888	-0.194493	0.949548
H195	H	0.273506	-0.651702	0.451943
H196	H	0.773506	-0.151702	0.951943
H197	H	0.344334	-0.705743	0.502863
H198	H	0.844334	-0.205743	1.002863
H199	H	0.316351	-0.773812	0.424677
H200	H	0.816351	-0.273812	0.924677
O201	O	0.231017	-0.371580	0.240892
O202	O	0.731017	0.128420	0.740892
C203	C	0.248251	-0.394291	0.173406
C204	C	0.748251	0.105709	0.673406
H205	H	0.299569	-0.434453	0.171956
H206	H	0.799569	0.065547	0.671956
H207	H	0.250667	-0.318807	0.143142
H208	H	0.750667	0.181193	0.643142
H209	H	0.208452	-0.447974	0.150547
H210	H	0.708452	0.052026	0.650547
O211	O	0.586602	-0.371594	0.240984
O212	O	1.086602	0.128406	0.740984
C213	C	0.516635	-0.385929	0.250266
C214	C	1.016635	0.114071	0.750266
H215	H	0.506978	-0.466624	0.272340
H216	H	1.006978	0.033376	0.772340
H217	H	0.489749	-0.378732	0.199578
H218	H	0.989749	0.121268	0.699578
H219	H	0.496600	-0.324023	0.286384
H220	H	0.996600	0.175977	0.786384
H221	H	0.720502	-0.381997	0.247740
H222	H	1.220502	0.118003	0.747740
