data_functionalizedCrystal
_audit_creation_method	'MofGen! by Chris Wilmer'
_symmetry_space_group_name_H-M	'P1'
_symmetry_Int_Tables_number	1
_symmetry_cell_setting	triclinic
loop_
_symmetry_equiv_pos_as_xyz
  x,y,z
_cell_length_a	12.645331
_cell_length_b	16.994747
_cell_length_c	12.645323
_cell_angle_alpha	90.006372
_cell_angle_beta	90.022676
_cell_angle_gamma	90.010038
loop_
_atom_site_label
_atom_site_type_symbol
_atom_site_fract_x
_atom_site_fract_y
_atom_site_fract_z
Zn1	Zn	1.620780	-0.314043	0.599583
Zn2	Zn	1.620682	-0.445958	0.422380
Zn3	Zn	1.443495	-0.314070	0.422327
Zn4	Zn	1.443497	-0.445907	0.599595
O5	O	1.532114	-0.379995	0.510971
O6	O	1.769114	-0.331552	0.576093
O7	O	1.597136	-0.428496	0.274026
O8	O	1.467052	-0.203685	0.445813
O9	O	1.769043	-0.428470	0.445903
O10	O	1.597303	-0.203666	0.576042
O11	O	1.466957	-0.331598	0.273987
O12	O	1.295148	-0.331548	0.445825
O13	O	1.467056	-0.428382	0.747941
O14	O	1.295149	-0.428408	0.576063
O15	O	1.597305	-0.331503	0.747932
O16	O	1.597138	-0.556333	0.445915
O17	O	1.466961	-0.556295	0.576115
C18	C	1.256684	-0.379976	0.510941
C19	C	1.138854	-0.379987	0.510953
C20	C	1.532052	-0.584934	0.511019
C21	C	1.532060	-0.674257	0.511016
Zn22	Zn	1.443525	-0.945156	0.422297
Zn23	Zn	1.620827	-0.945108	0.599536
Zn24	Zn	1.443533	-0.813299	0.599577
Zn25	Zn	1.620702	-0.813214	0.422345
O26	O	1.532147	-0.879194	0.510939
O27	O	1.467094	-1.055531	0.445771
O28	O	1.597365	-0.927639	0.747889
O29	O	1.295185	-0.830846	0.576058
O30	O	1.597357	-1.055496	0.575987
O31	O	1.295179	-0.927721	0.445811
O32	O	1.467108	-0.830800	0.747919
O33	O	1.466986	-0.702907	0.576105
O34	O	1.597143	-0.830700	0.273992
O35	O	1.597151	-0.702844	0.445893
O36	O	1.466972	-0.927638	0.273956
O37	O	1.769158	-0.927556	0.576034
O38	O	1.769066	-0.830654	0.445853
C39	C	0.971253	-0.318772	0.429471
C40	C	1.093813	-0.318930	0.429113
C41	C	1.094346	-0.463080	0.480474
C42	C	0.971748	-0.462746	0.479918
C43	C	0.971701	-0.358899	0.623227
C44	C	1.094307	-0.357043	0.622603
C45	C	1.808619	-0.380014	0.511003
C46	C	1.926449	-0.380022	0.511016
C47	C	1.532192	-0.379934	0.787477
C48	C	1.532225	-0.379908	0.905307
C49	C	1.532180	-0.174254	0.510917
C50	C	1.532213	-0.084932	0.510895
C51	C	1.532097	-0.379998	0.235541
C52	C	1.532269	-0.379802	0.117712
C53	C	1.450032	-0.440567	1.072877
C54	C	1.450248	-0.440868	0.950317
C55	C	1.643928	-0.402468	0.949836
C56	C	1.643477	-0.402849	1.072435
C57	C	1.503771	-0.296348	1.072468
C58	C	1.501279	-0.296849	0.949862
C59	C	1.807577	-0.879092	0.510947
C60	C	1.925407	-0.879072	0.510981
C61	C	1.532043	-0.879165	0.234434
C62	C	1.531998	-0.879153	0.116603
C63	C	1.255642	-0.879299	0.510934
C64	C	1.137812	-0.879343	0.510932
C65	C	1.532175	-0.879268	0.786369
C66	C	1.531924	-0.879431	0.904198
C67	C	2.092957	-0.818263	0.428924
C68	C	1.970397	-0.818025	0.429121
C69	C	1.969907	-0.856576	0.622732
C70	C	2.092505	-0.856133	0.622301
C71	C	2.092617	-0.962524	0.482403
C72	C	1.970011	-0.962084	0.479892
C73	C	1.613524	-0.817954	-0.050938
C74	C	1.613912	-0.818134	0.071622
C75	C	1.562351	-0.962256	0.072094
C76	C	1.562878	-0.961900	-0.050504
C77	C	1.419713	-0.857974	-0.050607
C78	C	1.420369	-0.856139	0.072000
H79	H	0.941780	-0.256969	0.448366
N80	N	1.588616	-0.736066	-0.089976
H81	H	1.524171	-0.737840	-0.137124
H82	H	1.650838	-0.715037	-0.131290
H83	H	0.940408	-0.332578	0.346806
N84	N	1.931556	-0.736118	0.454221
H85	H	1.958561	-0.719697	0.526090
H86	H	1.851691	-0.735674	0.454391
N87	N	1.132611	-0.337417	0.318968
H88	H	1.070072	-0.345501	0.270460
H89	H	1.176826	-0.386885	0.320737
N90	N	1.475162	-0.522817	0.911509
H91	H	1.486060	-0.558885	0.974044
H92	H	1.541637	-0.521475	0.867300
H93	H	1.125005	-0.481301	0.399323
N94	N	1.487559	-1.024357	-0.089828
H95	H	1.510973	-1.077554	-0.063009
H96	H	1.487352	-1.024544	-0.169696
H97	H	0.942111	-0.509927	0.536723
H98	H	0.940795	-0.299365	0.650953
H99	H	1.644878	-0.979853	-0.079106
H100	H	1.643469	-0.980537	0.102819
N101	N	1.929468	-1.025313	0.553313
H102	H	1.888747	-1.065773	0.511277
H103	H	1.881439	-1.000874	0.608004
N104	N	1.132951	-0.525147	0.556699
H105	H	1.179780	-0.499939	0.611850
H106	H	1.174492	-0.566300	0.516791
N107	N	1.390066	-0.775124	0.110525
H108	H	1.387569	-0.774900	0.190356
H109	H	1.318222	-0.760683	0.081512
N110	N	2.131034	-1.022539	0.561636
H111	H	2.177486	-0.995845	0.615835
H112	H	2.172933	-1.064592	0.523851
H113	H	1.939209	-0.796243	0.647403
N114	N	1.675471	-0.483655	1.110379
H115	H	1.689733	-0.518695	1.047466
H116	H	1.616511	-0.506927	1.154228
N117	N	2.133753	-0.736821	0.453771
H118	H	2.175241	-0.716148	0.391448
H119	H	2.181115	-0.739216	0.518018
N120	N	0.933789	-0.486467	0.371263
H121	H	0.960687	-0.540933	0.354033
H122	H	0.961332	-0.447824	0.317207
N123	N	1.574818	-0.233702	0.909285
H124	H	1.571101	-0.231782	0.829541
H125	H	1.649590	-0.246009	0.931987
N126	N	1.722986	-0.836296	-0.091744
H127	H	1.771726	-0.847235	-0.030185
H128	H	1.750562	-0.789854	-0.133239
H129	H	1.706828	-0.360512	1.102095
H130	H	1.392052	-0.798427	-0.081533
H131	H	1.366956	-0.426585	1.102344
H132	H	1.940928	-0.979048	0.397653
N133	N	1.724039	-0.836704	0.110468
H134	H	1.722295	-0.886193	0.154650
H135	H	1.751026	-0.791512	0.154784
N136	N	1.588771	-0.736508	0.111508
H137	H	1.522533	-0.738264	0.156051
H138	H	1.577383	-0.700123	0.049398
H139	H	1.940765	-0.899498	0.685566
N140	N	1.132827	-0.276042	0.653051
H141	H	1.178945	-0.254294	0.594774
H142	H	1.175097	-0.279527	0.720670
N143	N	1.676475	-0.482430	0.909223
H144	H	1.623191	-0.523102	0.932720
H145	H	1.748467	-0.496353	0.938327
N146	N	2.131821	-0.912250	0.706124
H147	H	2.105001	-0.894918	0.777650
H148	H	2.211688	-0.912375	0.706400
H149	H	1.124971	-0.398400	0.686606
N150	N	1.727273	-0.345695	0.911241
H151	H	1.693342	-0.304707	0.864404
H152	H	1.782607	-0.375362	0.869707
H153	H	0.942729	-0.403511	0.683985
H154	H	1.468663	-0.502049	1.103722
N155	N	1.340543	-0.422133	0.910424
H156	H	1.291607	-0.413609	0.972480
H157	H	1.313691	-0.467409	0.866181
H158	H	1.423734	-0.275783	1.103363
N159	N	2.133565	-0.989666	0.376344
H160	H	2.181835	-0.948134	0.345796
H161	H	2.072069	-0.998661	0.326808
N162	N	1.486072	-1.024291	0.110674
H163	H	1.430975	-0.999062	0.157490
H164	H	1.525961	-1.065458	0.152229
N165	N	1.392395	-0.274302	0.911307
H166	H	1.363227	-0.317702	0.865170
H167	H	1.397026	-0.223996	0.869048
H168	H	1.563667	-0.251076	1.101462
H169	H	1.940310	-0.832096	0.346260
H170	H	2.122416	-0.832181	0.345821
H171	H	1.356316	-0.897467	0.102618
H172	H	2.121106	-0.795131	0.646569
N173	N	1.339136	-0.917013	-0.089033
H174	H	1.375057	-0.957285	-0.135489
H175	H	1.282548	-0.888952	-0.130929
H176	H	1.123904	-0.257313	0.448212
