data_functionalizedCrystal
_audit_creation_method	'MofGen! by Chris Wilmer'
_symmetry_space_group_name_H-M	'P1'
_symmetry_Int_Tables_number	1
_symmetry_cell_setting	triclinic
loop_
_symmetry_equiv_pos_as_xyz
  x,y,z
_cell_length_a	21.295417
_cell_length_b	17.077404
_cell_length_c	17.077404
_cell_angle_alpha	89.994054
_cell_angle_beta	90.017027
_cell_angle_gamma	89.969268
loop_
_atom_site_label
_atom_site_type_symbol
_atom_site_fract_x
_atom_site_fract_y
_atom_site_fract_z
Zn1	Zn	-0.250706	-1.199908	0.443817
Zn2	Zn	0.249294	-0.699908	0.943817
Zn3	Zn	-0.355949	-1.199829	0.312540
Zn4	Zn	0.144051	-0.699829	0.812540
Zn5	Zn	-0.250698	-1.068671	0.312565
Zn6	Zn	0.249302	-0.568671	0.812565
Zn7	Zn	-0.355942	-1.068590	0.443764
Zn8	Zn	0.144058	-0.568590	0.943764
O9	O	-0.303324	-1.134249	0.378171
O10	O	0.196676	-0.634249	0.878171
O11	O	-0.264673	-1.309744	0.426414
O12	O	0.235327	-0.809744	0.926414
O13	O	-0.341987	-1.182431	0.202696
O14	O	0.158013	-0.682431	0.702696
O15	O	-0.162610	-1.086147	0.330008
O16	O	0.337390	-0.586147	0.830008
O17	O	-0.341995	-1.309686	0.329966
O18	O	0.158005	-0.809686	0.829966
O19	O	-0.162615	-1.182566	0.426438
O20	O	0.337385	-0.682566	0.926438
O21	O	-0.264660	-1.086070	0.202715
O22	O	0.235340	-0.586070	0.702715
O23	O	-0.264653	-0.958813	0.329957
O24	O	0.235347	-0.458813	0.829957
O25	O	-0.341982	-1.086009	0.553617
O26	O	0.158018	-0.586009	1.053617
O27	O	-0.341974	-0.958754	0.426348
O28	O	0.158026	-0.458754	0.926348
O29	O	-0.264666	-1.182488	0.553657
O30	O	0.235334	-0.682488	1.053657
O31	O	-0.444038	-1.182353	0.329914
O32	O	0.055962	-0.682353	0.829914
O33	O	-0.444032	-1.085932	0.426324
O34	O	0.055968	-0.585932	0.926324
C35	C	-0.303312	-0.930302	0.378150
C36	C	0.196688	-0.430302	0.878150
C37	C	-0.303323	-0.843052	0.378159
C38	C	0.196677	-0.343052	0.878159
C39	C	-0.466875	-1.134147	0.378128
C40	C	0.033125	-0.634147	0.878128
C41	C	-0.536843	-1.134174	0.378135
C42	C	-0.036843	-0.634174	0.878135
C43	C	-0.303324	-1.134249	0.582915
C44	C	0.196676	-0.634249	1.082915
C45	C	-0.303324	-1.134248	0.670165
C46	C	0.196676	-0.634248	1.170165
C47	C	-0.569692	-1.184425	0.327987
C48	C	-0.069692	-0.684425	0.827987
C49	C	-0.635435	-1.184462	0.328004
C50	C	-0.135435	-0.684462	0.828004
C51	C	-0.668326	-1.134234	0.378162
C52	C	-0.168326	-0.634234	0.878162
C53	C	-0.635469	-1.083980	0.428321
C54	C	-0.135469	-0.583980	0.928321
C55	C	-0.569728	-1.083950	0.428308
C56	C	-0.069728	-0.583950	0.928308
N57	N	-0.771593	-1.065564	0.384139
N58	N	-0.271593	-0.565564	0.884139
N59	N	-0.834045	-1.065594	0.384148
N60	N	-0.334045	-0.565594	0.884148
C61	C	-0.866401	-1.134322	0.378207
C62	C	-0.366401	-0.634322	0.878207
N63	N	-0.833946	-1.203019	0.372243
N64	N	-0.333946	-0.703019	0.872243
N65	N	-0.771489	-1.202988	0.372231
N66	N	-0.271489	-0.702988	0.872231
C67	C	-0.739611	-1.134261	0.378183
C68	C	-0.239611	-0.634261	0.878183
C69	C	-0.970535	-1.184617	0.328075
C70	C	-0.470535	-0.684617	0.828075
C71	C	-1.036279	-1.184655	0.328098
C72	C	-0.536279	-0.684655	0.828098
C73	C	-1.036312	-1.084166	0.428411
C74	C	-0.536312	-0.584166	0.928411
C75	C	-0.970570	-1.084135	0.428392
C76	C	-0.470570	-0.584135	0.928392
C77	C	-0.937685	-1.134359	0.378220
C78	C	-0.437685	-0.634359	0.878220
C79	C	-0.139133	-1.134374	0.378232
C80	C	0.360867	-0.634374	0.878232
C81	C	-0.069165	-1.134427	0.378258
C82	C	0.430835	-0.634427	0.878258
C83	C	-0.303336	-1.338994	0.378193
C84	C	0.196664	-0.838994	0.878193
C85	C	-0.303341	-1.426243	0.378203
C86	C	0.196659	-0.926243	0.878203
C87	C	-0.343645	-0.802051	0.428269
C88	C	0.156355	-0.302051	0.928269
C89	C	-0.343646	-0.720071	0.428282
C90	C	0.156354	-0.220071	0.928282
C91	C	-0.303328	-0.679092	0.378179
C92	C	0.196672	-0.179092	0.878179
C93	C	-0.263001	-0.720099	0.328067
C94	C	0.236999	-0.220099	0.828067
C95	C	-0.262997	-0.802078	0.328059
C96	C	0.237003	-0.302078	0.828059
C97	C	-0.263014	-0.549229	0.328086
C98	C	0.236986	-0.049229	0.828086
C99	C	-0.263019	-0.467244	0.328093
C100	C	0.236981	0.032756	0.828093
C101	C	-0.343663	-0.467222	0.428309
C102	C	0.156337	0.032778	0.928309
C103	C	-0.343659	-0.549201	0.428301
C104	C	0.156341	-0.049201	0.928301
C105	C	-0.303333	-0.590201	0.378187
C106	C	0.196667	-0.090201	0.878187
C107	C	-0.263064	-1.084080	0.711164
C108	C	0.236936	-0.584080	1.211164
C109	C	-0.263069	-1.084077	0.793145
C110	C	0.236931	-0.584077	1.293145
C111	C	-0.303331	-1.134246	0.834125
C112	C	0.196669	-0.634246	1.334125
C113	C	-0.343595	-1.184416	0.793120
C114	C	0.156405	-0.684416	1.293120
C115	C	-0.343593	-1.184415	0.711141
C116	C	0.156407	-0.684415	1.211141
C117	C	-0.343597	-1.184416	0.963990
C118	C	0.156403	-0.684416	1.463990
C119	C	-0.343598	-1.184419	1.045975
C120	C	0.156402	-0.684419	1.545975
C121	C	-0.263073	-1.084078	1.045994
C122	C	0.236927	-0.584078	1.545994
C123	C	-0.263071	-1.084077	0.964015
C124	C	0.236929	-0.584077	1.464015
C125	C	-0.303334	-1.134248	0.923016
C126	C	0.196666	-0.634248	1.423016
C127	C	-0.303338	-1.134246	1.174223
C128	C	0.196662	-0.634246	1.674223
C129	C	-0.303339	-1.134251	1.086974
C130	C	0.196661	-0.634251	1.586974
H131	H	-0.542919	-1.225322	0.287135
H132	H	-0.042919	-0.725322	0.787135
Br133	Br	-0.680025	-1.252664	0.259940
Br134	Br	-0.180025	-0.752664	0.759940
H135	H	-0.230289	-1.043228	1.079379
H136	H	0.269711	-0.543228	1.579379
Br137	Br	-1.080943	-1.016006	0.496493
Br138	Br	-0.580943	-0.516006	0.996493
Br139	Br	-0.398234	-1.252514	1.101590
Br140	Br	0.101766	-0.752514	1.601590
H141	H	-0.376481	-0.686692	0.469086
H142	H	0.123519	-0.186692	0.969086
Br143	Br	-0.398383	-0.411580	0.496331
Br144	Br	0.101617	0.088420	0.996331
H145	H	-0.230171	-0.582609	0.287285
H146	H	0.269829	-0.082609	0.787285
Br147	Br	-0.208277	-0.664486	0.260077
Br148	Br	0.291723	-0.164486	0.760077
H149	H	-0.376493	-0.582563	0.469094
H150	H	0.123507	-0.082563	0.969094
Br151	Br	-0.398244	-1.252502	0.908349
Br152	Br	0.101756	-0.752502	1.408349
H153	H	-1.063023	-1.225580	0.287262
H154	H	-0.563023	-0.725580	0.787262
H155	H	-0.230289	-1.043222	0.826522
H156	H	0.269711	-0.543222	1.326522
H157	H	-0.376381	-1.225261	0.826492
H158	H	0.123619	-0.725261	1.326492
H159	H	-0.230181	-0.433881	0.287304
H160	H	0.269819	0.066119	0.787304
H161	H	-0.376371	-1.225273	0.677761
H162	H	0.123629	-0.725273	1.177761
H163	H	-0.542982	-1.043029	0.469146
H164	H	-0.042982	-0.543029	0.969146
Br165	Br	-0.680106	-1.015819	0.496400
Br166	Br	-0.180106	-0.515819	0.996400
Br167	Br	-0.925902	-1.252774	0.259984
Br168	Br	-0.425902	-0.752774	0.759984
Br169	Br	-0.925986	-1.015932	0.496453
Br170	Br	-0.425986	-0.515932	0.996453
Br171	Br	-0.398370	-0.857657	0.496263
Br172	Br	0.101630	-0.357657	0.996263
H173	H	-0.230275	-1.043231	0.677804
H174	H	0.269725	-0.543231	1.177804
Br175	Br	-0.208269	-0.857722	0.260054
Br176	Br	0.291731	-0.357722	0.760054
Br177	Br	-0.208423	-1.015997	0.908399
Br178	Br	0.291577	-0.515997	1.408399
