data_functionalizedCrystal
_audit_creation_method	'MofGen! by Chris Wilmer'
_symmetry_space_group_name_H-M	'P1'
_symmetry_Int_Tables_number	1
_symmetry_cell_setting	triclinic
loop_
_symmetry_equiv_pos_as_xyz
  x,y,z
_cell_length_a	35.277628
_cell_length_b	35.288095
_cell_length_c	35.277682
_cell_angle_alpha	59.997929
_cell_angle_beta	89.998958
_cell_angle_gamma	60.000166
loop_
_atom_site_label
_atom_site_type_symbol
_atom_site_fract_x
_atom_site_fract_y
_atom_site_fract_z
O1	O	-0.323087	-0.271234	0.011271
O2	O	-0.267964	-0.193634	-0.011228
O3	O	-0.267962	-0.271233	0.066395
O4	O	-0.323089	-0.193635	-0.066351
O5	O	-0.204915	-0.334261	0.066394
O6	O	-0.204918	-0.256661	-0.011228
O7	O	-0.260040	-0.334261	0.011271
Zn8	Zn	-0.222469	-0.305468	0.000022
Zn9	Zn	-0.305535	-0.222427	0.000022
O10	O	-0.260043	-0.256662	-0.066351
C11	C	-0.163481	-0.071298	-0.023519
C12	C	-0.186872	-0.024531	-0.020298
C13	C	-0.117860	-0.093995	-0.023838
C14	C	-0.163483	-0.139918	-0.023524
C15	C	-0.186875	-0.166518	-0.020308
C16	C	-0.117862	-0.162510	-0.023843
C17	C	-0.094838	-0.139921	-0.023519
C18	C	-0.044836	-0.166525	-0.020298
C19	C	-0.186401	-0.093991	-0.023843
C20	C	-0.004439	-0.188019	-0.017694
C21	C	-0.205769	0.013252	-0.017695
C22	C	-0.205774	-0.188010	-0.017709
C23	C	0.046241	-0.214983	-0.014429
C24	C	-0.229477	0.060653	-0.014430
C25	C	-0.229483	-0.214971	-0.014450
C26	C	-0.500364	-0.466062	0.034181
C27	C	-0.477341	-0.511990	0.034503
C28	C	-0.431722	-0.466060	0.034178
C29	C	-0.408804	-0.511988	0.034500
C30	C	-0.431721	-0.534685	0.034181
C31	C	-0.477342	-0.443470	0.034500
C32	C	-0.665895	-0.342485	0.021756
C33	C	-0.712772	-0.317221	0.018243
C34	C	-0.736287	-0.338907	0.016481
C35	C	-0.787116	-0.311512	0.012664
C36	C	-0.712921	-0.385861	0.018236
C37	C	-0.666047	-0.411125	0.021755
C38	C	-0.642533	-0.389434	0.023515
C39	C	-0.389805	-0.687746	0.021758
C40	C	-0.368199	-0.731097	0.018245
C41	C	-0.322995	-0.752841	0.016478
C42	C	-0.299567	-0.799839	0.012662
C43	C	-0.299393	-0.731235	0.018230
C44	C	-0.320995	-0.687892	0.021751
C45	C	-0.366205	-0.666148	0.023512
C46	C	-0.389808	-0.342477	0.021744
C47	C	-0.368205	-0.317208	0.018222
C48	C	-0.322998	-0.338892	0.016457
C49	C	-0.299573	-0.311495	0.012637
C50	C	-0.299398	-0.385842	0.018210
C51	C	-0.321003	-0.411107	0.021730
C52	C	-0.366208	-0.389423	0.023501
C53	C	-0.591706	-0.416830	0.027326
C54	C	-0.551191	-0.438667	0.030366
C55	C	-0.408299	-0.438663	0.030360
C56	C	-0.389629	-0.416824	0.027317
C57	C	-0.408298	-0.581682	0.030365
C58	C	-0.389627	-0.619146	0.027325
C59	C	-0.432024	-0.061845	-0.438511
C60	C	-0.477645	-0.015917	-0.461431
C61	C	-0.432025	-0.061844	-0.369869
C62	C	-0.477645	-0.015916	-0.392892
C63	C	-0.500668	0.006779	-0.438513
C64	C	-0.409106	-0.084435	-0.392891
C65	C	-0.320834	-0.185425	-0.480424
C66	C	-0.299076	-0.210690	-0.502029
C67	C	-0.322531	-0.189005	-0.547237
C68	C	-0.298945	-0.216401	-0.570661
C69	C	-0.367745	-0.142051	-0.570839
C70	C	-0.389497	-0.116787	-0.549237
C71	C	-0.366040	-0.138476	-0.504027
C72	C	-0.666200	0.159838	-0.549704
C73	C	-0.713077	0.203188	-0.571462
C74	C	-0.736595	0.224934	-0.548009
C75	C	-0.787423	0.271931	-0.571594
C76	C	-0.713230	0.203329	-0.502796
C77	C	-0.666353	0.159987	-0.481041
C78	C	-0.642841	0.138241	-0.504500
C79	C	-0.320836	-0.185423	-0.204335
C80	C	-0.299080	-0.210691	-0.157455
C81	C	-0.322536	-0.189006	-0.133940
C82	C	-0.298950	-0.216402	-0.083110
C83	C	-0.367748	-0.142056	-0.157305
C84	C	-0.389502	-0.116792	-0.204182
C85	C	-0.366040	-0.138478	-0.227695
C86	C	-0.389632	-0.111079	-0.480604
C87	C	-0.408436	-0.089241	-0.461934
C88	C	-0.408437	-0.089240	-0.319041
C89	C	-0.389634	-0.111078	-0.278525
C90	C	-0.551496	0.053776	-0.462102
C91	C	-0.592011	0.091239	-0.480906
O92	O	0.196122	-0.334274	0.011291
O93	O	0.063378	-0.256674	-0.011208
O94	O	0.140994	-0.334276	0.066414
O95	O	0.118506	-0.256671	-0.066331
O96	O	0.140996	-0.271251	0.066419
O97	O	0.063380	-0.193649	-0.011203
O98	O	0.196124	-0.271249	0.011296
Zn99	Zn	0.129752	-0.222442	0.000047
Zn100	Zn	0.129750	-0.305480	0.000041
O101	O	0.118508	-0.193647	-0.066327
O102	O	-0.260036	0.184774	0.011294
O103	O	-0.204910	0.074561	-0.011204
O104	O	-0.204913	0.074554	0.066418
O105	O	-0.260033	0.184781	-0.066328
O106	O	-0.267961	0.074557	0.066413
O107	O	-0.267958	0.074564	-0.011209
O108	O	-0.323083	0.184777	0.011289
Zn109	Zn	-0.305531	0.129671	0.000039
Zn110	Zn	-0.222463	0.129667	0.000046
O111	O	-0.323081	0.184784	-0.066333
O112	O	-0.936929	0.397535	-0.602582
O113	O	-0.804185	0.287317	-0.547454
O114	O	-0.881802	0.287315	-0.547452
O115	O	-0.859312	0.397537	-0.602584
O116	O	-0.881801	0.287314	-0.610498
O117	O	-0.804183	0.287316	-0.610500
O118	O	-0.936927	0.397533	-0.665628
Zn119	Zn	-0.870555	0.342425	-0.648073
Zn120	Zn	-0.870557	0.342426	-0.565008
O121	O	-0.859310	0.397536	-0.665629
O122	O	-0.267961	-0.271234	-0.665316
O123	O	-0.323086	-0.193638	-0.610192
O124	O	-0.323085	-0.271236	-0.610189
O125	O	-0.267962	-0.193636	-0.665319
O126	O	-0.260038	-0.334264	-0.547142
O127	O	-0.260039	-0.256666	-0.547145
O128	O	-0.204914	-0.334262	-0.602269
Zn129	Zn	-0.222466	-0.305471	-0.564697
Zn130	Zn	-0.305534	-0.222429	-0.647764
O131	O	-0.204915	-0.256664	-0.602272
C132	C	-0.094840	-0.456607	0.293255
C133	C	-0.044837	-0.503376	0.316647
C134	C	-0.117862	-0.433912	0.316174
C135	C	-0.163483	-0.387984	0.224612
C136	C	-0.186875	-0.361381	0.174609
C137	C	-0.186401	-0.365393	0.247634
C138	C	-0.163483	-0.387984	0.293255
C139	C	-0.186874	-0.361382	0.316646
C140	C	-0.117862	-0.433912	0.247635
C141	C	-0.205772	-0.339889	0.335543
C142	C	-0.004440	-0.541160	0.335545
C143	C	-0.205773	-0.339888	0.134212
C144	C	-0.229480	-0.312925	0.359250
C145	C	0.046239	-0.588562	0.359254
C146	C	-0.229481	-0.312924	0.083532
C147	C	0.153295	-0.388013	0.293279
C148	C	0.150076	-0.361413	0.316673
C149	C	0.153614	-0.433940	0.316196
C150	C	0.153297	-0.388008	0.224634
C151	C	0.150079	-0.361403	0.174632
C152	C	0.153616	-0.433935	0.247655
C153	C	0.153293	-0.456633	0.293275
C154	C	0.150072	-0.503401	0.316665
C155	C	0.153617	-0.365420	0.247659
C156	C	0.147469	-0.541185	0.335561
C157	C	0.147474	-0.339922	0.335572
C158	C	0.147479	-0.339908	0.134234
C159	C	0.144204	-0.588587	0.359267
C160	C	0.144211	-0.312962	0.359282
C161	C	0.144218	-0.312942	0.083555
C162	C	-0.163482	-0.139963	0.293267
C163	C	-0.186875	-0.166567	0.316654
C164	C	-0.117861	-0.162559	0.316187
C165	C	-0.163482	-0.071333	0.224628
C166	C	-0.186873	-0.024557	0.174627
C167	C	-0.117860	-0.094033	0.247653
C168	C	-0.094838	-0.139967	0.293272
C169	C	-0.044835	-0.166574	0.316665
C170	C	-0.186401	-0.094030	0.247648
C171	C	-0.004438	-0.188070	0.335563
C172	C	-0.205773	-0.188061	0.335549
C173	C	-0.205771	0.013233	0.134231
C174	C	0.046242	-0.215038	0.359273
C175	C	-0.229482	-0.215026	0.359253
C176	C	-0.229479	0.060643	0.083553
C177	C	0.095627	0.006487	-0.438489
C178	C	0.095306	-0.016206	-0.461409
C179	C	0.095623	-0.062137	-0.369847
C180	C	0.095303	-0.084726	-0.392871
C181	C	0.095625	-0.062133	-0.438492
C182	C	0.095305	-0.016210	-0.392868
C183	C	0.108059	0.159543	-0.480399
C184	C	0.111575	0.202893	-0.502003
C185	C	0.113340	0.224640	-0.547210
C186	C	0.117161	0.271637	-0.570634
C187	C	0.111587	0.203038	-0.570814
C188	C	0.108065	0.159695	-0.549212
C189	C	0.106302	0.137948	-0.504002
C190	C	0.108054	-0.116452	-0.549685
C191	C	0.111568	-0.141562	-0.571444
C192	C	0.113332	-0.188519	-0.547992
C193	C	0.117148	-0.215753	-0.571578
C194	C	0.111577	-0.210363	-0.502779
C195	C	0.108055	-0.185249	-0.481023
C196	C	0.106297	-0.138292	-0.504481
C197	C	0.108046	-0.116473	-0.204312
C198	C	0.111564	-0.141591	-0.157432
C199	C	0.113326	-0.188548	-0.133918
C200	C	0.117142	-0.215786	-0.083088
C201	C	0.111574	-0.210388	-0.157283
C202	C	0.108058	-0.185270	-0.204161
C203	C	0.106290	-0.138308	-0.227673
C204	C	0.102487	0.090947	-0.480580
C205	C	0.099445	0.053484	-0.461911
C206	C	0.099438	-0.089371	-0.319019
C207	C	0.102477	-0.111078	-0.278503
C208	C	0.099442	-0.089362	-0.462081
C209	C	0.102482	-0.111066	-0.480886
O210	O	0.118477	-0.256700	0.452885
O211	O	0.140984	-0.334299	0.397762
O212	O	0.063360	-0.256699	0.397752
O213	O	0.196101	-0.334300	0.452895
O214	O	0.063367	-0.193672	0.334708
O215	O	0.140992	-0.271271	0.334718
O216	O	0.118484	-0.193673	0.389842
Zn217	Zn	0.129739	-0.222465	0.352270
Zn218	Zn	0.129729	-0.305506	0.435333
O219	O	0.196108	-0.271272	0.389852
C220	C	-0.500364	0.533998	-0.438484
C221	C	-0.477341	0.556591	-0.461399
C222	C	-0.431721	0.465364	-0.369840
C223	C	-0.408802	0.488061	-0.392859
C224	C	-0.431720	0.533995	-0.438478
C225	C	-0.477342	0.488064	-0.392865
C226	C	-0.665898	0.588334	-0.480407
C227	C	-0.712776	0.613450	-0.502014
C228	C	-0.736291	0.660414	-0.547220
C229	C	-0.787122	0.687654	-0.570647
C230	C	-0.712926	0.682257	-0.570819
C231	C	-0.666050	0.657138	-0.549214
C232	C	-0.642536	0.610174	-0.504006
C233	C	-0.389802	0.657585	-0.549654
C234	C	-0.368196	0.682850	-0.571408
C235	C	-0.322990	0.661164	-0.547952
C236	C	-0.299561	0.688558	-0.571532
C237	C	-0.299388	0.614205	-0.502740
C238	C	-0.320990	0.588935	-0.480990
C239	C	-0.366202	0.610633	-0.504452
C240	C	-0.389804	0.312282	-0.204314
C241	C	-0.368201	0.268929	-0.157436
C242	C	-0.322993	0.247179	-0.133918
C243	C	-0.299567	0.200174	-0.083089
C244	C	-0.299392	0.268786	-0.157278
C245	C	-0.320998	0.312139	-0.204154
C246	C	-0.366204	0.333881	-0.227670
C247	C	-0.591708	0.582942	-0.480581
C248	C	-0.551193	0.561234	-0.461909
C249	C	-0.408297	0.418359	-0.319013
C250	C	-0.389626	0.380890	-0.278499
C251	C	-0.408296	0.561393	-0.462062
C252	C	-0.389624	0.583232	-0.480862
H253	H	-0.371321	-0.530978	0.035012
O254	O	-0.095883	-0.071290	0.225548
C255	C	-0.101009	-0.000123	0.155257
C256	C	-0.125955	-0.025817	0.180236
H257	H	-0.125308	0.036639	0.118615
H258	H	-0.090602	0.012355	0.175270
H259	H	-0.068631	-0.030371	0.153385
H260	H	-0.158349	0.004403	0.182114
H261	H	-0.136327	-0.038307	0.160214
O262	O	-0.643689	0.139093	-0.437148
C263	C	-0.618875	0.155259	-0.386476
C264	C	-0.644564	0.178994	-0.436204
H265	H	-0.619565	0.187505	-0.385698
H266	H	-0.636667	0.140154	-0.361959
H267	H	-0.581340	0.120530	-0.374961
H268	H	-0.682099	0.213741	-0.447761
H269	H	-0.626735	0.194063	-0.460691
O270	O	-0.231126	-0.071248	-0.024486
C271	C	-0.297180	-0.000088	-0.025374
C272	C	-0.246534	-0.025783	-0.024653
H273	H	-0.309650	0.036669	-0.025499
H274	H	-0.320072	0.012400	-0.057873
H275	H	-0.299303	-0.030339	0.006753
H276	H	-0.244367	0.004440	-0.056757
H277	H	-0.223666	-0.038282	0.007867
H278	H	0.106630	-0.203055	-0.223182
H279	H	-0.099372	-0.452898	0.229148
O280	O	-0.095747	-0.206641	0.360909
C281	C	-0.025445	-0.271795	0.426955
C282	C	-0.050438	-0.221868	0.376315
H283	H	0.011195	-0.284128	0.439423
H284	H	-0.045450	-0.262213	0.449858
H285	H	-0.023570	-0.306031	0.429064
H286	H	-0.052320	-0.187610	0.374161
H287	H	-0.030424	-0.231494	0.353435
O288	O	-0.095785	-0.206554	-0.024523
C289	C	-0.057963	-0.244514	-0.065453
C290	C	-0.082946	-0.194602	-0.064735
H291	H	-0.047584	-0.234865	-0.097967
H292	H	-0.025573	-0.278778	-0.033337
H293	H	-0.082267	-0.256842	-0.065601
H294	H	-0.058679	-0.182226	-0.064603
H295	H	-0.115342	-0.160369	-0.096849
H296	H	-0.732378	0.221040	-0.483702
O297	O	0.154252	-0.456541	0.225544
C298	C	0.155131	-0.452290	0.155244
C299	C	0.154420	-0.426642	0.180231
H300	H	0.155257	-0.428122	0.118601
H301	H	0.187625	-0.495180	0.175250
H302	H	0.123000	-0.452537	0.153375
H303	H	0.186528	-0.426357	0.182107
H304	H	0.121905	-0.383766	0.160216
H305	H	-0.426617	-0.324814	0.023182
H306	H	0.154122	-0.452930	0.353678
H307	H	-0.646757	0.550094	-0.443598
O308	O	0.154153	-0.321276	0.225559
C309	C	0.115085	-0.229010	0.160522
C310	C	0.114414	-0.278956	0.185510
H311	H	0.082965	-0.194785	0.128133
H312	H	0.115223	-0.216638	0.184793
H313	H	0.147587	-0.238647	0.150126
H314	H	0.081917	-0.269360	0.195909
H315	H	0.114301	-0.291315	0.161224
H316	H	-0.495827	-0.530983	0.035020
H317	H	-0.099377	-0.452909	0.353658
H318	H	-0.223884	-0.075035	0.229163
H319	H	0.094785	-0.121682	-0.374387
H320	H	0.113009	-0.248624	-0.138135
H321	H	-0.099379	-0.074998	-0.024355
H322	H	-0.301784	-0.449335	0.023157
H323	H	0.094791	0.002793	-0.498893
O324	O	-0.433387	-0.071133	-0.226878
C325	C	-0.484066	0.020477	-0.251637
C326	C	-0.434344	-0.031194	-0.225932
H327	H	-0.484858	0.052777	-0.250871
H328	H	-0.495601	0.034856	-0.289193
H329	H	-0.508558	0.012034	-0.233845
H330	H	-0.409817	-0.022794	-0.243684
H331	H	-0.422847	-0.045558	-0.188375
O332	O	0.094664	0.006530	-0.370890
C333	C	0.093780	0.077687	-0.376014
C334	C	0.094498	0.051997	-0.400961
H335	H	0.093655	0.114445	-0.400312
H336	H	0.061283	0.090172	-0.365611
H337	H	0.125907	0.047434	-0.343633
H338	H	0.062393	0.082221	-0.433358
H339	H	0.127016	0.039500	-0.411329
H340	H	-0.426615	-0.670047	0.023195
O341	O	0.113238	-0.120292	-0.134812
C342	C	0.112874	-0.049416	-0.139902
C343	C	0.110967	-0.073477	-0.165576
H344	H	0.111049	-0.011569	-0.164761
H345	H	0.082281	-0.039042	-0.126514
H346	H	0.146743	-0.079855	-0.109408
H347	H	0.077118	-0.043065	-0.196088
H348	H	0.141584	-0.083864	-0.178930
H349	H	0.106608	-0.078237	-0.223453
H350	H	0.106623	0.141841	-0.443588
H351	H	-0.387422	0.251343	-0.138417
H352	H	0.113004	0.220477	-0.482781
O353	O	-0.499453	-0.399391	0.035130
C354	C	-0.569756	-0.334227	0.035991
C355	C	-0.544767	-0.384153	0.035293
H356	H	-0.606399	-0.321885	0.036114
H357	H	-0.549754	-0.343814	0.068483
H358	H	-0.571622	-0.299995	0.003857
H359	H	-0.542895	-0.418407	0.067405
H360	H	-0.564778	-0.374521	0.002780
H361	H	-0.371318	0.469063	-0.374372
O362	O	0.113330	0.224209	-0.614715
C363	C	0.118737	0.291064	-0.678499
C364	C	0.116775	0.267135	-0.628775
H365	H	0.121513	0.325781	-0.689886
H366	H	0.150289	0.258914	-0.679385
H367	H	0.085825	0.306234	-0.703051
H368	H	0.149665	0.251967	-0.604194
H369	H	0.085202	0.299302	-0.627927
H370	H	-0.387425	-0.278978	0.016792
H371	H	0.106637	0.142110	-0.568432
O372	O	-0.643115	-0.321368	0.023501
C373	C	-0.647909	-0.250631	0.023149
C374	C	-0.673764	-0.274486	0.021171
H375	H	-0.672680	-0.212717	0.021257
H376	H	-0.617436	-0.281107	0.057039
H377	H	-0.634475	-0.240392	-0.007419
H378	H	-0.687228	-0.284724	0.051716
H379	H	-0.704214	-0.243996	-0.012738
H380	H	-0.732075	0.720493	-0.607626
H381	H	-0.386847	-0.124399	-0.138156
O382	O	-0.735408	0.592178	-0.479017
C383	C	-0.730307	0.521271	-0.408500
C384	C	-0.704624	0.545311	-0.434489
H385	H	-0.705427	0.483369	-0.372498
H386	H	-0.760775	0.551661	-0.405014
H387	H	-0.743730	0.510969	-0.428767
H388	H	-0.691171	0.555612	-0.414245
H389	H	-0.674178	0.514907	-0.437980
O390	O	-0.390469	-0.121073	-0.614741
C391	C	-0.387379	-0.129561	-0.678527
C392	C	-0.361591	-0.153384	-0.628803
H393	H	-0.364039	-0.155667	-0.689915
H394	H	-0.420425	-0.128067	-0.679415
H395	H	-0.396757	-0.087282	-0.703078
H396	H	-0.352182	-0.195672	-0.604223
H397	H	-0.328566	-0.154837	-0.627953
H398	H	-0.731792	-0.278991	0.016812
H399	H	-0.647028	0.674924	-0.568431
H400	H	0.106619	-0.078217	-0.568789
O401	O	0.113299	-0.120293	-0.615351
C402	C	0.112916	-0.049401	-0.681164
C403	C	0.110957	-0.073434	-0.631439
H404	H	0.111013	-0.011505	-0.694190
H405	H	0.146802	-0.079798	-0.681224
H406	H	0.082345	-0.039088	-0.704903
H407	H	0.141504	-0.083745	-0.607671
H408	H	0.077051	-0.043023	-0.631415
H409	H	-0.262268	-0.248920	-0.138435
H410	H	0.113006	-0.248593	-0.483685
H411	H	-0.387416	0.721084	-0.608218
O412	O	-0.255483	0.593217	-0.480012
C413	C	-0.191694	0.601700	-0.483097
C414	C	-0.241420	0.625530	-0.508886
H415	H	-0.180304	0.627808	-0.506434
H416	H	-0.190802	0.600197	-0.450046
H417	H	-0.167147	0.559424	-0.473726
H418	H	-0.265995	0.667815	-0.518289
H419	H	-0.242273	0.626992	-0.541917
H420	H	0.106623	-0.203035	-0.444212
O421	O	-0.231137	-0.321343	0.225645
C422	C	-0.310049	-0.283359	0.225467
C423	C	-0.259407	-0.333280	0.250426
H424	H	-0.332921	-0.292995	0.245487
H425	H	-0.312204	-0.249096	0.223581
H426	H	-0.322517	-0.271036	0.188831
H427	H	-0.246906	-0.345651	0.287073
H428	H	-0.257281	-0.367511	0.252274
H429	H	-0.495826	0.593550	-0.498882
O430	O	-0.499453	0.465458	-0.370889
C431	C	-0.569756	0.469715	-0.376013
C432	C	-0.544768	0.495361	-0.400960
H433	H	-0.606401	0.493888	-0.400312
H434	H	-0.549756	0.426827	-0.365608
H435	H	-0.571620	0.469464	-0.343633
H436	H	-0.542898	0.495651	-0.433356
H437	H	-0.564778	0.538236	-0.411331
H438	H	-0.301770	0.550701	-0.444180
O439	O	-0.255134	-0.256252	-0.479085
C440	C	-0.175119	-0.297401	-0.441591
C441	C	-0.224864	-0.245769	-0.467557
H442	H	-0.150630	-0.288941	-0.432271
H443	H	-0.174272	-0.329750	-0.408507
H444	H	-0.163624	-0.311728	-0.464803
H445	H	-0.236391	-0.231394	-0.444382
H446	H	-0.225683	-0.213453	-0.500645
O447	O	-0.499699	0.006838	-0.506177
C448	C	-0.537589	0.085623	-0.585057
C449	C	-0.512604	0.059903	-0.534403
H450	H	-0.548038	0.128533	-0.607890
H451	H	-0.513310	0.061554	-0.597609
H452	H	-0.569945	0.085830	-0.587164
H453	H	-0.480249	0.059691	-0.532256
H454	H	-0.536914	0.083979	-0.521872
O455	O	-0.735710	0.224088	-0.615370
C456	C	-0.730610	0.219381	-0.681185
C457	C	-0.704925	0.195656	-0.631459
H458	H	-0.705729	0.196412	-0.694212
H459	H	-0.761077	0.215963	-0.681248
H460	H	-0.744033	0.263364	-0.704922
H461	H	-0.691472	0.151667	-0.607694
H462	H	-0.674481	0.199116	-0.631433
H463	H	-0.426614	0.329984	-0.223458
O464	O	-0.433710	0.678713	-0.572519
C465	C	-0.499685	0.749480	-0.642915
C466	C	-0.449959	0.725606	-0.617080
H467	H	-0.512842	0.787402	-0.678944
H468	H	-0.499692	0.719020	-0.646331
H469	H	-0.523349	0.759711	-0.622576
H470	H	-0.426267	0.715377	-0.637396
H471	H	-0.449990	0.756080	-0.613659
H472	H	-0.262581	0.251075	-0.138127
O473	O	-0.735837	-0.406842	0.016500
C474	C	-0.808111	-0.398361	0.011109
C475	C	-0.782219	-0.374533	0.013060
H476	H	-0.845613	-0.372256	0.008337
H477	H	-0.807506	-0.399857	-0.020441
H478	H	-0.790368	-0.440639	0.044025
H479	H	-0.799943	-0.332245	-0.019833
H480	H	-0.782821	-0.373078	0.044631
O481	O	-0.643426	-0.456715	0.023434
C482	C	-0.648513	-0.522146	0.023082
C483	C	-0.674188	-0.470507	0.021168
H484	H	-0.673370	-0.533319	0.021261
H485	H	-0.635125	-0.515323	-0.007512
H486	H	-0.618020	-0.556049	0.056952
H487	H	-0.704700	-0.436579	-0.012682
H488	H	-0.687542	-0.477374	0.051785
H489	H	-0.301778	0.329728	-0.223172
H490	H	-0.387419	-0.748683	0.016816
H491	H	-0.262584	-0.748943	0.016794
H492	H	-0.301775	-0.670305	0.023178
O493	O	-0.255475	-0.406855	0.016517
C494	C	-0.191701	-0.398346	0.011076
C495	C	-0.241439	-0.374497	0.012997
H496	H	-0.180341	-0.372190	0.008220
H497	H	-0.167120	-0.440606	0.044004
H498	H	-0.190834	-0.399881	-0.020453
H499	H	-0.242351	-0.372926	0.044506
H500	H	-0.265998	-0.332251	-0.019952
H501	H	-0.496128	0.003076	-0.374407
H502	H	-0.301727	-0.203079	-0.223479
O503	O	-0.364382	-0.128510	-0.370912
C504	C	-0.298331	-0.193665	-0.376034
C505	C	-0.348974	-0.143747	-0.400983
H506	H	-0.285862	-0.206007	-0.400332
H507	H	-0.275435	-0.184068	-0.365628
H508	H	-0.296215	-0.227901	-0.343655
H509	H	-0.351134	-0.109489	-0.433378
H510	H	-0.371847	-0.153388	-0.411354
H511	H	-0.301729	-0.203089	-0.443614
O512	O	-0.433391	-0.071142	-0.572231
C513	C	-0.484065	0.020491	-0.639077
C514	C	-0.434337	-0.031170	-0.613090
H515	H	-0.484844	0.052826	-0.672111
H516	H	-0.508581	0.012108	-0.648484
H517	H	-0.495579	0.034796	-0.615852
H518	H	-0.422780	-0.045501	-0.636290
H519	H	-0.409851	-0.022756	-0.603677
H520	H	-0.647059	0.142138	-0.568809
