data_functionalizedCrystal
_audit_creation_method	'MofGen! by Chris Wilmer'
_symmetry_space_group_name_H-M	'P1'
_symmetry_Int_Tables_number	1
_symmetry_cell_setting	triclinic
loop_
_symmetry_equiv_pos_as_xyz
  x,y,z
_cell_length_a	18.050589
_cell_length_b	14.908783
_cell_length_c	14.908308
_cell_angle_alpha	90.211273
_cell_angle_beta	86.730698
_cell_angle_gamma	93.319292
loop_
_atom_site_label
_atom_site_type_symbol
_atom_site_fract_x
_atom_site_fract_y
_atom_site_fract_z
Zn1	Zn	-0.259754	1.345271	0.587846
Zn2	Zn	0.240246	1.845271	1.087846
Zn3	Zn	-0.376406	1.353832	0.437493
Zn4	Zn	0.123594	1.853832	0.937493
Zn5	Zn	-0.258950	1.203584	0.428817
Zn6	Zn	0.241050	1.703584	0.928817
Zn7	Zn	-0.390627	1.194855	0.579115
Zn8	Zn	0.109373	1.694855	1.079115
O9	O	-0.321434	1.274385	0.508318
O10	O	0.178566	1.774385	1.008318
O11	O	-0.269613	1.472235	0.575185
O12	O	0.230387	1.972235	1.075185
O13	O	-0.354538	1.341137	0.310518
O14	O	0.145462	1.841137	0.810518
O15	O	-0.155130	1.222450	0.449935
O16	O	0.344870	1.722450	0.949935
O17	O	-0.355317	1.478525	0.464722
O18	O	0.144683	1.978525	0.964722
O19	O	-0.155720	1.326546	0.566773
O20	O	0.344280	1.826546	1.066773
O21	O	-0.268243	1.230751	0.304144
O22	O	0.231757	1.730751	0.804144
O23	O	-0.282032	1.076597	0.441470
O24	O	0.217968	1.576597	0.941470
O25	O	-0.379554	1.207572	0.706097
O26	O	0.120446	1.707572	1.206097
O27	O	-0.378775	1.070184	0.551893
O28	O	0.121225	1.570184	1.051893
O29	O	-0.283402	1.318082	0.712511
O30	O	0.216598	1.818082	1.212511
O31	O	-0.482220	1.332672	0.456257
O32	O	0.017780	1.832672	0.956257
O33	O	-0.492668	1.215873	0.560306
O34	O	0.007332	1.715873	1.060306
C35	C	-0.331860	1.040765	0.494793
C36	C	0.168140	1.540765	0.994793
C37	C	-0.336339	0.940820	0.489029
C38	C	0.163661	1.440820	0.989029
C39	C	-0.255652	0.746451	0.593398
C40	C	0.244348	1.246451	1.093398
C41	C	-0.259858	0.652543	0.587985
C42	C	0.240142	1.152543	1.087985
C43	C	-0.348954	0.659095	0.472785
C44	C	0.151046	1.159095	0.972785
C45	C	-0.344747	0.753003	0.478198
C46	C	0.155253	1.253003	0.978198
C47	C	-0.298096	0.796677	0.538508
C48	C	0.201904	1.296677	1.038508
C49	C	-0.293894	0.890586	0.543925
C50	C	0.206106	1.390586	1.043925
C51	C	-0.382985	0.897137	0.428721
C52	C	0.117015	1.397137	0.928721
C53	C	-0.387192	0.803230	0.423308
C54	C	0.112808	1.303230	0.923308
C55	C	-0.514391	1.274278	0.508296
C56	C	-0.014391	1.774278	1.008296
C57	C	-0.596936	1.274312	0.508322
C58	C	-0.096936	1.774312	1.008322
C59	C	-0.802091	1.210857	0.564887
C60	C	-0.302091	1.710857	1.064887
C61	C	-0.848392	1.193675	0.481574
C62	C	-0.348392	1.693675	0.981574
C63	C	-0.748063	1.274400	0.508339
C64	C	-0.248063	1.774400	1.008339
C65	C	-0.848842	1.291625	0.591664
C66	C	-0.348842	1.791625	1.091664
C67	C	-0.894045	1.274482	0.508362
C68	C	-0.394045	1.774482	1.008362
C69	C	-0.793276	1.257177	0.424980
C70	C	-0.293276	1.757177	0.924980
C71	C	-0.793723	1.355162	0.535128
C72	C	-0.293723	1.855162	1.035128
C73	C	-0.839997	1.338015	0.451760
C74	C	-0.339997	1.838015	0.951760
C75	C	-0.663966	1.274350	0.508327
C76	C	-0.163966	1.774350	1.008327
C77	C	-0.978139	1.274533	0.508366
C78	C	-0.478139	1.774533	1.008366
C79	C	-0.127724	1.274517	0.508360
C80	C	0.372276	1.774517	1.008360
C81	C	-0.045177	1.274573	0.508378
C82	C	0.454823	1.774573	1.008378
C83	C	-0.333154	1.260898	0.742841
C84	C	0.166846	1.760898	1.242841
C85	C	-0.338149	1.255151	0.842781
C86	C	0.161851	1.755151	1.342781
C87	C	-0.310968	1.508918	0.521895
C88	C	0.189032	2.008918	1.021895
C89	C	-0.306508	1.608862	0.527681
C90	C	0.193492	2.108862	1.027681
C91	C	-0.309704	1.287872	0.274710
C92	C	0.190296	1.787872	0.774710
C93	C	-0.304493	1.293794	0.174780
C94	C	0.195507	1.793794	0.674780
C95	C	-0.247393	1.359422	1.037259
C96	C	0.252607	1.859422	1.537259
C97	C	-0.252083	1.354024	1.131161
C98	C	0.247917	1.854024	1.631161
C99	C	-0.352214	1.238954	1.124490
C100	C	0.147786	1.738954	1.624490
C101	C	-0.347524	1.244352	1.030587
C102	C	0.152476	1.744352	1.530587
C103	C	-0.295113	1.304588	0.986975
C104	C	0.204887	1.804588	1.486975
C105	C	-0.290427	1.309990	0.893071
C106	C	0.209573	1.809990	1.393071
C107	C	-0.390554	1.194916	0.886401
C108	C	0.109446	1.694916	1.386401
C109	C	-0.395244	1.189518	0.980304
C110	C	0.104756	1.689518	1.480304
H111	H	-0.425172	0.767657	0.374203
H112	H	0.074828	1.267657	0.874203
H113	H	-0.394885	1.189912	1.160015
H114	H	0.105115	1.689912	1.660015
H115	H	-0.417553	0.938041	0.384032
H116	H	0.082447	1.438041	0.884032
H117	H	-0.429413	1.150269	0.845450
H118	H	0.070587	1.650269	1.345450
H119	H	-0.785259	1.157050	0.612631
H120	H	-0.285259	1.657050	1.112631
H121	H	-0.873147	1.306162	0.662121
H122	H	-0.373147	1.806162	1.162121
H123	H	-0.872338	1.125415	0.458936
H124	H	-0.372338	1.625415	0.958936
H125	H	-0.386926	0.623520	0.423674
H126	H	0.113074	1.123520	0.923674
H127	H	-0.769063	1.242562	0.354499
H128	H	-0.269063	1.742562	0.854499
H129	H	-0.856688	1.391790	0.403891
H130	H	-0.356688	1.891790	0.903891
H131	H	-0.213223	1.398673	1.172099
H132	H	0.286777	1.898673	1.672099
H133	H	-0.225293	0.611652	0.632680
H134	H	0.274707	1.111652	1.132680
H135	H	-0.255908	0.926144	0.593033
H136	H	0.244092	1.426144	1.093033
H137	H	-0.204721	1.408473	1.001750
H138	H	0.295279	1.908473	1.501750
H139	H	-0.769782	1.423404	0.557804
H140	H	-0.269782	1.923404	1.057804
H141	H	-0.437915	1.140474	1.015826
H142	H	0.062085	1.640474	1.515826
H143	H	-0.247751	1.359039	0.857564
H144	H	0.252249	1.859039	1.357564
H145	H	-0.217669	0.782010	0.642508
H146	H	0.282331	1.282010	1.142508
