data_functionalizedCrystal
_audit_creation_method	'MofGen! by Chris Wilmer'
_symmetry_space_group_name_H-M	'P1'
_symmetry_Int_Tables_number	1
_symmetry_cell_setting	triclinic
loop_
_symmetry_equiv_pos_as_xyz
  x,y,z
_cell_length_a	10.654546
_cell_length_b	11.295483
_cell_length_c	10.654551
_cell_angle_alpha	85.862321
_cell_angle_beta	95.515557
_cell_angle_gamma	85.847400
loop_
_atom_site_label
_atom_site_type_symbol
_atom_site_fract_x
_atom_site_fract_y
_atom_site_fract_z
O1	O	-1.676248	0.099229	0.167977
O2	O	-1.310765	0.099184	0.184791
O3	O	-1.501909	0.099208	-0.006355
O4	O	-1.485104	0.099205	0.359123
O5	O	-1.485120	-0.098845	0.010407
O6	O	-1.293976	-0.098869	0.201554
O7	O	-1.659459	-0.098824	0.184740
Cu8	Cu	-1.475184	-0.116930	0.194677
Cu9	Cu	-1.495039	0.117290	0.174853
O10	O	-1.468315	-0.098848	0.375886
C11	C	-1.255572	0.000152	0.191940
C12	C	-1.116127	0.000135	0.188251
C13	C	-1.036643	0.000147	0.300792
C14	C	-0.905623	0.000159	0.297316
C15	C	-0.933585	0.000153	0.068747
C16	C	-1.064601	0.000132	0.072225
C17	C	-1.020498	0.000155	0.432755
C18	C	-0.889478	0.000167	0.429279
N19	N	-1.461229	-0.281668	0.208620
C20	C	-1.609464	-0.530939	0.060466
C21	C	-1.598927	-0.655604	0.071012
C22	C	-1.429612	-0.655666	0.240249
C23	C	-1.440149	-0.531001	0.229703
C24	C	-1.530079	-0.468642	0.139811
C25	C	-1.540622	-0.343975	0.129272
C26	C	-1.371302	-0.344038	0.298502
C27	C	-1.360764	-0.468703	0.309048
C28	C	-0.714650	0.000194	0.177595
C29	C	-0.854090	0.000168	0.181297
C30	C	-1.492280	0.000184	-0.044772
C31	C	-1.488589	0.000192	-0.184216
N32	N	-1.509005	0.282028	0.160901
C33	C	-1.496008	0.108148	-0.258865
C34	C	-1.492527	0.108142	-0.389885
C35	C	-1.474213	-0.107786	-0.371595
C36	C	-1.477684	-0.107779	-0.240576
C37	C	-1.506587	0.232813	-0.269426
C38	C	-1.503106	0.232807	-0.400446
C39	C	-1.477943	0.000178	0.414303
C40	C	-1.481636	0.000179	0.553746
H41	H	-0.836559	-0.085341	0.476397
Br42	Br	-1.172469	0.000083	-0.080513
Br43	Br	-0.863648	0.000144	-0.088709
H44	H	-1.593956	0.280683	-0.450791
H45	H	-1.063403	0.085665	0.467536
Br46	Br	-1.368702	0.312583	-0.199027
Br47	Br	-0.831620	0.138312	0.500457
H48	H	-1.287541	-0.519490	0.382234
Br49	Br	-1.057688	-0.137985	0.530474
Br50	Br	-1.263572	-0.259481	0.406200
H51	H	-1.663568	-0.706323	0.006400
H52	H	-1.601466	0.271503	-0.243136
H53	H	-1.471636	-0.195687	-0.179800
Br54	Br	-1.459407	-0.254310	-0.448091
H55	H	-1.682697	-0.480166	-0.012720
Br56	Br	-1.662674	-0.259346	0.007282
H57	H	-1.414789	0.271489	-0.433287
H58	H	-1.356384	-0.706454	0.313429
