data_functionalizedCrystal
_audit_creation_method	'MofGen! by Chris Wilmer'
_symmetry_space_group_name_H-M	'P1'
_symmetry_Int_Tables_number	1
_symmetry_cell_setting	triclinic
loop_
_symmetry_equiv_pos_as_xyz
  x,y,z
_cell_length_a	25.639243
_cell_length_b	25.639240
_cell_length_c	25.639233
_cell_angle_alpha	90.025929
_cell_angle_beta	90.015962
_cell_angle_gamma	90.035481
loop_
_atom_site_label
_atom_site_type_symbol
_atom_site_fract_x
_atom_site_fract_y
_atom_site_fract_z
Zn1	Zn	0.799247	-0.208176	0.295630
Zn2	Zn	0.799179	-0.295595	0.208183
Zn3	Zn	0.711823	-0.208180	0.208203
Zn4	Zn	0.711777	-0.295587	0.295582
O5	O	0.755506	-0.251885	0.251900
O6	O	0.872403	-0.219775	0.284041
O7	O	0.787582	-0.284004	0.135020
O8	O	0.723467	-0.135014	0.219829
O9	O	0.872353	-0.284001	0.219794
O10	O	0.787697	-0.135012	0.284061
O11	O	0.723402	-0.219781	0.135035
O12	O	0.638652	-0.219772	0.219783
O13	O	0.723389	-0.283987	0.368754
O14	O	0.638618	-0.283990	0.283980
O15	O	0.787653	-0.219767	0.368789
O16	O	0.787538	-0.368759	0.219749
O17	O	0.723324	-0.368753	0.283960
C18	C	0.755433	-0.387727	0.251859
C19	C	0.755449	-0.445841	0.251859
C20	C	0.619664	-0.251881	0.251879
C21	C	0.561550	-0.251892	0.251882
C22	C	0.788967	-0.806164	0.285405
C23	C	0.788983	-0.860769	0.285416
O24	O	0.817394	-0.888972	0.313897
N25	N	0.755579	-0.888124	0.251950
C26	C	0.722154	-0.860871	0.218475
O27	O	0.693742	-0.889153	0.190011
C28	C	0.722136	-0.806268	0.218467
C29	C	0.755546	-0.778916	0.251932
C30	C	0.822374	-0.778812	0.318867
C31	C	0.822359	-0.724212	0.318856
C32	C	0.788938	-0.696963	0.285383
C33	C	0.755531	-0.724315	0.251920
C34	C	0.688708	-0.779017	0.184996
C35	C	0.688693	-0.724410	0.184991
C36	C	0.722103	-0.697058	0.218455
C37	C	0.722095	-0.642466	0.218435
N38	N	0.755499	-0.615112	0.251901
C39	C	0.788920	-0.642360	0.285375
C40	C	0.722193	-0.975542	0.218494
C41	C	0.722213	-1.030144	0.218499
C42	C	0.789041	-1.030038	0.285441
C43	C	0.789024	-0.975435	0.285433
C44	C	0.755597	-0.948187	0.251960
C45	C	0.788887	-0.527695	0.285348
C46	C	0.788870	-0.473090	0.285332
C47	C	0.722040	-0.473201	0.218392
C48	C	0.722058	-0.527801	0.218406
C49	C	0.755483	-0.555047	0.251888
O50	O	0.693697	-0.614229	0.189971
O51	O	0.817322	-0.614072	0.313839
C52	C	0.201207	-0.218495	0.285409
C53	C	0.146603	-0.218494	0.285412
O54	O	0.118383	-0.190088	0.313891
N55	N	0.119267	-0.251883	0.251914
C56	C	0.146539	-0.285271	0.218407
O57	O	0.118274	-0.313670	0.189914
C58	C	0.201142	-0.285268	0.218401
C59	C	0.228475	-0.251881	0.251905
C60	C	0.228540	-0.185109	0.318909
C61	C	0.283140	-0.185111	0.318907
C62	C	0.310408	-0.218497	0.285403
C63	C	0.283076	-0.251882	0.251903
C64	C	0.228413	-0.318653	0.184892
C65	C	0.283020	-0.318647	0.184889
C66	C	0.310353	-0.285260	0.218393
C67	C	0.364944	-0.285270	0.218396
N68	N	0.392279	-0.251881	0.251894
C69	C	0.365011	-0.218494	0.285398
C70	C	0.031869	-0.285273	0.218420
C71	C	-0.022734	-0.285279	0.218428
C72	C	-0.022667	-0.218501	0.285432
C73	C	0.031937	-0.218498	0.285427
C74	C	0.059204	-0.251884	0.251918
C75	C	0.479676	-0.218500	0.285390
C76	C	0.534282	-0.218506	0.285386
C77	C	0.534210	-0.285281	0.218380
C78	C	0.479609	-0.285278	0.218385
C79	C	0.452344	-0.251883	0.251892
O80	O	0.393198	-0.313659	0.189930
O81	O	0.393283	-0.190095	0.313881
C82	C	0.891879	-0.251888	0.251921
C83	C	0.949993	-0.251890	0.251930
C84	C	0.755523	-0.251875	0.388273
C85	C	0.755530	-0.251871	0.446387
C86	C	0.755595	-0.115511	0.251952
C87	C	0.755633	-0.057397	0.251975
C88	C	0.755520	-0.251856	0.116057
C89	C	0.755614	-0.251713	0.057943
C90	C	0.789035	-0.218333	0.806774
C91	C	0.789041	-0.218318	0.861378
O92	O	0.817486	-0.189864	0.889635
N93	N	0.755588	-0.251749	0.888669
C94	C	0.722122	-0.285192	0.861354
O95	O	0.693668	-0.313626	0.889581
C96	C	0.722114	-0.285204	0.806750
C97	C	0.755573	-0.251775	0.779462
C98	C	0.822491	-0.184906	0.779485
C99	C	0.822485	-0.184921	0.724884
C100	C	0.789023	-0.218363	0.697572
C101	C	0.755567	-0.251790	0.724861
C102	C	0.688646	-0.318644	0.779436
C103	C	0.688640	-0.318653	0.724828
C104	C	0.722099	-0.285223	0.697540
C105	C	0.722099	-0.285247	0.642949
N106	N	0.755552	-0.251817	0.615657
C107	C	0.789014	-0.218375	0.642969
C108	C	0.722143	-0.285165	0.976024
C109	C	0.722154	-0.285157	1.030627
C110	C	0.789072	-0.218282	1.030647
C111	C	0.789063	-0.218293	0.976044
C112	C	0.755596	-0.251735	0.948733
C113	C	0.789000	-0.218410	0.528304
C114	C	0.788992	-0.218429	0.473699
C115	C	0.722072	-0.285302	0.473683
C116	C	0.722081	-0.285285	0.528283
C117	C	0.755547	-0.251834	0.555593
O118	O	0.693668	-0.313686	0.614657
O119	O	0.817459	-0.189941	0.614735
H120	H	0.816079	-0.450821	0.312583
N121	N	0.823177	-0.184236	0.556195
N122	N	0.819739	-0.135993	0.550101
H123	H	0.843878	-0.111858	0.569800
N124	N	0.856657	-0.150776	0.697004
N125	N	0.889961	-0.169172	0.666534
H126	H	0.914094	-0.145055	0.646845
N127	N	0.059719	-0.319392	0.184203
N128	N	0.090171	-0.352738	0.202531
H129	H	0.109838	-0.376835	0.178365
H130	H	0.816308	-0.191071	0.953829
N131	N	0.856499	-0.696269	0.353021
N132	N	0.856500	-0.647516	0.353001
H133	H	0.880620	-0.627783	0.377124
N134	N	0.856676	-0.150737	0.807370
N135	N	0.886540	-0.120896	0.782988
H136	H	0.910688	-0.096764	0.802678
N137	N	0.688047	-0.947705	0.184303
N138	N	0.654704	-0.917259	0.202661
H139	H	0.630587	-0.897602	0.178515
N140	N	0.823257	-0.184117	1.058544
N141	N	0.871500	-0.187584	1.052455
H142	H	0.895643	-0.163457	1.072158
H143	H	0.694830	-0.451006	0.191137
H144	H	0.694913	-0.312384	1.052840
N145	N	0.687952	-0.319325	0.948130
N146	N	0.639710	-0.315854	0.954227
H147	H	0.615561	-0.339978	0.934529
H148	H	0.457354	-0.312470	0.191110
N149	N	0.562209	-0.184397	0.319601
N150	N	0.610961	-0.184398	0.319596
H151	H	0.630684	-0.160308	0.343758
H152	H	0.054187	-0.191310	0.312708
H153	H	0.457483	-0.191305	0.312673
N154	N	0.311065	-0.151008	0.353125
N155	N	0.341537	-0.169446	0.386406
H156	H	0.361257	-0.145359	0.410573
N157	N	0.200692	-0.151012	0.353145
N158	N	0.170232	-0.169460	0.386435
H159	H	0.150568	-0.145380	0.410620
N160	N	0.856517	-0.806632	0.353069
N161	N	0.886338	-0.782194	0.382941
H162	H	0.910456	-0.801838	0.407096
H163	H	0.661400	-0.345866	0.801645
N164	N	0.654446	-0.352813	0.696940
N165	N	0.624576	-0.382654	0.721316
H166	H	0.600427	-0.406780	0.701621
H167	H	0.694841	-0.312510	0.550503
N168	N	-0.050534	-0.184401	0.319654
N169	N	-0.099286	-0.184411	0.319649
H170	H	-0.118970	-0.160330	0.343817
N171	N	0.200511	-0.352763	0.150667
N172	N	0.224874	-0.382565	0.120757
H173	H	0.205170	-0.406657	0.096582
N174	N	-0.050642	-0.319395	0.184210
N175	N	-0.026282	-0.349202	0.154302
H176	H	-0.045990	-0.373296	0.130132
N177	N	0.310873	-0.352744	0.150653
N178	N	0.304759	-0.349198	0.102416
H179	H	0.324429	-0.373278	0.078236
H180	H	0.556421	-0.312465	0.191103
H181	H	0.816254	-1.052233	0.312698
N182	N	0.823170	-0.184272	0.445834
N183	N	0.819732	-0.136026	0.451945
H184	H	0.843869	-0.111901	0.432267
N185	N	0.823031	-0.555513	0.319553
N186	N	0.852854	-0.531076	0.349424
H187	H	0.876971	-0.550721	0.373580
N188	N	0.823155	-0.947506	0.319618
N189	N	0.852994	-0.971848	0.349498
H190	H	0.877101	-0.952126	0.373643
H191	H	0.694830	-0.312531	0.451436
N192	N	0.688091	-1.058072	0.184303
N193	N	0.658257	-1.033730	0.154418
H194	H	0.634156	-1.053452	0.130266
H195	H	0.661471	-0.702227	0.157734
N196	N	0.654578	-0.806943	0.150811
N197	N	0.658065	-0.800867	0.102568
H198	H	0.633955	-0.820589	0.078425
N199	N	0.687951	-0.555736	0.184198
N200	N	0.658126	-0.531397	0.154301
H201	H	0.634040	-0.551122	0.130137
