data_functionalizedCrystal
_audit_creation_method	'MofGen! by Chris Wilmer'
_symmetry_space_group_name_H-M	'P1'
_symmetry_Int_Tables_number	1
_symmetry_cell_setting	triclinic
loop_
_symmetry_equiv_pos_as_xyz
  x,y,z
_cell_length_a	11.026607
_cell_length_b	14.519709
_cell_length_c	9.482900
_cell_angle_alpha	99.350820
_cell_angle_beta	78.636152
_cell_angle_gamma	96.133081
loop_
_atom_site_label
_atom_site_type_symbol
_atom_site_fract_x
_atom_site_fract_y
_atom_site_fract_z
O1	O	1.629894	0.375017	-0.120915
O2	O	1.276492	0.331026	-0.120914
O3	O	1.462561	0.220328	-0.120901
O4	O	1.443825	0.485715	-0.120927
O5	O	1.424766	0.242929	0.120889
O6	O	1.238698	0.353627	0.120876
O7	O	1.592099	0.397617	0.120875
Cu8	Cu	1.411948	0.377686	0.142953
Cu9	Cu	1.456644	0.350958	-0.142992
O10	O	1.406031	0.508316	0.120862
C11	C	1.212367	0.334211	-0.000019
C12	C	1.077600	0.310019	-0.000019
C13	C	1.003940	0.376817	-0.000026
C14	C	0.864652	0.351815	-0.000026
C15	C	1.442790	0.197125	-0.000006
C16	C	1.440173	0.094312	-0.000005
C17	C	1.430544	-0.282175	-0.000043
C18	C	1.433218	-0.177425	-0.000032
C19	C	1.435358	-0.093934	-0.000023
C20	C	1.438033	0.010822	-0.000015
C21	C	1.656226	0.394432	-0.000023
C22	C	1.790994	0.418624	-0.000033
C23	C	1.425802	0.531518	-0.000036
C24	C	1.428421	0.634330	-0.000046
N25	N	1.380519	0.396486	0.344071
N26	N	1.488082	0.332152	-0.344110
C27	C	1.447366	0.356497	0.416275
C28	C	1.421226	0.372147	0.583690
H29	H	1.523943	0.310669	0.354152
O30	O	1.329931	0.426936	0.657625
C31	C	1.355975	0.518089	0.620557
H32	H	1.419957	0.515386	0.509995
H33	H	1.403279	0.564521	0.706177
C34	C	1.155511	0.561907	0.749549
C35	C	1.234087	0.558586	0.613750
H36	H	1.080326	0.586890	0.745356
H37	H	1.137965	0.500497	0.774529
H38	H	1.194946	0.600599	0.820885
H39	H	1.194658	0.519885	0.542421
H40	H	1.251623	0.619991	0.588758
H41	H	0.831042	0.494329	-0.000031
H42	H	0.824606	0.276108	-0.000055
O43	O	1.579173	0.277229	0.581786
C44	C	1.527246	0.201414	0.494005
H45	H	1.436092	0.220605	0.471225
H46	H	1.509197	0.137415	0.552848
C47	C	1.730000	0.155554	0.377382
C48	C	1.618047	0.179129	0.349393
H49	H	1.786011	0.141804	0.288180
H50	H	1.764984	0.206630	0.436525
H51	H	1.714942	0.102225	0.426421
H52	H	1.633104	0.232464	0.300371
H53	H	1.583067	0.128061	0.290238
H54	H	1.303933	0.442304	0.406195
O55	O	1.029999	0.219656	-0.000206
C56	C	1.089102	0.163798	-0.125447
H57	H	1.183560	0.199533	-0.167199
H58	H	1.029568	0.154200	-0.213133
C59	C	0.990473	0.023586	-0.036120
C60	C	1.106492	0.067473	-0.087394
H61	H	1.001196	-0.035833	-0.012652
H62	H	0.950650	0.061218	0.048255
H63	H	0.940873	0.015597	-0.109201
H64	H	1.156084	0.075472	-0.014308
H65	H	1.146324	0.029840	-0.171757
O66	O	1.051926	0.467076	-0.000092
C67	C	1.180311	0.471948	-0.000048
H68	H	1.216922	0.400573	-0.045821
H69	H	1.197444	0.493074	0.115953
C70	C	1.202990	0.632816	-0.038648
C71	C	1.247958	0.545153	-0.094879
H72	H	1.244719	0.677974	-0.097138
H73	H	1.116494	0.629534	-0.038672
H74	H	1.217270	0.650407	0.058019
H75	H	1.233664	0.527557	-0.191536
H76	H	1.334454	0.548432	-0.094873
