data_functionalizedCrystal
_audit_creation_method	'MofGen! by Chris Wilmer'
_symmetry_space_group_name_H-M	'P1'
_symmetry_Int_Tables_number	1
_symmetry_cell_setting	triclinic
loop_
_symmetry_equiv_pos_as_xyz
  x,y,z
_cell_length_a	10.654545
_cell_length_b	17.699083
_cell_length_c	16.776229
_cell_angle_alpha	90.000273
_cell_angle_beta	90.001051
_cell_angle_gamma	96.115779
loop_
_atom_site_label
_atom_site_type_symbol
_atom_site_fract_x
_atom_site_fract_y
_atom_site_fract_z
O1	O	0.158803	-1.005087	0.066172
O2	O	0.658803	-0.505087	0.566172
O3	O	0.179464	-0.784840	0.066198
O4	O	0.679464	-0.284840	0.566198
O5	O	-0.013694	-0.900027	0.066184
O6	O	0.486306	-0.400027	0.566184
O7	O	0.351962	-0.889900	0.066186
O8	O	0.851962	-0.389900	0.566186
O9	O	-0.013695	-0.900014	-0.066393
O10	O	0.486305	-0.400014	0.433607
O11	O	0.179464	-0.784827	-0.066379
O12	O	0.679464	-0.284827	0.433621
O13	O	0.158803	-1.005074	-0.066404
O14	O	0.658803	-0.505074	0.433596
Zn15	Zn	0.169133	-0.894949	-0.087441
Zn16	Zn	0.669133	-0.394949	0.412559
Zn17	Zn	0.169134	-0.894966	0.087234
Zn18	Zn	0.669134	-0.394966	0.587234
O19	O	0.351961	-0.889887	-0.066390
O20	O	0.851961	-0.389887	0.433610
C21	C	0.178724	-0.756632	-0.000087
C22	C	0.678724	-0.256632	0.499913
C23	C	0.176503	-0.672600	-0.000077
C24	C	0.676503	-0.172600	0.499923
C25	C	-0.060479	-0.899277	-0.000103
C26	C	0.439521	-0.399277	0.499897
C27	C	-0.199884	-0.897052	-0.000098
C28	C	0.300116	-0.397052	0.499902
N29	N	0.169132	-0.894942	-0.206652
N30	N	0.669132	-0.394942	0.293348
C31	C	-0.199892	-0.897075	0.144441
C32	C	0.300108	-0.397075	0.644441
C33	C	-0.265388	-0.896044	0.216710
C34	C	0.234612	-0.396044	0.716710
C35	C	-0.396370	-0.893954	0.216712
C36	C	0.103630	-0.393954	0.716712
C37	C	-0.461859	-0.892892	0.144436
C38	C	0.038141	-0.392892	0.644436
C39	C	-0.396363	-0.893923	0.072166
C40	C	0.103637	-0.393923	0.572166
C41	C	-0.265378	-0.896015	0.072173
C42	C	0.234622	-0.396015	0.572173
C43	C	-0.396354	-0.893894	-0.072371
C44	C	0.103646	-0.393894	0.427629
C45	C	-0.265373	-0.895990	-0.072374
C46	C	0.234627	-0.395990	0.427626
C47	C	-0.461843	-0.892832	-0.144647
C48	C	0.038157	-0.392832	0.355353
C49	C	-0.396348	-0.893868	-0.216918
C50	C	0.103652	-0.393868	0.283082
C51	C	-0.265358	-0.895959	-0.216916
C52	C	0.234642	-0.395959	0.283084
C53	C	-0.199877	-0.897021	-0.144643
C54	C	0.300123	-0.397021	0.355357
C55	C	0.398746	-0.890638	-0.000102
C56	C	0.898746	-0.390638	0.499898
C57	C	0.538151	-0.892863	-0.000102
C58	C	1.038151	-0.392863	0.499898
C59	C	0.159543	-1.033283	-0.000118
C60	C	0.659543	-0.533283	0.499882
C61	C	0.161764	-1.117315	-0.000122
C62	C	0.661764	-0.617315	0.499878
C63	C	0.289883	-0.624700	-0.000077
C64	C	0.789883	-0.124700	0.499923
C65	C	0.287788	-0.545743	-0.000087
C66	C	0.787788	-0.045743	0.499913
C67	C	0.172313	-0.514688	-0.000092
C68	C	0.672313	-0.014688	0.499908
C69	C	0.058924	-0.562594	-0.000095
C70	C	0.558924	-0.062594	0.499905
C71	C	0.061020	-0.641549	-0.000090
C72	C	0.561020	-0.141549	0.499910
C73	C	0.050470	-0.244177	-0.000115
C74	C	0.550470	0.255823	0.499885
C75	C	0.048383	-0.165216	-0.000117
C76	C	0.548383	0.334784	0.499883
C77	C	0.277239	-0.148372	-0.000111
C78	C	0.777239	0.351628	0.499889
C79	C	0.279334	-0.227327	-0.000107
C80	C	0.779334	0.272673	0.499893
C81	C	0.165946	-0.275226	-0.000114
C82	C	0.665946	0.224774	0.499886
C83	C	0.168219	-0.360839	-0.000104
C84	C	0.668219	0.139161	0.499896
C85	C	0.170039	-0.429076	-0.000096
C86	C	0.670039	0.070924	0.499904
C87	C	0.245205	-0.941241	-0.248371
C88	C	0.745205	-0.441241	0.251629
C89	C	0.245200	-0.941250	-0.331823
C90	C	0.745200	-0.441250	0.168177
C91	C	0.169128	-0.894955	-0.373555
C92	C	0.669128	-0.394955	0.126445
C93	C	0.093047	-0.848654	-0.331830
C94	C	0.593047	-0.348654	0.168170
C95	C	0.093046	-0.848650	-0.248380
C96	C	0.593046	-0.348650	0.251620
C97	C	0.093048	-0.848669	-0.668378
C98	C	0.593048	-0.348669	-0.168378
C99	C	0.093058	-0.848675	-0.751834
C100	C	0.593058	-0.348675	-0.251834
C101	C	0.245203	-0.941269	-0.751821
C102	C	0.745203	-0.441269	-0.251821
C103	C	0.245202	-0.941265	-0.668370
C104	C	0.745202	-0.441265	-0.168370
C105	C	0.169116	-0.894967	-0.626653
C106	C	0.669116	-0.394967	-0.126653
C107	C	0.169120	-0.894960	-0.536165
C108	C	0.669120	-0.394960	-0.036165
C109	C	0.169130	-0.894958	-0.464042
C110	C	0.669130	-0.394958	0.035958
N111	N	0.169125	-0.894978	0.206446
N112	N	0.669125	-0.394978	0.706446
H113	H	-0.093241	-0.898786	0.144448
H114	H	0.406759	-0.398786	0.644448
F115	F	-0.466076	-0.892851	0.293628
F116	F	0.033924	-0.392851	0.793628
H117	H	0.307144	-0.978952	-0.365787
H118	H	0.807144	-0.478952	0.134213
F119	F	-0.195685	-0.897191	0.293628
F120	F	0.304315	-0.397191	0.793628
F121	F	0.012087	-0.799400	-0.796247
F122	F	0.512087	-0.299400	-0.296247
H123	H	-0.045657	-0.139935	-0.000122
H124	H	0.454343	0.360065	0.499878
F125	F	-0.060475	-0.899251	-0.144635
F126	F	0.439525	-0.399251	0.355365
F127	F	-0.070208	-0.295145	-0.000122
F128	F	0.429792	0.204855	0.499878
H129	H	-0.568509	-0.891180	0.144443
H130	H	-0.068509	-0.391180	0.644443
H131	H	0.383916	-0.649979	-0.000072
H132	H	0.883916	-0.149979	0.499928
F133	F	0.012068	-0.799379	-0.203980
F134	F	0.512068	-0.299379	0.296020
H135	H	-0.035098	-0.537303	-0.000111
H136	H	0.464902	-0.037303	0.499889
F137	F	-0.059655	-0.692528	-0.000094
F138	F	0.440345	-0.192528	0.499906
F139	F	0.326175	-0.990514	-0.203964
F140	F	0.826175	-0.490514	0.296036
F141	F	-0.601244	-0.890600	-0.144644
F142	F	-0.101244	-0.390600	0.355356
F143	F	0.012109	-0.799372	-0.623989
F144	F	0.512109	-0.299372	-0.123989
F145	F	0.012082	-0.799385	-0.376247
F146	F	0.512082	-0.299385	0.123753
F147	F	0.408463	-0.494768	-0.000083
F148	F	0.908463	0.005232	0.499917
H149	H	0.307152	-0.978960	-0.634396
H150	H	0.807152	-0.478960	-0.134396
F151	F	-0.466051	-0.892730	-0.293830
F152	F	0.033949	-0.392730	0.206170
H153	H	-0.212037	-0.896787	-0.275766
H154	H	0.287963	-0.396787	0.224234
F155	F	0.402239	-0.260373	-0.000097
F156	F	0.902239	0.239627	0.499903
H157	H	0.369564	-0.109362	-0.000110
H158	H	0.869564	0.390638	0.499890
H159	H	0.307152	-0.978968	-0.785797
H160	H	0.807152	-0.478968	-0.285797
