data_functionalizedCrystal
_audit_creation_method	'MofGen! by Chris Wilmer'
_symmetry_space_group_name_H-M	'P1'
_symmetry_Int_Tables_number	1
_symmetry_cell_setting	triclinic
loop_
_symmetry_equiv_pos_as_xyz
  x,y,z
_cell_length_a	11.169416
_cell_length_b	17.077404
_cell_length_c	17.077383
_cell_angle_alpha	90.060367
_cell_angle_beta	89.915154
_cell_angle_gamma	89.996180
loop_
_atom_site_label
_atom_site_type_symbol
_atom_site_fract_x
_atom_site_fract_y
_atom_site_fract_z
Zn1	Zn	-0.477279	-1.200429	-0.443906
Zn2	Zn	-0.678209	-1.200274	-0.312653
Zn3	Zn	-0.477516	-1.069070	-0.312650
Zn4	Zn	-0.677896	-1.069157	-0.443873
O5	O	-0.577725	-1.134732	-0.378270
O6	O	-0.503965	-1.310255	-0.426509
O7	O	-0.651816	-1.182768	-0.202805
O8	O	-0.309535	-1.086523	-0.330074
O9	O	-0.651587	-1.310141	-0.330078
O10	O	-0.309361	-1.183032	-0.426507
O11	O	-0.504368	-1.086373	-0.202803
O12	O	-0.504065	-0.959235	-0.330042
O13	O	-0.651054	-1.086672	-0.553725
O14	O	-0.651283	-0.959299	-0.426452
O15	O	-0.503662	-1.183116	-0.553749
O16	O	-0.846117	-1.182853	-0.330047
O17	O	-0.845887	-1.086522	-0.426454
C18	C	-0.577667	-0.930785	-0.378244
C19	C	-0.577671	-0.843535	-0.378251
C20	C	-0.654520	-0.467774	-0.428401
C21	C	-0.654508	-0.549755	-0.428390
C22	C	-0.577729	-0.590686	-0.378272
C23	C	-0.500965	-0.549632	-0.328155
C24	C	-0.500984	-0.467653	-0.328162
C25	C	-0.500930	-0.720502	-0.328145
C26	C	-0.500910	-0.802487	-0.328139
C27	C	-0.654455	-0.802604	-0.428374
C28	C	-0.654473	-0.720625	-0.428381
C29	C	-0.577707	-0.679577	-0.378265
C30	C	-0.889550	-1.134701	-0.378264
C31	C	-1.022950	-1.134760	-0.378288
C32	C	-0.264683	-1.134785	-0.378294
C33	C	-0.131283	-1.134807	-0.378303
C34	C	-0.577297	-1.134921	-0.583015
C35	C	-0.577114	-1.135001	-0.670265
C36	C	-0.577772	-0.339477	-0.378293
C37	C	-0.577759	-0.426726	-0.378289
C38	C	-0.578065	-1.134590	-0.174322
C39	C	-0.577909	-1.134662	-0.087073
C40	C	-0.499896	-1.184814	0.288517
C41	C	-0.500047	-1.184744	0.206537
C42	C	-0.577422	-1.134865	0.165776
C43	C	-0.654644	-1.085047	0.206999
C44	C	-0.654486	-1.085113	0.288978
C45	C	-0.654968	-1.084914	0.036129
C46	C	-0.655127	-1.084849	-0.045855
C47	C	-0.500529	-1.184545	-0.046311
C48	C	-0.500371	-1.184611	0.035667
C49	C	-0.577595	-1.134794	0.076885
H50	H	-0.438378	-0.835811	-0.287336
H51	H	-0.437171	-1.225309	0.172981
O52	O	-0.729847	-1.036521	0.167528
C53	C	-0.797989	-0.992583	0.221490
H54	H	-0.748746	-0.989683	0.279844
H55	H	-0.811513	-0.930778	0.197941
H56	H	-0.888807	-1.021757	0.230320
O57	O	-0.425099	-1.233088	0.075143
C58	C	-0.356993	-1.277057	0.021186
H59	H	-0.353294	-1.244843	-0.037200
H60	H	-0.262300	-1.285013	0.044693
H61	H	-0.400311	-1.336869	0.012436
O62	O	-0.730322	-1.036321	-0.085330
C63	C	-0.798461	-0.992374	-0.031374
H64	H	-0.749224	-0.989474	0.026982
H65	H	-0.811971	-0.930569	-0.054927
H66	H	-0.889286	-1.021539	-0.022547
O67	O	-0.426589	-0.427743	-0.279399
C68	C	-0.494917	-0.380258	-0.228640
H69	H	-0.589435	-0.404963	-0.223688
H70	H	-0.451494	-0.379259	-0.168277
H71	H	-0.499073	-0.318154	-0.252908
H72	H	-0.438456	-0.582965	-0.287344
H73	H	-0.438417	-0.687084	-0.287337
O74	O	-0.728900	-0.589711	-0.477115
C75	C	-0.660570	-0.637170	-0.527897
H76	H	-0.569611	-0.649421	-0.500305
H77	H	-0.709450	-0.694829	-0.538366
H78	H	-0.647395	-0.605638	-0.586083
H79	H	-0.716988	-0.687301	-0.469195
O80	O	-0.425536	-1.232854	-0.086467
C81	C	-0.442272	-1.222110	-0.167564
H82	H	-0.482268	-1.161707	-0.178575
H83	H	-0.352371	-1.226984	-0.198883
H84	H	-0.505708	-1.268949	-0.190811
O85	O	-0.730042	-1.036638	0.076262
C86	C	-0.806985	-1.081739	0.123718
H87	H	-0.763974	-1.141038	0.135801
H88	H	-0.823306	-1.049896	0.181460
H89	H	-0.895893	-1.090750	0.092269
O90	O	-0.729040	-0.428102	-0.477198
C91	C	-0.702811	-0.448208	-0.555461
H92	H	-0.656664	-0.507731	-0.557133
H93	H	-0.789439	-0.451056	-0.590565
H94	H	-0.641121	-0.402099	-0.581973
H95	H	-0.717353	-1.044543	0.322536
H96	H	-0.716958	-0.836029	-0.469183
H97	H	-0.436892	-1.225433	0.321699
