data_functionalizedCrystal
_audit_creation_method	'MofGen! by Chris Wilmer'
_symmetry_space_group_name_H-M	'P1'
_symmetry_Int_Tables_number	1
_symmetry_cell_setting	triclinic
loop_
_symmetry_equiv_pos_as_xyz
  x,y,z
_cell_length_a	15.297475
_cell_length_b	12.594516
_cell_length_c	15.296720
_cell_angle_alpha	80.349469
_cell_angle_beta	88.382886
_cell_angle_gamma	80.319586
loop_
_atom_site_label
_atom_site_type_symbol
_atom_site_fract_x
_atom_site_fract_y
_atom_site_fract_z
Zn1	Zn	1.253466	-0.828402	0.726662
Zn2	Zn	1.278741	-0.981670	0.580189
Zn3	Zn	1.132339	-0.768606	0.554898
Zn4	Zn	1.106966	-0.971207	0.701317
O5	O	1.192878	-0.887471	0.640767
O6	O	1.379399	-0.878137	0.728424
O7	O	1.280516	-0.932761	0.454258
O8	O	1.148448	-0.627605	0.577705
O9	O	1.397968	-0.990742	0.620811
O10	O	1.237439	-0.671537	0.703900
O11	O	1.172956	-0.776223	0.435677
O12	O	1.006393	-0.766078	0.553130
O13	O	1.105203	-0.972910	0.827255
O14	O	0.987752	-0.914928	0.660703
O15	O	1.212836	-0.867992	0.845876
O16	O	1.255913	-1.129215	0.596235
O17	O	1.129711	-1.121528	0.685227
C18	C	0.965289	-0.832880	0.601422
C19	C	0.867921	-0.809554	0.584611
C20	C	1.192822	-1.163997	0.640748
C21	C	1.192873	-1.282320	0.640783
C22	C	0.554794	-1.054189	0.760920
C23	C	0.646276	-1.076112	0.776712
C24	C	0.701692	-1.009475	0.728689
C25	C	0.665617	-0.920910	0.664869
C26	C	0.574127	-0.898991	0.649070
C27	C	0.721024	-0.854276	0.616839
C28	C	0.684949	-0.765712	0.553020
C29	C	0.593468	-0.743795	0.537225
C30	C	0.538052	-0.810433	0.585248
C31	C	0.812514	-0.876196	0.632638
C32	C	0.831847	-0.720997	0.520789
C33	C	0.740365	-0.699074	0.504996
C34	C	1.124233	-1.347423	0.689144
C35	C	1.116732	-1.399680	0.605532
C36	C	1.200452	-1.440883	0.724423
C37	C	1.185337	-1.333002	0.557122
C38	C	1.269085	-1.374217	0.676073
C39	C	1.261623	-1.426440	0.592411
C40	C	1.421356	-0.942277	0.680265
C41	C	1.518720	-0.965632	0.697097
C42	C	1.153370	-0.925954	0.869237
C43	C	1.136534	-0.942353	0.966597
C44	C	1.192955	-0.609875	0.640809
C45	C	1.192987	-0.491580	0.640826
C46	C	1.232282	-0.849074	0.413194
C47	C	1.249288	-0.832416	0.315863
C48	C	1.313239	-0.770087	1.279821
C49	C	1.329063	-0.754682	1.188347
C50	C	1.280932	-0.801598	1.132905
C51	C	1.216975	-0.863922	1.168946
C52	C	1.201155	-0.879335	1.260430
C53	C	1.168847	-0.910847	1.113514
C54	C	1.104891	-0.973170	1.149555
C55	C	1.089073	-0.988580	1.241030
C56	C	1.137203	-0.941664	1.296472
C57	C	1.184668	-0.895433	1.022030
C58	C	1.072583	-1.004682	1.002639
C59	C	1.056760	-1.020086	1.094113
H60	H	0.841877	-0.948305	0.684601
H61	H	0.564100	-0.671690	0.485250
O62	O	1.025962	-1.050324	0.948717
C63	C	1.031997	-1.173832	0.843408
C64	C	1.084897	-1.122206	0.904428
H65	H	1.079622	-1.231977	0.807598
H66	H	0.993639	-1.106817	0.792614
H67	H	0.983551	-1.220980	0.884893
H68	H	1.133389	-1.075066	0.863016
H69	H	1.123195	-1.189270	0.955225
H70	H	1.206818	-1.487649	0.795139
H71	H	0.509668	-1.108442	0.800008
O72	O	1.330918	-1.467631	0.543642
C73	C	1.409148	-1.626236	0.489399
C74	C	1.330657	-1.579733	0.544676
H75	H	1.408951	-1.716871	0.490201
H76	H	1.473998	-1.615121	0.518844
H77	H	1.402565	-1.581111	0.418169
H78	H	1.337154	-1.624825	0.615915
H79	H	1.265837	-1.590832	0.515160
H80	H	1.333461	-1.362260	0.705927
H81	H	1.066111	-1.312837	0.729954
H82	H	1.037002	-1.039339	1.270373
O83	O	1.246882	-0.835054	0.986999
C84	C	1.382980	-0.831668	0.904114
C85	C	1.312597	-0.900190	0.943761
H86	H	1.436118	-0.884296	0.869131
H87	H	1.414731	-0.800807	0.959422
H88	H	1.350154	-0.759138	0.854382
H89	H	1.345356	-0.972769	0.993483
H90	H	1.280851	-0.930968	0.888405
O91	O	1.391079	-0.693962	1.153374
C92	C	1.438502	-0.518421	1.132851
C93	C	1.368192	-0.587068	1.172477
H94	H	1.420033	-0.431990	1.148297
H95	H	1.441553	-0.515354	1.057934
H96	H	1.506013	-0.557134	1.163041
H97	H	1.300645	-0.548409	1.142357
H98	H	1.365218	-0.590138	1.247395
H99	H	1.004685	-1.070831	1.123471
O100	O	1.121839	-0.956825	1.385334
C101	C	1.121667	-1.086354	1.520500
C102	C	1.139076	-1.069345	1.419866
H103	H	1.135614	-1.177321	1.548453
H104	H	1.049532	-1.052258	1.533660
H105	H	1.167030	-1.042056	1.553900
H106	H	1.093768	-1.113643	1.386399
H107	H	1.211232	-1.103412	1.406771
H108	H	0.776180	-1.027329	0.741551
H109	H	1.352425	-0.731902	1.324970
H110	H	0.463559	-0.792586	0.572395
H111	H	1.178897	-1.286343	0.486374
O112	O	0.681167	-1.162150	0.838761
C113	C	0.652339	-1.313813	0.947992
C114	C	0.612706	-1.216391	0.877758
H115	H	0.597009	-1.357709	0.979528
H116	H	0.687221	-1.283085	1.001316
H117	H	0.702148	-1.372818	0.915079
H118	H	0.562862	-1.157348	0.910592
H119	H	0.577879	-1.247198	0.824441
O120	O	0.705177	-0.613124	0.443003
C121	C	0.572796	-0.510547	0.369140
C122	C	0.612532	-0.607933	0.439357
H123	H	0.497885	-0.506305	0.366182
H124	H	0.602920	-0.521490	0.301554
H125	H	0.588169	-0.431695	0.387746
H126	H	0.597172	-0.686830	0.420834
H127	H	0.582406	-0.596894	0.506923
O128	O	1.296144	-0.786630	1.044021
C129	C	1.234911	-0.717049	0.898213
C130	C	1.217551	-0.733935	0.998855
H131	H	1.171386	-0.674423	0.861668
H132	H	1.257301	-0.799650	0.876486
H133	H	1.288927	-0.664502	0.881982
H134	H	1.163522	-0.786442	1.015161
H135	H	1.195210	-0.651296	1.020530
O136	O	1.039828	-1.413886	0.570074
C137	C	0.880479	-1.389618	0.580887
C138	C	0.967509	-1.373494	0.621139
H139	H	0.821984	-1.356949	0.622144
H140	H	0.881479	-1.480291	0.580682
H141	H	0.873543	-1.343479	0.509986
H142	H	0.974500	-1.419568	0.692055
H143	H	0.966469	-1.282800	0.621275
H144	H	0.876967	-0.666736	0.481682
