data_functionalizedCrystal
_audit_creation_method	'MofGen! by Chris Wilmer'
_symmetry_space_group_name_H-M	'P1'
_symmetry_Int_Tables_number	1
_symmetry_cell_setting	triclinic
loop_
_symmetry_equiv_pos_as_xyz
  x,y,z
_cell_length_a	10.654550
_cell_length_b	17.038272
_cell_length_c	9.730223
_cell_angle_alpha	89.995299
_cell_angle_beta	89.999957
_cell_angle_gamma	87.798243
loop_
_atom_site_label
_atom_site_type_symbol
_atom_site_fract_x
_atom_site_fract_y
_atom_site_fract_z
O1	O	1.678042	0.109878	-0.114188
O2	O	1.313535	0.120346	-0.114214
O3	O	1.493622	0.001285	-0.114190
O4	O	1.497955	0.228940	-0.114212
O5	O	1.493609	0.001281	0.114390
O6	O	1.313523	0.120343	0.114366
O7	O	1.678029	0.109875	0.114392
Zn8	Zn	1.495774	0.115108	0.150671
Zn9	Zn	1.495791	0.115113	-0.150493
O10	O	1.497942	0.228936	0.114368
C11	C	1.266660	0.119576	0.000073
C12	C	1.127003	0.117276	0.000064
C13	C	1.054026	0.187378	0.000061
C14	C	0.922805	0.185213	0.000085
C15	C	0.937548	0.042838	0.000109
C16	C	1.068767	0.045004	0.000095
C17	C	1.489675	-0.027867	0.000099
C18	C	1.477918	-0.114726	0.000098
C19	C	1.585862	-0.164237	0.000107
C20	C	1.574808	-0.245849	0.000093
C21	C	1.455808	-0.277949	0.000080
C22	C	1.347855	-0.228431	0.000067
C23	C	1.358911	-0.146820	0.000071
C24	C	1.416750	-0.523925	0.000059
C25	C	1.405702	-0.605542	0.000059
C26	C	1.632655	-0.622955	0.000082
C27	C	1.643701	-0.541341	0.000094
C28	C	1.535748	-0.491831	0.000074
C29	C	1.444505	-0.361369	0.000070
C30	C	1.547052	-0.408412	0.000074
C31	C	1.724905	0.110645	0.000102
C32	C	1.864561	0.112945	0.000102
C33	C	1.501889	0.258088	0.000076
C34	C	1.513646	0.344947	0.000068
N35	N	1.495771	0.115105	0.356207
N36	N	1.495802	0.115110	-0.356029
C37	C	1.575545	0.062407	0.428144
C38	C	1.575558	0.062407	0.572027
C39	C	1.416020	0.167810	0.572024
C40	C	1.416002	0.167806	0.428144
H41	H	0.863392	0.242297	0.000086
H42	H	1.101438	0.246227	0.000046
H43	H	1.308794	-0.631674	0.000071
H44	H	0.890116	-0.016004	0.000142
H45	H	1.740603	-0.515213	0.000105
C46	C	1.147791	-0.031197	0.000026
C47	C	1.068708	-0.094954	0.000008
C48	C	1.141460	-0.165158	-0.000068
H49	H	1.199309	-0.033420	0.079711
H50	H	1.199258	-0.033353	-0.079721
H51	H	1.017263	-0.092799	0.079747
H52	H	1.017191	-0.092757	-0.079671
H53	H	1.192927	-0.167314	-0.079815
H54	H	1.192975	-0.167373	0.079618
H55	H	1.087814	-0.208425	-0.000093
H56	H	1.351034	0.210719	0.369569
H57	H	1.351074	0.210719	0.630609
H58	H	1.682764	-0.138109	0.000126
H59	H	1.662708	-0.286159	0.000103
H60	H	1.720544	-0.663274	0.000096
C61	C	1.299397	-0.470309	0.000128
C62	C	1.192821	-0.515891	0.000163
C63	C	1.084689	-0.466523	0.000251
H64	H	1.298809	-0.438088	-0.079559
H65	H	1.298920	-0.438128	0.079874
H66	H	1.193298	-0.548059	-0.079575
H67	H	1.193368	-0.548111	0.079844
H68	H	1.084212	-0.434342	0.079996
H69	H	1.084114	-0.434305	-0.079437
H70	H	1.012365	-0.497444	0.000287
H71	H	1.250963	-0.254573	0.000048
H72	H	1.271011	-0.106509	0.000064
H73	H	1.643941	-0.382273	0.000054
H74	H	1.640515	0.019495	0.630593
H75	H	1.347615	-0.387514	0.000063
C76	C	1.662186	0.005098	0.350288
C77	C	1.732025	-0.041067	0.444090
C78	C	1.811839	-0.093879	0.372425
H79	H	1.717602	0.033448	0.294139
H80	H	1.613529	-0.027775	0.294206
H81	H	1.780680	-0.008199	0.500149
H82	H	1.676643	-0.069435	0.500242
H83	H	1.763181	-0.126752	0.316343
H84	H	1.867246	-0.065522	0.316279
H85	H	1.859226	-0.125213	0.436058
