data_functionalizedCrystal
_audit_creation_method	'MofGen! by Chris Wilmer'
_symmetry_space_group_name_H-M	'P1'
_symmetry_Int_Tables_number	1
_symmetry_cell_setting	triclinic
loop_
_symmetry_equiv_pos_as_xyz
  x,y,z
_cell_length_a	10.723022
_cell_length_b	9.616153
_cell_length_c	10.723024
_cell_angle_alpha	89.998938
_cell_angle_beta	95.532452
_cell_angle_gamma	90.006580
loop_
_atom_site_label
_atom_site_type_symbol
_atom_site_fract_x
_atom_site_fract_y
_atom_site_fract_z
O1	O	1.657194	0.115633	-0.175013
O2	O	2.157194	0.615633	0.324987
O3	O	1.294042	0.115637	-0.191768
O4	O	1.794042	0.615637	0.308232
O5	O	1.483995	0.115630	-0.001814
O6	O	1.983995	0.615630	0.498186
O7	O	1.467241	0.115640	-0.364967
O8	O	1.967241	0.615640	0.135033
O9	O	1.483969	-0.115662	-0.001818
O10	O	1.983969	0.384338	0.498182
O11	O	1.294016	-0.115654	-0.191772
O12	O	1.794016	0.384346	0.308228
O13	O	1.657168	-0.115659	-0.175017
O14	O	2.157168	0.384341	0.324983
Zn15	Zn	1.475588	-0.152379	-0.183395
Zn16	Zn	1.975588	0.347621	0.316605
Zn17	Zn	1.475622	0.152357	-0.183390
Zn18	Zn	1.975622	0.652357	0.316610
O19	O	1.467215	-0.115651	-0.364971
O20	O	1.967215	0.384349	0.135029
C21	C	1.247529	-0.000008	-0.190551
C22	C	1.747529	0.499992	0.309449
C23	C	1.108975	-0.000006	-0.186904
C24	C	1.608975	0.499994	0.313096
N25	N	1.475573	-0.360353	-0.183398
N26	N	1.975573	0.139647	0.316602
C27	C	1.060414	-0.000009	-0.077365
C28	C	1.560414	0.499991	0.422635
C29	C	0.917211	-0.000007	-0.073593
C30	C	1.417211	0.499993	0.426407
C31	C	1.373651	-0.580719	-0.284670
C32	C	1.873651	-0.080719	0.215330
C33	C	1.373875	-0.419552	-0.285049
C34	C	1.873875	0.080448	0.214951
C35	C	1.606030	-0.418803	-0.212953
C36	C	2.106030	0.081197	0.287047
C37	C	1.605474	-0.580021	-0.213670
C38	C	2.105474	-0.080021	0.286330
C39	C	1.448339	-0.580268	-0.052238
C40	C	1.948339	-0.080268	0.447762
C41	C	1.445344	-0.419042	-0.053090
C42	C	1.945344	0.080958	0.446910
C43	C	1.703681	-0.000010	-0.176234
C44	C	2.203681	0.499990	0.323766
C45	C	1.842235	-0.000003	-0.179881
C46	C	2.342235	0.499997	0.320119
C47	C	1.482763	-0.000014	0.044683
C48	C	1.982763	0.499986	0.544683
C49	C	1.479115	-0.000009	0.183238
C50	C	1.979115	0.499991	0.683238
N51	N	1.475647	0.360332	-0.183377
N52	N	1.975647	0.860332	0.316623
C53	C	1.468448	-0.000004	-0.411468
C54	C	1.968448	0.499996	0.088532
C55	C	1.472095	0.000000	-0.550023
C56	C	1.972095	0.500000	-0.050023
C57	C	1.585403	-0.000009	0.258221
C58	C	2.085403	0.499991	0.758221
C59	C	1.581635	-0.000004	0.401424
C60	C	2.081635	0.499996	0.901424
H61	H	1.124856	-0.000005	0.013624
H62	H	1.624856	0.499995	0.513624
Cl63	Cl	0.852664	-0.000021	0.071215
Cl64	Cl	1.352664	0.499979	0.571215
H65	H	1.355224	-0.621005	-0.024093
H66	H	1.855224	-0.121005	0.475907
Cl67	Cl	1.331600	-0.000012	0.350511
Cl68	Cl	1.831600	0.499988	0.850511
Cl69	Cl	1.334309	0.000006	0.247795
Cl70	Cl	1.834309	0.500006	0.747795
Cl71	Cl	1.642360	-0.638057	-0.361383
Cl72	Cl	2.142360	-0.138057	0.138617
Cl73	Cl	1.722125	-0.000014	0.500898
Cl74	Cl	2.222125	0.499986	1.000898
H75	H	0.884039	-0.000009	-0.273673
H76	H	1.384039	0.499991	0.226327
Cl77	Cl	1.223513	-0.640606	-0.257636
Cl78	Cl	1.723513	-0.140606	0.242364
H79	H	1.276941	-0.380036	-0.267275
H80	H	1.776941	0.119964	0.232725
Cl81	Cl	1.009490	0.000010	-0.327392
Cl82	Cl	1.509490	0.500010	0.172608
Cl83	Cl	1.400916	-0.359973	-0.435280
Cl84	Cl	1.900916	0.140027	0.064720
Cl85	Cl	1.726147	-0.640228	-0.104066
Cl86	Cl	2.226147	-0.140228	0.395934
Cl87	Cl	1.400402	-0.643209	-0.434044
Cl88	Cl	1.900402	-0.143209	0.065956
Cl89	Cl	1.726074	-0.359604	-0.102155
Cl90	Cl	2.226074	0.140396	0.397845
H91	H	1.630457	-0.378411	-0.307545
H92	H	2.130457	0.121589	0.192455
H93	H	1.349373	-0.380841	-0.030686
H94	H	1.849373	0.119159	0.469314
H95	H	1.679188	-0.000018	0.216399
H96	H	2.179188	0.499982	0.716399
Cl97	Cl	1.552458	-0.356856	0.068873
Cl98	Cl	2.052458	0.143144	0.568873
H99	H	1.522706	-0.618387	0.023154
H100	H	2.022706	-0.118387	0.523154
