data_functionalizedCrystal
_audit_creation_method	'MofGen! by Chris Wilmer'
_symmetry_space_group_name_H-M	'P1'
_symmetry_Int_Tables_number	1
_symmetry_cell_setting	triclinic
loop_
_symmetry_equiv_pos_as_xyz
  x,y,z
_cell_length_a	10.654538
_cell_length_b	17.666332
_cell_length_c	10.654551
_cell_angle_alpha	90.001713
_cell_angle_beta	95.517272
_cell_angle_gamma	89.991767
loop_
_atom_site_label
_atom_site_type_symbol
_atom_site_fract_x
_atom_site_fract_y
_atom_site_fract_z
O1	O	-1.667853	0.062986	0.176328
O2	O	-1.302373	0.062978	0.193149
O3	O	-1.493515	0.062982	0.001999
O4	O	-1.476710	0.062981	0.367478
O5	O	-1.493494	-0.062914	0.001994
O6	O	-1.302351	-0.062919	0.193144
O7	O	-1.667831	-0.062911	0.176323
Cu8	Cu	-1.485089	-0.074410	0.184733
Cu9	Cu	-1.485115	0.074477	0.184739
O10	O	-1.476689	-0.062916	0.367473
C11	C	-1.255564	0.000028	0.191915
C12	C	-1.116120	0.000025	0.188229
N13	N	-1.485080	-0.179130	0.184728
C14	C	-1.050636	0.068654	0.186487
C15	C	-0.919615	0.068658	0.183014
C16	C	-0.919573	-0.068602	0.183019
C17	C	-1.050590	-0.068605	0.186501
C18	C	-1.116166	0.137284	0.188215
C19	C	-1.050683	0.205918	0.186472
C20	C	-0.919661	0.205922	0.182998
C21	C	-0.854123	0.137292	0.181268
C22	C	-1.569774	-0.781178	0.100116
C23	C	-1.569776	-0.701930	0.100119
C24	C	-1.485116	-0.662311	0.184727
C25	C	-1.400469	-0.701947	0.269361
C26	C	-1.400478	-0.781193	0.269365
N27	N	-1.374117	-0.537901	0.199701
N28	N	-1.374112	-0.462621	0.199690
C29	C	-1.485086	-0.423547	0.184725
N30	N	-1.596069	-0.462598	0.169746
N31	N	-1.596072	-0.537886	0.169750
C32	C	-1.485098	-0.576382	0.184734
C33	C	-1.569736	-0.297992	0.100106
C34	C	-1.569740	-0.218743	0.100117
C35	C	-1.400422	-0.218761	0.269354
C36	C	-1.400429	-0.298009	0.269348
C37	C	-1.485085	-0.337620	0.184717
C38	C	-0.714639	0.000036	0.177565
C39	C	-0.854081	0.000032	0.181273
C40	C	-1.492270	0.000036	-0.044801
C41	C	-1.488578	0.000041	-0.184244
N42	N	-1.485134	0.179197	0.184734
C43	C	-1.486857	0.068666	-0.249754
C44	C	-1.483377	0.068662	-0.380774
C45	C	-1.483343	-0.068598	-0.380765
C46	C	-1.486814	-0.068593	-0.249746
C47	C	-1.488621	0.137299	-0.184252
C48	C	-1.486902	0.205930	-0.249762
C49	C	-1.483422	0.205926	-0.380782
C50	C	-1.481660	0.137292	-0.446293
C51	C	-1.477934	0.000033	0.414273
C52	C	-1.481626	0.000033	0.553716
H53	H	-1.222850	0.137288	0.191040
Br54	Br	-1.489284	0.299071	-0.160858
Br55	Br	-1.481070	0.299065	-0.469684
H56	H	-1.478808	0.137295	-0.552976
Br57	Br	-1.684628	-0.351752	-0.014745
H58	H	-1.331502	-0.330274	0.338247
H59	H	-1.638703	-0.669661	0.031211
H60	H	-1.331540	-0.669685	0.338253
Br61	Br	-1.285602	-0.834975	0.384213
H62	H	-0.866201	-0.124477	0.181608
Br63	Br	-1.139620	0.299054	0.188839
Br64	Br	-1.493356	0.137308	-0.006441
H65	H	-1.481910	-0.124476	-0.434114
H66	H	-0.866347	0.261808	0.181592
Br67	Br	-0.676305	0.137299	0.176574
Br68	Br	-1.489153	-0.161728	-0.160832
Br69	Br	-1.139468	-0.161745	0.188873
H70	H	-1.638708	-0.813427	0.031208
Br71	Br	-1.684629	-0.164961	-0.014719
Br72	Br	-1.285539	-0.164999	0.384194
