data_functionalizedCrystal
_audit_creation_method	'MofGen! by Chris Wilmer'
_symmetry_space_group_name_H-M	'P1'
_symmetry_Int_Tables_number	1
_symmetry_cell_setting	triclinic
loop_
_symmetry_equiv_pos_as_xyz
  x,y,z
_cell_length_a	27.731994
_cell_length_b	27.732048
_cell_length_c	26.210047
_cell_angle_alpha	90.011237
_cell_angle_beta	90.018354
_cell_angle_gamma	82.631595
loop_
_atom_site_label
_atom_site_type_symbol
_atom_site_fract_x
_atom_site_fract_y
_atom_site_fract_z
O1	O	0.640958	0.057392	0.042362
O2	O	1.140958	0.557392	0.542362
O3	O	0.500161	0.066164	0.042379
O4	O	1.000161	0.566164	0.542379
O5	O	0.574933	-0.008620	0.042360
O6	O	1.074933	0.491380	0.542360
O7	O	0.566187	0.132176	0.042381
O8	O	1.066187	0.632176	0.542381
O9	O	0.574898	-0.008620	-0.042498
O10	O	1.074898	0.491380	0.457502
O11	O	0.500127	0.066164	-0.042479
O12	O	1.000127	0.566164	0.457521
O13	O	0.640924	0.057391	-0.042496
O14	O	1.140924	0.557391	0.457504
Cu15	Cu	0.570522	0.061777	-0.050236
Cu16	Cu	1.070522	0.561777	0.449764
Cu17	Cu	0.570563	0.061778	0.050119
Cu18	Cu	1.070563	0.561778	0.550119
O19	O	0.566152	0.132175	-0.042477
O20	O	1.066152	0.632175	0.457523
C21	C	0.482137	0.065984	-0.000047
C22	C	0.982137	0.565984	0.499953
C23	C	0.428480	0.065442	-0.000041
C24	C	0.928480	0.565442	0.499959
C25	C	0.095743	0.062025	-0.046317
C26	C	0.595743	0.562025	0.453683
C27	C	-0.105915	0.059964	-0.046324
C28	C	0.394085	0.559964	0.453676
O29	O	-0.132004	0.059676	-0.085663
O30	O	0.367996	0.559676	0.414337
N31	N	-0.131111	0.059708	-0.000067
N32	N	0.368889	0.559708	0.499933
C33	C	-0.105889	0.059965	0.046193
C34	C	0.394111	0.559965	0.546193
O35	O	-0.131946	0.059695	0.085537
O36	O	0.368054	0.559695	0.585537
C37	C	0.095769	0.062023	0.046199
C38	C	0.595769	0.562023	0.546199
C39	C	0.120961	0.062283	-0.000060
C40	C	0.620961	0.562283	0.499940
C41	C	0.120936	0.062285	-0.092573
C42	C	0.620936	0.562285	0.407427
C43	C	0.171347	0.062803	-0.092571
C44	C	0.671347	0.562803	0.407429
C45	C	0.196565	0.063061	-0.046313
C46	C	0.696565	0.563061	0.453687
C47	C	0.171372	0.062801	-0.000058
C48	C	0.671372	0.562801	0.499942
C49	C	0.120990	0.062276	0.092459
C50	C	0.620990	0.562276	0.592459
C51	C	0.171408	0.062789	0.092457
C52	C	0.671408	0.562789	0.592457
C53	C	0.196601	0.063050	0.046197
C54	C	0.696601	0.563050	0.546197
C55	C	0.247002	0.063578	0.046201
C56	C	0.747002	0.563578	0.546201
N57	N	0.272198	0.063833	-0.000055
N58	N	0.772198	0.563833	0.499945
C59	C	0.246980	0.063575	-0.046312
C60	C	0.746980	0.563575	0.453688
C61	C	-0.211763	0.058885	0.046187
C62	C	0.288237	0.558885	0.546187
C63	C	-0.262177	0.058372	0.046186
C64	C	0.237823	0.558372	0.546186
C65	C	-0.262199	0.058370	-0.046331
C66	C	0.237801	0.558370	0.453669
C67	C	-0.211784	0.058887	-0.046329
C68	C	0.288216	0.558887	0.453671
C69	C	-0.186567	0.059141	-0.000069
C70	C	0.313433	0.559141	0.499931
C71	C	0.352847	0.064663	-0.046305
C72	C	0.852847	0.564663	0.453695
C73	C	0.403262	0.065184	-0.046298
C74	C	0.903262	0.565184	0.453702
C75	C	0.403280	0.065183	0.046218
C76	C	0.903280	0.565183	0.546218
C77	C	0.352869	0.064665	0.046213
C78	C	0.852869	0.564665	0.546213
C79	C	0.327654	0.064404	-0.000053
C80	C	0.827654	0.564404	0.499947
O81	O	0.273122	0.063860	0.085520
O82	O	0.773122	0.563860	0.585520
O83	O	0.273047	0.063834	-0.085650
O84	O	0.773047	0.563834	0.414350
C85	C	0.045332	0.061507	-0.046319
C86	C	0.545332	0.561507	0.453681
C87	C	0.020139	0.061247	-0.000064
C88	C	0.520139	0.561247	0.499936
C89	C	0.045357	0.061505	0.046193
C90	C	0.545357	0.561505	0.546193
C91	C	-0.030275	0.060734	-0.000065
C92	C	0.469725	0.560734	0.499935
C93	C	-0.055494	0.060476	-0.046323
C94	C	0.444506	0.560476	0.453677
C95	C	-0.030298	0.060731	-0.092579
C96	C	0.469702	0.560731	0.407421
C97	C	0.020114	0.061249	-0.092577
C98	C	0.520114	0.561249	0.407423
C99	C	0.020161	0.061250	0.092449
C100	C	0.520161	0.561250	0.592449
C101	C	-0.030250	0.060732	0.092443
C102	C	0.469750	0.560732	0.592443
C103	C	-0.055468	0.060474	0.046186
C104	C	0.444532	0.560474	0.546186
C105	C	0.574732	-0.026627	-0.000070
C106	C	1.074732	0.473373	0.499930
C107	C	0.574179	-0.080282	-0.000074
C108	C	1.074179	0.419718	0.499926
C109	C	0.614884	-0.419105	-0.000053
C110	C	1.114884	0.080895	0.499947
C111	C	0.612833	-0.620764	-0.000046
C112	C	1.112833	-0.120764	0.499954
O113	O	0.650055	-0.652027	-0.000028
O114	O	1.150055	-0.152027	0.499972
N115	N	0.568496	-0.639879	-0.000041
N116	N	1.068496	-0.139879	0.499959
C117	C	0.524670	-0.608576	-0.000034
C118	C	1.024670	-0.108576	0.499966
O119	O	0.486912	-0.629462	-0.000024
O120	O	0.986912	-0.129462	0.499976
C121	C	0.526721	-0.406918	-0.000038
C122	C	1.026721	0.093082	0.499962
C123	C	0.571060	-0.387805	-0.000048
C124	C	1.071060	0.112195	0.499952
C125	C	0.659220	-0.399992	-0.000063
C126	C	1.159220	0.100008	0.499937
C127	C	0.659732	-0.349580	-0.000068
C128	C	1.159732	0.150420	0.499932
C129	C	0.615908	-0.318281	-0.000062
C130	C	1.115908	0.181719	0.499938
C131	C	0.571573	-0.337394	-0.000053
C132	C	1.071573	0.162606	0.499947
C133	C	0.482895	-0.375615	-0.000028
C134	C	0.982895	0.124385	0.499972
C135	C	0.483412	-0.325198	-0.000027
C136	C	0.983412	0.174802	0.499973
C137	C	0.527751	-0.306086	-0.000037
C138	C	1.027751	0.193914	0.499963
C139	C	0.528262	-0.255683	-0.000052
C140	C	1.028262	0.244317	0.499948
N141	N	0.572598	-0.236567	-0.000057
N142	N	1.072598	0.263433	0.499943
C143	C	0.616421	-0.267867	-0.000062
C144	C	1.116421	0.232133	0.499938
C145	C	0.523596	-0.714450	-0.000033
C146	C	1.023596	-0.214450	0.499967
C147	C	0.523083	-0.764864	-0.000033
C148	C	1.023083	-0.264864	0.499967
C149	C	0.611246	-0.777049	-0.000044
C150	C	1.111246	-0.277049	0.499956
C151	C	0.611759	-0.726633	-0.000048
C152	C	1.111759	-0.226633	0.499952
C153	C	0.567932	-0.695335	-0.000038
C154	C	1.067932	-0.195335	0.499962
C155	C	0.617494	-0.161998	-0.000073
C156	C	1.117494	0.338002	0.499927
C157	C	0.618002	-0.111581	-0.000079
C158	C	1.118002	0.388419	0.499921
C159	C	0.529839	-0.099401	-0.000066
C160	C	1.029839	0.400599	0.499934
C161	C	0.529331	-0.149813	-0.000062
C162	C	1.029331	0.350187	0.499938
C163	C	0.573162	-0.181111	-0.000063
C164	C	1.073162	0.318889	0.499937
O165	O	0.491060	-0.224391	-0.000064
O166	O	0.991060	0.275609	0.499936
O167	O	0.654174	-0.246971	-0.000061
O168	O	1.154174	0.253029	0.499939
C169	C	0.614372	-0.469517	-0.000049
C170	C	1.114372	0.030483	0.499951
C171	C	0.570036	-0.488629	-0.000039
C172	C	1.070036	0.011371	0.499961
C173	C	0.526213	-0.457330	-0.000034
C174	C	1.026213	0.042670	0.499966
C175	C	0.569523	-0.539043	-0.000039
C176	C	1.069523	-0.039043	0.499961
C177	C	0.613346	-0.570343	-0.000044
C178	C	1.113346	-0.070343	0.499956
C179	C	0.657683	-0.551228	-0.000049
C180	C	1.157683	-0.051228	0.499951
C181	C	0.658195	-0.500816	-0.000054
C182	C	1.158195	-0.000816	0.499946
C183	C	0.481876	-0.476445	-0.000029
C184	C	0.981876	0.023555	0.499971
C185	C	0.481367	-0.526857	-0.000025
C186	C	0.981367	-0.026857	0.499975
C187	C	0.525191	-0.558157	-0.000030
C188	C	1.025191	-0.058157	0.499970
C189	C	0.658949	0.057571	-0.000068
C190	C	1.158949	0.557571	0.499932
C191	C	0.712605	0.058114	-0.000071
C192	C	1.212605	0.558114	0.499929
C193	C	0.566353	0.150182	-0.000046
C194	C	1.066353	0.650182	0.499954
C195	C	0.566906	0.203837	-0.000038
C196	C	1.066906	0.703837	0.499962
N197	N	0.570497	0.061776	-0.120820
N198	N	1.070497	0.561776	0.379180
C199	C	0.537423	0.094877	-0.526779
C200	C	1.037423	0.594877	-0.026779
C201	C	0.537399	0.094877	-0.313120
C202	C	1.037399	0.594877	0.186880
O203	O	0.509221	0.123016	-0.285494
O204	O	1.009221	0.623016	0.214506
N205	N	0.570512	0.061774	-0.286403
N206	N	1.070512	0.561774	0.213597
C207	C	0.603632	0.028667	-0.313105
C208	C	1.103632	0.528667	0.186895
O209	O	0.631792	0.000508	-0.285478
O210	O	1.131792	0.500508	0.214522
C211	C	0.603652	0.028665	-0.526762
C212	C	1.103652	0.528665	-0.026762
C213	C	0.570540	0.061773	-0.553476
C214	C	1.070540	0.561773	-0.053476
C215	C	0.504313	0.127982	-0.553493
C216	C	1.004313	0.627982	-0.053493
C217	C	0.504321	0.127983	-0.606904
C218	C	1.004321	0.627983	-0.106904
C219	C	0.537438	0.094880	-0.633602
C220	C	1.037438	0.594880	-0.133602
C221	C	0.570548	0.061774	-0.606888
C222	C	1.070548	0.561774	-0.106888
C223	C	0.636769	-0.004444	-0.553463
C224	C	1.136769	0.495556	-0.053463
C225	C	0.636770	-0.004442	-0.606880
C226	C	1.136770	0.495558	-0.106880
C227	C	0.603658	0.028666	-0.633594
C228	C	1.103658	0.528666	-0.133594
C229	C	0.603674	0.028672	-0.686997
C230	C	1.103674	0.528672	-0.186997
N231	N	0.570560	0.061775	-0.713713
N232	N	1.070560	0.561775	-0.213713
C233	C	0.537443	0.094878	-0.687016
C234	C	1.037443	0.594878	-0.187016
C235	C	0.603619	0.028671	-0.200931
C236	C	1.103619	0.528671	0.299069
C237	C	0.603615	0.028672	-0.147517
C238	C	1.103615	0.528672	0.352483
C239	C	0.537382	0.094882	-0.147536
C240	C	1.037382	0.594882	0.352464
C241	C	0.537389	0.094883	-0.200951
C242	C	1.037389	0.594883	0.299049
C243	C	0.570506	0.061774	-0.227648
C244	C	1.070506	0.561774	0.272352
C245	C	0.537462	0.094879	-0.799184
C246	C	1.037462	0.594879	-0.299184
C247	C	0.537474	0.094879	-0.852600
C248	C	1.037474	0.594879	-0.352600
C249	C	0.603705	0.028668	-0.852576
C250	C	1.103705	0.528668	-0.352576
C251	C	0.603695	0.028670	-0.799165
C252	C	1.103695	0.528670	-0.299165
C253	C	0.570570	0.061777	-0.772470
C254	C	1.070570	0.561777	-0.272470
O255	O	0.631834	0.000544	-0.714655
O256	O	1.131834	0.500544	-0.214655
O257	O	0.509279	0.123026	-0.714652
O258	O	1.009279	0.623026	-0.214652
C259	C	0.537415	0.094875	-0.473367
C260	C	1.037415	0.594875	0.026633
C261	C	0.570524	0.061770	-0.446653
C262	C	1.070524	0.561770	0.053347
C263	C	0.603642	0.028667	-0.473351
C264	C	1.103642	0.528667	0.026649
C265	C	0.570520	0.061771	-0.393239
C266	C	1.070520	0.561771	0.106761
C267	C	0.537402	0.094875	-0.366542
C268	C	1.037402	0.594875	0.133458
C269	C	0.504289	0.127978	-0.393258
C270	C	1.004289	0.627978	0.106742
C271	C	0.504297	0.127979	-0.446670
C272	C	1.004297	0.627979	0.053330
C273	C	0.636755	-0.004436	-0.446634
C274	C	1.136755	0.495564	0.053366
C275	C	0.636745	-0.004434	-0.393223
C276	C	1.136745	0.495566	0.106777
C277	C	0.603627	0.028670	-0.366525
C278	C	1.103627	0.528670	0.133475
N279	N	0.570592	0.061775	0.120703
N280	N	1.070592	0.561775	0.620703
H281	H	-0.050758	0.060524	0.130116
H282	H	0.449242	0.560524	0.630116
H283	H	0.446789	-0.391167	-0.000016
H284	H	0.946789	0.108833	0.499984
H285	H	0.486977	-0.780420	-0.000034
H286	H	0.986977	-0.280420	0.499966
H287	H	0.040689	0.061459	0.130118
H288	H	0.540689	0.561459	0.630118
H289	H	0.510426	0.121842	-0.222699
H290	H	1.010426	0.621842	0.277301
H291	H	-0.191276	0.059099	-0.083998
H292	H	0.308724	0.559099	0.416002
H293	H	0.630588	0.001710	-0.222664
H294	H	1.130588	0.501710	0.277336
F295	F	-0.288985	0.058103	0.095421
F296	F	0.211015	0.558103	0.595421
H297	H	0.510416	0.121837	-0.125790
H298	H	1.010416	0.621837	0.374210
F299	F	0.658950	-0.706298	-0.000058
F300	F	1.158950	-0.206298	0.499942
H301	H	0.423771	0.065397	-0.083970
H302	H	0.923771	0.565397	0.416030
F303	F	0.046919	0.061526	-0.141812
F304	F	0.546919	0.561526	0.358188
H305	H	0.663731	-0.031404	-0.531720
H306	H	1.163731	0.468596	-0.031720
H307	H	0.510488	0.121838	-0.777455
H308	H	1.010488	0.621838	-0.277455
H309	H	0.487905	-0.688970	-0.000026
H310	H	0.987905	-0.188970	0.499974
F311	F	0.436764	-0.291890	-0.000016
F312	F	0.936764	0.208110	0.499984
F313	F	0.469054	0.163217	-0.475094
F314	F	0.969054	0.663217	0.024906
H315	H	-0.282741	0.058161	-0.083996
H316	H	0.217259	0.558161	0.416004
H317	H	0.493226	-0.165375	-0.000068
H318	H	0.993226	0.334625	0.499932
F319	F	0.704323	-0.584547	-0.000057
F320	F	1.204323	-0.084547	0.499943
F321	F	0.638863	-0.006560	-0.119092
F322	F	1.138863	0.493440	0.380908
F323	F	0.198244	0.063058	0.141695
F324	F	0.698244	0.563058	0.641695
F325	F	-0.184930	0.059156	0.095427
F326	F	0.315070	0.559156	0.595427
F327	F	0.483202	-0.066081	-0.000061
F328	F	0.983202	0.433919	0.499939
F329	F	0.326018	0.064384	-0.095546
F330	F	0.826018	0.564384	0.404454
H331	H	0.694301	-0.485260	-0.000062
H332	H	1.194301	0.014740	0.499938
F333	F	0.094189	0.061998	0.141695
F334	F	0.594189	0.561998	0.641695
H335	H	0.663738	-0.031405	-0.628614
H336	H	1.163738	0.468595	-0.128614
H337	H	0.445258	-0.542413	-0.000021
H338	H	0.945258	-0.042413	0.499979
H339	H	0.477357	0.154941	-0.628651
H340	H	0.977357	0.654941	-0.128651
F341	F	0.435231	-0.443140	-0.000022
F342	F	0.935231	0.056860	0.499978
F343	F	0.664144	-0.195300	-0.000074
F344	F	1.164144	0.304700	0.499926
F345	F	0.502232	0.130119	-0.881028
F346	F	1.002232	0.630119	-0.381028
H347	H	-0.050840	0.060524	-0.130243
H348	H	0.449160	0.560524	0.369757
H349	H	0.477342	0.154939	-0.531760
H350	H	0.977342	0.654939	-0.031760
H351	H	0.646929	-0.802541	-0.000048
H352	H	1.146929	-0.302541	0.499952
H353	H	0.630663	0.001715	-0.777414
H354	H	1.130663	0.501715	-0.277414
H355	H	0.630671	0.001717	-0.874322
H356	H	1.130671	0.501717	-0.374322
F357	F	0.665196	-0.091244	-0.000090
F358	F	1.165196	0.408756	0.499910
F359	F	0.469044	0.163211	-0.364835
F360	F	0.969044	0.663211	0.135165
F361	F	0.671992	-0.039672	-0.364797
F362	F	1.171992	0.460328	0.135203
H363	H	0.663723	-0.031394	-0.468367
H364	H	1.163723	0.468606	0.031633
H365	H	0.191855	0.063013	-0.130240
H366	H	0.691855	0.563013	0.369760
H367	H	0.100409	0.062074	-0.130243
H368	H	0.600409	0.562074	0.369757
F369	F	0.430128	0.065456	0.095446
F370	F	0.930128	0.565456	0.595446
F371	F	0.706924	-0.329246	-0.000067
F372	F	1.206924	0.170754	0.499933
F373	F	0.705867	-0.433296	-0.000068
F374	F	1.205867	0.066704	0.499932
F375	F	0.326055	0.064396	0.095446
F376	F	0.826055	0.564396	0.595446
