data_functionalizedCrystal
_audit_creation_method	'MofGen! by Chris Wilmer'
_symmetry_space_group_name_H-M	'P1'
_symmetry_Int_Tables_number	1
_symmetry_cell_setting	triclinic
loop_
_symmetry_equiv_pos_as_xyz
  x,y,z
_cell_length_a	6.817900
_cell_length_b	16.305597
_cell_length_c	19.453114
_cell_angle_alpha	95.862248
_cell_angle_beta	101.709288
_cell_angle_gamma	103.455834
loop_
_atom_site_label
_atom_site_type_symbol
_atom_site_fract_x
_atom_site_fract_y
_atom_site_fract_z
V1	V	-4.006694	-0.117595	-0.219242
O2	O	-3.994747	0.004747	-0.214820
O3	O	-3.958196	-0.232303	-0.217981
O4	O	-3.949610	-0.116183	-0.314752
O5	O	-4.003392	-0.112176	-0.117379
V6	V	-4.491459	-0.102915	-0.207029
O7	O	-4.265226	-0.149798	-0.246031
O8	O	-4.683125	-0.070712	-0.180240
O9	O	-4.316750	0.011792	-0.208290
O10	O	-4.620803	-0.225258	-0.211450
O11	O	-4.612158	-0.108334	-0.308892
O12	O	-4.325337	-0.104327	-0.111519
C13	C	-3.803454	-0.260254	-0.214583
C14	C	-3.845031	-0.354031	-0.214189
C15	C	-3.996283	-0.694784	-0.212789
C16	C	-3.760904	-0.653937	-0.208954
C17	C	-3.717354	-0.556339	-0.209086
C18	C	-3.921244	-0.525732	-0.213484
C19	C	-4.010036	-0.550838	-0.148037
C20	C	-4.051884	-0.648368	-0.147553
C21	C	-4.128164	-0.674239	-0.281883
C22	C	-4.081225	-0.576731	-0.283095
C23	C	-3.878845	-0.430191	-0.213875
C24	C	-4.038685	-0.790324	-0.212394
C25	C	-3.792501	-0.112130	-0.338024
C26	C	-3.827111	-0.111735	-0.416105
C27	C	-4.025150	-0.115783	-0.456371
C28	C	-4.057671	-0.115411	-0.529737
C29	C	-3.892150	-0.111008	-0.562837
C30	C	-3.694081	-0.106954	-0.522561
C31	C	-3.661562	-0.107318	-0.449196
N32	N	-3.832369	-0.155559	-0.681718
N33	N	-3.863274	-0.155216	-0.751413
C34	C	-3.990117	-0.109912	-0.783883
N35	N	-4.084923	-0.064975	-0.744027
N36	N	-4.054023	-0.065322	-0.674327
C37	C	-3.927391	-0.110613	-0.642389
C38	C	-4.223431	-0.113556	-0.903700
C39	C	-4.255942	-0.113179	-0.977067
C40	C	-3.892351	-0.104730	-0.969890
C41	C	-3.859841	-0.105099	-0.896524
C42	C	-4.025390	-0.109516	-0.863434
C43	C	-4.134835	0.039739	-0.211685
C44	C	-4.072496	0.133515	-0.212084
C45	C	-4.145788	-0.108383	-0.088243
C46	C	-4.090416	-0.108774	-0.010161
H47	H	-4.096063	-0.706950	-0.331516
C48	C	-3.377104	-0.029981	-0.352898
C49	C	-3.443897	-0.102907	-0.404923
H50	H	-3.242731	-0.027269	-0.325567
H51	H	-3.471052	-0.032657	-0.322703
H52	H	-3.372199	0.019441	-0.375146
H53	H	-3.448816	-0.152330	-0.382676
H54	H	-3.349924	-0.100238	-0.435123
H55	H	-4.018058	-0.561235	-0.331522
H56	H	-4.300485	-0.701250	-0.285376
H57	H	-3.698582	-0.101811	-0.863741
H58	H	-3.757576	-0.101138	-0.996839
H59	H	-4.218945	-0.118713	-0.562528
H60	H	-4.160000	-0.530988	-0.148752
H61	H	-4.358230	-0.117150	-0.876756
C62	C	-3.604144	-0.608210	-0.310253
C63	C	-3.622287	-0.533747	-0.272211
H64	H	-3.545432	-0.594262	-0.349220
H65	H	-3.737515	-0.646823	-0.327425
H66	H	-3.517147	-0.634035	-0.279913
H67	H	-3.709297	-0.507924	-0.302549
H68	H	-3.488895	-0.495119	-0.255039
H69	H	-3.710912	-0.684603	-0.255532
H70	H	-4.417209	-0.116470	-1.009849
H71	H	-4.159955	-0.119376	-0.429433
C72	C	-3.482798	-0.028760	-0.591308
C73	C	-3.512140	-0.102116	-0.558944
H74	H	-3.370476	-0.025774	-0.613771
H75	H	-3.452595	0.020363	-0.556322
H76	H	-3.605418	-0.031128	-0.625789
H77	H	-3.389524	-0.099744	-0.524459
H78	H	-3.542331	-0.151251	-0.593933
C79	C	-3.658278	-0.760185	-0.143502
C80	C	-3.625104	-0.671873	-0.141671
H81	H	-3.574459	-0.771252	-0.101958
H82	H	-3.622624	-0.784120	-0.184354
H83	H	-3.800249	-0.785072	-0.145424
H84	H	-3.483135	-0.646986	-0.139755
H85	H	-3.660743	-0.647927	-0.100808
C86	C	-3.512093	-0.421324	-0.141404
C87	C	-3.552195	-0.509576	-0.141619
H88	H	-3.410121	-0.392456	-0.099751
H89	H	-3.636140	-0.404025	-0.142103
H90	H	-3.462786	-0.407640	-0.182207
H91	H	-3.601516	-0.523260	-0.100819
H92	H	-3.428123	-0.526881	-0.140913
C93	C	-3.811271	-0.584987	-0.036172
C94	C	-3.924494	-0.663618	-0.077382
H95	H	-3.732611	-0.594400	0.007147
H96	H	-3.904027	-0.552535	-0.026196
H97	H	-3.720361	-0.554704	-0.061517
H98	H	-4.015415	-0.693898	-0.052039
H99	H	-3.831728	-0.696083	-0.087356
C100	C	-4.324251	-0.645172	-0.086901
C101	C	-4.281391	-0.684620	-0.147488
H102	H	-4.465928	-0.667556	-0.086856
H103	H	-4.297156	-0.585390	-0.087204
H104	H	-4.238753	-0.655829	-0.045551
H105	H	-4.366879	-0.673958	-0.188838
H106	H	-4.308507	-0.744416	-0.147191
H107	H	-3.896622	-0.515019	-0.096507
H108	H	-4.232924	-0.556927	-0.290370
