data_functionalizedCrystal
_audit_creation_method	'MofGen! by Chris Wilmer'
_symmetry_space_group_name_H-M	'P1'
_symmetry_Int_Tables_number	1
_symmetry_cell_setting	triclinic
loop_
_symmetry_equiv_pos_as_xyz
  x,y,z
_cell_length_a	19.805407
_cell_length_b	14.908520
_cell_length_c	19.805399
_cell_angle_alpha	86.730950
_cell_angle_beta	90.015116
_cell_angle_gamma	93.317992
loop_
_atom_site_label
_atom_site_type_symbol
_atom_site_fract_x
_atom_site_fract_y
_atom_site_fract_z
Zn1	Zn	1.019183	-0.359232	0.398240
Zn2	Zn	1.352516	-0.025898	0.731573
Zn3	Zn	1.685849	0.307435	1.064907
Zn4	Zn	1.012578	-0.510101	0.291583
Zn5	Zn	1.345912	-0.176767	0.624917
Zn6	Zn	1.679245	0.156566	0.958250
Zn7	Zn	0.906002	-0.359253	0.285069
Zn8	Zn	1.239335	-0.025920	0.618402
Zn9	Zn	1.572668	0.307413	0.951736
Zn10	Zn	0.899439	-0.510042	0.404731
Zn11	Zn	1.232772	-0.176708	0.738065
Zn12	Zn	1.566106	0.156625	1.071398
O13	O	0.959300	-0.434657	0.344906
O14	O	1.292634	-0.101324	0.678239
O15	O	1.625967	0.232010	1.011573
O16	O	1.113022	-0.379260	0.384102
O17	O	1.446356	-0.045927	0.717435
O18	O	1.779689	0.287406	1.050768
O19	O	0.998423	-0.490124	0.196004
O20	O	1.331757	-0.156791	0.529338
O21	O	1.665090	0.176543	0.862671
O22	O	0.926526	-0.233006	0.294639
O23	O	1.259859	0.100328	0.627972
O24	O	1.593192	0.433661	0.961305
O25	O	1.108170	-0.490103	0.305741
O26	O	1.441504	-0.156770	0.639075
O27	O	1.774837	0.176564	0.972408
O28	O	1.009679	-0.232990	0.377785
O29	O	1.343013	0.100343	0.711118
O30	O	1.676346	0.433677	1.044452
O31	O	0.920122	-0.379297	0.191218
O32	O	1.253455	-0.045964	0.524551
O33	O	1.586789	0.287370	0.857885
O34	O	0.810415	-0.379240	0.300933
O35	O	1.143749	-0.045907	0.634266
O36	O	1.477082	0.287427	0.967599
O37	O	0.915341	-0.490003	0.498585
O38	O	1.248674	-0.156670	0.831919
O39	O	1.582007	0.176664	1.165252
O40	O	0.805594	-0.490024	0.388848
O41	O	1.138927	-0.156690	0.722181
O42	O	1.472260	0.176643	1.055515
O43	O	1.003316	-0.379203	0.493816
O44	O	1.336649	-0.045870	0.827150
O45	O	1.669982	0.287463	1.160483
O46	O	0.992060	-0.636337	0.312036
O47	O	1.325393	-0.303004	0.645369
O48	O	1.658727	0.030329	0.978702
O49	O	0.908937	-0.636294	0.395165
O50	O	1.242270	-0.302961	0.728498
O51	O	1.575603	0.030372	1.061831
C52	C	0.783446	-0.434629	0.344888
C53	C	1.116779	-0.101295	0.678222
C54	C	1.450112	0.232038	1.011555
C55	C	0.708213	-0.434638	0.344898
C56	C	1.041547	-0.101305	0.678231
C57	C	1.374880	0.232028	1.011564
C58	C	0.675392	-0.377025	0.385770
C59	C	1.008725	-0.043691	0.719103
C60	C	1.342058	0.289642	1.052437
C61	C	0.604703	-0.377029	0.385773
C62	C	0.938036	-0.043696	0.719106
C63	C	1.271370	0.289637	1.052440
C64	C	0.566837	-0.434653	0.344907
C65	C	0.900170	-0.101320	0.678240
C66	C	1.233504	0.232014	1.011573
C67	C	0.599663	-0.492269	0.304029
C68	C	0.932997	-0.158936	0.637363
C69	C	1.266330	0.174398	0.970696
C70	C	0.670351	-0.492259	0.304024
C71	C	1.003684	-0.158926	0.637357
C72	C	1.337018	0.174407	0.970690
C73	C	0.314588	-0.492310	0.304052
C74	C	0.647922	-0.158976	0.637385
C75	C	0.981255	0.174357	0.970719
C76	C	0.243896	-0.492317	0.304063
C77	C	0.577229	-0.158984	0.637396
C78	C	0.910563	0.174350	0.970729
C79	C	0.248941	-0.377080	0.385801
C80	C	0.582274	-0.043746	0.719135
C81	C	0.915607	0.289587	1.052468
C82	C	0.319628	-0.377070	0.385795
C83	C	0.652961	-0.043736	0.719129
C84	C	0.986295	0.289597	1.052462
C85	C	0.352448	-0.434682	0.344916
C86	C	0.685782	-0.101349	0.678249
C87	C	1.019115	0.231984	1.011583
C88	C	0.429097	-0.434675	0.344912
C89	C	0.762430	-0.101342	0.678246
C90	C	1.095764	0.231991	1.011579
C91	C	0.490189	-0.434665	0.344913
C92	C	0.823523	-0.101332	0.678247
C93	C	1.156856	0.232001	1.011580
C94	C	0.949088	-0.669050	0.355026
C95	C	1.282421	-0.335716	0.688360
C96	C	1.615755	-0.002383	1.021693
C97	C	0.944781	-0.769324	0.359378
C98	C	1.278114	-0.435991	0.692712
C99	C	1.611448	-0.102657	1.026045
C100	C	1.023333	-0.957734	0.281064
C101	C	1.356666	-0.624400	0.614397
C102	C	1.689999	-0.291067	0.947731
C103	C	1.019288	-1.051950	0.285151
C104	C	1.352621	-0.718617	0.618484
C105	C	1.685955	-0.385284	0.951818
C106	C	0.932651	-1.051975	0.371642
C107	C	1.265984	-0.718642	0.704976
C108	C	1.599318	-0.385309	1.038309
C109	C	0.936696	-0.957759	0.367555
C110	C	1.270029	-0.624425	0.700889
C111	C	1.603362	-0.291092	1.034222
C112	C	0.982037	-0.910641	0.322264
C113	C	1.315371	-0.577308	0.655597
C114	C	1.648704	-0.243975	0.988930
C115	C	0.986078	-0.816423	0.318174
C116	C	1.319411	-0.483090	0.651507
C117	C	1.652745	-0.149756	0.984841
C118	C	0.899445	-0.816450	0.404668
C119	C	1.232778	-0.483116	0.738002
C120	C	1.566111	-0.149783	1.071335
C121	C	0.895400	-0.910666	0.408755
C122	C	1.228734	-0.577333	0.742089
C123	C	1.562067	-0.244000	1.075422
C124	C	1.135842	-0.434686	0.344924
C125	C	1.469175	-0.101353	0.678257
C126	C	1.802509	0.231981	1.011591
C127	C	1.211073	-0.434698	0.344932
C128	C	1.544407	-0.101365	0.678265
C129	C	1.877740	0.231968	1.011599
C130	C	0.959333	-0.434594	0.521446
C131	C	1.292666	-0.101261	0.854779
C132	C	1.626000	0.232072	1.188113
C133	C	0.959347	-0.434568	0.596677
C134	C	1.292680	-0.101234	0.930010
C135	C	1.626013	0.232099	1.263344
C136	C	0.969571	-0.199349	0.334761
C137	C	1.302905	0.133985	0.668094
C138	C	1.636238	0.467318	1.001428
C139	C	0.973948	-0.099074	0.330438
C140	C	1.307281	0.234259	0.663771
C141	C	1.640615	0.567592	0.997105
C142	C	0.959310	-0.434654	0.169050
C143	C	1.292643	-0.101321	0.502383
C144	C	1.625977	0.232013	0.835717
C145	C	0.959438	-0.434427	0.093808
C146	C	1.292772	-0.101093	0.427142
C147	C	1.626105	0.232240	0.760475
C148	C	0.918588	-0.376855	0.629528
C149	C	1.251921	-0.043521	0.962862
C150	C	1.585254	0.289812	1.296195
C151	C	0.918598	-0.376837	0.700216
C152	C	1.251931	-0.043504	1.033549
C153	C	1.585264	0.289830	1.366883
C154	C	0.959371	-0.434529	0.738051
C155	C	1.292704	-0.101195	1.071384
C156	C	1.626038	0.232138	1.404718
C157	C	1.000132	-0.492248	0.705195
C158	C	1.333465	-0.158915	1.038528
C159	C	1.666798	0.174419	1.371862
C160	C	1.000117	-0.492269	0.634509
C161	C	1.333451	-0.158936	0.967842
C162	C	1.666784	0.174397	1.301175
C163	C	1.000189	-0.492164	0.990265
C164	C	1.333522	-0.158830	1.323598
C165	C	1.666856	0.174503	1.656931
C166	C	1.000201	-0.492136	1.060956
C167	C	1.333535	-0.158802	1.394289
C168	C	1.666868	0.174531	1.727622
C169	C	0.918669	-0.376731	1.055972
C170	C	1.252003	-0.043398	1.389305
C171	C	1.585336	0.289935	1.722639
C172	C	0.918655	-0.376753	0.985286
C173	C	1.251988	-0.043419	1.318619
C174	C	1.585322	0.289914	1.651952
C175	C	0.959413	-0.434475	0.952436
C176	C	1.292746	-0.101142	1.285769
C177	C	1.626079	0.232192	1.619103
C178	C	0.959400	-0.434494	0.875788
C179	C	1.292734	-0.101161	1.209122
C180	C	1.626067	0.232172	1.542455
C181	C	0.959387	-0.434505	0.814697
C182	C	1.292721	-0.101172	1.148030
C183	C	1.626054	0.232162	1.481364
H184	H	0.706218	-0.330103	0.419050
H185	H	1.039551	0.003230	0.752384
H186	H	1.372884	0.336564	1.085717
F187	F	1.043571	-0.553592	0.955312
F188	F	1.376904	-0.220258	1.288646
F189	F	1.710238	0.113075	1.621979
H190	H	0.885480	-0.329734	1.082727
H191	H	1.218813	0.003600	1.416060
H192	H	1.552147	0.336933	1.749393
H193	H	0.697073	-0.539174	0.270741
H194	H	1.030406	-0.205840	0.604074
H195	H	1.363740	0.127493	0.937407
F196	F	1.063242	-1.102066	0.241302
F197	F	1.396575	-0.768733	0.574635
F198	F	1.729908	-0.435400	0.907968
H199	H	1.060247	-0.919370	0.244181
H200	H	1.393580	-0.586037	0.577514
H201	H	1.726913	-0.252703	0.910848
F202	F	0.569775	-0.315711	0.429276
F203	F	0.903109	0.017623	0.762610
F204	F	1.236442	0.350956	1.095943
H205	H	0.895741	-1.090355	0.408521
H206	H	1.229074	-0.757021	0.741854
H207	H	1.562407	-0.423688	1.075187
H208	H	1.033326	-0.539226	0.736006
H209	H	1.366659	-0.205893	1.069339
H210	H	1.699993	0.127441	1.402673
H211	H	0.865817	-0.778096	0.438214
H212	H	1.199151	-0.444763	0.771548
H213	H	1.532484	-0.111430	1.104881
H214	H	1.022995	-0.778061	0.281294
H215	H	1.356329	-0.444727	0.614627
H216	H	1.689662	-0.111394	0.947960
F217	F	0.847150	-0.960822	0.456957
F218	F	1.180483	-0.627489	0.790291
F219	F	1.513816	-0.294155	1.123624
F220	F	0.875194	-0.315446	0.589267
F221	F	1.208527	0.017888	0.922601
F222	F	1.541861	0.351221	1.255934
H223	H	0.341302	-0.539222	0.270766
H224	H	0.674635	-0.205889	0.604099
H225	H	1.007969	0.127444	0.937433
H226	H	0.885405	-0.329845	0.726960
H227	H	1.218738	0.003489	1.060294
H228	H	1.552072	0.336822	1.393627
H229	H	0.350455	-0.330150	0.419075
H230	H	0.683789	0.003184	0.752409
H231	H	1.017122	0.336517	1.085742
F232	F	1.043599	-0.553543	1.101221
F233	F	1.376932	-0.220210	1.434555
F234	F	1.710266	0.113123	1.767888
F235	F	0.875261	-0.315346	0.945022
F236	F	1.208595	0.017987	1.278356
F237	F	1.541928	0.351320	1.611689
H238	H	1.033313	-0.539258	0.607762
H239	H	1.366646	-0.205925	0.941095
H240	H	1.699980	0.127408	1.274429
H241	H	0.213067	-0.539244	0.270782
H242	H	0.546400	-0.205910	0.604115
H243	H	0.879733	0.127423	0.937448
H244	H	0.222210	-0.330166	0.419085
H245	H	0.555543	0.003168	0.752418
H246	H	0.888877	0.336501	1.085752
H247	H	0.568827	-0.539183	0.270752
H248	H	0.902161	-0.205850	0.604085
H249	H	1.235494	0.127484	0.937419
