data_functionalizedCrystal
_audit_creation_method	'MofGen! by Chris Wilmer'
_symmetry_space_group_name_H-M	'P1'
_symmetry_Int_Tables_number	1
_symmetry_cell_setting	triclinic
loop_
_symmetry_equiv_pos_as_xyz
  x,y,z
_cell_length_a	19.077105
_cell_length_b	18.101395
_cell_length_c	19.076919
_cell_angle_alpha	92.272317
_cell_angle_beta	90.076224
_cell_angle_gamma	87.727498
loop_
_atom_site_label
_atom_site_type_symbol
_atom_site_fract_x
_atom_site_fract_y
_atom_site_fract_z
Zn1	Zn	1.058231	-0.358271	-0.440421
Zn2	Zn	1.558231	0.141729	0.059579
Zn3	Zn	1.062857	-0.477344	-0.322915
Zn4	Zn	1.562857	0.022656	0.177085
Zn5	Zn	0.945450	-0.348351	-0.318214
Zn6	Zn	1.445450	0.151649	0.181786
Zn7	Zn	0.940679	-0.476897	-0.435668
Zn8	Zn	1.440679	0.023103	0.064332
O9	O	1.001804	-0.415216	-0.379305
O10	O	1.501804	0.084784	0.120695
O11	O	1.157176	-0.378405	-0.428790
O12	O	1.657176	0.121595	0.071210
O13	O	1.051216	-0.456268	-0.223960
O14	O	1.551216	0.043732	0.276040
O15	O	0.960470	-0.246037	-0.334447
O16	O	1.460470	0.253963	0.165553
O17	O	1.160575	-0.465887	-0.342459
O18	O	1.660575	0.034113	0.157541
O19	O	1.043330	-0.253326	-0.424232
O20	O	1.543330	0.246674	0.075768
O21	O	0.964957	-0.361497	-0.220507
O22	O	1.464957	0.138503	0.279493
O23	O	0.846486	-0.361064	-0.329838
O24	O	1.346486	0.138936	0.170162
O25	O	0.952340	-0.465126	-0.534630
O26	O	1.452340	0.034874	-0.034630
O27	O	0.842981	-0.455506	-0.416131
O28	O	1.342981	0.044494	0.083869
O29	O	1.038704	-0.377972	-0.538122
O30	O	1.538704	0.122028	-0.038122
O31	O	1.046590	-0.580914	-0.337850
O32	O	1.546590	-0.080914	0.162150
O33	O	0.956826	-0.580586	-0.420689
O34	O	1.456826	-0.080586	0.079311
C35	C	0.819237	-0.407161	-0.371959
C36	C	1.319237	0.092839	0.128041
C37	C	0.741133	-0.403733	-0.368833
C38	C	1.241133	0.096267	0.131167
C39	C	1.001711	-0.607621	-0.379280
C40	C	1.501711	-0.107621	0.120720
C41	C	1.001735	-0.689937	-0.379296
C42	C	1.501735	-0.189937	0.120704
C43	C	0.702636	-0.451363	-0.412222
C44	C	1.202636	0.048637	0.087778
C45	C	0.629249	-0.448133	-0.409288
C46	C	1.129249	0.051867	0.090712
C47	C	0.594361	-0.397276	-0.362962
C48	C	1.094361	0.102724	0.137038
C49	C	0.632863	-0.349642	-0.319571
C50	C	1.132863	0.150358	0.180429
C51	C	0.706248	-0.352869	-0.322509
C52	C	1.206248	0.147131	0.177491
C53	C	0.375075	-0.382341	-0.349369
C54	C	0.875075	0.117659	0.150631
C55	C	0.301684	-0.379119	-0.346433
C56	C	0.801684	0.120881	0.153567
C57	C	0.298076	-0.477610	-0.436152
C58	C	0.798076	0.022390	0.063848
C59	C	0.371463	-0.480836	-0.439082
C60	C	0.871463	0.019164	0.060918
C61	C	0.409959	-0.433198	-0.395694
C62	C	0.909959	0.066802	0.104306
N63	N	0.519348	-0.393975	-0.359960
N64	N	1.019348	0.106025	0.140040
N65	N	0.484970	-0.436497	-0.398700
N66	N	0.984970	0.063503	0.101300
C67	C	1.001887	-0.989036	-0.379340
C68	C	1.501887	-0.489036	0.120660
C69	C	0.945531	-0.957547	-0.431600
C70	C	1.445531	-0.457547	0.068400
C71	C	0.945280	-0.871910	-0.431419
C72	C	1.445280	-0.371910	0.068581
C73	C	1.001811	-0.840650	-0.379319
C74	C	1.501811	-0.340650	0.120681
C75	C	0.984741	-0.867911	-0.304458
C76	C	1.484741	-0.367911	0.195542
C77	C	0.984379	-0.953554	-0.304770
C78	C	1.484379	-0.453554	0.195230
C79	C	1.075459	-0.961424	-0.401293
C80	C	1.575459	-0.461424	0.098707
C81	C	1.074956	-0.875820	-0.402900
C82	C	1.574956	-0.375820	0.097100
C83	C	1.001770	-0.756788	-0.379302
C84	C	1.501770	-0.256788	0.120698
C85	C	1.001927	-1.072898	-0.379351
C86	C	1.501927	-0.572898	0.120649
C87	C	1.185084	-0.423303	-0.386679
C88	C	1.685084	0.076697	0.113321
C89	C	1.263188	-0.426749	-0.389822
C90	C	1.763188	0.073251	0.110178
C91	C	0.994474	-0.422606	-0.562585
C92	C	1.494474	0.077394	-0.062585
C93	C	0.991350	-0.425755	-0.640688
C94	C	1.491350	0.074245	-0.140688
C95	C	1.001916	-0.222060	-0.379345
C96	C	1.501916	0.277940	0.120655
C97	C	1.001964	-0.139749	-0.379363
C98	C	1.501964	0.360251	0.120637
C99	C	1.034846	-0.381860	-0.679200
C100	C	1.534846	0.118140	-0.179200
C101	C	1.031902	-0.384816	-0.752586
C102	C	1.531902	0.115184	-0.252586
C103	C	0.985466	-0.431671	-0.787458
C104	C	1.485466	0.068329	-0.287458
C105	C	0.941966	-0.475568	-0.748941
C106	C	1.441966	0.024432	-0.248941
C107	C	0.944906	-0.472608	-0.675556
C108	C	1.444906	0.027392	-0.175556
C109	C	0.971847	-0.445387	-1.006740
C110	C	1.471847	0.054613	-0.506740
C111	C	0.968911	-0.448346	-1.080130
C112	C	1.468911	0.051654	-0.580130
C113	C	1.058847	-0.357593	-1.083770
C114	C	1.558847	0.142407	-0.583770
C115	C	1.061786	-0.354640	-1.010384
C116	C	1.561786	0.145360	-0.510384
C117	C	1.018283	-0.398533	-0.971872
C118	C	1.518283	0.101467	-0.471872
N119	N	0.982458	-0.434696	-0.862471
N120	N	1.482458	0.065304	-0.362471
N121	N	1.021289	-0.395505	-0.896861
N122	N	1.521289	0.104495	-0.396861
C123	C	1.009146	-0.407803	-0.196739
C124	C	1.509146	0.092197	0.303261
C125	C	1.012406	-0.404451	-0.118642
C126	C	1.512406	0.095549	0.381358
H127	H	0.597908	-0.486918	-0.444619
H128	H	1.097908	0.013082	0.055381
C129	C	1.097128	-0.994052	-0.473026
C130	C	1.597128	-0.494052	0.026974
C131	C	1.162766	-0.968370	-0.490912
C132	C	1.662766	-0.468370	0.009088
C133	C	1.182746	-0.998420	-0.556984
C134	C	1.682746	-0.498420	-0.056984
H135	H	1.063426	-0.979414	-0.506986
H136	H	1.563426	-0.479414	-0.006986
H137	H	1.099872	-1.046502	-0.471749
H138	H	1.599872	-0.546502	0.028251
H139	H	1.160017	-0.915932	-0.492194
H140	H	1.660017	-0.415932	0.007806
H141	H	1.196483	-0.983007	-0.456970
H142	H	1.696483	-0.483007	0.043030
H143	H	1.185489	-1.050870	-0.555707
H144	H	1.685489	-0.550870	-0.055707
H145	H	1.149039	-0.983780	-0.590938
H146	H	1.649039	-0.483780	-0.090938
H147	H	1.227285	-0.981005	-0.569125
H148	H	1.727285	-0.481005	-0.069125
H149	H	0.737591	-0.314080	-0.287181
H150	H	1.237591	0.185920	0.212819
H151	H	1.117410	-0.981841	-0.363267
H152	H	1.617410	-0.481841	0.136733
C153	C	0.263675	-0.323954	-0.296177
C154	C	0.763675	0.176046	0.203823
C155	C	0.191168	-0.331333	-0.302887
C156	C	0.691168	0.168667	0.197113
C157	C	0.156132	-0.280529	-0.256606
C158	C	0.656132	0.219471	0.243394
H159	H	0.275234	-0.275132	-0.307000
H160	H	0.775234	0.224868	0.193000
H161	H	0.277526	-0.333318	-0.249402
H162	H	0.777526	0.166682	0.250598
H163	H	0.177323	-0.321964	-0.349651
H164	H	0.677323	0.178036	0.150349
H165	H	0.179588	-0.380143	-0.292058
H166	H	0.679588	0.119857	0.207942
H167	H	0.169982	-0.289893	-0.209831
H168	H	0.669982	0.210107	0.290169
H169	H	0.167696	-0.231711	-0.267434
H170	H	0.667696	0.268289	0.232566
H171	H	0.106933	-0.285534	-0.261148
H172	H	0.606933	0.214466	0.238852
H173	H	0.406410	-0.343557	-0.314034
H174	H	0.906410	0.156443	0.185966
C175	C	0.872454	-0.840897	-0.411660
C176	C	1.372454	-0.340897	0.088340
C177	C	0.828505	-0.899281	-0.399839
C178	C	1.328505	-0.399281	0.100161
C179	C	0.761414	-0.870740	-0.381621
C180	C	1.261414	-0.370740	0.118379
H181	H	0.853961	-0.812553	-0.448756
H182	H	1.353961	-0.312553	0.051244
H183	H	0.875247	-0.810283	-0.370212
H184	H	1.375247	-0.310283	0.129788
H185	H	0.825710	-0.929882	-0.441282
H186	H	1.325710	-0.429882	0.058718
H187	H	0.846976	-0.927630	-0.362739
H188	H	1.346976	-0.427630	0.137261
H189	H	0.764207	-0.840126	-0.340173
H190	H	1.264207	-0.340126	0.159827
H191	H	0.742928	-0.842396	-0.418720
H192	H	1.242928	-0.342396	0.081280
H193	H	0.731588	-0.910349	-0.373592
H194	H	1.231588	-0.410349	0.126408
H195	H	0.399864	-0.522250	-0.476804
H196	H	0.899864	-0.022250	0.023196
C197	C	0.594858	-0.294497	-0.269298
C198	C	1.094858	0.205503	0.230702
C199	C	0.522351	-0.301877	-0.275998
C200	C	1.022351	0.198123	0.224002
C201	C	0.487321	-0.251096	-0.229691
C202	C	0.987321	0.248904	0.270309
H203	H	0.606413	-0.245669	-0.280103
H204	H	1.106413	0.254331	0.219897
H205	H	0.608719	-0.303883	-0.222531
H206	H	1.108719	0.196117	0.277469
H207	H	0.508495	-0.292486	-0.322755
H208	H	1.008495	0.207514	0.177245
H209	H	0.510775	-0.350694	-0.265188
H210	H	1.010775	0.149306	0.234812
H211	H	0.501182	-0.260481	-0.182923
H212	H	1.001182	0.239519	0.317077
H213	H	0.498881	-0.202271	-0.240499
H214	H	0.998881	0.297729	0.259501
H215	H	0.438121	-0.256100	-0.234226
H216	H	0.938121	0.243900	0.265774
H217	H	1.024629	-0.847532	-0.264328
H218	H	1.524629	-0.347532	0.235672
H219	H	0.266725	-0.516393	-0.471476
H220	H	0.766725	-0.016393	0.028524
H221	H	0.955734	-0.980878	-0.487188
H222	H	1.455734	-0.480878	0.012812
C223	C	0.740382	-0.506605	-0.462593
C224	C	1.240382	-0.006605	0.037407
C225	C	0.690956	-0.547610	-0.499977
C226	C	1.190956	-0.047610	0.000023
C227	C	0.725699	-0.598498	-0.546395
C228	C	1.225699	-0.098498	-0.046395
H229	H	0.770066	-0.539071	-0.436886
H230	H	1.270066	-0.039071	0.063114
H231	H	0.767785	-0.480838	-0.494441
H232	H	1.267785	0.019162	0.005559
H233	H	0.663565	-0.573376	-0.468134
H234	H	1.163565	-0.073376	0.031866
H235	H	0.661270	-0.515164	-0.525699
H236	H	1.161270	-0.015164	-0.025699
H237	H	0.753102	-0.572731	-0.578242
H238	H	1.253102	-0.072731	-0.078242
H239	H	0.755382	-0.630959	-0.520682
H240	H	1.255382	-0.130959	-0.020682
H241	H	0.692169	-0.626322	-0.571770
H242	H	1.192169	-0.126322	-0.071770
H243	H	0.931637	-0.843494	-0.285943
H244	H	1.431637	-0.343494	0.214057
H245	H	0.955615	-0.853628	-0.486834
H246	H	1.455615	-0.353628	0.013166
H247	H	0.891266	-0.976217	-0.416994
H248	H	1.391266	-0.476217	0.083006
H249	H	1.087883	-0.858335	-0.458008
H250	H	1.587883	-0.358335	0.041992
H251	H	0.936434	-0.481139	-0.975393
H252	H	1.436434	0.018861	-0.475393
C253	C	0.912732	-0.976077	-0.280458
C254	C	1.412732	-0.476077	0.219542
C255	C	0.870179	-0.912596	-0.265622
C256	C	1.370179	-0.412596	0.234378
C257	C	0.804169	-0.933311	-0.243235
C258	C	1.304169	-0.433311	0.256765
H259	H	0.917891	-1.003791	-0.239387
H260	H	1.417891	-0.503791	0.260613
H261	H	0.891654	-1.005468	-0.316416
H262	H	1.391654	-0.505468	0.183584
H263	H	0.891253	-0.883217	-0.229666
H264	H	1.391253	-0.383217	0.270334
H265	H	0.865000	-0.884874	-0.306683
H266	H	1.365000	-0.384874	0.193317
H267	H	0.783090	-0.962703	-0.279193
H268	H	1.283090	-0.462703	0.220807
H269	H	0.809335	-0.961026	-0.202165
H270	H	1.309335	-0.461026	0.297835
H271	H	0.775287	-0.890244	-0.233172
H272	H	1.275287	-0.390244	0.266828
C273	C	1.036856	-0.981244	-0.250832
C274	C	1.536856	-0.481244	0.249168
C275	C	1.001943	-1.020566	-0.200642
C276	C	1.501943	-0.520566	0.299358
C277	C	1.050265	-1.046097	-0.150957
C278	C	1.550265	-0.546097	0.349043
H279	H	1.058654	-0.940329	-0.228472
H280	H	1.558654	-0.440329	0.271528
H281	H	1.071516	-1.012817	-0.273537
H282	H	1.571516	-0.512817	0.226463
H283	H	0.967296	-0.988995	-0.177939
H284	H	1.467296	-0.488995	0.322061
H285	H	0.980147	-1.061490	-0.222981
H286	H	1.480147	-0.561490	0.277019
H287	H	1.084925	-1.077671	-0.173662
H288	H	1.584925	-0.577671	0.326338
H289	H	1.072060	-1.005178	-0.128602
H290	H	1.572060	-0.505178	0.371398
H291	H	1.026585	-1.072786	-0.116901
H292	H	1.526585	-0.572786	0.383099
C293	C	1.133489	-0.847718	-0.356066
C294	C	1.633489	-0.347718	0.143934
C295	C	1.105141	-0.797895	-0.304654
C296	C	1.605141	-0.297895	0.195346
C297	C	1.159037	-0.772000	-0.261487
C298	C	1.659037	-0.272000	0.238513
H299	H	1.166345	-0.823423	-0.383554
H300	H	1.666345	-0.323423	0.116446
H301	H	1.156417	-0.888248	-0.334158
H302	H	1.656417	-0.388248	0.165842
H303	H	1.082224	-0.757371	-0.326560
H304	H	1.582224	-0.257371	0.173440
H305	H	1.072290	-0.822173	-0.277149
H306	H	1.572290	-0.322173	0.222851
H307	H	1.181965	-0.812531	-0.239580
H308	H	1.681965	-0.312531	0.260420
H309	H	1.191890	-0.747708	-0.288981
H310	H	1.691890	-0.247708	0.211019
H311	H	1.139809	-0.738198	-0.226595
H312	H	1.639809	-0.238198	0.273405
H313	H	1.072661	-0.343708	-0.650813
H314	H	1.572661	0.156292	-0.150813
H315	H	0.904154	-0.513715	-0.777340
H316	H	1.404154	-0.013715	-0.277340
H317	H	1.099601	-0.316487	-0.981996
H318	H	1.599601	0.183513	-0.481996
C319	C	0.897778	-0.520401	-0.633776
C320	C	1.397778	-0.020401	-0.133776
C321	C	0.912340	-0.595066	-0.652213
C322	C	1.412340	-0.095066	-0.152213
C323	C	0.868946	-0.639116	-0.613732
C324	C	1.368946	-0.139116	-0.113732
H325	H	0.850063	-0.508068	-0.643865
H326	H	1.350063	-0.008068	-0.143865
H327	H	0.906190	-0.511975	-0.585071
H328	H	1.406190	-0.011975	-0.085071
H329	H	0.903922	-0.603488	-0.700907
H330	H	1.403922	-0.103488	-0.200907
H331	H	0.960047	-0.607423	-0.642122
H332	H	1.460047	-0.107423	-0.142122
H333	H	0.877358	-0.630691	-0.565027
H334	H	1.377358	-0.130691	-0.065027
H335	H	0.821234	-0.626776	-0.623824
H336	H	1.321234	-0.126776	-0.123824
H337	H	0.878825	-0.689782	-0.626231
H338	H	1.378825	-0.189782	-0.126231
H339	H	1.067323	-0.349074	-0.783940
H340	H	1.567323	0.150926	-0.283940
C341	C	1.106033	-0.309807	-1.125491
C342	C	1.606033	0.190193	-0.625491
C343	C	1.091500	-0.235144	-1.107024
C344	C	1.591500	0.264856	-0.607024
C345	C	1.134960	-0.191099	-1.145436
C346	C	1.634960	0.308901	-0.645436
H347	H	1.097677	-0.318180	-1.174203
H348	H	1.597677	0.181820	-0.674203
H349	H	1.153734	-0.322198	-1.115350
H350	H	1.653734	0.177802	-0.615350
H351	H	1.043810	-0.222758	-1.117170
H352	H	1.543810	0.277242	-0.617170
H353	H	1.099859	-0.226749	-1.058318
H354	H	1.599859	0.273251	-0.558318
H355	H	1.182661	-0.203489	-1.135295
H356	H	1.682661	0.296511	-0.635295
H357	H	1.126601	-0.199478	-1.194146
H358	H	1.626601	0.300522	-0.694146
H359	H	1.125110	-0.140436	-1.132907
H360	H	1.625110	0.359564	-0.632907
H361	H	0.931095	-0.486502	-1.108520
H362	H	1.431095	0.013498	-0.608520
