data_functionalizedCrystal
_audit_creation_method	'MofGen! by Chris Wilmer'
_symmetry_space_group_name_H-M	'P1'
_symmetry_Int_Tables_number	1
_symmetry_cell_setting	triclinic
loop_
_symmetry_equiv_pos_as_xyz
  x,y,z
_cell_length_a	21.295418
_cell_length_b	21.295417
_cell_length_c	16.120256
_cell_angle_alpha	92.868749
_cell_angle_beta	92.858322
_cell_angle_gamma	90.046319
loop_
_atom_site_label
_atom_site_type_symbol
_atom_site_fract_x
_atom_site_fract_y
_atom_site_fract_z
Zn1	Zn	0.944261	-0.268438	-0.471777
Zn2	Zn	1.444261	0.231562	0.028223
Zn3	Zn	0.949511	-0.368364	-0.332356
Zn4	Zn	1.449511	0.131636	0.167644
Zn5	Zn	0.844332	-0.263141	-0.332336
Zn6	Zn	1.344332	0.236859	0.167664
Zn7	Zn	0.838957	-0.373698	-0.471673
Zn8	Zn	1.338957	0.126302	0.028327
O9	O	0.894265	-0.318410	-0.402035
O10	O	1.394265	0.181590	0.097965
O11	O	1.033044	-0.281678	-0.453334
O12	O	1.533044	0.218322	0.046666
O13	O	0.940005	-0.349956	-0.215693
O14	O	1.440005	0.150044	0.284307
O15	O	0.857640	-0.175755	-0.350868
O16	O	1.357640	0.324245	0.149132
O17	O	1.036902	-0.355093	-0.350903
O18	O	1.536902	0.144907	0.149097
O19	O	0.931057	-0.179647	-0.453314
O20	O	1.431057	0.320353	0.046686
O21	O	0.862731	-0.272649	-0.215678
O22	O	1.362731	0.227351	0.284322
O23	O	0.755532	-0.277822	-0.350767
O24	O	1.255532	0.222178	0.149233
O25	O	0.848479	-0.364185	-0.588348
O26	O	1.348479	0.135815	-0.088348
O27	O	0.751583	-0.359048	-0.453138
O28	O	1.251583	0.140952	0.046862
O29	O	0.925845	-0.286850	-0.588424
O30	O	1.425845	0.213150	-0.088424
O31	O	0.934793	-0.457159	-0.350802
O32	O	1.434793	0.042841	0.149198
O33	O	0.853570	-0.461079	-0.453158
O34	O	1.353570	0.038921	0.046842
C35	C	0.730717	-0.318440	-0.401939
C36	C	1.230717	0.181560	0.098061
C37	C	0.660750	-0.318468	-0.401918
C38	C	1.160750	0.181532	0.098082
C39	C	0.625846	-0.360813	-0.455143
C40	C	1.125846	0.139187	0.044857
C41	C	0.560103	-0.360799	-0.455180
C42	C	1.060103	0.139201	0.044820
C43	C	0.529265	-0.318446	-0.401978
C44	C	1.029265	0.181554	0.098022
C45	C	0.564176	-0.276093	-0.348750
C46	C	1.064176	0.223907	0.151250
C47	C	0.629919	-0.276104	-0.348720
C48	C	1.129919	0.223896	0.151280
N49	N	0.428786	-0.310733	-0.329063
N50	N	0.928786	0.189267	0.170937
N51	N	0.366333	-0.310727	-0.329094
N52	N	0.866333	0.189273	0.170906
C53	C	0.331187	-0.318409	-0.402067
C54	C	0.831187	0.181591	0.097933
N55	N	0.360853	-0.326111	-0.475009
N56	N	0.860853	0.173889	0.024991
N57	N	0.423311	-0.326121	-0.474977
N58	N	0.923311	0.173879	0.025023
C59	C	0.457979	-0.318429	-0.402005
C60	C	0.957979	0.181571	0.097995
C61	C	0.224996	-0.360741	-0.455336
C62	C	0.724996	0.139259	0.044664
C63	C	0.159251	-0.360723	-0.455375
C64	C	0.659251	0.139277	0.044625
C65	C	0.163327	-0.276020	-0.348937
C66	C	0.663327	0.223980	0.151063
C67	C	0.229070	-0.276035	-0.348906
C68	C	0.729070	0.223965	0.151094
C69	C	0.259901	-0.318399	-0.402104
C70	C	0.759901	0.181601	0.097896
C71	C	0.894184	-0.481960	-0.401989
C72	C	1.394184	0.018040	0.098011
C73	C	0.894206	-0.551928	-0.401997
C74	C	1.394206	-0.051928	0.098003
C75	C	0.936533	-0.582735	-0.348756
C76	C	1.436533	-0.082735	0.151244
C77	C	0.936562	-0.648479	-0.348774
C78	C	1.436562	-0.148479	0.151226
C79	C	0.894253	-0.683412	-0.402026
C80	C	1.394253	-0.183412	0.097974
C81	C	0.851923	-0.652597	-0.455278
C82	C	1.351923	-0.152597	0.044722
C83	C	0.851900	-0.586856	-0.455264
C84	C	1.351900	-0.086856	0.044736
N85	N	0.838943	-0.786935	-0.408349
N86	N	1.338943	-0.286935	0.091651
N87	N	0.838968	-0.849387	-0.408358
N88	N	1.338968	-0.349387	0.091642
C89	C	0.894322	-0.881489	-0.402074
C90	C	1.394322	-0.381489	0.097926
N91	N	0.949653	-0.848778	-0.395764
N92	N	1.449653	-0.348778	0.104236
N93	N	0.949628	-0.786321	-0.395751
N94	N	1.449628	-0.286321	0.104249
C95	C	0.894274	-0.754698	-0.402048
C96	C	1.394274	-0.254698	0.097952
C97	C	0.936683	-0.983582	-0.348850
C98	C	1.436683	-0.483582	0.151150
C99	C	0.936713	-1.049326	-0.348874
C100	C	1.436713	-0.549326	0.151126
C101	C	0.852069	-1.053444	-0.455374
C102	C	1.352069	-0.553444	0.044626
C103	C	0.852045	-0.987701	-0.455354
C104	C	1.352045	-0.487701	0.044646
C105	C	0.894351	-0.952773	-0.402087
C106	C	1.394351	-0.452773	0.097913
C107	C	1.058452	-0.318381	-0.402132
C108	C	1.558452	0.181619	0.097868
C109	C	1.128418	-0.318369	-0.402174
C110	C	1.628418	0.181631	0.097826
C111	C	0.885977	-0.326704	-0.619480
C112	C	1.385977	0.173296	-0.119480
C113	C	0.882445	-0.330238	-0.712142
C114	C	1.382445	0.169762	-0.212142
C115	C	0.894363	-0.154222	-0.402100
C116	C	1.394363	0.345778	0.097900
C117	C	0.894404	-0.084255	-0.402128
C118	C	1.394404	0.415745	0.097872
C119	C	0.912682	-0.299964	-0.923121
C120	C	1.412682	0.200036	-0.423121
C121	C	0.875976	-0.336664	-0.881791
C122	C	1.375976	0.163336	-0.381791
C123	C	0.879577	-0.333088	-0.787390
C124	C	1.379577	0.166912	-0.287390
C125	C	0.909082	-0.303540	-1.017531
C126	C	1.409082	0.196460	-0.517531
C127	C	0.902557	-0.310104	-0.185437
C128	C	1.402557	0.189896	0.314563
C129	C	0.906211	-0.306392	-0.092775
C130	C	1.406211	0.193608	0.407225
H131	H	0.539064	-0.241608	-0.305434
H132	H	1.039064	0.258392	0.194566
C133	C	0.129416	-0.229430	-0.290417
C134	C	0.629416	0.270570	0.209583
H135	H	0.159622	-0.204210	-0.258715
H136	H	0.659622	0.295790	0.241285
H137	H	0.105109	-0.252072	-0.254046
H138	H	0.605109	0.247928	0.245954
H139	H	0.102601	-0.203251	-0.322394
H140	H	0.602601	0.296749	0.177606
H141	H	0.946809	-0.265860	-0.887608
H142	H	1.446809	0.234140	-0.387608
H143	H	0.971184	-1.074408	-0.305520
H144	H	1.471184	-0.574408	0.194480
C145	C	0.120858	-0.407313	-0.513914
C146	C	0.620858	0.092687	-0.013914
H147	H	0.148638	-0.432549	-0.545581
H148	H	0.648638	0.067451	-0.045581
H149	H	0.093867	-0.384670	-0.550316
H150	H	0.593867	0.115330	-0.050316
H151	H	0.096388	-0.433475	-0.481948
H152	H	0.596388	0.066525	0.018052
C153	C	0.805385	-0.691018	-0.513856
C154	C	1.305385	-0.191018	-0.013856
H155	H	0.780175	-0.663252	-0.545569
H156	H	1.280175	-0.163252	-0.045569
H157	H	0.779201	-0.715490	-0.481929
H158	H	1.279201	-0.215490	0.018071
H159	H	0.828071	-0.718009	-0.550227
H160	H	1.328071	-0.218009	-0.050227
C161	C	0.267466	-0.229463	-0.290348
C162	C	0.767466	0.270537	0.209652
H163	H	0.239687	-0.204240	-0.258661
H164	H	0.739687	0.295760	0.241339
H165	H	0.291943	-0.203296	-0.322289
H166	H	0.791943	0.296704	0.177711
H167	H	0.294451	-0.252124	-0.253951
H168	H	0.794451	0.247876	0.246049
H169	H	0.971031	-0.673567	-0.305419
H170	H	1.471031	-0.173567	0.194581
C171	C	0.829873	-0.382744	-0.929759
C172	C	1.329873	0.117256	-0.429759
H173	H	0.807314	-0.405299	-0.891412
H174	H	1.307314	0.094701	-0.391412
H175	H	0.852668	-0.411427	-0.963744
H176	H	1.352668	0.088573	-0.463744
H177	H	0.801186	-0.359929	-0.963709
H178	H	1.301186	0.140071	-0.463709
C179	C	0.805335	-0.552966	-0.513828
C180	C	1.305335	-0.052966	-0.013828
H181	H	0.780139	-0.583185	-0.545544
H182	H	1.280139	-0.083185	-0.045544
H183	H	0.827997	-0.528663	-0.550183
H184	H	1.327997	-0.028663	-0.050183
H185	H	0.779132	-0.526149	-0.481878
H186	H	1.279132	-0.026149	0.018122
H187	H	0.817576	-0.962616	-0.498705
H188	H	1.317576	-0.462616	0.001295
H189	H	0.650945	-0.395308	-0.498462
H190	H	1.150945	0.104692	0.001538
H191	H	0.531679	-0.395281	-0.498525
H192	H	1.031679	0.104719	0.001475
C193	C	0.983075	-0.544319	-0.290174
C194	C	1.483075	-0.044319	0.209826
H195	H	1.008291	-0.572087	-0.258474
H196	H	1.508291	-0.072087	0.241526
H197	H	0.960397	-0.517325	-0.253805
H198	H	1.460397	-0.017325	0.246195
H199	H	1.009260	-0.519852	-0.322112
H200	H	1.509260	-0.019852	0.177888
H201	H	0.250100	-0.395233	-0.498658
H202	H	0.750100	0.104767	0.001342
C203	C	0.668314	-0.229526	-0.290166
C204	C	1.168314	0.270474	0.209834
H205	H	0.640535	-0.204301	-0.258482
H206	H	1.140535	0.295699	0.241518
H207	H	0.692792	-0.203361	-0.322110
H208	H	1.192792	0.296639	0.177890
H209	H	0.695298	-0.252186	-0.253767
H210	H	1.195298	0.247814	0.246233
C211	C	0.983223	-0.945160	-0.290269
C212	C	1.483223	-0.445160	0.209731
H213	H	1.008443	-0.972926	-0.258571
H214	H	1.508443	-0.472926	0.241429
H215	H	0.960544	-0.918168	-0.253897
H216	H	1.460544	-0.418168	0.246103
H217	H	1.009405	-0.920688	-0.322207
H218	H	1.509405	-0.420688	0.177793
H219	H	0.817623	-1.081886	-0.498736
H220	H	1.317623	-0.581886	0.001264
