data_functionalizedCrystal
_audit_creation_method	'MofGen! by Chris Wilmer'
_symmetry_space_group_name_H-M	'P1'
_symmetry_Int_Tables_number	1
_symmetry_cell_setting	triclinic
loop_
_symmetry_equiv_pos_as_xyz
  x,y,z
_cell_length_a	10.685901
_cell_length_b	16.959453
_cell_length_c	10.686551
_cell_angle_alpha	94.408900
_cell_angle_beta	90.348291
_cell_angle_gamma	85.656731
loop_
_atom_site_label
_atom_site_type_symbol
_atom_site_fract_x
_atom_site_fract_y
_atom_site_fract_z
Zn1	Zn	1.972164	-0.382221	0.561841
Zn2	Zn	1.955914	-0.523727	0.352074
Zn3	Zn	1.746290	-0.380736	0.368217
Zn4	Zn	1.762354	-0.503525	0.577903
O5	O	1.859181	-0.447552	0.465009
O6	O	2.145543	-0.410068	0.520536
O7	O	1.914584	-0.512592	0.178672
O8	O	1.776331	-0.270324	0.393935
O9	O	2.133604	-0.514032	0.366421
O10	O	1.942279	-0.271415	0.536190
O11	O	1.760574	-0.407537	0.190533
O12	O	1.572887	-0.387948	0.409510
O13	O	1.803709	-0.479601	0.751315
O14	O	1.584689	-0.478161	0.563566
O15	O	1.957855	-0.390479	0.739514
O16	O	1.930160	-0.631656	0.381997
O17	O	1.787952	-0.616814	0.547913
C18	C	1.533274	-0.430702	0.490034
C19	C	1.393851	-0.423511	0.500769
C20	C	1.859072	-0.652915	0.464971
C21	C	1.859144	-0.740775	0.464988
C22	C	1.945704	-1.112759	0.539224
C23	C	1.773022	-1.111752	0.390952
C24	C	1.772973	-1.029206	0.390927
C25	C	1.859290	-0.988431	0.465053
C26	C	1.945656	-1.030204	0.539204
C27	C	1.686600	-0.987426	0.316787
C28	C	1.686547	-0.904874	0.316760
C29	C	1.772871	-0.864098	0.390880
C30	C	1.859241	-0.905876	0.465033
C31	C	1.945558	-0.865102	0.539159
C32	C	2.031936	-0.906879	0.613306
C33	C	2.031980	-0.989429	0.613324
C34	C	1.772827	-0.781549	0.390862
C35	C	1.945510	-0.782547	0.539139
C36	C	2.186360	-0.464469	0.439886
C37	C	2.325785	-0.471678	0.429181
C38	C	1.884387	-0.432952	0.792204
C39	C	1.895128	-0.426730	0.931635
C40	C	1.859325	-0.241388	0.465071
C41	C	1.859387	-0.153533	0.465098
C42	C	1.834145	-0.462043	0.139081
C43	C	1.823647	-0.468054	-0.000368
H44	H	2.015805	-0.749354	0.599496
H45	H	1.754234	-0.508195	0.951178
H46	H	1.702495	-0.747537	0.330499
H47	H	1.964553	-0.386593	0.980094
H48	H	2.102210	-0.873671	0.673666
N49	N	1.389867	-0.533593	0.337119
H50	H	1.483722	-0.530125	0.342244
H51	H	1.360118	-0.524034	0.249302
H52	H	1.345458	-0.376773	0.570279
N53	N	2.125133	-1.034484	0.693297
H54	H	2.179395	-1.074003	0.637908
H55	H	2.078508	-1.063462	0.755305
N56	N	2.038868	-1.157805	0.619198
H57	H	2.093141	-1.197318	0.563810
H58	H	1.992257	-1.186787	0.681209
N59	N	1.679930	-1.155726	0.311002
H60	H	1.693067	-1.214360	0.322265
H61	H	1.692633	-1.146320	0.219921
H62	H	1.616322	-1.020630	0.256442
H63	H	1.616216	-0.870864	0.256385
