data_functionalizedCrystal
_audit_creation_method	'MofGen! by Chris Wilmer'
_symmetry_space_group_name_H-M	'P1'
_symmetry_Int_Tables_number	1
_symmetry_cell_setting	triclinic
loop_
_symmetry_equiv_pos_as_xyz
  x,y,z
_cell_length_a	27.732048
_cell_length_b	27.732048
_cell_length_c	9.616153
_cell_angle_alpha	89.992780
_cell_angle_beta	89.998655
_cell_angle_gamma	82.642655
loop_
_atom_site_label
_atom_site_type_symbol
_atom_site_fract_x
_atom_site_fract_y
_atom_site_fract_z
O1	O	0.640929	0.057515	-0.115481
O2	O	0.974262	0.390848	0.217852
O3	O	1.307596	0.724182	0.551185
O4	O	0.500136	0.066260	-0.115525
O5	O	0.833469	0.399594	0.217808
O6	O	1.166802	0.732927	0.551141
O7	O	0.574905	-0.008509	-0.115475
O8	O	0.908238	0.324824	0.217858
O9	O	1.241572	0.658158	0.551191
O10	O	0.566160	0.132284	-0.115531
O11	O	0.899493	0.465618	0.217802
O12	O	1.232826	0.798951	0.551135
O13	O	0.574895	-0.008507	0.115816
O14	O	0.908228	0.324826	0.449149
O15	O	1.241562	0.658159	0.782483
O16	O	0.500125	0.066262	0.115766
O17	O	0.833459	0.399596	0.449099
O18	O	1.166792	0.732929	0.782433
O19	O	0.640919	0.057517	0.115810
O20	O	0.974252	0.390850	0.449144
O21	O	1.307586	0.724183	0.782477
Zn22	Zn	0.570520	0.061890	0.152511
Zn23	Zn	0.903854	0.395223	0.485844
Zn24	Zn	1.237187	0.728556	0.819177
Zn25	Zn	0.570534	0.061887	-0.152226
Zn26	Zn	0.903867	0.395221	0.181108
Zn27	Zn	1.237201	0.728554	0.514441
O28	O	0.566149	0.132286	0.115760
O29	O	0.899483	0.465620	0.449094
O30	O	1.232816	0.798953	0.782427
C31	C	0.482124	0.066078	0.000115
C32	C	0.815457	0.399411	0.333448
C33	C	1.148790	0.732744	0.666782
C34	C	0.428469	0.065525	0.000099
C35	C	0.761802	0.398858	0.333433
C36	C	1.095135	0.732192	0.666766
C37	C	0.089654	0.106229	0.000143
C38	C	0.422987	0.439562	0.333477
C39	C	0.756320	0.772895	0.666810
C40	C	-0.112006	0.104178	0.000157
C41	C	0.221327	0.437511	0.333490
C42	C	0.554661	0.770844	0.666823
O43	O	-0.143262	0.141398	0.000202
O44	O	0.190072	0.474732	0.333536
O45	O	0.523405	0.808065	0.666869
N46	N	-0.131130	0.059843	0.000172
N47	N	0.202204	0.393176	0.333505
N48	N	0.535537	0.726509	0.666838
C49	C	-0.099835	0.016017	0.000193
C50	C	0.233498	0.349350	0.333526
C51	C	0.566832	0.682684	0.666859
O52	O	-0.120728	-0.021740	0.000220
O53	O	0.212605	0.311593	0.333553
O54	O	0.545938	0.644927	0.666887
C55	C	0.101824	0.018068	0.000189
C56	C	0.435157	0.351402	0.333523
C57	C	0.768490	0.684735	0.666856
C58	C	0.120944	0.062407	0.000160
C59	C	0.454278	0.395740	0.333494
C60	C	0.787611	0.729073	0.666827
C61	C	0.108775	0.150563	0.000116
C62	C	0.442108	0.483897	0.333449
C63	C	0.775442	0.817230	0.666783
C64	C	0.159187	0.151075	0.000105
C65	C	0.492520	0.484409	0.333438
C66	C	0.825853	0.817742	0.666772
C67	C	0.190477	0.107253	0.000122
C68	C	0.523811	0.440587	0.333455
C69	C	0.857144	0.773920	0.666788
C70	C	0.171356	0.062919	0.000149
C71	C	0.504690	0.396252	0.333483
C72	C	0.838023	0.729585	0.666816
C73	C	0.133117	-0.025757	0.000220
C74	C	0.466451	0.307577	0.333554
C75	C	0.799784	0.640910	0.666887
C76	C	0.183535	-0.025240	0.000223
C77	C	0.516868	0.308094	0.333556
C78	C	0.850201	0.641427	0.666890
C79	C	0.202655	0.019098	0.000194
C80	C	0.535989	0.352432	0.333527
C81	C	0.869322	0.685765	0.666860
C82	C	0.253059	0.019609	0.000155
C83	C	0.586392	0.352942	0.333488
C84	C	0.919725	0.686276	0.666822
N85	N	0.272183	0.063944	0.000140
N86	N	0.605516	0.397277	0.333473
N87	N	0.938849	0.730611	0.666807
C88	C	0.240892	0.107766	0.000123
C89	C	0.574225	0.441100	0.333457
C90	C	0.907559	0.774433	0.666790
C91	C	-0.205709	0.014943	0.000192
C92	C	0.127624	0.348276	0.333525
C93	C	0.460957	0.681610	0.666858
C94	C	-0.256124	0.014430	0.000190
C95	C	0.077210	0.347763	0.333523
C96	C	0.410543	0.681097	0.666857
C97	C	-0.268291	0.102591	0.000157
C98	C	0.065042	0.435924	0.333490
C99	C	0.398376	0.769258	0.666823
C100	C	-0.217876	0.103104	0.000148
C101	C	0.115458	0.436437	0.333482
C102	C	0.448791	0.769770	0.666815
C103	C	-0.186585	0.059278	0.000177
C104	C	0.146748	0.392612	0.333510
C105	C	0.480081	0.725945	0.666843
C106	C	0.346761	0.108839	0.000099
C107	C	0.680094	0.442172	0.333433
C108	C	1.013428	0.775505	0.666766
C109	C	0.397178	0.109347	0.000083
C110	C	0.730511	0.442681	0.333416
C111	C	1.063845	0.776014	0.666749
C112	C	0.409341	0.021186	0.000123
C113	C	0.742674	0.354520	0.333457
C114	C	1.076008	0.687853	0.666790
C115	C	0.358929	0.020678	0.000133
C116	C	0.692262	0.354011	0.333466
C117	C	1.025595	0.687344	0.666799
C118	C	0.327639	0.064508	0.000125
C119	C	0.660973	0.397841	0.333459
C120	C	0.994306	0.731175	0.666792
O121	O	0.284343	-0.017592	0.000125
O122	O	0.617676	0.315741	0.333459
O123	O	0.951009	0.649075	0.666792
O124	O	0.261794	0.145518	0.000127
O125	O	0.595128	0.478851	0.333460
O126	O	0.928461	0.812184	0.666793
C127	C	0.039242	0.105716	0.000154
C128	C	0.372575	0.439050	0.333488
C129	C	0.705908	0.772383	0.666821
C130	C	0.020120	0.061382	0.000182
C131	C	0.353454	0.394715	0.333515
C132	C	0.686787	0.728049	0.666849
C133	C	0.051411	0.017560	0.000199
C134	C	0.384744	0.350893	0.333532
C135	C	0.718078	0.684226	0.666865
C136	C	-0.030294	0.060869	0.000180
C137	C	0.303039	0.394202	0.333514
C138	C	0.636373	0.727536	0.666847
C139	C	-0.061585	0.104691	0.000164
C140	C	0.271749	0.438025	0.333497
C141	C	0.605082	0.771358	0.666830
C142	C	-0.042461	0.149026	0.000149
C143	C	0.290872	0.482360	0.333482
C144	C	0.624206	0.815693	0.666815
C145	C	0.007951	0.149539	0.000138
C146	C	0.341284	0.482872	0.333471
C147	C	0.674618	0.816205	0.666804
C148	C	0.032287	-0.026775	0.000214
C149	C	0.365621	0.306558	0.333547
C150	C	0.698954	0.639891	0.666880
C151	C	-0.018125	-0.027284	0.000223
C152	C	0.315208	0.306049	0.333556
C153	C	0.648541	0.639383	0.666890
C154	C	-0.049416	0.016538	0.000206
C155	C	0.283917	0.349871	0.333540
C156	C	0.617251	0.683205	0.666873
C157	C	0.574716	-0.026515	0.000174
C158	C	0.908050	0.306818	0.333507
C159	C	1.241383	0.640152	0.666841
C160	C	0.574164	-0.080170	0.000185
C161	C	0.907497	0.253163	0.333519
C162	C	1.240830	0.586497	0.666852
C163	C	0.614867	-0.418985	0.000127
C164	C	0.948201	-0.085652	0.333460
C165	C	1.281534	0.247682	0.666793
C166	C	0.612816	-0.620645	0.000107
C167	C	0.946150	-0.287311	0.333440
C168	C	1.279483	0.046022	0.666773
O169	O	0.650037	-0.651900	0.000057
O170	O	0.983370	-0.318567	0.333391
O171	O	1.316704	0.014766	0.666724
N172	N	0.568481	-0.639768	0.000094
N173	N	0.901814	-0.306435	0.333427
N174	N	1.235148	0.026898	0.666761
C175	C	0.524656	-0.608474	0.000077
C176	C	0.857989	-0.275140	0.333411
C177	C	1.191322	0.058193	0.666744
O178	O	0.486899	-0.629367	0.000052
O179	O	0.820232	-0.296033	0.333385
O180	O	1.153565	0.037300	0.666718
C181	C	0.526707	-0.406815	0.000087
C182	C	0.860040	-0.073482	0.333421
C183	C	1.193374	0.259852	0.666754
C184	C	0.571045	-0.387694	0.000114
C185	C	0.904378	-0.054361	0.333447
C186	C	1.237712	0.278972	0.666781
C187	C	0.659202	-0.399864	0.000152
C188	C	0.992535	-0.066530	0.333485
C189	C	1.325868	0.266803	0.666818
C190	C	0.659714	-0.349452	0.000164
C191	C	0.993047	-0.016118	0.333498
C192	C	1.326381	0.317215	0.666831
C193	C	0.615892	-0.318161	0.000152
C194	C	0.949225	0.015172	0.333485
C195	C	1.282559	0.348506	0.666818
C196	C	0.571557	-0.337282	0.000127
C197	C	0.904891	-0.003949	0.333460
C198	C	1.238224	0.329384	0.666793
C199	C	0.482882	-0.375521	0.000061
C200	C	0.816215	-0.042188	0.333394
C201	C	1.149549	0.291145	0.666727
C202	C	0.483399	-0.325104	0.000060
C203	C	0.816732	0.008229	0.333393
C204	C	1.150066	0.341563	0.666726
C205	C	0.527737	-0.305983	0.000086
C206	C	0.861070	0.027350	0.333420
C207	C	1.194404	0.360683	0.666753
C208	C	0.528247	-0.255580	0.000127
C209	C	0.861581	0.077754	0.333460
C210	C	1.194914	0.411087	0.666793
N211	N	0.572583	-0.236456	0.000139
N212	N	0.905916	0.096877	0.333473
N213	N	1.239249	0.430211	0.666806
C214	C	0.616405	-0.267747	0.000152
C215	C	0.949738	0.065587	0.333485
C216	C	1.283072	0.398920	0.666819
C217	C	0.523582	-0.714348	0.000075
C218	C	0.856915	-0.381014	0.333408
C219	C	1.190248	-0.047681	0.666741
C220	C	0.523069	-0.764762	0.000075
C221	C	0.856402	-0.431429	0.333408
C222	C	1.189735	-0.098096	0.666741
C223	C	0.611230	-0.776930	0.000101
C224	C	0.944563	-0.443596	0.333435
C225	C	1.277896	-0.110263	0.666768
C226	C	0.611742	-0.726514	0.000111
C227	C	0.945075	-0.393181	0.333445
C228	C	1.278409	-0.059848	0.666778
C229	C	0.567917	-0.695224	0.000087
C230	C	0.901250	-0.361891	0.333421
C231	C	1.234583	-0.028557	0.666754
C232	C	0.617477	-0.161878	0.000179
C233	C	0.950811	0.171456	0.333513
C234	C	1.284144	0.504789	0.666846
C235	C	0.617986	-0.111461	0.000198
C236	C	0.951319	0.221873	0.333531
C237	C	1.284652	0.555206	0.666865
C238	C	0.529825	-0.099298	0.000164
C239	C	0.863158	0.234036	0.333497
C240	C	1.196492	0.567369	0.666830
C241	C	0.529316	-0.149710	0.000153
C242	C	0.862650	0.183623	0.333486
C243	C	1.195983	0.516957	0.666819
C244	C	0.573147	-0.180999	0.000156
C245	C	0.906480	0.152334	0.333489
C246	C	1.239813	0.485667	0.666823
O247	O	0.491047	-0.224296	0.000160
O248	O	0.824380	0.109038	0.333494
O249	O	1.157713	0.442371	0.666827
O250	O	0.654156	-0.246844	0.000147
O251	O	0.987490	0.086489	0.333480
O252	O	1.320823	0.419823	0.666813
C253	C	0.614355	-0.469397	0.000114
C254	C	0.947688	-0.136064	0.333447
C255	C	1.281022	0.197270	0.666781
C256	C	0.570021	-0.488518	0.000089
C257	C	0.903354	-0.155185	0.333422
C258	C	1.236687	0.178148	0.666756
C259	C	0.526198	-0.457228	0.000076
C260	C	0.859532	-0.123894	0.333410
C261	C	1.192865	0.209439	0.666743
C262	C	0.569508	-0.538933	0.000089
C263	C	0.902841	-0.205599	0.333422
C264	C	1.236174	0.127734	0.666756
C265	C	0.613330	-0.570223	0.000101
C266	C	0.946663	-0.236890	0.333435
C267	C	1.279996	0.096443	0.666768
C268	C	0.657665	-0.551100	0.000114
C269	C	0.990998	-0.217766	0.333447
C270	C	1.324332	0.115567	0.666781
C271	C	0.658177	-0.500688	0.000127
C272	C	0.991511	-0.167354	0.333460
C273	C	1.324844	0.165979	0.666793
C274	C	0.481863	-0.476351	0.000064
C275	C	0.815197	-0.143018	0.333397
C276	C	1.148530	0.190315	0.666730
C277	C	0.481355	-0.526764	0.000053
C278	C	0.814688	-0.193430	0.333386
C279	C	1.148021	0.139903	0.666719
C280	C	0.525177	-0.558054	0.000065
C281	C	0.858510	-0.224721	0.333399
C282	C	1.191843	0.108612	0.666732
C283	C	0.658931	0.057699	0.000167
C284	C	0.992264	0.391033	0.333500
C285	C	1.325598	0.724366	0.666833
C286	C	0.712586	0.058252	0.000173
C287	C	1.045919	0.391586	0.333507
C288	C	1.379252	0.724919	0.666840
C289	C	0.566338	0.150292	0.000108
C290	C	0.899671	0.483626	0.333441
C291	C	1.233005	0.816959	0.666774
C292	C	0.566891	0.203947	0.000087
C293	C	0.900224	0.537280	0.333421
C294	C	1.233557	0.870614	0.666754
N295	N	0.570515	0.061891	0.360485
N296	N	0.903848	0.395224	0.693818
N297	N	1.237182	0.728558	1.027152
N298	N	0.570543	0.061882	-0.360200
N299	N	0.903877	0.395216	-0.026867
N300	N	1.237210	0.728549	0.306466
C301	C	0.530400	0.101758	0.580828
C302	C	0.863734	0.435091	0.914162
C303	C	1.197067	0.768424	1.247495
C304	C	0.530485	0.101903	0.419661
C305	C	0.863818	0.435236	0.752994
C306	C	1.197151	0.768570	1.086327
C307	C	0.620872	0.072531	0.418945
C308	C	0.954205	0.405865	0.752279
C309	C	1.287538	0.739198	1.085612
C310	C	0.620652	0.072812	0.580163
C311	C	0.953985	0.406146	0.913496
C312	C	1.287319	0.739479	1.246830
C313	C	0.560778	0.011247	0.580413
C314	C	0.894112	0.344580	0.913746
C315	C	1.227445	0.677914	1.247079
C316	C	0.559613	0.011596	0.419186
C317	C	0.892946	0.344929	0.752519
C318	C	1.226279	0.678262	1.085852
H319	H	0.209009	-0.060929	0.000247
H320	H	0.542343	0.272405	0.333580
H321	H	0.875676	0.605738	0.666914
H322	H	0.434827	-0.014492	0.000132
H323	H	0.768160	0.318841	0.333465
H324	H	1.101494	0.652174	0.666798
O325	O	0.704931	-0.584855	0.000139
O326	O	1.038264	-0.251522	0.333472
O327	O	1.371598	0.081812	0.666805
H328	H	0.726174	-0.578093	-0.094117
H329	H	1.059507	-0.244759	0.239216
H330	H	1.392841	0.088574	0.572550
O331	O	0.632633	0.120873	0.365442
O332	O	0.965966	0.454206	0.698776
O333	O	1.299299	0.787539	1.032109
H334	H	0.636780	0.145420	0.454604
H335	H	0.970114	0.478753	0.787938
H336	H	1.303447	0.812086	1.121271
H337	H	0.651438	0.044246	0.380612
H338	H	0.984772	0.377579	0.713946
H339	H	1.318105	0.710913	1.047279
H340	H	0.629314	0.109729	0.617740
H341	H	0.962648	0.443062	0.951073
H342	H	1.295981	0.776396	1.284406
O343	O	-0.076217	0.196292	0.000149
O344	O	0.257116	0.529625	0.333483
O345	O	0.590450	0.862959	0.666816
H346	H	-0.099483	0.198165	-0.094108
H347	H	0.233850	0.531498	0.239226
H348	H	0.567184	0.864831	0.572559
H349	H	0.694889	-0.425336	0.000157
H350	H	1.028223	-0.092003	0.333490
H351	H	1.361556	0.241330	0.666824
O352	O	0.707538	-0.328836	0.000154
O353	O	1.040872	0.004498	0.333487
O354	O	1.374205	0.337831	0.666820
H355	H	0.728579	-0.341440	0.094415
H356	H	1.061912	-0.008107	0.427748
H357	H	1.395245	0.325226	0.761082
O358	O	-0.197256	0.150926	0.000145
O359	O	0.136077	0.484259	0.333479
O360	O	0.469411	0.817593	0.666812
H361	H	-0.209853	0.171967	-0.094126
H362	H	0.123480	0.505300	0.239207
H363	H	0.456814	0.838633	0.572541
O364	O	0.661384	0.035785	0.631853
O365	O	0.994717	0.369118	0.965186
O366	O	1.328050	0.702452	1.298519
H367	H	0.681153	0.017760	0.541695
H368	H	1.014487	0.351093	0.875029
H369	H	1.347820	0.684427	1.208362
O370	O	-0.171963	-0.032329	0.000222
O371	O	0.161370	0.301004	0.333555
O372	O	0.494704	0.634338	0.666889
H373	H	-0.178720	-0.053561	-0.094047
H374	H	0.154613	0.279772	0.239287
H375	H	0.487946	0.613105	0.572620
H376	H	0.646911	-0.802415	0.000112
H377	H	0.980245	-0.469082	0.333446
H378	H	1.313578	-0.135749	0.666779
O379	O	0.595869	-0.029510	0.365862
O380	O	0.929202	0.303823	0.699196
O381	O	1.262536	0.637156	1.032529
H382	H	0.594045	-0.030672	0.250626
H383	H	0.927378	0.302661	0.583959
H384	H	1.260712	0.635995	0.917293
O385	O	-0.302044	0.149859	0.000160
O386	O	0.031289	0.483192	0.333493
O387	O	0.364622	0.816525	0.666826
H388	H	-0.340311	0.142048	0.000179
H389	H	-0.006978	0.475382	0.333512
H390	H	0.326355	0.808715	0.666845
H391	H	0.647846	-0.710950	0.000132
H392	H	0.981179	-0.377617	0.333465
H393	H	1.314513	-0.044283	0.666799
O394	O	0.433530	-0.547385	0.000034
O395	O	0.766863	-0.214052	0.333368
O396	O	1.100196	0.119282	0.666701
H397	H	0.412500	-0.534785	-0.094250
H398	H	0.745834	-0.201452	0.239083
H399	H	1.079167	0.131882	0.572417
O400	O	0.665809	-0.090837	0.000225
O401	O	0.999143	0.242496	0.333558
O402	O	1.332476	0.575830	0.666891
H403	H	0.668154	-0.068150	-0.094035
H404	H	1.001487	0.265183	0.239299
H405	H	1.334820	0.598517	0.572632
O406	O	0.075029	0.197832	0.000092
O407	O	0.408362	0.531166	0.333425
O408	O	0.741695	0.864499	0.666758
H409	H	0.096803	0.228742	0.000064
H410	H	0.430136	0.562075	0.333397
H411	H	0.763470	0.895409	0.666731
O412	O	-0.276745	-0.033391	0.000218
O413	O	0.056588	0.299942	0.333552
O414	O	0.389921	0.633276	0.666885
H415	H	-0.246513	-0.063774	0.000248
H416	H	0.086821	0.269559	0.333582
H417	H	0.420154	0.602892	0.666915
O418	O	0.112501	-0.073579	0.000281
O419	O	0.445834	0.259755	0.333614
O420	O	0.779168	0.593088	0.666947
H421	H	0.142736	-0.103960	0.000319
H422	H	0.476070	0.229374	0.333652
H423	H	0.809403	0.562707	0.666985
O424	O	0.313017	0.156111	0.000079
O425	O	0.646350	0.489444	0.333413
O426	O	0.979683	0.822778	0.666746
H427	H	0.334790	0.187022	0.000045
H428	H	0.668123	0.520355	0.333378
H429	H	1.001456	0.853688	0.666711
O430	O	0.706002	-0.480073	0.000137
O431	O	1.039335	-0.146739	0.333470
O432	O	1.372669	0.186594	0.666803
H433	H	0.708350	-0.457404	0.094414
H434	H	1.041683	-0.124071	0.427748
H435	H	1.375017	0.209263	0.761081
O436	O	0.538688	0.151688	0.368533
O437	O	0.872021	0.485021	0.701866
O438	O	1.205355	0.818354	1.035200
H439	H	0.538772	0.151967	0.253111
H440	H	0.872105	0.485301	0.586444
H441	H	1.205439	0.818634	0.919778
H442	H	0.446177	-0.450879	0.000050
H443	H	0.779510	-0.117545	0.333384
H444	H	1.112844	0.215788	0.666717
O445	O	-0.038743	-0.075110	0.000270
O446	O	0.294590	0.258223	0.333603
O447	O	0.627923	0.591556	0.666937
H448	H	-0.026147	-0.096156	-0.093979
H449	H	0.307186	0.237177	0.239354
H450	H	0.640520	0.570510	0.572687
H451	H	0.493042	0.095619	0.380137
H452	H	0.826375	0.428952	0.713471
H453	H	1.159708	0.762286	1.046804
O454	O	0.480642	0.093588	0.632241
O455	O	0.813975	0.426922	0.965574
O456	O	1.147309	0.760255	1.298907
H457	H	0.483989	0.061022	0.700381
H458	H	0.817322	0.394356	1.033714
H459	H	1.150656	0.727689	1.367048
H460	H	0.343360	-0.015426	0.000136
H461	H	0.676693	0.317907	0.333469
H462	H	1.010027	0.651241	0.666803
H463	H	0.412743	0.145454	0.000058
H464	H	0.746076	0.478787	0.333391
H465	H	1.079410	0.812121	0.666725
O466	O	0.481493	-0.170332	0.000141
O467	O	0.814827	0.163001	0.333474
O468	O	1.148160	0.496335	0.666807
H469	H	0.479144	-0.193014	0.094408
H470	H	0.812477	0.140320	0.427741
H471	H	1.145810	0.473653	0.761075
O472	O	0.538490	0.151263	0.634451
O473	O	0.871824	0.484596	0.967784
O474	O	1.205157	0.817929	1.301118
H475	H	0.509959	0.179139	0.592207
H476	H	0.843292	0.512472	0.925541
H477	H	1.176625	0.845805	1.258874
O478	O	0.475247	-0.785384	0.000064
O479	O	0.808581	-0.452051	0.333397
O480	O	1.141914	-0.118717	0.666731
H481	H	0.444864	-0.755151	0.000043
H482	H	0.778197	-0.421818	0.333376
H483	H	1.111531	-0.088485	0.666709
H484	H	0.023514	0.185643	0.000116
H485	H	0.356847	0.518977	0.333449
H486	H	0.690181	0.852310	0.666782
O487	O	0.513218	-0.002429	0.634308
O488	O	0.846551	0.330904	0.967641
O489	O	1.179885	0.664238	1.300975
H490	H	0.483062	0.025556	0.601989
H491	H	0.816395	0.358889	0.935322
H492	H	1.149729	0.692222	1.268656
H493	H	0.653168	-0.187348	0.000177
H494	H	0.986501	0.145985	0.333510
H495	H	1.319835	0.479319	0.666843
H496	H	0.447710	-0.299629	0.000038
H497	H	0.781043	0.033704	0.333371
H498	H	1.114377	0.367037	0.666705
O499	O	0.066034	-0.074043	0.000230
O500	O	0.399368	0.259290	0.333563
O501	O	0.732701	0.592624	0.666896
H502	H	0.044262	-0.104954	0.000234
H503	H	0.377595	0.228379	0.333568
H504	H	0.710928	0.561713	0.666901
H505	H	0.487892	-0.688875	0.000055
H506	H	0.821225	-0.355542	0.333389
H507	H	1.154558	-0.022208	0.666722
O508	O	0.179808	0.198897	0.000115
O509	O	0.513141	0.532230	0.333448
O510	O	0.846474	0.865564	0.666782
H511	H	0.149573	0.229279	0.000128
H512	H	0.482907	0.562612	0.333461
H513	H	0.816240	0.895946	0.666795
O514	O	0.435060	-0.396138	0.000027
O515	O	0.768393	-0.062804	0.333360
O516	O	1.101727	0.270529	0.666694
H517	H	0.404679	-0.365902	0.000001
H518	H	0.738012	-0.032569	0.333334
H519	H	1.071346	0.300764	0.666668
O520	O	0.482560	-0.065545	0.000148
O521	O	0.815894	0.267789	0.333482
O522	O	1.149227	0.601122	0.666815
H523	H	0.490370	-0.027277	0.000145
H524	H	0.823703	0.306056	0.333479
H525	H	1.157036	0.639389	0.666812
O526	O	0.510545	0.000885	0.368603
O527	O	0.843878	0.334219	0.701936
O528	O	1.177212	0.667552	1.035269
H529	H	0.493989	0.031251	0.301921
H530	H	0.827322	0.364585	0.635255
H531	H	1.160656	0.697918	0.968588
H532	H	0.590057	-0.018422	0.618549
H533	H	0.923390	0.314911	0.951882
H534	H	1.256724	0.648244	1.285215
