data_functionalizedCrystal
_audit_creation_method	'MofGen! by Chris Wilmer'
_symmetry_space_group_name_H-M	'P1'
_symmetry_Int_Tables_number	1
_symmetry_cell_setting	triclinic
loop_
_symmetry_equiv_pos_as_xyz
  x,y,z
_cell_length_a	27.732043
_cell_length_b	26.210047
_cell_length_c	27.731996
_cell_angle_alpha	90.001499
_cell_angle_beta	82.631092
_cell_angle_gamma	90.000725
loop_
_atom_site_label
_atom_site_type_symbol
_atom_site_fract_x
_atom_site_fract_y
_atom_site_fract_z
O1	O	0.640922	0.042337	0.057501
O2	O	0.500126	0.042361	0.066249
O3	O	0.574910	0.042337	-0.008524
O4	O	0.566138	0.042361	0.132274
O5	O	0.574896	-0.042521	-0.008512
O6	O	0.500112	-0.042497	0.066261
O7	O	0.640907	-0.042521	0.057513
Cu8	Cu	0.570508	-0.050257	0.061888
Cu9	Cu	0.570525	0.050097	0.061874
O10	O	0.566124	-0.042497	0.132285
C11	C	0.482112	-0.000065	0.066072
C12	C	0.428457	-0.000057	0.065520
N13	N	0.570500	-0.120841	0.061897
C14	C	0.574723	-0.000093	-0.026525
C15	C	0.574180	-0.000099	-0.080181
C16	C	0.658922	-0.000093	0.057690
C17	C	0.712576	-0.000099	0.058242
C18	C	1.045306	0.046183	0.061608
C19	C	1.246965	0.046192	0.063661
O20	O	1.273048	0.085532	0.063900
N21	N	1.272174	-0.000063	0.063926
C22	C	1.246965	-0.046325	0.063674
O23	O	1.273035	-0.085668	0.063941
C24	C	1.045308	-0.046333	0.061618
C25	C	1.020101	-0.000075	0.061358
C26	C	1.020099	0.092438	0.061348
C27	C	0.969687	0.092435	0.060837
C28	C	0.944482	0.046177	0.060587
C29	C	0.969689	-0.000077	0.060848
C30	C	1.020100	-0.092594	0.061363
C31	C	0.969683	-0.092592	0.060848
C32	C	0.944476	-0.046333	0.060588
C33	C	0.894071	-0.046338	0.060087
N34	N	0.868862	-0.000082	0.059822
C35	C	0.894068	0.046175	0.060072
C36	C	1.352838	-0.046317	0.064755
C37	C	1.403252	-0.046315	0.065270
C38	C	1.403248	0.046203	0.065255
C39	C	1.352833	0.046200	0.064744
C40	C	1.327629	-0.000061	0.064490
C41	C	0.788198	0.046166	0.059001
C42	C	0.737782	0.046159	0.058492
C43	C	0.737790	-0.046358	0.058504
C44	C	0.788202	-0.046351	0.059015
C45	C	0.813405	-0.000085	0.059262
O46	O	0.867958	-0.085657	0.059842
O47	O	0.867991	0.085513	0.059794
C48	C	1.095718	0.046186	0.062119
C49	C	1.120925	-0.000069	0.062379
C50	C	1.095720	-0.046327	0.062129
C51	C	1.171339	-0.000067	0.062894
C52	C	1.196544	0.046191	0.063144
C53	C	1.171335	0.092446	0.062879
C54	C	1.120923	0.092444	0.062369
C55	C	1.120928	-0.092582	0.062394
C56	C	1.171341	-0.092576	0.062905
C57	C	1.196546	-0.046318	0.063155
C58	C	0.603636	-0.473366	0.028772
C59	C	0.603647	-0.687024	0.028765
O60	O	0.631802	-0.714655	0.000603
N61	N	0.570528	-0.713735	0.061863
C62	C	0.537402	-0.687028	0.094963
O63	O	0.509229	-0.714650	0.123112
C64	C	0.537390	-0.473370	0.094967
C65	C	0.570514	-0.446662	0.061870
C66	C	0.636757	-0.446657	-0.004322
C67	C	0.636756	-0.393246	-0.004319
C68	C	0.603634	-0.366543	0.028780
C69	C	0.570513	-0.393251	0.061874
C70	C	0.504262	-0.446664	0.128065
C71	C	0.504261	-0.393246	0.128062
C72	C	0.537385	-0.366538	0.094965
C73	C	0.537389	-0.313136	0.094976
N74	N	0.570508	-0.286425	0.061878
C75	C	0.603630	-0.313128	0.028780
C76	C	0.537412	-0.799201	0.094959
C77	C	0.537415	-0.852615	0.094959
C78	C	0.603660	-0.852608	0.028760
C79	C	0.603658	-0.799193	0.028763
C80	C	0.570531	-0.772490	0.061861
C81	C	0.603625	-0.200961	0.028791
C82	C	0.603622	-0.147544	0.028799
C83	C	0.537377	-0.147557	0.094996
C84	C	0.537381	-0.200968	0.094989
C85	C	0.570507	-0.227669	0.061883
O86	O	0.509245	-0.285472	0.123120
O87	O	0.631791	-0.285498	0.000629
C88	C	0.603637	-0.526777	0.028768
C89	C	0.570516	-0.553485	0.061863
C90	C	0.537394	-0.526782	0.094961
C91	C	0.570520	-0.606899	0.061863
C92	C	0.603642	-0.633603	0.028764
C93	C	0.636761	-0.606892	-0.004334
C94	C	0.636760	-0.553480	-0.004330
C95	C	0.504275	-0.553493	0.128059
C96	C	0.504279	-0.606904	0.128053
C97	C	0.537402	-0.633608	0.094955
N98	N	0.570538	0.120681	0.061861
C99	C	0.570773	0.046183	-0.412904
C100	C	0.568712	0.046192	-0.614562
O101	O	0.568431	0.085532	-0.640638
N102	N	0.568448	-0.000063	-0.639773
C103	C	0.568696	-0.046325	-0.614566
O104	O	0.568420	-0.085668	-0.640635
C105	C	0.570754	-0.046333	-0.412908
C106	C	0.571023	-0.000075	-0.387700
C107	C	0.571041	0.092438	-0.387696
C108	C	0.571559	0.092435	-0.337285
C109	C	0.571809	0.046177	-0.312082
C110	C	0.571541	-0.000077	-0.337289
C111	C	0.570999	-0.092594	-0.387701
C112	C	0.571512	-0.092592	-0.337283
C113	C	0.571781	-0.046333	-0.312076
C114	C	0.572308	-0.046338	-0.261674
N115	N	0.572572	-0.000082	-0.236464
C116	C	0.572322	0.046175	-0.261667
C117	C	0.567617	-0.046317	-0.720439
C118	C	0.567104	-0.046315	-0.770853
C119	C	0.567118	0.046203	-0.770846
C120	C	0.567635	0.046200	-0.720431
C121	C	0.567881	-0.000061	-0.695228
C122	C	0.573410	0.046166	-0.155800
C123	C	0.573930	0.046159	-0.105385
C124	C	0.573913	-0.046358	-0.105396
C125	C	0.573396	-0.046351	-0.155807
C126	C	0.573143	-0.000085	-0.181008
O127	O	0.572584	-0.085657	-0.235567
O128	O	0.572588	0.085513	-0.235587
C129	C	0.570255	0.046186	-0.463315
C130	C	0.569987	-0.000069	-0.488523
C131	C	0.570237	-0.046327	-0.463319
C132	C	0.569473	-0.000067	-0.538937
C133	C	0.569224	0.046191	-0.564141
C134	C	0.569488	0.092446	-0.538930
C135	C	0.570005	0.092444	-0.488519
C136	C	0.569973	-0.092582	-0.488530
C137	C	0.569455	-0.092576	-0.538941
C138	C	0.569206	-0.046318	-0.564145
C139	C	0.566311	-0.000065	0.150287
C140	C	0.566854	-0.000057	0.203943
H141	H	0.808713	0.083840	0.059202
H142	H	0.663727	-0.371503	-0.031270
O143	O	0.942402	-0.142436	0.060638
H144	H	0.956550	-0.164701	0.027803
H145	H	0.569240	-0.130248	-0.559461
H146	H	0.570177	-0.130252	-0.468014
H147	H	0.949168	0.130104	0.060624
H148	H	0.574150	0.083830	-0.084863
O149	O	0.672492	-0.475455	-0.040018
H150	H	0.695522	-0.447901	-0.063023
O151	O	0.815389	-0.096245	0.059299
H152	H	0.833802	-0.098455	0.092492
O153	O	0.710596	-0.096247	0.058234
H154	H	0.736591	-0.128415	0.058505
O155	O	0.639343	-0.118737	-0.006908
H156	H	0.662684	-0.094401	0.013274
O157	O	1.093740	0.142337	0.062070
H158	H	1.119745	0.174499	0.062320
O159	O	0.639359	-0.229756	-0.006910
H160	H	0.662391	-0.202204	-0.029915
H161	H	1.332313	0.083868	0.064532
O162	O	0.710595	0.096054	0.058196
H163	H	0.736596	0.128219	0.058446
O164	O	0.501684	-0.770403	0.130664
H165	H	0.478662	-0.797955	0.153680
O166	O	0.672489	-0.635702	-0.040030
H167	H	0.695526	-0.608160	-0.063044
H168	H	1.100412	-0.130252	0.062188
O169	O	0.468559	-0.635702	0.163768
H170	H	0.430924	-0.625452	0.157872
O171	O	0.566818	-0.096207	-0.798041
H172	H	0.567073	-0.128371	-0.772040
O173	O	0.573139	0.096066	-0.182977
H174	H	0.539942	0.098291	-0.201382
O175	O	1.047280	0.142334	0.061621
H176	H	1.021274	0.174492	0.061357
O177	O	0.571836	0.142328	-0.310098
H178	H	0.571568	0.174490	-0.336099
O179	O	1.198519	-0.142476	0.063192
H180	H	1.226046	-0.144698	0.030468
O181	O	0.639375	-0.770383	-0.006940
H182	H	0.677011	-0.780630	-0.001047
H183	H	1.423770	-0.083983	0.065489
H184	H	1.423779	0.083867	0.065461
H185	H	1.332322	-0.083990	0.064546
O186	O	0.639383	-0.881413	-0.006944
H187	H	0.633814	-0.923041	-0.001383
H188	H	0.570224	0.130112	-0.467999
O189	O	0.468547	-0.524700	0.163764
H190	H	0.445204	-0.500368	0.143582
H191	H	0.570836	0.130109	-0.408212
H192	H	0.566915	0.083867	-0.791376
H193	H	0.510448	-0.874358	0.121915
H194	H	0.574118	-0.084019	-0.084867
H195	H	0.477289	-0.468403	0.155015
H196	H	1.040616	-0.130263	0.061573
H197	H	0.477283	-0.371508	0.155014
O198	O	0.501657	-0.229780	0.130686
H199	H	0.478623	-0.202235	0.153700
H200	H	0.510410	-0.125806	0.121945
O201	O	1.198526	0.142341	0.063141
H202	H	1.237817	0.134565	0.063534
H203	H	0.663733	-0.531738	-0.031281
H204	H	0.567853	0.083868	-0.699911
H205	H	0.567819	-0.083990	-0.699923
O206	O	0.570707	-0.142488	-0.414882
H207	H	0.537838	-0.164655	-0.400646
O208	O	0.571783	-0.142489	-0.310099
H209	H	0.571514	-0.174651	-0.336102
O210	O	0.573107	-0.096242	-0.183001
H211	H	0.573366	-0.128408	-0.157003
H212	H	0.569286	0.130111	-0.559460
