data_functionalizedCrystal
_audit_creation_method	'MofGen! by Chris Wilmer'
_symmetry_space_group_name_H-M	'P1'
_symmetry_Int_Tables_number	1
_symmetry_cell_setting	triclinic
loop_
_symmetry_equiv_pos_as_xyz
  x,y,z
_cell_length_a	11.026607
_cell_length_b	26.809956
_cell_length_c	11.026607
_cell_angle_alpha	90.007514
_cell_angle_beta	71.413983
_cell_angle_gamma	90.010075
loop_
_atom_site_label
_atom_site_type_symbol
_atom_site_fract_x
_atom_site_fract_y
_atom_site_fract_z
O1	O	1.726739	0.041478	-0.533608
O2	O	2.226739	0.541478	-0.033608
O3	O	1.360160	0.041479	-0.472844
O4	O	1.860160	0.541479	0.027156
O5	O	1.513068	0.041477	-0.319936
O6	O	2.013068	0.541477	0.180064
O7	O	1.573831	0.041481	-0.686516
O8	O	2.073831	0.541481	-0.186516
O9	O	1.513037	-0.041482	-0.319958
O10	O	2.013037	0.458518	0.180042
O11	O	1.360129	-0.041480	-0.472866
O12	O	1.860129	0.458520	0.027134
O13	O	1.726709	-0.041481	-0.533630
O14	O	2.226709	0.458519	-0.033630
Zn15	Zn	1.543414	-0.054652	-0.503251
Zn16	Zn	2.043414	0.445348	-0.003251
Zn17	Zn	1.543454	0.054650	-0.503223
Zn18	Zn	2.043454	0.554650	-0.003223
O19	O	1.573801	-0.041479	-0.686538
O20	O	2.073801	0.458521	-0.186538
C21	C	1.312485	-0.000000	-0.461645
C22	C	1.812485	0.500000	0.038355
C23	C	1.170471	-0.000000	-0.428228
C24	C	1.670471	0.500000	0.071772
N25	N	1.543396	-0.129248	-0.503272
N26	N	2.043396	0.370752	-0.003272
C27	C	1.116821	0.000001	-0.520498
C28	C	1.616821	0.500001	-0.020498
C29	C	0.970043	0.000001	-0.485962
C30	C	1.470043	0.500001	0.014038
C31	C	1.611156	-0.473875	-0.435534
C32	C	2.111156	0.026125	0.064466
C33	C	1.611182	-0.682753	-0.435521
C34	C	2.111182	-0.182753	0.064479
O35	O	1.668743	-0.709757	-0.377924
O36	O	2.168743	-0.209757	0.122076
N37	N	1.543455	-0.708875	-0.503196
N38	N	2.043455	-0.208875	-0.003196
C39	C	1.475710	-0.682775	-0.570872
C40	C	1.975710	-0.182775	-0.070872
O41	O	1.418095	-0.709786	-0.628423
O42	O	1.918095	-0.209786	-0.128423
C43	C	1.475678	-0.473898	-0.570877
C44	C	1.975678	0.026102	-0.070877
C45	C	1.543419	-0.447778	-0.503208
C46	C	2.043419	0.052222	-0.003208
C47	C	1.678890	-0.447755	-0.367869
C48	C	2.178890	0.052245	0.132131
C49	C	1.678889	-0.395539	-0.367879
C50	C	2.178889	0.104461	0.132121
C51	C	1.611153	-0.369442	-0.435553
C52	C	2.111153	0.130558	0.064447
C53	C	1.543418	-0.395562	-0.503217
C54	C	2.043418	0.104438	-0.003217
C55	C	1.407927	-0.447799	-0.638545
C56	C	1.907927	0.052201	-0.138545
C57	C	1.407922	-0.395576	-0.638537
C58	C	1.907922	0.104424	-0.138537
C59	C	1.475663	-0.369457	-0.570868
C60	C	1.975663	0.130543	-0.070868
C61	C	1.475680	-0.317249	-0.570901
C62	C	1.975680	0.182751	-0.070901
N63	N	1.543407	-0.291127	-0.503226
N64	N	2.043407	0.208873	-0.003226
C65	C	1.611143	-0.317223	-0.435552
C66	C	2.111143	0.182777	0.064448
C67	C	1.475734	-0.792438	-0.570867
C68	C	1.975734	-0.292438	-0.070867
C69	C	1.475744	-0.844657	-0.570868
C70	C	1.975744	-0.344657	-0.070868
C71	C	1.611214	-0.844631	-0.435515
C72	C	2.111214	-0.344631	0.064485
C73	C	1.611210	-0.792411	-0.435522
C74	C	2.111210	-0.292411	0.064478
C75	C	1.543461	-0.766316	-0.503192
C76	C	2.043461	-0.266316	-0.003192
C77	C	1.611135	-0.207565	-0.435578
C78	C	2.111135	0.292435	0.064422
C79	C	1.611132	-0.155345	-0.435598
C80	C	2.111132	0.344655	0.064402
C81	C	1.475658	-0.155375	-0.570945
C82	C	1.975658	0.344625	-0.070945
C83	C	1.475666	-0.207591	-0.570931
C84	C	1.975666	0.292409	-0.070931
C85	C	1.543407	-0.233685	-0.503238
C86	C	2.043407	0.266315	-0.003238
O87	O	1.418137	-0.290212	-0.628456
O88	O	1.918137	0.209788	-0.128456
O89	O	1.668727	-0.290203	-0.377987
O90	O	2.168727	0.209797	0.122013
C91	C	1.611157	-0.526091	-0.435524
C92	C	2.111157	-0.026091	0.064476
C93	C	1.543422	-0.552211	-0.503189
C94	C	2.043422	-0.052211	-0.003189
C95	C	1.475686	-0.526114	-0.570863
C96	C	1.975686	-0.026114	-0.070863
C97	C	1.543432	-0.604430	-0.503190
C98	C	2.043432	-0.104430	-0.003190
C99	C	1.611168	-0.630527	-0.435516
C100	C	2.111168	-0.130527	0.064484
C101	C	1.678895	-0.604404	-0.367841
C102	C	2.178895	-0.104404	0.132159
C103	C	1.678893	-0.552188	-0.367850
C104	C	2.178893	-0.052188	0.132150
C105	C	1.407960	-0.552237	-0.638538
C106	C	1.907960	-0.052237	-0.138538
C107	C	1.407968	-0.604453	-0.638524
C108	C	1.907968	-0.104453	-0.138524
C109	C	1.475704	-0.630550	-0.570850
C110	C	1.975704	-0.130550	-0.070850
C111	C	1.774384	-0.000000	-0.544828
C112	C	2.274384	0.500000	-0.044828
C113	C	1.916398	0.000003	-0.578245
C114	C	2.416398	0.500003	-0.078245
C115	C	1.501843	-0.000002	-0.272287
C116	C	2.001843	0.499998	0.227713
C117	C	1.468426	-0.000000	-0.130273
C118	C	1.968426	0.500000	0.369727
N119	N	1.543480	0.129246	-0.503194
N120	N	2.043480	0.629246	-0.003194
C121	C	1.585026	0.000001	-0.734187
C122	C	2.085026	0.500001	-0.234187
C123	C	1.618443	0.000003	-0.876200
C124	C	2.118443	0.500003	-0.376200
C125	C	1.560695	0.000000	-0.076624
C126	C	2.060695	0.500000	0.423376
C127	C	1.526160	0.000002	0.070155
C128	C	2.026160	0.500002	0.570155
H129	H	1.179555	-0.000001	-0.625061
H130	H	1.679555	0.499999	-0.125061
H131	H	0.907314	0.000013	-0.381393
H132	H	1.407314	0.500013	0.118607
H133	H	0.979125	0.000000	-0.682816
H134	H	1.479125	0.500000	-0.182816
H135	H	1.665258	-0.000003	-0.139357
H136	H	2.165258	0.499997	0.360643
H137	H	1.723013	0.000040	0.061072
H138	H	2.223013	0.500040	0.561072
H139	H	1.107738	0.000012	-0.323666
H140	H	1.607738	0.500012	0.176334
H141	H	1.352748	-0.374332	-0.693640
H142	H	1.852748	0.125668	-0.193640
H143	H	1.666295	-0.228805	-0.380454
H144	H	2.166295	0.271195	0.119546
H145	H	1.666300	-0.134079	-0.380495
H146	H	2.166300	0.365921	0.119505
H147	H	1.421590	0.000006	0.132884
H148	H	1.921590	0.500006	0.632884
H149	H	1.420599	-0.865920	-0.625986
H150	H	1.920599	-0.365920	-0.125986
H151	H	1.734054	-0.625660	-0.312743
H152	H	2.234054	-0.125660	0.187257
H153	H	1.420520	-0.228858	-0.626049
H154	H	1.920520	0.271142	-0.126049
H155	H	1.363863	0.000003	-0.067540
H156	H	1.863863	0.500003	0.432460
H157	H	1.734045	-0.374275	-0.312773
H158	H	2.234045	0.125725	0.187227
H159	H	1.734048	-0.468998	-0.312755
H160	H	2.234048	0.031002	0.187245
H161	H	1.666370	-0.771148	-0.380419
H162	H	2.166370	-0.271148	0.119581
H163	H	1.666370	-0.865888	-0.380414
H164	H	2.166370	-0.365888	0.119586
H165	H	1.420563	-0.771195	-0.625975
H166	H	1.920563	-0.271195	-0.125975
H167	H	1.352809	-0.625716	-0.693640
H168	H	1.852809	-0.125716	-0.193640
H169	H	1.352765	-0.469058	-0.693646
H170	H	1.852765	0.030942	-0.193646
H171	H	1.420512	-0.134119	-0.626049
H172	H	1.920512	0.365881	-0.126049
H173	H	1.352799	-0.530993	-0.693645
H174	H	1.852799	-0.030993	-0.193645
H175	H	1.734055	-0.530925	-0.312748
H176	H	2.234055	-0.030925	0.187252
