data_functionalizedCrystal
_audit_creation_method	'MofGen! by Chris Wilmer'
_symmetry_space_group_name_H-M	'P1'
_symmetry_Int_Tables_number	1
_symmetry_cell_setting	triclinic
loop_
_symmetry_equiv_pos_as_xyz
  x,y,z
_cell_length_a	14.908571
_cell_length_b	29.839131
_cell_length_c	14.908775
_cell_angle_alpha	93.314376
_cell_angle_beta	90.190472
_cell_angle_gamma	86.737317
loop_
_atom_site_label
_atom_site_type_symbol
_atom_site_fract_x
_atom_site_fract_y
_atom_site_fract_z
Zn1	Zn	1.345038	-0.200767	0.587547
Zn2	Zn	1.353589	-0.280442	0.437169
Zn3	Zn	1.203383	-0.201251	0.428543
Zn4	Zn	1.194596	-0.271790	0.578824
O5	O	1.274152	-0.238562	0.508021
O6	O	1.471995	-0.214754	0.574859
O7	O	1.340920	-0.273761	0.310198
O8	O	1.222273	-0.138321	0.449675
O9	O	1.478277	-0.273292	0.464378
O10	O	1.326346	-0.137965	0.566495
O11	O	1.230565	-0.215580	0.303860
O12	O	1.076396	-0.207190	0.441217
O13	O	1.207297	-0.258545	0.705808
O14	O	1.069940	-0.259014	0.551628
O15	O	1.317826	-0.206364	0.712216
O16	O	1.332400	-0.342160	0.455919
O17	O	1.215589	-0.335803	0.559993
C18	C	1.040543	-0.232216	0.494541
C19	C	0.940604	-0.229511	0.488795
C20	C	0.746141	-0.278487	0.592815
C21	C	0.652238	-0.275947	0.587420
C22	C	0.658894	-0.221888	0.472615
C23	C	0.752796	-0.224429	0.478010
C24	C	0.796416	-0.252730	0.538111
C25	C	0.890321	-0.255272	0.543501
C26	C	0.896975	-0.201211	0.428701
C27	C	0.803072	-0.198671	0.423306
C28	C	1.273992	-0.355282	0.507967
C29	C	1.274004	-0.405216	0.507978
C30	C	1.335075	-0.718161	0.453920
C31	C	1.335184	-0.905836	0.453961
O32	O	1.386982	-0.932904	0.407957
N33	N	1.274334	-0.926007	0.508099
C34	C	1.213457	-0.899258	0.562235
O35	O	1.161709	-0.920721	0.608291
C36	C	1.213353	-0.711584	0.562198
C37	C	1.274201	-0.691414	0.508050
C38	C	1.395919	-0.697991	0.399776
C39	C	1.395888	-0.651075	0.399763
C40	C	1.335013	-0.624329	0.453893
C41	C	1.274170	-0.644498	0.508036
C42	C	1.152480	-0.684835	0.616338
C43	C	1.152461	-0.637913	0.616326
C44	C	1.213309	-0.617744	0.562177
C45	C	1.213264	-0.570836	0.562153
N46	N	1.274114	-0.550664	0.508014
C47	C	1.334988	-0.577410	0.453885
C48	C	1.213515	-0.997789	0.562249
C49	C	1.213539	-1.044708	0.562258
C50	C	1.335268	-1.051282	0.453985
C51	C	1.335238	-1.004363	0.453972
C52	C	1.274364	-0.977617	0.508111
C53	C	1.334918	-0.478883	0.453860
C54	C	1.334879	-0.431963	0.453848
C55	C	1.213154	-0.425392	0.562125
C56	C	1.213189	-0.472309	0.562133
C57	C	1.274079	-0.499053	0.507998
O58	O	1.161500	-0.543740	0.608140
O59	O	1.386742	-0.555938	0.407851
C60	C	1.335106	-0.765076	0.453933
C61	C	1.274263	-0.785246	0.508076
C62	C	1.213388	-0.758500	0.562206
C63	C	1.274288	-0.832164	0.508085
C64	C	1.335162	-0.858911	0.453955
C65	C	1.396012	-0.838739	0.399817
C66	C	1.395981	-0.791823	0.399803
C67	C	1.152538	-0.778672	0.616344
C68	C	1.152574	-0.825588	0.616353
C69	C	1.213448	-0.852334	0.562223
C70	C	1.508672	-0.244934	0.521554
C71	C	1.608611	-0.247649	0.527321
C72	C	1.260627	-0.231435	0.742550
C73	C	1.254864	-0.228398	0.842492
C74	C	1.274336	-0.121387	0.508096
C75	C	1.274414	-0.071454	0.508128
C76	C	1.189291	-0.193827	0.980056
C77	C	1.194702	-0.196680	0.886151
C78	C	1.309619	-0.257265	0.892745
C79	C	1.304208	-0.254413	0.986650
C80	C	1.244040	-0.222693	1.030302
C81	C	1.238625	-0.219842	1.124208
C82	C	1.353545	-0.280426	1.130800
C83	C	1.358957	-0.283279	1.036895
C84	C	1.287617	-0.245672	1.274403
C85	C	1.293380	-0.248710	1.174461
H86	H	0.623361	-0.198844	0.423689
H87	H	0.937919	-0.180238	0.384155
F88	F	1.399723	-0.507340	0.396243
H89	H	1.384428	-0.415543	0.409751
H90	H	1.163645	-0.488731	0.606228
F91	F	0.756638	-0.168551	0.359349
F92	F	1.422992	-0.317033	0.990428
H93	H	1.445437	-0.634656	0.355673
H94	H	1.445495	-0.719763	0.355697
F95	F	1.400001	-0.982902	0.396341
H96	H	1.384835	-1.073067	0.409910
H97	H	0.925835	-0.278317	0.592437
F98	F	1.148767	-1.066168	0.619879
F99	F	1.148719	-0.969330	0.619875
H100	H	1.189633	-0.194015	1.159748
F101	F	1.411814	-0.311151	1.184282
F102	F	1.087724	-0.706290	0.673980
H103	H	1.102891	-0.616139	0.660416
F104	F	1.125260	-0.160067	1.026516
H105	H	1.163588	-0.403608	0.606194
F106	F	1.460747	-0.770363	0.342173
F107	F	0.598734	-0.303361	0.645645
H108	H	1.445576	-0.860524	0.355739
F109	F	1.373663	-0.291014	0.846272
F110	F	0.792567	-0.308611	0.656770
F111	F	1.087804	-0.847048	0.673987
H112	H	1.102968	-0.756898	0.660425
H113	H	1.150122	-0.173173	0.845244
