data_functionalizedCrystal
_audit_creation_method	'MofGen! by Chris Wilmer'
_symmetry_space_group_name_H-M	'P1'
_symmetry_Int_Tables_number	1
_symmetry_cell_setting	triclinic
loop_
_symmetry_equiv_pos_as_xyz
  x,y,z
_cell_length_a	17.699083
_cell_length_b	11.792241
_cell_length_c	16.176319
_cell_angle_alpha	89.993071
_cell_angle_beta	89.998611
_cell_angle_gamma	83.738215
loop_
_atom_site_label
_atom_site_type_symbol
_atom_site_fract_x
_atom_site_fract_y
_atom_site_fract_z
O1	O	1.004844	0.143527	-0.068631
O2	O	0.784565	0.162200	-0.068658
O3	O	0.900050	-0.012371	-0.068638
O4	O	0.889359	0.318098	-0.068651
O5	O	0.900034	-0.012382	0.068855
O6	O	0.784549	0.162189	0.068835
O7	O	1.004828	0.143516	0.068862
Cu8	Cu	0.894687	0.152851	0.081403
Cu9	Cu	0.894706	0.152865	-0.081199
O10	O	0.889343	0.318087	0.068842
C11	C	0.756356	0.161525	0.000085
C12	C	0.672328	0.159518	0.000075
C13	C	0.624253	0.261988	0.000071
C14	C	0.545299	0.260095	0.000082
C15	C	0.514422	0.155731	0.000091
C16	C	0.562503	0.053254	0.000097
C17	C	0.641455	0.055148	0.000092
C18	C	0.244099	0.045613	0.000118
C19	C	0.165141	0.043727	0.000120
C20	C	0.147944	0.250560	0.000108
C21	C	0.226896	0.252454	0.000103
C22	C	0.274970	0.149977	0.000113
C23	C	0.360580	0.152031	0.000103
C24	C	0.428814	0.153676	0.000095
C25	C	0.899370	-0.054660	0.000108
C26	C	0.897360	-0.180649	0.000107
C27	C	0.893664	-0.411317	0.000093
C28	C	0.895718	-0.282956	0.000101
C29	C	1.033036	0.144190	0.000117
C30	C	1.117065	0.146198	0.000122
C31	C	0.890022	0.360375	0.000094
C32	C	0.892032	0.486365	0.000090
N33	N	0.894679	0.152841	0.195768
N34	N	0.894720	0.152865	-0.195564
C35	C	0.945831	0.075573	0.239041
C36	C	0.945835	0.075572	0.325588
C37	C	0.894690	0.152845	0.368861
C38	C	0.843532	0.230118	0.325582
C39	C	0.843525	0.230113	0.239036
C40	C	0.843558	0.230139	0.674610
C41	C	0.843570	0.230140	0.761161
C42	C	0.945868	0.075598	0.761162
C43	C	0.945861	0.075593	0.674617
C44	C	0.894701	0.152861	0.631345
C45	C	0.894697	0.152860	0.537501
C46	C	0.894697	0.152853	0.462703
H47	H	0.680598	-0.028294	0.000095
O48	O	0.101135	0.350005	0.000142
C49	C	0.024828	0.325964	0.000130
H50	H	0.021435	0.236827	0.026170
H51	H	-0.010668	0.391296	0.040045
H52	H	0.002012	0.330329	-0.065831
O53	O	0.135057	-0.057587	0.000243
C54	C	0.089916	-0.064874	0.071464
H55	H	0.070624	0.024636	0.095194
H56	H	0.038034	-0.109969	0.055453
H57	H	0.124584	-0.115182	0.121332
O58	O	0.995571	0.000419	0.632711
C59	C	1.040734	-0.067765	0.689464
H60	H	1.009707	-0.068985	0.751162
H61	H	1.051907	-0.158428	0.664468
H62	H	1.097107	-0.031020	0.698655
H63	H	0.283232	-0.037830	0.000127
H64	H	0.801871	0.293031	0.203804
O65	O	0.793848	0.305046	0.803289
C66	C	0.746912	0.244340	0.853351
H67	H	0.776703	0.155475	0.866319
H68	H	0.735138	0.291733	0.914208
H69	H	0.690943	0.236724	0.820010
H70	H	0.987523	0.012679	0.796403
O71	O	0.793839	0.305309	0.632711
C72	C	0.748690	0.373494	0.689466
H73	H	0.779734	0.374719	0.751152
H74	H	0.737509	0.464156	0.664453
H75	H	0.692321	0.336747	0.698687
H76	H	0.801884	0.293032	0.360819
O77	O	0.257014	0.353734	0.000048
C78	C	0.337008	0.333431	0.000059
H79	H	0.355179	0.244807	-0.025959
H80	H	0.361518	0.400193	-0.039873
H81	H	0.359012	0.338879	0.066017
O82	O	0.654153	0.363440	-0.000048
C83	C	0.629638	0.425885	-0.071269
H84	H	0.574760	0.395102	-0.095004
H85	H	0.619065	0.520428	-0.055257
H86	H	0.675263	0.412622	-0.121135
O87	O	0.498491	0.359529	0.000104
C88	C	0.422185	0.335484	0.000090
H89	H	0.418792	0.246351	0.026137
H90	H	0.386686	0.400822	0.039997
H91	H	0.399373	0.339837	-0.065873
H92	H	0.537357	-0.031721	0.000116
H93	H	0.987487	0.012653	0.360821
O94	O	0.995543	0.000399	0.197138
C95	C	1.040704	-0.067782	0.253895
H96	H	1.009674	-0.069001	0.315592
H97	H	1.051879	-0.158446	0.228901
H98	H	1.097076	-0.031035	0.263089
