data_functionalizedCrystal
_audit_creation_method	'MofGen! by Chris Wilmer'
_symmetry_space_group_name_H-M	'P1'
_symmetry_Int_Tables_number	1
_symmetry_cell_setting	triclinic
loop_
_symmetry_equiv_pos_as_xyz
  x,y,z
_cell_length_a	23.532407
_cell_length_b	23.532407
_cell_length_c	22.010155
_cell_angle_alpha	90.000423
_cell_angle_beta	89.996931
_cell_angle_gamma	97.151322
loop_
_atom_site_label
_atom_site_type_symbol
_atom_site_fract_x
_atom_site_fract_y
_atom_site_fract_z
O1	O	0.755264	-0.069127	-0.050455
O2	O	1.088597	0.264206	0.282878
O3	O	1.421930	0.597540	0.616211
O4	O	0.589400	-0.079130	-0.050474
O5	O	0.922734	0.254203	0.282859
O6	O	1.256067	0.587537	0.616193
O7	O	0.677334	0.008803	-0.050453
O8	O	1.010667	0.342137	0.282880
O9	O	1.344000	0.675470	0.616214
O10	O	0.667330	-0.157060	-0.050476
O11	O	1.000664	0.176273	0.282857
O12	O	1.333997	0.509607	0.616190
O13	O	0.677318	0.008790	0.050597
O14	O	1.010651	0.342123	0.383931
O15	O	1.343984	0.675457	0.717264
O16	O	0.589384	-0.079143	0.050576
O17	O	0.922718	0.254190	0.383910
O18	O	1.256051	0.587523	0.717243
O19	O	0.755248	-0.069140	0.050595
O20	O	1.088581	0.264193	0.383928
O21	O	1.421914	0.597527	0.717262
Cu22	Cu	0.672315	-0.074143	0.059812
Cu23	Cu	1.005648	0.259190	0.393146
Cu24	Cu	1.338981	0.592524	0.726479
Cu25	Cu	0.672333	-0.074127	-0.059691
Cu26	Cu	1.005667	0.259206	0.273642
Cu27	Cu	1.339000	0.592539	0.606975
O28	O	0.667314	-0.157073	0.050574
O29	O	1.000648	0.176260	0.383907
O30	O	1.333981	0.509593	0.717241
C31	C	0.568176	-0.078882	0.000049
C32	C	0.901510	0.254451	0.333382
C33	C	1.234843	0.587785	0.666715
C34	C	0.504959	-0.078116	0.000042
C35	C	0.838293	0.255217	0.333375
C36	C	1.171626	0.588551	0.666709
C37	C	0.677071	0.030013	0.000074
C38	C	1.010404	0.363346	0.333407
C39	C	1.343738	0.696679	0.666740
C40	C	0.676305	0.093230	0.000078
C41	C	1.009638	0.426563	0.333412
C42	C	1.342972	0.759896	0.666745
C43	C	0.105856	-0.125350	0.000063
C44	C	0.439190	0.207984	0.333396
C45	C	0.772523	0.541317	0.666730
C46	C	0.046456	-0.124638	0.000067
C47	C	0.379789	0.208695	0.333400
C48	C	0.713123	0.542029	0.666733
O49	O	0.009711	-0.168424	0.000083
O50	O	0.343045	0.164909	0.333416
O51	O	0.676378	0.498243	0.666749
N52	N	0.023830	-0.072362	0.000073
N53	N	0.357163	0.260972	0.333407
N54	N	0.690496	0.594305	0.666740
C55	C	0.060607	-0.020794	0.000082
C56	C	0.393941	0.312540	0.333415
C57	C	0.727274	0.645873	0.666749
O58	O	0.035908	0.023737	0.000088
O59	O	0.369241	0.357070	0.333422
O60	O	0.702574	0.690404	0.666755
C61	C	0.120006	-0.021506	0.000082
C62	C	0.453340	0.311828	0.333416
C63	C	0.786673	0.645161	0.666749
C64	C	0.142629	-0.073785	0.000070
C65	C	0.475962	0.259548	0.333403
C66	C	0.809296	0.592881	0.666737
C67	C	0.128479	-0.177625	0.000051
C68	C	0.461813	0.155708	0.333385
C69	C	0.795146	0.489042	0.666718
C70	C	0.187876	-0.178336	0.000046
C71	C	0.521209	0.154997	0.333380
C72	C	0.854542	0.488330	0.666713
C73	C	0.224649	-0.126772	0.000053
C74	C	0.557982	0.206561	0.333386
C75	C	0.891315	0.539895	0.666720
C76	C	0.202025	-0.074497	0.000065
C77	C	0.535359	0.258837	0.333398
C78	C	0.868692	0.592170	0.666732
C79	C	0.156783	0.030062	0.000096
C80	C	0.490116	0.363395	0.333429
C81	C	0.823450	0.696729	0.666762
C82	C	0.216185	0.029345	0.000097
C83	C	0.549519	0.362679	0.333430
C84	C	0.882852	0.696012	0.666763
C85	C	0.238808	-0.022934	0.000084
C86	C	0.572141	0.310399	0.333417
C87	C	0.905475	0.643732	0.666751
C88	C	0.298194	-0.023643	0.000067
C89	C	0.631528	0.309690	0.333400
C90	C	0.964861	0.643023	0.666734
N91	N	0.320820	-0.075920	0.000061
N92	N	0.654154	0.257414	0.333394
N93	N	0.987487	0.590747	0.666727
C94	C	0.284048	-0.127484	0.000054
C95	C	0.617381	0.205849	0.333387
C96	C	0.950714	0.539183	0.666720
C97	C	-0.064135	-0.019302	0.000082
C98	C	0.269198	0.314031	0.333415
C99	C	0.602532	0.647365	0.666749
C100	C	-0.123533	-0.018589	0.000077
C101	C	0.209800	0.314744	0.333410
C102	C	0.543134	0.648077	0.666744
C103	C	-0.137680	-0.122434	0.000063
C104	C	0.195653	0.210899	0.333396
C105	C	0.528986	0.544232	0.666730
C106	C	-0.078281	-0.123146	0.000064
C107	C	0.255052	0.210187	0.333397
C108	C	0.588385	0.543520	0.666730
C109	C	-0.041509	-0.071578	0.000076
C110	C	0.291824	0.261755	0.333409
C111	C	0.625158	0.595088	0.666742
C112	C	0.408784	-0.128974	0.000043
C113	C	0.742118	0.204360	0.333376
C114	C	1.075451	0.537693	0.666709
C115	C	0.468186	-0.129680	0.000035
C116	C	0.801520	0.203653	0.333369
C117	C	1.134853	0.536986	0.666702
C118	C	0.482329	-0.025836	0.000052
C119	C	0.815662	0.307497	0.333386
C120	C	1.148995	0.640831	0.666719
C121	C	0.422932	-0.025129	0.000057
C122	C	0.756265	0.308204	0.333390
C123	C	1.089598	0.641538	0.666723
C124	C	0.386160	-0.076702	0.000054
C125	C	0.719494	0.256631	0.333387
C126	C	1.052827	0.589964	0.666721
O127	O	0.334974	0.020119	0.000054
O128	O	0.668307	0.353453	0.333387
O129	O	1.001640	0.686786	0.666720
O130	O	0.308755	-0.172007	0.000055
O131	O	0.642089	0.161326	0.333389
O132	O	0.975422	0.494660	0.666722
C133	C	0.776472	-0.069388	0.000071
C134	C	1.109805	0.263945	0.333404
C135	C	1.443138	0.597278	0.666737
C136	C	0.839689	-0.070154	0.000073
C137	C	1.173022	0.263179	0.333407
C138	C	1.506355	0.596513	0.666740
C139	C	0.667577	-0.178283	0.000046
C140	C	1.000910	0.155051	0.333379
C141	C	1.334244	0.488384	0.666712
C142	C	0.668343	-0.241500	0.000037
C143	C	1.001676	0.091833	0.333371
C144	C	1.335010	0.425167	0.666704
N145	N	0.672305	-0.074153	0.143865
N146	N	1.005639	0.259180	0.477198
N147	N	1.338972	0.592513	0.810531
C148	C	0.723539	0.492333	0.000050
C149	C	1.056872	0.825666	0.333384
C150	C	1.390205	1.158999	0.666717
C151	C	0.722827	0.551733	0.000046
C152	C	1.056160	0.885066	0.333379
C153	C	1.389494	1.218400	0.666712
O154	O	0.766613	0.588478	0.000028
O155	O	1.099946	0.921811	0.333361
O156	O	1.433280	1.255144	0.666695
N157	N	0.670551	0.574359	0.000040
N158	N	1.003884	0.907693	0.333373
N159	N	1.337217	1.241026	0.666707
C160	C	0.618983	0.537582	0.000033
C161	C	0.952316	0.870915	0.333366
C162	C	1.285649	1.204248	0.666700
O163	O	0.574452	0.562281	0.000027
O164	O	0.907785	0.895615	0.333361
O165	O	1.241119	1.228948	0.666694
C166	C	0.619695	0.478182	0.000033
C167	C	0.953028	0.811516	0.333367
C168	C	1.286361	1.144849	0.666700
C169	C	0.671974	0.455560	0.000045
C170	C	1.005308	0.788893	0.333378
C171	C	1.338641	1.122227	0.666712
C172	C	0.775814	0.469710	0.000061
C173	C	1.109147	0.803043	0.333394
C174	C	1.442481	1.136376	0.666728
C175	C	0.776525	0.410313	0.000067
C176	C	1.109859	0.743647	0.333400
C177	C	1.443192	1.076980	0.666734
C178	C	0.724961	0.373540	0.000062
C179	C	1.058294	0.706874	0.333395
C180	C	1.391628	1.040207	0.666729
C181	C	0.672685	0.396164	0.000051
C182	C	1.006019	0.729497	0.333384
C183	C	1.339352	1.062830	0.666718
C184	C	0.568127	0.441406	0.000022
C185	C	0.901460	0.774739	0.333356
C186	C	1.234794	1.108073	0.666689
C187	C	0.568844	0.382004	0.000022
C188	C	0.902177	0.715337	0.333355
C189	C	1.235510	1.048670	0.666689
C190	C	0.621123	0.359381	0.000034
C191	C	0.954457	0.692714	0.333367
C192	C	1.287790	1.026048	0.666700
C193	C	0.621832	0.299995	0.000052
C194	C	0.955166	0.633328	0.333385
C195	C	1.288499	0.966661	0.666718
N196	N	0.674109	0.277368	0.000057
N197	N	1.007442	0.610702	0.333390
N198	N	1.340775	0.944035	0.666724
C199	C	0.725673	0.314141	0.000062
C200	C	1.059006	0.647475	0.333396
C201	C	1.392340	0.980808	0.666729
C202	C	0.617491	0.662324	0.000031
C203	C	0.950824	0.995657	0.333365
C204	C	1.284158	1.328991	0.666698
C205	C	0.616778	0.721722	0.000035
C206	C	0.950112	1.055055	0.333369
C207	C	1.283445	1.388389	0.666702
C208	C	0.720623	0.735869	0.000047
C209	C	1.053957	1.069203	0.333380
C210	C	1.387290	1.402536	0.666713
C211	C	0.721335	0.676470	0.000047
C212	C	1.054669	1.009804	0.333380
C213	C	1.388002	1.343137	0.666714
C214	C	0.669767	0.639698	0.000037
C215	C	1.003101	0.973031	0.333370
C216	C	1.336434	1.306365	0.666703
C217	C	0.727163	0.189405	0.000075
C218	C	1.060496	0.522738	0.333408
C219	C	1.393829	0.856071	0.666742
C220	C	0.727869	0.130003	0.000083
C221	C	1.061203	0.463336	0.333417
C222	C	1.394536	0.796669	0.666750
C223	C	0.624025	0.115860	0.000069
C224	C	0.957358	0.449194	0.333402
C225	C	1.290692	0.782527	0.666736
C226	C	0.623318	0.175257	0.000064
C227	C	0.956651	0.508591	0.333397
C228	C	1.289985	0.841924	0.666730
C229	C	0.674891	0.212029	0.000065
C230	C	1.008225	0.545362	0.333398
C231	C	1.341558	0.878695	0.666731
O232	O	0.578070	0.263215	0.000067
O233	O	0.911403	0.596549	0.333400
O234	O	1.244736	0.929882	0.666733
O235	O	0.770196	0.289433	0.000060
O236	O	1.103529	0.622767	0.333393
O237	O	1.436863	0.956100	0.666727
N238	N	0.672347	-0.074112	-0.143744
N239	N	1.005680	0.259221	0.189589
N240	N	1.339014	0.592555	0.522923
C241	C	0.711273	-0.035196	0.563653
C242	C	1.044606	0.298137	0.896987
C243	C	1.377939	0.631471	1.230320
C244	C	0.711275	-0.035192	0.627261
C245	C	1.044609	0.298141	0.960594
C246	C	1.377942	0.631475	1.293928
O247	O	0.744384	-0.002076	0.660160
O248	O	1.077717	0.331257	0.993494
O249	O	1.411050	0.664590	1.326827
N250	N	0.672333	-0.074115	0.659072
N251	N	1.005667	0.259218	0.992405
N252	N	1.339000	0.592551	1.325739
C253	C	0.633382	-0.113041	0.627272
C254	C	0.966715	0.220292	0.960605
C255	C	1.300049	0.553625	1.293938
O256	O	0.600259	-0.146148	0.660170
O257	O	0.933592	0.187185	0.993503
O258	O	1.266925	0.520519	1.326837
C259	C	0.633377	-0.113042	0.563665
C260	C	0.966711	0.220291	0.896999
C261	C	1.300044	0.553625	1.230332
C262	C	0.672326	-0.074120	0.531858
C263	C	1.005659	0.259213	0.865191
C264	C	1.338992	0.592547	1.198524
C265	C	0.750217	0.003723	0.531846
C266	C	1.083551	0.337057	0.865179
C267	C	1.416884	0.670390	1.198513
C268	C	0.750215	0.003719	0.468243
C269	C	1.083549	0.337052	0.801576
C270	C	1.416882	0.670385	1.134909
C271	C	0.711268	-0.035205	0.436447
C272	C	1.044602	0.298128	0.769780
C273	C	1.377935	0.631461	1.103114
C274	C	0.672324	-0.074125	0.468255
C275	C	1.005657	0.259209	0.801588
C276	C	1.338990	0.592542	1.134921
C277	C	0.594424	-0.151965	0.531866
C278	C	0.927757	0.181368	0.865200
C279	C	1.261091	0.514702	1.198533
C280	C	0.594422	-0.151962	0.468256
C281	C	0.927755	0.181371	0.801589
C282	C	1.261089	0.514705	1.134922
C283	C	0.633370	-0.113040	0.436448
C284	C	0.966704	0.220293	0.769781
C285	C	1.300037	0.553627	1.103115
C286	C	0.633374	-0.113054	0.372856
C287	C	0.966708	0.220280	0.706189
C288	C	1.300041	0.553613	1.039522
N289	N	0.672317	-0.074130	0.341045
N290	N	1.005650	0.259203	0.674378
N291	N	1.338983	0.592536	1.007712
C292	C	0.711263	-0.035206	0.372841
C293	C	1.044597	0.298127	0.706174
C294	C	1.377930	0.631460	1.039507
C295	C	0.633395	-0.113036	0.760850
C296	C	0.966728	0.220297	1.094183
C297	C	1.300061	0.553631	1.427516
C298	C	0.633402	-0.113039	0.824455
C299	C	0.966735	0.220295	1.157788
C300	C	1.300069	0.553628	1.491122
C301	C	0.711294	-0.035188	0.824440
C302	C	1.044628	0.298145	1.157773
C303	C	1.377961	0.631478	1.491106
C304	C	0.711290	-0.035189	0.760833
C305	C	1.044623	0.298144	1.094167
C306	C	1.377956	0.631478	1.427500
C307	C	0.672337	-0.074113	0.729039
C308	C	1.005670	0.259221	1.062372
C309	C	1.339003	0.592554	1.395705
C310	C	0.711256	-0.035220	0.239269
C311	C	1.044590	0.298114	0.572603
C312	C	1.377923	0.631447	0.905936
C313	C	0.711252	-0.035229	0.175660
C314	C	1.044586	0.298104	0.508994
C315	C	1.377919	0.631437	0.842327
C316	C	0.633358	-0.113077	0.175681
C317	C	0.966691	0.220256	0.509014
C318	C	1.300025	0.553589	0.842348
C319	C	0.633364	-0.113070	0.239284
C320	C	0.966697	0.220264	0.572618
C321	C	1.300031	0.553597	0.905951
C322	C	0.672315	-0.074136	0.271077
C323	C	1.005649	0.259197	0.604410
C324	C	1.338982	0.592531	0.937744
O325	O	0.600282	-0.146151	0.339916
O326	O	0.933615	0.187182	0.673249
O327	O	1.266948	0.520516	1.006583
O328	O	0.744376	-0.002100	0.339935
O329	O	1.077710	0.331233	0.673268
O330	O	1.411043	0.664567	1.006601
H331	H	0.486602	-0.172255	0.000025
H332	H	0.819935	0.161079	0.333358
H333	H	1.153269	0.494412	0.666691
O334	O	0.778606	0.107933	0.000118
O335	O	1.111940	0.441266	0.333451
O336	O	1.445273	0.774600	0.666785
C337	C	0.768183	0.047620	0.000107
C338	C	1.101516	0.380954	0.333440
C339	C	1.434849	0.714287	0.666773
H340	H	0.723656	0.033425	0.019235
H341	H	1.056989	0.366758	0.352568
H342	H	1.390323	0.700092	0.685901
H343	H	0.801611	0.029568	0.029448
H344	H	1.134944	0.362901	0.362782
H345	H	1.468277	0.696235	0.696115
H346	H	0.770853	0.031097	-0.048371
H347	H	1.104186	0.364430	0.284962
H348	H	1.437519	0.697764	0.618296
O349	O	0.595537	-0.150910	0.730061
O350	O	0.928871	0.182423	1.063394
O351	O	1.262204	0.515756	1.396727
C352	C	0.561162	-0.185252	0.771783
C353	C	0.894496	0.148081	1.105117
C354	C	1.227829	0.481415	1.438450
H355	H	0.584515	-0.185769	0.817119
H356	H	0.917848	0.147565	1.150453
H357	H	1.251181	0.480898	1.483786
H358	H	0.552215	-0.230782	0.753414
H359	H	0.885548	0.102551	1.086747
H360	H	1.218881	0.435885	1.420080
H361	H	0.518962	-0.166976	0.778555
H362	H	0.852296	0.166358	1.111888
H363	H	1.185629	0.499691	1.445221
H364	H	0.574207	0.740136	0.000036
H365	H	0.907540	1.073469	0.333370
H366	H	1.240874	1.406802	0.666703
O367	O	0.749148	0.002622	0.270052
O368	O	1.082481	0.335956	0.603386
O369	O	1.415814	0.669289	0.936719
C370	C	0.783506	0.036978	0.228328
C371	C	1.116839	0.370312	0.561662
C372	C	1.450173	0.703645	0.894995
H373	H	0.784009	0.013622	0.182992
H374	H	1.117343	0.346955	0.516325
H375	H	1.450676	0.680289	0.849659
H376	H	0.829038	0.045902	0.246695
H377	H	1.162371	0.379235	0.580029
H378	H	1.495705	0.712568	0.913362
H379	H	0.765255	0.079191	0.221559
H380	H	1.098588	0.412525	0.554892
H381	H	1.431922	0.745858	0.888225
O382	O	0.556508	-0.189717	0.562725
O383	O	0.889841	0.143616	0.896059
O384	O	1.223175	0.476950	1.229392
C385	C	0.500191	-0.180745	0.547167
C386	C	0.833524	0.152588	0.880500
C387	C	1.166858	0.485922	1.213833
H388	H	0.500181	-0.135145	0.529687
H389	H	0.833515	0.198188	0.863021
H390	H	1.166848	0.531522	1.196354
H391	H	0.471566	-0.187442	0.588993
H392	H	0.804900	0.145891	0.922327
H393	H	1.138233	0.479224	1.255660
H394	H	0.483286	-0.212391	0.510240
H395	H	0.816619	0.120942	0.843574
H396	H	1.149952	0.454276	1.176907
H397	H	0.817806	0.499645	0.000063
H398	H	1.151140	0.832978	0.333396
H399	H	1.484473	1.166312	0.666730
O400	O	0.595548	-0.150773	0.855416
O401	O	0.928881	0.182560	1.188749
O402	O	1.262215	0.515893	1.522082
C403	C	0.560577	-0.120451	0.892197
C404	C	0.893911	0.212882	1.225530
C405	C	1.227244	0.546216	1.558864
H406	H	0.583513	-0.075770	0.901727
H407	H	0.916846	0.257563	1.235060
H408	H	1.250180	0.590896	1.568394
H409	H	0.551429	-0.144269	0.936925
H410	H	0.884763	0.189064	1.270258
H411	H	1.218096	0.522397	1.603591
H412	H	0.518512	-0.116794	0.867683
H413	H	0.851845	0.216539	1.201016
H414	H	1.185179	0.549872	1.534350
O415	O	0.770700	0.771619	-0.000063
O416	O	1.104033	1.104953	0.333270
O417	O	1.437367	1.438286	0.666604
C418	C	0.773389	0.806407	-0.052394
C419	C	1.106722	1.139740	0.280940
C420	C	1.440055	1.473073	0.614273
H421	H	0.744143	0.784485	-0.088971
H422	H	1.077477	1.117818	0.244362
H423	H	1.410810	1.451152	0.577695
H424	H	0.819303	0.813342	-0.069960
H425	H	1.152636	1.146675	0.263373
H426	H	1.485970	1.480008	0.596707
H427	H	0.758894	0.849522	-0.040566
H428	H	1.092228	1.182855	0.292767
H429	H	1.425561	1.516189	0.626100
O430	O	0.209869	-0.229110	-0.000077
O431	O	0.543202	0.104224	0.333256
O432	O	0.876535	0.437557	0.666590
C433	C	0.243812	-0.232621	-0.052409
C434	C	0.577145	0.100713	0.280924
C435	C	0.910479	0.434046	0.614258
H436	H	0.229937	-0.202926	-0.088977
H437	H	0.563270	0.130407	0.244356
H438	H	0.896603	0.463740	0.577689
H439	H	0.238212	-0.278546	-0.069990
H440	H	0.571545	0.054788	0.263344
H441	H	0.904879	0.388121	0.596677
H442	H	0.290733	-0.219230	-0.040578
H443	H	0.624066	0.114104	0.292755
H444	H	0.957400	0.447437	0.626088
O445	O	0.556639	-0.189854	0.437399
O446	O	0.889973	0.143480	0.770732
O447	O	1.223306	0.476813	1.104065
C448	C	0.565565	-0.246184	0.452958
C449	C	0.898898	0.087149	0.786292
C450	C	1.232231	0.420483	1.119625
H451	H	0.611159	-0.246231	0.470438
H452	H	0.944492	0.087102	0.803771
H453	H	1.277826	0.420436	1.137104
H454	H	0.558846	-0.274805	0.411133
H455	H	0.892180	0.058528	0.744466
H456	H	1.225513	0.391862	1.077799
H457	H	0.533907	-0.263066	0.489886
H458	H	0.867240	0.070267	0.823219
H459	H	1.200573	0.403600	1.156552
H460	H	-0.167632	-0.164421	0.000060
H461	H	0.165701	0.168913	0.333394
H462	H	0.499035	0.502246	0.666727
O463	O	0.092739	-0.227704	0.000148
O464	O	0.426072	0.105630	0.333481
O465	O	0.759406	0.438963	0.666815
C466	C	0.057938	-0.230414	0.052471
C467	C	0.391271	0.102920	0.385804
C468	C	0.724605	0.436253	0.719138
H469	H	0.079842	-0.201170	0.089061
H470	H	0.413175	0.132163	0.422394
H471	H	0.746509	0.465496	0.755727
H472	H	0.051013	-0.276332	0.070024
H473	H	0.384346	0.057001	0.403357
H474	H	0.717679	0.390334	0.736690
H475	H	0.014819	-0.215931	0.040639
H476	H	0.348153	0.117402	0.373972
H477	H	0.681486	0.450736	0.707305
O478	O	0.567342	0.626686	0.000057
O479	O	0.900675	0.960019	0.333390
O480	O	1.234009	1.293353	0.666724
C481	C	0.521054	0.659400	0.000037
C482	C	0.854388	0.992733	0.333371
C483	C	1.187721	1.326067	0.666704
H484	H	0.535773	0.703815	0.019168
H485	H	0.869106	1.037149	0.352501
H486	H	1.202439	1.370482	0.685834
H487	H	0.484941	0.637295	0.029373
H488	H	0.818274	0.970628	0.362706
H489	H	1.151607	1.303962	0.696040
H490	H	0.505020	0.663543	-0.048443
H491	H	0.838354	0.996876	0.284890
H492	H	1.171687	1.330210	0.618224
H493	H	0.404512	0.017441	0.000058
H494	H	0.737845	0.350775	0.333391
H495	H	1.071178	0.684108	0.666725
H496	H	0.781929	0.035414	0.442349
H497	H	1.115262	0.368747	0.775682
H498	H	1.448595	0.702081	1.109015
O499	O	-0.145437	0.032231	0.000001
O500	O	0.187896	0.365564	0.333334
O501	O	0.521230	0.698898	0.666668
C502	C	-0.126626	0.063642	-0.052338
C503	C	0.206708	0.396975	0.280995
C504	C	0.540041	0.730309	0.614329
H505	H	-0.085512	0.048358	-0.069791
H506	H	0.247821	0.381691	0.263542
H507	H	0.581154	0.715025	0.596875
H508	H	-0.118114	0.111115	-0.040561
H509	H	0.215219	0.444448	0.292772
H510	H	0.548552	0.777781	0.626105
H511	H	-0.161037	0.056854	-0.088983
H512	H	0.172296	0.390187	0.244350
H513	H	0.505629	0.723521	0.577683
H514	H	0.781933	0.035423	0.557728
H515	H	1.115266	0.368756	0.891062
H516	H	1.448599	0.702089	1.224395
H517	H	0.525555	0.459814	0.000009
H518	H	0.858889	0.793148	0.333342
H519	H	1.192222	1.126481	0.666676
H520	H	0.769159	0.219337	0.000073
H521	H	1.102492	0.552671	0.333407
H522	H	1.435826	0.886004	0.666740
H523	H	-0.059867	-0.165717	0.000057
H524	H	0.273467	0.167616	0.333390
H525	H	0.606800	0.500950	0.666723
H526	H	0.582043	0.085909	0.000067
H527	H	0.915376	0.419243	0.333400
H528	H	1.248709	0.752576	0.666734
H529	H	0.526850	0.352066	0.000013
H530	H	0.860183	0.685399	0.333346
H531	H	1.193516	1.018732	0.666680
H532	H	0.819097	0.391900	0.000074
H533	H	1.152430	0.725233	0.333407
H534	H	1.485763	1.058567	0.666741
O535	O	0.572485	0.197142	0.000028
O536	O	0.905818	0.530475	0.333361
O537	O	1.239151	0.863808	0.666694
C538	C	0.527126	0.151944	0.000042
C539	C	0.860459	0.485278	0.333375
C540	C	1.193793	0.818611	0.666709
H541	H	0.542861	0.111674	-0.019075
H542	H	0.876194	0.445007	0.314258
H543	H	1.209527	0.778341	0.647591
H544	H	0.490613	0.164152	-0.029307
H545	H	0.823947	0.497485	0.304026
H546	H	1.157280	0.830818	0.637359
H547	H	0.511225	0.143460	0.048519
H548	H	0.844559	0.476793	0.381853
H549	H	1.177892	0.810127	0.715186
O550	O	0.772169	0.654592	0.000025
O551	O	1.105503	0.987925	0.333358
O552	O	1.438836	1.321259	0.666692
C553	C	0.817524	0.699793	0.000047
C554	C	1.150858	1.033126	0.333380
C555	C	1.484191	1.366460	0.666713
H556	H	0.801793	0.740059	-0.019083
H557	H	1.135126	1.073393	0.314250
H558	H	1.468460	1.406726	0.647584
H559	H	0.854049	0.687586	-0.029289
H560	H	1.187383	1.020919	0.304044
H561	H	1.520716	1.354252	0.637378
H562	H	0.833406	0.708284	0.048527
H563	H	1.166740	1.041618	0.381861
H564	H	1.500073	1.374951	0.715194
O565	O	0.748978	0.002669	0.144735
O566	O	1.082311	0.336003	0.478068
O567	O	1.415644	0.669336	0.811401
C568	C	0.718621	0.037652	0.108009
C569	C	1.051954	0.370985	0.441342
C570	C	1.385287	0.704318	0.774676
H571	H	0.673960	0.014684	0.098445
H572	H	1.007293	0.348017	0.431778
H573	H	1.340627	0.681351	0.765112
H574	H	0.742441	0.046883	0.063295
H575	H	1.075774	0.380216	0.396628
H576	H	1.409107	0.713550	0.729961
H577	H	0.714914	0.079675	0.132589
H578	H	1.048247	0.413008	0.465922
H579	H	1.381581	0.746342	0.799255
O580	O	-0.028359	0.030758	0.000002
O581	O	0.304975	0.364091	0.333336
O582	O	0.638308	0.697424	0.666669
C583	C	0.006415	0.033468	-0.052341
C584	C	0.339748	0.366801	0.280992
C585	C	0.673082	0.700134	0.614325
H586	H	0.009178	-0.011717	-0.069793
H587	H	0.342511	0.321617	0.263541
H588	H	0.675845	0.654950	0.596874
H589	H	0.051177	0.054948	-0.040571
H590	H	0.384510	0.388281	0.292762
H591	H	0.717843	0.721614	0.626095
H592	H	-0.012989	0.059363	-0.088986
H593	H	0.320344	0.392696	0.244347
H594	H	0.653678	0.726029	0.577681
H595	H	0.743004	-0.003495	0.734939
H596	H	1.076338	0.329838	1.068273
H597	H	1.409671	0.663172	1.401606
H598	H	0.743006	-0.003493	0.850339
H599	H	1.076340	0.329840	1.183673
H600	H	1.409673	0.663173	1.517006
H601	H	0.601654	-0.144769	0.265183
H602	H	0.934987	0.188564	0.598516
H603	H	1.268321	0.521898	0.931849
O604	O	0.595582	-0.150963	0.144815
O605	O	0.928916	0.182370	0.478148
O606	O	1.262249	0.515703	0.811481
C607	C	0.604501	-0.207298	0.160363
C608	C	0.937834	0.126035	0.493696
C609	C	1.271167	0.459368	0.827029
H610	H	0.650092	-0.207353	0.177847
H611	H	0.983426	0.125980	0.511181
H612	H	1.316759	0.459314	0.844514
H613	H	0.597785	-0.235910	0.118530
H614	H	0.931119	0.097423	0.451863
H615	H	1.264452	0.430756	0.785196
H616	H	0.572836	-0.224186	0.197282
H617	H	0.906170	0.109147	0.530616
H618	H	1.239503	0.442480	0.863949
O619	O	0.373151	-0.179124	0.000009
O620	O	0.706485	0.154210	0.333342
O621	O	1.039818	0.487543	0.666676
C622	C	0.405867	-0.225410	0.000011
C623	C	0.739200	0.107923	0.333345
C624	C	1.072534	0.441257	0.666678
H625	H	0.450283	-0.210684	-0.019117
H626	H	0.783616	0.122650	0.314216
H627	H	1.116949	0.455983	0.647550
H628	H	0.383764	-0.261514	-0.029335
H629	H	0.717098	0.071819	0.303998
H630	H	1.050431	0.405152	0.637331
H631	H	0.410009	-0.241460	0.048486
H632	H	0.743342	0.091873	0.381819
H633	H	1.076676	0.425206	0.715153
H634	H	0.246123	0.071339	0.000107
H635	H	0.579457	0.404673	0.333440
H636	H	0.912790	0.738006	0.666773
O637	O	0.134912	0.080897	0.000140
O638	O	0.468245	0.414231	0.333474
O639	O	0.801578	0.747564	0.666807
C640	C	0.180116	0.126249	0.000137
C641	C	0.513450	0.459582	0.333470
C642	C	0.846783	0.792915	0.666803
H643	H	0.220380	0.110505	0.019258
H644	H	0.553713	0.443838	0.352591
H645	H	0.887046	0.777172	0.685924
H646	H	0.167911	0.162763	0.029489
H647	H	0.501244	0.496096	0.362822
H648	H	0.834578	0.829429	0.696155
H649	H	0.188612	0.142151	-0.048338
H650	H	0.521945	0.475484	0.284996
H651	H	0.855279	0.808818	0.618329
H652	H	0.512280	0.016146	0.000056
H653	H	0.845613	0.349480	0.333389
H654	H	1.178946	0.682813	0.666722
