data_functionalizedCrystal
_audit_creation_method	'MofGen! by Chris Wilmer'
_symmetry_space_group_name_H-M	'P1'
_symmetry_Int_Tables_number	1
_symmetry_cell_setting	triclinic
loop_
_symmetry_equiv_pos_as_xyz
  x,y,z
_cell_length_a	11.792241
_cell_length_b	10.540539
_cell_length_c	10.268362
_cell_angle_alpha	89.996859
_cell_angle_beta	89.999626
_cell_angle_gamma	84.359454
loop_
_atom_site_label
_atom_site_type_symbol
_atom_site_fract_x
_atom_site_fract_y
_atom_site_fract_z
O1	O	1.507362	0.173992	-0.108167
O2	O	1.177067	0.191924	-0.108197
O3	O	1.349750	-0.001773	-0.108180
O4	O	1.334679	0.367689	-0.108184
O5	O	1.349735	-0.001781	0.108421
O6	O	1.177052	0.191916	0.108404
O7	O	1.507347	0.173984	0.108433
Cu8	Cu	1.342198	0.182949	0.128196
Cu9	Cu	1.342216	0.182959	-0.127959
O10	O	1.334664	0.367681	0.108416
C11	C	1.134766	0.190793	0.000100
C12	C	1.008743	0.187422	0.000088
C13	C	0.778015	0.181223	0.000126
C14	C	0.906409	0.184667	0.000105
C15	C	1.348612	-0.049076	0.000118
C16	C	1.345231	-0.190014	0.000111
C17	C	1.215660	-0.373018	-0.000387
C18	C	1.219087	-0.226411	0.000101
C19	C	1.405928	-0.251874	0.123806
C20	C	1.401623	-0.398404	0.123910
C21	C	1.404206	-0.398921	-0.122405
C22	C	1.405368	-0.251943	-0.124041
C23	C	1.549648	0.175114	0.000134
C24	C	1.675671	0.178486	0.000137
C25	C	1.335802	0.414984	0.000116
C26	C	1.339183	0.555921	0.000114
N27	N	1.342194	0.182942	0.308362
N28	N	1.342229	0.182956	-0.308125
C29	C	1.342210	0.182956	0.574032
C30	C	1.342197	0.182952	0.426195
H31	H	1.165836	-0.401453	-0.089091
N32	N	1.153402	-0.410724	0.110257
N33	N	1.199610	-0.489702	0.189479
H34	H	1.155643	-0.516336	0.267624
H35	H	1.170980	-0.184502	0.088910
N36	N	1.353038	-0.198285	0.239290
N37	N	1.409991	-0.141601	0.319329
H38	H	1.372633	-0.103756	0.400889
H39	H	1.171327	-0.183649	-0.088569
H40	H	1.492343	-0.446668	0.129529
H41	H	1.356752	-0.426461	0.216366
H42	H	1.363386	-0.430338	-0.216158
H43	H	1.498564	-0.229821	0.128413
N44	N	1.349718	-0.200402	-0.238831
N45	N	1.266078	-0.118361	-0.229342
H46	H	1.226771	-0.081952	-0.310410
N47	N	1.520733	-0.221904	-0.133406
N48	N	1.560689	-0.154068	-0.048346
H49	H	1.642169	-0.132847	-0.054955
N50	N	1.518509	-0.458526	-0.123415
N51	N	1.552070	-0.533952	-0.034389
H52	H	1.632795	-0.576048	-0.035088
