data_functionalizedCrystal
_audit_creation_method	'MofGen! by Chris Wilmer'
_symmetry_space_group_name_H-M	'P1'
_symmetry_Int_Tables_number	1
_symmetry_cell_setting	triclinic
loop_
_symmetry_equiv_pos_as_xyz
  x,y,z
_cell_length_a	10.654550
_cell_length_b	10.654551
_cell_length_c	9.730223
_cell_angle_alpha	90.002801
_cell_angle_beta	89.993622
_cell_angle_gamma	84.485132
loop_
_atom_site_label
_atom_site_type_symbol
_atom_site_fract_x
_atom_site_fract_y
_atom_site_fract_z
O1	O	1.667840	0.176390	-0.114394
O2	O	1.302361	0.193196	-0.114371
O3	O	1.493503	0.002054	-0.114383
O4	O	1.476698	0.367532	-0.114381
O5	O	1.493491	0.002065	0.114197
O6	O	1.302349	0.193207	0.114209
O7	O	1.667827	0.176401	0.114186
Zn8	Zn	1.485086	0.184806	0.150490
Zn9	Zn	1.485102	0.184792	-0.150674
O10	O	1.476686	0.367543	0.114199
C11	C	1.255557	0.191968	-0.000078
C12	C	1.116114	0.188276	-0.000069
C13	C	1.036629	0.300817	-0.000089
C14	C	0.905608	0.297341	-0.000113
C15	C	0.933570	0.068771	-0.000104
C16	C	1.064589	0.072249	-0.000070
C17	C	1.088154	0.416844	-0.000088
C18	C	1.008667	0.529395	-0.000109
C19	C	0.877647	0.525918	-0.000133
C20	C	0.826112	0.409891	-0.000136
C21	C	1.492263	-0.044739	-0.000096
C22	C	1.488570	-0.184182	-0.000105
C23	C	1.486845	-0.249699	-0.124702
C24	C	1.483364	-0.380720	-0.124695
C25	C	1.483341	-0.380694	0.124515
C26	C	1.486812	-0.249675	0.124507
C27	C	1.488603	-0.184207	-0.249314
C28	C	1.486879	-0.249725	-0.373921
C29	C	1.483399	-0.380745	-0.373914
C30	C	1.481642	-0.446247	-0.249301
C31	C	1.714632	0.177629	-0.000109
C32	C	1.854075	0.181321	-0.000127
C33	C	1.477926	0.414336	-0.000091
C34	C	1.481619	0.553779	-0.000091
N35	N	1.485084	0.184814	0.356026
N36	N	1.485114	0.184773	-0.356211
C37	C	1.561914	0.261689	0.427961
C38	C	1.561933	0.261665	0.571844
C39	C	1.408281	0.107889	0.571845
C40	C	1.408270	0.107907	0.427964
C41	C	1.638729	0.338596	0.356023
C42	C	1.715564	0.415478	0.427958
C43	C	1.715582	0.415454	0.571840
C44	C	1.638766	0.338549	0.643789
H45	H	0.812931	0.617562	-0.000136
Br46	Br	1.819869	0.519778	0.669464
Br47	Br	1.481040	-0.469658	-0.543019
Br48	Br	1.304034	0.003529	0.669488
H49	H	1.478790	-0.552931	-0.249306
Br50	Br	1.489157	-0.160750	0.293605
H51	H	1.050636	0.623860	-0.000095
Br52	Br	0.863630	-0.088684	-0.000111
H53	H	1.345706	0.045311	0.369394
Br54	Br	1.265966	0.421568	-0.000069
Br55	Br	1.493338	-0.006395	-0.249330
Br56	Br	0.648296	0.405175	-0.000142
Br57	Br	1.638700	0.338640	0.160754
H58	H	1.488297	-0.196383	-0.475376
Br59	Br	1.638812	0.338500	0.839060
H60	H	1.481912	-0.434036	0.225969
Br61	Br	1.819825	0.519828	0.330319
H62	H	1.129308	-0.019392	-0.000058
