data_functionalizedCrystal
_audit_creation_method	'MofGen! by Chris Wilmer'
_symmetry_space_group_name_H-M	'P1'
_symmetry_Int_Tables_number	1
_symmetry_cell_setting	triclinic
loop_
_symmetry_equiv_pos_as_xyz
  x,y,z
_cell_length_a	18.050590
_cell_length_b	12.759399
_cell_length_c	12.759393
_cell_angle_alpha	89.967969
_cell_angle_beta	90.005968
_cell_angle_gamma	89.995719
loop_
_atom_site_label
_atom_site_type_symbol
_atom_site_fract_x
_atom_site_fract_y
_atom_site_fract_z
Zn1	Zn	1.135409	0.418508	0.593628
Zn2	Zn	1.135334	0.594227	0.417947
Zn3	Zn	1.011214	0.418529	0.418006
Zn4	Zn	1.011205	0.594112	0.593627
O5	O	1.073291	0.506344	0.505802
O6	O	1.239324	0.441856	0.570300
O7	O	1.118841	0.570977	0.270934
O8	O	1.027724	0.271505	0.441328
O9	O	1.239269	0.570956	0.441227
O10	O	1.118970	0.271490	0.570357
O11	O	1.027651	0.441893	0.270977
O12	O	0.907288	0.441782	0.441326
O13	O	1.027709	0.570761	0.740648
O14	O	0.907282	0.570782	0.570354
O15	O	1.118961	0.441745	0.740649
O16	O	1.118833	0.741233	0.441226
O17	O	1.027636	0.741148	0.570297
C18	C	0.880338	0.506272	0.505847
C19	C	0.797793	0.506267	0.505891
C20	C	1.073245	0.779311	0.505778
C21	C	1.073294	0.896088	0.505803
C22	C	1.073342	0.506238	0.779835
C23	C	1.073365	0.506192	0.896612
C24	C	0.598360	0.576618	0.575890
C25	C	0.548954	0.480817	0.601739
C26	C	0.646662	0.506325	0.505840
C27	C	0.548987	0.602182	0.479990
C28	C	0.500677	0.506391	0.505793
C29	C	0.598343	0.410473	0.531739
C30	C	0.598381	0.531903	0.409946
C31	C	0.548997	0.436035	0.435758
C32	C	0.730761	0.506289	0.505870
C33	C	0.416581	0.506416	0.505762
C34	C	1.266996	0.506417	0.505757
C35	C	1.349542	0.506448	0.505738
C36	C	1.073357	0.232311	0.505849
C37	C	1.073385	0.115534	0.505869
C38	C	1.120834	0.950959	0.438672
C39	C	1.120882	1.060683	0.438707
C40	C	1.025842	1.060655	0.573007
C41	C	1.025799	0.950933	0.572977
C42	C	1.073282	0.506374	0.232835
C43	C	1.073403	0.506123	0.116058
C44	C	1.025899	0.438966	0.951496
C45	C	1.025916	0.438934	1.061220
C46	C	1.120871	0.573357	1.061167
C47	C	1.120850	0.573394	0.951445
H48	H	0.620036	0.635958	0.635196
C49	C	1.015653	0.297579	1.184661
C50	C	0.973740	0.365043	1.121556
H51	H	0.983437	0.251969	1.221915
H52	H	1.048004	0.257415	1.141863
H53	H	1.043935	0.337605	1.233014
H54	H	0.945462	0.325017	1.073197
H55	H	0.941376	0.405211	1.164358
C56	C	0.442150	0.710196	0.449862
C57	C	0.519715	0.711574	0.450492
H58	H	0.424081	0.777733	0.431663
H59	H	0.425256	0.660371	0.400012
H60	H	0.424509	0.691566	0.517494
H61	H	0.537356	0.730196	0.382858
H62	H	0.536615	0.761414	0.500345
H63	H	1.159533	0.628069	1.105825
H64	H	0.987172	1.105324	0.627696
C65	C	1.131157	0.827682	0.297316
C66	C	1.173044	0.890672	0.364842
H67	H	1.163392	0.790472	0.251734
H68	H	1.102844	0.779301	0.337291
H69	H	1.098835	0.870561	0.257116
H70	H	1.205362	0.847792	0.405048
H71	H	1.201368	0.939058	0.324863
H72	H	1.159504	0.628142	0.906757
H73	H	0.987085	0.906254	0.627648
H74	H	1.159595	1.105354	0.384044
C75	C	0.925986	0.424374	0.828127
C76	C	0.973699	0.365110	0.891219
H77	H	0.893762	0.378777	0.790912
H78	H	0.897579	0.470114	0.870929
H79	H	0.954262	0.464411	0.779739
H80	H	0.945423	0.325079	0.939612
H81	H	1.002109	0.319352	0.848414
C82	C	0.670651	0.308296	0.652255
C83	C	0.627480	0.301044	0.561365
H84	H	0.688635	0.240739	0.670548
H85	H	0.711277	0.353971	0.639921
H86	H	0.641313	0.335080	0.707941
H87	H	0.656819	0.274266	0.505676
H88	H	0.586847	0.255352	0.573694
C89	C	0.544963	0.255509	0.383056
C90	C	0.519912	0.355739	0.355762
H91	H	0.527001	0.205937	0.333676
H92	H	0.597579	0.254656	0.383045
H93	H	0.527285	0.237954	0.450955
H94	H	0.537594	0.373298	0.287866
H95	H	0.467285	0.356595	0.355763
C96	C	0.544541	0.525321	0.784442
C97	C	0.519631	0.451644	0.711181
H98	H	0.526434	0.507320	0.852006
H99	H	0.597156	0.525704	0.785415
H100	H	0.526914	0.592906	0.765598
H101	H	0.537263	0.384060	0.730021
H102	H	0.467006	0.451250	0.710212
H103	H	0.620108	0.553544	0.328894
