data_functionalizedCrystal
_audit_creation_method	'MofGen! by Chris Wilmer'
_symmetry_space_group_name_H-M	'P1'
_symmetry_Int_Tables_number	1
_symmetry_cell_setting	triclinic
loop_
_symmetry_equiv_pos_as_xyz
  x,y,z
_cell_length_a	14.519709
_cell_length_b	17.019234
_cell_length_c	13.596369
_cell_angle_alpha	86.112711
_cell_angle_beta	90.000291
_cell_angle_gamma	83.533184
loop_
_atom_site_label
_atom_site_type_symbol
_atom_site_fract_x
_atom_site_fract_y
_atom_site_fract_z
O1	O	1.223524	0.103408	-0.090425
O2	O	1.723524	0.603408	0.409575
O3	O	0.955007	0.115586	-0.091487
O4	O	1.455007	0.615586	0.408513
O5	O	1.096766	-0.005327	-0.081220
O6	O	1.596766	0.494673	0.418780
O7	O	1.081766	0.224321	-0.100693
O8	O	1.581766	0.724321	0.399307
O9	O	1.096752	-0.005333	0.082364
O10	O	1.596752	0.494667	0.582364
O11	O	0.954993	0.115580	0.072096
O12	O	1.454993	0.615580	0.572096
O13	O	1.223510	0.103402	0.073158
O14	O	1.723510	0.603402	0.573158
Zn15	Zn	1.089249	0.109490	0.098600
Zn16	Zn	1.589249	0.609490	0.598600
Zn17	Zn	1.089268	0.109498	-0.116929
Zn18	Zn	1.589268	0.609498	0.383071
O19	O	1.081752	0.224315	0.062891
O20	O	1.581752	0.724315	0.562891
C21	C	0.920642	0.115015	-0.009651
C22	C	1.420642	0.615015	0.490349
C23	C	0.818267	0.113315	-0.009518
C24	C	1.318267	0.613315	0.490482
C25	C	0.443392	0.107054	-0.008943
C26	C	0.943392	0.607054	0.491057
C27	C	0.547694	0.108792	-0.009103
C28	C	1.047694	0.608792	0.490897
C29	C	0.630826	0.110184	-0.009231
C30	C	1.130826	0.610184	0.490769
C31	C	0.735135	0.111923	-0.009390
C32	C	1.235135	0.611923	0.490610
C33	C	1.096193	-0.034720	0.003062
C34	C	1.596193	0.465280	0.503062
C35	C	1.094496	-0.122295	0.010480
C36	C	1.594496	0.377705	0.510480
C37	C	1.084815	-0.617589	0.056870
C38	C	1.584815	-0.117589	0.556870
C39	C	1.086418	-0.535304	0.049904
C40	C	1.586418	-0.035304	0.549904
C41	C	1.087235	-0.494151	-0.042751
C42	C	1.587235	0.005849	0.457249
C43	C	1.086438	-0.535285	-0.128445
C44	C	1.586438	-0.035285	0.371555
C45	C	1.084828	-0.617567	-0.121478
C46	C	1.584828	-0.117567	0.378522
C47	C	1.092090	-0.245711	-0.068247
C48	C	1.592090	0.254289	0.431753
C49	C	1.093703	-0.163423	-0.075207
C50	C	1.593703	0.336577	0.424793
C51	C	1.093681	-0.163448	0.103142
C52	C	1.593681	0.336552	0.603142
C53	C	1.092076	-0.245733	0.110101
C54	C	1.592076	0.254267	0.610101
C55	C	1.091275	-0.286859	0.024407
C56	C	1.591275	0.213141	0.524407
C57	C	1.088876	-0.410043	-0.049873
C58	C	1.588876	0.089957	0.450127
C59	C	1.089627	-0.370964	0.031530
C60	C	1.589627	0.129036	0.531530
C61	C	1.257875	0.103973	-0.008680
C62	C	1.757875	0.603973	0.491320
C63	C	1.360251	0.105673	-0.008819
C64	C	1.860251	0.605673	0.491181
C65	C	1.082324	0.253709	-0.021393
C66	C	1.582324	0.753709	0.478607
C67	C	1.084021	0.341283	-0.028818
C68	C	1.584021	0.841283	0.471182
N69	N	1.089244	0.109484	0.245692
N70	N	1.589244	0.609484	0.745692
N71	N	1.089281	0.109498	-0.264020
N72	N	1.589281	0.609498	0.235980
C73	C	1.089267	0.109499	0.646982
C74	C	1.589267	0.609499	1.146982
C75	C	1.089258	0.109497	0.535330
C76	C	1.589258	0.609497	1.035330
C77	C	1.089256	0.109492	0.446340
C78	C	1.589256	0.609492	0.946340
C79	C	1.089246	0.109489	0.334682
C80	C	1.589246	0.609489	0.834682
H81	H	1.084154	-0.651090	0.132319
H82	H	1.584154	-0.151090	0.632319
Cl83	Cl	1.089950	-0.358306	-0.166349
Cl84	Cl	1.589950	0.141694	0.333651
H85	H	1.091416	-0.279235	0.185550
H86	H	1.591416	0.220765	0.685550
H87	H	1.091446	-0.279187	-0.138025
H88	H	1.591446	0.220813	0.361975
Cl89	Cl	1.087396	-0.483601	0.157631
Cl90	Cl	1.587396	0.016399	0.657631
H91	H	1.084177	-0.651052	-0.191254
H92	H	1.584177	-0.151052	0.308746
Cl93	Cl	1.087486	-0.483551	-0.244926
Cl94	Cl	1.587486	0.016449	0.255074
H95	H	1.088957	-0.404474	0.106969
H96	H	1.588957	0.095526	0.606969
H97	H	1.094367	-0.129918	-0.150662
H98	H	1.594367	0.370082	0.349338
Cl99	Cl	1.094682	-0.111742	0.210865
Cl100	Cl	1.594682	0.388258	0.710865
