data_functionalizedCrystal
_audit_creation_method	'MofGen! by Chris Wilmer'
_symmetry_space_group_name_H-M	'P1'
_symmetry_Int_Tables_number	1
_symmetry_cell_setting	triclinic
loop_
_symmetry_equiv_pos_as_xyz
  x,y,z
_cell_length_a	16.120490
_cell_length_b	12.594516
_cell_length_c	16.120297
_cell_angle_alpha	92.876309
_cell_angle_beta	90.129683
_cell_angle_gamma	87.104371
loop_
_atom_site_label
_atom_site_type_symbol
_atom_site_fract_x
_atom_site_fract_y
_atom_site_fract_z
Zn1	Zn	1.247532	-0.539337	-0.534562
Zn2	Zn	1.747532	-0.039337	-0.034562
Zn3	Zn	1.254509	-0.708781	-0.395513
Zn4	Zn	1.754509	-0.208781	0.104487
Zn5	Zn	1.115519	-0.521341	-0.388482
Zn6	Zn	1.615519	-0.021341	0.111518
Zn7	Zn	1.108465	-0.707790	-0.527485
Zn8	Zn	1.608465	-0.207790	-0.027485
O9	O	1.181506	-0.619312	-0.461510
O10	O	1.681506	-0.119312	0.038490
O11	O	1.364825	-0.569759	-0.522020
O12	O	1.864825	-0.069759	-0.022020
O13	O	1.241944	-0.676800	-0.278214
O14	O	1.741944	-0.176800	0.221786
O15	O	1.133062	-0.374786	-0.407879
O16	O	1.633062	0.125214	0.092121
O17	O	1.369952	-0.694249	-0.419862
O18	O	1.869952	-0.194249	0.080138
O19	O	1.230052	-0.388007	-0.515203
O20	O	1.730052	0.111993	-0.015203
O21	O	1.139828	-0.539089	-0.273049
O22	O	1.639828	-0.039089	0.226951
O23	O	0.998215	-0.538129	-0.401017
O24	O	1.498215	-0.038129	0.098983
O25	O	1.121040	-0.692561	-0.644790
O26	O	1.621040	-0.192561	-0.144790
O27	O	0.993032	-0.675112	-0.503142
O28	O	1.493032	-0.175112	-0.003142
O29	O	1.223212	-0.568799	-0.649989
O30	O	1.723212	-0.068799	-0.149989
O31	O	1.235104	-0.857592	-0.413000
O32	O	1.735104	-0.357592	0.087000
O33	O	1.127806	-0.856864	-0.509960
O34	O	1.627806	-0.356864	-0.009960
C35	C	0.965450	-0.604561	-0.450550
C36	C	1.465450	-0.104561	0.049450
C37	C	0.873020	-0.598277	-0.445880
C38	C	1.373020	-0.098277	0.054120
C39	C	0.660066	-0.651900	-0.485733
C40	C	1.160066	-0.151900	0.014267
C41	C	0.703793	-0.586814	-0.437354
C42	C	1.203793	-0.086814	0.062646
C43	C	0.797960	-0.593194	-0.442099
C44	C	1.297960	-0.093194	0.057901
C45	C	0.565891	-0.645521	-0.480988
C46	C	1.065891	-0.145521	0.019012
C47	C	1.181468	-0.895850	-0.461494
C48	C	1.681468	-0.395850	0.038506
C49	C	1.181527	-1.014161	-0.461519
C50	C	1.681527	-0.514161	0.038481
C51	C	1.239948	-1.083779	-0.408845
C52	C	1.739948	-0.583779	0.091155
C53	C	1.256420	-1.160534	-0.485772
C54	C	1.756420	-0.660534	0.014228
C55	C	1.165156	-1.148214	-0.384645
C56	C	1.665156	-0.648214	0.115355
C57	C	1.198036	-1.089362	-0.538487
C58	C	1.698036	-0.589362	-0.038487
C59	C	1.106739	-1.077031	-0.437308
C60	C	1.606739	-0.577031	0.062692
C61	C	1.123180	-1.153756	-0.514286
C62	C	1.623180	-0.653756	-0.014286
C63	C	1.398405	-0.634122	-0.472515
C64	C	1.898405	-0.134122	0.027485
C65	C	1.490835	-0.640433	-0.477204
C66	C	1.990835	-0.140433	0.022796
C67	C	1.170561	-0.632577	-0.678406
C68	C	1.670561	-0.132577	-0.178406
C69	C	1.165897	-0.638230	-0.770833
C70	C	1.665897	-0.138230	-0.270833
C71	C	1.181566	-0.341698	-0.461546
C72	C	1.681566	0.158302	0.038454
C73	C	1.181591	-0.223395	-0.461562
C74	C	1.681591	0.276605	0.038438
C75	C	1.157351	-0.648524	-0.940059
C76	C	1.657351	-0.148524	-0.440059
C77	C	1.205825	-0.589793	-0.983822
C78	C	1.705825	-0.089793	-0.483822
C79	C	1.201070	-0.595520	-1.077985
C80	C	1.701070	-0.095520	-0.577985
C81	C	1.162105	-0.642798	-0.845887
C82	C	1.662105	-0.142798	-0.345887
C83	C	1.192456	-0.606026	-0.245462
C84	C	1.692456	-0.106026	0.254538
C85	C	1.197282	-0.600084	-0.153042
C86	C	1.697282	-0.100084	0.346958
H87	H	0.693350	-0.712409	-0.530711
H88	H	1.193350	-0.212409	-0.030711
C89	C	1.097397	-0.721454	-0.984440
C90	C	1.597397	-0.221454	-0.484440
C91	C	1.142011	-0.795871	-1.036683
C92	C	1.642011	-0.295871	-0.536683
C93	C	1.086815	-0.863081	-1.077583
C94	C	1.586815	-0.363081	-0.577583
H95	H	1.059476	-0.680416	-1.016551
H96	H	1.559476	-0.180416	-0.516551
H97	H	1.067620	-0.757622	-0.944629
H98	H	1.567620	-0.257622	-0.444629
H99	H	1.171774	-0.759705	-1.076489
H100	H	1.671774	-0.259705	-0.576489
H101	H	1.179929	-0.836934	-1.004592
H102	H	1.679929	-0.336934	-0.504592
H103	H	1.057038	-0.899249	-1.037772
H104	H	1.557038	-0.399249	-0.537772
H105	H	1.048897	-0.822033	-1.109690
H106	H	1.548897	-0.322033	-0.609690
H107	H	1.117078	-0.913586	-1.113028
H108	H	1.617078	-0.413586	-0.613028
H109	H	1.151283	-1.174266	-0.319617
H110	H	1.651283	-0.674266	0.180383
H111	H	1.289358	-1.053048	-0.364343
H112	H	1.789358	-0.553048	0.135657
H113	H	1.319693	-1.197004	-0.506272
H114	H	1.819693	-0.697004	-0.006272
C115	C	0.659268	-0.506271	-0.377365
C116	C	1.159268	-0.006271	0.122635
C117	C	0.573369	-0.515924	-0.384483
C118	C	1.073369	-0.015924	0.115517
C119	C	0.532324	-0.441776	-0.329215
C120	C	1.032324	0.058224	0.170785
H121	H	0.672725	-0.436402	-0.390240
H122	H	1.172725	0.063598	0.109760
H123	H	0.676230	-0.519310	-0.322164
H124	H	1.176230	-0.019310	0.177836
H125	H	0.556414	-0.502877	-0.439672
H126	H	1.056414	-0.002877	0.060328
H127	H	0.559888	-0.585777	-0.371602
H128	H	1.059888	-0.085777	0.128398
H129	H	0.549286	-0.454815	-0.274014
H130	H	1.049286	0.045185	0.225986
H131	H	0.545787	-0.371912	-0.342095
H132	H	1.045787	0.128088	0.157905
H133	H	0.474038	-0.448323	-0.334032
H134	H	0.974038	0.051677	0.165968
C135	C	1.216668	-1.054610	-0.625160
C136	C	1.716668	-0.554610	-0.125160
C137	C	1.216471	-0.943369	-0.624113
C138	C	1.716471	-0.443369	-0.124113
C139	C	1.233646	-0.911315	-0.703935
C140	C	1.733646	-0.411315	-0.203935
H141	H	1.175467	-1.079035	-0.662709
H142	H	1.675467	-0.579035	-0.162709
H143	H	1.269666	-1.083888	-0.642462
H144	H	1.769666	-0.583888	-0.142462
H145	H	1.163481	-0.914101	-0.606822
H146	H	1.663481	-0.414101	-0.106822
H147	H	1.257672	-0.918915	-0.586581
H148	H	1.757672	-0.418915	-0.086581
H149	H	1.286644	-0.940594	-0.721237
H150	H	1.786644	-0.440594	-0.221237
H151	H	1.192443	-0.935748	-0.741477
H152	H	1.692443	-0.435748	-0.241477
H153	H	1.233523	-0.835836	-0.703234
H154	H	1.733523	-0.335836	-0.203234
C155	C	1.057439	-1.194449	-0.573911
C156	C	1.557439	-0.694449	-0.073911
C157	C	1.075006	-1.164668	-0.654275
C158	C	1.575006	-0.664668	-0.154275
C159	C	1.014474	-1.202150	-0.709226
C160	C	1.514474	-0.702150	-0.209226
H161	H	1.004390	-1.164690	-0.557274
H162	H	1.504390	-0.664690	-0.057274
H163	H	1.057522	-1.269847	-0.573319
H164	H	1.557522	-0.769847	-0.073319
H165	H	1.074914	-1.089285	-0.654864
H166	H	1.574914	-0.589285	-0.154864
H167	H	1.128044	-1.194425	-0.670937
H168	H	1.628044	-0.694425	-0.170937
H169	H	1.014557	-1.277548	-0.708634
H170	H	1.514557	-0.777548	-0.208634
H171	H	0.961429	-1.172388	-0.692581
H172	H	1.461429	-0.672388	-0.192581
H173	H	1.026389	-1.181957	-0.763760
H174	H	1.526389	-0.681957	-0.263760
C175	C	1.022436	-1.028410	-0.409778
C176	C	1.522436	-0.528410	0.090222
C177	C	1.005586	-1.057963	-0.329190
C178	C	1.505586	-0.557963	0.170810
C179	C	0.927939	-1.013179	-0.303787
C180	C	1.427939	-0.513179	0.196213
H181	H	0.980767	-1.053333	-0.446568
H182	H	1.480767	-0.553333	0.053432
H183	H	1.022870	-0.953051	-0.410409
H184	H	1.522870	-0.453051	0.089591
H185	H	1.005145	-1.133307	-0.328564
H186	H	1.505145	-0.633307	0.171436
H187	H	1.047234	-1.033040	-0.292381
H188	H	1.547234	-0.533040	0.207619
H189	H	0.928373	-0.937820	-0.304418
H190	H	1.428373	-0.437820	0.195582
H191	H	0.886277	-1.038106	-0.340583
H192	H	1.386277	-0.538106	0.159417
H193	H	0.916500	-1.033216	-0.249103
H194	H	1.416500	-0.533216	0.250897
C195	C	1.265792	-0.516919	-0.939388
C196	C	1.765792	-0.016919	-0.439388
C197	C	1.221189	-0.442523	-0.887118
C198	C	1.721189	0.057477	-0.387118
C199	C	1.276399	-0.375382	-0.846165
C200	C	1.776399	0.124618	-0.346165
H201	H	1.295599	-0.480719	-0.979143
H202	H	1.795599	0.019281	-0.479143
H203	H	1.303688	-0.558042	-0.907294
H204	H	1.803688	-0.058042	-0.407294
H205	H	1.183308	-0.401404	-0.919210
H206	H	1.683308	0.098596	-0.419210
H207	H	1.191385	-0.478692	-0.847348
H208	H	1.691385	0.021308	-0.347348
H209	H	1.314295	-0.416505	-0.814071
H210	H	1.814295	0.083495	-0.314071
H211	H	1.306203	-0.339190	-0.885926
H212	H	1.806203	0.160810	-0.385926
H213	H	1.246145	-0.324903	-0.810690
H214	H	1.746145	0.175097	-0.310690
