data_functionalizedCrystal
_audit_creation_method	'MofGen! by Chris Wilmer'
_symmetry_space_group_name_H-M	'P1'
_symmetry_Int_Tables_number	1
_symmetry_cell_setting	triclinic
loop_
_symmetry_equiv_pos_as_xyz
  x,y,z
_cell_length_a	11.169416
_cell_length_b	12.645331
_cell_length_c	11.169409
_cell_angle_alpha	89.975751
_cell_angle_beta	89.968693
_cell_angle_gamma	90.010363
loop_
_atom_site_label
_atom_site_type_symbol
_atom_site_fract_x
_atom_site_fract_y
_atom_site_fract_z
Zn1	Zn	-0.477704	1.620802	-0.678669
Zn2	Zn	-0.678444	1.620702	-0.477989
Zn3	Zn	-0.477774	1.443512	-0.477990
Zn4	Zn	-0.678344	1.443521	-0.678621
O5	O	-0.578067	1.532134	-0.578317
O6	O	-0.504345	1.769136	-0.652068
O7	O	-0.651896	1.597152	-0.310039
O8	O	-0.309815	1.467067	-0.504631
O9	O	-0.651828	1.769063	-0.504629
O10	O	-0.309763	1.597322	-0.652069
O11	O	-0.504465	1.466971	-0.310040
O12	O	-0.504368	1.295166	-0.504585
O13	O	-0.651657	1.467084	-0.846577
O14	O	-0.651726	1.295173	-0.651988
O15	O	-0.504248	1.597331	-0.846612
O16	O	-0.846380	1.597161	-0.504583
O17	O	-0.846307	1.466987	-0.651986
C18	C	-0.578045	1.256705	-0.578282
C19	C	-0.578064	1.138875	-0.578295
C20	C	-0.485217	1.093953	-0.485715
C21	C	-0.484874	0.971393	-0.486032
C22	C	-0.544319	0.971044	-0.704990
C23	C	-0.543625	1.093642	-0.704411
C24	C	-0.704934	1.093673	-0.545376
C25	C	-0.704272	0.971066	-0.542630
C26	C	-0.889891	1.532093	-0.578306
C27	C	-1.023291	1.532173	-0.578341
C28	C	-0.265024	1.532205	-0.578356
C29	C	-0.131624	1.532234	-0.578372
C30	C	-0.577934	1.532219	-0.891360
C31	C	-0.577877	1.532256	-1.024760
C32	C	-0.578089	1.808640	-0.578354
C33	C	-0.578099	1.926470	-0.578369
C34	C	-0.578112	1.532111	-0.266493
C35	C	-0.577831	1.532280	-0.133093
H36	H	-0.609887	0.941954	-0.775885
Cl37	Cl	-0.402752	0.923664	-0.748726
Cl38	Cl	-0.517399	0.924849	-0.341097
Cl39	Cl	-0.643532	1.139538	-0.814595
Cl40	Cl	-0.811736	1.138559	-0.649452
Cl41	Cl	-0.752547	1.141323	-0.405190
Cl42	Cl	-0.339747	0.926118	-0.519790
Cl43	Cl	-0.517343	1.139390	-0.340295
Cl44	Cl	-0.816739	0.923900	-0.639138
H45	H	-0.391742	1.124769	-0.507290
H46	H	-0.729752	0.941928	-0.449442
H47	H	-0.450903	1.122250	-0.732238
