data_functionalizedCrystal
_audit_creation_method	'MofGen! by Chris Wilmer'
_symmetry_space_group_name_H-M	'P1'
_symmetry_Int_Tables_number	1
_symmetry_cell_setting	triclinic
loop_
_symmetry_equiv_pos_as_xyz
  x,y,z
_cell_length_a	14.853569
_cell_length_b	14.853569
_cell_length_c	9.130307
_cell_angle_alpha	89.995533
_cell_angle_beta	90.000453
_cell_angle_gamma	83.635565
loop_
_atom_site_label
_atom_site_type_symbol
_atom_site_fract_x
_atom_site_fract_y
_atom_site_fract_z
O1	O	1.196361	0.117709	-0.121736
O2	O	1.696361	0.617709	0.378264
O3	O	0.933902	0.131729	-0.121754
O4	O	1.433902	0.631729	0.378246
O5	O	1.072141	-0.006510	-0.121731
O6	O	1.572141	0.493490	0.378269
O7	O	1.058121	0.255949	-0.121760
O8	O	1.558121	0.755949	0.378240
O9	O	1.072137	-0.006512	0.121868
O10	O	1.572137	0.493488	0.621868
O11	O	0.933897	0.131728	0.121845
O12	O	1.433897	0.631728	0.621845
O13	O	1.196356	0.117708	0.121863
O14	O	1.696356	0.617708	0.621863
Cu15	Cu	1.065126	0.124718	0.144096
Cu16	Cu	1.565126	0.624718	0.644096
Cu17	Cu	1.065132	0.124719	-0.143988
Cu18	Cu	1.565132	0.624719	0.356012
O19	O	1.058117	0.255948	0.121839
O20	O	1.558117	0.755948	0.621839
C21	C	0.900311	0.131093	0.000043
C22	C	1.400311	0.631093	0.500043
C23	C	0.800227	0.129189	0.000036
C24	C	1.300227	0.629189	0.500036
C25	C	1.071503	-0.040100	0.000069
C26	C	1.571503	0.459900	0.500069
C27	C	1.069599	-0.140183	0.000070
C28	C	1.569599	0.359817	0.500070
C29	C	0.763850	0.046178	0.000040
C30	C	1.263850	0.546178	0.500040
C31	C	0.742561	0.210410	0.000039
C32	C	1.242561	0.710410	0.500039
C33	C	0.648527	0.208624	0.000041
C34	C	1.148527	0.708624	0.500041
C35	C	0.612150	0.125613	0.000045
C36	C	1.112150	0.625613	0.500045
C37	C	0.669807	0.044389	0.000047
C38	C	1.169807	0.544389	0.500047
C39	C	0.590863	0.289847	0.000053
C40	C	1.090863	0.789847	0.500053
C41	C	0.496823	0.288063	0.000057
C42	C	0.996823	0.788063	0.500057
C43	C	0.460444	0.205052	0.000050
C44	C	0.960444	0.705052	0.500050
C45	C	0.518108	0.123824	0.000051
C46	C	1.018108	0.623824	0.500051
C47	C	0.481731	0.040813	0.000055
C48	C	0.981731	0.540813	0.500055
C49	C	0.539392	-0.040415	0.000045
C50	C	1.039392	0.459585	0.500045
C51	C	0.633429	-0.038623	0.000040
C52	C	1.133429	0.461377	0.500040
C53	C	0.366408	0.203259	0.000055
C54	C	0.866408	0.703259	0.500055
C55	C	0.387688	0.039024	0.000061
C56	C	0.887688	0.539024	0.500061
C57	C	0.986588	-0.176560	0.000067
C58	C	1.486588	0.323440	0.500067
C59	C	1.150821	-0.197849	0.000063
C60	C	1.650821	0.302151	0.500063
C61	C	1.149034	-0.291883	0.000056
C62	C	1.649034	0.208117	0.500056
C63	C	1.066024	-0.328260	0.000053
C64	C	1.566024	0.171740	0.500053
C65	C	0.984799	-0.270603	0.000056
C66	C	1.484799	0.229397	0.500056
C67	C	1.230257	-0.349547	0.000038
C68	C	1.730257	0.150453	0.500038
C69	C	1.228474	-0.443588	0.000030
C70	C	1.728474	0.056412	0.500030
C71	C	1.145462	-0.479966	0.000037
C72	C	1.645462	0.020034	0.500037
C73	C	1.064234	-0.422303	0.000042
C74	C	1.564234	0.077697	0.500042
C75	C	0.981224	-0.458680	0.000039
C76	C	1.481224	0.041320	0.500039
C77	C	0.899995	-0.401018	0.000055
C78	C	1.399995	0.098982	0.500055
C79	C	0.901787	-0.306982	0.000064
C80	C	1.401787	0.193018	0.500064
C81	C	1.143670	-0.574002	0.000028
C82	C	1.643670	-0.074002	0.500028
C83	C	0.979434	-0.552722	0.000028
C84	C	1.479434	-0.052722	0.500028
C85	C	1.229947	0.118344	0.000062
C86	C	1.729947	0.618344	0.500062
C87	C	1.330031	0.120249	0.000059
C88	C	1.830031	0.620249	0.500059
C89	C	1.058754	0.289537	0.000036
C90	C	1.558754	0.789537	0.500036
C91	C	1.060659	0.389621	0.000025
C92	C	1.560659	0.889621	0.500025
N93	N	1.065129	0.124716	0.346719
N94	N	1.565129	0.624716	0.846719
N95	N	1.065136	0.124714	-0.346611
N96	N	1.565136	0.624714	0.153389
C97	C	1.187590	0.002340	0.346730
C98	C	1.687590	0.502340	0.846730
C99	C	1.248826	-0.058845	0.423402
C100	C	1.748826	0.441155	0.923402
C101	C	1.248835	-0.058846	0.576735
C102	C	1.748835	0.441154	1.076735
C103	C	1.187600	0.002344	0.653400
C104	C	1.687600	0.502344	1.153400
C105	C	1.126363	0.063529	0.576728
C106	C	1.626363	0.563529	1.076728
C107	C	1.126363	0.063525	0.423391
C108	C	1.626363	0.563525	0.923391
C109	C	1.003900	0.185899	0.576717
C110	C	1.503900	0.685899	1.076717
C111	C	1.003893	0.185906	0.423384
C112	C	1.503893	0.685906	0.923384
C113	C	0.942664	0.247089	0.653382
C114	C	1.442664	0.747089	1.153382
C115	C	0.881430	0.308280	0.576710
C116	C	1.381430	0.808280	1.076710
C117	C	0.881424	0.308279	0.423367
C118	C	1.381424	0.808279	0.923367
C119	C	0.942657	0.247091	0.346712
C120	C	1.442657	0.747091	0.846712
H121	H	0.358078	-0.028574	0.000057
H122	H	0.858078	0.471426	0.500057
Br123	Br	0.418576	0.398299	0.000062
Br124	Br	0.918576	0.898299	0.500062
H125	H	1.209805	-0.620946	0.000001
H126	H	1.709805	-0.120946	0.500001
H127	H	1.298696	-0.108671	0.639162
H128	H	1.798696	0.391329	1.139162
H129	H	0.509762	-0.108003	0.000039
H130	H	1.009762	0.391997	0.500039
H131	H	1.187603	0.002332	0.778252
H132	H	1.687603	0.502332	1.278252
Br133	Br	0.798325	0.391307	0.680757
Br134	Br	1.298325	0.891307	1.180757
H135	H	0.832407	-0.430648	0.000043
H136	H	1.332407	0.069352	0.500043
H137	H	1.294615	-0.490528	0.000020
H138	H	1.794615	0.009472	0.500020
H139	H	0.920454	-0.129608	0.000086
H140	H	1.420454	0.370392	0.500086
Br141	Br	1.342908	-0.300175	0.000019
Br142	Br	1.842908	0.199825	0.500019
H143	H	0.831555	0.358100	0.360949
H144	H	1.331555	0.858100	0.860949
H145	H	1.187596	0.002342	0.221878
H146	H	1.687596	0.502342	0.721878
H147	H	0.319464	0.269394	0.000076
H148	H	0.819464	0.769394	0.500076
H149	H	0.942670	0.247082	0.778234
H150	H	1.442670	0.747082	1.278234
H151	H	1.218404	-0.168225	0.000094
H152	H	1.718404	0.331775	0.500094
Br153	Br	0.942660	0.247089	0.138615
Br154	Br	1.442660	0.747089	0.638615
H155	H	0.911836	-0.582332	0.000039
H156	H	1.411836	-0.082332	0.500039
Br157	Br	0.640236	0.402497	0.000045
Br158	Br	1.140236	0.902497	0.500045
Br159	Br	0.791559	-0.228723	0.000075
Br160	Br	1.291559	0.271277	0.500075
Br161	Br	1.331924	-0.141891	0.319357
Br162	Br	1.831924	0.358109	0.819357
H163	H	0.680385	-0.104755	0.000035
H164	H	1.180385	0.395245	0.500035
H165	H	0.810802	-0.019956	0.000026
H166	H	1.310802	0.480044	0.500026
Br167	Br	0.791931	0.323062	0.000040
Br168	Br	1.291931	0.823062	0.500040
