data_functionalizedCrystal
_audit_creation_method	'MofGen! by Chris Wilmer'
_symmetry_space_group_name_H-M	'P1'
_symmetry_Int_Tables_number	1
_symmetry_cell_setting	triclinic
loop_
_symmetry_equiv_pos_as_xyz
  x,y,z
_cell_length_a	13.897449
_cell_length_b	13.897441
_cell_length_c	13.032721
_cell_angle_alpha	82.848527
_cell_angle_beta	82.794330
_cell_angle_gamma	89.981404
loop_
_atom_site_label
_atom_site_type_symbol
_atom_site_fract_x
_atom_site_fract_y
_atom_site_fract_z
Zn1	Zn	1.425895	-0.594128	0.415982
Zn2	Zn	1.405297	-0.453311	0.590754
Zn3	Zn	1.264584	-0.432852	0.416028
Zn4	Zn	1.244075	-0.614556	0.590688
O5	O	1.334963	-0.523712	0.503363
O6	O	1.558143	-0.575462	0.439173
O7	O	1.386594	-0.315621	0.567623
O8	O	1.303186	-0.437135	0.269783
O9	O	1.543010	-0.472004	0.567578
O10	O	1.421700	-0.555624	0.269749
O11	O	1.283213	-0.300590	0.439253
O12	O	1.126883	-0.456943	0.439189
O13	O	1.268231	-0.746822	0.567466
O14	O	1.111815	-0.590439	0.567511
O15	O	1.401813	-0.731814	0.439110
O16	O	1.366707	-0.491811	0.736984
O17	O	1.248258	-0.610277	0.736936
C18	C	1.084350	-0.523688	0.503349
C19	C	0.977134	-0.523704	0.503368
C20	C	1.303048	-0.555502	0.774878
C21	C	1.289483	-0.569134	0.891033
C22	C	1.335032	-0.775295	0.503275
C23	C	1.335062	-0.882504	0.503238
C24	C	0.780838	-0.523730	0.503372
C25	C	0.890071	-0.523712	0.503367
C26	C	1.586554	-0.523736	0.503378
C27	C	1.693767	-0.523746	0.503384
C28	C	1.335085	-0.969571	0.503208
C29	C	1.335118	-1.078798	0.503161
C30	C	1.334958	-0.273099	0.503375
C31	C	1.335150	-0.165855	0.503118
C32	C	1.367028	-0.491819	0.230788
C33	C	1.380693	-0.478228	0.114633
C34	C	1.342094	-0.516640	0.942808
C35	C	1.328075	-0.530729	1.062861
H36	H	1.397518	-0.461272	0.898259
Br37	Br	1.235705	-0.623034	1.137101
Br38	Br	1.473079	-0.385938	1.040395
Br39	Br	1.197117	-0.661435	0.965278
