data_functionalizedCrystal
_audit_creation_method	'MofGen! by Chris Wilmer'
_symmetry_space_group_name_H-M	'P1'
_symmetry_Int_Tables_number	1
_symmetry_cell_setting	triclinic
loop_
_symmetry_equiv_pos_as_xyz
  x,y,z
_cell_length_a	22.010155
_cell_length_b	23.532407
_cell_length_c	23.532409
_cell_angle_alpha	97.150881
_cell_angle_beta	89.995165
_cell_angle_gamma	89.990960
loop_
_atom_site_label
_atom_site_type_symbol
_atom_site_fract_x
_atom_site_fract_y
_atom_site_fract_z
O1	O	0.050445	-0.755269	0.069128
O2	O	0.550445	-0.255269	0.569128
O3	O	0.050463	-0.589406	0.079131
O4	O	0.550463	-0.089406	0.579131
O5	O	0.050454	-0.677338	-0.008802
O6	O	0.550454	-0.177338	0.491198
O7	O	0.050454	-0.667336	0.157061
O8	O	0.550454	-0.167336	0.657061
O9	O	-0.050596	-0.677313	-0.008791
O10	O	0.449404	-0.177313	0.491209
O11	O	-0.050588	-0.589380	0.079142
O12	O	0.449412	-0.089380	0.579142
O13	O	-0.050605	-0.755244	0.069139
O14	O	0.449395	-0.255244	0.569139
Cu15	Cu	-0.059823	-0.672310	0.074141
Cu16	Cu	0.440177	-0.172310	0.574141
Cu17	Cu	0.059681	-0.672340	0.074129
Cu18	Cu	0.559681	-0.172340	0.574129
O19	O	-0.050596	-0.667311	0.157072
O20	O	0.449404	-0.167311	0.657072
C21	C	-0.000060	-0.568177	0.078882
C22	C	0.499940	-0.068177	0.578882
C23	C	-0.000053	-0.504960	0.078116
C24	C	0.499947	-0.004960	0.578116
N25	N	-0.143875	-0.672293	0.074149
N26	N	0.356125	-0.172293	0.574149
C27	C	-0.000069	-0.677071	-0.030013
C28	C	0.499931	-0.177071	0.469987
C29	C	-0.000065	-0.676304	-0.093230
C30	C	0.499935	-0.176304	0.406770
C31	C	-0.436476	-0.637983	0.039758
C32	C	0.063524	-0.137983	0.539758
C33	C	-0.372869	-0.637978	0.039760
C34	C	0.127131	-0.137978	0.539760
O35	O	-0.339968	-0.608785	0.010521
O36	O	0.160032	-0.108785	0.510521
N37	N	-0.341060	-0.672315	0.074132
N38	N	0.158940	-0.172315	0.574132
C39	C	-0.372861	-0.706664	0.108498
C40	C	0.127139	-0.206664	0.608498
O41	O	-0.339964	-0.735870	0.137733
O42	O	0.160036	-0.235870	0.637733
C43	C	-0.436468	-0.706672	0.108492
C44	C	0.063532	-0.206672	0.608492
C45	C	-0.468274	-0.672328	0.074123
C46	C	0.031726	-0.172328	0.574123
C47	C	-0.468282	-0.603642	0.005391
C48	C	0.031718	-0.103642	0.505391
C49	C	-0.531886	-0.603647	0.005389
C50	C	-0.031886	-0.103647	0.505389
C51	C	-0.563683	-0.637992	0.039754
C52	C	-0.063683	-0.137992	0.539754
C53	C	-0.531877	-0.672332	0.074121
C54	C	-0.031877	-0.172332	0.574121
C55	C	-0.468268	-0.741023	0.142855
C56	C	0.031732	-0.241023	0.642855
C57	C	-0.531879	-0.741028	0.142846
C58	C	-0.031879	-0.241028	0.642846
C59	C	-0.563685	-0.706684	0.108476
C60	C	-0.063685	-0.206684	0.608476
C61	C	-0.627277	-0.706681	0.108485
C62	C	-0.127277	-0.206681	0.608485
N63	N	-0.659087	-0.672344	0.074113
N64	N	-0.159087	-0.172344	0.574113
C65	C	-0.627289	-0.637999	0.039748
C66	C	-0.127289	-0.137999	0.539748
C67	C	-0.239283	-0.706646	0.108507
C68	C	0.260717	-0.206646	0.608507
C69	C	-0.175678	-0.706635	0.108517
C70	C	0.324322	-0.206635	0.608517
C71	C	-0.175690	-0.637950	0.039778
C72	C	0.324310	-0.137950	0.539778
C73	C	-0.239297	-0.637958	0.039772
C74	C	0.260703	-0.137958	0.539772
C75	C	-0.271093	-0.672309	0.074136
C76	C	0.228907	-0.172309	0.574136
C77	C	-0.760861	-0.638011	0.039748
C78	C	-0.260861	-0.138011	0.539748
C79	C	-0.824469	-0.638016	0.039751
C80	C	-0.324469	-0.138016	0.539751
C81	C	-0.824452	-0.706704	0.108487
C82	C	-0.324452	-0.206704	0.608487
C83	C	-0.760849	-0.706696	0.108486
C84	C	-0.260849	-0.206696	0.608486
C85	C	-0.729055	-0.672348	0.074112
C86	C	-0.229055	-0.172348	0.574112
O87	O	-0.660218	-0.735861	0.137708
O88	O	-0.160218	-0.235861	0.637708
O89	O	-0.660194	-0.608803	0.010512
O90	O	-0.160194	-0.108803	0.510512
N91	N	0.143733	-0.672361	0.074116
N92	N	0.643733	-0.172361	0.574116
C93	C	-0.000081	-0.776472	0.069388
C94	C	0.499919	-0.276472	0.569388
C95	C	-0.000083	-0.839689	0.070154
C96	C	0.499917	-0.339689	0.570154
C97	C	-0.000081	-0.105857	0.125349
C98	C	0.499919	0.394143	0.625349
C99	C	-0.000085	-0.046457	0.124638
C100	C	0.499915	0.453543	0.624638
O101	O	-0.000107	-0.009713	0.168424
O102	O	0.499893	0.490287	0.668424
N103	N	-0.000084	-0.023830	0.072362
N104	N	0.499916	0.476170	0.572362
C105	C	-0.000085	-0.060608	0.020794
C106	C	0.499915	0.439392	0.520794
O107	O	-0.000085	-0.035908	-0.023737
O108	O	0.499915	0.464092	0.476263
C109	C	-0.000086	-0.120007	0.021506
C110	C	0.499914	0.379993	0.521506
C111	C	-0.000081	-0.142630	0.073785
C112	C	0.499919	0.357370	0.573785
C113	C	-0.000077	-0.128481	0.177625
C114	C	0.499923	0.371519	0.677625
C115	C	-0.000072	-0.187877	0.178336
C116	C	0.499928	0.312123	0.678336
C117	C	-0.000071	-0.224649	0.126772
C118	C	0.499929	0.275351	0.626772
C119	C	-0.000076	-0.202026	0.074496
C120	C	0.499924	0.297974	0.574496
C121	C	-0.000091	-0.156783	-0.030062
C122	C	0.499909	0.343217	0.469938
C123	C	-0.000092	-0.216185	-0.029345
C124	C	0.499908	0.283815	0.470655
C125	C	-0.000087	-0.238808	0.022934
C126	C	0.499913	0.261192	0.522934
C127	C	-0.000070	-0.298195	0.023643
C128	C	0.499930	0.201805	0.523643
N129	N	-0.000071	-0.320821	0.075920
N130	N	0.499929	0.179179	0.575920
C131	C	-0.000072	-0.284049	0.127484
C132	C	0.499928	0.215951	0.627484
C133	C	-0.000085	0.064135	0.019302
C134	C	0.499915	0.564135	0.519302
C135	C	-0.000080	0.123533	0.018589
C136	C	0.499920	0.623533	0.518589
C137	C	-0.000081	0.137679	0.122434
C138	C	0.499919	0.637679	0.622434
C139	C	-0.000081	0.078280	0.123146
C140	C	0.499919	0.578280	0.623146
C141	C	-0.000086	0.041508	0.071578
C142	C	0.499914	0.541508	0.571578
C143	C	-0.000061	-0.408785	0.128974
C144	C	0.499939	0.091215	0.628974
C145	C	-0.000054	-0.468187	0.129680
C146	C	0.499946	0.031813	0.629680
C147	C	-0.000056	-0.482329	0.025836
C148	C	0.499944	0.017671	0.525836
C149	C	-0.000060	-0.422932	0.025129
C150	C	0.499940	0.077068	0.525129
C151	C	-0.000065	-0.386161	0.076702
C152	C	0.499935	0.113839	0.576702
O153	O	-0.000051	-0.334973	-0.020119
O154	O	0.499949	0.165027	0.479881
O155	O	-0.000080	-0.308757	0.172007
O156	O	0.499920	0.191243	0.672007
C157	C	0.055021	-0.673059	-0.366480
C158	C	0.555021	-0.173059	0.133520
C159	C	0.055021	-0.673771	-0.307080
C160	C	0.555021	-0.173771	0.192920
O161	O	0.101865	-0.674171	-0.276360
O162	O	0.601865	-0.174171	0.223640
N163	N	-0.000063	-0.674109	-0.277372
N164	N	0.499937	-0.174109	0.222628
C165	C	-0.055150	-0.673742	-0.307069
C166	C	0.444850	-0.173742	0.192931
O167	O	-0.102003	-0.674095	-0.276346
O168	O	0.397997	-0.174095	0.223654
C169	C	-0.055149	-0.673034	-0.366468
C170	C	0.444851	-0.173034	0.133532
C171	C	-0.000062	-0.672690	-0.396172
C172	C	0.499938	-0.172690	0.103828
C173	C	0.110103	-0.672716	-0.396184
C174	C	0.610103	-0.172716	0.103816
C175	C	0.110103	-0.672003	-0.455580
C176	C	0.610103	-0.172003	0.044420
C177	C	0.055020	-0.671634	-0.485272
C178	C	0.555020	-0.171634	0.014728
C179	C	-0.000062	-0.671977	-0.455568
C180	C	0.499938	-0.171977	0.044432
C181	C	-0.110236	-0.672671	-0.396164
C182	C	0.389764	-0.172671	0.103836
C183	C	-0.110230	-0.671964	-0.455568
C184	C	0.389770	-0.171964	0.044432
C185	C	-0.055143	-0.671619	-0.485272
C186	C	0.444857	-0.171619	0.014728
C187	C	-0.055146	-0.670896	-0.544656
C188	C	0.444854	-0.170896	-0.044656
N189	N	-0.000062	-0.670557	-0.574364
N190	N	0.499938	-0.170557	-0.074364
C191	C	0.055021	-0.670926	-0.544672
C192	C	0.555021	-0.170926	-0.044672
C193	C	-0.055147	-0.675229	-0.182325
C194	C	0.444853	-0.175229	0.317675
C195	C	-0.055148	-0.675932	-0.122926
C196	C	0.444852	-0.175932	0.377074
C197	C	0.055023	-0.675962	-0.122942
C198	C	0.555023	-0.175962	0.377058
C199	C	0.055023	-0.675255	-0.182342
C200	C	0.555023	-0.175255	0.317658
C201	C	-0.000063	-0.674890	-0.212033
C202	C	0.499937	-0.174890	0.287967
C203	C	0.055016	-0.669429	-0.669408
C204	C	0.555016	-0.169429	-0.169408
C205	C	0.055011	-0.668714	-0.728808
C206	C	0.555011	-0.168714	-0.228808
C207	C	-0.055160	-0.668687	-0.728788
C208	C	0.444840	-0.168687	-0.228788
C209	C	-0.055155	-0.669399	-0.669392
C210	C	0.444845	-0.169399	-0.169392
C211	C	-0.000062	-0.669772	-0.639703
C212	C	0.499938	-0.169772	-0.139703
O213	O	-0.101965	-0.670498	-0.575414
O214	O	0.398035	-0.170498	-0.075414
O215	O	0.101866	-0.670580	-0.575403
O216	O	0.601866	-0.170580	-0.075403
C217	C	-0.000071	-0.667579	0.178283
C218	C	0.499929	-0.167579	0.678283
C219	C	-0.000072	-0.668345	0.241500
C220	C	0.499928	-0.168345	0.741500
H221	H	-0.850363	-0.610047	0.011764
H222	H	-0.350363	-0.110047	0.511764
H223	H	-0.000074	0.141947	-0.023982
H224	H	0.499926	0.641947	0.476018
H225	H	-0.000096	-0.246123	-0.071339
H226	H	0.499904	0.253877	0.428661
H227	H	-0.000053	-0.512279	-0.016146
H228	H	0.499947	-0.012279	0.483854
C229	C	0.118941	-0.621267	-0.595962
C230	C	0.618941	-0.121267	-0.095962
C231	C	0.115576	-0.669825	-0.636781
C232	C	0.615576	-0.169825	-0.136781
H233	H	0.156328	-0.621508	-0.575820
H234	H	0.656328	-0.121508	-0.075820
H235	H	0.116641	-0.587784	-0.614614
H236	H	0.616641	-0.087784	-0.114614
H237	H	0.086141	-0.621584	-0.569764
H238	H	0.586141	-0.121584	-0.069764
H239	H	0.148374	-0.669506	-0.662982
H240	H	0.648374	-0.169506	-0.162982
H241	H	0.117883	-0.703316	-0.618129
H242	H	0.617883	-0.203316	-0.118129
C243	C	0.163928	-0.675923	-0.128910
C244	C	0.663928	-0.175923	0.371090
C245	C	0.115573	-0.676372	-0.090298
C246	C	0.615573	-0.176372	0.409702
H247	H	0.201306	-0.676172	-0.108754
H248	H	0.701306	-0.176172	0.391246
H249	H	0.161635	-0.708858	-0.156601
H250	H	0.661635	-0.208858	0.343399
H251	H	0.161641	-0.642428	-0.147553
H252	H	0.661641	-0.142428	0.352447
H253	H	0.117857	-0.709870	-0.071658
H254	H	0.617857	-0.209870	0.428342
H255	H	0.117868	-0.643434	-0.062596
H256	H	0.617868	-0.143434	0.437404
H257	H	0.154961	-0.671727	-0.479760
H258	H	0.654961	-0.171727	0.020240
C259	C	-0.767279	-0.570111	-0.028190
C260	C	-0.267279	-0.070111	0.471810
C261	C	-0.725919	-0.600250	0.001968
C262	C	-0.225919	-0.100250	0.501968
H263	H	-0.745706	-0.546795	-0.051508
H264	H	-0.245706	-0.046795	0.448492
H265	H	-0.792075	-0.596455	-0.051661
H266	H	-0.292075	-0.096455	0.448339
H267	H	-0.792099	-0.546634	-0.001853
H268	H	-0.292099	-0.046634	0.498147
H269	H	-0.701101	-0.623731	-0.024369
H270	H	-0.201101	-0.123731	0.475631
H271	H	-0.701113	-0.573903	0.025441
H272	H	-0.201113	-0.073903	0.525441
C273	C	-0.000055	-0.442885	-0.077445
C274	C	0.499945	0.057115	0.422555
C275	C	-0.000059	-0.398061	-0.032337
C276	C	0.499941	0.101939	0.467663
H277	H	-0.000061	-0.427532	-0.112922
H278	H	0.499939	0.072468	0.387078
H279	H	0.035185	-0.465757	-0.075011
H280	H	0.535185	0.034243	0.424989
H281	H	-0.035292	-0.465758	-0.075000
H282	H	0.464708	0.034242	0.425000
H283	H	0.035181	-0.375190	-0.034780
H284	H	0.535181	0.124810	0.465220
H285	H	-0.035303	-0.375179	-0.034773
H286	H	0.464697	0.124821	0.465227
C287	C	-0.164047	-0.675260	-0.176333
C288	C	0.335953	-0.175260	0.323667
C289	C	-0.115704	-0.674816	-0.214958
C290	C	0.384296	-0.174816	0.285042
H291	H	-0.201431	-0.675002	-0.196477
H292	H	0.298569	-0.175002	0.303523
H293	H	-0.161759	-0.708751	-0.157692
H294	H	0.338241	-0.208751	0.342308
H295	H	-0.161740	-0.642320	-0.148639
H296	H	0.338260	-0.142320	0.351361
H297	H	-0.118008	-0.707758	-0.242650
H298	H	0.381992	-0.207758	0.257350
H299	H	-0.117993	-0.641322	-0.233608
H300	H	0.382007	-0.141322	0.266392
C301	C	-0.119064	-0.627746	-0.049455
C302	C	0.380936	-0.127746	0.450545
C303	C	-0.115702	-0.676302	-0.090279
C304	C	0.384298	-0.176302	0.409721
H305	H	-0.156451	-0.627976	-0.029305
H306	H	0.343549	-0.127976	0.470695
H307	H	-0.086267	-0.628074	-0.023269
H308	H	0.413733	-0.128074	0.476731
H309	H	-0.116766	-0.594258	-0.068108
H310	H	0.383234	-0.094258	0.431892
H311	H	-0.117995	-0.709790	-0.071625
H312	H	0.382005	-0.209790	0.428375
H313	H	-0.148508	-0.675980	-0.116468
H314	H	0.351492	-0.175980	0.383532
C315	C	-0.052023	0.019701	0.184201
C316	C	0.447977	0.519701	0.684201
C317	C	-0.000078	0.053413	0.180611
C318	C	0.499922	0.553413	0.680611
H319	H	-0.052018	0.004348	0.219678
H320	H	0.447982	0.504348	0.719678
H321	H	-0.087255	0.042586	0.181772
H322	H	0.412745	0.542586	0.681772
H323	H	-0.052019	-0.010702	0.153592
H324	H	0.447981	0.489298	0.653592
H325	H	-0.000085	0.083818	0.211218
H326	H	0.499915	0.583818	0.711218
H327	H	0.035162	0.030527	0.183046
H328	H	0.535162	0.530527	0.683046
C329	C	0.159040	-0.673737	-0.305130
C330	C	0.659040	-0.173737	0.194870
C331	C	0.170657	-0.673067	-0.363545
C332	C	0.670657	-0.173067	0.136455
H333	H	0.196427	-0.673938	-0.284982
H334	H	0.696427	-0.173938	0.215018
H335	H	0.136378	-0.640651	-0.290891
H336	H	0.636378	-0.140651	0.209109
H337	H	0.136444	-0.707082	-0.299899
H338	H	0.636444	-0.207082	0.200101
H339	H	0.193250	-0.639720	-0.368776
H340	H	0.693250	-0.139720	0.131224
H341	H	0.193329	-0.706156	-0.377788
H342	H	0.693329	-0.206156	0.122212
C343	C	0.118938	-0.618963	-0.788938
C344	C	0.618938	-0.118963	-0.288938
C345	C	0.115566	-0.668336	-0.761459
C346	C	0.615566	-0.168336	-0.261459
H347	H	0.156322	-0.618729	-0.809090
H348	H	0.656322	-0.118729	-0.309090
H349	H	0.086138	-0.618644	-0.815122
H350	H	0.586138	-0.118644	-0.315122
H351	H	0.116650	-0.586029	-0.761233
H352	H	0.616650	-0.086029	-0.261233
H353	H	0.117850	-0.701269	-0.789165
H354	H	0.617850	-0.201269	-0.289165
H355	H	0.148376	-0.668660	-0.735272
H356	H	0.648376	-0.168660	-0.235272
H357	H	-0.265189	-0.609992	0.011786
H358	H	0.234811	-0.109992	0.511786
H359	H	-0.100011	-0.669657	-0.645203
H360	H	0.399989	-0.169657	-0.145203
H361	H	-0.442383	-0.768991	0.170841
H362	H	0.057617	-0.268991	0.670841
C363	C	-0.219130	-0.672603	-0.402145
C364	C	0.280870	-0.172603	0.097855
C365	C	-0.170791	-0.673065	-0.363526
C366	C	0.329209	-0.173065	0.136474
H367	H	-0.256516	-0.672854	-0.381996
H368	H	0.243484	-0.172854	0.118004
H369	H	-0.216843	-0.639109	-0.420780
H370	H	0.283157	-0.139109	0.079220
H371	H	-0.216820	-0.705539	-0.429844
H372	H	0.283180	-0.205539	0.070156
H373	H	-0.173098	-0.640127	-0.335829
H374	H	0.326902	-0.140127	0.164171
H375	H	-0.173079	-0.706563	-0.344882
H376	H	0.326921	-0.206563	0.155118
C377	C	0.051878	-0.098158	0.265906
C378	C	0.551878	0.401842	0.765906
C379	C	-0.000072	-0.088066	0.234311
C380	C	0.499928	0.411934	0.734311
H381	H	0.051886	-0.073208	0.300902
H382	H	0.551886	0.426792	0.800902
H383	H	0.051872	-0.136770	0.273801
H384	H	0.551872	0.363230	0.773801
H385	H	0.087110	-0.091332	0.244444
H386	H	0.587110	0.408668	0.744444
H387	H	-0.035304	-0.094896	0.255771
H388	H	0.464696	0.405104	0.755771
H389	H	-0.000071	-0.049445	0.226418
H390	H	0.499929	0.450555	0.726418
H391	H	0.099880	-0.674973	-0.206522
H392	H	0.599880	-0.174973	0.293478
C393	C	-0.174146	-0.622186	-0.515685
C394	C	0.325854	-0.122186	-0.015685
C395	C	-0.170785	-0.671559	-0.488204
C396	C	0.329215	-0.171559	0.011796
H397	H	-0.211528	-0.621938	-0.535835
H398	H	0.288472	-0.121938	-0.035835
H399	H	-0.171854	-0.589256	-0.487987
H400	H	0.328146	-0.089256	0.012013
H401	H	-0.141340	-0.621886	-0.541879
H402	H	0.358660	-0.121886	-0.041879
H403	H	-0.203589	-0.671857	-0.462007
H404	H	0.296411	-0.171857	0.037993
H405	H	-0.173083	-0.704498	-0.515905
H406	H	0.326917	-0.204498	-0.015905
C407	C	-0.104065	-0.667601	-0.819844
C408	C	0.395935	-0.167601	-0.319844
C409	C	-0.115705	-0.668291	-0.761435
C410	C	0.384295	-0.168291	-0.261435
H411	H	-0.141444	-0.667365	-0.839999
H412	H	0.358556	-0.167365	-0.339999
H413	H	-0.081440	-0.634273	-0.825053
H414	H	0.418560	-0.134273	-0.325053
H415	H	-0.081425	-0.700704	-0.834093
H416	H	0.418575	-0.200704	-0.334093
H417	H	-0.138342	-0.635186	-0.747184
H418	H	0.361658	-0.135186	-0.247184
H419	H	-0.138340	-0.701622	-0.756222
H420	H	0.361660	-0.201622	-0.256222
C421	C	-0.310783	-0.783238	0.111685
C422	C	0.189217	-0.283238	0.611685
C423	C	-0.274230	-0.744403	0.146290
C424	C	0.225770	-0.244403	0.646290
H425	H	-0.332351	-0.806549	0.135010
H426	H	0.167649	-0.306549	0.635010
H427	H	-0.338833	-0.762791	0.091223
H428	H	0.161167	-0.262791	0.591223
H429	H	-0.285952	-0.806716	0.085359
H430	H	0.214048	-0.306716	0.585359
H431	H	-0.299061	-0.720921	0.172613
H432	H	0.200939	-0.220921	0.672613
H433	H	-0.246177	-0.764851	0.166761
H434	H	0.253823	-0.264851	0.666761
H435	H	-0.734951	-0.734653	0.136481
H436	H	-0.234951	-0.234653	0.636481
C437	C	-0.525495	-0.535762	-0.062561
C438	C	-0.025495	-0.035762	0.437439
C439	C	-0.566844	-0.565903	-0.032397
C440	C	-0.066844	-0.065903	0.467603
H441	H	-0.547076	-0.512465	-0.085893
H442	H	-0.047076	-0.012465	0.414107
H443	H	-0.500701	-0.512273	-0.036231
H444	H	-0.000701	-0.012273	0.463769
H445	H	-0.500672	-0.562110	-0.086023
H446	H	-0.000672	-0.062110	0.413977
H447	H	-0.591664	-0.539555	-0.008932
H448	H	-0.091664	-0.039555	0.491068
H449	H	-0.591649	-0.589394	-0.058730
H450	H	-0.091649	-0.089394	0.441270
H451	H	-0.149789	-0.609985	0.011796
H452	H	0.350211	-0.109985	0.511796
C453	C	-0.396793	-0.527046	0.002235
C454	C	0.103207	-0.027046	0.502235
C455	C	-0.433340	-0.565877	-0.032380
C456	C	0.066660	-0.065877	0.467620
H457	H	-0.375223	-0.503728	-0.021082
H458	H	0.124777	-0.003728	0.478918
H459	H	-0.421623	-0.503579	0.028563
H460	H	0.078377	-0.003579	0.528563
H461	H	-0.368738	-0.547500	0.022694
H462	H	0.131262	-0.047500	0.522694
H463	H	-0.461398	-0.545423	-0.052836
H464	H	0.038602	-0.045423	0.447164
H465	H	-0.408508	-0.589347	-0.058718
H466	H	0.091492	-0.089347	0.441282
H467	H	-0.000068	-0.206291	0.220907
H468	H	0.499932	0.293709	0.720907
H469	H	-0.149787	-0.734595	0.136511
H470	H	0.350213	-0.234595	0.636511
C471	C	-0.525473	-0.808925	0.210788
C472	C	-0.025473	-0.308925	0.710788
C473	C	-0.566828	-0.778787	0.180623
C474	C	-0.066828	-0.278787	0.680623
H475	H	-0.547050	-0.832231	0.234112
H476	H	-0.047050	-0.332231	0.734112
H477	H	-0.500657	-0.832406	0.184458
H478	H	-0.000657	-0.332406	0.684458
H479	H	-0.500673	-0.782575	0.234258
H480	H	-0.000673	-0.282575	0.734258
H481	H	-0.591626	-0.805137	0.157149
H482	H	-0.091626	-0.305137	0.657149
H483	H	-0.591655	-0.755304	0.206955
H484	H	-0.091655	-0.255304	0.706955
C485	C	-0.000113	-0.176757	-0.132632
C486	C	0.499887	0.323243	0.367368
C487	C	-0.000106	-0.131926	-0.087530
C488	C	0.499894	0.368074	0.412470
H489	H	-0.000128	-0.161412	-0.168112
H490	H	0.499872	0.338588	0.331888
H491	H	0.035126	-0.199631	-0.130200
H492	H	0.535126	0.300369	0.369800
H493	H	-0.035351	-0.199627	-0.130174
H494	H	0.464649	0.300373	0.369826
H495	H	0.035135	-0.109059	-0.089985
H496	H	0.535135	0.390941	0.410015
H497	H	-0.035349	-0.109043	-0.089963
H498	H	0.464651	0.390957	0.410037
C499	C	-0.844021	-0.801977	0.130358
C500	C	-0.344021	-0.301977	0.630358
C501	C	-0.859411	-0.744457	0.146258
C502	C	-0.359411	-0.244457	0.646258
H503	H	-0.865602	-0.825286	0.153677
H504	H	-0.365602	-0.325286	0.653677
H505	H	-0.854434	-0.812771	0.091339
H506	H	-0.354434	-0.312771	0.591339
H507	H	-0.801587	-0.806884	0.135286
H508	H	-0.301587	-0.306884	0.635286
H509	H	-0.901844	-0.739550	0.141326
H510	H	-0.401844	-0.239550	0.641326
H511	H	-0.849002	-0.733660	0.185286
H512	H	-0.349002	-0.233660	0.685286
H513	H	-0.000067	-0.378853	0.170970
H514	H	0.499933	0.121147	0.670970
C515	C	-0.000059	-0.448228	0.232257
C516	C	0.499941	0.051772	0.732257
C517	C	-0.000053	-0.493053	0.187150
C518	C	0.499947	0.006947	0.687150
H519	H	-0.000063	-0.463579	0.267735
H520	H	0.499937	0.036421	0.767735
H521	H	0.035176	-0.425360	0.229816
H522	H	0.535176	0.074640	0.729816
H523	H	-0.035301	-0.425351	0.229816
H524	H	0.464699	0.074649	0.729816
H525	H	0.035192	-0.515928	0.189588
H526	H	0.535192	-0.015928	0.689588
H527	H	-0.035291	-0.515931	0.189592
H528	H	0.464709	-0.015931	0.689592
C529	C	0.051857	0.212689	0.181869
C530	C	0.551857	0.712689	0.681869
C531	C	-0.000086	0.178108	0.179116
C532	C	0.499914	0.678108	0.679116
H533	H	0.051852	0.237650	0.216859
H534	H	0.551852	0.737650	0.716859
H535	H	0.087090	0.189219	0.179992
H536	H	0.587090	0.689219	0.679992
H537	H	0.051851	0.234657	0.150627
H538	H	0.551851	0.734657	0.650627
H539	H	-0.000077	0.156136	0.210356
H540	H	0.499923	0.656136	0.710356
H541	H	-0.035328	0.201581	0.180999
H542	H	0.464672	0.701581	0.680999
H543	H	-0.000083	0.034198	-0.022693
H544	H	0.499917	0.534198	0.477307
