data_functionalizedCrystal
_audit_creation_method	'MofGen! by Chris Wilmer'
_symmetry_space_group_name_H-M	'P1'
_symmetry_Int_Tables_number	1
_symmetry_cell_setting	triclinic
loop_
_symmetry_equiv_pos_as_xyz
  x,y,z
_cell_length_a	17.699083
_cell_length_b	9.016244
_cell_length_c	10.540535
_cell_angle_alpha	90.008135
_cell_angle_beta	83.903329
_cell_angle_gamma	89.996359
loop_
_atom_site_label
_atom_site_type_symbol
_atom_site_fract_x
_atom_site_fract_y
_atom_site_fract_z
O1	O	1.005115	0.123137	0.160522
O2	O	1.505115	0.623137	0.660522
O3	O	0.784873	0.123186	0.181406
O4	O	1.284873	0.623186	0.681406
O5	O	0.900020	0.123145	-0.013835
O6	O	1.400020	0.623145	0.486165
O7	O	0.889967	0.123177	0.355763
O8	O	1.389967	0.623177	0.855763
O9	O	0.900016	-0.123536	-0.013849
O10	O	1.400016	0.376464	0.486151
O11	O	0.784868	-0.123495	0.181392
O12	O	1.284868	0.376505	0.681392
O13	O	1.005110	-0.123544	0.160507
O14	O	1.505110	0.376456	0.660507
Cu15	Cu	0.894989	-0.146043	0.170948
Cu16	Cu	1.394989	0.353957	0.670948
Cu17	Cu	0.894994	0.145685	0.170965
Cu18	Cu	1.394994	0.645685	0.670965
O19	O	0.889963	-0.123503	0.355748
O20	O	1.389963	0.376497	0.855748
C21	C	0.756668	-0.000148	0.180650
C22	C	1.256668	0.499852	0.680650
C23	C	0.672636	-0.000130	0.178406
C24	C	1.172636	0.499870	0.678406
C25	C	0.624759	-0.000121	0.293008
C26	C	1.124759	0.499879	0.793008
C27	C	0.545802	-0.000140	0.290891
C28	C	1.045802	0.499860	0.790891
C29	C	0.514723	-0.000158	0.174170
C30	C	1.014723	0.499842	0.674170
C31	C	0.562606	-0.000172	0.059559
C32	C	1.062606	0.499828	0.559559
C33	C	0.641562	-0.000163	0.061677
C34	C	1.141562	0.499837	0.561677
C35	C	0.244188	-0.000210	0.051014
C36	C	0.744188	0.499790	0.551014
C37	C	0.165226	-0.000214	0.048904
C38	C	0.665226	0.499786	0.548904
C39	C	0.148427	-0.000186	0.280227
C40	C	0.648427	0.499814	0.780227
C41	C	0.227383	-0.000177	0.282346
C42	C	0.727383	0.499823	0.782346
C43	C	0.275259	-0.000199	0.167735
C44	C	0.775259	0.499801	0.667735
C45	C	0.360873	-0.000181	0.170032
C46	C	0.860873	0.499819	0.670032
C47	C	0.429110	-0.000166	0.171872
C48	C	0.929110	0.499834	0.671872
N49	N	0.894990	-0.351230	0.170935
N50	N	1.394990	0.148770	0.670935
C51	C	0.956817	-0.586238	0.066846
C52	C	1.456817	-0.086238	0.566846
C53	C	0.956650	-0.414347	0.066457
C54	C	1.456650	0.085653	0.566457
C55	C	0.815872	-0.413640	0.142251
C56	C	1.315872	0.086360	0.642251
C57	C	0.816240	-0.585585	0.141522
C58	C	1.316240	-0.085585	0.641522
C59	C	0.911588	-0.585726	0.304080
C60	C	1.411588	-0.085726	0.804080
C61	C	0.913374	-0.413771	0.303176
C62	C	1.413374	0.086229	0.803176
C63	C	1.033315	-0.000207	0.161263
C64	C	1.533315	0.499793	0.661263
C65	C	1.117347	-0.000215	0.163508
C66	C	1.617347	0.499785	0.663508
C67	C	0.899265	-0.000196	-0.061131
C68	C	1.399265	0.499804	0.438869
C69	C	0.897011	-0.000197	-0.202038
C70	C	1.397011	0.499803	0.297962
N71	N	0.894999	0.350871	0.170968
N72	N	1.394999	0.850871	0.670968
C73	C	0.812939	-0.000168	-0.237171
C74	C	1.312939	0.499832	0.262829
C75	C	0.810568	0.000419	-0.383728
C76	C	1.310568	0.500419	0.116272
C77	C	0.935392	0.140421	-0.412057
C78	C	1.435392	0.640421	0.087943
C79	C	0.937181	0.140512	-0.265324
C80	C	1.437181	0.640512	0.234676
C81	C	0.938398	-0.140020	-0.265501
C82	C	1.438398	0.359980	0.234499
C83	C	0.934510	-0.141841	-0.411777
C84	C	1.434510	0.358159	0.088223
C85	C	0.890718	-0.000159	0.403045
C86	C	1.390718	0.499841	0.903045
C87	C	0.892972	-0.000148	0.543952
C88	C	1.392972	0.499852	1.043952
H89	H	0.506823	-0.000130	0.384212
H90	H	1.006823	0.499870	0.884212
C91	C	0.987920	-0.644295	0.341404
C92	C	1.487920	-0.144295	0.841404
N93	N	1.045417	-0.688408	0.369502
N94	N	1.545417	-0.188408	0.869502
C95	C	0.898479	0.283025	-0.210323
C96	C	1.398479	0.783025	0.289677
N97	N	0.869325	0.390366	-0.168902
N98	N	1.369325	0.890366	0.331098
H99	H	0.768732	-0.372756	0.216076
H100	H	1.268732	0.127244	0.716076
H101	H	0.998813	0.146485	-0.243420
H102	H	1.498813	0.646485	0.256580
C103	C	1.017356	0.146944	-0.477537
C104	C	1.517356	0.646944	0.022463
N105	N	1.079092	0.151855	-0.526861
N106	N	1.579092	0.651855	-0.026861
C107	C	0.796635	-0.639796	0.010384
C108	C	1.296635	-0.139796	0.510384
N109	N	0.781870	-0.680620	-0.088394
N110	N	1.281870	-0.180620	0.411606
H111	H	0.994654	-0.150766	-0.461913
H112	H	1.494654	0.349234	0.038087
C113	C	1.036073	-0.357338	0.089472
C114	C	1.536073	0.142662	0.589472
N115	N	1.095900	-0.314406	0.106798
N116	N	1.595900	0.185594	0.606798
C117	C	0.856562	-0.355721	0.412728
C118	C	1.356562	0.144279	0.912728
N119	N	0.813766	-0.311995	0.495240
N120	N	1.313766	0.188005	0.995240
H121	H	0.537296	-0.000208	-0.035477
H122	H	1.037296	0.499792	0.464523
C123	C	0.296841	-0.000224	-0.075061
C124	C	0.796841	0.499776	0.424939
N125	N	0.336503	-0.000233	-0.170028
N126	N	0.836503	0.499767	0.329972
C127	C	0.896077	0.282320	-0.453054
C128	C	1.396077	0.782320	0.046946
N129	N	0.866460	0.389196	-0.483928
N130	N	1.366460	0.889196	0.016072
H131	H	0.801021	-0.370596	0.046285
H132	H	1.301021	0.129404	0.546285
H133	H	1.015802	-0.627589	0.083616
H134	H	1.515802	-0.127589	0.583616
H135	H	0.252682	-0.000156	0.377391
H136	H	0.752682	0.499844	0.877391
H137	H	0.680543	-0.000170	-0.031644
H138	H	1.180543	0.499830	0.468356
C139	C	0.902949	-0.284021	-0.207522
C140	C	1.402949	0.215979	0.292478
N141	N	0.876240	-0.392475	-0.163850
N142	N	1.376240	0.107525	0.336150
C143	C	0.992007	-0.358665	0.332593
C144	C	1.492007	0.141335	0.832593
N145	N	1.051234	-0.317151	0.354746
N146	N	1.551234	0.182849	0.854746
C147	C	0.850702	-0.640681	0.408755
C148	C	1.350702	-0.140681	0.908755
N149	N	0.804841	-0.682084	0.487587
N150	N	1.304841	-0.182084	0.987587
C151	C	0.752175	-0.641793	0.240085
C152	C	1.252175	-0.141793	0.740085
N153	N	0.703918	-0.684122	0.314315
N154	N	1.203918	-0.184122	0.814315
C155	C	0.765742	-0.135674	-0.422563
C156	C	1.265742	0.364326	0.077437
N157	N	0.731973	-0.238178	-0.451805
N158	N	1.231973	0.261822	0.048195
C159	C	0.131042	-0.000252	-0.079503
C160	C	0.631042	0.499748	0.420497
N161	N	0.105295	-0.000284	-0.176215
N162	N	0.605295	0.499716	0.323785
C163	C	0.769314	-0.136323	-0.179672
C164	C	1.269314	0.363677	0.320328
N165	N	0.736453	-0.238873	-0.136345
N166	N	1.236453	0.261127	0.363655
H167	H	0.946295	-0.629470	-0.031382
H168	H	1.446295	-0.129470	0.468618
C169	C	0.770058	0.135843	-0.177674
C170	C	1.270058	0.635843	0.322326
N171	N	0.737763	0.238292	-0.132864
N172	N	1.237763	0.738292	0.367136
C173	C	0.892808	-0.282338	-0.449679
C174	C	1.392808	0.217662	0.050321
N175	N	0.861397	-0.388157	-0.478235
N176	N	1.361397	0.111843	0.021765
H177	H	1.000252	-0.141405	-0.244437
H178	H	1.500252	0.358595	0.255563
H179	H	0.777563	0.101804	-0.411564
H180	H	1.277563	0.601804	0.088436
C181	C	0.658937	-0.000103	0.421412
C182	C	1.158937	0.499897	0.921412
N183	N	0.684678	-0.000097	0.518129
N184	N	1.184678	0.499903	1.018129
H185	H	0.109437	-0.000176	0.373548
H186	H	0.609437	0.499824	0.873548
H187	H	0.945975	-0.373234	-0.032335
H188	H	1.445975	0.126766	0.467665
