data_functionalizedCrystal
_audit_creation_method	'MofGen! by Chris Wilmer'
_symmetry_space_group_name_H-M	'P1'
_symmetry_Int_Tables_number	1
_symmetry_cell_setting	triclinic
loop_
_symmetry_equiv_pos_as_xyz
  x,y,z
_cell_length_a	16.120490
_cell_length_b	25.639239
_cell_length_c	16.120297
_cell_angle_alpha	87.131297
_cell_angle_beta	89.870317
_cell_angle_gamma	87.130891
loop_
_atom_site_label
_atom_site_type_symbol
_atom_site_fract_x
_atom_site_fract_y
_atom_site_fract_z
Zn1	Zn	1.247336	-0.264925	0.534506
Zn2	Zn	1.747336	0.235075	1.034506
Zn3	Zn	1.254252	-0.348157	0.395439
Zn4	Zn	1.754252	0.151843	0.895439
Zn5	Zn	1.115330	-0.256086	0.388428
Zn6	Zn	1.615330	0.243914	0.888428
Zn7	Zn	1.108208	-0.347671	0.527412
Zn8	Zn	1.608208	0.152329	1.027412
O9	O	1.181282	-0.304210	0.461446
O10	O	1.681282	0.195790	0.961446
O11	O	1.364619	-0.279869	0.521961
O12	O	1.864619	0.220131	1.021961
O13	O	1.241699	-0.332448	0.278144
O14	O	1.741699	0.167552	0.778144
O15	O	1.132927	-0.184097	0.407840
O16	O	1.632927	0.315903	0.907840
O17	O	1.369700	-0.341019	0.419789
O18	O	1.869700	0.158981	0.919789
O19	O	1.229911	-0.190591	0.515163
O20	O	1.729911	0.309409	1.015163
O21	O	1.139633	-0.264804	0.272993
O22	O	1.639633	0.235196	0.772993
O23	O	0.998020	-0.264332	0.400961
O24	O	1.498020	0.235668	0.900961
O25	O	1.120789	-0.340190	0.644718
O26	O	1.620789	0.159810	1.144718
O27	O	0.992788	-0.331619	0.503072
O28	O	1.492788	0.168381	1.003072
O29	O	1.223006	-0.279397	0.649930
O30	O	1.723006	0.220603	1.149930
O31	O	1.234793	-0.421254	0.412911
O32	O	1.734793	0.078746	0.912911
O33	O	1.127495	-0.420897	0.509871
O34	O	1.627495	0.079103	1.009871
C35	C	0.965232	-0.296964	0.450487
C36	C	1.465232	0.203036	0.950487
C37	C	0.872803	-0.293877	0.445818
C38	C	1.372803	0.206123	0.945818
C39	C	0.659830	-0.320217	0.485665
C40	C	1.159830	0.179783	0.985665
C41	C	0.703581	-0.288246	0.437293
C42	C	1.203581	0.211754	0.937293
C43	C	0.797745	-0.291380	0.442038
C44	C	1.297745	0.208620	0.942038
C45	C	0.565658	-0.317084	0.480921
C46	C	1.065658	0.182916	0.980921
C47	C	1.181144	-0.440046	0.461401
C48	C	1.681144	0.059954	0.961401
C49	C	1.181159	-0.498161	0.461413
C50	C	1.681159	0.001839	0.961413
C51	C	1.237286	-0.858710	0.411057
C52	C	1.737286	-0.358710	0.911057
C53	C	1.237318	-0.913316	0.411069
C54	C	1.737318	-0.413316	0.911069
O55	O	1.284895	-0.941705	0.368205
O56	O	1.784895	-0.441705	0.868205
N57	N	1.181425	-0.940455	0.461509
N58	N	1.681425	-0.440455	0.961509
C59	C	1.125503	-0.912986	0.511945
C60	C	1.625503	-0.412986	1.011945
O61	O	1.077965	-0.941085	0.554849
O62	O	1.577965	-0.441085	1.054849
C63	C	1.125476	-0.858382	0.511936
C64	C	1.625476	-0.358382	1.011936
C65	C	1.181366	-0.831245	0.461487
C66	C	1.681366	-0.331245	0.961487
C67	C	1.293173	-0.831573	0.360613
C68	C	1.793173	-0.331573	0.860613
C69	C	1.293140	-0.776971	0.360599
C70	C	1.793140	-0.276971	0.860599
C71	C	1.237220	-0.749506	0.411029
C72	C	1.737220	-0.249506	0.911029
C73	C	1.181333	-0.776643	0.461473
C74	C	1.681333	-0.276643	0.961473
C75	C	1.069558	-0.830914	0.562375
C76	C	1.569558	-0.330914	1.062375
C77	C	1.069536	-0.776306	0.562363
C78	C	1.569536	-0.276306	1.062363
C79	C	1.125427	-0.749169	0.511914
C80	C	1.625427	-0.249169	1.011914
C81	C	1.125381	-0.694576	0.511890
C82	C	1.625381	-0.194576	1.011890
N83	N	1.181274	-0.667437	0.461451
N84	N	1.681274	-0.167437	0.961451
C85	C	1.237193	-0.694902	0.411020
C86	C	1.737193	-0.194902	0.911020
C87	C	1.125565	-1.027660	0.511960
C88	C	1.625565	-0.527660	1.011960
C89	C	1.125587	-1.082263	0.511966
C90	C	1.625587	-0.582263	1.011966
C91	C	1.237403	-1.082589	0.411091
C92	C	1.737403	-0.582589	0.911091
C93	C	1.237376	-1.027984	0.411083
C94	C	1.737376	-0.527984	0.911083
C95	C	1.181457	-1.000520	0.461521
C96	C	1.681457	-0.500520	0.961521
C97	C	1.237119	-0.580234	0.410995
C98	C	1.737119	-0.080234	0.910995
C99	C	1.237079	-0.525627	0.410983
C100	C	1.737079	-0.025627	0.910983
C101	C	1.125266	-0.525306	0.511860
C102	C	1.625266	-0.025306	1.011860
C103	C	1.125303	-0.579908	0.511869
C104	C	1.625303	-0.079908	1.011869
C105	C	1.181237	-0.607370	0.461434
C106	C	1.681237	-0.107370	0.961434
O107	O	1.077830	-0.666153	0.554734
O108	O	1.577830	-0.166153	1.054734
O109	O	1.284730	-0.666797	0.368132
O110	O	1.784730	-0.166797	0.868132
C111	C	1.398176	-0.311484	0.472449
C112	C	1.898176	0.188516	0.972449
C113	C	1.490603	-0.314584	0.477137
C114	C	1.990603	0.185416	0.977137
C115	C	1.170332	-0.310725	0.678340
C116	C	1.670332	0.189275	1.178340
C117	C	1.165666	-0.313502	0.770767
C118	C	1.665666	0.186498	1.270767
C119	C	1.181442	-0.167844	0.461511
C120	C	1.681442	0.332156	0.961511
C121	C	1.181510	-0.109733	0.461538
C122	C	1.681510	0.390267	0.961538
C123	C	1.192237	-0.297683	0.245399
C124	C	1.692237	0.202317	0.745399
C125	C	1.197064	-0.294765	0.152980
C126	C	1.697064	0.205235	0.652980
C127	C	1.157116	-0.318559	0.939991
C128	C	1.657116	0.181441	1.439991
C129	C	1.205612	-0.289709	0.983761
C130	C	1.705612	0.210291	1.483761
C131	C	1.200854	-0.292523	1.077923
C132	C	1.700854	0.207477	1.577923
C133	C	1.161872	-0.315746	0.845820
C134	C	1.661872	0.184254	1.345820
H135	H	0.693092	-0.349939	0.530636
H136	H	1.193092	0.150061	1.030636
C137	C	1.266536	-0.253492	0.938850
C138	C	1.766536	0.246508	1.438850
N139	N	1.312425	-0.226217	0.905019
N140	N	1.812425	0.273783	1.405019
H141	H	1.079735	-0.502935	0.552917
H142	H	1.579735	-0.002935	1.052917
C143	C	1.354690	-0.861776	0.305126
C144	C	1.854690	-0.361776	0.805126
N145	N	1.401023	-0.884521	0.263323
N146	N	1.901023	-0.384521	0.763323
H147	H	1.282592	-0.503533	0.369899
H148	H	1.782592	-0.003533	0.869899
H149	H	1.080022	-1.005301	0.553031
H150	H	1.580022	-0.505301	1.053031
C151	C	1.096202	-0.354777	0.984903
C152	C	1.596202	0.145223	1.484903
N153	N	1.050322	-0.382057	1.018740
N154	N	1.550322	0.117943	1.518740
H155	H	1.282667	-0.602587	0.369928
H156	H	1.782667	-0.102587	0.869928
C157	C	1.354618	-0.747128	0.305094
C158	C	1.854618	-0.247128	0.805094
N159	N	1.400925	-0.724652	0.263282
N160	N	1.900925	-0.224652	0.763282
C161	C	1.008075	-0.860753	0.617877
C162	C	1.508075	-0.360753	1.117877
N163	N	0.961764	-0.883226	0.659685
N164	N	1.461764	-0.383226	1.159685
C165	C	0.658646	-0.248094	0.376525
C166	C	1.158646	0.251906	0.876525
N167	N	0.624797	-0.217854	0.330753
N168	N	1.124797	0.282146	0.830753
C169	C	1.298862	-0.998139	0.355588
C170	C	1.798862	-0.498139	0.855588
N171	N	1.345177	-0.975662	0.313789
N172	N	1.845177	-0.475662	0.813789
C173	C	1.064096	-1.112107	0.567455
C174	C	1.564096	-0.612107	1.067455
N175	N	1.017781	-1.134583	0.609255
N176	N	1.517781	-0.634583	1.109255
C177	C	1.298923	-1.112811	0.355624
C178	C	1.798923	-0.612811	0.855624
N179	N	1.345257	-1.135576	0.313849
N180	N	1.845257	-0.635576	0.813849
H181	H	1.024001	-0.753948	0.603439
H182	H	1.524001	-0.253948	1.103439
H183	H	1.079795	-0.602004	0.552951
H184	H	1.579795	-0.102004	1.052951
