data_functionalizedCrystal
_audit_creation_method	'MofGen! by Chris Wilmer'
_symmetry_space_group_name_H-M	'P1'
_symmetry_Int_Tables_number	1
_symmetry_cell_setting	triclinic
loop_
_symmetry_equiv_pos_as_xyz
  x,y,z
_cell_length_a	6.817900
_cell_length_b	13.167930
_cell_length_c	19.453114
_cell_angle_alpha	100.361600
_cell_angle_beta	101.709288
_cell_angle_gamma	105.754568
loop_
_atom_site_label
_atom_site_type_symbol
_atom_site_fract_x
_atom_site_fract_y
_atom_site_fract_z
V1	V	-4.025468	-0.150065	-0.228780
O2	O	-3.993989	0.006058	-0.214435
O3	O	-3.995283	-0.296444	-0.236822
O4	O	-3.968158	-0.148262	-0.324175
O5	O	-4.021301	-0.143149	-0.126478
V6	V	-4.507890	-0.131331	-0.215376
O7	O	-4.289141	-0.191159	-0.258181
O8	O	-4.694414	-0.090237	-0.185975
O9	O	-4.314868	0.015048	-0.207334
O10	O	-4.656765	-0.287453	-0.229721
O11	O	-4.629453	-0.138246	-0.317678
O12	O	-4.341992	-0.133133	-0.119981
C13	C	-3.845003	-0.332112	-0.235692
C14	C	-3.901551	-0.451782	-0.242904
C15	C	-3.935149	-0.645250	-0.125749
C16	C	-3.988280	-0.757690	-0.132522
C17	C	-4.060956	-0.789104	-0.263221
C18	C	-4.007826	-0.676664	-0.256448
C19	C	-3.944920	-0.604741	-0.187710
C20	C	-3.891775	-0.492298	-0.180938
C21	C	-3.964467	-0.523714	-0.311637
C22	C	-4.017597	-0.636154	-0.318410
C23	C	-3.810402	-0.143091	-0.347118
C24	C	-3.844950	-0.142586	-0.425168
C25	C	-4.043635	-0.147752	-0.465762
C26	C	-4.076096	-0.147278	-0.539098
C27	C	-3.909872	-0.141659	-0.571840
C28	C	-3.711156	-0.136485	-0.531236
C29	C	-3.678695	-0.136949	-0.457900
N30	N	-3.857204	-0.198510	-0.694335
N31	N	-3.888054	-0.198072	-0.764002
C32	C	-4.007664	-0.140259	-0.792797
N33	N	-4.095296	-0.082915	-0.749297
N34	N	-4.064451	-0.083358	-0.679625
C35	C	-3.945051	-0.141155	-0.651360
C36	C	-4.241560	-0.144910	-0.912910
C37	C	-4.274011	-0.144429	-0.986246
C38	C	-3.909071	-0.133647	-0.978385
C39	C	-3.876620	-0.134118	-0.905049
C40	C	-4.042874	-0.139754	-0.872317
C41	C	-4.128490	0.050711	-0.208462
C42	C	-4.051180	0.170380	-0.201255
C43	C	-4.163091	-0.138308	-0.097034
C44	C	-4.107782	-0.138808	-0.018984
H45	H	-4.112211	-0.847683	-0.319185
N46	N	-4.279060	-0.152579	-0.580588
N47	N	-4.308014	-0.152176	-0.646068
H48	H	-4.451359	-0.155925	-0.675371
N49	N	-4.081808	-0.709609	-0.388625
N50	N	-4.090497	-0.673421	-0.443941
H51	H	-4.135834	-0.725296	-0.493533
H52	H	-3.516895	-0.132734	-0.424847
H53	H	-3.714836	-0.129922	-0.871998
N54	N	-3.541418	-0.130681	-0.564712
N55	N	-3.479160	-0.052918	-0.592032
H56	H	-3.359298	-0.048795	-0.615688
H57	H	-3.840543	-0.433739	-0.124967
N58	N	-4.213424	-0.153506	-0.432314
N59	N	-4.275855	-0.231240	-0.404988
H60	H	-4.395765	-0.235302	-0.381362
N61	N	-3.974403	-0.482338	-0.374935
N62	N	-3.811735	-0.418857	-0.382743
H63	H	-3.818737	-0.389635	-0.427446
N64	N	-4.411347	-0.150629	-0.879462
N65	N	-4.394082	-0.075812	-0.826690
H66	H	-4.513993	-0.079847	-0.803067
N67	N	-4.476964	-0.149679	-1.027707
N68	N	-4.555664	-0.077067	-1.009416
H69	H	-4.699004	-0.080771	-1.038697
N70	N	-3.870901	-0.571762	-0.055545
N71	N	-3.823477	-0.471373	-0.049508
H72	H	-3.778103	-0.419471	0.000074
H73	H	-3.773722	-0.129063	-1.005042
H74	H	-3.980320	-0.790668	-0.082066
