data_functionalizedCrystal
_audit_creation_method	'MofGen! by Chris Wilmer'
_symmetry_space_group_name_H-M	'P1'
_symmetry_Int_Tables_number	1
_symmetry_cell_setting	triclinic
loop_
_symmetry_equiv_pos_as_xyz
  x,y,z
_cell_length_a	23.204063
_cell_length_b	23.204065
_cell_length_c	23.204116
_cell_angle_alpha	59.997987
_cell_angle_beta	89.998953
_cell_angle_gamma	60.000253
loop_
_atom_site_label
_atom_site_type_symbol
_atom_site_fract_x
_atom_site_fract_y
_atom_site_fract_z
O1	O	-0.491197	-0.412484	0.017135
O2	O	-0.407392	-0.294473	-0.017070
O3	O	-0.407389	-0.412483	0.100940
O4	O	-0.491200	-0.294474	-0.100875
O5	O	-0.311538	-0.508333	0.100940
O6	O	-0.311541	-0.390323	-0.017071
O7	O	-0.395346	-0.508335	0.017135
Cu8	Cu	-0.344692	-0.458081	0.000032
Cu9	Cu	-0.458046	-0.344727	0.000033
O10	O	-0.395349	-0.390324	-0.100876
C11	C	-0.310652	-0.181456	-0.024838
C12	C	-0.346214	-0.110333	-0.019942
C13	C	-0.241294	-0.215971	-0.025323
C14	C	-0.310655	-0.285810	-0.024846
C15	C	-0.346219	-0.326263	-0.019957
C16	C	-0.241297	-0.320167	-0.025331
C17	C	-0.206293	-0.285815	-0.024838
C18	C	-0.130274	-0.326273	-0.019941
C19	C	-0.345497	-0.215967	-0.025331
C20	C	-0.658540	-0.590043	0.035860
C21	C	-0.734559	-0.549588	0.030967
C22	C	-0.623539	-0.659889	0.036349
C23	C	-0.554183	-0.590040	0.035855
C24	C	-0.518621	-0.549582	0.030958
C25	C	-0.519339	-0.659886	0.036344
C26	C	-0.554182	-0.694402	0.035859
C27	C	-0.518619	-0.765527	0.030967
C28	C	-0.623539	-0.555686	0.036345
C29	C	-0.489889	-0.822989	0.027012
C30	C	-0.795974	-0.516903	0.027013
C31	C	-0.489891	-0.516895	0.027000
C32	C	-0.453845	-0.895077	0.022052
C33	C	-0.873022	-0.475899	0.022054
C34	C	-0.453848	-0.475888	0.022036
C35	C	-0.554187	-0.212776	-0.445775
C36	C	-0.518624	-0.253233	-0.481336
C37	C	-0.623545	-0.142931	-0.480619
C38	C	-0.554188	-0.212775	-0.341416
C39	C	-0.518626	-0.253231	-0.265397
C40	C	-0.623546	-0.142930	-0.376419
C41	C	-0.658547	-0.108416	-0.445777
C42	C	-0.734566	-0.037291	-0.481340
C43	C	-0.519344	-0.247131	-0.376417
C44	C	-0.795982	0.020169	-0.510072
C45	C	-0.489893	-0.285920	-0.510065
C46	C	-0.489896	-0.285917	-0.203980
C47	C	-0.873032	0.092257	-0.546117
C48	C	-0.453848	-0.326925	-0.546108
C49	C	-0.453852	-0.326922	-0.126930
O50	O	0.100922	-0.508345	0.017151
O51	O	-0.100892	-0.390333	-0.017055
O52	O	0.017109	-0.508348	0.100956
O53	O	-0.017080	-0.390330	-0.100860
O54	O	0.017112	-0.412502	0.100963
O55	O	-0.100890	-0.294486	-0.017048
O56	O	0.100924	-0.412499	0.017158
Cu57	Cu	0.000018	-0.344741	0.000056
Cu58	Cu	0.000014	-0.458090	0.000048
O59	O	-0.017077	-0.294483	-0.100853
O60	O	-0.395342	0.083766	0.017156
O61	O	-0.311534	-0.083842	-0.017048
O62	O	-0.311538	-0.083852	0.100962
O63	O	-0.395338	0.083777	-0.100854
O64	O	-0.407391	-0.083849	0.100954
O65	O	-0.407387	-0.083839	-0.017056
O66	O	-0.491195	0.083770	0.017149
Cu67	Cu	-0.458043	-0.000034	0.000046
Cu68	Cu	-0.344686	-0.000038	0.000055
O69	O	-0.491191	0.083780	-0.100861
O70	O	-1.100901	0.281028	-0.592582
O71	O	-0.899087	0.113413	-0.508770
O72	O	-1.017091	0.113409	-0.508767
O73	O	-0.982897	0.281032	-0.592584
O74	O	-1.017088	0.113407	-0.604617
O75	O	-0.899085	0.113411	-0.604619
O76	O	-1.100898	0.281026	-0.688432
Cu77	Cu	-0.999991	0.197218	-0.655277
Cu78	Cu	-0.999994	0.197221	-0.541924
O79	O	-0.982895	0.281030	-0.688434
O80	O	-0.407389	-0.412483	-0.688416
O81	O	-0.491197	-0.294477	-0.604610
O82	O	-0.491195	-0.412486	-0.604605
O83	O	-0.407390	-0.294474	-0.688421
O84	O	-0.395343	-0.508338	-0.508754
O85	O	-0.395345	-0.390329	-0.508759
O86	O	-0.311537	-0.508334	-0.592565
Cu87	Cu	-0.344689	-0.458084	-0.541910
Cu88	Cu	-0.458045	-0.344728	-0.655265
O89	O	-0.311539	-0.390326	-0.592570
C90	C	-0.206294	-0.621360	0.310702
C91	C	-0.130275	-0.692485	0.346265
C92	C	-0.241296	-0.586846	0.345545
C93	C	-0.310654	-0.517001	0.206342
C94	C	-0.346216	-0.476544	0.130323
C95	C	-0.345497	-0.482645	0.241343
C96	C	-0.310653	-0.517001	0.310701
C97	C	-0.346216	-0.476544	0.346263
C98	C	-0.241296	-0.586846	0.241345
C99	C	0.024887	-0.517030	0.310724
C100	C	0.019993	-0.476577	0.346290
C101	C	0.025371	-0.586874	0.345565
C102	C	0.024889	-0.517022	0.206362
C103	C	0.019998	-0.476562	0.130342
C104	C	0.025374	-0.586867	0.241361
C105	C	0.024884	-0.621384	0.310718
C106	C	0.019987	-0.692509	0.346278
C107	C	0.025377	-0.482671	0.241366
C108	C	-0.310656	-0.285855	0.310709
C109	C	-0.346220	-0.326314	0.346266
C110	C	-0.241298	-0.320218	0.345555
C111	C	-0.310655	-0.181484	0.206357
C112	C	-0.346217	-0.110348	0.130340
C113	C	-0.241296	-0.216005	0.241362
C114	C	-0.206295	-0.285860	0.310717
C115	C	-0.130275	-0.326323	0.346282
C116	C	-0.345499	-0.216001	0.241354
C117	C	-0.035774	-0.108410	-0.445754
C118	C	-0.030877	-0.037285	-0.481314
C119	C	-0.036262	-0.142920	-0.480600
C120	C	-0.035780	-0.212771	-0.341397
C121	C	-0.030889	-0.253231	-0.265377
C122	C	-0.036268	-0.247124	-0.376401
C123	C	-0.035777	-0.212765	-0.445759
C124	C	-0.030883	-0.253218	-0.481324
C125	C	-0.036265	-0.142927	-0.376396
C126	C	-0.026928	-0.285901	-0.510056
C127	C	-0.026920	0.020175	-0.510042
C128	C	-0.026936	-0.285920	-0.203961
C129	C	-0.021967	-0.326903	-0.546103
C130	C	-0.021955	0.092262	-0.546083
C131	C	-0.021978	-0.326928	-0.126911
O132	O	-0.017120	-0.390358	0.491266
O133	O	0.017098	-0.508368	0.407461
O134	O	-0.100916	-0.390357	0.407446
O135	O	0.100893	-0.508369	0.491281
O136	O	-0.100904	-0.294507	0.311599
O137	O	0.017110	-0.412518	0.311614
O138	O	-0.017109	-0.294509	0.395420
Cu139	Cu	0.000001	-0.344761	0.344766
Cu140	Cu	-0.000012	-0.458115	0.458115
O141	O	0.100905	-0.412519	0.395435
C142	C	-0.658539	0.410016	-0.445751
C143	C	-0.734559	0.450479	-0.481316
C144	C	-0.623536	0.444375	-0.480590
C145	C	-0.554179	0.305641	-0.341392
C146	C	-0.518616	0.234505	-0.265374
C147	C	-0.519335	0.340158	-0.376388
C148	C	-0.554178	0.410013	-0.445743
C149	C	-0.518614	0.450471	-0.481300
C150	C	-0.623537	0.340162	-0.376396
C151	C	-0.489883	0.483159	-0.510025
C152	C	-0.795975	0.483170	-0.510049
C153	C	-0.489886	0.177036	-0.203959
C154	C	-0.453838	0.524167	-0.546063
C155	C	-0.873025	0.524182	-0.546095
C156	C	-0.453842	0.104937	-0.126912
H157	H	-0.213196	-0.187082	-0.026109
H158	H	-0.651638	0.500582	-0.537577
O159	O	-0.037090	-0.108621	-0.548551
C160	C	0.023394	-0.165613	-0.552377
H161	H	0.044201	-0.229939	-0.505522
H162	H	0.065801	-0.154419	-0.551133
C163	C	-0.021486	-0.077088	-0.679081
C164	C	0.004067	-0.156096	-0.621535
H165	H	-0.033405	-0.071216	-0.721742
H166	H	-0.062234	-0.038690	-0.676503
H167	H	0.013858	-0.067769	-0.678034
H168	H	-0.031280	-0.165410	-0.622578
H169	H	0.044809	-0.194496	-0.624115
O170	O	-0.656960	-0.108554	-0.548612
C171	C	-0.611157	-0.153993	-0.572011
H172	H	-0.569258	-0.218726	-0.524556
H173	H	-0.584533	-0.124116	-0.602449
C174	C	-0.705149	-0.077035	-0.678841
C175	C	-0.653692	-0.156544	-0.620557
H176	H	-0.731385	-0.078606	-0.708790
H177	H	-0.736007	-0.046419	-0.663079
H178	H	-0.682954	-0.052146	-0.704198
H179	H	-0.675887	-0.181427	-0.595197
H180	H	-0.622838	-0.187163	-0.636316
H181	H	-0.462356	-0.303332	-0.348318
O182	O	-0.037347	-0.314076	-0.342907
C183	C	-0.098458	-0.295851	-0.323347
H184	H	-0.140378	-0.227221	-0.358569
H185	H	-0.084883	-0.317454	-0.265932
C186	C	-0.075437	-0.423761	-0.288701
C187	C	-0.126926	-0.339469	-0.331965
H188	H	-0.092996	-0.450669	-0.294014
H189	H	-0.034263	-0.436042	-0.301877
H190	H	-0.064128	-0.441753	-0.240859
H191	H	-0.138227	-0.321478	-0.379807
H192	H	-0.168102	-0.327187	-0.318798
O193	O	-0.037239	-0.108344	-0.342983
C194	C	-0.037534	-0.039186	-0.388761
H195	H	-0.059189	-0.015360	-0.445783
H196	H	0.018610	-0.056504	-0.377094
C197	C	-0.057851	-0.001692	-0.307461
C198	C	-0.084453	0.027574	-0.377497
H199	H	-0.086789	0.039488	-0.300511
H200	H	-0.057649	-0.048288	-0.276618
H201	H	-0.011064	-0.016124	-0.297747
H202	H	-0.131235	0.041996	-0.387207
H203	H	-0.084663	0.074174	-0.408342
H204	H	-0.213198	-0.376369	-0.026116
H205	H	-0.651648	0.311288	-0.348296
O206	O	-0.413524	-0.181395	-0.026401
C207	C	-0.456414	-0.100716	-0.087506
H208	H	-0.429717	-0.094007	-0.129436
H209	H	-0.464427	-0.056887	-0.073923
C210	C	-0.561294	-0.089096	-0.064462
C211	C	-0.528507	-0.080858	-0.115963
H212	H	-0.605766	-0.076844	-0.082015
H213	H	-0.532399	-0.143450	-0.023293
H214	H	-0.567965	-0.052571	-0.053147
H215	H	-0.521829	-0.117389	-0.127270
H216	H	-0.557403	-0.026509	-0.157135
H217	H	-0.651642	-0.688773	0.037135
O218	O	-0.451341	-0.694275	0.037324
C219	C	-0.427962	-0.648795	0.037624
H220	H	-0.461166	-0.613424	0.059273
H221	H	-0.433606	-0.604318	-0.018520
C222	C	-0.309163	-0.750417	0.057957
C223	C	-0.349941	-0.706980	0.084553
H224	H	-0.261036	-0.786307	0.086901
H225	H	-0.324914	-0.781057	0.057752
H226	H	-0.313875	-0.713346	0.011171
H227	H	-0.345236	-0.744051	0.131334
H228	H	-0.334187	-0.676348	0.084766
H229	H	-0.651645	-0.499479	0.037123
H230	H	-0.402486	-0.187114	0.213252
H231	H	-0.651645	-0.114047	-0.348315
O232	O	-0.413444	-0.415517	0.207720
C233	C	-0.417283	-0.351178	0.146915
H234	H	-0.370457	-0.377198	0.129404
H235	H	-0.415998	-0.310062	0.159395
C236	C	-0.543982	-0.269333	0.108801
C237	C	-0.486472	-0.301291	0.087290
H238	H	-0.586662	-0.238557	0.072022
H239	H	-0.541396	-0.312677	0.149767
H240	H	-0.542901	-0.235075	0.119200
H241	H	-0.487548	-0.335556	0.076900
H242	H	-0.489060	-0.257950	0.046320
H243	H	-0.213192	-0.615736	0.402533
O244	O	-0.207675	-0.621270	0.207828
C245	C	-0.146882	-0.621555	0.204290
H246	H	-0.129369	-0.618275	0.247832
H247	H	-0.159374	-0.566656	0.150699
C248	C	-0.108764	-0.704486	0.160522
C249	C	-0.087251	-0.700464	0.214005
H250	H	-0.071982	-0.753158	0.166511
H251	H	-0.149723	-0.704291	0.162903
H252	H	-0.119175	-0.658732	0.115868
H253	H	-0.076850	-0.746211	0.258657
H254	H	-0.046289	-0.700668	0.211632
O255	O	0.026433	-0.621383	0.207853
C256	C	0.087535	-0.644709	0.188278
H257	H	0.129474	-0.653249	0.223503
H258	H	0.073955	-0.595307	0.130866
C259	C	0.064461	-0.714899	0.153603
C260	C	0.115973	-0.725395	0.196871
H261	H	0.082003	-0.764667	0.158900
H262	H	0.023294	-0.699181	0.166789
H263	H	0.053150	-0.673727	0.105764
H264	H	0.127278	-0.766558	0.244710
H265	H	0.157143	-0.741122	0.183694
H266	H	0.026144	-0.615754	0.402549
O267	O	0.026219	-0.415557	0.207880
C268	C	-0.034268	-0.351209	0.204344
H269	H	-0.055096	-0.377217	0.247858
H270	H	-0.076661	-0.310067	0.150737
C271	C	0.010643	-0.269420	0.160669
C272	C	-0.014935	-0.301363	0.214118
H273	H	0.022567	-0.238669	0.166695
H274	H	0.051393	-0.312770	0.163048
H275	H	-0.024688	-0.235140	0.116001
H276	H	0.020400	-0.335650	0.258783
H277	H	-0.055679	-0.258017	0.211746
O278	O	-0.207839	-0.181434	0.207863
C279	C	-0.245618	-0.100761	0.188300
H280	H	-0.279018	-0.094060	0.223527
H281	H	-0.281438	-0.056920	0.130887
C282	C	-0.152357	-0.089143	0.153635
C283	C	-0.193375	-0.080914	0.196905
H284	H	-0.120133	-0.076898	0.158939
H285	H	-0.126906	-0.143492	0.166812
H286	H	-0.182215	-0.052608	0.105794
H287	H	-0.163519	-0.117456	0.244745
H288	H	-0.218821	-0.026570	0.183736
H289	H	-0.213202	-0.376423	0.402543
H290	H	-0.462348	0.311266	-0.348281
