data_functionalizedCrystal
_audit_creation_method	'MofGen! by Chris Wilmer'
_symmetry_space_group_name_H-M	'P1'
_symmetry_Int_Tables_number	1
_symmetry_cell_setting	triclinic
loop_
_symmetry_equiv_pos_as_xyz
  x,y,z
_cell_length_a	15.944499
_cell_length_b	27.732048
_cell_length_c	15.021413
_cell_angle_alpha	89.999048
_cell_angle_beta	89.990095
_cell_angle_gamma	83.060132
loop_
_atom_site_label
_atom_site_type_symbol
_atom_site_fract_x
_atom_site_fract_y
_atom_site_fract_z
O1	O	1.113742	0.062215	-0.074095
O2	O	1.363742	0.312215	0.175905
O3	O	1.613742	0.562215	0.425905
O4	O	1.863742	0.812215	0.675905
O5	O	0.869086	0.069927	-0.074087
O6	O	1.119086	0.319927	0.175913
O7	O	1.369086	0.569927	0.425913
O8	O	1.619086	0.819927	0.675913
O9	O	0.999013	-0.004294	-0.074074
O10	O	1.249013	0.245706	0.175926
O11	O	1.499013	0.495706	0.425926
O12	O	1.749013	0.745706	0.675926
O13	O	0.983816	0.136436	-0.074108
O14	O	1.233816	0.386436	0.175892
O15	O	1.483816	0.636436	0.425892
O16	O	1.733816	0.886436	0.675892
O17	O	0.998992	-0.004283	0.073990
O18	O	1.248992	0.245717	0.323990
O19	O	1.498992	0.495717	0.573990
O20	O	1.748992	0.745717	0.823990
O21	O	0.869065	0.069938	0.073978
O22	O	1.119065	0.319938	0.323978
O23	O	1.369065	0.569938	0.573978
O24	O	1.619065	0.819938	0.823978
O25	O	1.113722	0.062226	0.073969
O26	O	1.363722	0.312226	0.323969
O27	O	1.613722	0.562226	0.573969
O28	O	1.863722	0.812226	0.823969
Zn29	Zn	0.991390	0.066083	0.097482
Zn30	Zn	1.241390	0.316083	0.347482
Zn31	Zn	1.491390	0.566083	0.597482
Zn32	Zn	1.741390	0.816083	0.847482
Zn33	Zn	0.991417	0.066069	-0.097599
Zn34	Zn	1.241417	0.316069	0.152401
Zn35	Zn	1.491417	0.566069	0.402401
Zn36	Zn	1.741417	0.816069	0.652401
O37	O	0.983795	0.136446	0.073957
O38	O	1.233795	0.386446	0.323957
O39	O	1.483795	0.636446	0.573957
O40	O	1.733795	0.886446	0.823957
C41	C	0.837785	0.069617	-0.000053
C42	C	1.087785	0.319617	0.249947
C43	C	1.337785	0.569617	0.499947
C44	C	1.587785	0.819617	0.749947
C45	C	0.744549	0.068670	-0.000049
C46	C	0.994549	0.318670	0.249951
C47	C	1.244549	0.568670	0.499951
C48	C	1.494549	0.818670	0.749951
C49	C	0.998683	-0.022297	-0.000040
C50	C	1.248683	0.227703	0.249960
C51	C	1.498683	0.477703	0.499960
C52	C	1.748683	0.727703	0.749960
C53	C	0.997723	-0.075956	-0.000032
C54	C	1.247723	0.174044	0.249968
C55	C	1.497723	0.424044	0.499968
C56	C	1.747723	0.674044	0.749968
C57	C	0.452449	0.111790	-0.000072
C58	C	0.702449	0.361790	0.249928
C59	C	0.952449	0.611790	0.499928
C60	C	1.202449	0.861790	0.749928
C61	C	0.513782	0.089370	-0.073072
C62	C	0.763782	0.339370	0.176928
C63	C	1.013782	0.589370	0.426928
C64	C	1.263782	0.839370	0.676928
C65	C	0.408957	0.065231	-0.000069
C66	C	0.658957	0.315231	0.249931
C67	C	0.908957	0.565231	0.499931
C68	C	1.158957	0.815231	0.749931
C69	C	0.513747	0.089368	0.072908
C70	C	0.763747	0.339368	0.322908
C71	C	1.013747	0.589368	0.572908
C72	C	1.263747	0.839368	0.822908
C73	C	0.573844	0.066923	-0.000058
C74	C	0.823844	0.316923	0.249942
C75	C	1.073844	0.566923	0.499942
C76	C	1.323844	0.816923	0.749942
C77	C	0.469062	0.042798	-0.073129
C78	C	0.719062	0.292798	0.176871
C79	C	0.969062	0.542798	0.426871
C80	C	1.219062	0.792798	0.676871
C81	C	0.469021	0.042802	0.072917
C82	C	0.719021	0.292802	0.322917
C83	C	0.969021	0.542802	0.572917
C84	C	1.219021	0.792802	0.822917
C85	C	0.530337	0.020348	-0.000101
C86	C	0.780337	0.270348	0.249899
C87	C	1.030337	0.520348	0.499899
C88	C	1.280337	0.770348	0.749899
C89	C	0.313970	0.064257	-0.000076
C90	C	0.563970	0.314257	0.249924
C91	C	0.813970	0.564257	0.499924
C92	C	1.063970	0.814257	0.749924
C93	C	0.668830	0.067893	-0.000057
C94	C	0.918830	0.317893	0.249943
C95	C	1.168830	0.567893	0.499943
C96	C	1.418830	0.817893	0.749943
C97	C	1.068453	-0.414472	-0.000080
C98	C	1.318453	-0.164472	0.249920
C99	C	1.568453	0.085528	0.499920
C100	C	1.818453	0.335528	0.749920
C101	C	1.064889	-0.616147	-0.000093
C102	C	1.314889	-0.366147	0.249907
C103	C	1.564889	-0.116147	0.499907
C104	C	1.814889	0.133853	0.749907
O105	O	1.129568	-0.647129	-0.000134
O106	O	1.379568	-0.397129	0.249866
O107	O	1.629568	-0.147129	0.499866
O108	O	1.879568	0.102871	0.749866
N109	N	0.987848	-0.635596	-0.000089
N110	N	1.237848	-0.385596	0.249911
N111	N	1.487848	-0.135596	0.499911
N112	N	1.737848	0.114404	0.749911
C113	C	0.911693	-0.604623	-0.000088
C114	C	1.161693	-0.354623	0.249912
C115	C	1.411693	-0.104623	0.499912
C116	C	1.661693	0.145377	0.749912
O117	O	0.846083	-0.625793	-0.000095
O118	O	1.096083	-0.375793	0.249905
O119	O	1.346083	-0.125793	0.499905
O120	O	1.596083	0.124207	0.749905
C121	C	0.915258	-0.402949	-0.000082
C122	C	1.165258	-0.152949	0.249918
C123	C	1.415258	0.097051	0.499918
C124	C	1.665258	0.347051	0.749918
C125	C	0.992304	-0.383503	-0.000077
C126	C	1.242304	-0.133503	0.249923
C127	C	1.492304	0.116497	0.499923
C128	C	1.742304	0.366497	0.749923
C129	C	1.145493	-0.395025	-0.000076
C130	C	1.395493	-0.145025	0.249924
C131	C	1.645493	0.104975	0.499924
C132	C	1.895493	0.354975	0.749924
C133	C	1.146384	-0.344609	-0.000068
C134	C	1.396384	-0.094609	0.249932
C135	C	1.646384	0.155391	0.499932
C136	C	1.896384	0.405391	0.749932
C137	C	1.070234	-0.313640	-0.000065
C138	C	1.320234	-0.063640	0.249935
C139	C	1.570234	0.186360	0.499935
C140	C	1.820234	0.436360	0.749935
C141	C	0.993194	-0.333087	-0.000069
C142	C	1.243194	-0.083087	0.249931
C143	C	1.493194	0.166913	0.499931
C144	C	1.743194	0.416913	0.749931
C145	C	0.839103	-0.371977	-0.000088
C146	C	1.089103	-0.121977	0.249912
C147	C	1.339103	0.128023	0.499912
C148	C	1.589103	0.378023	0.749912
C149	C	0.840001	-0.321556	-0.000089
C150	C	1.090001	-0.071556	0.249911
C151	C	1.340001	0.178444	0.499911
C152	C	1.590001	0.428444	0.749911
C153	C	0.917047	-0.302110	-0.000083
C154	C	1.167047	-0.052110	0.249917
C155	C	1.417047	0.197890	0.499917
C156	C	1.667047	0.447890	0.749917
C157	C	0.917934	-0.251702	-0.000058
C158	C	1.167934	-0.001702	0.249942
C159	C	1.417934	0.248298	0.499942
C160	C	1.667934	0.498298	0.749942
N161	N	0.994976	-0.232253	-0.000061
N162	N	1.244976	0.017747	0.249939
N163	N	1.494976	0.267747	0.499939
N164	N	1.744976	0.517747	0.749939
C165	C	1.071125	-0.263222	-0.000065
C166	C	1.321125	-0.013222	0.249935
C167	C	1.571125	0.236778	0.499935
C168	C	1.821125	0.486778	0.749935
C169	C	0.909826	-0.710505	-0.000090
C170	C	1.159826	-0.460505	0.249910
C171	C	1.409826	-0.210505	0.499910
C172	C	1.659826	0.039495	0.749910
C173	C	0.908935	-0.760923	-0.000090
C174	C	1.158935	-0.510923	0.249910
C175	C	1.408935	-0.260923	0.499910
C176	C	1.658935	-0.010923	0.749910
C177	C	1.062132	-0.772443	-0.000096
C178	C	1.312132	-0.522443	0.249904
C179	C	1.562132	-0.272443	0.499904
C180	C	1.812132	-0.022443	0.749904
C181	C	1.063023	-0.722024	-0.000089
C182	C	1.313023	-0.472024	0.249911
C183	C	1.563023	-0.222024	0.499911
C184	C	1.813023	0.027976	0.749911
C185	C	0.986868	-0.691056	-0.000093
C186	C	1.236868	-0.441056	0.249907
C187	C	1.486868	-0.191056	0.499907
C188	C	1.736868	0.058944	0.749907
C189	C	1.072989	-0.157345	-0.000047
C190	C	1.322989	0.092655	0.249953
C191	C	1.572989	0.342655	0.499953
C192	C	1.822989	0.592655	0.749953
C193	C	1.073872	-0.106925	-0.000036
C194	C	1.323872	0.143075	0.249964
C195	C	1.573872	0.393075	0.499964
C196	C	1.823872	0.643075	0.749964
C197	C	0.920676	-0.095409	-0.000034
C198	C	1.170676	0.154591	0.249966
C199	C	1.420676	0.404591	0.499966
C200	C	1.670676	0.654591	0.749966
C201	C	0.919792	-0.145825	-0.000041
C202	C	1.169792	0.104175	0.249959
C203	C	1.419792	0.354175	0.499959
C204	C	1.669792	0.604175	0.749959
C205	C	0.995955	-0.176792	-0.000051
C206	C	1.245955	0.073208	0.249949
C207	C	1.495955	0.323208	0.499949
C208	C	1.745955	0.573208	0.749949
O209	O	0.853291	-0.220691	-0.000026
O210	O	1.103291	0.029309	0.249974
O211	O	1.353291	0.279309	0.499974
O212	O	1.603291	0.529309	0.749974
O213	O	1.136726	-0.242043	-0.000078
O214	O	1.386726	0.007957	0.249922
O215	O	1.636726	0.257957	0.499922
O216	O	1.886726	0.507957	0.749922
C217	C	1.067563	-0.464888	-0.000088
C218	C	1.317563	-0.214888	0.249912
C219	C	1.567563	0.035112	0.499912
C220	C	1.817563	0.285112	0.749912
C221	C	0.990523	-0.484334	-0.000093
C222	C	1.240523	-0.234334	0.249907
C223	C	1.490523	0.015666	0.499907
C224	C	1.740523	0.265666	0.749907
C225	C	0.914374	-0.453365	-0.000089
C226	C	1.164374	-0.203365	0.249911
C227	C	1.414374	0.046635	0.499911
C228	C	1.664374	0.296635	0.749911
C229	C	0.989632	-0.534752	-0.000093
C230	C	1.239632	-0.284752	0.249907
C231	C	1.489632	-0.034752	0.499907
C232	C	1.739632	0.215248	0.749907
C233	C	1.065782	-0.565721	-0.000096
C234	C	1.315782	-0.315721	0.249904
C235	C	1.565782	-0.065721	0.499904
C236	C	1.815782	0.184279	0.749904
C237	C	1.142823	-0.546272	-0.000100
C238	C	1.392823	-0.296272	0.249900
C239	C	1.642823	-0.046272	0.499900
C240	C	1.892823	0.203728	0.749900
C241	C	1.143713	-0.495857	-0.000092
C242	C	1.393713	-0.245857	0.249908
C243	C	1.643713	0.004143	0.499908
C244	C	1.893713	0.254143	0.749908
C245	C	0.837332	-0.472814	-0.000086
C246	C	1.087332	-0.222814	0.249914
C247	C	1.337332	0.027186	0.499914
C248	C	1.587332	0.277186	0.749914
C249	C	0.836449	-0.523231	-0.000093
C250	C	1.086449	-0.273231	0.249907
C251	C	1.336449	-0.023231	0.499907
C252	C	1.586449	0.226769	0.749907
C253	C	0.912598	-0.554200	-0.000096
C254	C	1.162598	-0.304200	0.249904
C255	C	1.412598	-0.054200	0.499904
C256	C	1.662598	0.195800	0.749904
C257	C	1.145023	0.062536	-0.000066
C258	C	1.395023	0.312536	0.249934
C259	C	1.645023	0.562536	0.499934
C260	C	1.895023	0.812536	0.749934
C261	C	1.238258	0.063483	-0.000076
C262	C	1.488258	0.313483	0.249924
C263	C	1.738258	0.563483	0.499924
C264	C	1.988258	0.813483	0.749924
N265	N	0.991378	0.066093	0.230619
N266	N	1.241378	0.316093	0.480619
N267	N	1.491378	0.566093	0.730619
N268	N	1.741378	0.816093	0.980619
C269	C	0.984124	0.154449	-0.000080
C270	C	1.234124	0.404449	0.249920
C271	C	1.484124	0.654449	0.499920
C272	C	1.734124	0.904449	0.749920
C273	C	0.985085	0.208108	-0.000093
C274	C	1.235085	0.458108	0.249907
C275	C	1.485085	0.708108	0.499907
C276	C	1.735085	0.958108	0.749907
N277	N	0.991436	0.066056	-0.230737
N278	N	1.241436	0.316056	0.019263
N279	N	1.491436	0.566056	0.269263
N280	N	1.741436	0.816056	0.519263
C281	C	0.931291	0.100396	0.470297
C282	C	1.181291	0.350396	0.720297
C283	C	1.431291	0.600396	0.970297
C284	C	1.681291	0.850396	1.220297
C285	C	1.007070	0.109772	0.529626
C286	C	1.257070	0.359772	0.779626
C287	C	1.507070	0.609772	1.029626
C288	C	1.757070	0.859772	1.279626
C289	C	0.991399	0.066080	0.412226
C290	C	1.241399	0.316080	0.662226
C291	C	1.491399	0.566080	0.912226
C292	C	1.741399	0.816080	1.162226
C293	C	0.915640	0.056715	0.529639
C294	C	1.165640	0.306715	0.779639
C295	C	1.415640	0.556715	1.029639
C296	C	1.665640	0.806715	1.279639
C297	C	0.991413	0.066070	0.587650
C298	C	1.241413	0.316070	0.837650
C299	C	1.491413	0.566070	1.087650
C300	C	1.741413	0.816070	1.337650
C301	C	1.067217	0.075478	0.470249
C302	C	1.317217	0.325478	0.720249
C303	C	1.567217	0.575478	0.970249
C304	C	1.817217	0.825478	1.220249
C305	C	0.975737	0.022403	0.470257
C306	C	1.225737	0.272403	0.720257
C307	C	1.475737	0.522403	0.970257
C308	C	1.725737	0.772403	1.220257
C309	C	1.051572	0.031760	0.529559
C310	C	1.301572	0.281760	0.779559
C311	C	1.551572	0.531760	1.029559
C312	C	1.801572	0.781760	1.279559
C313	C	0.991390	0.066088	0.311169
C314	C	1.241390	0.316088	0.561169
C315	C	1.491390	0.566088	0.811169
C316	C	1.741390	0.816088	1.061169
C317	C	0.991431	0.066062	0.688706
C318	C	1.241431	0.316062	0.938706
C319	C	1.491431	0.566062	1.188706
C320	C	1.741431	0.816062	1.438706
H321	H	0.418614	0.150430	-0.000152
H322	H	0.668614	0.400430	0.249848
H323	H	0.918614	0.650430	0.499848
H324	H	1.168614	0.900430	0.749848
F325	F	0.837791	-0.166522	-0.000031
F326	F	1.087791	0.083478	0.249969
F327	F	1.337791	0.333478	0.499969
F328	F	1.587791	0.583478	0.749969
F329	F	1.154051	-0.190296	-0.000058
F330	F	1.404051	0.059704	0.249942
F331	F	1.654051	0.309704	0.499942
F332	F	1.904051	0.559704	0.749942
F333	F	0.839636	-0.062441	-0.000030
F334	F	1.089636	0.187559	0.249970
F335	F	1.339636	0.437559	0.499970
F336	F	1.589636	0.687559	0.749970
F337	F	1.143177	-0.805411	-0.000101
F338	F	1.393177	-0.555411	0.249899
F339	F	1.643177	-0.305411	0.499899
F340	F	1.893177	-0.055411	0.749899
F341	F	0.539718	0.115103	-0.153753
F342	F	0.789718	0.365103	0.096247
F343	F	1.039718	0.615103	0.346247
F344	F	1.289718	0.865103	0.596247
H345	H	0.846196	-0.776751	-0.000079
H346	H	1.096196	-0.526751	0.249921
H347	H	1.346196	-0.276751	0.499921
H348	H	1.596196	-0.026751	0.749921
H349	H	1.206452	-0.480029	-0.000088
H350	H	1.456452	-0.230029	0.249912
H351	H	1.706452	0.019971	0.499912
H352	H	1.956452	0.269971	0.749912
H353	H	1.131304	0.083439	0.444271
H354	H	1.381304	0.333439	0.694271
H355	H	1.631304	0.583439	0.944271
H356	H	1.881304	0.833439	1.194271
F357	F	0.828766	-0.677551	-0.000094
F358	F	1.078766	-0.427551	0.249906
F359	F	1.328766	-0.177551	0.499906
F360	F	1.578766	0.072449	0.749906
F361	F	0.758944	-0.288599	-0.000095
F362	F	1.008944	-0.038599	0.249905
F363	F	1.258944	0.211401	0.499905
F364	F	1.508944	0.461401	0.749905
F365	F	0.443300	0.017071	-0.153882
F366	F	0.693300	0.267071	0.096118
F367	F	0.943300	0.517071	0.346118
F368	F	1.193300	0.767071	0.596118
F369	F	1.155879	-0.086232	-0.000030
F370	F	1.405879	0.163768	0.249970
F371	F	1.655879	0.413768	0.499970
F372	F	1.905879	0.663768	0.749970
H373	H	0.564020	-0.018326	-0.000130
H374	H	0.814020	0.231674	0.249870
H375	H	1.064020	0.481674	0.499870
H376	H	1.314020	0.731674	0.749870
H377	H	0.449153	0.023130	0.134643
H378	H	0.699153	0.273130	0.384643
H379	H	0.949153	0.523130	0.634643
H380	H	1.199153	0.773130	0.884643
H381	H	1.125760	-0.706195	-0.000086
H382	H	1.375760	-0.456195	0.249914
H383	H	1.625760	-0.206195	0.499914
H384	H	1.875760	0.043805	0.749914
F385	F	1.118091	-0.006179	0.563361
F386	F	1.368091	0.243821	0.813361
F387	F	1.618091	0.493821	1.063361
F388	F	1.868091	0.743821	1.313361
F389	F	1.223867	-0.579241	-0.000099
F390	F	1.473867	-0.329241	0.249901
F391	F	1.723867	-0.079241	0.499901
F392	F	1.973867	0.170759	0.749901
F393	F	0.864916	0.138356	0.436282
F394	F	1.114916	0.388356	0.686282
F395	F	1.364916	0.638356	0.936282
F396	F	1.614916	0.888356	1.186282
F397	F	0.539642	0.115123	0.153569
F398	F	0.789642	0.365123	0.403569
F399	F	1.039642	0.615123	0.653569
F400	F	1.289642	0.865123	0.903569
F401	F	0.958375	-0.025856	0.436142
F402	F	1.208375	0.224144	0.686142
F403	F	1.458375	0.474144	0.936142
F404	F	1.708375	0.724144	1.186142
F405	F	0.831892	0.046367	0.563739
F406	F	1.081892	0.296367	0.813739
F407	F	1.331892	0.546367	1.063739
F408	F	1.581892	0.796367	1.313739
F409	F	1.024403	0.158045	0.563712
F410	F	1.274403	0.408045	0.813712
F411	F	1.524403	0.658045	1.063712
F412	F	1.774403	0.908045	1.313712
F413	F	1.228387	-0.323920	-0.000082
F414	F	1.478387	-0.073920	0.249918
F415	F	1.728387	0.176080	0.499918
F416	F	1.978387	0.426080	0.749918
F417	F	0.756279	-0.439861	-0.000085
F418	F	1.006279	-0.189861	0.249915
F419	F	1.256279	0.060139	0.499915
F420	F	1.506279	0.310139	0.749915
H421	H	1.207507	-0.420236	-0.000082
H422	H	1.457507	-0.170236	0.249918
H423	H	1.707507	0.079764	0.499918
H424	H	1.957507	0.329764	0.749918
F425	F	0.757098	-0.392662	-0.000098
F426	F	1.007098	-0.142662	0.249902
F427	F	1.257098	0.107338	0.499902
F428	F	1.507098	0.357338	0.749902
H429	H	0.773704	-0.539058	-0.000089
H430	H	1.023704	-0.289058	0.249911
H431	H	1.273704	-0.039058	0.499911
H432	H	1.523704	0.210942	0.749911
