data_functionalizedCrystal
_audit_creation_method	'MofGen! by Chris Wilmer'
_symmetry_space_group_name_H-M	'P1'
_symmetry_Int_Tables_number	1
_symmetry_cell_setting	triclinic
loop_
_symmetry_equiv_pos_as_xyz
  x,y,z
_cell_length_a	18.215407
_cell_length_b	16.959454
_cell_length_c	18.215399
_cell_angle_alpha	90.026105
_cell_angle_beta	90.016824
_cell_angle_gamma	90.020523
loop_
_atom_site_label
_atom_site_type_symbol
_atom_site_fract_x
_atom_site_fract_y
_atom_site_fract_z
Zn1	Zn	1.125075	-0.314661	0.416138
Zn2	Zn	1.125000	-0.446852	0.293080
Zn3	Zn	1.002014	-0.314693	0.293085
Zn4	Zn	1.001983	-0.446803	0.416105
O5	O	1.063518	-0.380752	0.354602
O6	O	1.228049	-0.332204	0.399825
O7	O	1.108667	-0.429355	0.190097
O8	O	1.018382	-0.204078	0.309424
O9	O	1.227994	-0.429325	0.309416
O10	O	1.108794	-0.204055	0.399830
O11	O	1.018309	-0.332258	0.190100
O12	O	0.899025	-0.332210	0.309392
O13	O	1.018330	-0.429240	0.519094
O14	O	0.899003	-0.429271	0.399775
O15	O	1.108765	-0.332156	0.519118
O16	O	1.108638	-0.557457	0.309385
O17	O	1.018258	-0.557420	0.399770
C18	C	0.872312	-0.380739	0.354581
C19	C	0.790513	-0.380752	0.354589
C20	C	0.602327	-0.431371	0.401593
C21	C	0.525468	-0.431374	0.401602
C22	C	0.525461	-0.330148	0.307628
C23	C	0.602319	-0.330142	0.307623
C24	C	0.640749	-0.380758	0.354604
C25	C	0.487033	-0.380766	0.354618
C26	C	0.403700	-0.380769	0.354628
C27	C	0.724088	-0.380755	0.354596
C28	C	1.063456	-0.586119	0.354590
C29	C	1.063497	-0.673975	0.354609
C30	C	1.016526	-1.045462	0.401661
C31	C	1.110715	-1.045440	0.307618
C32	C	1.110690	-0.962894	0.307611
C33	C	1.063580	-0.921628	0.354629
C34	C	1.016497	-0.962908	0.401654
C35	C	1.157767	-0.921608	0.260582
C36	C	1.157743	-0.839057	0.260573
C37	C	1.110637	-0.797789	0.307595
C38	C	1.063552	-0.839075	0.354622
C39	C	1.016442	-0.797809	0.401640
C40	C	0.969361	-0.839093	0.448672
C41	C	0.969391	-0.921641	0.448676
C42	C	1.110606	-0.715241	0.307591
C43	C	1.016414	-0.715255	0.401634
C44	C	1.255471	-0.380767	0.354624
C45	C	1.337270	-0.380773	0.354633
C46	C	1.063553	-0.380689	0.546555
C47	C	1.063568	-0.380662	0.628354
C48	C	1.063600	-0.174584	0.354631
C49	C	1.063635	-0.086728	0.354643
C50	C	1.063526	-0.380758	0.163396
C51	C	1.063653	-0.380562	0.081597
C52	C	1.016558	-0.330070	0.816551
C53	C	1.016571	-0.330054	0.893409
C54	C	1.110665	-0.431161	0.893395
C55	C	1.110648	-0.431180	0.816538
C56	C	1.063596	-0.380630	0.778118
C57	C	1.063625	-0.380595	0.931834
C58	C	1.063640	-0.380578	1.015168
C59	C	1.063580	-0.380648	0.694779
H60	H	0.633615	-0.472584	0.439850
C61	C	0.501819	-0.196257	0.271991
C62	C	0.483217	-0.274516	0.255983
H63	H	0.475737	-0.161913	0.240108
H64	H	0.553086	-0.189016	0.265263
H65	H	0.489238	-0.184764	0.321458
H66	H	0.495804	-0.286011	0.206518
H67	H	0.431939	-0.281761	0.262705
H68	H	1.148936	-0.681632	0.269295
C69	C	1.250859	-0.913300	0.167616
C70	C	1.209545	-0.966966	0.208900
H71	H	1.282823	-0.941307	0.135706
H72	H	1.278979	-0.881062	0.199700
H73	H	1.218793	-0.881145	0.139434
H74	H	1.241612	-0.999117	0.237086
H75	H	1.181424	-0.999218	0.176812
H76	H	0.931059	-0.955262	0.486966
C77	C	1.209614	-0.442189	0.730101
C78	C	1.162354	-0.486760	0.774284
H79	H	1.241528	-0.476504	0.704012
H80	H	1.237786	-0.407754	0.760092
H81	H	1.181578	-0.412093	0.696225
H82	H	1.190391	-0.516852	0.808164
H83	H	1.134180	-0.521208	0.744290
H84	H	0.494187	-0.472586	0.439866
C85	C	0.625959	-0.291477	0.183060
C86	C	0.644561	-0.274507	0.255967
H87	H	0.652041	-0.257133	0.151174
H88	H	0.574692	-0.284232	0.176340
H89	H	0.638539	-0.344573	0.172217
H90	H	0.631975	-0.221412	0.266812
H91	H	0.695838	-0.281745	0.262690
C92	C	0.923315	-0.723569	0.494597
C93	C	0.964629	-0.669899	0.453319
H94	H	0.891343	-0.695567	0.526502
H95	H	0.955375	-0.755721	0.522777
H96	H	0.895197	-0.755811	0.462504
H97	H	0.992752	-0.637661	0.485413
H98	H	0.932565	-0.637734	0.425137
C99	C	1.203669	-0.531104	0.885661
C100	C	1.162388	-0.486718	0.935629
H101	H	1.235599	-0.565405	0.911735
H102	H	1.231822	-0.496674	0.855694
H103	H	1.171579	-0.561345	0.855675
H104	H	1.194478	-0.456473	0.965611
H105	H	1.134233	-0.521153	0.965609
C106	C	0.974742	-1.172007	0.443436
C107	C	0.964772	-1.090836	0.453354
H108	H	0.942787	-1.200018	0.475346
H109	H	1.024180	-1.185485	0.454257
H110	H	0.964007	-1.185568	0.393979
H111	H	0.975513	-1.077274	0.502810
H112	H	0.915323	-1.077352	0.442538
C113	C	1.152531	-1.171971	0.265827
C114	C	1.162464	-1.090797	0.255906
H115	H	1.184474	-1.199973	0.233894
H116	H	1.103090	-1.185518	0.255039
H117	H	1.163304	-1.185473	0.315277
H118	H	1.151685	-1.077294	0.206457
H119	H	1.211916	-1.077244	0.266689
H120	H	0.931001	-0.805485	0.486951
H121	H	1.196079	-0.805449	0.222279
C122	C	0.891975	-0.291534	0.917055
C123	C	0.964865	-0.274473	0.935651
H124	H	0.860053	-0.257216	0.943129
H125	H	0.881191	-0.344632	0.929644
H126	H	0.885247	-0.284312	0.865781
H127	H	0.971595	-0.281701	0.986925
H128	H	0.975653	-0.221363	0.923067
C129	C	0.917555	-0.319110	0.730110
C130	C	0.964834	-0.274514	0.774315
H131	H	0.885624	-0.284811	0.704034
H132	H	0.889402	-0.353534	0.760084
H133	H	0.945576	-0.349220	0.696222
H134	H	0.936813	-0.244409	0.808206
H135	H	0.992990	-0.240077	0.744338
