data_functionalizedCrystal
_audit_creation_method	'MofGen! by Chris Wilmer'
_symmetry_space_group_name_H-M	'P1'
_symmetry_Int_Tables_number	1
_symmetry_cell_setting	triclinic
loop_
_symmetry_equiv_pos_as_xyz
  x,y,z
_cell_length_a	12.811438
_cell_length_b	11.892095
_cell_length_c	16.109301
_cell_angle_alpha	93.886619
_cell_angle_beta	96.244781
_cell_angle_gamma	88.501043
loop_
_atom_site_label
_atom_site_type_symbol
_atom_site_fract_x
_atom_site_fract_y
_atom_site_fract_z
O1	O	1.389162	-0.048423	-0.114724
O2	O	1.722496	0.284910	0.218609
O3	O	2.055829	0.618243	0.551943
O4	O	1.085799	-0.017317	-0.125146
O5	O	1.419132	0.316017	0.208187
O6	O	1.752466	0.649350	0.541520
O7	O	1.245814	-0.033736	0.001016
O8	O	1.579147	0.299597	0.334349
O9	O	1.912480	0.632931	0.667683
O10	O	1.229148	-0.032004	-0.240887
O11	O	1.562481	0.301329	0.092447
O12	O	1.895814	0.634663	0.425780
O13	O	1.232472	-0.220374	-0.009487
O14	O	1.565805	0.112959	0.323847
O15	O	1.899138	0.446292	0.657180
O16	O	1.072457	-0.203955	-0.135649
O17	O	1.405791	0.129378	0.197684
O18	O	1.739124	0.462711	0.531017
O19	O	1.375821	-0.235062	-0.125227
O20	O	1.709154	0.098272	0.208106
O21	O	2.042487	0.431605	0.541440
Zn22	Zn	1.222021	-0.249141	-0.132106
Zn23	Zn	1.555354	0.084192	0.201228
Zn24	Zn	1.888687	0.417525	0.534561
Zn25	Zn	1.239599	-0.003237	-0.118268
Zn26	Zn	1.572932	0.330096	0.215066
Zn27	Zn	1.906266	0.663430	0.548399
O28	O	1.215806	-0.218643	-0.251389
O29	O	1.549139	0.114691	0.081944
O30	O	1.882473	0.448024	0.415277
C31	C	1.040309	-0.106656	-0.129491
C32	C	1.373642	0.226678	0.203842
C33	C	1.706975	0.560011	0.537176
C34	C	0.924640	-0.094796	-0.126779
C35	C	1.257973	0.238538	0.206554
C36	C	1.591307	0.571871	0.539888
C37	C	0.768879	0.023645	-0.117232
C38	C	1.102212	0.356978	0.216102
C39	C	1.435545	0.690311	0.549435
C40	C	0.877561	0.012510	-0.119779
C41	C	1.210894	0.345844	0.213554
C42	C	1.544227	0.679177	0.546888
C43	C	0.863030	-0.190975	-0.131229
C44	C	1.196363	0.142359	0.202104
C45	C	1.529696	0.475692	0.535437
C46	C	0.754347	-0.179840	-0.128682
C47	C	1.087681	0.153493	0.204651
C48	C	1.421014	0.486826	0.537984
C49	C	0.707276	-0.072527	-0.121685
C50	C	1.040609	0.260806	0.211649
C51	C	1.373943	0.594139	0.544982
C52	C	0.598591	-0.061394	-0.119143
C53	C	0.931924	0.271939	0.214190
C54	C	1.265257	0.605273	0.547523
C55	C	0.584063	-0.264878	-0.130588
C56	C	0.917396	0.068455	0.202745
C57	C	1.250730	0.401788	0.536079
C58	C	0.692745	-0.276012	-0.133135
C59	C	1.026078	0.057321	0.200198
C60	C	1.359412	0.390654	0.533532
N61	N	1.210032	-0.416965	-0.141549
N62	N	1.543365	-0.083632	0.191784
N63	N	1.876698	0.249701	0.525118
C64	C	1.335022	-0.666438	-0.043057
C65	C	1.668355	-0.333105	0.290276
C66	C	2.001689	0.000228	0.623609
C67	C	1.326649	-0.783921	-0.049664
C68	C	1.659983	-0.450588	0.283669
C69	C	1.993316	-0.117255	0.617002
C70	C	1.184909	-0.769415	-0.161366
C71	C	1.518242	-0.436082	0.171967
C72	C	1.851576	-0.102749	0.505301
C73	C	1.193282	-0.651932	-0.154759
C74	C	1.526615	-0.318599	0.178575
C75	C	1.859948	0.014734	0.511908
C76	C	1.268342	-0.600449	-0.095603
C77	C	1.601675	-0.267115	0.237730
C78	C	1.935008	0.066218	0.571063
C79	C	1.276719	-0.482964	-0.089001
C80	C	1.610052	-0.149631	0.244332
C81	C	1.943385	0.183703	0.577666
C82	C	1.134974	-0.468460	-0.200698
C83	C	1.468308	-0.135127	0.132636
C84	C	1.801641	0.198207	0.465969
C85	C	1.126602	-0.585943	-0.207305
C86	C	1.459935	-0.252609	0.126029
C87	C	1.793268	0.080724	0.459362
C88	C	1.421311	-0.145720	-0.120882
C89	C	1.754644	0.187613	0.212451
C90	C	2.087978	0.520946	0.545784
C91	C	1.536980	-0.157573	-0.123594
C92	C	1.870314	0.175760	0.209739
C93	C	2.203647	0.509094	0.543073
C94	C	1.238468	-0.126987	0.026746
C95	C	1.571801	0.206347	0.360079
C96	C	1.905134	0.539680	0.693413
C97	C	1.236443	-0.126781	0.119060
C98	C	1.569777	0.206553	0.452394
C99	C	1.903110	0.539886	0.785727
N100	N	1.251596	0.164586	-0.108818
N101	N	1.584930	0.497919	0.224516
N102	N	1.918263	0.831253	0.557849
C103	C	1.223152	-0.125390	-0.277119
C104	C	1.556486	0.207944	0.056214
C105	C	1.889819	0.541277	0.389548
C106	C	1.225177	-0.125588	-0.369433
C107	C	1.558510	0.207745	-0.036100
C108	C	1.891844	0.541079	0.297234
C109	C	1.326688	-0.136016	0.340478
C110	C	1.660021	0.197317	0.673811
C111	C	1.993355	0.530650	1.007145
C112	C	1.324779	-0.135811	0.427217
C113	C	1.658112	0.197522	0.760550
C114	C	1.991445	0.530856	1.093884
C115	C	1.134925	-0.116348	0.409143
C116	C	1.468259	0.216985	0.742476
C117	C	1.801592	0.550318	1.075809
C118	C	1.136836	-0.116546	0.322406
C119	C	1.470170	0.216788	0.655739
C120	C	1.803503	0.550121	0.989073
C121	C	1.232720	-0.126385	0.288076
C122	C	1.566054	0.206948	0.621409
C123	C	1.899387	0.540281	0.954742
C124	C	1.228900	-0.125983	0.461552
C125	C	1.562233	0.207350	0.794885
C126	C	1.895567	0.540683	1.128218
C127	C	1.226829	-0.125761	0.555598
C128	C	1.560162	0.207573	0.888931
C129	C	1.893496	0.540906	1.222265
C130	C	1.234792	-0.126606	0.194024
C131	C	1.568125	0.206728	0.527357
C132	C	1.901459	0.540061	0.860690
H133	H	0.927714	0.090824	-0.116153
H134	H	1.261047	0.424157	0.217180
H135	H	1.594381	0.757490	0.550514
F136	F	0.913145	-0.305175	-0.138675
F137	F	1.246478	0.028158	0.194659
F138	F	1.579812	0.361491	0.527992
F139	F	0.742853	-0.390216	-0.140583
F140	F	1.076187	-0.056883	0.192751
F141	F	1.409520	0.276450	0.526084
H142	H	1.401297	-0.143651	0.469880
H143	H	1.734630	0.189682	0.803213
H144	H	2.067964	0.523016	1.136547
F145	F	0.718777	0.137853	-0.109795
F146	F	1.052110	0.471187	0.223538
F147	F	1.385444	0.804520	0.556871
H148	H	0.533893	-0.343189	-0.134218
H149	H	0.867227	-0.009855	0.199116
H150	H	1.200560	0.323478	0.532449
H151	H	1.056860	-0.108339	0.437105
H152	H	1.390193	0.224994	0.770439
H153	H	1.723526	0.558327	1.103772
H154	H	0.560267	0.025986	-0.113449
H155	H	0.893600	0.359319	0.219884
H156	H	1.226933	0.692653	0.553218
F157	F	1.356606	-0.428174	-0.026046
F158	F	1.689939	-0.094840	0.307288
F159	F	2.023273	0.238493	0.640621
H160	H	1.396146	-0.624520	0.005104
H161	H	1.729479	-0.291187	0.338437
H162	H	2.062812	0.042146	0.671770
F163	F	1.397618	-0.854149	0.006264
F164	F	1.730951	-0.520816	0.339597
F165	F	2.064284	-0.187482	0.672931
H166	H	1.080682	-0.414717	-0.243487
H167	H	1.414015	-0.081384	0.089847
H168	H	1.747348	0.251949	0.423180
F169	F	1.105020	-0.824220	-0.224312
F170	F	1.438354	-0.490887	0.109021
F171	F	1.771687	-0.157554	0.442355
F172	F	1.046718	-0.640745	-0.270257
F173	F	1.380052	-0.307412	0.063076
F174	F	1.713385	0.025921	0.396410
F175	F	1.036818	-0.106286	0.266632
F176	F	1.370152	0.227047	0.599966
F177	F	1.703485	0.560380	0.933299
H178	H	1.404763	-0.144026	0.312529
H179	H	1.738096	0.189307	0.645863
H180	H	2.071430	0.522641	0.979196
