data_functionalizedCrystal
_audit_creation_method	'MofGen! by Chris Wilmer'
_symmetry_space_group_name_H-M	'P1'
_symmetry_Int_Tables_number	1
_symmetry_cell_setting	triclinic
loop_
_symmetry_equiv_pos_as_xyz
  x,y,z
_cell_length_a	21.295418
_cell_length_b	13.897448
_cell_length_c	13.897441
_cell_angle_alpha	90.030599
_cell_angle_beta	90.041083
_cell_angle_gamma	90.033507
loop_
_atom_site_label
_atom_site_type_symbol
_atom_site_fract_x
_atom_site_fract_y
_atom_site_fract_z
Zn1	Zn	0.962395	-0.383577	0.545905
Zn2	Zn	1.295729	-0.050243	0.879238
Zn3	Zn	1.629062	0.283090	1.212572
Zn4	Zn	0.962326	-0.544899	0.384606
Zn5	Zn	1.295660	-0.211565	0.717940
Zn6	Zn	1.628993	0.121768	1.051273
Zn7	Zn	0.857123	-0.383664	0.384566
Zn8	Zn	1.190457	-0.050330	0.717900
Zn9	Zn	1.523790	0.283003	1.051233
Zn10	Zn	0.857111	-0.544876	0.545802
Zn11	Zn	1.190445	-0.211543	0.879135
Zn12	Zn	1.523778	0.121791	1.212468
O13	O	0.909739	-0.464254	0.465220
O14	O	1.243072	-0.130920	0.798553
O15	O	1.576406	0.202413	1.131887
O16	O	1.050476	-0.404950	0.524569
O17	O	1.383809	-0.071616	0.857902
O18	O	1.717142	0.261717	1.191235
O19	O	0.948347	-0.523556	0.249619
O20	O	1.281680	-0.190223	0.582953
O21	O	1.615014	0.143111	0.916286
O22	O	0.871122	-0.248671	0.405995
O23	O	1.204455	0.084663	0.739328
O24	O	1.537789	0.417996	1.072661
O25	O	1.050425	-0.523472	0.406063
O26	O	1.383758	-0.190139	0.739397
O27	O	1.717091	0.143195	1.072730
O28	O	0.948465	-0.248607	0.524530
O29	O	1.281798	0.084727	0.857863
O30	O	1.615131	0.418060	1.191196
O31	O	0.871055	-0.405098	0.249590
O32	O	1.204388	-0.071764	0.582923
O33	O	1.537721	0.261569	0.916256
O34	O	0.769032	-0.405076	0.405894
O35	O	1.102366	-0.071742	0.739228
O36	O	1.435699	0.261591	1.072561
O37	O	0.871102	-0.523434	0.680797
O38	O	1.204435	-0.190100	1.014131
O39	O	1.537768	0.143233	1.347464
O40	O	0.769024	-0.523518	0.524353
O41	O	1.102357	-0.190185	0.857687
O42	O	1.435690	0.143149	1.191020
O43	O	0.948453	-0.404928	0.680873
O44	O	1.281787	-0.071594	1.014206
O45	O	1.615120	0.261739	1.347540
O46	O	0.948335	-0.679877	0.405963
O47	O	1.281669	-0.346544	0.739296
O48	O	1.615002	-0.013211	1.072630
O49	O	0.871034	-0.679861	0.524393
O50	O	1.204368	-0.346527	0.857726
O51	O	1.537701	-0.013194	1.191059
C52	C	0.746187	-0.464305	0.465109
C53	C	1.079521	-0.130971	0.798442
C54	C	1.412854	0.202362	1.131776
C55	C	0.676219	-0.464349	0.465084
C56	C	1.009553	-0.131016	0.798418
C57	C	1.342886	0.202317	1.131751
C58	C	0.909693	-0.714868	0.465192
C59	C	1.243026	-0.381535	0.798525
C60	C	1.576360	-0.048202	1.131859
C61	C	0.909731	-0.822082	0.465212
C62	C	1.243064	-0.488749	0.798546
C63	C	1.576398	-0.155415	1.131879
C64	C	0.909797	-1.018377	0.465273
C65	C	1.243131	-0.685044	0.798606
C66	C	1.576464	-0.351710	1.131940
C67	C	0.909759	-0.909145	0.465242
C68	C	1.243092	-0.575811	0.798575
C69	C	1.576425	-0.242478	1.131909
C70	C	0.643365	-0.526104	0.526674
C71	C	0.976698	-0.192771	0.860007
C72	C	1.310031	0.140563	1.193340
C73	C	0.577622	-0.526080	0.526717
C74	C	0.910955	-0.192747	0.860050
C75	C	1.244289	0.140586	1.193384
C76	C	0.544737	-0.464312	0.465154
C77	C	0.878070	-0.130979	0.798487
C78	C	1.211403	0.202355	1.131820
C79	C	0.577599	-0.402546	0.403560
C80	C	0.910933	-0.069212	0.736893
C81	C	1.244266	0.264121	1.070227
C82	C	0.643341	-0.402564	0.403525
C83	C	0.976674	-0.069231	0.736859
C84	C	1.310007	0.264102	1.070192
N85	N	0.441462	-0.456784	0.380787
N86	N	0.774796	-0.123451	0.714120
N87	N	1.108129	0.209883	1.047453
N88	N	0.379011	-0.456772	0.380822
N89	N	0.712344	-0.123438	0.714156
N90	N	1.045678	0.209895	1.047489
C91	C	0.346662	-0.464251	0.465256
C92	C	0.679996	-0.130917	0.798589
C93	C	1.013329	0.202416	1.131923
N94	N	0.379124	-0.471761	0.549654
N95	N	0.712457	-0.138427	0.882988
N96	N	1.045791	0.194906	1.216321
N97	N	0.441581	-0.471778	0.549618
N98	N	0.774915	-0.138444	0.882951
N99	N	1.108248	0.194889	1.216284
C100	C	0.473451	-0.464284	0.465185
C101	C	0.806785	-0.130951	0.798518
C102	C	1.140118	0.202382	1.131852
C103	C	0.242522	-0.525983	0.526898
C104	C	0.575855	-0.192649	0.860231
C105	C	0.909189	0.140684	1.193564
C106	C	0.176778	-0.525952	0.526943
C107	C	0.510112	-0.192619	0.860276
C108	C	0.843445	0.140715	1.193609
C109	C	0.176757	-0.402422	0.403777
C110	C	0.510090	-0.069089	0.737110
C111	C	0.843424	0.264244	1.070443
C112	C	0.242499	-0.402448	0.403740
C113	C	0.575833	-0.069115	0.737074
C114	C	0.909166	0.264219	1.070407
C115	C	0.275378	-0.464233	0.465300
C116	C	0.608711	-0.130900	0.798633
C117	C	0.942045	0.202434	1.131966
C118	C	1.073929	-0.464204	0.465332
C119	C	1.407263	-0.130870	0.798665
C120	C	1.740596	0.202463	1.131999
C121	C	1.143898	-0.464182	0.465380
C122	C	1.477231	-0.130849	0.798713
C123	C	1.810564	0.202485	1.132046
C124	C	0.909784	-0.464169	0.716813
C125	C	1.243117	-0.130835	1.050146
C126	C	1.576450	0.202498	1.383480
C127	C	0.909803	-0.464132	0.824027
C128	C	1.243136	-0.130799	1.157360
C129	C	1.576469	0.202534	1.490694
C130	C	0.909802	-0.212661	0.465269
C131	C	1.243136	0.120673	0.798602
C132	C	1.576469	0.454006	1.131936
C133	C	0.909829	-0.105447	0.465290
C134	C	1.243163	0.227887	0.798623
C135	C	1.576496	0.561220	1.131957
C136	C	0.909731	-0.464269	0.214606
C137	C	1.243064	-0.130936	0.547939
C138	C	1.576398	0.202398	0.881272
C139	C	0.909834	-0.464034	0.107392
C140	C	1.243167	-0.130700	0.440726
C141	C	1.576500	0.202633	0.774059
C142	C	0.909820	-0.464067	1.020322
C143	C	1.243153	-0.130734	1.353656
C144	C	1.576487	0.202600	1.686989
C145	C	0.909808	-0.464106	0.911090
C146	C	1.243142	-0.130773	1.244423
C147	C	1.576475	0.202561	1.577756
H148	H	0.670130	-0.576413	0.576801
H149	H	1.003464	-0.243080	0.910135
H150	H	1.336797	0.090254	1.243468
C151	C	0.278694	-0.593928	0.594618
C152	C	0.612027	-0.260594	0.927952
C153	C	0.945361	0.072739	1.261285
H154	H	0.322553	-0.585103	0.585769
H155	H	0.655886	-0.251770	0.919102
H156	H	0.989220	0.081564	1.252436
H157	H	0.267973	-0.579882	0.659458
H158	H	0.601306	-0.246549	0.992791
H159	H	0.934640	0.086784	1.326124
H160	H	0.267876	-0.658722	0.580393
H161	H	0.601210	-0.325389	0.913727
H162	H	0.934543	0.007945	1.247060
H163	H	0.149982	-0.352125	0.353655
H164	H	0.483316	-0.018792	0.686988
H165	H	0.816649	0.314542	1.020322
H166	H	0.670091	-0.352273	0.353371
H167	H	1.003424	-0.018940	0.686705
H168	H	1.336757	0.314393	1.020038
C169	C	0.541474	-0.593957	0.594524
C170	C	0.874808	-0.260623	0.927857
C171	C	1.208141	0.072710	1.261191
H172	H	0.570471	-0.630741	0.631195
H173	H	0.903805	-0.297407	0.964528
H174	H	1.237138	0.035926	1.297862
H175	H	0.515895	-0.557050	0.636611
H176	H	0.849228	-0.223717	0.969944
H177	H	1.182561	0.109616	1.303277
H178	H	0.515764	-0.635952	0.557608
H179	H	0.849097	-0.302619	0.890941
H180	H	1.182431	0.030715	1.224275
H181	H	0.550820	-0.352252	0.353436
H182	H	0.884153	-0.018918	0.686770
H183	H	1.217487	0.314415	1.020103
C184	C	0.140638	-0.593899	0.594681
C185	C	0.473971	-0.260566	0.928014
C186	C	0.807304	0.072768	1.261348
H187	H	0.169637	-0.630706	0.631325
H188	H	0.502970	-0.297373	0.964658
H189	H	0.836304	0.035961	1.297991
H190	H	0.115036	-0.557062	0.636797
H191	H	0.448370	-0.223728	0.970130
H192	H	0.781703	0.109605	1.303464
H193	H	0.114949	-0.635869	0.557700
H194	H	0.448283	-0.302536	0.891033
H195	H	0.781616	0.030798	1.224367
H196	H	0.269250	-0.352165	0.353583
H197	H	0.602583	-0.018832	0.686916
H198	H	0.935917	0.314501	1.020249
