data_functionalizedCrystal
_audit_creation_method	'MofGen! by Chris Wilmer'
_symmetry_space_group_name_H-M	'P1'
_symmetry_Int_Tables_number	1
_symmetry_cell_setting	triclinic
loop_
_symmetry_equiv_pos_as_xyz
  x,y,z
_cell_length_a	16.109301
_cell_length_b	8.965430
_cell_length_c	16.109301
_cell_angle_alpha	89.997898
_cell_angle_beta	96.538519
_cell_angle_gamma	89.994369
loop_
_atom_site_label
_atom_site_type_symbol
_atom_site_fract_x
_atom_site_fract_y
_atom_site_fract_z
O1	O	1.103123	0.123950	-0.106863
O2	O	1.603123	0.623950	0.393137
O3	O	0.861061	0.123974	-0.120163
O4	O	1.361061	0.623974	0.379837
O5	O	0.988742	0.123946	0.007518
O6	O	1.488742	0.623946	0.507518
O7	O	0.975443	0.123978	-0.234544
O8	O	1.475443	0.623978	0.265456
O9	O	0.988748	-0.124133	0.007514
O10	O	1.488748	0.375867	0.507514
O11	O	0.861067	-0.124105	-0.120166
O12	O	1.361067	0.375895	0.379834
O13	O	1.103129	-0.124129	-0.106867
O14	O	1.603129	0.375871	0.393133
Cu15	Cu	0.982099	-0.146768	-0.113517
Cu16	Cu	1.482099	0.353232	0.386483
Cu17	Cu	0.982092	0.146614	-0.113512
Cu18	Cu	1.482092	0.646614	0.386488
O19	O	0.975449	-0.124101	-0.234548
O20	O	1.475449	0.375899	0.265452
C21	C	0.830090	-0.000062	-0.119626
C22	C	1.330090	0.499938	0.380374
C23	C	0.737794	-0.000054	-0.118011
C24	C	1.237794	0.499946	0.381989
N25	N	0.982110	-0.353118	-0.113520
N26	N	1.482110	0.146882	0.386480
C27	C	0.515522	-0.000061	-0.190018
C28	C	1.015522	0.499939	0.309982
C29	C	0.428801	-0.000071	-0.188494
C30	C	0.928801	0.499929	0.311506
C31	C	0.448676	-0.000085	-0.037006
C32	C	0.948676	0.499915	0.462994
C33	C	0.535394	-0.000086	-0.038530
C34	C	1.035394	0.499914	0.461470
C35	C	0.568815	-0.000067	-0.115039
C36	C	1.068815	0.499933	0.384961
C37	C	0.395376	-0.000075	-0.111990
C38	C	0.895376	0.499925	0.388010
C39	C	0.301350	-0.000086	-0.110337
C40	C	0.801350	0.499914	0.389663
C41	C	0.662847	-0.000059	-0.116693
C42	C	1.162847	0.499941	0.383307
C43	C	1.041177	-0.450396	-0.054476
C44	C	1.541177	0.049604	0.445524
C45	C	0.966052	-0.549796	-0.038348
C46	C	1.466052	-0.049796	0.461652
C47	C	1.057205	-0.549846	-0.129594
C48	C	1.557205	-0.049846	0.370406
C49	C	0.906948	-0.450328	-0.097355
C50	C	1.406948	0.049672	0.402645
C51	C	0.998150	-0.450369	-0.188634
C52	C	1.498150	0.049631	0.311366
C53	C	0.922971	-0.549724	-0.172538
C54	C	1.422971	-0.049724	0.327462
C55	C	1.134101	-0.000089	-0.107404
C56	C	1.634101	0.499911	0.392596
C57	C	1.226397	-0.000088	-0.109019
C58	C	1.726397	0.499912	0.390981
C59	C	0.988206	-0.000094	0.038491
C60	C	1.488206	0.499906	0.538491
C61	C	0.986591	-0.000096	0.130786
C62	C	1.486591	0.499904	0.630786
N63	N	0.982087	0.352963	-0.113503
N64	N	1.482087	0.852963	0.386497
C65	C	0.975984	-0.000058	-0.265521
C66	C	1.475984	0.499942	0.234479
C67	C	0.977600	-0.000046	-0.357816
C68	C	1.477600	0.499954	0.142184
C69	C	1.058599	-0.000080	0.353059
C70	C	1.558599	0.499920	0.853059
C71	C	1.057075	-0.000067	0.439779
C72	C	1.557075	0.499933	0.939779
C73	C	0.905586	-0.000058	0.419905
C74	C	1.405586	0.499942	0.919905
C75	C	0.907111	-0.000060	0.333186
C76	C	1.407111	0.499940	0.833186
C77	C	0.983620	-0.000078	0.299766
C78	C	1.483620	0.499922	0.799766
C79	C	0.980571	-0.000064	0.473205
C80	C	1.480571	0.499936	0.973205
C81	C	0.978918	-0.000050	0.567231
C82	C	1.478918	0.499950	1.067231
C83	C	0.985273	-0.000089	0.205734
C84	C	1.485273	0.499911	0.705734
H85	H	0.542730	-0.000057	-0.252317
H86	H	1.042730	0.499943	0.247683
C87	C	0.594021	-0.000092	0.043957
C88	C	1.094021	0.499908	0.543957
N89	N	0.638178	-0.000100	0.106083
N90	N	1.138178	0.499900	0.606083
C91	C	0.821122	-0.391527	-0.078869
C92	C	1.321122	0.108473	0.421131
N93	N	0.756482	-0.347234	-0.064940
N94	N	1.256482	0.152766	0.435060
H95	H	1.118130	-0.000065	0.483168
H96	H	1.618130	0.499935	0.983168
C97	C	0.370182	-0.000073	-0.270977
C98	C	0.870182	0.499927	0.229023
N99	N	0.326030	-0.000078	-0.333108
N100	N	0.826030	0.499922	0.166892
C101	C	0.821431	-0.000067	0.456676
C102	C	1.321431	0.499933	0.956676
N103	N	0.758043	-0.000084	0.484371
N104	N	1.258043	0.499916	0.984371
C105	C	0.411905	-0.000092	0.047150
C106	C	0.911905	0.499908	0.547150
N107	N	0.384210	-0.000092	0.110538
N108	N	0.884210	0.499908	0.610538
C109	C	1.108591	-0.391464	0.013013
C110	C	1.608591	0.108536	0.513013
N111	N	1.159363	-0.347071	0.063847
N112	N	1.659363	0.152929	0.563847
H113	H	0.952470	-0.593471	0.025181
H114	H	1.452470	-0.093471	0.525181
H115	H	0.872956	-0.593061	-0.222466
H116	H	1.372956	-0.093061	0.277534
H117	H	1.011756	-0.406663	-0.252143
H118	H	1.511756	0.093337	0.247857
H119	H	1.120722	-0.593559	-0.143198
H120	H	1.620722	-0.093559	0.356802
C121	C	1.142761	-0.000083	0.316300
C122	C	1.642761	0.499917	0.816300
N123	N	1.206154	-0.000080	0.288615
N124	N	1.706154	0.499920	0.788615
H125	H	0.846050	-0.000054	0.289792
H126	H	1.346050	0.499946	0.789792
