data_functionalizedCrystal
_audit_creation_method	'MofGen! by Chris Wilmer'
_symmetry_space_group_name_H-M	'P1'
_symmetry_Int_Tables_number	1
_symmetry_cell_setting	triclinic
loop_
_symmetry_equiv_pos_as_xyz
  x,y,z
_cell_length_a	14.519709
_cell_length_b	14.519731
_cell_length_c	9.130313
_cell_angle_alpha	89.997760
_cell_angle_beta	90.005376
_cell_angle_gamma	83.684499
loop_
_atom_site_label
_atom_site_type_symbol
_atom_site_fract_x
_atom_site_fract_y
_atom_site_fract_z
O1	O	1.223872	0.120886	-0.121612
O2	O	1.723872	0.620886	0.378388
O3	O	0.955396	0.135122	-0.121657
O4	O	1.455396	0.635122	0.378343
O5	O	1.096742	-0.006233	-0.121620
O6	O	1.596742	0.493767	0.378380
O7	O	1.082526	0.262241	-0.121649
O8	O	1.582526	0.762241	0.378351
O9	O	1.096740	-0.006229	0.121979
O10	O	1.596740	0.493771	0.621979
O11	O	0.955394	0.135126	0.121942
O12	O	1.455394	0.635126	0.621942
O13	O	1.223870	0.120890	0.121987
O14	O	1.723870	0.620890	0.621987
Cu15	Cu	1.089632	0.128008	0.144207
Cu16	Cu	1.589632	0.628008	0.644207
Cu17	Cu	1.089634	0.128004	-0.143877
Cu18	Cu	1.589634	0.628004	0.356123
O19	O	1.082524	0.262245	0.121950
O20	O	1.582524	0.762245	0.621950
C21	C	0.921035	0.134461	0.000137
C22	C	1.421035	0.634461	0.500137
C23	C	0.818654	0.132473	0.000120
C24	C	1.318654	0.632473	0.500120
C25	C	0.443757	0.125153	0.000187
C26	C	0.943757	0.625153	0.500187
C27	C	0.548065	0.127186	0.000168
C28	C	1.048065	0.627186	0.500168
C29	C	0.631202	0.128813	0.000152
C30	C	1.131202	0.628813	0.500152
C31	C	0.735517	0.130846	0.000136
C32	C	1.235517	0.630846	0.500136
C33	C	1.096075	-0.040591	0.000180
C34	C	1.596075	0.459409	0.500180
C35	C	1.094079	-0.142971	0.000180
C36	C	1.594079	0.357029	0.500180
C37	C	1.092457	-0.226115	0.000176
C38	C	1.592457	0.273885	0.500176
C39	C	1.090430	-0.330424	0.000165
C40	C	1.590430	0.169576	0.500165
C41	C	1.088822	-0.413563	0.000155
C42	C	1.588822	0.086437	0.500155
C43	C	1.086795	-0.517878	0.000146
C44	C	1.586795	-0.017878	0.500146
C45	C	1.258230	0.121551	0.000190
C46	C	1.758230	0.621551	0.500190
C47	C	1.360612	0.123539	0.000197
C48	C	1.860612	0.623539	0.500197
C49	C	1.083191	0.296603	0.000147
C50	C	1.583191	0.796603	0.500147
C51	C	1.085187	0.398983	0.000137
C52	C	1.585187	0.898983	0.500137
N53	N	1.089637	0.128011	0.346829
N54	N	1.589637	0.628011	0.846829
N55	N	1.089636	0.127994	-0.346500
N56	N	1.589636	0.627994	0.153500
C57	C	1.152241	0.065440	0.423498
C58	C	1.652241	0.565440	0.923498
C59	C	1.152238	0.065429	0.576835
C60	C	1.652238	0.565429	1.076835
C61	C	1.027025	0.190568	0.576821
C62	C	1.527025	0.690568	1.076821
C63	C	1.027024	0.190574	0.423487
C64	C	1.527024	0.690574	0.923487
C65	C	1.214854	0.002877	0.346840
C66	C	1.714854	0.502877	0.846840
C67	C	1.277464	-0.059698	0.423509
C68	C	1.777464	0.440302	0.923509
C69	C	1.277461	-0.059709	0.576846
C70	C	1.777461	0.440291	1.076846
C71	C	1.214849	0.002855	0.653514
C72	C	1.714849	0.502855	1.153514
H73	H	1.214863	0.002882	0.221986
H74	H	1.714863	0.502882	0.721986
H75	H	1.328435	-0.110641	0.361078
H76	H	1.828435	0.389359	0.861078
H77	H	1.328434	-0.110666	0.639268
H78	H	1.828434	0.389334	1.139268
Cl79	Cl	1.214843	0.002829	0.846282
Cl80	Cl	1.714843	0.502829	1.346282
H81	H	0.976050	0.241506	0.639254
H82	H	1.476050	0.741506	1.139254
H83	H	0.976045	0.241524	0.361063
H84	H	1.476045	0.741524	0.861063
