data_functionalizedCrystal
_audit_creation_method	'MofGen! by Chris Wilmer'
_symmetry_space_group_name_H-M	'P1'
_symmetry_Int_Tables_number	1
_symmetry_cell_setting	triclinic
loop_
_symmetry_equiv_pos_as_xyz
  x,y,z
_cell_length_a	14.908571
_cell_length_b	16.959454
_cell_length_c	14.908308
_cell_angle_alpha	93.269679
_cell_angle_beta	90.175053
_cell_angle_gamma	86.716421
loop_
_atom_site_label
_atom_site_type_symbol
_atom_site_fract_x
_atom_site_fract_y
_atom_site_fract_z
Zn1	Zn	1.345297	-0.412496	-0.587603
Zn2	Zn	1.845297	0.087504	-0.087603
Zn3	Zn	1.353878	-0.537521	-0.437249
Zn4	Zn	1.853878	-0.037521	0.062751
Zn5	Zn	1.203612	-0.397314	-0.428600
Zn6	Zn	1.703612	0.102686	0.071400
Zn7	Zn	1.194906	-0.536582	-0.578901
Zn8	Zn	1.694906	-0.036582	-0.078901
O9	O	1.274423	-0.470978	-0.508088
O10	O	1.774423	0.029022	-0.008088
O11	O	1.472261	-0.435828	-0.574920
O12	O	1.972261	0.064172	-0.074920
O13	O	1.341180	-0.512961	-0.310277
O14	O	1.841180	-0.012961	0.189723
O15	O	1.222460	-0.288721	-0.449714
O16	O	1.722460	0.211279	0.050286
O17	O	1.478566	-0.527683	-0.464456
O18	O	1.978566	-0.027683	0.035544
O19	O	1.326555	-0.299875	-0.566532
O20	O	1.826555	0.200125	-0.066532
O21	O	1.230780	-0.409952	-0.303922
O22	O	1.730780	0.090048	0.196078
O23	O	1.076631	-0.409042	-0.441276
O24	O	1.576631	0.090958	0.058724
O25	O	1.207621	-0.526082	-0.705880
O26	O	1.707621	-0.026082	-0.205880
O27	O	1.070235	-0.511361	-0.551701
O28	O	1.570235	-0.011361	-0.051701
O29	O	1.318113	-0.434917	-0.712273
O30	O	1.818113	0.065083	-0.212273
O31	O	1.332737	-0.648003	-0.456018
O32	O	1.832737	-0.148003	0.043982
O33	O	1.215941	-0.647313	-0.560089
O34	O	1.715941	-0.147313	-0.060089
C35	C	1.040808	-0.458452	-0.494606
C36	C	1.540808	0.041548	0.005394
C37	C	0.940865	-0.453114	-0.488860
C38	C	1.440865	0.046886	0.011140
C39	C	0.746458	-0.549777	-0.592894
C40	C	1.246458	-0.049777	-0.092894
C41	C	0.652552	-0.544763	-0.587498
C42	C	1.152552	-0.044763	-0.087498
C43	C	0.659146	-0.438070	-0.472677
C44	C	1.159146	0.061930	0.027323
C45	C	0.753052	-0.443084	-0.478073
C46	C	1.253052	0.056916	0.021927
C47	C	0.796704	-0.498940	-0.538183
C48	C	1.296704	0.001060	-0.038183
C49	C	0.890612	-0.503956	-0.543574
C50	C	1.390612	-0.003956	-0.043574
C51	C	0.897204	-0.397260	-0.428758
C52	C	1.397204	0.102740	0.071242
C53	C	0.803298	-0.392247	-0.423362
C54	C	1.303298	0.107753	0.076638
C55	C	1.274349	-0.676340	-0.508068
C56	C	1.774349	-0.176340	-0.008068
C57	C	1.274398	-0.764200	-0.508095
C58	C	1.774398	-0.264200	-0.008095
C59	C	1.213691	-1.135352	-0.562276
C60	C	1.713691	-0.635352	-0.062276
C61	C	1.335401	-1.136020	-0.454006
C62	C	1.835401	-0.636020	0.045994
C63	C	1.335370	-1.053472	-0.453996
C64	C	1.835370	-0.553472	0.046004
C65	C	1.274498	-1.011860	-0.508126
C66	C	1.774498	-0.511860	-0.008126
C67	C	1.213657	-1.052796	-0.562266
C68	C	1.713657	-0.552796	-0.062266
C69	C	1.396203	-1.012529	-0.399850
C70	C	1.896203	-0.512529	0.100150
C71	C	1.396174	-0.929976	-0.399837
C72	C	1.896174	-0.429976	0.100163
C73	C	1.335306	-0.888363	-0.453972
C74	C	1.835306	-0.388363	0.046028
C75	C	1.274463	-0.929304	-0.508115
C76	C	1.774463	-0.429304	-0.008115
C77	C	1.213591	-0.887692	-0.562245
C78	C	1.713591	-0.387692	-0.062245
C79	C	1.152752	-0.928632	-0.616394
C80	C	1.652752	-0.428632	-0.116394
C81	C	1.152788	-1.011183	-0.616402
C82	C	1.652788	-0.511183	-0.116402
C83	C	1.335269	-0.805812	-0.453965
C84	C	1.835269	-0.305812	0.046035
C85	C	1.213557	-0.805136	-0.562235
C86	C	1.713557	-0.305136	-0.062235
C87	C	1.508951	-0.483554	-0.521623
C88	C	2.008951	0.016446	-0.021623
C89	C	1.608893	-0.488913	-0.527391
C90	C	2.108893	0.011087	-0.027391
C91	C	1.260938	-0.482089	-0.742614
C92	C	1.760938	0.017911	-0.242614
C93	C	1.255192	-0.486823	-0.842555
C94	C	1.755192	0.013177	-0.342555
C95	C	1.274521	-0.264817	-0.508129
C96	C	1.774521	0.235183	-0.008129
C97	C	1.274563	-0.176963	-0.508146
C98	C	1.774563	0.323037	-0.008146
C99	C	1.359446	-0.400771	-1.037013
C100	C	1.859446	0.099229	-0.537013
C101	C	1.354049	-0.405217	-1.130917
C102	C	1.854049	0.094783	-0.630917
C103	C	1.238998	-0.500156	-1.124267
C104	C	1.738998	-0.000156	-0.624267
C105	C	1.244395	-0.495710	-1.030364
C106	C	1.744395	0.004290	-0.530364
C107	C	1.304622	-0.446017	-0.986740
C108	C	1.804622	0.053983	-0.486740
C109	C	1.310022	-0.441576	-0.892835
C110	C	1.810022	0.058424	-0.392835
C111	C	1.194967	-0.536510	-0.886187
C112	C	1.694967	-0.036510	-0.386187
C113	C	1.189570	-0.540956	-0.980090
C114	C	1.689570	-0.040956	-0.480090
C115	C	1.287908	-0.459857	-0.274478
C116	C	1.787908	0.040143	0.225522
C117	C	1.293828	-0.454909	-0.174547
C118	C	1.793828	0.045091	0.325453
H119	H	0.938125	-0.355866	-0.384206
H120	H	1.438125	0.144134	0.115794
C121	C	0.938628	-0.565397	-0.609696
C122	C	1.438628	-0.065397	-0.109696
N123	N	0.974791	-0.611674	-0.659504
N124	N	1.474791	-0.111674	-0.159504
C125	C	1.414363	-0.355446	-1.186215
C126	C	1.914363	0.144554	-0.686215
N127	N	1.459794	-0.317955	-1.227865
N128	N	1.959794	0.182045	-0.727865
C129	C	1.376269	-0.386910	-0.844851
C130	C	1.876269	0.113090	-0.344851
N131	N	1.426166	-0.345731	-0.808711
N132	N	1.926166	0.154269	-0.308711
C133	C	0.755270	-0.330808	-0.357245
C134	C	1.255270	0.169192	0.142755
N135	N	0.719096	-0.284533	-0.307443
N136	N	1.219096	0.215467	0.192557
C137	C	1.172732	-0.554794	-1.172268
C138	C	1.672732	-0.054794	-0.672268
N139	N	1.122813	-0.595941	-1.208423
N140	N	1.622813	-0.095941	-0.708423
H141	H	1.103256	-1.044524	-0.660485
H142	H	1.603256	-0.544524	-0.160485
C143	C	1.123318	-0.595610	-1.028087
C144	C	1.623318	-0.095610	-0.528087
N145	N	1.073414	-0.636776	-1.064236
N146	N	1.573414	-0.136776	-0.564236
C147	C	1.146768	-1.180385	-0.621833
C148	C	1.646768	-0.680385	-0.121833
N149	N	1.096358	-1.214306	-0.666689
N150	N	1.596358	-0.714306	-0.166689
H151	H	0.611645	-0.586159	-0.632051
H152	H	1.111645	-0.086159	-0.132051
C153	C	0.611111	-0.376626	-0.406572
C154	C	1.111111	0.123374	0.093428
N155	N	0.574930	-0.330345	-0.356781
N156	N	1.074930	0.169655	0.143219
H157	H	1.445713	-0.896647	-0.355747
H158	H	1.945713	-0.396647	0.144253
H159	H	1.103186	-0.894742	-0.660463
H160	H	1.603186	-0.394742	-0.160463
H161	H	1.384955	-1.169904	-0.409930
H162	H	1.884955	-0.669904	0.090070
H163	H	1.150327	-0.573355	-0.845244
H164	H	1.650327	-0.073355	-0.345244
C165	C	1.463145	-1.058305	-0.340297
C166	C	1.963145	-0.558305	0.159703
N167	N	1.513566	-1.092788	-0.295437
N168	N	2.013566	-0.592788	0.204563
H169	H	0.782000	-0.595261	-0.641833
H170	H	1.282000	-0.095261	-0.141833
H171	H	1.163990	-0.771261	-0.606318
H172	H	1.663990	-0.271261	-0.106318
C173	C	1.402189	-0.760782	-0.394406
C174	C	1.902189	-0.260782	0.105594
N175	N	1.452600	-0.726866	-0.349546
N176	N	1.952600	-0.226866	0.150454
C177	C	1.425699	-0.346113	-0.989026
C178	C	1.925699	0.153887	-0.489026
N179	N	1.475602	-0.304942	-0.952883
N180	N	1.975602	0.195058	-0.452883
