data_functionalizedCrystal
_audit_creation_method	'MofGen! by Chris Wilmer'
_symmetry_space_group_name_H-M	'P1'
_symmetry_Int_Tables_number	1
_symmetry_cell_setting	triclinic
loop_
_symmetry_equiv_pos_as_xyz
  x,y,z
_cell_length_a	13.339070
_cell_length_b	11.792241
_cell_length_c	10.268362
_cell_angle_alpha	89.998512
_cell_angle_beta	89.994235
_cell_angle_gamma	99.911355
loop_
_atom_site_label
_atom_site_type_symbol
_atom_site_fract_x
_atom_site_fract_y
_atom_site_fract_z
O1	O	1.345410	0.569972	-0.108350
O2	O	1.050472	0.495159	-0.108342
O3	O	1.205098	0.369599	-0.108337
O4	O	1.190784	0.695531	-0.108355
O5	O	1.205083	0.369601	0.108264
O6	O	1.050457	0.495160	0.108259
O7	O	1.345395	0.569973	0.108251
Cu8	Cu	1.197925	0.532567	0.128032
Cu9	Cu	1.197942	0.532565	-0.128123
O10	O	1.190769	0.695532	0.108246
C11	C	1.012706	0.482522	-0.000040
C12	C	0.900198	0.444853	-0.000037
C13	C	0.537011	0.737747	-0.000074
C14	C	0.642718	0.773142	-0.000081
C15	C	0.707093	0.691073	-0.000069
C16	C	0.665751	0.573602	-0.000052
C17	C	0.560034	0.538203	-0.000055
C18	C	0.730116	0.491529	-0.000050
C19	C	0.688774	0.374059	-0.000033
C20	C	0.583067	0.338666	-0.000035
C21	C	0.518692	0.420735	-0.000046
C22	C	0.835833	0.526928	-0.000047
C23	C	0.858855	0.327385	-0.000028
C24	C	0.753149	0.291989	-0.000021
C25	C	1.204192	0.327032	-0.000037
C26	C	1.201500	0.200189	-0.000038
C27	C	1.196551	-0.032047	-0.000060
C28	C	1.199301	0.097185	-0.000048
C29	C	1.383161	0.582610	-0.000053
C30	C	1.495669	0.620279	-0.000065
C31	C	1.191675	0.738100	-0.000057
C32	C	1.194367	0.864942	-0.000064
N33	N	1.197920	0.532569	0.308198
N34	N	1.197955	0.532556	-0.308289
C35	C	1.197927	0.532572	0.426041
C36	C	1.197940	0.532566	0.573878
H37	H	0.484589	0.804555	-0.000094
Br38	Br	0.375225	0.372701	-0.000029
H39	H	0.549410	0.243013	-0.000035
Br40	Br	0.697029	0.132569	0.000005
Br41	Br	0.946213	0.215997	-0.000029
H42	H	0.793164	0.719899	-0.000078
Br43	Br	0.891927	0.686347	-0.000074
Br44	Br	0.698819	0.932559	-0.000115
