data_functionalizedCrystal
_audit_creation_method	'MofGen! by Chris Wilmer'
_symmetry_space_group_name_H-M	'P1'
_symmetry_Int_Tables_number	1
_symmetry_cell_setting	triclinic
loop_
_symmetry_equiv_pos_as_xyz
  x,y,z
_cell_length_a	17.699083
_cell_length_b	19.188930
_cell_length_c	16.776229
_cell_angle_alpha	89.988225
_cell_angle_beta	89.998886
_cell_angle_gamma	83.213899
loop_
_atom_site_label
_atom_site_type_symbol
_atom_site_fract_x
_atom_site_fract_y
_atom_site_fract_z
O1	O	1.003962	0.088294	-0.066185
O2	O	1.503962	0.588294	0.433815
O3	O	0.783569	0.099782	-0.066213
O4	O	1.283569	0.599782	0.433787
O5	O	0.900126	-0.007611	-0.066183
O6	O	1.400126	0.492389	0.433817
O7	O	0.887405	0.195686	-0.066215
O8	O	1.387405	0.695686	0.433785
O9	O	0.900110	-0.007617	0.066394
O10	O	1.400110	0.492383	0.566394
O11	O	0.783553	0.099775	0.066364
O12	O	1.283553	0.599775	0.566364
O13	O	1.003947	0.088288	0.066391
O14	O	1.503947	0.588288	0.566391
Zn15	Zn	0.893748	0.094030	0.087427
Zn16	Zn	1.393748	0.594030	0.587427
Zn17	Zn	0.893768	0.094039	-0.087249
Zn18	Zn	1.393768	0.594039	0.412751
O19	O	0.887390	0.195680	0.066361
O20	O	1.387390	0.695680	0.566361
C21	C	0.755365	0.099367	0.000072
C22	C	1.255365	0.599367	0.500072
C23	C	0.671348	0.098132	0.000062
C24	C	1.171348	0.598132	0.500062
C25	C	0.622644	0.161169	0.000053
C26	C	1.122644	0.661169	0.500053
C27	C	0.543702	0.160004	0.000063
C28	C	1.043702	0.660004	0.500063
C29	C	0.513466	0.095802	0.000078
C30	C	1.013466	0.595802	0.500078
C31	C	0.562176	0.032761	0.000090
C32	C	1.062176	0.532761	0.500090
C33	C	0.641117	0.033926	0.000085
C34	C	1.141117	0.533926	0.500085
C35	C	0.243819	0.028060	0.000111
C36	C	0.743819	0.528060	0.500111
C37	C	0.164873	0.026900	0.000113
C38	C	0.664873	0.526900	0.500113
C39	C	0.146405	0.154139	0.000088
C40	C	0.646405	0.654139	0.500088
C41	C	0.225345	0.155304	0.000084
C42	C	0.725345	0.655304	0.500084
C43	C	0.274049	0.092263	0.000100
C44	C	0.774049	0.592263	0.500100
C45	C	0.359646	0.093526	0.000090
C46	C	0.859646	0.593526	0.500090
C47	C	0.427870	0.094538	0.000082
C48	C	0.927870	0.594538	0.500082
C49	C	0.899706	-0.033625	0.000108
C50	C	1.399706	0.466375	0.500108
C51	C	0.898469	-0.111131	0.000114
C52	C	1.398469	0.388869	0.500114
C53	C	0.966861	-0.155978	0.000127
C54	C	1.466861	0.344022	0.500127
C55	C	0.965699	-0.228804	0.000114
C56	C	1.465699	0.271196	0.500114
C57	C	0.896142	-0.256778	0.000105
C58	C	1.396142	0.243222	0.500105
C59	C	0.827741	-0.211921	0.000088
C60	C	1.327741	0.288079	0.500088
C61	C	0.828905	-0.139098	0.000093
C62	C	1.328905	0.360902	0.500093
N63	N	0.842969	-0.364845	0.045216
N64	N	1.342969	0.135155	0.545216
N65	N	0.841868	-0.434025	0.045213
N66	N	1.341868	0.065975	0.545213
C67	C	0.892632	-0.476191	0.000088
C68	C	1.392632	0.023809	0.500088
N69	N	0.944550	-0.446565	-0.045024
N70	N	1.444550	0.053435	0.454976
N71	N	0.945653	-0.377379	-0.045018
N72	N	1.445653	0.122621	0.454982
C73	C	0.894873	-0.335742	0.000099
C74	C	1.394873	0.164258	0.500099
C75	C	0.959769	-0.600004	0.000085
C76	C	1.459769	-0.100004	0.500085
C77	C	0.958604	-0.672830	0.000067
C78	C	1.458604	-0.172830	0.500067
C79	C	0.820644	-0.655946	0.000049
C80	C	1.320644	-0.155946	0.500049
C81	C	0.821811	-0.583121	0.000059
C82	C	1.321811	-0.083121	0.500059
C83	C	0.891375	-0.555155	0.000081
C84	C	1.391375	-0.055155	0.500081
C85	C	1.032151	0.088703	0.000104
C86	C	1.532151	0.588703	0.500104
C87	C	1.116167	0.089938	0.000109
C88	C	1.616167	0.589938	0.500109
C89	C	0.887810	0.221695	0.000069
C90	C	1.387810	0.721695	0.500069
C91	C	0.889046	0.299201	0.000057
C92	C	1.389046	0.799201	0.500057
N93	N	0.893739	0.094024	0.206638
N94	N	1.393739	0.594024	0.706638
N95	N	0.893782	0.094040	-0.206460
N96	N	1.393782	0.594040	0.293540
C97	C	0.945366	0.046490	0.248368
C98	C	1.445366	0.546490	0.748368
C99	C	0.945370	0.046490	0.331821
C100	C	1.445370	0.546490	0.831821
C101	C	0.893751	0.094027	0.373541
C102	C	1.393751	0.594027	0.873541
C103	C	0.842118	0.141563	0.331805
C104	C	1.342118	0.641563	0.831805
C105	C	0.842111	0.141559	0.248354
C106	C	1.342111	0.641559	0.748354
C107	C	0.842146	0.141576	0.668352
C108	C	1.342146	0.641576	1.168352
C109	C	0.842158	0.141578	0.751808
C110	C	1.342158	0.641578	1.251808
C111	C	0.945405	0.046507	0.751818
C112	C	1.445405	0.546507	1.251818
C113	C	0.945398	0.046503	0.668368
C114	C	1.445398	0.546503	1.168368
C115	C	0.893763	0.094037	0.626639
C116	C	1.393763	0.594037	1.126639
C117	C	0.893758	0.094036	0.536150
C118	C	1.393758	0.594036	1.036150
C119	C	0.893759	0.094031	0.464028
C120	C	1.393759	0.594031	0.964028
H121	H	0.140258	-0.025384	0.000126
H122	H	0.640258	0.474616	0.500126
H123	H	0.773210	-0.102582	0.000083
H124	H	1.273210	0.397418	0.500083
Cl125	Cl	0.777203	0.201317	0.195894
Cl126	Cl	1.277203	0.701317	0.695894
H127	H	0.283465	-0.023272	0.000125
H128	H	0.783465	0.476728	0.500125
H129	H	0.537552	-0.019514	0.000113
H130	H	1.037552	0.480486	0.500113
Cl131	Cl	1.047219	-0.564843	0.000117
Cl132	Cl	1.547219	-0.064843	0.500117
Cl133	Cl	0.777220	0.201322	0.384251
Cl134	Cl	1.277220	0.701322	0.884251
Cl135	Cl	1.054313	-0.120825	0.000131
Cl136	Cl	1.554313	0.379175	0.500131
Cl137	Cl	0.660647	0.241885	0.000029
Cl138	Cl	1.160647	0.741885	0.500029
H139	H	1.014299	-0.709345	0.000073
H140	H	1.514299	-0.209345	0.500073
Cl141	Cl	0.702345	-0.045324	0.000101
Cl142	Cl	1.202345	0.454676	0.500101
H143	H	0.106741	0.205470	0.000079
H144	H	0.606741	0.705470	0.500079
H145	H	0.800120	0.180289	0.785776
H146	H	1.300120	0.680289	1.285776
Cl147	Cl	0.733199	-0.691107	0.000033
Cl148	Cl	1.233199	-0.191107	0.500033
Cl149	Cl	1.010268	-0.013271	0.195929
Cl150	Cl	1.510268	0.486729	0.695929
H151	H	1.021394	-0.265325	0.000121
H152	H	1.521394	0.234675	0.500121
H153	H	0.249959	0.207584	0.000068
H154	H	0.749959	0.707584	0.500068
H155	H	0.766119	-0.546605	0.000054
H156	H	1.266119	-0.046605	0.500054
Cl157	Cl	1.010273	-0.013269	0.384283
Cl158	Cl	1.510273	0.486731	0.884283
Cl159	Cl	1.010295	-0.013257	0.615922
Cl160	Cl	1.510295	0.486743	1.115922
Cl161	Cl	0.740298	-0.247088	0.000070
Cl162	Cl	1.240298	0.252912	0.500070
Cl163	Cl	0.777238	0.201333	0.615898
Cl164	Cl	1.277238	0.701333	1.115898
Cl165	Cl	0.482477	0.239255	0.000046
Cl166	Cl	0.982477	0.739255	0.500046
Cl167	Cl	1.010316	-0.013253	0.804282
Cl168	Cl	1.510316	0.486747	1.304282
