data_functionalizedCrystal
_audit_creation_method	'MofGen! by Chris Wilmer'
_symmetry_space_group_name_H-M	'P1'
_symmetry_Int_Tables_number	1
_symmetry_cell_setting	triclinic
loop_
_symmetry_equiv_pos_as_xyz
  x,y,z
_cell_length_a	6.817900
_cell_length_b	14.858329
_cell_length_c	16.255661
_cell_angle_alpha	95.053856
_cell_angle_beta	103.488922
_cell_angle_gamma	104.519616
loop_
_atom_site_label
_atom_site_type_symbol
_atom_site_fract_x
_atom_site_fract_y
_atom_site_fract_z
V1	V	-4.031897	-0.129422	-0.264114
V2	V	-3.781897	0.120578	-0.014114
V3	V	-3.531897	0.370578	0.235886
V4	V	-3.281897	0.620578	0.485886
O5	O	-4.013972	0.005446	-0.258838
O6	O	-3.763972	0.255446	-0.008838
O7	O	-3.513972	0.505446	0.241162
O8	O	-3.263972	0.755446	0.491162
O9	O	-3.988515	-0.255879	-0.262546
O10	O	-3.738515	-0.005879	-0.012546
O11	O	-3.488515	0.244121	0.237454
O12	O	-3.238515	0.494121	0.487454
O13	O	-3.983393	-0.127771	-0.379194
O14	O	-3.733393	0.122229	-0.129194
O15	O	-3.483393	0.372229	0.120806
O16	O	-3.233393	0.622229	0.370806
O17	O	-4.019130	-0.123549	-0.141383
O18	O	-3.769130	0.126451	0.108617
O19	O	-3.519130	0.376451	0.358617
O20	O	-3.269130	0.626451	0.608617
V21	V	-4.514888	-0.113250	-0.249405
V22	V	-4.264888	0.136750	0.000595
V23	V	-4.014888	0.386750	0.250595
V24	V	-3.764888	0.636750	0.500595
O25	O	-4.294322	-0.164897	-0.296378
O26	O	-4.044322	0.085103	-0.046378
O27	O	-3.794322	0.335103	0.203622
O28	O	-3.544322	0.585103	0.453622
O29	O	-4.702661	-0.077776	-0.217140
O30	O	-4.452661	0.172224	0.032860
O31	O	-4.202661	0.422224	0.282860
O32	O	-3.952661	0.672224	0.532860
O33	O	-4.335064	0.013206	-0.250973
O34	O	-4.085064	0.263206	-0.000973
O35	O	-3.835064	0.513206	0.249027
O36	O	-3.585064	0.763206	0.499027
O37	O	-4.650210	-0.248119	-0.254681
O38	O	-4.400210	0.001881	-0.004681
O39	O	-4.150210	0.251881	0.245319
O40	O	-3.900210	0.501881	0.495319
O41	O	-4.645052	-0.119124	-0.372136
O42	O	-4.395052	0.130876	-0.122136
O43	O	-4.145052	0.380876	0.127864
O44	O	-3.895052	0.630876	0.377864
O45	O	-4.340186	-0.114902	-0.134325
O46	O	-4.090186	0.135098	0.115675
O47	O	-3.840186	0.385098	0.365675
O48	O	-3.590186	0.635098	0.615675
C49	C	-3.834740	-0.286696	-0.258441
C50	C	-3.584740	-0.036696	-0.008441
C51	C	-3.334740	0.213304	0.241559
C52	C	-3.084740	0.463304	0.491559
C53	C	-3.880557	-0.390078	-0.257927
C54	C	-3.630557	-0.140078	-0.007927
C55	C	-3.380557	0.109922	0.242073
C56	C	-3.130557	0.359922	0.492073
C57	C	-3.917759	-0.474035	-0.257501
C58	C	-3.667759	-0.224035	-0.007501
C59	C	-3.417759	0.025965	0.242499
C60	C	-3.167759	0.275965	0.492499
C61	C	-3.964450	-0.579363	-0.256971
C62	C	-3.714450	-0.329363	-0.006971
C63	C	-3.464450	-0.079363	0.243029
C64	C	-3.214450	0.170637	0.493029
C65	C	-4.001679	-0.663314	-0.256549
C66	C	-3.751679	-0.413314	-0.006549
C67	C	-3.501679	-0.163314	0.243451
C68	C	-3.251679	0.086686	0.493451
C69	C	-4.048373	-0.768649	-0.256017
C70	C	-3.798373	-0.518649	-0.006017
C71	C	-3.548373	-0.268649	0.243983
C72	C	-3.298373	-0.018649	0.493983
C73	C	-3.828205	-0.123280	-0.407236
C74	C	-3.578205	0.126720	-0.157236
C75	C	-3.328205	0.376720	0.092764
C76	C	-3.078205	0.626720	0.342764
C77	C	-3.869864	-0.122766	-0.501316
C78	C	-3.619864	0.127234	-0.251316
C79	C	-3.369864	0.377234	-0.001316
C80	C	-3.119864	0.627234	0.248684
C81	C	-3.780175	-0.116631	-0.724123
C82	C	-3.530175	0.133369	-0.474123
C83	C	-3.280175	0.383369	-0.224123
C84	C	-3.030175	0.633369	0.025877
C85	C	-3.939764	-0.195814	-0.793748
C86	C	-3.689764	0.054186	-0.543748
C87	C	-3.439764	0.304186	-0.293748
C88	C	-3.189764	0.554186	-0.043748
C89	C	-3.946210	-0.121803	-0.673563
C90	C	-3.696210	0.128197	-0.423563
C91	C	-3.446210	0.378197	-0.173563
C92	C	-3.196210	0.628197	0.076437
C93	C	-3.860876	-0.041714	-0.771574
C94	C	-3.610876	0.208286	-0.521574
C95	C	-3.360876	0.458286	-0.271574
C96	C	-3.110876	0.708286	-0.021574
C97	C	-4.019941	-0.120869	-0.839945
C98	C	-3.769941	0.129131	-0.589945
C99	C	-3.519941	0.379131	-0.339945
C100	C	-3.269941	0.629131	-0.089945
C101	C	-4.105283	-0.201057	-0.741958
C102	C	-3.855283	0.048943	-0.491958
C103	C	-3.605283	0.298943	-0.241958
C104	C	-3.355283	0.548943	0.008042
C105	C	-4.026331	-0.046887	-0.719768
C106	C	-3.776331	0.203113	-0.469768
C107	C	-3.526331	0.453113	-0.219768
C108	C	-3.276331	0.703113	0.030232
C109	C	-4.186057	-0.126092	-0.789373
C110	C	-3.936057	0.123908	-0.539373
C111	C	-3.686057	0.373908	-0.289373
C112	C	-3.436057	0.623908	-0.039373
C113	C	-3.903731	-0.122342	-0.577715
C114	C	-3.653731	0.127658	-0.327715
C115	C	-3.403731	0.377658	-0.077715
C116	C	-3.153731	0.627658	0.172285
C117	C	-4.062438	-0.120337	-0.935792
C118	C	-3.812438	0.129663	-0.685792
C119	C	-3.562438	0.379663	-0.435792
C120	C	-3.312438	0.629663	-0.185792
C121	C	-4.152181	0.044018	-0.255075
C122	C	-3.902181	0.294018	-0.005075
C123	C	-3.652181	0.544018	0.244925
C124	C	-3.402181	0.794018	0.494925
C125	C	-4.085603	0.147400	-0.255595
C126	C	-3.835603	0.397400	-0.005595
C127	C	-3.585603	0.647400	0.244405
C128	C	-3.335603	0.897400	0.494405
C129	C	-4.158716	-0.119396	-0.106278
C130	C	-3.908716	0.130604	0.143722
C131	C	-3.658716	0.380604	0.393722
C132	C	-3.408716	0.630604	0.643722
C133	C	-4.096295	-0.119905	-0.012197
C134	C	-3.846295	0.130095	0.237803
C135	C	-3.596295	0.380095	0.487803
C136	C	-3.346295	0.630095	0.737803
H137	H	-3.608265	-0.112734	-0.695636
H138	H	-3.358265	0.137266	-0.445636
H139	H	-3.108265	0.387266	-0.195636
H140	H	-2.858265	0.637266	0.054364
Cl141	Cl	-4.264185	-0.305141	-0.721367
Cl142	Cl	-4.014185	-0.055141	-0.471367
Cl143	Cl	-3.764185	0.194859	-0.221367
Cl144	Cl	-3.514185	0.444859	0.028633
Cl145	Cl	-3.883956	-0.293025	-0.843471
Cl146	Cl	-3.633956	-0.043025	-0.593471
Cl147	Cl	-3.383956	0.206975	-0.343471
Cl148	Cl	-3.133956	0.456975	-0.093471
H149	H	-3.757944	0.025610	-0.785058
H150	H	-3.507944	0.275610	-0.535058
H151	H	-3.257944	0.525610	-0.285058
H152	H	-3.007944	0.775610	-0.035058
Cl153	Cl	-4.082019	0.050330	-0.670007
Cl154	Cl	-3.832019	0.300330	-0.420007
Cl155	Cl	-3.582019	0.550330	-0.170007
Cl156	Cl	-3.332019	0.800330	0.079993
Cl157	Cl	-4.451659	-0.132296	-0.833153
Cl158	Cl	-4.201659	0.117704	-0.583153
Cl159	Cl	-3.951659	0.367704	-0.333153
Cl160	Cl	-3.701659	0.617704	-0.083153
