data_functionalizedCrystal
_audit_creation_method	'MofGen! by Chris Wilmer'
_symmetry_space_group_name_H-M	'P1'
_symmetry_Int_Tables_number	1
_symmetry_cell_setting	triclinic
loop_
_symmetry_equiv_pos_as_xyz
  x,y,z
_cell_length_a	14.044220
_cell_length_b	27.732048
_cell_length_c	13.101039
_cell_angle_alpha	93.329410
_cell_angle_beta	86.340132
_cell_angle_gamma	87.915767
loop_
_atom_site_label
_atom_site_type_symbol
_atom_site_fract_x
_atom_site_fract_y
_atom_site_fract_z
O1	O	1.261246	0.114020	-0.085126
O2	O	0.985339	0.109817	-0.085151
O3	O	1.131860	0.041925	-0.085119
O4	O	1.114725	0.181913	-0.085159
O5	O	1.121348	0.046805	0.085309
O6	O	0.974827	0.114697	0.085276
O7	O	1.250733	0.118900	0.085301
Zn8	Zn	1.111111	0.117574	0.112348
Zn9	Zn	1.124962	0.111144	-0.112198
O10	O	1.104212	0.186793	0.085268
C11	C	0.944796	0.110418	0.000059
C12	C	0.839651	0.104930	0.000051
C13	C	0.647135	0.094899	0.000074
C14	C	0.588932	0.133816	0.000067
C15	C	0.481810	0.128235	0.000080
C16	C	0.754268	0.100480	0.000061
C17	C	1.126244	0.026341	0.000098
C18	C	1.125160	-0.027364	0.000106
C19	C	1.204929	-0.362438	0.000061
C20	C	1.200910	-0.564286	0.000046
O21	O	1.273853	-0.592120	0.000008
N22	N	1.114029	-0.587487	0.000039
C23	C	1.028146	-0.560223	0.000029
O24	O	0.954156	-0.584589	0.000012
C25	C	1.032166	-0.358376	0.000037
C26	C	1.119052	-0.335177	0.000054
C27	C	1.291808	-0.339239	0.000077
C28	C	1.292812	-0.288779	0.000086
C29	C	1.206935	-0.261519	0.000079
C30	C	1.120056	-0.284718	0.000063
C31	C	0.946285	-0.331113	0.000019
C32	C	0.947297	-0.280648	0.000018
C33	C	1.034184	-0.257449	0.000036
C34	C	1.035183	-0.206998	0.000066
N35	N	1.122064	-0.183797	0.000072
C36	C	1.207941	-0.211057	0.000079
C37	C	1.026042	-0.666196	0.000027
C38	C	1.025036	-0.716658	0.000027
C39	C	1.197801	-0.720717	0.000043
C40	C	1.198805	-0.670255	0.000050
C41	C	1.112923	-0.642995	0.000034
C42	C	1.210041	-0.105089	0.000100
C43	C	1.211037	-0.054625	0.000113
C44	C	1.038273	-0.050570	0.000093
C45	C	1.037276	-0.101030	0.000085
C46	C	1.123168	-0.128288	0.000085
O47	O	0.962280	-0.179134	0.000092
O48	O	1.281921	-0.186683	0.000073
C49	C	1.203925	-0.412897	0.000052
C50	C	1.117046	-0.436096	0.000035
C51	C	1.031169	-0.408835	0.000029
C52	C	1.116040	-0.486557	0.000035
C53	C	1.201917	-0.513818	0.000042
C54	C	1.288798	-0.490617	0.000049
C55	C	1.289802	-0.440157	0.000059
C56	C	0.944288	-0.432037	0.000022
C57	C	0.943292	-0.482496	0.000013
C58	C	1.029168	-0.509756	0.000020
C59	C	1.291277	0.118300	0.000088
C60	C	1.396422	0.123787	0.000090
C61	C	1.109828	0.202376	0.000050
C62	C	1.110913	0.256082	0.000034
N63	N	1.101664	0.121962	0.265594
N64	N	1.134415	0.106752	-0.265444
C65	C	1.088813	0.127936	0.474634
C66	C	1.147264	0.100779	0.525523
C67	C	1.140113	0.104104	0.641839
C68	C	1.095962	0.124612	0.358306
H69	H	0.616514	0.057393	0.000090
H70	H	0.619555	0.171325	0.000051
H71	H	1.202677	0.075033	0.481733
H72	H	0.954283	-0.735541	0.000031
O73	O	1.304754	-0.029603	0.000116
H74	H	1.364299	-0.057040	0.000104
O75	O	1.015424	0.162045	0.532625
H76	H	1.021265	0.159340	0.616207
O77	O	0.933401	-0.636800	0.000033
H78	H	0.896062	-0.647501	-0.069424
H79	H	0.875533	-0.349993	-0.000001
O80	O	1.302679	-0.134484	0.000118
H81	H	1.348588	-0.127750	-0.069330
O82	O	1.386532	-0.263765	0.000076
H83	H	1.423488	-0.272447	0.069531
O84	O	1.384438	-0.368637	0.000099
H85	H	1.445010	-0.344019	0.000121
H86	H	1.267725	-0.742921	0.000049
O87	O	1.292517	-0.645234	0.000049
H88	H	1.352059	-0.672673	0.000046
H89	H	0.877360	-0.258456	0.000004
H90	H	0.966524	-0.119918	0.000099
O91	O	0.945650	-0.021164	0.000084
H92	H	0.960954	0.017822	0.000081
O93	O	1.383516	-0.415139	0.000057
H94	H	1.443055	-0.442579	0.000047
H95	H	0.872532	-0.501380	0.000008
O96	O	1.381426	-0.520023	0.000057
H97	H	1.366120	-0.559009	0.000042
H98	H	0.874355	-0.409846	0.000014
