data_functionalizedCrystal
_audit_creation_method	'MofGen! by Chris Wilmer'
_symmetry_space_group_name_H-M	'P1'
_symmetry_Int_Tables_number	1
_symmetry_cell_setting	triclinic
loop_
_symmetry_equiv_pos_as_xyz
  x,y,z
_cell_length_a	8.597282
_cell_length_b	8.559649
_cell_length_c	7.088929
_cell_angle_alpha	84.674985
_cell_angle_beta	103.972939
_cell_angle_gamma	77.625070
loop_
_atom_site_label
_atom_site_type_symbol
_atom_site_fract_x
_atom_site_fract_y
_atom_site_fract_z
O1	O	0.035739	-2.103777	-0.153070
O2	O	-0.046707	-1.638460	-0.166659
O3	O	0.228467	-1.884154	-0.121322
O4	O	-0.239434	-1.858083	-0.198407
O5	O	0.265315	-1.916989	0.202724
O6	O	-0.009858	-1.671295	0.157387
O7	O	0.072587	-2.136612	0.170976
Cu8	Cu	0.034729	-1.906951	0.193769
Cu9	Cu	-0.008848	-1.868120	-0.189453
O10	O	-0.202586	-1.890917	0.125639
C11	C	-0.034531	-1.595339	-0.005667
C12	C	-0.053129	-1.417933	-0.008734
C13	C	0.306237	-1.899601	0.050474
C14	C	0.483069	-1.896688	0.079594
N15	N	0.065381	-1.934274	0.463307
C16	C	0.719643	-1.875471	-0.046161
C17	C	0.542811	-1.878383	-0.075290
C18	C	0.060411	-2.179732	0.009979
C19	C	0.079007	-2.357137	0.013033
N20	N	-0.039486	-1.840810	-0.458989
H21	H	0.567202	-1.910127	0.234481
F22	F	0.207424	-2.060908	0.593434
F23	F	0.432831	-1.860792	-0.277757
F24	F	-0.219606	-1.308563	-0.036177
F25	F	0.245473	-1.466496	0.040447
H26	H	-0.148161	-1.743945	0.441460
