data_functionalizedCrystal
_audit_creation_method	'MofGen! by Chris Wilmer'
_symmetry_space_group_name_H-M	'P1'
_symmetry_Int_Tables_number	1
_symmetry_cell_setting	triclinic
loop_
_symmetry_equiv_pos_as_xyz
  x,y,z
_cell_length_a	10.968094
_cell_length_b	14.971486
_cell_length_c	14.048226
_cell_angle_alpha	90.006640
_cell_angle_beta	102.121009
_cell_angle_gamma	95.826066
loop_
_atom_site_label
_atom_site_type_symbol
_atom_site_fract_x
_atom_site_fract_y
_atom_site_fract_z
O1	O	1.655801	-0.125418	0.192430
O2	O	1.292541	-0.137434	0.132845
O3	O	1.483907	-0.001278	0.164241
O4	O	1.464435	-0.261574	0.161034
O5	O	1.483884	-0.001270	0.322559
O6	O	1.292518	-0.137426	0.291162
O7	O	1.655778	-0.125410	0.350748
Zn8	Zn	1.474144	-0.131416	0.346092
Zn9	Zn	1.474175	-0.131427	0.137501
O10	O	1.464411	-0.261566	0.319351
C11	C	1.246041	-0.136557	0.204378
C12	C	1.107521	-0.133946	0.181657
C13	C	0.902578	-0.130069	0.230051
C14	C	1.045744	-0.132775	0.253544
C15	C	1.483025	0.032055	0.243257
C16	C	1.480415	0.131367	0.242828
C17	C	1.702278	-0.126286	0.279212
C18	C	1.840798	-0.128898	0.301927
C19	C	1.465294	-0.294899	0.240334
C20	C	1.467904	-0.394210	0.240756
N21	N	1.474133	-0.131409	0.488450
C22	C	1.592838	0.187991	0.261270
C23	C	1.590378	0.281303	0.260857
C24	C	1.475495	0.317990	0.242009
C25	C	1.363064	0.261358	0.223563
C26	C	1.365524	0.168048	0.223970
C27	C	1.357942	0.455848	0.222720
C28	C	1.355481	0.549165	0.222315
C29	C	1.582796	0.569104	0.259607
C30	C	1.585257	0.475793	0.260013
C31	C	1.472825	0.419168	0.241569
N32	N	1.474196	-0.131428	-0.004856
C33	C	1.558896	-0.071144	0.552175
C34	C	1.558905	-0.071143	0.651834
C35	C	1.474154	-0.131413	0.687767
C36	C	1.389382	-0.191680	0.624034
C37	C	1.389368	-0.191676	0.524376
C38	C	1.389418	-0.191687	0.831754
C39	C	1.389432	-0.191693	0.931419
C40	C	1.558954	-0.071155	0.959212
C41	C	1.558941	-0.071150	0.859554
C42	C	1.474169	-0.131419	0.795828
H43	H	1.686389	0.158128	0.276623
Br44	Br	1.212945	0.091199	0.198933
H45	H	1.627925	-0.022071	0.703719
H46	H	0.893898	-0.129894	0.380856
H47	H	1.320383	-0.240762	0.779870
Br48	Br	1.673931	0.010649	0.503422
H49	H	1.261933	0.579032	0.206983
Br50	Br	1.742959	0.358148	0.285885
H51	H	1.266388	0.409746	0.207698
Br52	Br	1.741172	0.426004	0.285590
H53	H	1.269523	0.291236	0.208211
Br54	Br	1.019037	-0.132300	0.050092
H55	H	1.627977	-0.022082	1.011104
Br56	Br	1.673969	0.010636	0.810786
H57	H	0.849480	-0.129064	0.151122
Br58	Br	1.134230	-0.134430	0.385108
Br59	Br	1.274409	-0.273491	0.980178
Br60	Br	1.274351	-0.273470	0.672795
Br61	Br	1.735383	0.645951	0.284636
Br62	Br	1.274318	-0.273461	0.437890
