data_functionalizedCrystal
_audit_creation_method	'MofGen! by Chris Wilmer'
_symmetry_space_group_name_H-M	'P1'
_symmetry_Int_Tables_number	1
_symmetry_cell_setting	triclinic
loop_
_symmetry_equiv_pos_as_xyz
  x,y,z
_cell_length_a	21.395362
_cell_length_b	19.077068
_cell_length_c	21.395355
_cell_angle_alpha	92.279051
_cell_angle_beta	89.956060
_cell_angle_gamma	92.343691
loop_
_atom_site_label
_atom_site_type_symbol
_atom_site_fract_x
_atom_site_fract_y
_atom_site_fract_z
Zn1	Zn	0.947861	-0.279990	-0.364586
Zn2	Zn	1.447861	0.220010	0.135414
Zn3	Zn	0.943561	-0.397672	-0.264012
Zn4	Zn	1.443561	0.102328	0.235988
Zn5	Zn	0.843074	-0.280023	-0.259789
Zn6	Zn	1.343074	0.219977	0.240211
Zn7	Zn	0.838842	-0.397686	-0.368717
Zn8	Zn	1.338842	0.102314	0.131283
O9	O	0.893334	-0.338843	-0.314276
O10	O	1.393334	0.161157	0.185724
O11	O	1.034969	-0.295581	-0.351283
O12	O	1.534969	0.204419	0.148717
O13	O	0.930203	-0.382073	-0.175774
O14	O	1.430203	0.117927	0.324226
O15	O	0.860546	-0.181525	-0.270194
O16	O	1.360546	0.318475	0.229806
O17	O	1.031810	-0.382041	-0.277392
O18	O	1.531810	0.117959	0.222608
O19	O	0.937532	-0.181501	-0.347188
O20	O	1.437532	0.318499	0.152812
O21	O	0.856376	-0.295637	-0.172671
O22	O	1.356376	0.204363	0.327329
O23	O	0.754834	-0.295651	-0.274200
O24	O	1.254834	0.204349	0.225800
O25	O	0.853331	-0.382066	-0.455847
O26	O	1.353331	0.117934	0.044153
O27	O	0.751725	-0.382098	-0.354229
O28	O	1.251725	0.117902	0.145771
O29	O	0.933427	-0.295595	-0.452812
O30	O	1.433427	0.204405	0.047188
O31	O	0.926098	-0.496167	-0.281398
O32	O	1.426098	0.003833	0.218602
O33	O	0.849162	-0.496177	-0.358324
O34	O	1.349162	0.003823	0.141676
C35	C	0.730545	-0.338880	-0.314205
C36	C	1.230545	0.161120	0.185795
C37	C	0.660903	-0.338913	-0.314190
C38	C	1.160903	0.161087	0.185810
C39	C	0.626585	-0.383985	-0.355803
C40	C	1.126585	0.116015	0.144197
C41	C	0.561150	-0.383968	-0.355830
C42	C	1.061150	0.116032	0.144170
C43	C	0.530036	-0.338886	-0.314233
C44	C	1.030036	0.161114	0.185767
C45	C	0.564362	-0.293804	-0.272617
C46	C	1.064362	0.206196	0.227383
C47	C	0.629796	-0.293818	-0.272595
C48	C	1.129796	0.206182	0.227405
C49	C	0.426513	-0.333216	-0.257626
C50	C	0.926513	0.166784	0.242374
C51	C	0.361081	-0.333207	-0.257647
C52	C	0.861081	0.166793	0.242353
C53	C	0.328216	-0.338840	-0.314301
C54	C	0.828216	0.161160	0.185699
C55	C	0.360792	-0.344496	-0.370937
C56	C	0.860792	0.155504	0.129063
C57	C	0.426226	-0.344510	-0.370915
C58	C	0.926226	0.155490	0.129085
C59	C	0.459084	-0.338866	-0.314253
C60	C	0.959084	0.161134	0.185747
C61	C	0.222946	-0.383896	-0.355947
C62	C	0.722946	0.116104	0.144053
C63	C	0.157511	-0.383874	-0.355976
C64	C	0.657511	0.116126	0.144024
C65	C	0.160724	-0.293714	-0.272756
C66	C	0.660724	0.206286	0.227244
C67	C	0.226158	-0.293732	-0.272734
C68	C	0.726158	0.206268	0.227266
C69	C	0.257266	-0.338827	-0.314328
C70	C	0.757266	0.161173	0.185672
C71	C	0.886721	-0.521710	-0.320781
C72	C	1.386721	-0.021710	0.179219
C73	C	0.883949	-0.599942	-0.323585
C74	C	1.383949	-0.099942	0.176415
C75	C	0.922735	-0.636666	-0.284884
C76	C	1.422735	-0.136666	0.215116
C77	C	0.920132	-0.710173	-0.287525
C78	C	1.420132	-0.210173	0.212475
C79	C	0.878739	-0.746954	-0.328864
C80	C	1.378739	-0.246954	0.171136
C81	C	0.839952	-0.710224	-0.367570
C82	C	1.339952	-0.210224	0.132430
C83	C	0.842559	-0.636719	-0.364931
C84	C	1.342559	-0.136719	0.135069
C85	C	0.866647	-0.966795	-0.341049
C86	C	1.366647	-0.466795	0.158951
C87	C	0.864041	-1.040305	-0.343683
C88	C	1.364041	-0.540305	0.156317
C89	C	0.944222	-1.040249	-0.263639
C90	C	1.444222	-0.540249	0.236361
C91	C	0.946823	-0.966742	-0.261002
C92	C	1.446823	-0.466742	0.238998
C93	C	0.908038	-0.930019	-0.299709
C94	C	1.408038	-0.430019	0.200291
N95	N	0.876076	-0.822090	-0.331564
N96	N	1.376076	-0.322090	0.168436
N97	N	0.910705	-0.854884	-0.297013
N98	N	1.410705	-0.354884	0.202987
C99	C	1.056759	-0.338806	-0.314348
C100	C	1.556759	0.161194	0.185652
C101	C	1.126401	-0.338790	-0.314379
C102	C	1.626401	0.161210	0.185621
C103	C	0.893387	-0.338828	-0.477699
C104	C	1.393387	0.161172	0.022301
C105	C	0.893409	-0.338822	-0.547340
C106	C	1.393409	0.161178	-0.047340
C107	C	0.899990	-0.155261	-0.307759
C108	C	1.399990	0.344739	0.192241
C109	C	0.902827	-0.077030	-0.304982
C110	C	1.402827	0.422970	0.195018
C111	C	0.935113	-0.293795	-0.578474
C112	C	1.435113	0.206205	-0.078474
C113	C	0.935114	-0.293765	-0.643908
C114	C	1.435114	0.206235	-0.143908
C115	C	0.893416	-0.338774	-0.678207
C116	C	1.393416	0.161226	-0.178207
C117	C	0.851704	-0.383805	-0.647065
C118	C	1.351704	0.116195	-0.147065
C119	C	0.851700	-0.383829	-0.581632
C120	C	1.351700	0.116171	-0.081632
C121	C	0.886177	-0.402150	-0.784134
C122	C	1.386177	0.097850	-0.284134
C123	C	0.886184	-0.402127	-0.849566
C124	C	1.386184	0.097873	-0.349566
C125	C	0.893422	-0.338700	-0.880025
C126	C	1.393422	0.161300	-0.380025
C127	C	0.900666	-0.275294	-0.845043
C128	C	1.400666	0.224706	-0.345043
C129	C	0.900663	-0.275318	-0.779610
C130	C	1.400663	0.224682	-0.279610
C131	C	0.893414	-0.338753	-0.749158
C132	C	1.393414	0.161247	-0.249158
C133	C	0.935129	-0.293636	-0.982110
C134	C	1.435129	0.206364	-0.482110
C135	C	0.935125	-0.293605	-1.047545
C136	C	1.435125	0.206395	-0.547545
C137	C	0.851718	-0.383651	-1.050701
C138	C	1.351718	0.116349	-0.550701
C139	C	0.851719	-0.383676	-0.985267
C140	C	1.351719	0.116324	-0.485267
C141	C	0.893428	-0.338670	-0.950975
C142	C	1.393428	0.161330	-0.450975
C143	C	0.893320	-0.338806	-0.151487
C144	C	1.393320	0.161194	0.348513
C145	C	0.893426	-0.338614	-0.081839
C146	C	1.393426	0.161386	0.418161
H147	H	0.254101	-0.257033	-0.238845
H148	H	0.754101	0.242967	0.261155
C149	C	0.836860	-0.944161	-0.446291
C150	C	1.336860	-0.444161	0.053709
C151	C	0.824003	-0.926440	-0.383588
C152	C	1.324003	-0.426440	0.116412
H153	H	0.810526	-0.919250	-0.472552
H154	H	1.310526	-0.419250	0.027448
H155	H	0.879374	-0.932047	-0.455082
H156	H	1.379374	-0.432047	0.044918
H157	H	0.829388	-0.993205	-0.453765
H158	H	1.329388	-0.493205	0.046235
H159	H	0.831479	-0.877397	-0.376113
H160	H	1.331479	-0.377397	0.123887
H161	H	0.781479	-0.938550	-0.374794
H162	H	1.281479	-0.438550	0.125206
H163	H	0.980528	-0.936796	-0.227340
H164	H	1.480528	-0.436796	0.272660
H165	H	0.956438	-0.606724	-0.251219
H166	H	1.456438	-0.106724	0.248781
H167	H	0.817737	-0.420495	-0.556283
H168	H	1.317737	0.079505	-0.056283
C169	C	0.160911	-0.473009	-0.438217
C170	C	0.660911	0.026991	0.061783
C171	C	0.119785	-0.433425	-0.401718
C172	C	0.619785	0.066575	0.098282
H173	H	0.137619	-0.503604	-0.466453
H174	H	0.637619	-0.003604	0.033547
H175	H	0.187579	-0.442394	-0.461133
H176	H	0.687579	0.057606	0.038867
H177	H	0.185419	-0.499886	-0.411815
H178	H	0.685419	0.000114	0.088185
H179	H	0.095280	-0.406544	-0.428120
H180	H	0.595280	0.093456	0.071880
H181	H	0.093106	-0.464044	-0.378801
H182	H	0.593106	0.035956	0.121199
C183	C	1.001595	-0.792590	-0.282012
C184	C	1.501595	-0.292590	0.217988
C185	C	0.962870	-0.750476	-0.245037
C186	C	1.462870	-0.250476	0.254963
H187	H	1.028015	-0.817448	-0.255796
H188	H	1.528015	-0.317448	0.244204
H189	H	0.976574	-0.825063	-0.306955
H190	H	1.476574	-0.325063	0.193045
H191	H	1.026466	-0.763816	-0.308356
H192	H	1.526466	-0.263816	0.191644
H193	H	0.937996	-0.779250	-0.218697
H194	H	1.437996	-0.279250	0.281303
H195	H	0.987894	-0.717998	-0.220084
H196	H	1.487894	-0.217998	0.279916
C197	C	0.975841	-1.152902	-0.232152
C198	C	1.475841	-0.652902	0.267848
C199	C	0.986864	-1.080616	-0.221105
C200	C	1.486864	-0.580616	0.278895
H201	H	1.002174	-1.177821	-0.205896
H202	H	1.502174	-0.677821	0.294104
H203	H	0.933327	-1.165006	-0.223355
H204	H	1.433327	-0.665006	0.276645
H205	H	0.984559	-1.164902	-0.274696
H206	H	1.484559	-0.664902	0.225304
H207	H	0.978141	-1.068615	-0.178562
H208	H	1.478141	-0.568615	0.321438
H209	H	1.029388	-1.068508	-0.229897
H210	H	1.529388	-0.568508	0.270103
C211	C	0.285482	-0.386448	-0.189322
C212	C	0.785482	0.113552	0.310678
C213	C	0.325281	-0.327000	-0.195391
C214	C	0.825281	0.173000	0.304609
H215	H	0.263386	-0.382619	-0.150884
H216	H	0.763386	0.117381	0.349116
H217	H	0.256545	-0.389799	-0.223058
H218	H	0.756545	0.110201	0.276942
H219	H	0.309525	-0.427242	-0.189897
H220	H	0.809525	0.072758	0.310103
H221	H	0.301237	-0.286206	-0.194821
H222	H	0.801237	0.213794	0.305179
H223	H	0.354221	-0.323642	-0.161646
H224	H	0.854221	0.176358	0.338354
C225	C	0.170476	-0.204596	-0.190500
C226	C	0.670476	0.295404	0.309500
C227	C	0.126531	-0.244154	-0.227033
C228	C	0.626531	0.255846	0.272967
H229	H	0.149364	-0.173995	-0.162276
H230	H	0.649364	0.326005	0.337724
H231	H	0.194847	-0.235227	-0.167570
H232	H	0.694847	0.264773	0.332430
H233	H	0.197015	-0.177727	-0.216880
H234	H	0.697015	0.322273	0.283120
H235	H	0.099996	-0.271027	-0.200653
H236	H	0.599996	0.228973	0.299347
H237	H	0.102150	-0.213519	-0.249965
H238	H	0.602150	0.286481	0.250035
C239	C	0.763042	-0.644153	-0.444315
C240	C	1.263042	-0.144153	0.055685
C241	C	0.799925	-0.596349	-0.407474
C242	C	1.299925	-0.096349	0.092526
H243	H	0.736722	-0.619229	-0.470579
H244	H	1.236722	-0.119229	0.029421
H245	H	0.789315	-0.672776	-0.469339
H246	H	1.289315	-0.172776	0.030661
H247	H	0.738068	-0.672867	-0.418012
H248	H	1.238068	-0.172867	0.081988
H249	H	0.824903	-0.567638	-0.433778
H250	H	1.324903	-0.067638	0.066222
H251	H	0.773650	-0.567713	-0.382448
H252	H	1.273650	-0.067713	0.117552
C253	C	0.800348	-0.822927	-0.407150
C254	C	1.300348	-0.322927	0.092850
C255	C	0.794450	-0.750652	-0.413009
C256	C	1.294450	-0.250652	0.086991
H257	H	0.772252	-0.847882	-0.435200
H258	H	1.272252	-0.347882	0.064800
H259	H	0.842010	-0.834914	-0.416805
H260	H	1.342010	-0.334914	0.083195
H261	H	0.790771	-0.834999	-0.365471
H262	H	1.290771	-0.334999	0.134529
H263	H	0.804032	-0.738579	-0.454687
H264	H	1.304032	-0.238579	0.045313
H265	H	0.752779	-0.738660	-0.403358
H266	H	1.252779	-0.238660	0.096642
C267	C	0.420225	-0.322083	-0.145640
C268	C	0.920225	0.177917	0.354360
C269	C	0.462633	-0.327035	-0.195345
C270	C	0.962633	0.172965	0.304655
H271	H	0.442524	-0.318274	-0.107193
H272	H	0.942524	0.181726	0.392807
H273	H	0.396191	-0.281748	-0.149774
H274	H	0.896191	0.218252	0.350226
H275	H	0.393204	-0.362875	-0.146241
H276	H	0.893204	0.137125	0.353759
H277	H	0.489651	-0.286241	-0.194747
H278	H	0.989651	0.213759	0.305253
H279	H	0.486678	-0.367374	-0.191210
H280	H	0.986678	0.132626	0.308790
H281	H	0.539024	-0.257097	-0.238749
H282	H	1.039024	0.242903	0.261251
H283	H	0.657737	-0.257112	-0.238708
H284	H	1.157737	0.242888	0.261292
H285	H	0.969075	-0.257146	-0.550557
H286	H	1.469075	0.242854	-0.050557
C287	C	1.017570	-0.204774	-0.634223
C288	C	1.517570	0.295226	-0.134223
C289	C	0.980962	-0.244272	-0.678140
C290	C	1.480962	0.255728	-0.178140
H291	H	1.045877	-0.174224	-0.655357
H292	H	1.545877	0.325776	-0.155357
H293	H	0.991250	-0.177861	-0.607724
H294	H	1.491250	0.322139	-0.107724
H295	H	1.040418	-0.235453	-0.609811
H296	H	1.540418	0.264547	-0.109811
H297	H	0.958110	-0.213593	-0.702549
H298	H	1.458110	0.286407	-0.202549
H299	H	1.007285	-0.271186	-0.704651
H300	H	1.507285	0.228814	-0.204651
C301	C	0.859949	-0.162004	-0.755376
C302	C	1.359949	0.337996	-0.255376
C303	C	0.908614	-0.205625	-0.741157
C304	C	1.408614	0.294375	-0.241157
H305	H	0.864855	-0.118980	-0.731634
H306	H	1.364855	0.381020	-0.231634
H307	H	0.860994	-0.152911	-0.798699
H308	H	1.360994	0.347089	-0.298699
H309	H	0.820994	-0.184535	-0.745430
H310	H	1.320994	0.315465	-0.245430
H311	H	0.947570	-0.183096	-0.751108
H312	H	1.447570	0.316904	-0.251108
H313	H	0.907576	-0.214717	-0.697825
H314	H	1.407576	0.285283	-0.197825
C315	C	0.852369	-1.122946	-0.430910
C316	C	1.352369	-0.622946	0.069090
C317	C	0.818542	-1.080742	-0.389126
C318	C	1.318542	-0.580742	0.110874
H319	H	0.824280	-1.147913	-0.458958
H320	H	1.324280	-0.647913	0.041042
H321	H	0.880668	-1.094225	-0.453881
H322	H	1.380668	-0.594225	0.046119
H323	H	0.875094	-1.155330	-0.408226
H324	H	1.375094	-0.655330	0.091774
H325	H	0.795821	-1.048354	-0.411810
H326	H	1.295821	-0.548354	0.088190
H327	H	0.790233	-1.109465	-0.366153
H328	H	1.290233	-0.609465	0.133847
H329	H	0.817761	-0.420292	-1.078627
H330	H	1.317761	0.079708	-0.578627
H331	H	0.817751	-0.420450	-0.674995
H332	H	1.317751	0.079550	-0.174995
H333	H	0.906561	-0.223645	-0.869841
H334	H	1.406561	0.276355	-0.369841
H335	H	0.248275	-0.420611	-0.389819
H336	H	0.748275	0.079389	0.110181
C337	C	1.017567	-0.204620	-0.985560
C338	C	1.517567	0.295380	-0.485560
C339	C	0.980967	-0.244158	-0.944411
C340	C	1.480967	0.255842	-0.444411
H341	H	1.045861	-0.174072	-0.962286
H342	H	1.545861	0.325928	-0.462286
H343	H	1.040423	-0.235269	-1.012194
H344	H	1.540423	0.264731	-0.512194
H345	H	0.991236	-0.177697	-1.010100
H346	H	1.491236	0.322303	-0.510100
H347	H	1.007297	-0.271085	-0.919874
H348	H	1.507297	0.228915	-0.419874
H349	H	0.958109	-0.213506	-0.917766
H350	H	1.458109	0.286494	-0.417766
C351	C	0.947266	-0.198888	-1.117740
C352	C	1.447266	0.301112	-0.617740
C353	C	0.980966	-0.244098	-1.081766
C354	C	1.480966	0.255902	-0.581766
H355	H	0.975567	-0.168321	-1.138862
H356	H	1.475567	0.331679	-0.638862
H357	H	0.922437	-0.225686	-1.147530
H358	H	1.422437	0.274314	-0.647530
H359	H	0.920944	-0.171988	-1.091221
H360	H	1.420944	0.328012	-0.591221
H361	H	1.007285	-0.271002	-1.108286
H362	H	1.507285	0.228998	-0.608286
H363	H	1.005805	-0.217297	-1.051973
H364	H	1.505805	0.282703	-0.551973
H365	H	0.817763	-0.420347	-0.959918
H366	H	1.317763	0.079653	-0.459918
C367	C	0.871854	-0.527497	-0.847465
C368	C	1.371854	-0.027497	-0.347465
C369	C	0.878221	-0.471821	-0.888015
C370	C	1.378221	0.028179	-0.388015
H371	H	0.866934	-0.570523	-0.871201
H372	H	1.366934	-0.070523	-0.371201
H373	H	0.908136	-0.528416	-0.822003
H374	H	1.408136	-0.028416	-0.322003
H375	H	0.836168	-0.521315	-0.821695
H376	H	1.336168	-0.021315	-0.321695
H377	H	0.913910	-0.478001	-0.913781
H378	H	1.413910	0.021999	-0.413781
H379	H	0.841935	-0.470903	-0.913487
H380	H	1.341935	0.029097	-0.413487
C381	C	0.930788	-0.481041	-0.713418
C382	C	1.430788	0.018959	-0.213418
C383	C	0.878200	-0.471891	-0.750685
C384	C	1.378200	0.028109	-0.250685
H385	H	0.925854	-0.524098	-0.692774
H386	H	1.425854	-0.024098	-0.192774
H387	H	0.967074	-0.481934	-0.738995
H388	H	1.467074	0.018066	-0.238995
H389	H	0.935094	-0.443302	-0.683203
H390	H	1.435094	0.056698	-0.183203
H391	H	0.873898	-0.509628	-0.780903
H392	H	1.373898	-0.009628	-0.280903
H393	H	0.841905	-0.471004	-0.725105
H394	H	1.341905	0.028996	-0.225105
H395	H	0.533203	-0.420671	-0.389719
H396	H	1.033203	0.079329	0.110281
C397	C	0.616831	-0.473103	-0.438063
C398	C	1.116831	0.026897	0.061937
C399	C	0.660777	-0.433546	-0.401529
C400	C	1.160777	0.066454	0.098471
H401	H	0.637943	-0.503695	-0.466295
H402	H	1.137943	-0.003695	0.033705
H403	H	0.590299	-0.499974	-0.411688
H404	H	1.090299	0.000026	0.088312
H405	H	0.592455	-0.442464	-0.460990
H406	H	1.092455	0.057536	0.039010
H407	H	0.685151	-0.464185	-0.378598
H408	H	1.185151	0.035815	0.121402
H409	H	0.687320	-0.406674	-0.427907
H410	H	1.187320	0.093326	0.072093
H411	H	0.334036	-0.349081	-0.417070
H412	H	0.834036	0.150919	0.082930
C413	C	0.419377	-0.355655	-0.482901
C414	C	0.919377	0.144345	0.017099
C415	C	0.462034	-0.350716	-0.433165
C416	C	0.962034	0.149284	0.066835
H417	H	0.441486	-0.359480	-0.521331
H418	H	0.941486	0.140520	-0.021331
H419	H	0.392377	-0.395977	-0.478782
H420	H	0.892377	0.104023	0.021218
H421	H	0.395347	-0.314851	-0.482324
H422	H	0.895347	0.185149	0.017676
H423	H	0.486062	-0.391522	-0.433739
H424	H	0.986062	0.108478	0.066261
H425	H	0.489046	-0.310390	-0.437285
H426	H	0.989046	0.189610	0.062715
