data_functionalizedCrystal
_audit_creation_method	'MofGen! by Chris Wilmer'
_symmetry_space_group_name_H-M	'P1'
_symmetry_Int_Tables_number	1
_symmetry_cell_setting	triclinic
loop_
_symmetry_equiv_pos_as_xyz
  x,y,z
_cell_length_a	6.817900
_cell_length_b	13.466082
_cell_length_c	13.212919
_cell_angle_alpha	87.480811
_cell_angle_beta	106.298290
_cell_angle_gamma	111.116375
loop_
_atom_site_label
_atom_site_type_symbol
_atom_site_fract_x
_atom_site_fract_y
_atom_site_fract_z
V1	V	-4.074289	-0.115998	-0.326276
O2	O	-4.019619	0.037830	-0.319085
O3	O	-4.065182	-0.261028	-0.324988
O4	O	-4.028504	-0.100061	-0.468147
O5	O	-4.056550	-0.124251	-0.174935
V6	V	-4.552487	-0.099271	-0.308060
O7	O	-4.347229	-0.152691	-0.366235
O8	O	-4.729744	-0.062578	-0.268102
O9	O	-4.338387	0.045758	-0.309349
O10	O	-4.724554	-0.253099	-0.315252
O11	O	-4.687623	-0.091018	-0.459402
O12	O	-4.375065	-0.115209	-0.166190
C13	C	-3.919657	-0.296825	-0.320084
C14	C	-3.993515	-0.415297	-0.319976
C15	C	-3.872870	-0.091494	-0.502696
C16	C	-3.916979	-0.079423	-0.618682
C17	C	-3.764838	-0.628076	-0.309268
C18	C	-3.834225	-0.739391	-0.309166
C19	C	-4.201670	-0.749243	-0.319662
C20	C	-4.132283	-0.637929	-0.319764
C21	C	-3.913864	-0.577349	-0.314569
C22	C	-3.844482	-0.466032	-0.314678
C23	C	-4.211922	-0.475886	-0.325167
C24	C	-4.281309	-0.587201	-0.325065
C25	C	-4.134103	-0.248942	-0.867704
C26	C	-4.175552	-0.237605	-0.976684
C27	C	-4.041339	-0.045415	-0.945624
C28	C	-3.999891	-0.056751	-0.836644
C29	C	-4.046274	-0.158518	-0.797689
C30	C	-4.004810	-0.169854	-0.688706
C31	C	-3.870614	0.022336	-0.657649
C32	C	-3.912062	0.033672	-0.766629
C33	C	-4.147256	0.081550	-0.314250
C34	C	-4.052637	0.200021	-0.314365
C35	C	-4.194043	-0.123779	-0.131635
C36	C	-4.129170	-0.135845	-0.015648
H37	H	-3.666638	-0.416710	-0.310453
H38	H	-3.587000	-0.578752	-0.305051
F39	F	-4.513756	-0.651685	-0.330585
H40	H	-4.247067	-0.311238	-1.033688
F41	F	-3.862709	0.141974	-0.808100
F42	F	-3.992000	0.062884	-0.987103
F43	F	-3.777118	0.118578	-0.583124
F44	F	-4.370539	-0.421891	-0.330817
H45	H	-3.712870	-0.780689	-0.304854
H46	H	-4.042569	-0.252717	-0.656991
F47	F	-4.434105	-0.813732	-0.325164
H48	H	-4.171846	-0.331804	-0.835985
