data_functionalizedCrystal
_audit_creation_method	'MofGen! by Chris Wilmer'
_symmetry_space_group_name_H-M	'P1'
_symmetry_Int_Tables_number	1
_symmetry_cell_setting	triclinic
loop_
_symmetry_equiv_pos_as_xyz
  x,y,z
_cell_length_a	15.944545
_cell_length_b	15.944551
_cell_length_c	15.021413
_cell_angle_alpha	89.996935
_cell_angle_beta	90.004532
_cell_angle_gamma	83.497455
loop_
_atom_site_label
_atom_site_type_symbol
_atom_site_fract_x
_atom_site_fract_y
_atom_site_fract_z
O1	O	1.114532	0.108296	0.073976
O2	O	0.869982	0.121657	0.073991
O3	O	0.998935	-0.007298	0.073975
O4	O	0.985579	0.237252	0.073992
O5	O	0.998915	-0.007280	-0.074089
O6	O	0.869961	0.121676	-0.074073
O7	O	1.114512	0.108314	-0.074088
Zn8	Zn	0.992233	0.114998	-0.097589
Zn9	Zn	0.992260	0.114974	0.097492
O10	O	0.985558	0.237270	-0.074072
C11	C	0.838677	0.121113	-0.000039
C12	C	0.745431	0.119453	-0.000034
C13	C	0.998370	-0.038583	-0.000057
C14	C	0.996708	-0.131829	-0.000057
C15	C	0.474798	0.034559	-0.000049
C16	C	0.525370	0.075497	-0.073052
C17	C	0.409787	0.113532	-0.000050
C18	C	0.525371	0.075500	0.072928
C19	C	0.574701	0.116437	-0.000040
C20	C	0.459131	0.154449	-0.073113
C21	C	0.459128	0.154440	0.072933
C22	C	0.509667	0.195436	-0.000088
C23	C	0.314785	0.111856	-0.000056
C24	C	0.669700	0.118119	-0.000041
C25	C	0.912803	-0.346684	-0.000040
C26	C	0.951756	-0.407693	-0.073047
C27	C	0.993701	-0.302555	-0.000050
C28	C	0.951795	-0.407695	0.072933
C29	C	0.990790	-0.467468	-0.000040
C30	C	1.032675	-0.362336	-0.073118
C31	C	1.032703	-0.362331	0.072928
C32	C	1.071715	-0.423322	-0.000097
C33	C	0.995375	-0.207553	-0.000057
C34	C	0.989122	-0.562469	-0.000039
C35	C	1.145816	0.108859	-0.000056
C36	C	1.239062	0.110519	-0.000055
C37	C	0.986123	0.268555	-0.000038
C38	C	0.987785	0.361801	-0.000032
N39	N	0.992221	0.115014	-0.230727
C40	C	0.932584	0.174615	-0.470402
C41	C	1.008484	0.190920	-0.529740
C42	C	0.992242	0.114993	-0.412333
C43	C	0.916362	0.098706	-0.529737
C44	C	0.992256	0.114975	-0.587757
C45	C	1.068181	0.131336	-0.470365
C46	C	0.976009	0.039089	-0.470357
C47	C	1.051965	0.055362	-0.529668
C48	C	0.992233	0.115006	-0.311276
C49	C	0.992274	0.114961	-0.688813
N50	N	0.992279	0.114951	0.230630
H51	H	0.459145	-0.033453	-0.000125
O52	O	0.563718	0.031286	0.154656
H53	H	0.596139	0.076393	0.194782
H54	H	0.525159	0.263501	-0.000126
H55	H	1.022227	0.255103	-0.555824
H56	H	1.138922	-0.456483	-0.000142
H57	H	0.882183	0.225076	-0.444381
O58	O	0.420775	0.198566	0.154688
H59	H	0.447431	0.165632	0.215201
H60	H	1.132371	0.145180	-0.444394
H61	H	1.102477	0.004931	-0.555526
H62	H	0.917531	-0.427793	-0.134765
H63	H	1.066854	-0.342338	-0.134907
O64	O	1.078001	-0.335663	0.154678
H65	H	1.044297	-0.353615	0.215195
H66	H	0.430313	0.187784	-0.134897
H67	H	0.962243	-0.025073	-0.444252
H68	H	0.917577	-0.427778	0.134659
H69	H	0.554292	0.042152	-0.134775
O70	O	0.831359	0.080461	-0.564290
H71	H	0.788826	0.071975	-0.507298
O72	O	0.823864	-0.302549	-0.000125
H73	H	0.790475	-0.320590	-0.060818
