data_functionalizedCrystal
_audit_creation_method	'MofGen! by Chris Wilmer'
_symmetry_space_group_name_H-M	'P1'
_symmetry_Int_Tables_number	1
_symmetry_cell_setting	triclinic
loop_
_symmetry_equiv_pos_as_xyz
  x,y,z
_cell_length_a	10.654550
_cell_length_b	13.262529
_cell_length_c	9.130313
_cell_angle_alpha	74.080629
_cell_angle_beta	90.004369
_cell_angle_gamma	95.542373
loop_
_atom_site_label
_atom_site_type_symbol
_atom_site_fract_x
_atom_site_fract_y
_atom_site_fract_z
O1	O	0.169148	-1.393901	0.677039
O2	O	0.187543	-1.088452	0.555370
O3	O	-0.004430	-1.248199	0.618993
O4	O	0.361122	-1.234154	0.613416
O5	O	-0.004436	-1.248188	0.375389
O6	O	0.187538	-1.088441	0.311767
O7	O	0.169143	-1.393890	0.433435
Cu8	Cu	0.178340	-1.241165	0.350358
Cu9	Cu	0.178346	-1.241178	0.638447
O10	O	0.361116	-1.234143	0.369813
C11	C	0.186510	-1.049335	0.417989
C12	C	0.183424	-0.932795	0.371568
C13	C	0.181973	-0.878045	0.216963
C14	C	0.179062	-0.768551	0.173337
C15	C	0.177611	-0.713795	0.284311
C16	C	0.179071	-0.768544	0.438919
C17	C	0.181973	-0.878049	0.482550
C18	C	0.177610	-0.713799	0.549897
C19	C	0.179070	-0.768548	0.704505
C20	C	0.181972	-0.878042	0.748128
C21	C	0.183423	-0.932799	0.637155
C22	C	0.174709	-0.604293	0.506266
C23	C	0.174708	-0.604297	0.771852
C24	C	0.177619	-0.713791	0.815479
C25	C	-0.051225	-1.247163	0.496781
C26	C	-0.190653	-1.244077	0.495554
C27	C	-0.270627	-1.338134	0.533020
C28	C	-0.401633	-1.335228	0.531880
C29	C	-0.372676	-1.144201	0.455800
C30	C	-0.241673	-1.147107	0.456950
C31	C	0.407911	-1.235179	0.492028
C32	C	0.547339	-1.238265	0.493264
C33	C	0.170175	-0.433008	0.570819
C34	C	0.173257	-0.549548	0.617248
N35	N	0.178334	-1.241163	0.147735
C36	C	0.093364	-1.311923	0.099265
C37	C	0.093365	-1.311933	-0.054068
C38	C	0.263316	-1.170419	-0.110448
C39	C	0.263308	-1.170405	0.042880
N40	N	0.178342	-1.241187	0.841074
H41	H	0.173530	-0.559727	0.380383
H42	H	-0.176554	-1.070510	0.426444
H43	H	0.024171	-1.369537	0.184635
H44	H	0.175243	-0.624640	0.248781
H45	H	0.185798	-1.021957	0.672667
H46	H	0.178808	-0.758383	0.941363
H47	H	0.173528	-0.559715	0.862217
Cl48	Cl	0.183784	-0.946869	0.942494
H49	H	-0.414234	-1.065251	0.424367
Cl50	Cl	-0.206492	-1.460038	0.581554
H51	H	-0.466744	-1.411819	0.562392
H52	H	0.177857	-0.723984	0.047456
Cl53	Cl	-0.013462	-1.400891	-0.114997
Cl54	Cl	0.370141	-1.081475	-0.242269
H55	H	0.332502	-1.112778	0.082343
H56	H	0.183145	-0.922639	0.126626
