data_functionalizedCrystal
_audit_creation_method	'MofGen! by Chris Wilmer'
_symmetry_space_group_name_H-M	'P1'
_symmetry_Int_Tables_number	1
_symmetry_cell_setting	triclinic
loop_
_symmetry_equiv_pos_as_xyz
  x,y,z
_cell_length_a	15.944551
_cell_length_b	14.044220
_cell_length_c	13.101039
_cell_angle_alpha	93.659868
_cell_angle_beta	93.361595
_cell_angle_gamma	91.656192
loop_
_atom_site_label
_atom_site_type_symbol
_atom_site_fract_x
_atom_site_fract_y
_atom_site_fract_z
O1	O	0.198266	-1.262927	-0.085109
O2	O	0.698266	-0.762927	0.414891
O3	O	0.190957	-0.986959	-0.085135
O4	O	0.690957	-0.486959	0.414865
O5	O	0.072901	-1.132479	-0.085112
O6	O	0.572901	-0.632479	0.414888
O7	O	0.316322	-1.117408	-0.085132
O8	O	0.816322	-0.617408	0.414868
O9	O	0.081387	-1.122038	0.085316
O10	O	0.581387	-0.622038	0.585316
O11	O	0.199443	-0.976518	0.085293
O12	O	0.699443	-0.476518	0.585293
O13	O	0.206752	-1.252486	0.085319
O14	O	0.706752	-0.752486	0.585319
Zn15	Zn	0.204444	-1.112845	0.112365
Zn16	Zn	0.704444	-0.612845	0.612365
Zn17	Zn	0.193264	-1.126601	-0.112181
Zn18	Zn	0.693264	-0.626601	0.387819
O19	O	0.324807	-1.106967	0.085296
O20	O	0.824807	-0.606967	0.585296
C21	C	0.192001	-0.946424	0.000076
C22	C	0.692001	-0.446424	0.500076
C23	C	0.182459	-0.841198	0.000066
C24	C	0.682459	-0.341198	0.500066
C25	C	0.045803	-1.126633	0.000102
C26	C	0.545803	-0.626633	0.500102
C27	C	-0.047583	-1.124757	0.000102
C28	C	0.452417	-0.624757	0.500102
N29	N	0.212075	-1.103463	0.265612
N30	N	0.712075	-0.603463	0.765612
C31	C	-0.269531	-1.030074	0.000079
C32	C	0.230469	-0.530074	0.500079
C33	C	-0.323071	-1.068894	0.084115
C34	C	0.176929	-0.568894	0.584115
C35	C	-0.218563	-1.121364	0.000094
C36	C	0.281437	-0.621364	0.500094
C37	C	-0.331419	-1.079209	-0.083914
C38	C	0.168581	-0.579209	0.416086
C39	C	-0.383723	-1.118080	0.000082
C40	C	0.116277	-0.618080	0.500082
C41	C	-0.270871	-1.160204	0.084199
C42	C	0.229129	-0.660204	0.584199
C43	C	-0.279217	-1.170512	-0.083905
C44	C	0.220783	-0.670512	0.416095
C45	C	-0.332734	-1.209397	0.000151
C46	C	0.167266	-0.709397	0.500151
C47	C	-0.123419	-1.123253	0.000102
C48	C	0.376581	-0.623253	0.500102
C49	C	-0.478865	-1.116197	0.000081
C50	C	0.021135	-0.616197	0.500081
C51	C	0.351905	-1.112813	0.000079
C52	C	0.851905	-0.612813	0.500079
C53	C	0.445291	-1.114689	0.000072
C54	C	0.945291	-0.614689	0.500072
C55	C	0.205707	-1.293021	0.000106
C56	C	0.705707	-0.793021	0.500106
C57	C	0.215249	-1.398248	0.000108
C58	C	0.715249	-0.898248	0.500108
C59	C	0.165017	-0.648535	0.000088
C60	C	0.665017	-0.148535	0.500088
C61	C	0.232688	-0.590906	0.000087
C62	C	0.732688	-0.090906	0.500087
C63	C	0.222982	-0.483701	0.000099
C64	C	0.722982	0.016299	0.500099
C65	C	0.174721	-0.755749	0.000076
C66	C	0.674721	-0.255749	0.500076
N67	N	0.185628	-1.135990	-0.265429
N68	N	0.685628	-0.635990	0.234571
C69	C	0.222464	-1.090699	0.474653
C70	C	0.722464	-0.590699	0.974653
C71	C	0.175242	-1.148750	0.525537
C72	C	0.675242	-0.648750	1.025537
C73	C	0.181022	-1.141649	0.641855
C74	C	0.681022	-0.641649	1.141855
C75	C	0.216684	-1.097800	0.358325
C76	C	0.716684	-0.597800	0.858325
H77	H	-0.342534	-1.025929	0.155153
H78	H	0.157466	-0.525929	0.655153
O79	O	0.121738	-1.214210	0.473142
O80	O	0.621738	-0.714210	0.973142
C81	C	0.066829	-1.280750	0.307751
C82	C	0.566829	-0.780750	0.807751
C83	C	0.127574	-1.206707	0.366965
C84	C	0.627574	-0.706707	0.866965
H85	H	0.071514	-1.274696	0.221897
H86	H	0.571514	-0.774696	0.721897
H87	H	0.084189	-1.355578	0.328543
H88	H	0.584189	-0.855578	0.828543
H89	H	-0.000237	-1.266748	0.328989
H90	H	0.499763	-0.766748	0.828989
H91	H	0.194660	-1.220620	0.345760
H92	H	0.694660	-0.720620	0.845760
H93	H	0.110142	-1.131904	0.346169
H94	H	0.610142	-0.631904	0.846169
O95	O	-0.236528	-0.939699	-0.000020
O96	O	0.263472	-0.439699	0.499980
C97	C	-0.154281	-0.828300	-0.088620
C98	C	0.345719	-0.328300	0.411380
C99	C	-0.191624	-0.930670	-0.088652
C100	C	0.308376	-0.430670	0.411348
H101	H	-0.117953	-0.820973	-0.160260
H102	H	0.382047	-0.320973	0.339740
H103	H	-0.207197	-0.775422	-0.087904
H104	H	0.292803	-0.275422	0.412096
H105	H	-0.109997	-0.812735	-0.017621
H106	H	0.390003	-0.312735	0.482379
H107	H	-0.235898	-0.946326	-0.159640
H108	H	0.264102	-0.446326	0.340360
H109	H	-0.138665	-0.983492	-0.089315
H110	H	0.361335	-0.483492	0.410685
O111	O	0.310565	-0.627930	0.000111
O112	O	0.810565	-0.127930	0.500111
C113	C	0.459771	-0.595361	0.000013
C114	C	0.959771	-0.095361	0.500013
C115	C	0.371632	-0.553297	0.000015
C116	C	0.871632	-0.053297	0.500015
H117	H	0.509167	-0.535041	-0.000086
H118	H	1.009167	-0.035041	0.499914
H119	H	0.471304	-0.636710	0.071345
H120	H	0.971304	-0.136710	0.571345
H121	H	0.464085	-0.645488	-0.071303
H122	H	0.964085	-0.145488	0.428697
H123	H	0.367255	-0.503130	0.071283
H124	H	0.867255	-0.003130	0.571283
H125	H	0.360137	-0.512005	-0.071364
H126	H	0.860137	-0.012005	0.428636
H127	H	0.099799	-0.617361	0.000099
H128	H	0.599799	-0.117361	0.500099
O129	O	-0.255927	-1.221861	-0.168547
O130	O	0.244073	-0.721861	0.331453
C131	C	-0.182659	-1.358072	-0.234462
C132	C	0.317341	-0.858072	0.265538
C133	C	-0.208998	-1.300030	-0.138510
C134	C	0.291002	-0.800030	0.361490
H135	H	-0.144698	-1.421273	-0.210211
H136	H	0.355302	-0.921273	0.289789
H137	H	-0.241134	-1.385267	-0.283088
H138	H	0.258866	-0.885267	0.216912
H139	H	-0.142595	-1.310597	-0.281128
H140	H	0.357405	-0.810597	0.218872
H141	H	-0.249043	-1.347445	-0.091764
H142	H	0.250957	-0.847445	0.408236
H143	H	-0.150488	-1.272825	-0.089960
H144	H	0.349512	-0.772825	0.410040
O145	O	0.275859	-1.025136	0.527046
O146	O	0.775859	-0.525136	1.027046
C147	C	0.330315	-0.958139	0.692446
C148	C	0.830315	-0.458139	1.192446
C149	C	0.269823	-1.032442	0.633222
C150	C	0.769823	-0.532442	1.133222
H151	H	0.325443	-0.964007	0.778299
H152	H	0.825443	-0.464007	1.278299
H153	H	0.397496	-0.971890	0.671498
H154	H	0.897496	-0.471890	1.171498
H155	H	0.312745	-0.883458	0.671373
H156	H	0.812745	-0.383458	1.171373
H157	H	0.287315	-1.107153	0.654263
H158	H	0.787315	-0.607153	1.154263
H159	H	0.202658	-1.018608	0.654175
H160	H	0.702658	-0.518608	1.154175
H161	H	-0.244450	-1.194427	0.155322
H162	H	0.255550	-0.694427	0.655322
H163	H	-0.360212	-1.285236	0.000205
H164	H	0.139788	-0.785236	0.500205
H165	H	-0.357926	-1.044938	-0.154965
H166	H	0.142074	-0.544938	0.345035
