data_functionalizedCrystal
_audit_creation_method	'MofGen! by Chris Wilmer'
_symmetry_space_group_name_H-M	'P1'
_symmetry_Int_Tables_number	1
_symmetry_cell_setting	triclinic
loop_
_symmetry_equiv_pos_as_xyz
  x,y,z
_cell_length_a	23.096457
_cell_length_b	23.096457
_cell_length_c	18.760492
_cell_angle_alpha	59.998363
_cell_angle_beta	89.997129
_cell_angle_gamma	60.004020
loop_
_atom_site_label
_atom_site_type_symbol
_atom_site_fract_x
_atom_site_fract_y
_atom_site_fract_z
Zr1	Zr	0.557829	0.633719	-0.093541
O2	O	0.465393	0.754502	-0.207350
O3	O	0.586157	0.512937	-0.058656
O4	O	0.586170	0.633723	-0.207361
O5	O	0.465379	0.633714	0.058659
O6	O	0.681450	0.633724	-0.207365
O7	O	0.465380	0.633717	-0.058646
O8	O	0.681427	0.417661	0.058640
O9	O	0.465403	0.849777	-0.207346
O10	O	0.669355	0.562617	-0.043777
O11	O	0.598248	0.562614	0.043769
O12	O	0.598263	0.704823	-0.131311
O13	O	0.527156	0.704820	-0.043765
Zr14	Zr	0.709789	0.633717	0.093539
Zr15	Zr	0.709790	0.633722	-0.093548
Zr16	Zr	0.557828	0.633715	0.093546
Zr17	Zr	0.557844	0.785671	-0.093535
Zr18	Zr	0.709774	0.481765	0.093533
O19	O	0.681461	0.754499	0.058654
O20	O	0.681462	0.754506	-0.207360
O21	O	0.465392	0.754496	0.058664
O22	O	0.802225	0.512934	0.207348
O23	O	0.802226	0.512941	-0.058666
O24	O	0.586155	0.512931	0.207358
O25	O	0.802238	0.633723	-0.058661
O26	O	0.681448	0.633714	0.207359
O27	O	0.586168	0.633712	0.207363
O28	O	0.802238	0.633720	0.058644
O29	O	0.586191	0.849779	-0.207351
O30	O	0.681426	0.417658	0.207349
O31	O	0.802215	0.417660	0.207344
O32	O	0.802216	0.417663	0.058634
O33	O	0.465402	0.849773	-0.058636
O34	O	0.586191	0.849775	-0.058642
O35	O	0.669354	0.562613	0.131309
O36	O	0.740461	0.562617	0.043763
O37	O	0.669370	0.704822	-0.043771
O38	O	0.598262	0.704819	0.043775
C39	C	0.633790	0.443649	-0.000009
C40	C	0.633783	0.379142	-0.000012
C41	C	0.686274	0.296356	0.064604
C42	C	0.686279	0.235734	0.064612
C43	C	0.633798	0.257903	-0.000009
C44	C	0.581298	0.340703	-0.064631
C45	C	0.581291	0.401323	-0.064632
N46	N	0.617920	0.201795	-0.076642
N47	N	0.617932	0.144206	-0.076637
C48	C	0.633817	0.075264	-0.000008
N49	N	0.649704	0.066079	0.076622
N50	N	0.649696	0.123672	0.076617
C51	C	0.633800	0.192178	-0.000014
C52	C	0.686316	-0.073258	0.064622
C53	C	0.686316	-0.133879	0.064631
C54	C	0.581338	-0.028907	-0.064619
C55	C	0.581335	0.031711	-0.064620
C56	C	0.633828	0.009530	-0.000000
C57	C	0.443729	0.633715	0.000008
C58	C	0.379217	0.633714	0.000010
C59	C	0.386021	0.559486	0.045694
C60	C	0.325405	0.559485	0.045698
C61	C	0.257986	0.633716	0.000001
C62	C	0.251185	0.707953	-0.045684
C63	C	0.311801	0.707952	-0.045680
N64	N	0.135197	0.688971	-0.074371
N65	N	0.077617	0.688967	-0.074374
C66	C	0.075354	0.633723	-0.000014
N67	N	0.132851	0.578471	0.074347
N68	N	0.190437	0.578473	0.074348
C69	C	0.192255	0.633725	-0.000009
C70	C	0.016434	0.559489	0.045677
C71	C	-0.044184	0.559491	0.045683
C72	C	-0.118404	0.707962	-0.045707
C73	C	-0.057786	0.707957	-0.045705
C74	C	0.009630	0.633719	-0.000015
C75	C	0.823889	0.633721	-0.000010
C76	C	0.888401	0.633723	-0.000012
C77	C	0.633810	0.633724	-0.234019
C78	C	0.633811	0.633726	-0.313442
C79	C	0.633828	0.823787	0.000007
C80	C	0.633834	0.888295	0.000010
C81	C	0.686301	0.633713	-0.649255
C82	C	0.581315	0.633711	-0.649238
C83	C	0.581314	0.633715	-0.574620
C84	C	0.633808	0.633717	-0.537314
C85	C	0.686303	0.633715	-0.574628
C86	C	0.528824	0.633709	-0.537296
C87	C	0.528821	0.633713	-0.462672
C88	C	0.581313	0.633721	-0.425369
C89	C	0.633810	0.633719	-0.462688
C90	C	0.686304	0.633721	-0.425382
C91	C	0.738798	0.633726	-0.462703
C92	C	0.738795	0.633723	-0.537325
C93	C	0.581316	0.633724	-0.350747
C94	C	0.686306	0.633723	-0.350755
C95	C	0.633808	0.633712	0.234017
C96	C	0.633807	0.633711	0.313440
C97	C	0.823870	0.443652	-0.000018
C98	C	0.888375	0.379146	-0.000024
C99	C	0.633788	0.443643	0.234008
C100	C	0.633782	0.379134	0.313429
C101	C	0.823869	0.443647	0.234000
C102	C	0.888373	0.379138	0.313417
C103	C	0.443749	0.823790	-0.234002
C104	C	0.379244	0.888298	-0.313419
C105	C	0.443748	0.823784	0.000016
C106	C	0.379243	0.888291	0.000022
C107	C	0.633829	0.823793	-0.234010
C108	C	0.633836	0.888303	-0.313431
C109	C	0.881551	0.348853	-0.045729
C110	C	0.942154	0.288251	-0.045752
C111	C	1.009582	0.257938	-0.000064
C112	C	1.016405	0.288236	0.045643
C113	C	0.955802	0.348842	0.045660
C114	C	0.670895	0.348839	0.396428
C115	C	0.670886	0.288234	0.471060
C116	C	0.633767	0.257920	0.462690
C117	C	0.596649	0.288221	0.379681
C118	C	0.596654	0.348830	0.305052
C119	C	0.955789	0.348846	0.305015
C120	C	1.016404	0.288242	0.379629
C121	C	1.009601	0.257927	0.462645
C122	C	0.942179	0.288225	0.471046
C123	C	0.881565	0.348832	0.396433
C124	C	0.311829	0.918598	-0.305017
C125	C	0.251214	0.979221	-0.379631
C126	C	0.258016	1.009539	-0.462647
C127	C	0.325439	0.979237	-0.471048
C128	C	0.386052	0.918619	-0.396435
C129	C	0.386067	0.918589	0.045719
C130	C	0.325463	0.979209	0.045721
C131	C	0.258036	1.009524	0.000031
C132	C	0.251213	0.979222	-0.045673
C133	C	0.311816	0.918608	-0.045679
C134	C	0.670962	0.918597	-0.305033
C135	C	0.670983	0.979202	-0.379650
C136	C	0.633872	1.009517	-0.462664
C137	C	0.596745	0.979217	-0.471060
C138	C	0.596729	0.918608	-0.396444
H139	H	0.538543	0.468734	-0.117250
H140	H	0.330945	0.499038	0.082899
H141	H	0.330969	1.003930	-0.538649
H142	H	-0.063329	0.768402	-0.082911
H143	H	0.701122	0.373513	0.403260
H144	H	0.633768	0.208569	0.523465
H145	H	0.306249	0.893941	-0.082890
H146	H	0.936585	0.263589	-0.082972
H147	H	0.961341	0.373520	0.237425
H148	H	1.071297	0.263579	0.372773
H149	H	0.486087	0.633702	-0.567668
H150	H	0.196321	1.003883	-0.372773
H151	H	0.781535	0.633725	-0.567715
H152	H	1.071312	0.263547	0.082841
H153	H	0.729051	0.633729	-0.320389
H154	H	1.058922	0.208588	-0.000084
H155	H	0.538606	-0.010855	-0.117234
H156	H	0.961368	0.373498	0.082884
H157	H	0.701182	0.893924	-0.237445
H158	H	0.208695	1.058879	0.000043
H159	H	0.781542	0.633722	-0.432317
H160	H	0.538595	0.099122	-0.117242
H161	H	0.701114	0.263570	0.538641
H162	H	1.058962	0.208576	0.523393
H163	H	0.566428	0.263531	0.372879
H164	H	0.566435	0.373488	0.237473
H165	H	0.936650	0.263533	0.538648
H166	H	0.306276	0.893916	-0.237427
H167	H	0.440943	0.893950	-0.403287
H168	H	0.826675	0.373488	0.403287
H169	H	0.826653	0.373534	-0.082944
H170	H	0.566531	1.003908	-0.538661
H171	H	0.566494	0.893950	-0.403294
H172	H	0.208655	1.058898	-0.523395
H173	H	0.729040	0.633719	-0.679645
H174	H	0.440964	0.893912	0.082932
H175	H	0.538579	0.633703	-0.679611
H176	H	0.486077	0.633711	-0.432291
H177	H	0.331033	1.003870	0.082942
H178	H	0.538579	0.633715	-0.320361
H179	H	0.196306	1.003914	-0.082873
H180	H	0.633891	1.058869	-0.523414
H181	H	0.729017	0.278288	0.117223
H182	H	0.538567	0.358750	-0.117245
H183	H	0.729024	0.168317	0.117232
H184	H	0.729056	-0.091320	0.117244
H185	H	0.701215	1.003866	-0.372796
H186	H	0.440910	0.499035	0.082893
H187	H	0.729060	-0.201291	0.117254
H188	H	0.196289	0.768393	-0.082890
H189	H	0.071328	0.499040	0.082899
H190	H	0.306256	0.768400	-0.082878
H191	H	-0.038638	0.499043	0.082890
H192	H	-0.173297	0.768402	-0.082915
