data_functionalizedCrystal
_audit_creation_method	'MofGen! by Chris Wilmer'
_symmetry_space_group_name_H-M	'P1'
_symmetry_Int_Tables_number	1
_symmetry_cell_setting	triclinic
loop_
_symmetry_equiv_pos_as_xyz
  x,y,z
_cell_length_a	11.169417
_cell_length_b	11.169416
_cell_length_c	17.077383
_cell_angle_alpha	90.081675
_cell_angle_beta	89.944336
_cell_angle_gamma	89.987040
loop_
_atom_site_label
_atom_site_type_symbol
_atom_site_fract_x
_atom_site_fract_y
_atom_site_fract_z
Zn1	Zn	1.835372	0.477043	-0.443825
Zn2	Zn	2.335372	0.977043	0.056175
Zn3	Zn	1.835130	0.677972	-0.312579
Zn4	Zn	2.335130	1.177972	0.187421
Zn5	Zn	1.634533	0.477305	-0.312580
Zn6	Zn	2.134533	0.977305	0.187420
Zn7	Zn	1.634660	0.677685	-0.443810
Zn8	Zn	2.134660	1.177685	0.056190
O9	O	1.734924	0.577501	-0.378198
O10	O	2.234924	1.077501	0.121802
O11	O	2.003290	0.503707	-0.426420
O12	O	2.503290	1.003707	0.073580
O13	O	1.808366	0.651583	-0.202732
O14	O	2.308366	1.151583	0.297268
O15	O	1.661223	0.309320	-0.329996
O16	O	2.161223	0.809320	0.170004
O17	O	2.003112	0.651329	-0.329995
O18	O	2.503112	1.151329	0.170005
O19	O	1.808779	0.309128	-0.426421
O20	O	2.308779	0.809128	0.073579
O21	O	1.660988	0.504153	-0.202732
O22	O	2.160988	1.004153	0.297268
O23	O	1.466600	0.503875	-0.329982
O24	O	1.966600	1.003875	0.170018
O25	O	1.661439	0.650840	-0.553659
O26	O	2.161439	1.150840	-0.053659
O27	O	1.466693	0.651094	-0.426397
O28	O	1.966693	1.151094	0.073603
O29	O	1.808902	0.503428	-0.553670
O30	O	2.308902	1.003428	-0.053670
O31	O	1.808489	0.845884	-0.329981
O32	O	2.308489	1.345884	0.170019
O33	O	1.661204	0.845673	-0.426396
O34	O	2.161204	1.345673	0.073604
C35	C	1.423099	0.577483	-0.378188
C36	C	1.923099	1.077483	0.121812
C37	C	1.289699	0.577504	-0.378203
C38	C	1.789699	1.077504	0.121797
C39	C	1.734867	0.889326	-0.378204
C40	C	2.234867	1.389326	0.121796
C41	C	1.734952	1.022726	-0.378232
C42	C	2.234952	1.522726	0.121768
C43	C	2.047966	0.577520	-0.378209
C44	C	2.547966	1.077520	0.121791
C45	C	2.181366	0.577528	-0.378213
C46	C	2.681366	1.077528	0.121787
C47	C	1.735212	0.577073	-0.582943
C48	C	2.235212	1.077073	-0.082943
C49	C	1.735334	0.576891	-0.670193
C50	C	2.235334	1.076891	-0.170193
C51	C	1.735005	1.264459	-0.378221
C52	C	2.235005	1.764459	0.121779
C53	C	1.735018	1.131059	-0.378257
C54	C	2.235018	1.631059	0.121743
C55	C	1.734706	0.577841	-0.174250
C56	C	2.234706	1.077841	0.325750
C57	C	1.734816	0.577685	-0.087000
C58	C	2.234816	1.077685	0.413000
C59	C	1.811498	0.499663	0.288596
C60	C	2.311498	0.999663	0.788596
C61	C	1.811391	0.499813	0.206616
C62	C	2.311391	0.999813	0.706616
C63	C	1.735127	0.577198	0.165848
C64	C	2.235127	1.077198	0.665848
C65	C	1.658956	0.654429	0.207064
C66	C	2.158956	1.154429	0.707064
C67	C	1.659057	0.654272	0.289043
C68	C	2.159057	1.154272	0.789043
C69	C	1.658752	0.654754	0.036195
C70	C	2.158752	1.154754	0.536195
C71	C	1.658653	0.654913	-0.045790
C72	C	2.158653	1.154913	0.454210
C73	C	1.811087	0.500295	-0.046233
C74	C	2.311087	1.000295	0.453767
C75	C	1.811188	0.500138	0.035746
C76	C	2.311188	1.000138	0.535746
C77	C	1.735018	0.577371	0.076957
C78	C	2.235018	1.077371	0.576957
H79	H	1.873605	0.436650	0.321784
H80	H	2.373605	0.936650	0.821784
F81	F	1.892496	0.417658	0.162760
F82	F	2.392496	0.917658	0.662760
H83	H	1.597025	0.717147	0.322596
H84	H	2.097025	1.217147	0.822596
H85	H	1.596707	0.717627	0.069746
H86	H	2.096707	1.217627	0.569746
H87	H	1.873296	0.437131	0.068937
H88	H	2.373296	0.937131	0.568937
F89	F	1.577474	0.737265	-0.089177
F90	F	2.077474	1.237265	0.410823
F91	F	1.892155	0.418098	-0.090093
F92	F	2.392155	0.918098	0.409907
H93	H	1.596856	0.717433	0.173864
H94	H	2.096856	1.217433	0.673864
