data_functionalizedCrystal
_audit_creation_method	'MofGen! by Chris Wilmer'
_symmetry_space_group_name_H-M	'P1'
_symmetry_Int_Tables_number	1
_symmetry_cell_setting	triclinic
loop_
_symmetry_equiv_pos_as_xyz
  x,y,z
_cell_length_a	18.101395
_cell_length_b	18.101398
_cell_length_c	18.215399
_cell_angle_alpha	89.989569
_cell_angle_beta	89.973573
_cell_angle_gamma	90.026661
loop_
_atom_site_label
_atom_site_type_symbol
_atom_site_fract_x
_atom_site_fract_y
_atom_site_fract_z
Zn1	Zn	-0.294925	1.132126	-0.415939
Zn2	Zn	0.038408	1.465459	-0.082606
Zn3	Zn	0.371742	1.798793	0.250728
Zn4	Zn	-0.418771	1.132020	-0.292876
Zn5	Zn	-0.085438	1.465354	0.040457
Zn6	Zn	0.247895	1.798687	0.373791
Zn7	Zn	-0.294939	1.008283	-0.292907
Zn8	Zn	0.038395	1.341617	0.040427
Zn9	Zn	0.371728	1.674950	0.373760
Zn10	Zn	-0.418720	1.008236	-0.415921
Zn11	Zn	-0.085386	1.341569	-0.082588
Zn12	Zn	0.247947	1.674902	0.250746
O13	O	-0.356839	1.070166	-0.354411
O14	O	-0.023505	1.403500	-0.021077
O15	O	0.309828	1.736833	0.312256
O16	O	-0.311370	1.235745	-0.399609
O17	O	0.021964	1.569078	-0.066276
O18	O	0.355297	1.902411	0.267058
O19	O	-0.402372	1.115582	-0.189896
O20	O	-0.069039	1.448915	0.143438
O21	O	0.264294	1.782249	0.476771
O22	O	-0.191304	1.024776	-0.309247
O23	O	0.142029	1.358109	0.024086
O24	O	0.475363	1.691442	0.357419
O25	O	-0.402359	1.235667	-0.309195
O26	O	-0.069026	1.569001	0.024138
O27	O	0.264308	1.902334	0.357471
O28	O	-0.191294	1.115762	-0.399639
O29	O	0.142039	1.449095	-0.066305
O30	O	0.475373	1.782429	0.267028
O31	O	-0.311393	1.024673	-0.189918
O32	O	0.021941	1.358006	0.143415
O33	O	0.355274	1.691340	0.476748
O34	O	-0.311343	0.904644	-0.309230
O35	O	0.021991	1.237978	0.024103
O36	O	0.355324	1.571311	0.357437
O37	O	-0.402271	1.024694	-0.518908
O38	O	-0.068937	1.358027	-0.185574
O39	O	0.264396	1.691361	0.147759
O40	O	-0.402284	0.904609	-0.399608
O41	O	-0.068951	1.237942	-0.066275
O42	O	0.264383	1.571276	0.267058
O43	O	-0.311319	1.115716	-0.518921
O44	O	0.022014	1.449049	-0.185588
O45	O	0.355347	1.782383	0.147746
O46	O	-0.522398	1.115536	-0.309178
O47	O	-0.189064	1.448869	0.024155
O48	O	0.144269	1.782202	0.357489
O49	O	-0.522359	1.024592	-0.399579
O50	O	-0.189026	1.357925	-0.066245
O51	O	0.144307	1.691258	0.267088
C52	C	-0.356810	0.877756	-0.354421
C53	C	-0.023476	1.211089	-0.021088
C54	C	0.309857	1.544422	0.312246
C55	C	-0.356815	0.795442	-0.354443
C56	C	-0.023482	1.128775	-0.021109
C57	C	0.309852	1.462108	0.312224
C58	C	-0.549249	1.070067	-0.354389
C59	C	-0.215916	1.403401	-0.021056
C60	C	0.117417	1.736734	0.312278
C61	C	-0.631563	1.070093	-0.354404
C62	C	-0.298230	1.403426	-0.021071
C63	C	0.035103	1.736759	0.312262
C64	C	-0.356859	0.496351	-0.354412
C65	C	-0.023525	0.829684	-0.021079
C66	C	0.309808	1.163017	0.312255
C67	C	-0.414353	0.527679	-0.410995
C68	C	-0.081020	0.861012	-0.077662
C69	C	0.252314	1.194345	0.255672
C70	C	-0.414173	0.613297	-0.411227
C71	C	-0.080840	0.946630	-0.077894
C72	C	0.252494	1.279964	0.255439
C73	C	-0.356838	0.644733	-0.354427
C74	C	-0.023504	0.978067	-0.021094
C75	C	0.309829	1.311400	0.312239
C76	C	-0.278835	0.613679	-0.375619
C77	C	0.054498	0.947012	-0.042286
C78	C	0.387831	1.280346	0.291047
C79	C	-0.279181	0.528034	-0.376022
C80	C	0.054153	0.861367	-0.042688
C81	C	0.387486	1.194701	0.290645
C82	C	-0.376679	0.527897	-0.276501
C83	C	-0.043345	0.861231	0.056833
C84	C	0.289988	1.194564	0.390166
C85	C	-0.378390	0.613547	-0.276917
C86	C	-0.045057	0.946881	0.056416
C87	C	0.288277	1.280214	0.389750
C88	C	-0.356821	0.728593	-0.354435
C89	C	-0.023488	1.061926	-0.021101
C90	C	0.309846	1.395259	0.312232
C91	C	-0.356870	0.412491	-0.354406
C92	C	-0.023537	0.745825	-0.021073
C93	C	0.309797	1.079158	0.312260
C94	C	-0.930654	1.070255	-0.354444
C95	C	-0.597321	1.403588	-0.021111
C96	C	-0.263988	1.736922	0.312223
C97	C	-0.899336	1.013168	-0.411463
C98	C	-0.566003	1.346502	-0.078129
C99	C	-0.232669	1.679835	0.255204
C100	C	-0.813718	1.012897	-0.411285
C101	C	-0.480385	1.346230	-0.077951
C102	C	-0.147051	1.679564	0.255382
C103	C	-0.782272	1.070174	-0.354425
C104	C	-0.448938	1.403508	-0.021092
C105	C	-0.115605	1.736841	0.312242
C106	C	-0.813420	1.049044	-0.276867
C107	C	-0.480087	1.382378	0.056466
C108	C	-0.146754	1.715711	0.389799
C109	C	-0.899065	1.048676	-0.277209
C110	C	-0.565732	1.382010	0.056125
C111	C	-0.232399	1.715343	0.389458
C112	C	-0.899004	1.148597	-0.374300
C113	C	-0.565671	1.481930	-0.040967
C114	C	-0.232338	1.815264	0.292367
C115	C	-0.813353	1.148136	-0.376001
C116	C	-0.480020	1.481470	-0.042668
C117	C	-0.146687	1.814803	0.290666
C118	C	-0.698412	1.070130	-0.354409
C119	C	-0.365079	1.403463	-0.021076
C120	C	-0.031746	1.736797	0.312257
C121	C	-1.014514	1.070298	-0.354454
C122	C	-0.681180	1.403631	-0.021121
C123	C	-0.347847	1.736964	0.312212
C124	C	-0.163677	1.070286	-0.354448
C125	C	0.169657	1.403619	-0.021115
C126	C	0.502990	1.736953	0.312218
C127	C	-0.081363	1.070337	-0.354465
C128	C	0.251971	1.403670	-0.021131
C129	C	0.585304	1.737004	0.312202
C130	C	-0.356788	1.070211	-0.546364
C131	C	-0.023454	1.403545	-0.213030
C132	C	0.309879	1.736878	0.120303
C133	C	-0.356766	1.070231	-0.628163
C134	C	-0.023433	1.403564	-0.294829
C135	C	0.309901	1.736897	0.038504
C136	C	-0.356869	1.263328	-0.354401
C137	C	-0.023535	1.596662	-0.021067
C138	C	0.309798	1.929995	0.312266
C139	C	-0.356881	1.345642	-0.354397
C140	C	-0.023548	1.678976	-0.021063
C141	C	0.309785	2.012309	0.312270
C142	C	-0.309363	1.117643	-0.816365
C143	C	0.023970	1.450976	-0.483031
C144	C	0.357303	1.784309	-0.149698
C145	C	-0.309342	1.117652	-0.893223
C146	C	0.023992	1.450985	-0.559890
C147	C	0.357325	1.784318	-0.226557
C148	C	-0.404054	1.022871	-0.893198
C149	C	-0.070721	1.356204	-0.559865
C150	C	0.262613	1.689538	-0.226532
C151	C	-0.404071	1.022859	-0.816341
C152	C	-0.070738	1.356192	-0.483008
C153	C	0.262595	1.689526	-0.149674
C154	C	-0.356727	1.070249	-0.777926
C155	C	-0.023394	1.403582	-0.444593
C156	C	0.309940	1.736916	-0.111259
C157	C	-0.356688	1.070270	-0.931642
C158	C	-0.023355	1.403603	-0.598309
C159	C	0.309978	1.736937	-0.264976
C160	C	-0.356665	1.070279	-1.014976
C161	C	-0.023332	1.403612	-0.681643
C162	C	0.310002	1.736946	-0.348309
C163	C	-0.356749	1.070239	-0.694587
C164	C	-0.023416	1.403572	-0.361254
C165	C	0.309918	1.736906	-0.027920
C166	C	-0.356836	1.070164	-0.163204
C167	C	-0.023503	1.403497	0.170129
C168	C	0.309830	1.736831	0.503462
C169	C	-0.356649	1.070288	-0.081406
C170	C	-0.023316	1.403622	0.251927
C171	C	0.310017	1.736955	0.585261
H172	H	-0.472016	0.634292	-0.397946
H173	H	-0.138683	0.967625	-0.064612
H174	H	0.194651	1.300959	0.268721
Cl175	Cl	-0.462987	0.494516	-0.246759
Cl176	Cl	-0.129654	0.827850	0.086575
Cl177	Cl	0.203680	1.161183	0.419908
Cl178	Cl	-0.394380	0.494454	-0.499605
Cl179	Cl	-0.061047	0.827787	-0.166271
Cl180	Cl	0.272287	1.161121	0.167062
H181	H	-0.435788	0.633851	-0.260934
H182	H	-0.102455	0.967184	0.072400
H183	H	0.230878	1.300518	0.405733
Cl184	Cl	-0.931066	1.033371	-0.500542
Cl185	Cl	-0.597732	1.366704	-0.167209
Cl186	Cl	-0.264399	1.700037	0.166124
H187	H	-0.401059	0.633800	-0.468955
H188	H	-0.067726	0.967133	-0.135621
H189	H	0.265608	1.300467	0.197712
H190	H	-0.920555	1.167862	-0.429891
H191	H	-0.587221	1.501195	-0.096557
H192	H	-0.253888	1.834528	0.236776
H193	H	-0.262370	0.508073	-0.432978
H194	H	0.070963	0.841407	-0.099645
H195	H	0.404297	1.174740	0.233688
Cl196	Cl	-0.210900	0.645121	-0.313981
Cl197	Cl	0.122433	0.978454	0.019353
Cl198	Cl	0.455766	1.311787	0.352686
H199	H	-0.270810	1.156229	-0.785089
H200	H	0.062523	1.489562	-0.451756
H201	H	0.395856	1.822895	-0.118423
H202	H	-0.334800	0.507638	-0.234341
H203	H	-0.001467	0.840972	0.098992
H204	H	0.331867	1.174305	0.432326
H205	H	-0.442640	0.984260	-0.785044
H206	H	-0.109307	1.317593	-0.451710
H207	H	0.224027	1.650927	-0.118377
Cl208	Cl	-0.210801	0.496036	-0.315172
Cl209	Cl	0.122532	0.829370	0.018162
Cl210	Cl	0.455865	1.162703	0.351495
Cl211	Cl	-0.931059	1.110077	-0.209377
Cl212	Cl	-0.597726	1.443411	0.123957
Cl213	Cl	-0.264392	1.776744	0.457290
Cl214	Cl	-0.463573	0.963302	-0.941497
Cl215	Cl	-0.130240	1.296636	-0.608163
Cl216	Cl	0.203093	1.629969	-0.274830
H217	H	-0.792656	1.026117	-0.468793
H218	H	-0.459323	1.359450	-0.135460
H219	H	-0.125989	1.692784	0.197874
H220	H	-0.920918	0.955452	-0.398477
H221	H	-0.587585	1.288786	-0.065144
H222	H	-0.254251	1.622119	0.268190
Cl223	Cl	-0.318427	0.646579	-0.208329
Cl224	Cl	0.014906	0.979912	0.125004
Cl225	Cl	0.348240	1.313246	0.458337
Cl226	Cl	-0.782173	0.923242	-0.390983
Cl227	Cl	-0.448840	1.256575	-0.057649
Cl228	Cl	-0.115507	1.589909	0.275684
H229	H	-0.919257	1.191129	-0.332771
H230	H	-0.585924	1.524462	0.000562
H231	H	-0.252590	1.857795	0.333896
Cl232	Cl	-0.252410	0.646815	-0.462601
Cl233	Cl	0.080924	0.980149	-0.129268
Cl234	Cl	0.414257	1.313482	0.204065
Cl235	Cl	-0.503952	0.495844	-0.390726
Cl236	Cl	-0.170619	0.829178	-0.057393
Cl237	Cl	0.162714	1.162511	0.275941
H238	H	-0.791944	1.192919	-0.337498
H239	H	-0.458610	1.526252	-0.004164
H240	H	-0.125277	1.859586	0.329169
H241	H	-0.792992	1.164071	-0.433079
H242	H	-0.459659	1.497404	-0.099746
H243	H	-0.126326	1.830737	0.233588
Cl244	Cl	-0.930006	0.960260	-0.251239
Cl245	Cl	-0.596673	1.293593	0.082095
Cl246	Cl	-0.263340	1.626927	0.415428
Cl247	Cl	-0.781976	1.111218	-0.209485
Cl248	Cl	-0.448643	1.444551	0.123848
Cl249	Cl	-0.115310	1.777884	0.457182
H250	H	-0.792031	0.992383	-0.259744
H251	H	-0.458698	1.325717	0.073589
H252	H	-0.125364	1.659050	0.406923
Cl253	Cl	-0.249802	1.177242	-0.941543
Cl254	Cl	0.083531	1.510575	-0.608210
Cl255	Cl	0.416864	1.843908	-0.274876
