data_functionalizedCrystal
_audit_creation_method	'MofGen! by Chris Wilmer'
_symmetry_space_group_name_H-M	'P1'
_symmetry_Int_Tables_number	1
_symmetry_cell_setting	triclinic
loop_
_symmetry_equiv_pos_as_xyz
  x,y,z
_cell_length_a	23.532355
_cell_length_b	23.532407
_cell_length_c	13.101039
_cell_angle_alpha	93.336507
_cell_angle_beta	86.670091
_cell_angle_gamma	82.838088
loop_
_atom_site_label
_atom_site_type_symbol
_atom_site_fract_x
_atom_site_fract_y
_atom_site_fract_z
O1	O	0.758425	0.065837	-0.085084
O2	O	0.592558	0.075870	-0.085119
O3	O	0.680493	-0.012078	-0.085082
O4	O	0.670491	0.153786	-0.085121
O5	O	0.674183	-0.005758	0.085345
O6	O	0.586249	0.082191	0.085309
O7	O	0.752116	0.072158	0.085343
Zn8	Zn	0.668181	0.078178	0.112385
Zn9	Zn	0.676493	0.069850	-0.112161
O10	O	0.664181	0.160106	0.085306
C11	C	0.568187	0.078779	0.000091
C12	C	0.504969	0.078025	0.000079
C13	C	0.109515	0.076734	0.093023
C14	C	0.050115	0.076016	0.093027
O15	O	0.016472	0.078556	0.172034
N16	N	0.023846	0.072215	0.000127
C17	C	0.056980	0.069126	-0.092782
O18	O	0.029182	0.065826	-0.171800
C19	C	0.116379	0.069839	-0.092785
C20	C	0.142644	0.073646	0.000120
C21	C	0.135780	0.080540	0.185921
C22	C	0.195176	0.081258	0.185916
C23	C	0.228305	0.078170	0.093014
C24	C	0.202040	0.074364	0.000116
C25	C	0.149513	0.066745	-0.185694
C26	C	0.208916	0.067458	-0.185689
C27	C	0.235181	0.071265	-0.092783
C28	C	0.294565	0.071995	-0.092791
N29	N	0.320834	0.075796	0.000108
C30	C	0.287704	0.078884	0.093011
C31	C	-0.067762	0.067627	-0.092769
C32	C	-0.127160	0.066918	-0.092767
C33	C	-0.134021	0.073808	0.093043
C34	C	-0.074622	0.074521	0.093040
C35	C	-0.041493	0.071428	0.000131
C36	C	0.412439	0.080392	0.092994
C37	C	0.471840	0.081113	0.092981
C38	C	0.478695	0.074220	-0.092828
C39	C	0.419300	0.073503	-0.092815
C40	C	0.386173	0.076587	0.000104
O41	O	0.328245	0.069455	-0.171758
O42	O	0.315511	0.082175	0.172015
C43	C	0.677083	-0.030134	0.000134
C44	C	0.676317	-0.093350	0.000142
C45	C	0.723553	-0.492464	0.000096
C46	C	0.722842	-0.551864	0.000088
O47	O	0.766630	-0.588618	0.000059
N48	N	0.670565	-0.574481	0.000078
C49	C	0.618996	-0.537694	0.000065
O50	O	0.574465	-0.562386	0.000055
C51	C	0.619708	-0.478295	0.000066
C52	C	0.671988	-0.455682	0.000086
C53	C	0.775829	-0.469850	0.000115
C54	C	0.776540	-0.410453	0.000125
C55	C	0.724975	-0.373671	0.000115
C56	C	0.672699	-0.396285	0.000096
C57	C	0.568140	-0.441510	0.000046
C58	C	0.568856	-0.382108	0.000046
C59	C	0.621137	-0.359494	0.000066
C60	C	0.621845	-0.300107	0.000097
N61	N	0.674122	-0.277490	0.000107
C62	C	0.725687	-0.314272	0.000116
C63	C	0.617504	-0.662437	0.000062
C64	C	0.616792	-0.721834	0.000069
C65	C	0.720638	-0.736000	0.000090
C66	C	0.721350	-0.676601	0.000090
C67	C	0.669782	-0.639820	0.000072
C68	C	0.727176	-0.189535	0.000137
C69	C	0.727882	-0.130133	0.000152
C70	C	0.624036	-0.115972	0.000126
C71	C	0.623329	-0.175369	0.000117
C72	C	0.674904	-0.212150	0.000119
O73	O	0.578080	-0.263319	0.000121
O74	O	0.770211	-0.289573	0.000113
C75	C	0.776487	0.069248	0.000131
C76	C	0.839705	0.070003	0.000136
C77	C	0.667591	0.178162	0.000087
C78	C	0.668357	0.241378	0.000073
N79	N	0.662512	0.083861	0.265631
N80	N	0.682167	0.064163	-0.265407
C81	C	0.654799	0.091598	0.474670
C82	C	0.689878	0.056427	0.525561
C83	C	0.685586	0.060732	0.641877
C84	C	0.659089	0.087294	0.358343
H85	H	0.108812	0.083053	0.261577
O86	O	0.566939	-0.199758	0.000107
H87	H	0.561556	-0.223910	0.069568
H88	H	0.582053	-0.086013	0.000122
O89	O	0.390966	0.069404	-0.193018
H90	H	0.369369	0.030090	-0.197448
H91	H	0.235887	0.064940	-0.261349
H92	H	0.723134	0.023084	0.481772
O93	O	0.376784	0.083929	0.193316
H94	H	0.344347	0.122657	0.197601
O95	O	0.500169	0.085229	0.193189
H96	H	0.467149	0.087253	0.257788
O97	O	0.223500	0.085377	0.286121
H98	H	0.190476	0.087404	0.350714
H99	H	-0.053241	0.077622	0.168692
O100	O	0.610757	0.135769	0.532668
H101	H	0.618590	0.179357	0.512131
H102	H	-0.161006	0.076321	0.168689
O103	O	-0.155477	0.062813	-0.192982
H104	H	-0.187672	0.101144	-0.197458
H105	H	0.505680	0.071708	-0.168466
H106	H	0.817823	-0.499793	0.000119
O107	O	0.560402	-0.746220	0.000069
H108	H	0.560161	-0.775515	-0.069392
O109	O	0.832928	-0.386065	0.000136
H110	H	0.838305	-0.361910	-0.069323
H111	H	0.525568	-0.459911	0.000023
O112	O	-0.032031	0.064302	-0.192983
H113	H	-0.060282	0.061545	-0.257574
H114	H	0.762626	-0.765960	0.000093
O115	O	0.121196	0.062609	-0.285900
H116	H	0.154223	0.060565	-0.350490
O117	O	0.784272	-0.105741	0.000158
H118	H	0.820008	-0.141302	0.000147
H119	H	0.769173	-0.219476	0.000136
H120	H	0.763922	-0.658194	0.000106
O121	O	0.561880	-0.622764	0.000070
H122	H	0.525413	-0.648475	0.000076
O123	O	0.513235	-0.342435	0.000039
H124	H	0.476765	-0.368143	0.000035
