data_functionalizedCrystal
_audit_creation_method	'MofGen! by Chris Wilmer'
_symmetry_space_group_name_H-M	'P1'
_symmetry_Int_Tables_number	1
_symmetry_cell_setting	triclinic
loop_
_symmetry_equiv_pos_as_xyz
  x,y,z
_cell_length_a	10.654562
_cell_length_b	17.699083
_cell_length_c	9.130313
_cell_angle_alpha	89.997869
_cell_angle_beta	89.996930
_cell_angle_gamma	83.886559
loop_
_atom_site_label
_atom_site_type_symbol
_atom_site_fract_x
_atom_site_fract_y
_atom_site_fract_z
O1	O	1.665963	0.106345	-0.121899
O2	O	1.300310	0.116463	-0.121881
O3	O	1.493467	0.001281	-0.121878
O4	O	1.472806	0.221527	-0.121902
O5	O	1.493465	0.001284	0.121721
O6	O	1.300307	0.116466	0.121718
O7	O	1.665961	0.106348	0.121700
Cu8	Cu	1.483134	0.111407	0.143951
Cu9	Cu	1.483137	0.111404	-0.144132
O10	O	1.472804	0.221530	0.121697
C11	C	1.253524	0.115719	-0.000079
C12	C	1.114120	0.113491	-0.000072
C13	C	1.048607	0.112453	0.132702
C14	C	0.917621	0.110365	0.132678
C15	C	0.917674	0.110356	-0.132907
C16	C	1.048658	0.112438	-0.132881
C17	C	1.048574	0.112461	0.286036
C18	C	0.917589	0.110373	0.286012
C19	C	1.492726	-0.026920	-0.000078
C20	C	1.490505	-0.110952	-0.000077
C21	C	1.603884	-0.158849	-0.000081
C22	C	1.601790	-0.237806	-0.000093
C23	C	1.486315	-0.268864	-0.000092
C24	C	1.372927	-0.220961	-0.000093
C25	C	1.375022	-0.142005	-0.000091
C26	C	1.364472	-0.539378	-0.000105
C27	C	1.362385	-0.618339	-0.000103
C28	C	1.591240	-0.635178	-0.000107
C29	C	1.593335	-0.556223	-0.000105
C30	C	1.479948	-0.508326	-0.000114
C31	C	1.482220	-0.422713	-0.000102
C32	C	1.484041	-0.354476	-0.000093
C33	C	1.712747	0.107091	-0.000105
C34	C	1.852150	0.109320	-0.000122
C35	C	1.473545	0.249730	-0.000106
C36	C	1.475766	0.333763	-0.000117
N37	N	1.483141	0.111409	0.346574
N38	N	1.483140	0.111395	-0.346755
C39	C	1.568693	0.060424	0.423228
C40	C	1.568689	0.060415	0.576564
C41	C	1.397579	0.162383	0.576581
C42	C	1.397577	0.162388	0.423247
C43	C	1.667486	0.001556	0.423219
C44	C	1.667483	0.001547	0.576556
H45	H	0.888966	0.055177	0.333597
H46	H	0.870386	0.162680	0.344871
N47	N	1.787843	0.025966	0.360201
H48	H	1.783448	0.025078	0.249722
H49	H	1.798590	0.079154	0.394438
N50	N	1.305304	0.217374	0.340557
H51	H	1.249804	0.188133	0.276942
H52	H	1.251187	0.249656	0.412483
H53	H	1.327914	0.203888	0.639024
H54	H	0.864358	0.109499	-0.241035
H55	H	1.077182	0.167660	0.333606
N56	N	1.713539	-0.686840	-0.000126
H57	H	1.787007	-0.655183	-0.000120
H58	H	1.717653	-0.719970	0.090175
N59	N	1.252744	-0.090333	-0.000081
H60	H	1.202350	-0.100386	-0.090380
H61	H	1.202449	-0.100413	0.090284
H62	H	1.694115	-0.276801	-0.000093
H63	H	1.697917	-0.133568	-0.000073
H64	H	1.095749	0.060158	0.344925
H65	H	1.687367	-0.530940	-0.000099
N66	N	1.640437	-0.075498	0.368081
H67	H	1.628358	-0.109886	0.454073
H68	H	1.561200	-0.069782	0.306590
H69	H	1.268346	-0.643623	-0.000099
H70	H	1.272145	-0.500389	-0.000111
N71	N	1.248376	-0.254454	-0.000102
H72	H	1.264250	-0.311740	-0.000099
H73	H	1.198771	-0.236976	0.090205
N74	N	1.628356	-0.071272	0.639561
H75	H	1.629783	-0.068618	0.750040
H76	H	1.540235	-0.078353	0.605327
N77	N	1.119327	0.113538	-0.276086
H78	H	1.057978	0.112554	-0.360218
H79	H	1.163370	0.161234	-0.281888
N80	N	1.795013	0.018726	0.631692
H81	H	1.851924	0.026404	0.545698
H82	H	1.784626	0.066412	0.693193
