data_functionalizedCrystal
_audit_creation_method	'MofGen! by Chris Wilmer'
_symmetry_space_group_name_H-M	'P1'
_symmetry_Int_Tables_number	1
_symmetry_cell_setting	triclinic
loop_
_symmetry_equiv_pos_as_xyz
  x,y,z
_cell_length_a	8.497374
_cell_length_b	12.759401
_cell_length_c	12.759400
_cell_angle_alpha	89.985155
_cell_angle_beta	89.991978
_cell_angle_gamma	90.000368
loop_
_atom_site_label
_atom_site_type_symbol
_atom_site_fract_x
_atom_site_fract_y
_atom_site_fract_z
Zn1	Zn	0.891904	1.606068	0.418444
Zn2	Zn	0.628108	1.606017	0.594091
Zn3	Zn	0.628137	1.430425	0.418427
Zn4	Zn	0.891846	1.430358	0.594082
O5	O	0.759999	1.518217	0.506261
O6	O	0.856923	1.753082	0.441755
O7	O	0.407350	1.582732	0.570785
O8	O	0.663163	1.453773	0.271408
O9	O	0.663113	1.753045	0.570802
O10	O	0.856951	1.582817	0.271421
O11	O	0.407371	1.453725	0.441725
O12	O	0.663107	1.283395	0.441717
O13	O	1.112616	1.453659	0.570787
O14	O	0.856853	1.283346	0.570770
O15	O	1.112658	1.582752	0.441746
O16	O	0.663058	1.582667	0.741110
O17	O	0.856824	1.453611	0.741104
C18	C	0.759978	1.245250	0.506241
C19	C	0.760006	1.128473	0.506258
C20	C	0.759966	1.518155	0.779228
C21	C	0.760005	1.518224	0.896005
C22	C	0.860722	1.073613	0.573564
C23	C	0.860739	0.963889	0.573577
C24	C	0.659310	0.963895	0.438977
C25	C	0.659302	1.073617	0.438959
C26	C	0.977011	1.073609	0.651278
C27	C	0.977028	0.963885	0.651291
C28	C	1.171479	1.518209	0.506262
C29	C	1.350123	1.518212	0.506274
C30	C	0.760021	1.792250	0.506281
C31	C	0.760031	1.909027	0.506290
C32	C	0.760066	1.518308	0.232228
C33	C	0.760095	1.518347	0.115451
C34	C	0.659222	1.585498	0.950835
C35	C	0.659270	1.585563	1.060559
C36	C	0.860889	1.451070	1.060613
C37	C	0.860847	1.451012	0.950891
C38	C	0.542814	1.663143	0.950805
C39	C	0.542862	1.663208	1.060529
H40	H	0.577299	1.118280	0.384145
C41	C	1.127908	1.399675	0.917092
C42	C	0.971640	1.377064	0.890625
H43	H	1.196306	1.354015	0.879891
H44	H	1.151061	1.470233	0.899039
H45	H	1.142338	1.390093	0.990296
H46	H	0.957207	1.386654	0.817421
H47	H	0.948479	1.306489	0.908671
C48	C	0.569871	0.795700	0.379246
C49	C	0.548601	0.903593	0.365017
H50	H	0.501509	0.758476	0.333591
H51	H	0.675893	0.777729	0.363976
H52	H	0.546607	0.777722	0.449819
H53	H	0.571875	0.921572	0.294444
H54	H	0.442554	0.921571	0.380279
C55	C	0.878693	1.037811	0.824045
C56	C	0.917663	1.119550	0.755548
H57	H	0.842061	1.066177	0.888418
H58	H	0.798450	0.995918	0.793558
H59	H	0.969154	0.995915	0.836627
H60	H	0.827200	1.161442	0.742960
H61	H	0.997914	1.161461	0.786042
H62	H	1.099249	1.103391	0.629612
H63	H	0.942993	1.396349	1.105314
C64	C	0.587051	1.772864	0.800756
C65	C	0.587111	1.772938	0.910498
H66	H	0.614389	1.840647	0.775875
H67	H	0.661505	1.723183	0.775971
H68	H	0.485205	1.754728	0.776000
H69	H	0.688961	1.791067	0.935255
H70	H	0.512654	1.822635	0.935294
C71	C	1.236775	0.999683	0.586392
C72	C	1.133817	0.917945	0.612126
H73	H	1.333566	0.971318	0.562216
H74	H	1.191252	1.041583	0.532843
H75	H	1.255350	1.041573	0.646671
H76	H	1.115233	0.876059	0.551845
H77	H	1.179349	0.876027	0.665679
C78	C	0.283169	1.598138	0.986702
C79	C	0.386068	1.623872	0.904924
H80	H	0.186400	1.573900	0.958373
H81	H	0.328773	1.544637	1.028624
H82	H	0.264531	1.658434	1.028559
H83	H	0.404716	1.563574	0.863071
H84	H	0.340455	1.677378	0.862985
H85	H	0.944096	0.934096	0.732632
H86	H	0.586726	1.740503	1.094486
H87	H	0.420664	1.641496	1.090358
