data_functionalizedCrystal
_audit_creation_method	'MofGen! by Chris Wilmer'
_symmetry_space_group_name_H-M	'P1'
_symmetry_Int_Tables_number	1
_symmetry_cell_setting	triclinic
loop_
_symmetry_equiv_pos_as_xyz
  x,y,z
_cell_length_a	19.188924
_cell_length_b	16.109295
_cell_length_c	18.266242
_cell_angle_alpha	90.006012
_cell_angle_beta	89.992796
_cell_angle_gamma	96.699425
loop_
_atom_site_label
_atom_site_type_symbol
_atom_site_fract_x
_atom_site_fract_y
_atom_site_fract_z
O1	O	0.089726	-1.102840	-0.060834
O2	O	0.589726	-0.602840	0.439166
O3	O	0.100899	-0.860740	-0.060847
O4	O	0.600899	-0.360740	0.439153
O5	O	-0.006327	-0.988780	-0.060832
O6	O	0.493673	-0.488780	0.439168
O7	O	0.196952	-0.974801	-0.060850
O8	O	0.696952	-0.474801	0.439150
O9	O	-0.006330	-0.988758	0.060930
O10	O	0.493670	-0.488758	0.560930
O11	O	0.100896	-0.860718	0.060915
O12	O	0.600896	-0.360718	0.560915
O13	O	0.089723	-1.102818	0.060928
O14	O	0.589723	-0.602818	0.560928
Zn15	Zn	0.095309	-0.981765	0.080253
Zn16	Zn	0.595309	-0.481765	0.580253
Zn17	Zn	0.095313	-0.981794	-0.080173
Zn18	Zn	0.595313	-0.481794	0.419827
O19	O	0.196949	-0.974779	0.060912
O20	O	0.696949	-0.474779	0.560912
C21	C	0.100446	-0.829756	0.000032
C22	C	0.600446	-0.329756	0.500032
C23	C	0.099091	-0.737465	0.000028
C24	C	0.599091	-0.237465	0.500028
C25	C	-0.032341	-0.988317	0.000050
C26	C	0.467659	-0.488317	0.500050
C27	C	-0.109849	-0.986961	0.000052
C28	C	0.390151	-0.486961	0.500052
C29	C	0.159565	-0.514990	0.000030
C30	C	0.659565	-0.014990	0.500030
C31	C	0.158287	-0.428273	0.000035
C32	C	0.658287	0.071727	0.500035
C33	C	0.031069	-0.448573	0.000043
C34	C	0.531069	0.051427	0.500043
C35	C	0.032348	-0.535288	0.000043
C36	C	0.532348	-0.035288	0.500043
C37	C	0.096598	-0.568493	0.000033
C38	C	0.596598	-0.068493	0.500033
C39	C	0.094041	-0.395062	0.000037
C40	C	0.594041	0.104938	0.500037
C41	C	0.092654	-0.301041	0.000042
C42	C	0.592654	0.198959	0.500042
C43	C	0.097985	-0.662521	0.000030
C44	C	0.597985	-0.162521	0.500030
C45	C	-0.146247	-0.986340	-0.066321
C46	C	0.353753	-0.486340	0.433679
C47	C	-0.219073	-0.985054	-0.066327
C48	C	0.280927	-0.485054	0.433673
C49	C	-0.255499	-0.984406	0.000044
C50	C	0.244501	-0.484406	0.500044
C51	C	-0.219091	-0.985022	0.066426
C52	C	0.280909	-0.485022	0.566426
C53	C	-0.146266	-0.986300	0.066429
C54	C	0.353734	-0.486300	0.566429
N55	N	-0.375059	-1.029704	0.049445
N56	N	0.124941	-0.529704	0.549445
N57	N	-0.444240	-1.028492	0.049437
N58	N	0.055760	-0.528492	0.549437
C59	C	-0.474917	-0.980555	0.000037
C60	C	0.025083	-0.480555	0.500037
N61	N	-0.433801	-0.933886	-0.049366
N62	N	0.066199	-0.433886	0.450634
N63	N	-0.364614	-0.935102	-0.049360
N64	N	0.135386	-0.435102	0.450640
C65	C	-0.334466	-0.983020	0.000047
C66	C	0.165534	-0.483020	0.500047
C67	C	-0.590282	-0.978538	-0.066346
C68	C	-0.090282	-0.478538	0.433654
C69	C	-0.663108	-0.977247	-0.066349
C70	C	-0.163108	-0.477247	0.433651
C71	C	-0.663126	-0.977224	0.066405
C72	C	-0.163126	-0.477224	0.566405
C73	C	-0.590300	-0.978507	0.066406
C74	C	-0.090300	-0.478507	0.566406
C75	C	-0.553883	-0.979168	0.000028
C76	C	-0.053883	-0.479168	0.500028
C77	C	0.222963	-0.975242	0.000029
C78	C	0.722963	-0.475242	0.500029
C79	C	0.300471	-0.976598	0.000022
C80	C	0.800471	-0.476598	0.500022
C81	C	0.090181	-0.133802	0.000046
C82	C	0.590181	0.366198	0.500046
C83	C	0.091548	-0.226091	0.000043
C84	C	0.591548	0.273909	0.500043
N85	N	0.095306	-0.981752	0.189740
N86	N	0.595306	-0.481752	0.689740
N87	N	0.095311	-0.981814	-0.189660
N88	N	0.595311	-0.481814	0.310340
C89	C	0.137668	-1.032012	0.228042
C90	C	0.637668	-0.532012	0.728042
C91	C	0.137666	-1.032026	0.304687
C92	C	0.637666	-0.532026	0.804687
C93	C	0.095310	-0.981764	0.343027
C94	C	0.595310	-0.481764	0.843027
C95	C	0.052939	-0.931500	0.304716
C96	C	0.552939	-0.431500	0.804716
C97	C	0.052937	-0.931494	0.228073
C98	C	0.552937	-0.431494	0.728073
N99	N	0.093421	-0.908950	0.463376
N100	N	0.593421	-0.408950	0.963376
N101	N	0.093427	-0.908958	0.536184
N102	N	0.593427	-0.408958	1.036184
C103	C	0.095313	-0.981780	0.573950
C104	C	0.595313	-0.481780	1.073950
N105	N	0.097206	-1.054595	0.536156
N106	N	0.597206	-0.554595	1.036156
N107	N	0.097203	-1.054586	0.463342
N108	N	0.597203	-0.554586	0.963342
C109	C	0.095307	-0.981765	0.426134
C110	C	0.595307	-0.481765	0.926134
C111	C	0.137675	-1.032060	0.695358
C112	C	0.637675	-0.532060	1.195358
C113	C	0.137668	-1.032076	0.772005
C114	C	0.637668	-0.532076	1.272005
C115	C	0.052945	-0.931542	0.772033
C116	C	0.552945	-0.431542	1.272033
C117	C	0.052948	-0.931534	0.695388
C118	C	0.552948	-0.431534	1.195388
C119	C	0.095317	-0.981792	0.657055
C120	C	0.595317	-0.481792	1.157055
H121	H	0.211882	-0.542023	0.000027
H122	H	0.711882	-0.042023	0.500027
F123	F	-0.257859	-0.984327	0.137062
F124	F	0.242141	-0.484327	0.637062
F125	F	-0.551521	-0.979237	-0.136990
F126	F	-0.051521	-0.479237	0.363010
F127	F	-0.701888	-0.976530	0.137042
F128	F	-0.201888	-0.476530	0.637042
F129	F	-0.037307	-0.413225	0.000050
F130	F	0.462693	0.086775	0.500050
H131	H	0.018455	-0.890603	0.664202
H132	H	0.518455	-0.390603	1.164202
F133	F	0.182755	-1.085577	0.812768
F134	F	0.682755	-0.585577	1.312768
H135	H	-0.116630	-0.986802	0.120480
H136	H	0.383370	-0.486802	0.620480
H137	H	0.172174	-1.072984	0.664146
H138	H	0.672174	-0.572984	1.164146
H139	H	-0.248714	-0.984543	-0.120377
H140	H	0.251286	-0.484543	0.379623
H141	H	0.018457	-0.890618	0.803249
H142	H	0.518457	-0.390618	1.303249
H143	H	0.209561	-0.384713	0.000033
H144	H	0.709561	0.115287	0.500033
H145	H	-0.018930	-0.578853	0.000048
H146	H	0.481070	-0.078853	0.500048
F147	F	-0.107493	-0.987039	-0.136966
F148	F	0.392507	-0.487039	0.363034
F149	F	0.182772	-1.085488	0.187250
F150	F	0.682772	-0.585488	0.687250
F151	F	-0.701846	-0.976580	-0.136996
F152	F	-0.201846	-0.476580	0.363004
F153	F	0.182755	-1.085523	0.345459
F154	F	0.682755	-0.585523	0.845459
H155	H	-0.560664	-0.979019	0.120454
H156	H	-0.060664	-0.479019	0.620454
H157	H	0.018452	-0.890577	0.335938
H158	H	0.518452	-0.390577	0.835938
F159	F	0.007851	-0.877993	0.187308
F160	F	0.507851	-0.377993	0.687308
