data_functionalizedCrystal
_audit_creation_method	'MofGen! by Chris Wilmer'
_symmetry_space_group_name_H-M	'P1'
_symmetry_Int_Tables_number	1
_symmetry_cell_setting	triclinic
loop_
_symmetry_equiv_pos_as_xyz
  x,y,z
_cell_length_a	16.109301
_cell_length_b	17.699083
_cell_length_c	15.186229
_cell_angle_alpha	90.001174
_cell_angle_beta	90.003248
_cell_angle_gamma	83.372299
loop_
_atom_site_label
_atom_site_type_symbol
_atom_site_fract_x
_atom_site_fract_y
_atom_site_fract_z
O1	O	1.102966	0.097281	0.073182
O2	O	0.860883	0.109388	0.073195
O3	O	0.988764	-0.006845	0.073180
O4	O	0.975085	0.213514	0.073196
O5	O	0.988749	-0.006838	-0.073277
O6	O	0.860868	0.109395	-0.073263
O7	O	1.102951	0.097288	-0.073275
Zn8	Zn	0.981907	0.103342	-0.096522
Zn9	Zn	0.981927	0.103334	0.096441
O10	O	0.975070	0.213521	-0.073261
C11	C	0.829902	0.108901	-0.000033
C12	C	0.737609	0.107431	-0.000028
C13	C	0.428500	0.171594	-0.000039
C14	C	0.515218	0.172983	-0.000033
C15	C	0.535329	0.035076	-0.000032
C16	C	0.448613	0.033689	-0.000031
C17	C	0.395200	0.101950	-0.000039
C18	C	0.568634	0.104726	-0.000034
C19	C	0.662658	0.106231	-0.000029
C20	C	0.301171	0.100445	-0.000043
C21	C	0.988267	-0.035039	-0.000049
C22	C	0.986796	-0.119059	-0.000049
C23	C	1.061859	-0.167573	-0.000054
C24	C	1.060473	-0.246518	-0.000046
C25	C	0.984022	-0.276948	-0.000039
C26	C	0.908953	-0.228428	-0.000032
C27	C	0.910340	-0.149485	-0.000033
C28	C	0.903356	-0.546799	-0.000024
C29	C	0.901974	-0.625749	-0.000025
C30	C	1.053488	-0.643833	-0.000037
C31	C	1.054876	-0.564889	-0.000039
C32	C	0.979807	-0.516376	-0.000026
C33	C	0.981312	-0.430775	-0.000033
C34	C	0.982517	-0.362548	-0.000039
C35	C	1.133933	0.097775	-0.000046
C36	C	1.226225	0.099245	-0.000045
C37	C	0.975568	0.241715	-0.000030
C38	C	0.977038	0.325735	-0.000024
N39	N	0.981900	0.103348	-0.228215
C40	C	1.032245	0.149255	-0.453937
C41	C	1.032254	0.149249	-0.546127
C42	C	0.931594	0.057410	-0.546137
C43	C	0.931590	0.057412	-0.453949
C44	C	0.981914	0.103339	-0.407852
C45	C	0.981927	0.103331	-0.592229
C46	C	0.981937	0.103325	-0.692185
C47	C	0.981906	0.103344	-0.307889
N48	N	0.981941	0.103322	0.228134
H49	H	0.385014	0.227177	-0.000044
F50	F	0.550654	0.247108	-0.000030
H51	H	0.890622	0.020019	-0.583681
F52	F	0.823461	-0.495178	-0.000009
H53	H	0.846705	-0.253211	-0.000021
H54	H	1.121597	-0.286016	-0.000052
F55	F	0.592181	-0.037568	-0.000030
F56	F	0.413171	-0.040440	-0.000021
H57	H	1.073222	0.186651	-0.416407
H58	H	1.114613	-0.683342	-0.000043
F59	F	0.830448	-0.097853	-0.000025
H60	H	1.124115	-0.142804	-0.000065
F61	F	1.136245	-0.532508	-0.000045
F62	F	1.085824	0.198118	-0.595170
H63	H	0.890604	0.020018	-0.416426
H64	H	0.839715	-0.650522	-0.000022
