data_functionalizedCrystal
_audit_creation_method	'MofGen! by Chris Wilmer'
_symmetry_space_group_name_H-M	'P1'
_symmetry_Int_Tables_number	1
_symmetry_cell_setting	triclinic
loop_
_symmetry_equiv_pos_as_xyz
  x,y,z
_cell_length_a	15.944545
_cell_length_b	19.188930
_cell_length_c	15.021413
_cell_angle_alpha	89.998889
_cell_angle_beta	89.995468
_cell_angle_gamma	83.320477
loop_
_atom_site_label
_atom_site_type_symbol
_atom_site_fract_x
_atom_site_fract_y
_atom_site_fract_z
O1	O	1.114195	0.090018	-0.073985
O2	O	0.869603	0.101124	-0.074000
O3	O	0.998958	-0.006067	-0.073975
O4	O	0.984841	0.197208	-0.074010
O5	O	0.998937	-0.006051	0.074089
O6	O	0.869583	0.101140	0.074064
O7	O	1.114175	0.090033	0.074080
Zn8	Zn	0.991876	0.095589	0.097580
Zn9	Zn	0.991903	0.095569	-0.097501
O10	O	0.984820	0.197224	0.074054
C11	C	0.838301	0.100672	0.000030
C12	C	0.745060	0.099292	0.000025
C13	C	0.474691	0.028726	0.000047
C14	C	0.525135	0.062755	0.073046
C15	C	0.409434	0.094370	0.000041
C16	C	0.525136	0.062757	-0.072934
C17	C	0.574339	0.096785	0.000031
C18	C	0.458650	0.128381	0.073101
C19	C	0.458648	0.128374	-0.072945
C20	C	0.509059	0.162451	0.000073
C21	C	0.314437	0.092977	0.000047
C22	C	0.669333	0.098183	0.000032
C23	C	0.998490	-0.032071	0.000060
C24	C	0.997118	-0.109579	0.000067
C25	C	1.073019	-0.154308	0.000077
C26	C	1.071730	-0.227135	0.000062
C27	C	0.994535	-0.255230	0.000057
C28	C	0.918624	-0.210491	0.000043
C29	C	0.919916	-0.137666	0.000048
N30	N	0.935522	-0.363381	0.050442
N31	N	0.934301	-0.432563	0.050439
C32	C	0.990640	-0.474649	0.000038
N33	N	1.048259	-0.444941	-0.050347
N34	N	1.049483	-0.375753	-0.050340
C35	C	0.993126	-0.334196	0.000050
C36	C	1.065148	-0.598346	0.000031
C37	C	1.063855	-0.671174	0.000011
C38	C	0.910748	-0.654528	0.000000
C39	C	0.912042	-0.581702	0.000011
C40	C	0.989245	-0.553615	0.000031
C41	C	1.145477	0.090486	0.000047
C42	C	1.238719	0.091866	0.000047
C43	C	0.985288	0.223228	0.000017
C44	C	0.986660	0.300736	0.000004
N45	N	0.991863	0.095602	0.230718
N46	N	0.991922	0.095550	-0.230639
C47	C	0.932041	0.145144	0.470389
C48	C	1.007891	0.158697	0.529726
C49	C	0.991885	0.095585	0.412325
C50	C	0.916055	0.082047	0.529730
C51	C	0.991899	0.095569	0.587749
C52	C	1.067773	0.109169	0.470355
C53	C	0.975888	0.032492	0.470354
C54	C	1.051793	0.046018	0.529663
C55	C	0.991875	0.095595	0.311267
C56	C	0.991917	0.095558	0.688804
H57	H	0.554161	0.035038	0.134771
H58	H	0.524339	0.219028	0.000106
H59	H	0.858106	-0.101246	0.000041
H60	H	0.429729	0.156090	0.134882
O61	O	0.957927	-0.038155	0.435773
H62	H	0.900080	-0.031485	0.394080
H63	H	0.847895	-0.677402	-0.000009
O64	O	1.153599	-0.275389	0.000081
H65	H	1.156648	-0.308967	0.060428
H66	H	0.459249	-0.027807	0.000127
H67	H	0.851922	0.070604	0.555813
H68	H	0.850236	-0.545282	0.000009
O69	O	0.420157	0.165052	-0.154704
H70	H	0.446916	0.137676	-0.215214
H71	H	0.554166	0.035017	-0.134645
O72	O	0.865067	0.200697	0.435910
H73	H	0.865253	0.199882	0.362027
H74	H	0.855772	-0.233370	0.000036
O75	O	1.148412	-0.568047	0.000031
H76	H	1.184872	-0.586024	0.060374
O77	O	1.156287	-0.124020	0.000074
H78	H	1.192746	-0.141995	0.060418
O79	O	1.145723	-0.719424	0.000028
H80	H	1.199620	-0.687655	0.000054
O81	O	1.152745	0.124417	0.435966
H82	H	1.152061	0.124332	0.362079
H83	H	1.102462	0.004099	0.555526
O84	O	1.025807	0.229354	0.564327
H85	H	0.976032	0.270409	0.540612
