data_functionalizedCrystal
_audit_creation_method	'MofGen! by Chris Wilmer'
_symmetry_space_group_name_H-M	'P1'
_symmetry_Int_Tables_number	1
_symmetry_cell_setting	triclinic
loop_
_symmetry_equiv_pos_as_xyz
  x,y,z
_cell_length_a	12.759401
_cell_length_b	29.839131
_cell_length_c	12.759393
_cell_angle_alpha	90.037890
_cell_angle_beta	90.018496
_cell_angle_gamma	90.041581
loop_
_atom_site_label
_atom_site_type_symbol
_atom_site_fract_x
_atom_site_fract_y
_atom_site_fract_z
Zn1	Zn	1.606060	-0.178825	0.593935
Zn2	Zn	1.605873	-0.253963	0.418236
Zn3	Zn	1.430362	-0.178848	0.418275
Zn4	Zn	1.430269	-0.253929	0.593877
O5	O	1.518141	-0.216391	0.506081
O6	O	1.753056	-0.188797	0.570636
O7	O	1.582551	-0.244024	0.271220
O8	O	1.453787	-0.115978	0.441617
O9	O	1.752919	-0.244001	0.441551
O10	O	1.582871	-0.115961	0.570674
O11	O	1.453605	-0.188837	0.271248
O12	O	1.283329	-0.188803	0.441561
O13	O	1.453628	-0.243942	0.740906
O14	O	1.283260	-0.243965	0.570575
O15	O	1.582781	-0.188763	0.740949
O16	O	1.582461	-0.316826	0.441495
O17	O	1.453446	-0.316801	0.570538
C18	C	1.245174	-0.216383	0.506066
C19	C	1.128397	-0.216390	0.506085
C20	C	1.073527	-0.245159	0.573152
C21	C	0.963803	-0.245165	0.573163
C22	C	0.963829	-0.187632	0.439032
C23	C	1.073551	-0.187624	0.439027
C24	C	1.128373	-0.273925	0.640210
C25	C	1.073503	-0.302696	0.707282
C26	C	0.963779	-0.302702	0.707293
C27	C	0.908925	-0.273936	0.640233
C28	C	1.517951	-0.333114	0.506029
C29	C	1.517966	-0.383048	0.506041
C30	C	1.585441	-0.692692	0.438986
C31	C	1.585571	-0.880365	0.439027
O32	O	1.642790	-0.904631	0.381974
N33	N	1.518359	-0.903833	0.506160
C34	C	1.451114	-0.880380	0.573292
O35	O	1.393957	-0.904648	0.630402
C36	C	1.450991	-0.692708	0.573256
C37	C	1.518200	-0.669243	0.506111
C38	C	1.652646	-0.669227	0.371848
C39	C	1.652609	-0.622311	0.371834
C40	C	1.585367	-0.598861	0.438959
C41	C	1.518163	-0.622327	0.506098
C42	C	1.383752	-0.669256	0.640393
C43	C	1.383729	-0.622335	0.640380
C44	C	1.450938	-0.598869	0.573235
C45	C	1.450884	-0.551962	0.573209
N46	N	1.518096	-0.528494	0.506076
C47	C	1.585338	-0.551944	0.438951
C48	C	1.451183	-0.978911	0.573305
C49	C	1.451212	-1.025829	0.573313
C50	C	1.585670	-1.025811	0.439049
C51	C	1.585635	-0.978892	0.439036
C52	C	1.518395	-0.955443	0.506172
C53	C	1.585254	-0.453418	0.438927
C54	C	1.585208	-0.406498	0.438916
C55	C	1.450754	-0.406521	0.573184
C56	C	1.450796	-0.453436	0.573191
C57	C	1.518054	-0.476884	0.506059
O58	O	1.393703	-0.527668	0.630240
O59	O	1.642503	-0.527668	0.381867
C60	C	1.585479	-0.739608	0.439000
C61	C	1.518274	-0.763073	0.506138
C62	C	1.451033	-0.739624	0.573263
C63	C	1.518304	-0.809991	0.506146
C64	C	1.585545	-0.833441	0.439021
C65	C	1.652757	-0.809973	0.371888
C66	C	1.652720	-0.763058	0.371875
C67	C	1.383820	-0.763092	0.640396
C68	C	1.383862	-0.810007	0.640404
C69	C	1.451104	-0.833457	0.573279
C70	C	1.792174	-0.216400	0.506096
C71	C	1.908951	-0.216404	0.506102
C72	C	1.518215	-0.216346	0.780114
C73	C	1.518246	-0.216327	0.896891
C74	C	1.518360	-0.099213	0.506156
C75	C	1.518454	-0.049279	0.506188
C76	C	1.518128	-0.216404	0.233113
C77	C	1.518301	-0.216297	0.116337
C78	C	1.585505	-0.187593	0.951777
C79	C	1.585530	-0.187576	1.061501
C80	C	1.451034	-0.245032	1.061444
C81	C	1.451004	-0.245046	0.951722
C82	C	1.652747	-0.158873	0.896946
C83	C	1.720013	-0.130137	0.951832
C84	C	1.720038	-0.130121	1.061556
C85	C	1.652797	-0.158841	1.116394
H86	H	1.118227	-0.164195	0.384423
Cl87	Cl	1.299279	-0.733619	0.724791
H88	H	1.118172	-0.326113	0.761886
Cl89	Cl	0.894801	-0.338867	0.791618
Cl90	Cl	1.366513	-0.281137	1.130384
Cl91	Cl	0.770984	-0.273941	0.640258
Cl92	Cl	1.652724	-0.158893	0.759008
Cl93	Cl	1.669706	-0.377002	0.354500
H94	H	1.774751	-0.106752	0.907176
H95	H	1.774801	-0.106719	1.106241
Cl96	Cl	1.652817	-0.158813	1.254335
Cl97	Cl	0.894869	-0.151474	0.354732
Cl98	Cl	1.366704	-1.055323	0.657715
H99	H	1.396220	-0.268437	0.907032
H100	H	1.640025	-0.472503	0.384264
Cl101	Cl	1.737121	-0.592819	0.287435
H102	H	1.217716	-0.273924	0.640207
Cl103	Cl	1.737190	-0.698698	0.287450
Cl104	Cl	1.670131	-0.949397	0.354624
Cl105	Cl	1.670201	-1.055299	0.354662
H106	H	1.396425	-0.959822	0.627977
H107	H	1.329018	-0.688354	0.695065
H108	H	1.328975	-0.603245	0.695053
H109	H	1.396072	-0.472543	0.627869
H110	H	1.396003	-0.387420	0.627834
H111	H	1.707448	-0.743955	0.317199
H112	H	1.329123	-0.829109	0.695080
Cl113	Cl	1.737287	-0.839462	0.287501
