data_functionalizedCrystal
_audit_creation_method	'MofGen! by Chris Wilmer'
_symmetry_space_group_name_H-M	'P1'
_symmetry_Int_Tables_number	1
_symmetry_cell_setting	triclinic
loop_
_symmetry_equiv_pos_as_xyz
  x,y,z
_cell_length_a	16.959455
_cell_length_b	19.121063
_cell_length_c	16.959447
_cell_angle_alpha	92.406654
_cell_angle_beta	89.983056
_cell_angle_gamma	92.465894
loop_
_atom_site_label
_atom_site_type_symbol
_atom_site_fract_x
_atom_site_fract_y
_atom_site_fract_z
Zn1	Zn	1.194936	-0.279656	-0.460312
Zn2	Zn	1.528269	0.053678	-0.126978
Zn3	Zn	1.861603	0.387011	0.206355
Zn4	Zn	1.189196	-0.397116	-0.333763
Zn5	Zn	1.522529	-0.063783	-0.000429
Zn6	Zn	1.855862	0.269550	0.332904
Zn7	Zn	1.062757	-0.279678	-0.328150
Zn8	Zn	1.396091	0.053656	0.005183
Zn9	Zn	1.729424	0.386989	0.338516
Zn10	Zn	1.057075	-0.397064	-0.465899
Zn11	Zn	1.390408	-0.063730	-0.132565
Zn12	Zn	1.723741	0.269603	0.200768
O13	O	1.125991	-0.338378	-0.397031
O14	O	1.459324	-0.005045	-0.063697
O15	O	1.792658	0.328288	0.269636
O16	O	1.304785	-0.295250	-0.443535
O17	O	1.638118	0.038084	-0.110202
O18	O	1.971451	0.371417	0.223131
O19	O	1.172399	-0.381569	-0.222409
O20	O	1.505732	-0.048236	0.110925
O21	O	1.839066	0.285097	0.444258
O22	O	1.085072	-0.181391	-0.340995
O23	O	1.418405	0.151943	-0.007661
O24	O	1.751738	0.485276	0.325672
O25	O	1.300567	-0.381548	-0.350560
O26	O	1.633901	-0.048214	-0.017227
O27	O	1.967234	0.285119	0.316106
O28	O	1.182183	-0.181374	-0.438093
O29	O	1.515516	0.151959	-0.104760
O30	O	1.848849	0.485292	0.228573
O31	O	1.079505	-0.295288	-0.218285
O32	O	1.412839	0.038046	0.115048
O33	O	1.746172	0.371379	0.448381
O34	O	0.951393	-0.295237	-0.346412
O35	O	1.284727	0.038097	-0.013079
O36	O	1.618060	0.371430	0.320254
O37	O	1.075387	-0.381458	-0.575767
O38	O	1.408720	-0.048125	-0.242434
O39	O	1.742053	0.285209	0.090900
O40	O	0.947218	-0.381480	-0.447615
O41	O	1.280552	-0.048146	-0.114282
O42	O	1.613885	0.285187	0.219051
O43	O	1.176673	-0.295199	-0.571662
O44	O	1.510006	0.038135	-0.238329
O45	O	1.843339	0.371468	0.095004
O46	O	1.166889	-0.495394	-0.355978
O47	O	1.500222	-0.162060	-0.022644
O48	O	1.833556	0.171273	0.310689
O49	O	1.069820	-0.495355	-0.453058
O50	O	1.403154	-0.162022	-0.119724
O51	O	1.736487	0.171312	0.213609
C52	C	0.920626	-0.338355	-0.397012
C53	C	1.253959	-0.005022	-0.063678
C54	C	1.587292	0.328311	0.269655
C55	C	0.832769	-0.338362	-0.397023
C56	C	1.166102	-0.005029	-0.063690
C57	C	1.499435	0.328304	0.269644
C58	C	0.463444	-0.293435	-0.344438
C59	C	0.796777	0.039898	-0.011105
C60	C	1.130110	0.373232	0.322229
C61	C	0.459138	-0.383380	-0.449671
C62	C	0.792472	-0.050046	-0.116338
C63	C	1.125805	0.283287	0.216995
C64	C	0.541685	-0.383370	-0.449666
C65	C	0.875018	-0.050036	-0.116333
C66	C	1.208351	0.283297	0.217000
C67	C	0.585114	-0.338392	-0.397045
C68	C	0.918448	-0.005059	-0.063712
C69	C	1.251781	0.328274	0.269621
C70	C	0.545998	-0.293425	-0.344430
C71	C	0.879331	0.039908	-0.011096
C72	C	1.212664	0.373242	0.322237
C73	C	0.580807	-0.428341	-0.502275
C74	C	0.914141	-0.095008	-0.168942
C75	C	1.247474	0.238326	0.164391
C76	C	0.663359	-0.428333	-0.502272
C77	C	0.996692	-0.095000	-0.168938
C78	C	1.330025	0.238333	0.164395
C79	C	0.706790	-0.383352	-0.449654
C80	C	1.040123	-0.050019	-0.116321
C81	C	1.373457	0.283315	0.217013
C82	C	0.667668	-0.338382	-0.397037
C83	C	1.001002	-0.005049	-0.063703
C84	C	1.334335	0.328284	0.269630
C85	C	0.711098	-0.293405	-0.344416
C86	C	1.044431	0.039928	-0.011082
C87	C	1.377765	0.373262	0.322251
C88	C	0.671978	-0.248431	-0.291802
C89	C	1.005311	0.084902	0.041532
C90	C	1.338645	0.418236	0.374865
C91	C	0.589429	-0.248443	-0.291812
C92	C	0.922762	0.084890	0.041522
C93	C	1.256096	0.418223	0.374855
C94	C	0.789339	-0.383340	-0.449644
C95	C	1.122672	-0.050006	-0.116311
C96	C	1.456006	0.283327	0.217023
C97	C	0.793652	-0.293395	-0.344407
C98	C	1.126985	0.039938	-0.011074
C99	C	1.460319	0.373272	0.322259
C100	C	1.117136	-0.520858	-0.405750
C101	C	1.450470	-0.187525	-0.072417
C102	C	1.783803	0.145808	0.260916
C103	C	1.113421	-0.598924	-0.409507
C104	C	1.446754	-0.265591	-0.076173
C105	C	1.780087	0.067743	0.257160
C106	C	1.162253	-0.635596	-0.360769
C107	C	1.495586	-0.302263	-0.027436
C108	C	1.828920	0.031070	0.305897
C109	C	1.158763	-0.708947	-0.364307
C110	C	1.492096	-0.375614	-0.030974
C111	C	1.825430	-0.042280	0.302360
C112	C	1.106437	-0.745625	-0.416579
C113	C	1.439770	-0.412291	-0.083246
C114	C	1.773103	-0.078958	0.250088
C115	C	1.057602	-0.708947	-0.465322
C116	C	1.390936	-0.375614	-0.131988
C117	C	1.724269	-0.042280	0.201345
C118	C	1.061097	-0.635598	-0.461787
C119	C	1.394430	-0.302264	-0.128454
C120	C	1.727764	0.031069	0.204879
C121	C	1.093359	-0.967093	-0.429780
C122	C	1.426692	-0.633760	-0.096447
C123	C	1.760026	-0.300427	0.236886
C124	C	1.089867	-1.040448	-0.433309
C125	C	1.423200	-0.707115	-0.099976
C126	C	1.756533	-0.373781	0.233357
C127	C	1.191029	-1.040443	-0.332295
C128	C	1.524362	-0.707110	0.001038
C129	C	1.857695	-0.373776	0.334371
C130	C	1.194515	-0.967092	-0.328762
C131	C	1.527848	-0.633759	0.004571
C132	C	1.861182	-0.300425	0.337904
C133	C	1.145684	-0.930421	-0.377508
C134	C	1.479017	-0.597088	-0.044175
C135	C	1.812351	-0.263754	0.289159
C136	C	1.102866	-0.820601	-0.420194
C137	C	1.436200	-0.487268	-0.086861
C138	C	1.769533	-0.153934	0.246472
C139	C	1.149259	-0.855446	-0.373896
C140	C	1.482592	-0.522112	-0.040563
C141	C	1.815925	-0.188779	0.292771
C142	C	1.332158	-0.338402	-0.397051
C143	C	1.665491	-0.005069	-0.063717
C144	C	1.998825	0.328265	0.269616
C145	C	1.420014	-0.338412	-0.397059
C146	C	1.753347	-0.005079	-0.063726
C147	C	2.086681	0.328254	0.269608
C148	C	1.126036	-0.338320	-0.603196
C149	C	1.459369	-0.004987	-0.269863
C150	C	1.792703	0.328347	0.063470
C151	C	1.126055	-0.338295	-0.691052
C152	C	1.459389	-0.004962	-0.357718
C153	C	1.792722	0.328372	-0.024385
C154	C	1.134901	-0.155186	-0.388295
C155	C	1.468235	0.178147	-0.054961
C156	C	1.801568	0.511481	0.278372
C157	C	1.138699	-0.077120	-0.384572
C158	C	1.472032	0.256213	-0.051239
C159	C	1.805365	0.589546	0.282095
C160	C	1.077763	-0.293298	-1.060383
C161	C	1.411096	0.040035	-0.727050
C162	C	1.744430	0.373368	-0.393717
C163	C	1.174494	-0.383144	-1.064665
C164	C	1.507827	-0.049811	-0.731331
C165	C	1.841160	0.283523	-0.397998
C166	C	1.174479	-0.383160	-0.982120
C167	C	1.507813	-0.049827	-0.648786
C168	C	1.841146	0.283506	-0.315453
C169	C	1.126105	-0.338246	-0.938703
C170	C	1.459438	-0.004912	-0.605369
C171	C	1.792772	0.328421	-0.272036
C172	C	1.077745	-0.293315	-0.977831
C173	C	1.411079	0.040019	-0.644497
C174	C	1.744412	0.373352	-0.311164
C175	C	1.222832	-0.428096	-0.942985
C176	C	1.556166	-0.094762	-0.609652
C177	C	1.889499	0.238571	-0.276319
C178	C	1.222819	-0.428115	-0.860435
C179	C	1.556153	-0.094781	-0.527102
C180	C	1.889486	0.238552	-0.193769
C181	C	1.174448	-0.383196	-0.817017
C182	C	1.507782	-0.049862	-0.483683
C183	C	1.841115	0.283471	-0.150350
C184	C	1.126087	-0.338262	-0.856150
C185	C	1.459421	-0.004929	-0.522816
C186	C	1.792754	0.328404	-0.189483
C187	C	1.077713	-0.293348	-0.812733
C188	C	1.411047	0.039986	-0.479399
C189	C	1.744380	0.373319	-0.146066
C190	C	1.029356	-0.248410	-0.851864
C191	C	1.362689	0.084923	-0.518531
C192	C	1.696022	0.418257	-0.185197
C193	C	1.029375	-0.248396	-0.934412
C194	C	1.362708	0.084937	-0.601079
C195	C	1.696041	0.418271	-0.267745
C196	C	1.174430	-0.383210	-0.734469
C197	C	1.507763	-0.049876	-0.401135
C198	C	1.841096	0.283457	-0.067802
C199	C	1.077696	-0.293364	-0.730180
C200	C	1.411029	0.039969	-0.396847
C201	C	1.744362	0.373303	-0.063513
C202	C	1.125994	-0.338386	-0.191665
C203	C	1.459327	-0.005053	0.141668
C204	C	1.792661	0.328281	0.475002
C205	C	1.126137	-0.338213	-0.103800
C206	C	1.459471	-0.004880	0.229533
C207	C	1.792804	0.328454	0.562866
H208	H	0.423773	-0.420002	-0.492509
H209	H	0.757106	-0.086669	-0.159175
H210	H	1.090440	0.246664	0.174158
Cl211	Cl	1.235296	-0.439611	-1.119247
Cl212	Cl	1.568630	-0.106278	-0.785914
Cl213	Cl	1.901963	0.227055	-0.452580
Cl214	Cl	0.526206	-0.484902	-0.568399
Cl215	Cl	0.859540	-0.151569	-0.235065
Cl216	Cl	1.192873	0.181764	0.098268
Cl217	Cl	1.283633	-0.484563	-0.997570
Cl218	Cl	1.616966	-0.151230	-0.664237
Cl219	Cl	1.950300	0.182104	-0.330903
H220	H	0.989966	-0.211843	-0.816503
H221	H	1.323299	0.121490	-0.483170
H222	H	1.656633	0.454823	-0.149837
H223	H	1.204859	-0.605738	-0.318201
H224	H	1.538193	-0.272405	0.015133
H225	H	1.871526	0.060928	0.348466
Cl226	Cl	0.999708	-0.589495	-0.523063
Cl227	Cl	1.333041	-0.256162	-0.189729
Cl228	Cl	1.666374	0.077172	0.143604
Cl229	Cl	1.260311	-0.920988	-0.263058
Cl230	Cl	1.593644	-0.587655	0.070276
Cl231	Cl	1.926977	-0.254322	0.403609
H232	H	1.262194	-0.464706	-0.828582
H233	H	1.595527	-0.131373	-0.495248
H234	H	1.928861	0.201961	-0.161915
Cl235	Cl	1.235210	-0.439703	-0.685279
Cl236	Cl	1.568544	-0.106370	-0.351945
Cl237	Cl	1.901877	0.226964	-0.018612
Cl238	Cl	1.024069	-1.086556	-0.499017
Cl239	Cl	1.357403	-0.753223	-0.165684
Cl240	Cl	1.690736	-0.419889	0.167649
H241	H	0.990004	-0.211811	-0.966280
H242	H	1.323337	0.121522	-0.632947
H243	H	1.656670	0.454856	-0.299614
Cl244	Cl	1.016977	-0.236806	-1.109574
Cl245	Cl	1.350310	0.096528	-0.776241
Cl246	Cl	1.683644	0.429861	-0.442908
Cl247	Cl	0.991825	-0.755056	-0.531040
Cl248	Cl	1.325158	-0.421723	-0.197707
Cl249	Cl	1.658491	-0.088389	0.135627
H250	H	0.829007	-0.256764	-0.301561
H251	H	1.162341	0.076569	0.031772
H252	H	1.495674	0.409903	0.365106
Cl253	Cl	1.215041	-0.809336	-0.308188
Cl254	Cl	1.548374	-0.476003	0.025145
Cl255	Cl	1.881708	-0.142669	0.358479
Cl256	Cl	0.726585	-0.191895	-0.225648
Cl257	Cl	1.059918	0.141439	0.107686
Cl258	Cl	1.393251	0.474772	0.441019
Cl259	Cl	1.037086	-0.866716	-0.485905
Cl260	Cl	1.370419	-0.533383	-0.152572
Cl261	Cl	1.703752	-0.200049	0.180762
H262	H	0.557570	-0.211829	-0.248975
H263	H	0.890903	0.121504	0.084358
H264	H	1.224237	0.454838	0.417691
Cl265	Cl	0.414267	-0.236896	-0.278302
Cl266	Cl	0.747601	0.096438	0.055031
Cl267	Cl	1.080934	0.429771	0.388365
H268	H	0.695203	-0.464953	-0.545114
H269	H	1.028536	-0.131620	-0.211780
H270	H	1.361870	0.201713	0.121553
Cl271	Cl	1.016883	-0.236892	-0.675605
Cl272	Cl	1.350216	0.096441	-0.342272
Cl273	Cl	1.683549	0.429774	-0.008938
H274	H	1.198527	-0.738802	-0.324619
H275	H	1.531860	-0.405469	0.008714
H276	H	1.865193	-0.072136	0.342048
H277	H	0.821187	-0.419959	-0.492479
H278	H	1.154520	-0.086625	-0.159146
H279	H	1.487854	0.246708	0.174188
H280	H	1.053597	-0.937241	-0.469470
H281	H	1.386931	-0.603908	-0.136136
H282	H	1.720264	-0.270575	0.197197
Cl283	Cl	1.252417	-1.086548	-0.271024
Cl284	Cl	1.585751	-0.753214	0.062309
Cl285	Cl	1.919084	-0.419881	0.395642
