data_functionalizedCrystal
_audit_creation_method	'MofGen! by Chris Wilmer'
_symmetry_space_group_name_H-M	'P1'
_symmetry_Int_Tables_number	1
_symmetry_cell_setting	triclinic
loop_
_symmetry_equiv_pos_as_xyz
  x,y,z
_cell_length_a	19.121102
_cell_length_b	12.645330
_cell_length_c	12.645323
_cell_angle_alpha	89.975130
_cell_angle_beta	92.461268
_cell_angle_gamma	92.427794
loop_
_atom_site_label
_atom_site_type_symbol
_atom_site_fract_x
_atom_site_fract_y
_atom_site_fract_z
Zn1	Zn	1.073790	0.491281	0.668502
Zn2	Zn	1.073712	0.668564	0.491237
Zn3	Zn	0.956333	0.483745	0.483693
Zn4	Zn	0.956320	0.660927	0.660903
O5	O	1.015039	0.576130	0.576084
O6	O	1.172065	0.521148	0.651326
O7	O	1.058113	0.644090	0.341888
O8	O	0.971951	0.336400	0.508231
O9	O	1.172007	0.651397	0.521090
O10	O	1.058247	0.341937	0.644010
O11	O	0.971875	0.508304	0.336345
O12	O	0.858046	0.500899	0.500863
O13	O	0.971931	0.638381	0.810261
O14	O	0.858037	0.631074	0.631058
O15	O	1.058235	0.513743	0.815844
O16	O	1.058102	0.815896	0.513721
O17	O	0.971855	0.810285	0.638374
C18	C	0.832557	0.564341	0.564318
C19	C	0.754491	0.559323	0.559309
C20	C	1.014988	0.851556	0.576066
C21	C	1.015030	0.969389	0.576098
C22	C	1.015091	0.576051	0.852593
C23	C	1.015113	0.576017	0.970424
C24	C	0.717829	0.624843	0.624636
C25	C	0.644477	0.620114	0.619935
C26	C	0.607789	0.549870	0.549902
C27	C	0.644456	0.484343	0.484573
C28	C	0.717806	0.489067	0.489280
C29	C	0.386317	0.532206	0.532309
C30	C	0.312962	0.527489	0.527604
C31	C	0.312988	0.663259	0.662969
C32	C	0.386340	0.667982	0.667665
C33	C	0.423000	0.602451	0.602340
C34	C	0.532811	0.545037	0.545093
C35	C	0.497976	0.607279	0.607155
C36	C	1.198233	0.587965	0.587897
C37	C	1.276299	0.593009	0.592931
C38	C	1.015109	0.299629	0.576127
C39	C	1.015139	0.181801	0.576145
C40	C	0.960996	1.133482	0.654784
C41	C	0.960719	1.010904	0.654502
C42	C	0.994991	1.012691	0.463087
C43	C	0.994661	1.135268	0.463565
C44	C	1.089433	1.141276	0.609538
C45	C	1.088977	1.018640	0.611951
C46	C	1.015028	0.576134	0.300654
C47	C	1.015142	0.575878	0.182831
C48	C	0.960651	0.654031	1.134465
C49	C	0.960793	0.654443	1.011915
C50	C	1.089117	0.611109	1.019704
C51	C	1.088819	0.611601	1.142283
C52	C	0.996269	0.462502	1.136410
C53	C	0.994618	0.463069	1.013698
H54	H	0.747695	0.682047	0.681661
H55	H	1.104816	0.694622	1.171922
H56	H	1.131441	0.990728	0.559225
H57	H	1.033177	0.985995	0.402684
N58	N	1.108995	0.981310	0.722146
H59	H	1.110638	0.901582	0.722528
H60	H	1.156590	1.013312	0.744715
H61	H	0.283131	0.716609	0.716154
N62	N	0.604933	0.690797	0.690379
H63	H	0.639305	0.736023	0.735448
H64	H	0.574482	0.737831	0.645171
H65	H	0.941248	0.978613	0.434952
N66	N	1.113652	1.183690	0.717171
H67	H	1.076705	1.229611	0.745378
H68	H	1.121643	1.122669	0.767186
N69	N	0.425909	0.743751	0.743195
H70	H	0.391553	0.784542	0.783866
H71	H	0.456368	0.702626	0.794282
N72	N	0.888490	1.169722	0.625339
H73	H	0.888400	1.249500	0.629041
H74	H	0.874505	1.145552	0.551014
H75	H	0.972988	0.737454	1.166078
H76	H	0.973252	0.738395	0.983402
N77	N	1.144428	0.539838	1.185183
H78	H	1.169029	0.508027	1.124456
H79	H	1.179568	0.582142	1.231736
N80	N	0.273400	0.451739	0.452035
H81	H	0.242960	0.492822	0.400881
H82	H	0.307809	0.410978	0.411442
H83	H	0.416157	0.478854	0.479108
H84	H	0.614578	0.427144	0.427554
N85	N	1.142870	1.183112	0.533751
H86	H	1.119109	1.228097	0.478055
H87	H	1.180346	1.227353	0.573963
N88	N	0.757352	0.418392	0.418828
H89	H	0.722982	0.373176	0.373748
H90	H	0.787766	0.463435	0.371647
N91	N	0.537545	0.683048	0.682679
H92	H	0.503193	0.723846	0.723351
H93	H	0.568003	0.641922	0.733767
H94	H	0.905916	0.631932	0.978284
N95	N	0.887738	0.624430	1.168785
H96	H	0.889317	0.560075	1.216024
H97	H	0.869011	0.685437	1.208899
N98	N	1.144342	0.538367	0.984684
H99	H	1.121866	0.481833	0.936419
H100	H	1.180999	0.580603	0.945495
H101	H	1.031407	0.401378	0.985442
H102	H	1.105388	0.693288	0.990061
N103	N	0.977316	0.972021	0.765301
H104	H	1.021198	0.930253	0.765846
H105	H	0.984844	1.034591	0.814701
H106	H	0.973418	1.163695	0.738696
N107	N	1.048837	0.385291	1.178216
H108	H	1.084706	0.423505	1.226986
H109	H	1.023853	0.327096	1.218498
H110	H	0.943244	0.431446	1.163904
N111	N	0.922481	0.428116	0.970514
H112	H	0.903152	0.485199	0.923114
H113	H	0.925555	0.360706	0.928474
H114	H	0.502931	0.487847	0.488069
H115	H	0.905641	0.978118	0.632002
N116	N	0.922722	1.168633	0.426836
H117	H	0.901918	1.211111	0.484409
H118	H	0.926577	1.213361	0.360988
N119	N	1.044626	1.177786	0.382967
H120	H	1.066766	1.116892	0.347281
H121	H	1.018131	1.220431	0.328185
