data_functionalizedCrystal
_audit_creation_method	'MofGen! by Chris Wilmer'
_symmetry_space_group_name_H-M	'P1'
_symmetry_Int_Tables_number	1
_symmetry_cell_setting	triclinic
loop_
_symmetry_equiv_pos_as_xyz
  x,y,z
_cell_length_a	19.851628
_cell_length_b	14.446369
_cell_length_c	19.851628
_cell_angle_alpha	60.002400
_cell_angle_beta	90.005228
_cell_angle_gamma	59.999397
loop_
_atom_site_label
_atom_site_type_symbol
_atom_site_fract_x
_atom_site_fract_y
_atom_site_fract_z
Zr1	Zr	0.648986	1.013123	-0.088350
O2	O	0.541424	1.206242	-0.195924
O3	O	0.681959	0.820004	-0.055369
O4	O	0.681965	1.013100	-0.195901
O5	O	0.541415	1.013163	0.055456
O6	O	0.792826	1.013082	-0.195887
O7	O	0.541419	1.013145	-0.055392
O8	O	0.792817	0.667668	0.055498
O9	O	0.541425	1.358578	-0.195929
O10	O	0.778758	0.899423	-0.041298
O11	O	0.696020	0.899450	0.041417
O12	O	0.696027	1.126796	-0.124041
O13	O	0.613289	1.126823	-0.041326
Zr14	Zr	0.825793	1.013123	0.088462
Zr15	Zr	0.825798	1.013094	-0.088329
Zr16	Zr	0.648981	1.013151	0.088441
Zr17	Zr	0.648988	1.256081	-0.088359
Zr18	Zr	0.825791	0.770165	0.088470
O19	O	0.792820	1.206242	0.055480
O20	O	0.792828	1.206201	-0.195894
O21	O	0.541417	1.206282	0.055450
O22	O	0.933355	0.820004	0.196036
O23	O	0.933363	0.819963	-0.055338
O24	O	0.681952	0.820044	0.196005
O25	O	0.933364	1.013082	-0.055345
O26	O	0.792815	1.013145	0.196012
O27	O	0.681953	1.013163	0.195999
O28	O	0.933361	1.013100	0.055504
O29	O	0.681967	1.358555	-0.195912
O30	O	0.792812	0.667690	0.196024
O31	O	0.933354	0.667668	0.196041
O32	O	0.933358	0.667645	0.055516
O33	O	0.541421	1.358600	-0.055404
O34	O	0.681963	1.358578	-0.055387
O35	O	0.778753	0.899450	0.124152
O36	O	0.861490	0.899423	0.041437
O37	O	0.778759	1.126796	-0.041306
O38	O	0.696022	1.126823	0.041410
C39	C	0.737388	0.709219	0.000066
C40	C	0.737387	0.606077	0.000069
C41	C	0.685454	0.459085	0.052477
C42	C	0.685172	0.566704	0.052265
C43	C	0.699324	0.655065	-0.089831
C44	C	0.698934	0.547832	-0.089559
C45	C	0.827419	0.372611	0.036789
C46	C	0.827287	0.478762	0.038623
C47	C	0.516225	1.013158	0.000029
C48	C	0.441164	1.013171	0.000020
C49	C	0.214711	1.137115	-0.045067
C50	C	0.192350	1.075135	-0.077752
C51	C	0.303757	1.013137	0.000043
C52	C	0.192377	1.075124	0.032713
C53	C	0.171025	1.013113	0.000066
C54	C	0.282385	0.951157	-0.032686
C55	C	0.282410	0.951163	0.077821
C56	C	0.260103	0.889093	0.045156
C57	C	0.380219	1.013154	0.000029
C58	C	0.094568	1.013086	0.000079
C59	C	0.958554	1.013087	0.000083
C60	C	1.033615	1.013075	0.000092
C61	C	0.737396	1.013087	-0.221083
C62	C	0.737399	1.013075	-0.296135
C63	C	0.737392	1.317026	0.000046
C64	C	0.737392	1.420168	0.000042
C65	C	0.782504	0.889131	-0.432386
C66	C	0.704711	0.951110	-0.499851
C67	C	0.737391	1.013109	-0.433567
C68	C	0.815168	0.951121	-0.499837
C69	C	0.737389	1.013132	-0.566316
C70	C	0.659552	1.075089	-0.500043
C71	C	0.770064	1.075082	-0.500018
C72	C	0.692225	1.137152	-0.567495
C73	C	0.737392	1.013092	-0.357092
C74	C	0.737379	1.013159	-0.642792
C75	C	0.737383	1.013158	0.221194
C76	C	0.737381	1.013171	0.296247
C77	C	0.958552	0.709184	0.000093
C78	C	1.033613	0.606030	0.000105
C79	C	0.737381	0.709255	0.221205
C80	C	0.737378	0.606125	0.296260
C81	C	0.958545	0.709219	0.221231
C82	C	1.033604	0.606077	0.296296
C83	C	0.516234	1.317026	-0.221120
C84	C	0.441175	1.420168	-0.296185
C85	C	0.516227	1.317062	0.000019
C86	C	0.441166	1.420216	0.000006
C87	C	0.737398	1.316990	-0.221093
C88	C	0.737401	1.420120	-0.296149
C89	C	1.025676	0.557587	-0.043083
C90	C	1.096197	0.460676	-0.043088
C91	C	1.174653	0.412203	0.000101
C92	C	1.182588	0.460655	0.043291
C93	C	1.112068	0.557571	0.043290
C94	C	0.780562	0.557694	0.374702
C95	C	0.780556	0.460806	0.445231
C96	C	0.737370	0.412344	0.437318
C97	C	0.694181	0.460785	0.358868
C98	C	0.694183	0.557678	0.288340
C99	C	1.112047	0.557627	0.288371
C100	C	1.182579	0.460727	0.358896
C101	C	1.174666	0.412274	0.437345
C102	C	1.096214	0.460734	0.445269
C103	C	1.025684	0.557638	0.374745
C104	C	0.362732	1.468630	-0.288260
C105	C	0.292200	1.565560	-0.358784
C106	C	0.300113	1.614019	-0.437234
C107	C	0.378565	1.565552	-0.445157
C108	C	0.449095	1.468631	-0.374633
C109	C	0.449103	1.468668	0.043187
C110	C	0.378582	1.565606	0.043173
C111	C	0.300126	1.614083	-0.000019
C112	C	0.292191	1.565626	-0.043205
C113	C	0.362711	1.468697	-0.043195
C114	C	0.780595	1.468551	-0.288209
C115	C	0.780614	1.565440	-0.358725
C116	C	0.737434	1.613902	-0.437180
C117	C	0.694238	1.565462	-0.445119
C118	C	0.694225	1.468568	-0.374603
H119	H	0.632687	0.588536	-0.118975
H120	H	0.512979	1.429206	0.078364
Br121	Br	0.204384	1.745557	-0.532938
H122	H	1.246476	0.421174	0.078454
Br123	Br	0.839237	1.631165	-0.347932
Br124	Br	0.635573	0.623388	0.181887
H125	H	0.654020	1.242067	-0.625244
Br126	Br	0.351926	1.402946	-0.101800
Br127	Br	0.555552	1.402866	-0.385404
H128	H	1.118541	0.597000	0.078464
H129	H	0.385059	1.605043	0.078343
Br130	Br	0.183966	1.311833	-0.108736
H131	H	0.961814	0.597074	0.381209
Br132	Br	0.389291	1.631329	-0.551630
H133	H	0.869244	0.500252	0.004406
Br134	Br	0.839183	0.623436	0.385464
H135	H	1.246452	0.421281	0.352430
Br136	Br	0.346862	0.863907	-0.078872
Br137	Br	0.204428	1.745631	-0.000025
H138	H	0.815729	0.421378	0.509102
Br139	Br	0.658637	0.863797	-0.500981
Br140	Br	0.635576	0.395000	0.348143
H141	H	0.710704	0.530001	0.118464
H142	H	0.228303	1.605111	-0.078371
H143	H	0.710851	0.370223	0.118841
H144	H	0.737376	0.333448	0.494753
Br145	Br	0.892220	0.329303	-0.026563
Br146	Br	1.122810	0.623371	0.181913
H147	H	0.815758	1.429108	-0.224333
H148	H	0.228328	1.605005	-0.352317
H149	H	0.356273	1.429180	-0.224389
H150	H	0.737451	1.692800	-0.494592
H151	H	0.278707	0.784178	0.083306
Br152	Br	0.635632	1.631257	-0.551601
H153	H	0.659047	1.429146	-0.381080
Br154	Br	1.270351	0.280673	0.000094
Br155	Br	1.085488	0.394962	0.551742
Br156	Br	0.575442	0.518598	0.010418
H157	H	1.232103	0.333368	0.494764
Br158	Br	0.845990	0.714413	-0.335978
Br159	Br	0.880407	0.216416	0.145448
H160	H	0.153575	1.127554	0.060333
H161	H	0.734320	0.525851	-0.130749
Br162	Br	0.574491	0.714737	0.009796
Br163	Br	1.085409	0.394938	-0.101705
H164	H	0.153542	1.127526	-0.143519
H165	H	0.633710	0.747378	-0.119448
Br166	Br	0.874685	0.412759	0.149013
Br167	Br	0.759312	0.703102	-0.157782
Br168	Br	0.816162	1.162336	-0.498841
H169	H	0.321216	0.898817	0.143574
Br170	Br	0.549868	1.162374	-0.499072
H171	H	0.880946	0.898696	-0.500479
H172	H	0.961800	0.597053	-0.078263
