data_functionalizedCrystal
_audit_creation_method	'MofGen! by Chris Wilmer'
_symmetry_space_group_name_H-M	'P1'
_symmetry_Int_Tables_number	1
_symmetry_cell_setting	triclinic
loop_
_symmetry_equiv_pos_as_xyz
  x,y,z
_cell_length_a	12.759401
_cell_length_b	25.639239
_cell_length_c	12.759393
_cell_angle_alpha	90.035978
_cell_angle_beta	90.020938
_cell_angle_gamma	90.040211
loop_
_atom_site_label
_atom_site_type_symbol
_atom_site_fract_x
_atom_site_fract_y
_atom_site_fract_z
Zn1	Zn	1.606091	-0.208104	0.593980
Zn2	Zn	1.605909	-0.295549	0.418283
Zn3	Zn	1.430390	-0.208132	0.418315
Zn4	Zn	1.430308	-0.295513	0.593921
O5	O	1.518175	-0.251825	0.506125
O6	O	1.753088	-0.219708	0.570685
O7	O	1.582584	-0.283980	0.271266
O8	O	1.453808	-0.134963	0.441656
O9	O	1.752954	-0.283953	0.441601
O10	O	1.582895	-0.134943	0.570716
O11	O	1.453631	-0.219755	0.271290
O12	O	1.283358	-0.219720	0.441598
O13	O	1.453669	-0.283891	0.740950
O14	O	1.283298	-0.283918	0.570615
O15	O	1.582816	-0.219672	0.740993
O16	O	1.582505	-0.368710	0.441544
O17	O	1.453492	-0.368683	0.570584
C18	C	1.245207	-0.251818	0.506104
C19	C	1.128431	-0.251828	0.506120
C20	C	1.517998	-0.387667	0.506077
C21	C	1.518018	-0.445781	0.506091
C22	C	1.073565	-0.285307	0.573193
C23	C	0.963841	-0.285309	0.573214
C24	C	0.963858	-0.218352	0.439079
C25	C	1.073580	-0.218347	0.439065
C26	C	1.585527	-0.806146	0.439048
C27	C	1.585568	-0.860750	0.439062
O28	O	1.642783	-0.888988	0.382007
N29	N	1.518359	-0.888064	0.506194
C30	C	1.451113	-0.860770	0.573324
O31	O	1.393952	-0.889017	0.630428
C32	C	1.451079	-0.806167	0.573315
C33	C	1.518284	-0.778856	0.506171
C34	C	1.652728	-0.778835	0.371910
C35	C	1.652685	-0.724234	0.371895
C36	C	1.585442	-0.696945	0.439018
C37	C	1.518242	-0.724255	0.506156
C38	C	1.383839	-0.778874	0.640449
C39	C	1.383810	-0.724267	0.640435
C40	C	1.451016	-0.696957	0.573291
C41	C	1.450956	-0.642365	0.573263
N42	N	1.518165	-0.615052	0.506131
C43	C	1.585408	-0.642341	0.439008
C44	C	1.451192	-0.975441	0.573341
C45	C	1.451221	-1.030043	0.573346
C46	C	1.585677	-1.030019	0.439085
C47	C	1.585642	-0.975416	0.439075
C48	C	1.518401	-0.948127	0.506208
C49	C	1.585313	-0.527676	0.438981
C50	C	1.585261	-0.473071	0.438969
C51	C	1.450810	-0.473100	0.573233
C52	C	1.450857	-0.527700	0.573242
C53	C	1.518117	-0.554987	0.506112
O54	O	1.393774	-0.614093	0.630292
O55	O	1.642569	-0.614088	0.381925
C56	C	1.792208	-0.251831	0.506146
C57	C	1.908984	-0.251834	0.506156
C58	C	1.518253	-0.251774	0.780158
C59	C	1.518287	-0.251753	0.896935
C60	C	1.518381	-0.115452	0.506196
C61	C	1.518468	-0.057337	0.506226
C62	C	1.518157	-0.251837	0.233157
C63	C	1.518327	-0.251711	0.116381
C64	C	1.585539	-0.218309	0.951821
C65	C	1.585556	-0.218286	1.061546
C66	C	1.451068	-0.285156	1.061487
C67	C	1.451045	-0.285176	0.951765
H68	H	0.919174	-0.312570	0.627833
H69	H	1.396058	-0.450872	0.627881
H70	H	1.640367	-0.953182	0.384401
O71	O	1.650735	-0.185742	1.114906
C72	C	1.665003	-0.115144	1.238858
C73	C	1.591069	-0.151964	1.178477
H74	H	1.616794	-0.087833	1.290287
H75	H	1.713033	-0.091223	1.180862
H76	H	1.719933	-0.139149	1.290182
H77	H	1.536075	-0.127999	1.127152
H78	H	1.543113	-0.175887	1.236530
O79	O	0.910686	-0.185859	0.373795
C80	C	0.877003	-0.160395	0.195178
C81	C	0.937302	-0.197216	0.268998
H82	H	0.898483	-0.169571	0.110433
H83	H	0.898656	-0.118237	0.213693
H84	H	0.789163	-0.166142	0.206764
H85	H	1.025156	-0.191516	0.257453
H86	H	0.915562	-0.239361	0.250464
H87	H	1.118221	-0.312568	0.627796
H88	H	1.396324	-0.312369	1.106143
H89	H	1.396486	-1.052275	0.628011
H90	H	1.396428	-0.953225	0.628006
H91	H	1.396273	-0.312410	0.907075
O92	O	1.126999	-0.185897	0.373852
C93	C	1.250775	-0.178776	0.231979
C94	C	1.190363	-0.215584	0.305774
H95	H	1.302003	-0.202763	0.176905
H96	H	1.302273	-0.151474	0.280254
H97	H	1.192707	-0.154839	0.184098
H98	H	1.248356	-0.239555	0.353671
H99	H	1.138850	-0.242852	0.257439
O100	O	1.650649	-0.446623	0.373710
C101	C	1.783968	-0.452372	0.240498
C102	C	1.709991	-0.482386	0.314362
H103	H	1.831949	-0.481274	0.192480
H104	H	1.838931	-0.426774	0.288722
H105	H	1.735727	-0.426841	0.185554
H106	H	1.758147	-0.507945	0.369320
H107	H	1.655025	-0.507951	0.266072
O108	O	1.650772	-0.554196	0.373927
C109	C	1.792670	-0.615775	0.359933
C110	C	1.718617	-0.585768	0.433725
H111	H	1.847527	-0.641317	0.408249
H112	H	1.840761	-0.586887	0.311980
H113	H	1.744484	-0.641366	0.304925
H114	H	1.766722	-0.560177	0.488796
H115	H	1.670523	-0.614685	0.481604
H116	H	1.707412	-0.702001	0.317224
H117	H	1.707491	-0.801048	0.317251
H118	H	1.640434	-1.052248	0.384433
H119	H	1.329108	-0.801102	0.695120
H120	H	1.329055	-0.702052	0.695106
H121	H	1.396136	-0.549938	0.627919
H122	H	1.640288	-0.191092	0.907182
