data_functionalizedCrystal
_audit_creation_method	'MofGen! by Chris Wilmer'
_symmetry_space_group_name_H-M	'P1'
_symmetry_Int_Tables_number	1
_symmetry_cell_setting	triclinic
loop_
_symmetry_equiv_pos_as_xyz
  x,y,z
_cell_length_a	27.354012
_cell_length_b	27.353283
_cell_length_c	27.349551
_cell_angle_alpha	60.005606
_cell_angle_beta	60.011434
_cell_angle_gamma	59.993282
loop_
_atom_site_label
_atom_site_type_symbol
_atom_site_fract_x
_atom_site_fract_y
_atom_site_fract_z
O1	O	0.067635	-0.714267	0.597330
O2	O	0.025429	-0.556105	0.481282
O3	O	0.125575	-0.656186	0.481214
O4	O	-0.032512	-0.614186	0.597397
O5	O	0.158797	-0.622968	0.514367
O6	O	0.058650	-0.522887	0.514434
O7	O	0.100856	-0.681048	0.630482
Zn8	Zn	0.085028	-0.596693	0.577722
Zn9	Zn	0.041257	-0.640460	0.534042
O10	O	0.000709	-0.580967	0.630549
N11	N	0.114901	-0.566828	0.607534
N12	N	0.011389	-0.670331	0.504229
C13	C	0.179404	-0.338196	0.672015
C14	C	0.179501	-0.502386	0.836160
C15	C	0.179415	-0.502363	0.671996
C16	C	0.343611	-0.502373	0.671960
C17	C	0.197478	-0.392371	0.690061
C18	C	0.197534	-0.484321	0.781984
C19	C	0.289434	-0.484312	0.690032
C20	C	0.197486	-0.484308	0.690051
C21	C	0.156398	-0.269238	0.649045
C22	C	0.156418	-0.525342	0.649015
C23	C	0.220484	-0.461329	0.713032
C24	C	0.443889	-0.485097	0.619172
C25	C	0.506571	-0.505993	0.598266
C26	C	0.506589	-0.607412	0.636940
C27	C	0.443909	-0.586515	0.657848
C28	C	0.171510	-0.237888	0.587422
C29	C	0.150593	-0.175201	0.566543
C30	C	0.099458	-0.175218	0.668913
C31	C	0.120375	-0.237905	0.689792
C32	C	0.094789	-0.510201	0.664176
C33	C	0.073888	-0.531091	0.643278
C34	C	0.176239	-0.582263	0.592072
C35	C	0.197142	-0.561373	0.612963
C36	C	0.094933	-0.510244	0.936476
C37	C	0.074073	-0.531151	0.999161
C38	C	0.176453	-0.582335	0.999126
C39	C	0.197312	-0.561429	0.936439
C40	C	0.156551	-0.525382	0.905116
C41	C	0.412561	-0.525357	0.648961
C42	C	-0.098513	-0.688235	0.485867
C43	C	-0.006461	-0.688368	0.394066
C44	C	-0.006645	-0.780264	0.486040
C45	C	-0.006630	-0.688361	0.486097
C46	C	-0.029562	-0.711308	0.463018
N47	N	0.537030	-0.566846	0.607436
O48	O	0.741877	-0.576849	0.459995
O49	O	0.742050	-0.693241	0.618010
O50	O	0.741986	-0.692977	0.517791
O51	O	0.741941	-0.577114	0.560214
O52	O	0.642405	-0.659839	0.551046
O53	O	0.642469	-0.660104	0.651265
O54	O	0.642296	-0.543712	0.493251
Zn55	Zn	0.626572	-0.596646	0.577538
Zn56	Zn	0.757774	-0.640307	0.533723
O57	O	0.642360	-0.543976	0.593469
N58	N	0.847316	-0.670107	0.503818
N59	N	0.114877	-0.144758	0.607577
O60	O	-0.032498	0.060193	0.597441
O61	O	0.125523	0.060193	0.481067
O62	O	0.025289	0.060179	0.481345
O63	O	0.067736	0.060207	0.597163
O64	O	0.058511	-0.039410	0.514543
O65	O	0.158745	-0.039397	0.514265
O66	O	0.000724	-0.039396	0.630638
Zn67	Zn	0.085009	-0.055208	0.577722
Zn68	Zn	0.041238	0.076005	0.533983
O69	O	0.100958	-0.039382	0.630360
N70	N	0.011362	0.165555	0.504130
N71	N	0.115121	-0.566884	1.029592
O72	O	0.104990	-0.714248	1.234528
O73	O	-0.011371	-0.556177	1.234539
O74	O	-0.011103	-0.656395	1.234497
O75	O	0.104722	-0.614030	1.234569
O76	O	0.022090	-0.623190	1.134913
O77	O	0.021822	-0.522972	1.134954
O78	O	0.138182	-0.681044	1.134943
Zn79	Zn	0.085272	-0.596736	1.119137
Zn80	Zn	0.041539	-0.640484	1.250344
O81	O	0.137914	-0.580826	1.134984
N82	N	0.011689	-0.670343	1.339890
C83	C	0.038085	-0.519567	0.481870
C84	C	0.162104	-0.643505	0.481786
C85	C	0.088200	-0.717587	0.629893
C86	C	-0.035819	-0.593649	0.629977
C87	C	0.692280	-0.692701	0.654545
C88	C	0.692203	-0.692374	0.530435
C89	C	0.692063	-0.544251	0.456717
C90	C	0.692144	-0.544580	0.580825
C91	C	0.162000	0.010521	0.481600
C92	C	0.037914	0.010381	0.481984
C93	C	-0.035795	0.010399	0.630065
C94	C	0.088333	0.010415	0.629722
C95	C	-0.010799	-0.519660	1.184747
C96	C	-0.010461	-0.643761	1.184677
C97	C	0.137610	-0.717561	1.184734
C98	C	0.137280	-0.593452	1.184783
H99	H	0.023897	-0.518815	1.024687
C100	C	-0.059493	-0.459097	1.184625
C101	C	-0.075400	-0.432814	1.133372
C102	C	-0.120249	-0.377020	1.133234
H103	H	-0.093569	-0.464257	1.219304
H104	H	-0.045043	-0.433913	1.184609
H105	H	-0.089851	-0.457992	1.133393
H106	H	-0.041338	-0.427639	1.098685
H107	H	-0.105799	-0.351836	1.133218
H108	H	-0.154320	-0.382185	1.167915
H109	H	-0.131043	-0.359177	1.098457
C110	C	-0.096359	0.010444	0.678693
C111	C	-0.133336	0.010455	0.657236
C112	C	-0.189136	0.010509	0.702011
H113	H	-0.091194	-0.024268	0.712753
H114	H	-0.114298	0.045195	0.689553
H115	H	-0.115401	-0.024293	0.646385
H116	H	-0.138518	0.045164	0.623182
H117	H	-0.207075	0.045260	0.712871
H118	H	-0.183965	-0.024204	0.736068
H119	H	-0.214234	0.010522	0.687457
H120	H	0.173667	-0.584388	1.184797
H121	H	0.174144	-0.762957	1.184724
H122	H	-0.081227	-0.584696	0.666460
C123	C	0.050647	-0.471208	0.902503
C124	C	0.014700	-0.502690	0.917747
C125	C	-0.026097	-0.466755	0.886457
H126	H	0.026136	-0.435756	0.912762
H127	H	0.071870	-0.460936	0.860673
H128	H	-0.006522	-0.512953	0.959567
H129	H	0.039194	-0.538139	0.907486
H130	H	-0.004874	-0.456483	0.844627
H131	H	-0.050603	-0.431305	0.896719
H132	H	-0.050488	-0.488112	0.896791
C133	C	0.220804	-0.621487	1.033026
C134	C	0.279232	-0.630282	0.992146
C135	C	0.320102	-0.666359	1.023352
H136	H	0.214874	-0.602406	1.057488
H137	H	0.214829	-0.659082	1.057457
H138	H	0.285204	-0.592694	0.967725
H139	H	0.285181	-0.649370	0.967682
H140	H	0.314127	-0.703954	1.047784
H141	H	0.314166	-0.647275	1.047814
H142	H	0.359749	-0.672336	0.995620
C143	C	0.100318	-0.778216	0.678407
C144	C	0.158755	-0.815064	0.656784
C145	C	0.169937	-0.870922	0.701454
H146	H	0.095888	-0.773110	0.712468
H147	H	0.072695	-0.796222	0.689309
H148	H	0.186370	-0.797062	0.645890
H149	H	0.163199	-0.820188	0.622728
H150	H	0.142314	-0.888928	0.712356
H151	H	0.165504	-0.865810	0.735512
H152	H	0.209585	-0.895932	0.686787
C153	C	0.026121	-0.459048	0.433182
C154	C	0.032773	-0.466871	0.383095
C155	C	0.021765	-0.411136	0.338229
H156	H	-0.013511	-0.433918	0.447666
H157	H	0.053784	-0.441067	0.422231
H158	H	0.005111	-0.484844	0.394046
H159	H	0.072402	-0.491991	0.368594
H160	H	0.049428	-0.393155	0.327278
H161	H	-0.017867	-0.386011	0.352719
H162	H	0.026282	-0.416438	0.304238
C163	C	0.691895	-0.495544	0.396214
C164	C	0.640653	-0.481814	0.385621
C165	C	0.640481	-0.436954	0.329889
H166	H	0.691842	-0.460733	0.396097
H167	H	0.726591	-0.509246	0.365708
H168	H	0.605966	-0.468111	0.416119
H169	H	0.640696	-0.516612	0.385725
H170	H	0.675177	-0.450655	0.299383
H171	H	0.640429	-0.402146	0.329778
H172	H	0.605717	-0.427636	0.322692
H173	H	0.692323	-0.729239	0.699929
H174	H	0.207509	-0.652460	0.445301
H175	H	0.692221	-0.728771	0.521355
C176	C	0.100574	0.010382	0.678177
C177	C	0.159036	0.010366	0.656469
C178	C	0.170337	0.010323	0.701093
H179	H	0.073008	0.045099	0.689120
H180	H	0.096157	-0.024364	0.712230
H181	H	0.163448	0.045107	0.622427
H182	H	0.186614	-0.024349	0.645531
H183	H	0.165921	-0.024423	0.735146
H184	H	0.142769	0.045040	0.712033
H185	H	0.210007	0.010306	0.686373
H186	H	0.692134	-0.508185	0.589902
H187	H	-0.046832	-0.652809	1.184615
C188	C	0.222414	0.010923	0.432824
C189	C	0.259342	0.011060	0.454231
C190	C	0.314997	0.011439	0.409313
H191	H	0.240547	-0.023721	0.421754
H192	H	0.216985	0.045741	0.398903
H193	H	0.264773	-0.023754	0.488141
H194	H	0.241229	0.045702	0.465297
H195	H	0.309567	0.046256	0.375393
H196	H	0.333123	-0.023205	0.398246
H197	H	0.340057	0.011538	0.423830
C198	C	0.025789	0.010489	0.433410
C199	C	0.032371	0.061728	0.383296
C200	C	0.021196	0.061849	0.338545
H201	H	0.053394	-0.024203	0.422435
H202	H	-0.013869	0.010518	0.448022
H203	H	0.072023	0.061694	0.368686
H204	H	0.004768	0.096428	0.394252
H205	H	-0.018463	0.061878	0.353156
H206	H	0.048801	0.027155	0.327575
H207	H	0.025654	0.096616	0.304539
C208	C	0.264193	-0.577825	0.902284
C209	C	0.273740	-0.551818	0.840683
C210	C	0.335341	-0.566916	0.809203
H211	H	0.281871	-0.563416	0.912481
H212	H	0.281825	-0.620123	0.912513
H213	H	0.256116	-0.509529	0.830459
H214	H	0.256077	-0.566223	0.830469
H215	H	0.352973	-0.609213	0.819432
H216	H	0.353014	-0.552505	0.819405
H217	H	0.341827	-0.549276	0.767404
C218	C	0.050478	-0.471059	0.703280
C219	C	-0.007966	-0.462254	0.712065
C220	C	-0.048801	-0.426193	0.748079
H221	H	0.056439	-0.490155	0.740880
H222	H	0.056457	-0.433466	0.684144
H223	H	-0.013942	-0.499841	0.731202
H224	H	-0.013946	-0.443152	0.674476
H225	H	-0.042823	-0.388600	0.728943
H226	H	-0.042835	-0.445293	0.785676
H227	H	-0.088460	-0.420210	0.754039
H228	H	0.023705	-0.518748	0.655609
H229	H	0.209407	-0.611608	0.562721
H230	H	0.247325	-0.573698	0.600612
H231	H	0.532110	-0.657210	0.644171
C232	C	0.410005	-0.630319	0.690150
C233	C	0.450880	-0.688347	0.693438
C234	C	0.419671	-0.728716	0.723184
H235	H	0.385566	-0.628800	0.729446
H236	H	0.385552	-0.619864	0.668793
H237	H	0.475323	-0.698799	0.714796
H238	H	0.475321	-0.689885	0.654152
H239	H	0.395217	-0.718261	0.701827
H240	H	0.395233	-0.727191	0.762477
H241	H	0.447400	-0.768091	0.725414
H242	H	0.532080	-0.473208	0.574011
H243	H	0.418366	-0.435297	0.611936
H244	H	0.162897	-0.149674	0.516363
C245	C	0.210515	-0.271873	0.543153
C246	C	0.179006	-0.256633	0.507218
C247	C	0.214916	-0.287936	0.466438
H248	H	0.245959	-0.261621	0.518631
H249	H	0.220797	-0.313703	0.564392
H250	H	0.168733	-0.214812	0.485981
H251	H	0.143566	-0.266887	0.531723
H252	H	0.225198	-0.329766	0.487676
H253	H	0.250358	-0.277682	0.441920
H254	H	0.193541	-0.277605	0.442055
C255	C	0.060435	-0.141275	0.713221
C256	C	0.091937	-0.156540	0.749172
C257	C	0.056005	-0.125294	0.790002
H258	H	0.050121	-0.099441	0.692039
H259	H	0.025005	-0.151568	0.737721
H260	H	0.127356	-0.146244	0.724675
H261	H	0.102250	-0.198369	0.770366
H262	H	0.020576	-0.135587	0.814502
H263	H	0.045693	-0.083461	0.768816
H264	H	0.077372	-0.135651	0.814404
C265	C	0.104110	-0.271998	0.756686
C266	C	0.156474	-0.307975	0.771629
C267	C	0.141522	-0.339389	0.833249
H268	H	0.079694	-0.244410	0.778013
H269	H	0.082870	-0.296501	0.767020
H270	H	0.177705	-0.283475	0.761301
H271	H	0.180896	-0.335574	0.750317
H272	H	0.120282	-0.363892	0.843583
H273	H	0.117106	-0.311797	0.854570
H274	H	0.177048	-0.363807	0.843395
