data_functionalizedCrystal
_audit_creation_method	'MofGen! by Chris Wilmer'
_symmetry_space_group_name_H-M	'P1'
_symmetry_Int_Tables_number	1
_symmetry_cell_setting	triclinic
loop_
_symmetry_equiv_pos_as_xyz
  x,y,z
_cell_length_a	16.625548
_cell_length_b	16.625546
_cell_length_c	16.625539
_cell_angle_alpha	90.028532
_cell_angle_beta	90.018832
_cell_angle_gamma	90.022327
loop_
_atom_site_label
_atom_site_type_symbol
_atom_site_fract_x
_atom_site_fract_y
_atom_site_fract_z
Zn1	Zn	-1.232653	0.321018	-0.455936
Zn2	Zn	-0.899319	0.654351	-0.122603
Zn3	Zn	-0.565986	0.987685	0.210731
Zn4	Zn	-1.232564	0.455857	-0.321098
Zn5	Zn	-0.899231	0.789190	0.012235
Zn6	Zn	-0.565897	1.122523	0.345569
Zn7	Zn	-1.097823	0.321042	-0.321112
Zn8	Zn	-0.764489	0.654375	0.012221
Zn9	Zn	-0.431156	0.987708	0.345554
Zn10	Zn	-1.097785	0.455812	-0.455884
Zn11	Zn	-0.764451	0.789145	-0.122550
Zn12	Zn	-0.431118	1.122479	0.210783
O13	O	-1.165206	0.388432	-0.388507
O14	O	-0.831873	0.721765	-0.055174
O15	O	-0.498539	1.055099	0.278159
O16	O	-1.345473	0.338914	-0.438065
O17	O	-1.012140	0.672247	-0.104732
O18	O	-0.678806	1.005580	0.228601
O19	O	-1.214669	0.438002	-0.208268
O20	O	-0.881336	0.771335	0.125066
O21	O	-0.548002	1.104668	0.458399
O22	O	-1.115761	0.208206	-0.339024
O23	O	-0.782428	0.541539	-0.005691
O24	O	-0.449094	0.874873	0.327642
O25	O	-1.345408	0.437979	-0.339001
O26	O	-1.012075	0.771312	-0.005667
O27	O	-0.678741	1.104646	0.327666
O28	O	-1.214820	0.208189	-0.438079
O29	O	-0.881487	0.541522	-0.104746
O30	O	-0.548153	0.874855	0.228588
O31	O	-1.115675	0.338954	-0.208278
O32	O	-0.782342	0.672287	0.125055
O33	O	-0.449008	1.005620	0.458389
O34	O	-0.984985	0.338910	-0.338974
O35	O	-0.651652	0.672244	-0.005641
O36	O	-0.318319	1.005577	0.327693
O37	O	-1.115696	0.437903	-0.568723
O38	O	-0.782363	0.771236	-0.235390
O39	O	-0.449030	1.104569	0.097944
O40	O	-0.984957	0.437926	-0.437990
O41	O	-0.651624	0.771259	-0.104657
O42	O	-0.318291	1.104592	0.228676
O43	O	-1.214783	0.338870	-0.568761
O44	O	-0.881450	0.672204	-0.235428
O45	O	-0.548117	1.005537	0.097905
O46	O	-1.214632	0.568683	-0.338950
O47	O	-0.881299	0.902017	-0.005617
O48	O	-0.547966	1.235350	0.327717
O49	O	-1.115611	0.568650	-0.437977
O50	O	-0.782277	0.901984	-0.104643
O51	O	-0.448944	1.235317	0.228690
C52	C	-0.955715	0.388416	-0.388478
C53	C	-0.622382	0.721749	-0.055145
C54	C	-0.289048	1.055083	0.278188
C55	C	-0.866094	0.388429	-0.388485
C56	C	-0.532761	0.721762	-0.055152
C57	C	-0.199427	1.055095	0.278182
C58	C	-1.165245	0.388379	-0.598816
C59	C	-0.831912	0.721712	-0.265483
C60	C	-0.498579	1.055046	0.067850
C61	C	-1.165262	0.388356	-0.688438
C62	C	-0.831929	0.721690	-0.355104
C63	C	-0.498596	1.055023	-0.021771
C64	C	-1.165130	0.597923	-0.388474
C65	C	-0.831796	0.931256	-0.055140
C66	C	-0.498463	1.264590	0.278193
C67	C	-1.165171	0.687544	-0.388486
C68	C	-0.831837	1.020877	-0.055153
C69	C	-0.498504	1.354211	0.278180
C70	C	-0.537918	0.388427	-0.388509
C71	C	-0.204585	0.721760	-0.055176
C72	C	0.128748	1.055094	0.278157
C73	C	-0.629227	0.388425	-0.388500
C74	C	-0.295893	0.721759	-0.055167
C75	C	0.037440	1.055092	0.278167
C76	C	-0.702003	0.388428	-0.388497
C77	C	-0.368670	0.721762	-0.055163
C78	C	-0.035337	1.055095	0.278170
C79	C	-0.793318	0.388426	-0.388489
C80	C	-0.459984	0.721759	-0.055155
C81	C	-0.126651	1.055092	0.278178
C82	C	-0.375515	0.388443	-0.388529
C83	C	-0.042181	0.721777	-0.055196
C84	C	0.291152	1.055110	0.278137
C85	C	-0.465136	0.388435	-0.388519
C86	C	-0.131803	0.721768	-0.055185
C87	C	0.201531	1.055101	0.278148
C88	C	-1.165305	0.178123	-0.388559
C89	C	-0.831971	0.511457	-0.055226
C90	C	-0.498638	0.844790	0.278108
C91	C	-1.165347	0.088502	-0.388581
C92	C	-0.832013	0.421835	-0.055248
C93	C	-0.498680	0.755169	0.278086
C94	C	-1.165311	1.015720	-0.388570
C95	C	-0.831978	1.349053	-0.055237
C96	C	-0.498645	1.682386	0.278096
C97	C	-1.165270	0.924411	-0.388549
C98	C	-0.831936	1.257745	-0.055216
C99	C	-0.498603	1.591078	0.278118
C100	C	-1.165240	0.851635	-0.388528
C101	C	-0.831907	1.184968	-0.055194
C102	C	-0.498574	1.518301	0.278139
C103	C	-1.165200	0.760321	-0.388508
C104	C	-0.831867	1.093654	-0.055174
C105	C	-0.498533	1.426987	0.278159
C106	C	-1.165275	0.388338	-0.761220
C107	C	-0.831942	0.721672	-0.427887
C108	C	-0.498609	1.055005	-0.094553
C109	C	-1.165294	0.388308	-0.852529
C110	C	-0.831961	0.721642	-0.519195
C111	C	-0.498628	1.054975	-0.185862
C112	C	-1.165313	0.388280	-0.925305
C113	C	-0.831980	0.721613	-0.591972
C114	C	-0.498647	1.054947	-0.258638
C115	C	-1.165333	0.388251	-1.016620
C116	C	-0.832000	0.721584	-0.683286
C117	C	-0.498667	1.054917	-0.349953
C118	C	-1.165213	0.388427	-0.179017
C119	C	-0.831880	0.721760	0.154317
C120	C	-0.498546	1.055094	0.487650
C121	C	-1.165352	0.388222	-0.089396
C122	C	-0.832019	0.721556	0.243937
C123	C	-0.498686	1.054889	0.577271
