data_functionalizedCrystal
_audit_creation_method	'MofGen! by Chris Wilmer'
_symmetry_space_group_name_H-M	'P1'
_symmetry_Int_Tables_number	1
_symmetry_cell_setting	triclinic
loop_
_symmetry_equiv_pos_as_xyz
  x,y,z
_cell_length_a	31.640172
_cell_length_b	31.640171
_cell_length_c	19.377372
_cell_angle_alpha	48.603282
_cell_angle_beta	90.000920
_cell_angle_gamma	59.992468
loop_
_atom_site_label
_atom_site_type_symbol
_atom_site_fract_x
_atom_site_fract_y
_atom_site_fract_z
Zr1	Zr	0.394607	0.487640	-0.114826
O2	O	0.311979	0.606082	-0.254232
O3	O	0.419960	0.390151	-0.072031
O4	O	0.400194	0.517841	-0.254122
O5	O	0.347311	0.447261	0.071428
O6	O	0.469753	0.517828	-0.254103
O7	O	0.331745	0.478392	-0.072141
O8	O	0.505111	0.289414	0.071625
O9	O	0.311953	0.675676	-0.254299
O10	O	0.482656	0.422479	-0.053837
O11	O	0.442361	0.399256	0.053293
O12	O	0.419089	0.549595	-0.161096
O13	O	0.378794	0.526371	-0.053966
Zr14	Zr	0.530371	0.437969	0.114181
Zr15	Zr	0.505546	0.487619	-0.114795
Zr16	Zr	0.419432	0.437989	0.114150
Zr17	Zr	0.394565	0.598633	-0.114934
Zr18	Zr	0.530413	0.326976	0.114288
O19	O	0.505018	0.535457	0.071386
O20	O	0.469720	0.606053	-0.254188
O21	O	0.347277	0.535486	0.071342
O22	O	0.612999	0.319526	0.253587
O23	O	0.577701	0.390122	-0.071987
O24	O	0.455258	0.319555	0.253543
O25	O	0.577667	0.478347	-0.072073
O26	O	0.524784	0.407767	0.253477
O27	O	0.455225	0.407780	0.253457
O28	O	0.593233	0.447216	0.071496
O29	O	0.400134	0.675659	-0.254275
O30	O	0.524844	0.249949	0.253630
O31	O	0.613025	0.249933	0.253654
O32	O	0.593292	0.289398	0.071649
O33	O	0.331686	0.636210	-0.072294
O34	O	0.419867	0.636194	-0.072270
O35	O	0.505889	0.376014	0.160451
O36	O	0.546184	0.399237	0.053321
O37	O	0.482617	0.526352	-0.053938
O38	O	0.442322	0.503129	0.053192
C39	C	0.462541	0.323969	-0.000188
C40	C	0.462559	0.276849	-0.000142
C41	C	0.441457	-0.071458	0.055607
C42	C	0.441494	0.105475	0.055702
O43	O	0.423632	0.118017	0.103306
N44	N	0.462533	0.139723	-0.000208
C45	C	0.483567	0.129733	-0.056140
O46	O	0.501467	0.162917	-0.103684
C47	C	0.483532	-0.047204	-0.056227
C48	C	0.462487	-0.081445	-0.000323
C49	C	0.420414	-0.105699	0.111509
C50	C	0.420402	-0.149926	0.111480
C51	C	0.441432	-0.159913	0.055550
C52	C	0.462475	-0.125672	-0.000351
C53	C	0.504570	-0.057199	-0.112152
C54	C	0.504560	-0.101438	-0.112167
C55	C	0.483515	-0.135679	-0.056262
C56	C	0.483494	-0.179886	-0.056310
N57	N	0.462455	-0.214135	-0.000400
C58	C	0.441425	-0.204148	0.055530
C59	C	0.483582	0.222627	-0.056092
C60	C	0.483590	0.266863	-0.056072
C61	C	0.441518	0.242600	0.055772
C62	C	0.441507	0.198369	0.055745
C63	C	0.462544	0.188379	-0.000182
C64	C	0.441401	-0.297027	0.055464
C65	C	0.441388	-0.341254	0.055427
C66	C	0.483462	-0.316992	-0.056412
C67	C	0.483472	-0.272765	-0.056379
C68	C	0.462441	-0.262787	-0.000433
O69	O	0.501352	-0.192468	-0.103880
O70	O	0.423538	-0.237352	0.103086
C71	C	0.441469	-0.027231	0.055636
C72	C	0.462511	0.007009	-0.000265
C73	C	0.483542	-0.002977	-0.056195
C74	C	0.462519	0.051244	-0.000245
C75	C	0.441488	0.061231	0.055685
C76	C	0.420450	0.026983	0.111595
C77	C	0.420438	-0.017245	0.111566
C78	C	0.504580	0.031271	-0.112105
C79	C	0.504590	0.075498	-0.112072
C80	C	0.483559	0.085485	-0.056142
C81	C	0.323722	0.462830	-0.000361
C82	C	0.276625	0.462839	-0.000374
C83	C	0.017808	0.396441	0.055687
C84	C	-0.159175	0.396426	0.055708
O85	O	-0.153837	0.339986	0.103363
N86	N	-0.214486	0.462779	-0.000281
C87	C	-0.225550	0.529139	-0.056274
O88	O	-0.276655	0.585574	-0.103887
C89	C	-0.048567	0.529152	-0.056289
C90	C	0.006743	0.462796	-0.000304
C91	C	0.073116	0.330091	0.111668
C92	C	0.117358	0.330096	0.111657
C93	C	0.106293	0.396452	0.055666
C94	C	0.050985	0.462802	-0.000315
C95	C	-0.059631	0.595510	-0.112275
C96	C	-0.015379	0.595506	-0.112271
C97	C	0.039931	0.529151	-0.056287
C98	C	0.084162	0.529163	-0.056317
N99	N	0.139473	0.462810	-0.000327
C100	C	0.150538	0.396454	0.055664
C101	C	-0.318467	0.529128	-0.056265
C102	C	-0.362712	0.529125	-0.056263
C103	C	-0.296334	0.396411	0.055722
C104	C	-0.252088	0.396416	0.055713
C105	C	-0.263155	0.462775	-0.000275
C106	C	0.243448	0.396471	0.055637
C107	C	0.287690	0.396483	0.055618
C108	C	0.221308	0.529195	-0.056362
C109	C	0.177069	0.529185	-0.056348
C110	C	0.188143	0.462816	-0.000340
O111	O	0.078867	0.585571	-0.103937
O112	O	0.201649	0.340024	0.103289
C113	C	-0.026434	0.396435	0.055698
C114	C	-0.081741	0.462785	-0.000283
C115	C	-0.092807	0.529141	-0.056274
C116	C	-0.125987	0.462783	-0.000281
C117	C	-0.114922	0.396427	0.055710
C118	C	-0.059611	0.330074	0.111700
C119	C	-0.015369	0.330080	0.111689
C120	C	-0.148118	0.595494	-0.112264
C121	C	-0.192357	0.595483	-0.112250
C122	C	-0.181292	0.529128	-0.056258
C123	C	0.601256	0.462778	-0.000284
C124	C	0.648353	0.462770	-0.000271
C125	C	0.431436	0.524909	-0.286736
C126	C	0.420897	0.545987	-0.383943
C127	C	0.462437	0.601639	-0.000458
C128	C	0.462419	0.648759	-0.000503
C129	C	0.552125	0.283552	-0.423707
C130	C	0.542210	0.303375	-0.515062
C131	C	0.475852	0.436074	-0.627023
C132	C	0.485762	0.416262	-0.535676
C133	C	0.523899	0.340000	-0.434023
C134	C	0.457537	0.472710	-0.545992
C135	C	0.467444	0.452899	-0.454652
C136	C	0.505578	0.376640	-0.352997
C137	C	0.533807	0.320189	-0.342684
C138	C	0.419397	0.548972	-0.647646
C139	C	0.391171	0.605419	-0.657961
C140	C	0.401082	0.585609	-0.566621
C141	C	0.439215	0.509350	-0.464966
C142	C	0.372853	0.642060	-0.576935
C143	C	0.382761	0.622249	-0.485595
C144	C	0.449123	0.489539	-0.373627
C145	C	0.493542	0.400699	0.286091
C146	C	0.504081	0.379621	0.383297
C147	C	0.601309	0.323943	-0.000149
C148	C	0.648423	0.276815	-0.000091
C149	C	0.493594	0.261864	0.286226
C150	C	0.504151	0.193666	0.383478
C151	C	0.632361	0.261838	0.286264
C152	C	0.690015	0.193632	0.383529
C153	C	0.292617	0.663770	-0.286909
C154	C	0.234963	0.731976	-0.384174
C155	C	0.323669	0.601665	-0.000496
C156	C	0.276555	0.648793	-0.000554
C157	C	0.431384	0.663744	-0.286871
C158	C	0.420827	0.731942	-0.384123
C159	C	0.637387	0.266817	-0.056008
C160	C	0.681649	0.222546	-0.055974
C161	C	0.736948	0.188269	-0.000016
C162	C	0.747983	0.198270	0.055903
C163	C	0.703721	0.242545	0.055862
C164	C	0.542270	0.149506	0.485094
C165	C	0.552188	0.085432	0.576481
C166	C	0.523989	0.065516	0.566250
C167	C	0.485866	0.109683	0.464624
C168	C	0.475945	0.173759	0.373239
C169	C	0.738127	0.173724	0.373285
C170	C	0.792302	0.109645	0.464667
C171	C	0.798362	0.065472	0.566292
C172	C	0.750244	0.085385	0.576534
C173	C	0.696071	0.149466	0.485153
C174	C	0.186851	0.751890	-0.373931
C175	C	0.132676	0.815982	-0.465313
C176	C	0.126616	0.860157	-0.566937
C177	C	0.174734	0.840241	-0.577179
C178	C	0.228907	0.776153	-0.485798
C179	C	0.287590	0.658798	0.055353
C180	C	0.243325	0.703087	0.055294
C181	C	0.188026	0.737366	-0.000667
C182	C	0.176991	0.727362	-0.056582
C183	C	0.221255	0.683078	-0.056528
C184	C	0.449035	0.751836	-0.373858
C185	C	0.439127	0.815907	-0.465228
C186	C	0.401008	0.860085	-0.566862
C187	C	0.372800	0.840187	-0.577125
C188	C	0.382711	0.776114	-0.485756
H189	H	0.521724	0.103381	-0.157606
O190	O	0.397721	-0.054152	0.171832
H191	H	0.383097	-0.039765	0.210716
H192	H	0.252322	0.711223	0.100831
O193	O	0.574984	0.237933	-0.233038
H194	H	0.577147	0.233644	-0.171261
H195	H	0.268080	0.759943	-0.494152
H196	H	0.444800	0.498167	-0.709799
O197	O	-0.027317	0.667082	-0.172667
H198	H	-0.073212	0.713218	-0.211599
H199	H	0.793013	0.170356	0.101462
O200	O	0.397777	0.037761	0.171926
H201	H	0.352609	0.064980	0.139569
H202	H	0.672653	0.214409	-0.101510
O203	O	0.117410	0.600751	-0.116731
H204	H	0.117151	0.646892	-0.155663
O205	O	0.193375	0.704253	-0.264330
H206	H	0.239126	0.656334	-0.202496
O207	O	0.856794	-0.003651	0.664850
H208	H	0.880150	0.013351	0.664770
O209	O	0.506140	-0.327767	-0.116739
H210	H	0.551305	-0.354975	-0.084375
H211	H	0.521707	0.023144	-0.157648
O212	O	0.347230	0.621833	0.115715
H213	H	0.376164	0.589351	0.106377
O214	O	0.756791	0.037728	0.686152
H215	H	0.736306	0.072864	0.695430
O216	O	0.080782	0.837445	-0.454255
H217	H	0.094103	0.795947	-0.368235
O218	O	0.644178	0.170924	0.496207
H219	H	0.657500	0.129431	0.582227
H220	H	0.131961	0.755278	-0.102144
O221	O	0.844185	0.088203	0.453576
H222	H	0.869847	0.088283	0.492474
H223	H	0.424274	-0.288907	0.101018
H224	H	0.212262	0.674934	-0.102052
H225	H	0.583182	0.221452	-0.340933
H226	H	-0.237394	0.649523	-0.157849
H227	H	0.712715	0.250677	0.101403
H228	H	0.332727	0.342446	0.101210
H229	H	0.583233	0.049477	0.659220
H230	H	0.212308	0.583221	-0.101952
H231	H	0.480074	0.715873	-0.291111
O232	O	0.577745	0.303788	-0.116378
H233	H	0.549571	0.366033	-0.178236
O234	O	0.390319	0.929195	-0.665402
H235	H	0.359076	0.956576	-0.737805
H236	H	0.082501	0.912340	-0.641337
O237	O	0.506269	0.211860	-0.116423
H238	H	0.472197	0.233797	-0.178282
O239	O	0.534697	-0.003599	0.664826
H240	H	0.508684	-0.010032	0.640649
O241	O	0.140290	0.785105	-0.000686
H242	H	0.157261	0.786284	0.047615
O243	O	0.469554	0.837360	-0.454145
H244	H	0.458686	0.847925	-0.409831
H245	H	0.029664	0.276046	0.157280
H246	H	0.403289	-0.097576	0.157059
O247	O	0.331680	0.887845	-0.686746
H248	H	0.329525	0.935744	-0.748546
O249	O	0.572661	0.242483	-0.503925
H250	H	0.541082	0.248335	-0.542857
O251	O	0.784688	0.140509	0.000034
H252	H	0.767718	0.139313	-0.048244
H253	H	0.169792	0.876217	-0.659933
O254	O	0.418804	0.161448	0.116040
H255	H	0.452862	0.099200	0.177890
H256	H	0.565235	0.165712	0.493444
O257	O	0.455469	0.088183	0.453595
H258	H	0.468787	0.036197	0.534218
O259	O	0.352277	0.754666	-0.496832
H260	H	0.324103	0.796160	-0.582857
H261	H	0.444907	0.209709	0.290502
O262	O	0.731597	0.221368	0.263681
H263	H	0.774159	0.196757	0.271928
O264	O	0.418670	-0.378162	0.115703
H265	H	0.443654	-0.417006	0.201704
H266	H	0.403267	-0.177805	0.157007
O267	O	-0.047678	0.258502	0.172094
H268	H	-0.087739	0.269653	0.162695
H269	H	0.500718	0.294749	-0.101608
O270	O	0.418854	0.253361	0.116123
H271	H	0.382781	0.314445	0.059649
O272	O	0.527270	-0.020275	-0.172447
H273	H	0.541897	-0.034667	-0.211324
H274	H	0.411331	0.565099	-0.722017
O275	O	0.177011	0.258522	0.172051
H276	H	0.205925	0.269662	0.162644
H277	H	0.500601	-0.244876	-0.101915
O278	O	0.527245	-0.112208	-0.172498
H279	H	0.541873	-0.080959	-0.211372
H280	H	0.252472	0.342427	0.101244
H281	H	-0.207054	0.342382	0.101310
O282	O	0.085055	0.258519	0.172050
H283	H	0.130949	0.212392	0.210961
H284	H	-0.287331	0.342383	0.101306
H285	H	-0.407747	0.583161	-0.101865
H286	H	-0.327488	0.583169	-0.101864
H287	H	-0.104660	0.649543	-0.157862
H288	H	0.480180	0.427439	-0.290852
O289	O	-0.160054	0.667067	-0.172675
H290	H	-0.178051	0.686078	-0.140403
O291	O	0.516232	0.355287	-0.254493
H292	H	0.533170	0.378697	-0.254540
H293	H	0.341799	0.704152	-0.659711
O294	O	0.350048	0.687669	-0.767605
H295	H	0.315293	0.699882	-0.811916
O296	O	0.352323	0.683127	-0.496709
H297	H	0.324144	0.739485	-0.582739
