data_functionalizedCrystal
_audit_creation_method	'MofGen! by Chris Wilmer'
_symmetry_space_group_name_H-M	'P1'
_symmetry_Int_Tables_number	1
_symmetry_cell_setting	triclinic
loop_
_symmetry_equiv_pos_as_xyz
  x,y,z
_cell_length_a	19.188930
_cell_length_b	9.798715
_cell_length_c	10.723024
_cell_angle_alpha	89.998022
_cell_angle_beta	83.806325
_cell_angle_gamma	89.982440
loop_
_atom_site_label
_atom_site_type_symbol
_atom_site_fract_x
_atom_site_fract_y
_atom_site_fract_z
O1	O	0.927157	-0.113927	0.155778
O2	O	0.723981	-0.113833	0.176749
O3	O	0.830256	-0.113877	-0.015410
O4	O	0.820882	-0.113883	0.347937
O5	O	0.830248	0.113105	-0.015410
O6	O	0.723974	0.113149	0.176749
O7	O	0.927149	0.113055	0.155778
Zn8	Zn	0.825560	0.149141	0.166263
Zn9	Zn	0.825570	-0.149918	0.166264
O10	O	0.820874	0.113099	0.347937
C11	C	0.697962	-0.000330	0.176070
C12	C	0.620444	-0.000294	0.174031
N13	N	0.825558	0.353240	0.166262
N14	N	0.825578	-0.354018	0.166255
C15	C	0.576253	-0.000317	0.286784
C16	C	0.503417	-0.000332	0.284869
C17	C	0.474775	-0.000351	0.170195
C18	C	0.518976	-0.000320	0.057427
C19	C	0.591811	-0.000292	0.059346
N20	N	0.366228	-0.077657	0.082541
N21	N	0.297038	-0.077687	0.080726
C22	C	0.255329	-0.000435	0.164408
N23	N	0.285423	0.076832	0.249992
N24	N	0.354620	0.076856	0.251810
C25	C	0.395799	-0.000381	0.168102
C26	C	0.132160	-0.000472	0.275091
C27	C	0.059322	-0.000479	0.273171
C28	C	0.074883	-0.000481	0.045726
C29	C	0.147719	-0.000460	0.047650
C30	C	0.176353	-0.000463	0.162335
C31	C	0.953168	-0.000451	0.156457
C32	C	1.030686	-0.000496	0.158496
C33	C	0.829569	-0.000387	-0.061895
C34	C	0.827529	-0.000391	-0.200407
C35	C	0.870179	0.420999	0.085229
C36	C	0.870190	0.578161	0.085224
C37	C	0.886994	-0.000420	-0.276624
C38	C	0.884886	-0.000424	-0.419784
C39	C	0.821561	-0.000393	0.394423
C40	C	0.823601	-0.000398	0.532935
H41	H	0.599562	-0.000322	0.380170
N42	N	0.455741	-0.000360	0.406484
H43	H	0.484933	-0.000357	0.479426
H44	H	0.425208	-0.084521	0.410626
N45	N	0.488093	-0.000350	-0.066263
H46	H	0.504147	0.083800	-0.115642
H47	H	0.435252	-0.000429	-0.050272
H48	H	0.908395	0.636431	0.015852
N49	N	0.639480	-0.000260	-0.062271
H50	H	0.610286	-0.000268	-0.135210
H51	H	0.670059	-0.084394	-0.066432
N52	N	0.956501	-0.000437	-0.222681
H53	H	0.995896	-0.000456	-0.293213
H54	H	0.960030	-0.084582	-0.169327
H55	H	0.051564	-0.000581	-0.047644
N56	N	0.163050	-0.000468	0.398779
H57	H	0.124000	-0.000473	0.469920
H58	H	0.192912	0.083685	0.404527
H59	H	0.935793	-0.000444	-0.485273
H60	H	0.772692	-0.000364	-0.401584
N61	N	0.758022	-0.000343	-0.254350
H62	H	0.718627	-0.000319	-0.183818
H63	H	0.754497	-0.084486	-0.307697
H64	H	0.023342	-0.000490	0.364992
H65	H	0.787376	0.587722	0.235640
H66	H	0.183701	-0.000449	-0.044166
H67	H	0.908371	0.362660	0.015851
N68	N	0.774959	0.430509	0.258150
H69	H	0.802026	0.489773	0.313077
H70	H	0.745190	0.363613	0.312143
