data_functionalizedCrystal
_audit_creation_method	'MofGen! by Chris Wilmer'
_symmetry_space_group_name_H-M	'P1'
_symmetry_Int_Tables_number	1
_symmetry_cell_setting	triclinic
loop_
_symmetry_equiv_pos_as_xyz
  x,y,z
_cell_length_a	14.628931
_cell_length_b	12.970454
_cell_length_c	12.970454
_cell_angle_alpha	119.999186
_cell_angle_beta	89.999753
_cell_angle_gamma	119.999329
loop_
_atom_site_label
_atom_site_type_symbol
_atom_site_fract_x
_atom_site_fract_y
_atom_site_fract_z
Zr1	Zr	0.880643	-1.128488	-0.135271
O2	O	0.734688	-1.343573	-0.299890
O3	O	0.925383	-0.913403	-0.084810
O4	O	0.925389	-1.128487	-0.299895
O5	O	0.734681	-1.128490	0.084861
O6	O	1.075821	-1.128487	-0.299895
O7	O	0.734682	-1.128489	-0.084806
O8	O	1.075811	-0.743740	0.084853
O9	O	0.734691	-1.513236	-0.299886
O10	O	1.056734	-1.001870	-0.063285
O11	O	0.944467	-1.001871	0.063335
O12	O	0.944474	-1.255105	-0.189899
O13	O	0.832208	-1.255106	-0.063279
Zr14	Zr	1.120563	-1.128489	0.135328
Zr15	Zr	1.120565	-1.128487	-0.135271
Zr16	Zr	0.880641	-1.128490	0.135327
Zr17	Zr	0.880649	-1.399081	-0.135265
Zr18	Zr	1.120558	-0.857896	0.135321
O19	O	1.075823	-1.343574	0.084867
O20	O	1.075826	-1.343572	-0.299890
O21	O	0.734685	-1.343575	0.084866
O22	O	1.266519	-0.913404	0.299947
O23	O	1.266521	-0.913402	-0.084810
O24	O	0.925381	-0.913405	0.299946
O25	O	1.266526	-1.128487	-0.084805
O26	O	1.075817	-1.128490	0.299951
O27	O	0.925385	-1.128490	0.299951
O28	O	1.266525	-1.128488	0.084862
O29	O	0.925397	-1.513235	-0.299886
O30	O	1.075809	-0.743742	0.299942
O31	O	1.266515	-0.743741	0.299943
O32	O	1.266517	-0.743740	0.084853
O33	O	0.734690	-1.513237	-0.084796
O34	O	0.925396	-1.513237	-0.084796
O35	O	1.056732	-1.001872	0.189956
O36	O	1.168999	-1.001871	0.063336
O37	O	1.056739	-1.255106	-0.063279
O38	O	0.944473	-1.255107	0.063341
C39	C	1.000596	-0.790018	0.000020
C40	C	1.000594	-0.675144	0.000018
C41	C	0.700498	-1.128489	0.000028
C42	C	0.598644	-1.128490	0.000028
C43	C	0.608924	-1.002868	0.062837
C44	C	0.503654	-1.002866	0.062838
C45	C	1.300709	-1.128487	0.000029
C46	C	1.402562	-1.128487	0.000029
C47	C	1.000606	-0.466963	0.000032
C48	C	1.000595	-0.581850	0.000024
C49	C	1.000605	-1.128487	-0.338449
C50	C	1.000606	-1.128486	-0.453325
C51	C	1.000601	-1.128490	0.338506
C52	C	1.000600	-1.128491	0.453382
C53	C	1.300702	-0.790017	0.000021
C54	C	1.402553	-0.675143	0.000018
C55	C	1.000594	-0.790020	0.338498
C56	C	1.000591	-0.675147	0.453371
C57	C	1.300700	-0.790019	0.338498
C58	C	1.402550	-0.675145	0.453372
C59	C	0.700507	-1.466958	-0.338442
C60	C	0.598657	-1.581832	-0.453315
C61	C	0.700505	-1.466960	0.000036
C62	C	0.598654	-1.581834	0.000038
C63	C	1.000612	-1.466957	-0.338441
C64	C	1.000615	-1.581830	-0.453315
C65	C	1.450381	-0.527714	0.093491
C66	C	1.546071	-0.419762	0.093492
C67	C	1.593935	-0.459243	0.000026
C68	C	1.546098	-0.606687	-0.093456
C69	C	1.450405	-0.714635	-0.093462
C70	C	1.450385	-0.527717	0.507315
C71	C	1.546095	-0.419764	0.615238
C72	C	1.593963	-0.459243	0.669223
C73	C	1.546123	-0.606686	0.615270
C74	C	1.450419	-0.714636	0.507343
C75	C	0.550829	-1.729260	-0.507268
C76	C	0.455141	-1.837212	-0.615216
C77	C	0.407277	-1.797733	-0.669204
C78	C	0.455113	-1.650290	-0.615246
C79	C	0.550804	-1.542340	-0.507305
C80	C	0.550820	-1.542308	0.093521
C81	C	0.455130	-1.650230	0.093549
C82	C	0.407271	-1.797676	0.000088
C83	C	0.455113	-1.837202	-0.093400
C84	C	0.550806	-1.729281	-0.093422
H85	H	0.695658	-0.895321	0.116615
H86	H	0.329351	-1.885537	0.000120
H87	H	0.416133	-1.957266	-0.169492
Br88	Br	1.611069	-0.660243	-0.220298
Br89	Br	1.610975	-0.219675	0.220372
H90	H	0.511910	-1.236037	-0.053742
Br91	Br	1.385501	-0.914717	-0.220337
H92	H	1.411424	-0.495544	0.463375
H93	H	0.589734	-1.422299	-0.463380
H94	H	0.589742	-1.761485	-0.169552
Br95	Br	1.611096	-0.660241	0.688555
H96	H	1.411475	-0.834678	0.463435
H97	H	0.416204	-1.957259	-0.659131
H98	H	0.393928	-1.236042	-0.053753
Br99	Br	0.518043	-0.823598	0.152457
Br100	Br	0.615749	-1.342211	0.220375
H101	H	0.329359	-1.885647	-0.757096
H102	H	1.585029	-0.299717	0.659156
Br103	Br	1.723847	-0.312720	0.815698
Br104	Br	1.385443	-0.474094	0.220352
H105	H	0.416188	-1.618019	0.169678
Br106	Br	0.390137	-1.596734	-0.688527
H107	H	1.671852	-0.371330	0.000043
H108	H	0.589784	-1.761433	-0.463322
