data_functionalizedCrystal
_audit_creation_method	'MofGen! by Chris Wilmer'
_symmetry_space_group_name_H-M	'P1'
_symmetry_Int_Tables_number	1
_symmetry_cell_setting	triclinic
loop_
_symmetry_equiv_pos_as_xyz
  x,y,z
_cell_length_a	12.594517
_cell_length_b	12.594516
_cell_length_c	12.759393
_cell_angle_alpha	90.029124
_cell_angle_beta	90.014978
_cell_angle_gamma	90.016010
loop_
_atom_site_label
_atom_site_type_symbol
_atom_site_fract_x
_atom_site_fract_y
_atom_site_fract_z
Zn1	Zn	1.627274	-0.423681	0.593901
Zn2	Zn	2.127274	0.076319	1.093901
Zn3	Zn	1.627163	-0.601700	0.418228
Zn4	Zn	2.127163	-0.101700	0.918228
Zn5	Zn	1.449276	-0.423736	0.418251
Zn6	Zn	1.949276	0.076264	0.918251
Zn7	Zn	1.449260	-0.601617	0.593880
Zn8	Zn	1.949260	-0.101617	1.093880
O9	O	1.538243	-0.512683	0.506065
O10	O	2.038243	-0.012683	1.006065
O11	O	1.776205	-0.447307	0.570596
O12	O	2.276205	0.052693	1.070596
O13	O	1.603526	-0.578150	0.271210
O14	O	2.103526	-0.078150	0.771210
O15	O	1.472941	-0.274783	0.441569
O16	O	1.972941	0.225217	0.941569
O17	O	1.776123	-0.578097	0.441530
O18	O	2.276123	-0.078097	0.941530
O19	O	1.603715	-0.274742	0.570618
O20	O	2.103715	0.225258	1.070618
O21	O	1.472833	-0.447401	0.271227
O22	O	1.972833	0.052599	0.771227
O23	O	1.300328	-0.447321	0.441549
O24	O	1.800328	0.052679	0.941549
O25	O	1.472914	-0.577956	0.740904
O26	O	1.972914	-0.077956	1.240904
O27	O	1.300316	-0.578009	0.570584
O28	O	1.800316	-0.078009	1.070584
O29	O	1.603700	-0.447227	0.740919
O30	O	2.103700	0.052773	1.240919
O31	O	1.603510	-0.750635	0.441511
O32	O	2.103510	-0.250635	0.941511
O33	O	1.472806	-0.750574	0.570562
O34	O	1.972806	-0.250574	1.070562
C35	C	1.261702	-0.512663	0.506067
C36	C	1.761702	-0.012663	1.006067
C37	C	1.143397	-0.512680	0.506093
C38	C	1.643397	-0.012680	1.006093
C39	C	1.003405	-0.583890	0.576145
C40	C	1.503405	-0.083890	1.076145
C41	C	1.074174	-0.609803	0.480260
C42	C	1.574174	-0.109803	0.980260
C43	C	1.074199	-0.486814	0.601968
C44	C	1.574199	0.013186	1.101968
C45	C	1.003381	-0.538677	0.410126
C46	C	1.503381	-0.038677	0.910126
C47	C	1.003399	-0.415644	0.531899
C48	C	1.503399	0.084356	1.031899
C49	C	1.074137	-0.441519	0.435948
C50	C	1.574137	0.058481	0.935948
C51	C	1.538173	-0.789224	0.506055
C52	C	2.038173	-0.289224	1.006055
C53	C	1.538241	-0.907530	0.506085
C54	C	2.038241	-0.407530	1.006085
C55	C	1.467144	-0.976789	0.576227
C56	C	1.967144	-0.476789	1.076227
C57	C	1.441209	-1.047659	0.480362
C58	C	1.941209	-0.547659	0.980362
C59	C	1.564272	-1.047458	0.601967
C60	C	2.064272	-0.547458	1.101967
C61	C	1.512255	-0.976842	0.410170
C62	C	2.012255	-0.476842	0.910170
C63	C	1.635363	-0.976635	0.531839
C64	C	2.135363	-0.476635	1.031839
C65	C	1.609466	-1.047474	0.435908
C66	C	2.109466	-0.547474	0.935908
C67	C	1.815864	-0.512705	0.506063
C68	C	2.315864	-0.012705	1.006063
C69	C	1.934169	-0.512714	0.506062
C70	C	2.434169	-0.012714	1.006062
C71	C	1.538318	-0.512576	0.780098
C72	C	2.038318	-0.012576	1.280098
C73	C	1.538349	-0.512530	0.896875
C74	C	2.038349	-0.012530	1.396875
C75	C	1.538342	-0.235063	0.506098
C76	C	2.038342	0.264937	1.006098
C77	C	1.538384	-0.116757	0.506112
C78	C	2.038384	0.383243	1.006112
C79	C	1.538230	-0.512714	0.233098
C80	C	2.038230	-0.012714	0.733098
C81	C	1.538405	-0.512459	0.116321
C82	C	2.038405	-0.012459	0.616321
C83	C	1.606459	-0.444453	0.951747
C84	C	2.106459	0.055547	1.451747
C85	C	1.606484	-0.444415	1.061471
C86	C	2.106484	0.055585	1.561471
C87	C	1.470287	-0.580540	1.061442
C88	C	1.970287	-0.080540	1.561442
C89	C	1.470257	-0.580572	0.951720
C90	C	1.970257	-0.080572	1.451720
C91	C	1.685095	-0.365865	0.951764
C92	C	2.185095	0.134135	1.451764
C93	C	1.685120	-0.365827	1.061488
C94	C	2.185120	0.134173	1.561488
H95	H	0.972348	-0.644142	0.635324
H96	H	1.472348	-0.144142	1.135324
N97	N	1.396795	-0.653998	0.892539
N98	N	1.896795	-0.153998	1.392539
H99	H	1.407105	-0.643696	0.814708
H100	H	1.907105	-0.143696	1.314708
H101	H	1.320791	-0.637412	0.911722
H102	H	1.820791	-0.137412	1.411722
H103	H	1.663043	-0.283436	0.922006
H104	H	2.163043	0.216564	1.422006
H105	H	0.972404	-0.560668	0.329010
H106	H	1.472404	-0.060668	0.829010
H107	H	1.105261	-0.691879	0.458412
H108	H	1.605261	-0.191879	0.958412
H109	H	1.104998	-0.381313	0.376626
H110	H	1.604998	0.118687	0.876626
H111	H	1.490201	-0.945951	0.329073
H112	H	1.990201	-0.445951	0.829073
N113	N	0.962217	-0.306938	0.560849
N114	N	1.462217	0.193062	1.060849
H115	H	0.987943	-0.287443	0.633330
H116	H	1.487943	0.212557	1.133330
H117	H	0.882035	-0.307634	0.559885
H118	H	1.382035	0.192366	1.059885
H119	H	1.414847	-0.635935	1.106110
H120	H	1.914847	-0.135935	1.606110
H121	H	1.669651	-1.078314	0.376535
H122	H	2.169651	-0.578314	0.876535
N123	N	1.115412	-0.457810	0.709379
N124	N	1.615412	0.042190	1.209379
H125	H	1.089681	-0.511640	0.762244
H126	H	1.589681	-0.011640	1.262244
H127	H	1.088553	-0.385006	0.729336
H128	H	1.588553	0.114994	1.229336
N129	N	1.387358	-0.935663	0.654672
N130	N	1.887358	-0.435663	1.154672
H131	H	1.388346	-0.855476	0.654576
H132	H	1.888346	-0.355476	1.154576
H133	H	1.406253	-0.962527	0.726873
H134	H	1.906253	-0.462527	1.226873
N135	N	1.332498	-1.088973	0.451499
N136	N	1.832498	-0.588973	0.951499
H137	H	1.278786	-1.063266	0.504510
H138	H	1.778786	-0.563266	1.004510
H139	H	1.333623	-1.169154	0.451034
H140	H	1.833623	-0.669154	0.951034
N141	N	1.744048	-0.935280	0.560715
N142	N	2.244048	-0.435280	1.060715
H143	H	1.763595	-0.960919	0.633183
H144	H	2.263595	-0.460919	1.133183
H145	H	1.743274	-0.855100	0.559750
H146	H	2.243274	-0.355100	1.059750
H147	H	1.767555	-0.387905	1.091262
H148	H	2.267555	0.112095	1.591262
H149	H	1.586232	-1.078478	0.683042
H150	H	2.086232	-0.578478	1.183042
H151	H	1.763377	-0.395416	0.917724
H152	H	2.263377	0.104584	1.417724
H153	H	1.655627	-0.287506	1.095534
H154	H	2.155627	0.212494	1.595534
