data_functionalizedCrystal
_audit_creation_method	'MofGen! by Chris Wilmer'
_symmetry_space_group_name_H-M	'P1'
_symmetry_Int_Tables_number	1
_symmetry_cell_setting	triclinic
loop_
_symmetry_equiv_pos_as_xyz
  x,y,z
_cell_length_a	13.448316
_cell_length_b	14.971496
_cell_length_c	14.971486
_cell_angle_alpha	83.616127
_cell_angle_beta	89.998199
_cell_angle_gamma	89.992488
loop_
_atom_site_label
_atom_site_type_symbol
_atom_site_fract_x
_atom_site_fract_y
_atom_site_fract_z
O1	O	-0.082580	0.116564	1.186951
O2	O	0.417420	0.616564	1.686951
O3	O	-0.082607	0.130523	0.926552
O4	O	0.417393	0.630523	1.426552
O5	O	-0.082584	-0.006656	1.063726
O6	O	0.417416	0.493344	1.563726
O7	O	-0.082603	0.253743	1.049777
O8	O	0.417397	0.753743	1.549777
O9	O	0.082800	-0.006664	1.063709
O10	O	0.582800	0.493336	1.563709
O11	O	0.082777	0.130515	0.926535
O12	O	0.582777	0.630515	1.426535
O13	O	0.082804	0.116556	1.186934
O14	O	0.582804	0.616556	1.686934
Cu15	Cu	0.097891	0.123534	1.056733
Cu16	Cu	0.597891	0.623534	1.556733
Cu17	Cu	-0.097694	0.123544	1.056753
Cu18	Cu	0.402306	0.623544	1.556753
O19	O	0.082781	0.253735	1.049760
O20	O	0.582781	0.753735	1.549760
C21	C	0.000108	-0.039985	1.063092
C22	C	0.500108	0.460015	1.563092
C23	C	0.000109	-0.139281	1.061218
C24	C	0.500109	0.360719	1.561218
C25	C	0.000082	0.129895	0.893218
C26	C	0.500082	0.629895	1.393218
C27	C	0.000071	0.128024	0.793921
C28	C	0.500071	0.628024	1.293921
N29	N	0.235456	0.123527	1.056725
N30	N	0.735456	0.623527	1.556725
N31	N	-0.235258	0.123545	1.056768
N32	N	0.264742	0.623545	1.556768
C33	C	0.287506	0.062809	1.117485
C34	C	0.787506	0.562809	1.617485
C35	C	0.391610	0.062808	1.117490
C36	C	0.891610	0.562808	1.617490
C37	C	0.443660	0.123530	1.056740
C38	C	0.943660	0.623530	1.556740
C39	C	0.391602	0.184251	0.995973
C40	C	0.891602	0.684251	1.495973
C41	C	0.287501	0.184247	0.995964
C42	C	0.787501	0.684247	1.495964
C43	C	0.608582	0.184257	0.995998
C44	C	1.108582	0.684257	1.495998
C45	C	0.712691	0.184263	0.996008
C46	C	1.212691	0.684263	1.496008
C47	C	0.712691	0.062819	1.117524
C48	C	1.212691	0.562819	1.617524
C49	C	0.608590	0.062814	1.117515
C50	C	1.108590	0.562814	1.617515
C51	C	0.556539	0.123536	1.056750
C52	C	1.056539	0.623536	1.556750
C53	C	-0.090069	-0.566981	1.053160
C54	C	0.409931	-0.066981	1.553160
C55	C	-0.090064	-0.473681	1.054926
C56	C	0.409936	0.026319	1.554926
C57	C	0.000090	-0.427043	1.055793
C58	C	0.500090	0.072957	1.555793
C59	C	0.090246	-0.473709	1.054904
C60	C	0.590246	0.026291	1.554904
C61	C	0.090241	-0.567007	1.053144
C62	C	0.590241	-0.067007	1.553144
C63	C	0.090252	-0.279246	1.058569
C64	C	0.590252	0.220754	1.558569
C65	C	0.090258	-0.185941	1.060326
C66	C	0.590258	0.314059	1.560326
C67	C	-0.090053	-0.185920	1.060350
C68	C	0.409947	0.314080	1.560350
C69	C	-0.090059	-0.279218	1.058590
C70	C	0.409941	0.220782	1.558590
C71	C	0.000097	-0.325878	1.057700
C72	C	0.500097	0.174122	1.557700
C73	C	0.000087	0.287063	1.050394
C74	C	0.500087	0.787063	1.550394
C75	C	0.000080	0.386360	1.052268
C76	C	0.500080	0.886360	1.552268
C77	C	0.000067	0.208613	0.736699
C78	C	0.500067	0.708613	1.236699
C79	C	0.000082	0.206850	0.643399
C80	C	0.500082	0.706850	1.143399
C81	C	0.000094	0.124497	0.607324
C82	C	0.500094	0.624497	1.107324
C83	C	0.000102	0.043902	0.664554
C84	C	0.500102	0.543902	1.164554
C85	C	0.000094	0.045666	0.757852
C86	C	0.500094	0.545666	1.257852
C87	C	0.000116	0.040231	0.470091
C88	C	0.500116	0.540231	0.970091
C89	C	0.000122	0.038466	0.376787
C90	C	0.500122	0.538466	0.876787
C91	C	0.000104	0.201414	0.355639
C92	C	0.500104	0.701414	0.855639
C93	C	0.000096	0.203179	0.448937
C94	C	0.500096	0.703179	0.948937
C95	C	0.000101	0.122583	0.506160
C96	C	0.500101	0.622583	1.006160
C97	C	0.000114	0.117184	1.220268
C98	C	0.500114	0.617184	1.720268
C99	C	0.000117	0.119055	1.319565
C100	C	0.500117	0.619055	1.819565
H101	H	0.245134	0.013366	1.166959
H102	H	0.745134	0.513366	1.666959
H103	H	0.433989	0.013367	1.166965
H104	H	0.933989	0.513367	1.666965
H105	H	-0.163471	-0.317188	1.057879
H106	H	0.336529	0.182812	1.557879
H107	H	0.000133	-0.028593	0.347418
H108	H	0.500133	0.471407	0.847418
C109	C	0.000055	0.299209	0.776372
C110	C	0.500055	0.799209	1.276372
N111	N	0.000051	0.367449	0.806251
N112	N	0.500051	0.867449	1.306251
H113	H	0.000076	0.270237	0.478306
H114	H	0.500076	0.770237	0.978306
C115	C	0.189429	-0.330568	1.057586
C116	C	0.689429	0.169432	1.557586
N117	N	0.264128	-0.369224	1.056840
N118	N	0.764128	0.130776	1.556840
H119	H	0.000126	-0.023152	0.635174
H120	H	0.500126	0.476848	1.135174
C121	C	0.189432	-0.134641	1.061294
C122	C	0.689432	0.365359	1.561294
N123	N	0.264132	-0.096003	1.062026
N124	N	0.764132	0.403997	1.562026
C125	C	0.189411	-0.618331	1.052160
C126	C	0.689411	-0.118331	1.552160
N127	N	0.264110	-0.656988	1.051421
N128	N	0.764110	-0.156988	1.551421
C129	C	-0.189226	-0.134593	1.061332
C130	C	0.310774	0.365407	1.561332
N131	N	-0.263921	-0.095929	1.062069
N132	N	0.236079	0.404071	1.562069
C133	C	0.551336	-0.003983	1.184344
C134	C	1.051336	0.496017	1.684344
N135	N	0.508213	-0.054298	1.234678
N136	N	1.008213	0.445702	1.734678
C137	C	0.230246	0.251048	0.929131
C138	C	0.730246	0.751048	1.429131
N139	N	0.187123	0.301366	0.878790
N140	N	0.687123	0.801366	1.378790
H141	H	0.000122	-0.025399	0.516681
H142	H	0.500122	0.474601	1.016681
H143	H	0.000104	0.267038	0.309043
H144	H	0.500104	0.767038	0.809043
C145	C	0.000096	-0.042988	0.820797
C146	C	0.500096	0.457012	1.320797
N147	N	0.000100	-0.109766	0.868206
N148	N	0.500100	0.390234	1.368206
H149	H	0.000077	0.272473	0.596812
H150	H	0.500077	0.772473	1.096812
C151	C	0.769949	-0.003980	1.184364
C152	C	1.269949	0.496020	1.684364
N153	N	0.813080	-0.054289	1.234707
N154	N	1.313080	0.445711	1.734707
H155	H	0.755065	0.233708	0.946538
H156	H	1.255065	0.733708	1.446538
H157	H	0.566206	0.233701	0.946514
H158	H	1.066206	0.733701	1.446514
H159	H	-0.163483	-0.604946	1.052445
H160	H	0.336517	-0.104946	1.552445
C161	C	0.448862	0.251038	0.929139
C162	C	0.948862	0.751038	1.429139
N163	N	0.491989	0.301343	0.878797
N164	N	0.991989	0.801343	1.378797
H165	H	-0.163473	-0.435696	1.055653
H166	H	0.336527	0.064304	1.555653
H167	H	0.163652	-0.435729	1.055616
H168	H	0.663652	0.064271	1.555616
