data_functionalizedCrystal
_audit_creation_method	'MofGen! by Chris Wilmer'
_symmetry_space_group_name_H-M	'P1'
_symmetry_Int_Tables_number	1
_symmetry_cell_setting	triclinic
loop_
_symmetry_equiv_pos_as_xyz
  x,y,z
_cell_length_a	8.597340
_cell_length_b	14.044190
_cell_length_c	7.088928
_cell_angle_alpha	83.241958
_cell_angle_beta	88.687738
_cell_angle_gamma	89.225172
loop_
_atom_site_label
_atom_site_type_symbol
_atom_site_fract_x
_atom_site_fract_y
_atom_site_fract_z
O1	O	2.085065	0.152772	-0.184456
O2	O	1.636540	0.159188	-0.110566
O3	O	1.854061	0.017867	-0.146438
O4	O	1.867544	0.294093	-0.148584
O5	O	1.824885	0.036732	-0.459602
O6	O	1.607364	0.178053	-0.423730
O7	O	2.055889	0.171637	-0.497620
Cu8	Cu	1.828963	0.176567	-0.489269
Cu9	Cu	1.863467	0.154258	-0.118917
O10	O	1.838368	0.312958	-0.461748
C11	C	1.564204	0.166880	-0.257635
C12	C	1.392131	0.161684	-0.229289
C13	C	1.833577	-0.008128	-0.302054
C14	C	1.815991	-0.113693	-0.299174
C15	C	1.908566	-0.362195	-0.314349
C16	C	1.783872	-0.306976	-0.293821
C17	C	1.801747	-0.199424	-0.296800
C18	C	1.890693	-0.469757	-0.311371
C19	C	2.128226	0.163944	-0.350546
C20	C	2.300300	0.169140	-0.378880
C21	C	1.858853	0.338953	-0.306127
C22	C	1.876440	0.444517	-0.308995
N23	N	1.887735	0.138560	0.141569
N24	N	1.804706	0.192258	-0.749757
H25	H	1.339103	0.151322	-0.079516
H26	H	1.353321	0.179494	-0.528643
N27	N	1.624675	-0.351340	-0.267630
H28	H	1.543945	-0.299500	-0.254359
H29	H	1.622646	-0.399114	-0.149420
N30	N	2.067746	-0.317829	-0.340626
H31	H	2.058108	-0.246171	-0.339076
H32	H	2.114957	-0.331892	-0.466292
N33	N	1.690727	0.265977	0.160906
H34	H	1.692450	0.264870	0.018673
H35	H	1.720857	0.331725	0.190870
N36	N	2.001683	0.064815	0.230919
H37	H	1.999954	0.065915	0.373155
H38	H	2.109782	0.080131	0.178246
