data_functionalizedCrystal
_audit_creation_method	'MofGen! by Chris Wilmer'
_symmetry_space_group_name_H-M	'P1'
_symmetry_Int_Tables_number	1
_symmetry_cell_setting	triclinic
loop_
_symmetry_equiv_pos_as_xyz
  x,y,z
_cell_length_a	27.440280
_cell_length_b	14.446369
_cell_length_c	14.446369
_cell_angle_alpha	60.000250
_cell_angle_beta	90.005311
_cell_angle_gamma	59.999534
loop_
_atom_site_label
_atom_site_type_symbol
_atom_site_fract_x
_atom_site_fract_y
_atom_site_fract_z
Zr1	Zr	0.469506	1.013131	-0.121408
O2	O	0.391688	1.206259	-0.269237
O3	O	0.493361	0.820009	-0.076085
O4	O	0.493362	1.013117	-0.269204
O5	O	0.391687	1.013159	0.076211
O6	O	0.573565	1.013099	-0.269185
O7	O	0.391687	1.013150	-0.076118
O8	O	0.573563	0.667663	0.076270
O9	O	0.391689	1.358595	-0.269244
O10	O	0.563390	0.899427	-0.056748
O11	O	0.503535	0.899446	0.056919
O12	O	0.503537	1.126807	-0.170454
O13	O	0.443682	1.126826	-0.056787
Zr14	Zr	0.597420	1.013115	0.121569
Zr15	Zr	0.597420	1.013102	-0.121378
Zr16	Zr	0.469506	1.013144	0.121539
Zr17	Zr	0.469507	1.256088	-0.121419
Zr18	Zr	0.597419	0.770157	0.121580
O19	O	0.573566	1.206237	0.076246
O20	O	0.573566	1.206218	-0.269194
O21	O	0.391688	1.206278	0.076202
O22	O	0.675238	0.819987	0.269398
O23	O	0.675239	0.819968	-0.076041
O24	O	0.493361	0.820028	0.269354
O25	O	0.675239	1.013087	-0.076050
O26	O	0.573564	1.013129	0.269365
O27	O	0.493362	1.013147	0.269346
O28	O	0.675239	1.013096	0.076279
O29	O	0.493364	1.358572	-0.269220
O30	O	0.573563	0.667674	0.269381
O31	O	0.675238	0.667651	0.269405
O32	O	0.675238	0.667641	0.076294
O33	O	0.391689	1.358605	-0.076134
O34	O	0.493364	1.358583	-0.076109
O35	O	0.563390	0.899439	0.170615
O36	O	0.623244	0.899420	0.056948
O37	O	0.563391	1.126800	-0.056758
O38	O	0.503537	1.126819	0.056909
C39	C	0.533462	0.709220	0.000094
C40	C	0.533461	0.606078	0.000099
C41	C	0.495892	0.459080	0.072117
C42	C	0.495688	0.566700	0.071826
C43	C	0.505923	0.655073	-0.123442
C44	C	0.505641	0.547840	-0.123068
C45	C	0.598596	0.372608	0.050559
C46	C	0.598500	0.478759	0.053080
C47	C	0.373462	1.013159	0.000042
C48	C	0.319159	1.013171	0.000029
C49	C	0.013704	0.894411	0.059465
C50	C	-0.037314	0.894404	0.059475
O51	O	-0.037131	0.793463	0.109987
N52	N	-0.094074	1.013093	0.000121
C53	C	-0.099814	1.131797	-0.059238
O54	O	-0.152777	1.232750	-0.109722
C55	C	-0.048796	1.131802	-0.059241
C56	C	0.007963	1.013106	0.000108
C57	C	0.070461	0.775725	0.118810
C58	C	0.121475	0.775732	0.118798
C59	C	0.115734	0.894427	0.059441
C60	C	0.058978	1.013114	0.000096
C61	C	-0.054537	1.250505	-0.118593
C62	C	-0.003513	1.250500	-0.118590
C63	C	0.053246	1.131804	-0.059241
C64	C	0.104251	1.131816	-0.059273
N65	N	0.161010	1.013127	0.000081
C66	C	0.166752	0.894433	0.059438
C67	C	-0.206953	1.131775	-0.059226
C68	C	-0.257970	1.131771	-0.059231
C69	C	-0.195466	0.894378	0.059484
C70	C	-0.144449	0.894384	0.059482
C71	C	-0.150193	1.013086	0.000128
C72	C	0.273884	0.894458	0.059408
C73	C	0.324901	0.894476	0.059387
C74	C	0.262393	1.131868	-0.059323
C75	C	0.211381	1.131851	-0.059308
C76	C	0.217130	1.013135	0.000066
O77	O	0.104114	1.232706	-0.109756
O78	O	0.219717	0.793496	0.109926
C79	C	0.693464	1.013087	0.000119
C80	C	0.747767	1.013075	0.000131
C81	C	0.533464	1.013106	-0.303809
C82	C	0.533464	1.013101	-0.406946
C83	C	0.533465	1.317026	0.000066
C84	C	0.533465	1.420168	0.000062
C85	C	0.571401	0.869707	-0.481913
C86	C	0.571237	0.869610	-0.374584
C87	C	0.468428	1.084343	-0.481525
C88	C	0.468635	1.083433	-0.588384
C89	C	0.560037	1.086365	-0.589936
C90	C	0.561353	1.083663	-0.481263
C91	C	0.533463	1.013140	0.303970
C92	C	0.533463	1.013145	0.407107
C93	C	0.693463	0.709184	0.000132
C94	C	0.747765	0.606030	0.000150
C95	C	0.533462	0.709236	0.303984
C96	C	0.533461	0.606100	0.407126
C97	C	0.693463	0.709201	0.304022
C98	C	0.747765	0.606052	0.407177
C99	C	0.373464	1.317045	-0.303861
C100	C	0.319161	1.420194	-0.407016
C101	C	0.373464	1.317062	0.000028
C102	C	0.319161	1.420216	0.000011
C103	C	0.533465	1.317010	-0.303823
C104	C	0.533466	1.420146	-0.406965
C105	C	0.742023	0.557591	-0.059200
C106	C	0.793041	0.460681	-0.059206
C107	C	0.849801	0.412203	0.000145
C108	C	0.855542	0.460652	0.059497
C109	C	0.804525	0.557567	0.059496
C110	C	0.804515	0.557602	0.396286
C111	C	0.855543	0.460697	0.493202
C112	C	0.849819	0.412237	0.601007
C113	C	0.793064	0.460696	0.611895
C114	C	0.742037	0.557606	0.514981
C115	C	0.262412	1.468655	-0.396126
C116	C	0.211384	1.565591	-0.493041
C117	C	0.217107	1.614056	-0.600846
C118	C	0.273863	1.565591	-0.611734
C119	C	0.324890	1.468664	-0.514820
C120	C	0.324904	1.468665	0.059350
C121	C	0.273886	1.565602	0.059330
C122	C	0.217126	1.614083	-0.000025
C123	C	0.211385	1.565630	-0.059372
C124	C	0.262402	1.468701	-0.059357
C125	C	0.495528	0.459794	0.482106
C126	C	0.495689	0.566715	0.374772
C127	C	0.598498	0.479233	0.481701
C128	C	0.598294	0.371858	0.588564
C129	C	0.506894	0.546851	0.590121
C130	C	0.505574	0.655321	0.481444
H131	H	0.619073	0.439158	0.144094
N132	N	0.386119	1.416388	0.123372
H133	H	0.382006	1.461806	0.160950
H134	H	0.408648	1.433244	0.068886
H135	H	0.627992	0.501475	0.508937
N136	N	0.634671	0.795573	-0.302665
H137	H	0.662992	0.762704	-0.340559
H138	H	0.643772	0.718848	-0.225570
H139	H	0.901763	0.421167	0.107818
H140	H	0.809209	0.596994	0.107832
H141	H	0.278572	1.605036	0.107661
H142	H	0.257718	1.429257	-0.107675
H143	H	0.552807	0.813366	-0.320800
H144	H	0.447514	0.497044	0.479758
N145	N	0.076658	0.647696	0.182822
H146	H	0.056891	0.642382	0.242549
H147	H	0.120369	0.572594	0.220338
H148	H	0.447646	0.655510	0.036817
H149	H	0.532526	1.192042	-0.668146
N150	N	0.162069	1.718598	-0.705371
H151	H	0.125252	1.741934	-0.682103
H152	H	0.162093	1.684799	-0.751972
H153	H	-0.190799	0.797730	0.107813
N154	N	0.622516	1.025552	-0.595366
H155	H	0.651255	0.992745	-0.525180
H156	H	0.623874	1.093298	-0.664790
H157	H	0.513789	0.370124	0.481079
N158	N	0.680809	0.609860	-0.123218
H159	H	0.649354	0.678605	-0.114219
H160	H	0.676089	0.535840	-0.092057
N161	N	-0.083231	0.766367	0.123503
H162	H	-0.060671	0.761070	0.069081
H163	H	-0.087390	0.691252	0.161100
H164	H	0.175589	1.693009	-0.000027
N165	N	0.810697	0.609847	0.280019
H166	H	0.854394	0.564439	0.287843
H167	H	0.790886	0.707136	0.237210
H168	H	0.278516	1.605064	-0.699521
N169	N	-0.009713	1.378536	-0.182623
H170	H	0.031217	1.360540	-0.173630
H171	H	-0.032273	1.430368	-0.151467
N172	N	0.786841	0.408440	-0.123224
H173	H	0.743142	0.453852	-0.160810
H174	H	0.806650	0.311152	-0.068737
N175	N	0.150164	1.617904	-0.123365
H176	H	0.118721	1.686646	-0.114351
H177	H	0.145443	1.543883	-0.092181
N178	N	0.429353	1.224107	-0.517644
H179	H	0.394749	1.237783	-0.488070
H180	H	0.413687	1.285448	-0.603140
H181	H	0.901751	0.421251	0.484317
H182	H	0.257728	1.228506	-0.107655
H183	H	0.447797	0.656073	0.320489
N184	N	0.904859	0.307687	0.705529
H185	H	0.892627	0.284326	0.775482
H186	H	0.929397	0.341480	0.705472
N187	N	0.520090	0.517105	0.303510
H188	H	0.530789	0.425610	0.341785
H189	H	0.556898	0.515801	0.294717
N190	N	-0.319186	1.259792	-0.123258
H191	H	-0.315075	1.334979	-0.160859
H192	H	-0.341711	1.264969	-0.068769
H193	H	0.628098	0.341898	0.667152
H194	H	0.165176	1.605035	-0.484154
N195	N	0.626473	0.251631	0.588225
H196	H	0.638910	0.268746	0.518795
H197	H	0.596663	0.230366	0.587103
H198	H	0.609269	1.031707	-0.429832
N199	N	0.786895	0.408421	0.728173
H200	H	0.827834	0.339674	0.787907
H201	H	0.764339	0.368275	0.737154
N202	N	0.256230	1.416389	-0.279858
H203	H	0.212533	1.461813	-0.287682
H204	H	0.276042	1.433243	-0.237057
H205	H	0.619416	0.813404	-0.479560
H206	H	0.619921	0.440667	0.430101
N207	N	0.547221	0.795497	-0.480542
H208	H	0.511799	0.854389	-0.551497
H209	H	0.534417	0.765743	-0.411739
H210	H	0.891338	0.333287	0.000138
N211	N	0.442098	0.775168	0.413339
H212	H	0.431446	0.797502	0.334669
H213	H	0.438190	0.851169	0.407967
H214	H	0.695831	0.597042	0.523864
N215	N	0.386098	1.416394	-0.526574
H216	H	0.381974	1.461808	-0.609576
H217	H	0.408624	1.319110	-0.488956
H218	H	0.459726	0.586433	0.594224
H219	H	0.534396	0.522058	0.668343
N220	N	0.520155	0.518088	0.192323
H221	H	0.531170	0.426394	0.246108
H222	H	0.488868	0.577894	0.209614
N223	N	0.520225	0.341374	0.192922
H224	H	0.555840	0.261678	0.202119
H225	H	0.488291	0.326269	0.211457
N226	N	0.635855	0.338191	-0.018623
H227	H	0.610702	0.353301	-0.082360
H228	H	0.670918	0.243138	0.031509
H229	H	0.530336	0.687442	0.506971
N230	N	0.432634	0.506423	0.026166
H231	H	0.428210	0.502775	-0.041124
H232	H	0.404169	0.599553	0.001848
H233	H	0.457714	0.588547	-0.163493
H234	H	0.531975	0.683850	-0.179451
N235	N	0.539547	0.518720	-0.198044
H236	H	0.554608	0.575539	-0.231196
H237	H	0.512204	0.537602	-0.261373
H238	H	0.621604	0.278861	0.140131
N239	N	0.443043	0.777349	-0.177374
H240	H	0.443580	0.848198	-0.180398
H241	H	0.417743	0.757548	-0.130974
N242	N	0.638712	0.507213	-0.009199
H243	H	0.615233	0.603469	-0.072927
H244	H	0.654844	0.453975	-0.041351
H245	H	0.371116	0.797815	0.107719
N246	N	0.280089	0.766418	0.123446
H247	H	0.323789	0.691242	0.161032
H248	H	0.260281	0.761237	0.068965
N249	N	-0.213152	1.259812	-0.123262
H250	H	-0.256852	1.334991	-0.160862
H251	H	-0.193350	1.264981	-0.182924
H252	H	-0.100745	1.347160	-0.166920
N253	N	0.182687	0.647699	0.182830
H254	H	0.205250	0.642407	0.242549
H255	H	0.205203	0.642460	0.128340
N256	N	0.150160	1.259868	-0.123336
H257	H	0.154266	1.335061	-0.160944
H258	H	0.127636	1.265044	-0.068844
H259	H	0.438830	1.188671	-0.666975
N260	N	0.440464	1.016377	-0.588037
H261	H	0.398093	1.065487	-0.589048
H262	H	0.464150	0.923603	-0.517511
N263	N	0.440043	1.018828	-0.413187
H264	H	0.469202	0.943014	-0.333936
H265	H	0.428961	0.985592	-0.450575
N266	N	0.528563	1.222325	-0.515076
H267	H	0.495012	1.241457	-0.482559
H268	H	0.511635	1.285146	-0.600470
