data_functionalizedCrystal
_audit_creation_method	'MofGen! by Chris Wilmer'
_symmetry_space_group_name_H-M	'P1'
_symmetry_Int_Tables_number	1
_symmetry_cell_setting	triclinic
loop_
_symmetry_equiv_pos_as_xyz
  x,y,z
_cell_length_a	6.394989
_cell_length_b	16.992694
_cell_length_c	16.053802
_cell_angle_alpha	92.750953
_cell_angle_beta	87.356563
_cell_angle_gamma	88.582967
loop_
_atom_site_label
_atom_site_type_symbol
_atom_site_fract_x
_atom_site_fract_y
_atom_site_fract_z
O1	O	-0.435392	-1.047996	-0.069315
O2	O	-0.430522	-0.819664	-0.069340
O3	O	-0.129434	-0.937071	-0.069328
O4	O	-0.736480	-0.930589	-0.069327
O5	O	-0.145934	-0.930608	0.069530
O6	O	-0.447022	-0.813201	0.069518
O7	O	-0.451892	-1.041533	0.069543
Zn8	Zn	-0.452077	-0.926341	0.091577
Zn9	Zn	-0.430337	-0.934856	-0.091374
O10	O	-0.752980	-0.924126	0.069531
C11	C	-0.432511	-0.787158	0.000086
C12	C	-0.413828	-0.699930	0.000076
C13	C	-0.449903	-1.074039	0.000115
C14	C	-0.468585	-1.161268	0.000119
N15	N	-0.466913	-0.920535	0.216437
C16	C	-0.059648	-0.932558	0.000098
C17	C	0.177241	-0.928641	0.000097
N18	N	-0.415486	-0.940668	-0.216234
C19	C	-0.594076	-0.651471	0.000077
C20	C	-0.576512	-0.569510	0.000089
C21	C	-0.378698	-0.536010	0.000093
C22	C	-0.198436	-0.584476	0.000095
C23	C	-0.216003	-0.666435	0.000089
C24	C	-0.305891	-0.291692	0.000116
C25	C	-0.288337	-0.209727	0.000119
C26	C	-0.666415	-0.194766	0.000114
C27	C	-0.683964	-0.276728	0.000103
C28	C	-0.503703	-0.325186	0.000109
N29	N	-0.360739	-0.452234	0.000102
N30	N	-0.521664	-0.408961	0.000106
C31	C	-0.338851	-0.970511	0.260136
C32	C	-0.349250	-0.966457	0.347542
C33	C	-0.487723	-0.912431	0.391248
C34	C	-0.615790	-0.862449	0.347543
C35	C	-0.605379	-0.866500	0.260138
C36	C	-0.533141	-0.894737	0.652656
C37	C	-0.543548	-0.890692	0.740067
C38	C	-0.277004	-0.994700	0.740060
C39	C	-0.266614	-0.998749	0.652654
C40	C	-0.394673	-0.948764	0.608956
N41	N	-0.498361	-0.908288	0.480591
N42	N	-0.384023	-0.952904	0.519615
H43	H	-0.723290	-0.530057	0.000088
C44	C	-0.107600	-0.344986	0.000110
C45	C	0.042211	-0.336536	0.072211
C46	C	0.240515	-0.389833	0.072203
C47	C	0.289010	-0.451579	0.000094
C48	C	0.139195	-0.460032	-0.072013
C49	C	-0.059109	-0.406735	-0.072004
H50	H	0.006316	-0.290825	0.125596
H51	H	0.351417	-0.383575	0.125582
H52	H	0.435806	-0.491033	0.000088
H53	H	0.175090	-0.505743	-0.125397
H54	H	-0.170011	-0.412993	-0.125383
C55	C	-0.864692	-0.141461	0.000116
C56	C	-0.896045	-0.086401	-0.071983
C57	C	-1.094332	-0.033095	-0.071976
C58	C	-1.261266	-0.034849	0.000129
C59	C	-1.229918	-0.089911	0.072234
C60	C	-1.031631	-0.143217	0.072227
H61	H	-0.772466	-0.085100	-0.125364
H62	H	-1.117537	0.007666	-0.125353
H63	H	-1.408050	0.004612	0.000134
H64	H	-1.353496	-0.091212	0.125615
H65	H	-1.008426	-0.183978	0.125604
C66	C	-0.017728	-0.719744	0.000087
C67	C	0.132066	-0.711301	0.072194
C68	C	0.330346	-0.764610	0.072196
C69	C	0.378832	-0.826362	0.000091
C70	C	0.229034	-0.834807	-0.072022
C71	C	0.030754	-0.781498	-0.072024
H72	H	0.096177	-0.665587	0.125575
H73	H	0.441236	-0.758358	0.125579
H74	H	0.525610	-0.865824	0.000092
H75	H	0.264922	-0.880522	-0.125404
H76	H	-0.080136	-0.787750	-0.125407
H77	H	-0.226101	-1.014509	0.224557
C78	C	-0.114286	-1.058174	0.604575
C79	C	0.026597	-1.113150	0.652634
C80	C	0.178918	-1.172578	0.604552
C81	C	0.190354	-1.177029	0.508410
C82	C	0.049465	-1.122050	0.460345
C83	C	-0.102855	-1.062623	0.508427
H84	H	0.018136	-1.109857	0.723809
H85	H	0.283212	-1.213276	0.640134
H86	H	0.303110	-1.221020	0.472817
H87	H	0.057926	-1.125343	0.389171
H88	H	-0.207150	-1.021924	0.472846
C89	C	-0.768116	-0.803018	0.395615
C90	C	-0.779691	-0.798597	0.491756
C91	C	-0.932026	-0.739166	0.539825
C92	C	-1.072787	-0.684157	0.491752
C93	C	-1.061217	-0.688576	0.395605
C94	C	-0.908881	-0.748007	0.347536
H95	H	-0.675487	-0.839320	0.527348
H96	H	-0.940591	-0.735895	0.611000
H97	H	-1.185555	-0.640163	0.527335
H98	H	-1.165421	-0.647853	0.360013
H99	H	-0.900317	-0.751278	0.276361
H100	H	-0.037372	-0.557194	0.000111
H101	H	-0.845044	-0.303997	0.000090
H102	H	-0.244971	-1.007151	0.383122
H103	H	-0.127244	-0.182455	0.000122
H104	H	-0.755158	-0.678739	0.000073
H105	H	-0.172742	-1.035394	0.775647
H106	H	-0.656317	-0.846695	0.775648
H107	H	-0.637416	-0.854039	0.617084
H108	H	-0.709658	-0.825803	0.224559
