data_functionalizedCrystal
_audit_creation_method	'MofGen! by Chris Wilmer'
_symmetry_space_group_name_H-M	'P1'
_symmetry_Int_Tables_number	1
_symmetry_cell_setting	triclinic
loop_
_symmetry_equiv_pos_as_xyz
  x,y,z
_cell_length_a	33.428889
_cell_length_b	33.428139
_cell_length_c	33.424847
_cell_angle_alpha	60.004234
_cell_angle_beta	60.008465
_cell_angle_gamma	59.994972
loop_
_atom_site_label
_atom_site_type_symbol
_atom_site_fract_x
_atom_site_fract_y
_atom_site_fract_z
O1	O	0.055565	-0.584504	0.488714
O2	O	0.555565	-0.084504	0.988714
O3	O	0.020982	-0.455083	0.393778
O4	O	0.520982	0.044917	0.893778
O5	O	0.102943	-0.536959	0.393689
O6	O	0.602943	-0.036959	0.893689
O7	O	-0.026396	-0.502628	0.488803
O8	O	0.473604	-0.002628	0.988803
O9	O	0.130140	-0.509767	0.420792
O10	O	0.630140	-0.009767	0.920792
O11	O	0.048179	-0.427891	0.420881
O12	O	0.548179	0.072109	0.920881
O13	O	0.082762	-0.557312	0.515817
O14	O	0.582762	-0.057312	1.015817
Cu15	Cu	0.067954	-0.490119	0.470823
Cu16	Cu	0.567954	0.009881	0.970823
Cu17	Cu	0.035790	-0.522276	0.438771
Cu18	Cu	0.535790	-0.022276	0.938771
O19	O	0.000801	-0.475436	0.515906
O20	O	0.500801	0.024564	1.015906
N21	N	0.090577	-0.467504	0.493370
N22	N	0.590577	0.032496	0.993370
N23	N	0.013171	-0.544895	0.416225
N24	N	0.513171	-0.044895	0.916225
C25	C	0.143377	-0.280390	0.546067
C26	C	0.643377	0.219610	1.046067
C27	C	0.143515	-0.414755	0.680369
C28	C	0.643515	0.085245	1.180369
C29	C	0.143392	-0.414735	0.546069
C30	C	0.643392	0.085265	1.046069
C31	C	0.277766	-0.414702	0.545966
C32	C	0.777766	0.085298	1.045966
C33	C	0.158177	-0.324719	0.560828
C34	C	0.658177	0.175281	1.060828
C35	C	0.158255	-0.399967	0.636038
C36	C	0.658255	0.100033	1.136038
C37	C	0.233434	-0.399936	0.560773
C38	C	0.733434	0.100064	1.060773
C39	C	0.158186	-0.399955	0.560829
C40	C	0.658186	0.100045	1.060829
C41	C	0.124540	-0.223964	0.527278
C42	C	0.624540	0.276036	1.027278
C43	C	0.124565	-0.433545	0.527281
C44	C	0.624565	0.066455	1.027281
C45	C	0.177014	-0.381145	0.579617
C46	C	0.677014	0.118855	1.079617
C47	C	0.359814	-0.400540	0.502735
C48	C	0.859814	0.099460	1.002735
C49	C	0.411105	-0.417624	0.485606
C50	C	0.911105	0.082376	0.985606
C51	C	0.411136	-0.500620	0.517255
C52	C	0.911136	-0.000620	1.017255
C53	C	0.359845	-0.483534	0.534385
C54	C	0.859845	0.016466	1.034385
C55	C	0.136887	-0.198305	0.476855
C56	C	0.636887	0.301695	0.976855
C57	C	0.119761	-0.147011	0.459777
C58	C	0.619761	0.352989	0.959777
C59	C	0.077945	-0.147038	0.543547
C60	C	0.577945	0.352962	1.043547
C61	C	0.095072	-0.198332	0.560625
C62	C	0.595072	0.301668	1.060625
C63	C	0.074134	-0.421169	0.539710
C64	C	0.574134	0.078831	1.039710
C65	C	0.057023	-0.438269	0.522625
C66	C	0.557023	0.061731	1.022625
C67	C	0.140770	-0.480120	0.480694
C68	C	0.640770	0.019880	0.980694
C69	C	0.157883	-0.463020	0.497773
C70	C	0.657883	0.036980	0.997773
C71	C	0.074339	-0.421208	0.762475
C72	C	0.574339	0.078792	1.262475
C73	C	0.057288	-0.438323	0.813768
C74	C	0.557288	0.061677	1.313768
C75	C	0.141075	-0.480183	0.813699
C76	C	0.641075	0.019817	1.313699
C77	C	0.158125	-0.463069	0.762404
C78	C	0.658125	0.036931	1.262404
C79	C	0.124756	-0.433580	0.736794
C80	C	0.624756	0.066420	1.236794
C81	C	0.334186	-0.433494	0.527123
C82	C	0.834186	0.066506	1.027123
C83	C	-0.173769	-0.597444	0.363037
C84	C	0.326231	-0.097444	0.863037
C85	C	-0.039302	-0.597595	0.228856
C86	C	0.460698	-0.097595	0.728856
C87	C	-0.039496	-0.597587	0.363300
C88	C	0.460504	-0.097587	0.863300
C89	C	-0.039512	-0.731889	0.363237
C90	C	0.460488	-0.231889	0.863237
C91	C	-0.129442	-0.612265	0.348329
C92	C	0.370558	-0.112265	0.848329
C93	C	-0.054138	-0.612351	0.273187
C94	C	0.445862	-0.112351	0.773187
C95	C	-0.054257	-0.687554	0.348440
C96	C	0.445743	-0.187554	0.848440
C97	C	-0.054247	-0.612346	0.348477
C98	C	0.445753	-0.112346	0.848477
C99	C	-0.230191	-0.578579	0.381758
C100	C	0.269809	-0.078579	0.881758
C101	C	-0.020722	-0.578803	0.382168
C102	C	0.479278	-0.078803	0.882168
C103	C	-0.073020	-0.631130	0.329609
C104	C	0.426980	-0.131130	0.829609
C105	C	-0.053713	-0.813916	0.406386
C106	C	0.446287	-0.313916	0.906386
C107	C	-0.036654	-0.865210	0.423504
C108	C	0.463346	-0.365210	0.923504
C109	C	0.046338	-0.865293	0.391984
C110	C	0.546338	-0.365293	0.891984
C111	C	0.029278	-0.813999	0.374865
C112	C	0.529278	-0.313999	0.874865
C113	C	-0.255900	-0.590938	0.432169
C114	C	0.244100	-0.090938	0.932169
C115	C	-0.307191	-0.573786	0.449185
C116	C	0.192809	-0.073786	0.949185
C117	C	-0.307060	-0.531922	0.365377
C118	C	0.192940	-0.031922	0.865377
C119	C	-0.255769	-0.549074	0.348360
C120	C	0.244231	-0.049074	0.848360
C121	C	-0.033081	-0.528377	0.369764
C122	C	0.466919	-0.028377	0.869764
C123	C	-0.016014	-0.511306	0.386922
C124	C	0.483986	-0.011306	0.886922
C125	C	0.025770	-0.595083	0.428877
C126	C	0.525770	-0.095083	0.928877
C127	C	0.008703	-0.612156	0.411725
C128	C	0.508703	-0.112156	0.911725
C129	C	-0.032755	-0.528393	0.146761
C130	C	0.467245	-0.028393	0.646761
C131	C	-0.015585	-0.511324	0.095468
C132	C	0.484415	-0.011324	0.595468
C133	C	0.026262	-0.595106	0.095516
C134	C	0.526262	-0.095106	0.595516
C135	C	0.009094	-0.612174	0.146811
C136	C	0.509094	-0.112174	0.646811
C137	C	-0.020417	-0.578816	0.172432
C138	C	0.479583	-0.078816	0.672432
C139	C	-0.020748	-0.788312	0.382068
C140	C	0.479252	-0.288312	0.882068
N141	N	0.436037	-0.467415	0.493101
N142	N	0.936037	0.032585	0.993101
O143	O	0.592642	-0.471896	0.376066
O144	O	1.092642	0.028104	0.876066
O145	O	0.592838	-0.567146	0.505347
O146	O	1.092838	-0.067146	1.005347
O147	O	0.592754	-0.566928	0.423360
O148	O	1.092754	-0.066928	0.923360
O149	O	0.592727	-0.472113	0.458053
O150	O	1.092727	0.027887	0.958053
O151	O	0.511269	-0.539835	0.450606
O152	O	1.011269	-0.039835	0.950606
O153	O	0.511353	-0.540052	0.532594
O154	O	1.011353	-0.040052	1.032594
O155	O	0.511157	-0.444802	0.403312
O156	O	1.011157	0.055198	0.903312
Cu157	Cu	0.503815	-0.489954	0.470441
Cu158	Cu	1.003815	0.010046	0.970441
Cu159	Cu	0.600180	-0.521995	0.438219
Cu160	Cu	1.100180	-0.021995	0.938219
O161	O	0.511242	-0.445020	0.485300
O162	O	1.011242	0.054980	0.985300
N163	N	0.667959	-0.544533	0.415554
N164	N	1.167959	-0.044533	0.915554
N165	N	0.090544	-0.122107	0.493359
N166	N	0.590544	0.377893	0.993359
O167	O	-0.026406	0.034587	0.488773
O168	O	0.473594	0.534587	0.988773
O169	O	0.102877	0.034627	0.393499
O170	O	0.602877	0.534627	0.893499
O171	O	0.020848	0.034591	0.393771
O172	O	0.520848	0.534591	0.893771
O173	O	0.055623	0.034623	0.488500
O174	O	0.555623	0.534623	0.988500
O175	O	0.048051	-0.046899	0.420925
O176	O	0.548051	0.453101	0.920925
O177	O	0.130080	-0.046864	0.420653
O178	O	0.630080	0.453136	0.920653
O179	O	0.000796	-0.046903	0.515927
O180	O	0.500796	0.453097	1.015927
Cu181	Cu	0.067922	-0.054324	0.470769
Cu182	Cu	0.567922	0.445676	0.970769
Cu183	Cu	0.035752	0.042048	0.438656
Cu184	Cu	0.535752	0.542048	0.938656
O185	O	0.082825	-0.046867	0.515655
O186	O	0.582825	0.453133	1.015655
N187	N	0.013123	0.109830	0.416068
N188	N	0.513123	0.609830	0.916068
N189	N	0.090892	-0.467554	0.838649
N190	N	0.590892	0.032446	1.338649
O191	O	0.086330	-0.584488	0.995334
O192	O	0.586330	-0.084488	1.495334
O193	O	-0.008902	-0.455160	0.995379
O194	O	0.491098	0.044840	1.495379
O195	O	-0.008679	-0.537172	0.995355
O196	O	0.491321	-0.037172	1.495355
O197	O	0.086107	-0.502475	0.995358
O198	O	0.586107	-0.002475	1.495358
O199	O	0.018452	-0.509990	0.913868
O200	O	0.518452	-0.009990	1.413868
O201	O	0.018230	-0.427978	0.913891
O202	O	0.518230	0.072022	1.413891
O203	O	0.113461	-0.557306	0.913847
O204	O	0.613461	-0.057306	1.413847
Cu205	Cu	0.068323	-0.490160	0.906429
Cu206	Cu	0.568323	0.009840	1.406429
Cu207	Cu	0.036237	-0.522306	1.002797
Cu208	Cu	0.536237	-0.022306	1.502797
O209	O	0.113239	-0.475293	0.913870
O210	O	0.613239	0.024707	1.413870
N211	N	0.013667	-0.544916	1.070577
N212	N	0.513667	-0.044916	1.570577
C213	C	0.031339	-0.425179	0.394250
C214	C	0.531339	0.074821	0.894250
C215	C	0.132837	-0.526572	0.394139
C216	C	0.632837	-0.026572	0.894139
C217	C	0.072405	-0.587216	0.515344
C218	C	0.572405	-0.087216	1.015344
C219	C	-0.029093	-0.485823	0.515455
C220	C	0.470907	0.014177	1.015455
C221	C	0.552119	-0.566716	0.535258
C222	C	1.052119	-0.066716	1.035258
C223	C	0.552016	-0.566447	0.433726
C224	C	1.052016	-0.066447	0.933726
C225	C	0.551873	-0.445232	0.373402
C226	C	1.051873	0.054768	0.873402
C227	C	0.551980	-0.445502	0.474933
C228	C	1.051980	0.054498	0.974933
C229	C	0.132731	-0.006013	0.393923
C230	C	0.632731	0.493987	0.893923
C231	C	0.031182	-0.006158	0.394293
C232	C	0.531182	0.493842	0.894293
C233	C	-0.029092	-0.006163	0.515469
C234	C	0.470908	0.493837	1.015469
C235	C	0.072491	-0.006119	0.515133
C236	C	0.572491	0.493881	1.015133
C237	C	-0.008451	-0.425276	0.954641
C238	C	0.491549	0.074724	1.454641
C239	C	-0.008170	-0.526833	0.954596
C240	C	0.491830	-0.026833	1.454596
C241	C	0.113010	-0.587190	0.954585
C242	C	0.613010	-0.087190	1.454585
C243	C	0.112735	-0.485627	0.954611
C244	C	0.612735	0.014373	1.454611
H245	H	0.047163	-0.397193	0.741627
H246	H	0.547163	0.102807	1.241627
H247	H	0.169984	-0.533889	0.364272
H248	H	0.669984	-0.033889	0.864272
H249	H	0.551811	-0.415327	0.336274
H250	H	1.051811	0.084673	0.836274
C251	C	0.551966	-0.405261	0.484957
C252	C	1.051966	0.094739	0.984957
C253	C	0.552025	-0.415293	0.535191
C254	C	1.052025	0.084707	1.035191
C255	C	0.552012	-0.375053	0.545215
C256	C	1.052012	0.124947	1.045215
C257	C	0.551938	-0.324780	0.505004
C258	C	1.051938	0.175220	1.005004
C259	C	0.551879	-0.314745	0.454767
C260	C	1.051879	0.185255	0.954767
C261	C	0.551893	-0.354986	0.444743
C262	C	1.051893	0.145014	0.944743
H263	H	0.552080	-0.452511	0.564960
H264	H	1.052080	0.047489	1.064960
H265	H	0.552056	-0.382481	0.582404
H266	H	1.052056	0.117519	1.082404
H267	H	0.551928	-0.294991	0.512425
H268	H	1.051928	0.205009	1.012425
H269	H	0.551825	-0.277528	0.424998
H270	H	1.051825	0.222472	0.924998
H271	H	0.551848	-0.347557	0.407554
H272	H	1.051848	0.152443	0.907554
H273	H	0.023733	-0.006162	0.364531
H274	H	0.523733	0.493838	0.864531
H275	H	-0.066242	-0.478508	0.545321
H276	H	0.433758	0.021492	1.045321
C277	C	0.182783	-0.005689	0.353412
C278	C	0.682783	0.494311	0.853412
C279	C	0.223127	-0.005515	0.363119
C280	C	0.723127	0.494485	0.863119
C281	C	0.273180	-0.005190	0.322609
C282	C	0.773180	0.494810	0.822609
C283	C	0.282888	-0.005040	0.272391
C284	C	0.782888	0.494960	0.772391
C285	C	0.242542	-0.005215	0.262682
C286	C	0.742542	0.494785	0.762682
C287	C	0.192490	-0.005539	0.303193
C288	C	0.692490	0.494461	0.803193
H289	H	0.215942	-0.005626	0.400296
H290	H	0.715942	0.494374	0.900296
H291	H	0.303046	-0.005061	0.329797
H292	H	0.803046	0.494939	0.829797
H293	H	0.319939	-0.004800	0.242403
H294	H	0.819939	0.495200	0.742403
H295	H	0.249728	-0.005103	0.225506
H296	H	0.749728	0.494897	0.725506
H297	H	0.162624	-0.005668	0.296005
H298	H	0.662624	0.494332	0.796005
H299	H	0.552170	-0.596617	0.572390
H300	H	1.052170	-0.096617	1.072390
H301	H	0.552029	-0.596233	0.426301
H302	H	1.052029	-0.096233	0.926301
C303	C	0.152967	-0.475599	0.954604
C304	C	0.652967	0.024401	1.454604
C305	C	0.142936	-0.425348	0.954616
C306	C	0.642936	0.074652	1.454616
C307	C	0.183168	-0.415320	0.954608
C308	C	0.683168	0.084680	1.454608
C309	C	0.233432	-0.455545	0.954589
C310	C	0.733432	0.044455	1.454589
C311	C	0.243465	-0.505800	0.954578
C312	C	0.743465	-0.005800	1.454578
C313	C	0.203233	-0.515827	0.954585
C314	C	0.703233	-0.015827	1.454585
H315	H	0.105726	-0.395568	0.954630
H316	H	0.605726	0.104432	1.454630
H317	H	0.175741	-0.378118	0.954617
H318	H	0.675741	0.121882	1.454617
H319	H	0.263214	-0.448122	0.954584
H320	H	0.763214	0.051878	1.454584
H321	H	0.280675	-0.535580	0.954564
H322	H	0.780675	-0.035580	1.454564
H323	H	0.210661	-0.553030	0.954577
H324	H	0.710661	-0.053030	1.454577
H325	H	0.023949	-0.388000	0.364433
H326	H	0.523949	0.112000	0.864433
C327	C	0.082383	-0.637441	0.555629
C328	C	0.582383	-0.137441	1.055629
C329	C	0.050630	-0.669086	0.576747
C330	C	0.550630	-0.169086	1.076747
C331	C	0.060608	-0.719310	0.617031
C332	C	0.560608	-0.219310	1.117031
C333	C	0.102340	-0.737889	0.636197
C334	C	0.602340	-0.237889	1.136197
C335	C	0.134096	-0.706243	0.615079
C336	C	0.634096	-0.206243	1.115079
C337	C	0.124118	-0.656019	0.574795
C338	C	0.624118	-0.156019	1.074795
H339	H	0.019735	-0.655333	0.562559
H340	H	0.519735	-0.155333	1.062559
H341	H	0.037100	-0.742736	0.632664
H342	H	0.537100	-0.242736	1.132664
H343	H	0.109726	-0.775068	0.666018
H344	H	0.609726	-0.275068	1.166018
H345	H	0.164991	-0.719996	0.629267
H346	H	0.664991	-0.219996	1.129267
H347	H	0.147626	-0.632593	0.559162
H348	H	0.647626	-0.132593	1.059162
H349	H	-0.066220	-0.006175	0.545378
H350	H	0.433780	0.493825	1.045378
H351	H	-0.038348	-0.388133	0.954654
H352	H	0.461652	0.111867	1.454654
C353	C	0.001827	-0.424702	0.842013
C354	C	0.501827	0.075298	1.342013
C355	C	-0.034874	-0.392261	0.813838
C356	C	0.465126	0.107739	1.313838
C357	C	-0.090335	-0.378643	0.842083
C358	C	0.409665	0.121357	1.342083
C359	C	-0.109096	-0.397465	0.898502
C360	C	0.390904	0.102535	1.398502
C361	C	-0.072395	-0.429908	0.926680
C362	C	0.427605	0.070092	1.426680
C363	C	-0.016933	-0.443527	0.898436
C364	C	0.483067	0.056473	1.398436
H365	H	-0.020986	-0.378326	0.772070
H366	H	0.479014	0.121674	1.272070
H367	H	-0.117504	-0.354627	0.821223
H368	H	0.382496	0.145373	1.321223
H369	H	-0.150152	-0.387384	0.919411
H370	H	0.349848	0.112616	1.419411
H371	H	-0.086282	-0.443843	0.968448
H372	H	0.413718	0.056157	1.468448
H373	H	0.010235	-0.467543	0.919295
H374	H	0.510235	0.032457	1.419295
C375	C	0.082549	-0.006111	0.555342
C376	C	0.582549	0.493889	1.055342
C377	C	0.132803	-0.006092	0.545284
C378	C	0.632803	0.493908	1.045284
C379	C	0.142860	-0.006084	0.585493
C380	C	0.642860	0.493916	1.085493
C381	C	0.102664	-0.006094	0.635761
C382	C	0.602664	0.493906	1.135761
C383	C	0.052407	-0.006113	0.645822
C384	C	0.552407	0.493887	1.145822
C385	C	0.042349	-0.006121	0.605612
C386	C	0.542349	0.493879	1.105612
H387	H	0.162561	-0.006085	0.508070
H388	H	0.662561	0.493915	1.008070
H389	H	0.180064	-0.006070	0.578045
H390	H	0.680064	0.493930	1.078045
H391	H	0.110110	-0.006088	0.665527
H392	H	0.610110	0.493912	1.165527
H393	H	0.022648	-0.006120	0.683035
H394	H	0.522648	0.493880	1.183035
H395	H	0.005145	-0.006135	0.613060
H396	H	0.505145	0.493865	1.113060
C397	C	0.153403	-0.637365	0.954567
C398	C	0.653403	-0.137365	1.454567
C399	C	0.174503	-0.668922	0.996873
C400	C	0.674503	-0.168922	1.496873
C401	C	0.214896	-0.719098	0.996856
C402	C	0.714896	-0.219098	1.496856
C403	C	0.234190	-0.737717	0.954532
C404	C	0.734190	-0.237717	1.454532
C405	C	0.213090	-0.706160	0.912222
C406	C	0.713090	-0.206160	1.412222
C407	C	0.172697	-0.655984	0.912240
C408	C	0.672697	-0.155984	1.412240
H409	H	0.160221	-0.655139	1.028207
H410	H	0.660221	-0.155139	1.528207
H411	H	0.230516	-0.742458	1.028176
H412	H	0.730516	-0.242458	1.528176
H413	H	0.264091	-0.774860	0.954519
H414	H	0.764091	-0.274860	1.454519
H415	H	0.227372	-0.719943	0.880889
H416	H	0.727372	-0.219943	1.380889
H417	H	0.157077	-0.632624	0.880920
H418	H	0.657077	-0.132624	1.380920
C419	C	-0.048383	-0.536842	0.954548
C420	C	0.451617	-0.036842	1.454548
C421	C	-0.067531	-0.578586	0.996830
C422	C	0.432469	-0.078586	1.496830
C423	C	-0.107745	-0.588595	0.996782
C424	C	0.392255	-0.088595	1.496782
C425	C	-0.128810	-0.556859	0.954451
C426	C	0.371190	-0.056859	1.454451
C427	C	-0.109663	-0.515111	0.912166
C428	C	0.390337	-0.015111	1.412166
C429	C	-0.069449	-0.505103	0.912214
C430	C	0.430551	-0.005103	1.412214
H431	H	-0.051937	-0.602082	1.028169
H432	H	0.448063	-0.102082	1.528169
H433	H	-0.121919	-0.619499	1.028084
H434	H	0.378081	-0.119499	1.528084
H435	H	-0.158579	-0.564268	0.954415
H436	H	0.341421	-0.064268	1.454415
H437	H	-0.125257	-0.491616	0.880827
H438	H	0.374743	0.008384	1.380827
H439	H	-0.055275	-0.474198	0.880911
H440	H	0.444725	0.025802	1.380911
C441	C	0.177781	-0.512612	0.841873
C442	C	0.677781	-0.012612	1.341873
C443	C	0.214679	-0.492970	0.834793
C444	C	0.714679	0.007030	1.334793
C445	C	0.251383	-0.525402	0.862968
C446	C	0.751383	-0.025402	1.362968
C447	C	0.251188	-0.577475	0.898222
C448	C	0.751188	-0.077475	1.398222
C449	C	0.214289	-0.597120	0.905303
C450	C	0.714289	-0.097120	1.405303
C451	C	0.177585	-0.564688	0.877128
C452	C	0.677585	-0.064688	1.377128
H453	H	0.214824	-0.454420	0.808694
H454	H	0.714824	0.045580	1.308694
H455	H	0.278699	-0.510860	0.857725
H456	H	0.778699	-0.010860	1.357725
H457	H	0.278359	-0.601483	0.919078
H458	H	0.778359	-0.101483	1.419078
H459	H	0.214143	-0.635670	0.931401
H460	H	0.714143	-0.135670	1.431401
H461	H	0.150269	-0.579230	0.882370
H462	H	0.650269	-0.079230	1.382370
C463	C	0.213587	-0.476679	0.734157
C464	C	0.713587	0.023321	1.234157
C465	C	0.245797	-0.461743	0.741181
C466	C	0.745797	0.038257	1.241181
C467	C	0.301258	-0.475352	0.712935
C468	C	0.801258	0.024648	1.212935
C469	C	0.324510	-0.503896	0.677664
C470	C	0.824510	-0.003896	1.177664
C471	C	0.292300	-0.518834	0.670637
C472	C	0.792300	-0.018834	1.170637
C473	C	0.236839	-0.505225	0.698884
C474	C	0.736839	-0.005225	1.198884
H475	H	0.228585	-0.440612	0.767292
H476	H	0.728585	0.059388	1.267292
H477	H	0.325102	-0.464294	0.718136
H478	H	0.825102	0.035706	1.218136
H479	H	0.365566	-0.513970	0.656754
H480	H	0.865566	-0.013970	1.156754
H481	H	0.309512	-0.539965	0.644526
H482	H	0.809512	-0.039965	1.144526
H483	H	0.212995	-0.516283	0.693682
H484	H	0.712995	-0.016283	1.193682
C485	C	0.037483	-0.388742	0.572162
C486	C	0.537483	0.111258	1.072162
C487	C	0.000614	-0.408383	0.621648
C488	C	0.500614	0.091617	1.121648
C489	C	-0.036039	-0.375954	0.654102
C490	C	0.463961	0.124046	1.154102
C491	C	-0.035823	-0.323885	0.637069
C492	C	0.464177	0.176115	1.137069
C493	C	0.001047	-0.304242	0.587580
C494	C	0.501047	0.195758	1.087580
C495	C	0.037700	-0.336670	0.555127
C496	C	0.537700	0.163330	1.055127
H497	H	0.000453	-0.446930	0.634259
H498	H	0.500453	0.053070	1.134259
H499	H	-0.063333	-0.390496	0.690736
H500	H	0.436667	0.109504	1.190736
H501	H	-0.062956	-0.299880	0.661093
H502	H	0.437044	0.200120	1.161093
H503	H	0.001208	-0.265695	0.574969
H504	H	0.501208	0.234305	1.074969
H505	H	0.064994	-0.322129	0.518492
H506	H	0.564994	0.177871	1.018492
C507	C	0.001550	-0.424658	0.536288
C508	C	0.501550	0.075342	1.036288
C509	C	-0.021694	-0.465218	0.564841
C510	C	0.478306	0.034782	1.064841
C511	C	-0.077167	-0.451605	0.578500
C512	C	0.422833	0.048395	1.078500
C513	C	-0.109395	-0.397433	0.563606
C514	C	0.390605	0.102567	1.063606
C515	C	-0.086152	-0.356869	0.535052
C516	C	0.413848	0.143131	1.035052
C517	C	-0.030679	-0.370482	0.521392
C518	C	0.469321	0.129518	1.021392
H519	H	0.002163	-0.505323	0.575867
H520	H	0.502163	-0.005323	1.075867
H521	H	-0.094373	-0.481633	0.599638
H522	H	0.405627	0.018367	1.099638
H523	H	-0.150459	-0.387356	0.573718
H524	H	0.349541	0.112644	1.073718
H525	H	-0.110009	-0.316764	0.524025
H526	H	0.389991	0.183236	1.024025
H527	H	-0.013473	-0.340454	0.500254
H528	H	0.486527	0.159546	1.000254
C529	C	0.177423	-0.512547	0.448238
C530	C	0.677423	-0.012547	0.948238
C531	C	0.214355	-0.562018	0.467831
C532	C	0.714355	-0.062018	0.967831
C533	C	0.251006	-0.594443	0.435375
C534	C	0.751006	-0.094443	0.935375
C535	C	0.250724	-0.577398	0.383325
C536	C	0.750724	-0.077398	0.883325
C537	C	0.213790	-0.527925	0.363728
C538	C	0.713790	-0.027925	0.863728
C539	C	0.177140	-0.495499	0.396185
C540	C	0.677140	0.004501	0.896185
H541	H	0.214565	-0.574638	0.506365
H542	H	0.714565	-0.074638	1.006365
H543	H	0.278347	-0.631066	0.449882
H544	H	0.778347	-0.131066	0.949882
H545	H	0.277855	-0.601401	0.359298
H546	H	0.777855	-0.101401	0.859298
H547	H	0.213580	-0.515305	0.325195
H548	H	0.713580	-0.015305	0.825195
H549	H	0.149799	-0.458876	0.381678
H550	H	0.649799	0.041124	0.881678
H551	H	0.338981	-0.510371	0.554246
H552	H	0.838981	-0.010371	1.054246
C553	C	0.213355	-0.476620	0.484105
C554	C	0.713355	0.023380	0.984105
C555	C	0.245597	-0.530787	0.498997
C556	C	0.745597	-0.030787	0.998997
C557	C	0.301068	-0.544383	0.485330
C558	C	0.801068	-0.044383	0.985330
C559	C	0.324297	-0.503811	0.456772
C560	C	0.824297	-0.003811	0.956772
C561	C	0.292055	-0.449640	0.441878
C562	C	0.792055	0.050360	0.941878
C563	C	0.236584	-0.436044	0.455545
C564	C	0.736584	0.063956	0.955545
H565	H	0.228402	-0.560825	0.520139
H566	H	0.728402	-0.060825	1.020139
H567	H	0.324935	-0.584484	0.496356
H568	H	0.824935	-0.084484	0.996356
H569	H	0.365359	-0.513875	0.446655
H570	H	0.865359	-0.013875	0.946655
H571	H	0.309250	-0.419603	0.420736
H572	H	0.809250	0.080397	0.920736
H573	H	0.212716	-0.395943	0.444520
H574	H	0.712716	0.104057	0.944520
C575	C	0.439362	-0.555664	0.525241
C576	C	0.939362	-0.055664	1.025241
C577	C	0.432358	-0.592968	0.577577
C578	C	0.932358	-0.092968	1.077577
C579	C	0.460586	-0.648013	0.585562
C580	C	0.960586	-0.148013	1.085562
C581	C	0.495819	-0.665754	0.541211
C582	C	0.995819	-0.165754	1.041211
C583	C	0.502825	-0.628449	0.488871
C584	C	1.002825	-0.128449	0.988871
C585	C	0.474596	-0.573404	0.480886
C586	C	0.974596	-0.073404	0.980886
H587	H	0.406275	-0.579836	0.610412
H588	H	0.906275	-0.079836	1.110412
H589	H	0.455400	-0.675628	0.624308
H590	H	0.955400	-0.175628	1.124308
H591	H	0.516715	-0.706501	0.547122
H592	H	1.016715	-0.206501	1.047122
H593	H	0.528907	-0.641581	0.456037
H594	H	1.028907	-0.141581	0.956037
H595	H	0.479782	-0.545789	0.442140
H596	H	0.979782	-0.045789	0.942140
C597	C	0.439300	-0.381375	0.458774
C598	C	0.939300	0.118625	0.958774
C599	C	0.411078	-0.326331	0.450782
C600	C	0.911078	0.173669	0.950782
C601	C	0.439275	-0.290082	0.423946
C602	C	0.939275	0.209918	0.923946
C603	C	0.495693	-0.308877	0.405103
C604	C	0.995693	0.191123	0.905103
C605	C	0.523918	-0.363924	0.413094
C606	C	1.023918	0.136076	0.913094
C607	C	0.495722	-0.400173	0.439930
C608	C	0.995722	0.099827	0.939930
H609	H	0.369312	-0.312415	0.464731
H610	H	0.869312	0.187585	0.964731
H611	H	0.418380	-0.249333	0.418031
H612	H	0.918380	0.250667	0.918031
H613	H	0.516565	-0.282044	0.385237
H614	H	1.016565	0.217956	0.885237
H615	H	0.565685	-0.377840	0.399145
H616	H	1.065685	0.122160	0.899145
H617	H	0.516616	-0.440922	0.445845
H618	H	1.016616	0.059078	0.945845
H619	H	0.160882	-0.219171	0.449698
H620	H	0.660882	0.280829	0.949698
C621	C	0.331587	-0.345494	0.494749
C622	C	0.831587	0.154506	0.994749
C623	C	0.338597	-0.308192	0.442411
C624	C	0.838597	0.191808	0.942411
C625	C	0.310372	-0.253146	0.434423
C626	C	0.810372	0.246854	0.934423
C627	C	0.275136	-0.235403	0.478773
C628	C	0.775136	0.264597	0.978773
C629	C	0.268125	-0.272705	0.531113
C630	C	0.768125	0.227295	1.031113
C631	C	0.296350	-0.327751	0.539101
C632	C	0.796350	0.172249	1.039101
H633	H	0.364681	-0.321326	0.409578
H634	H	0.864681	0.178674	0.909578
H635	H	0.315562	-0.225532	0.395677
H636	H	0.815562	0.274468	0.895677
H637	H	0.254242	-0.194654	0.472859
H638	H	0.754242	0.305346	0.972859
H639	H	0.242040	-0.259571	0.563947
H640	H	0.742040	0.240429	1.063947
H641	H	0.291159	-0.355365	0.577848
H642	H	0.791159	0.144635	1.077848
H643	H	0.129813	-0.126117	0.418717
H644	H	0.629813	0.373883	0.918717
H645	H	0.085016	-0.219221	0.601683
H646	H	0.585016	0.280779	1.101683
C647	C	0.045533	-0.118840	0.580228
C648	C	0.545533	0.381160	1.080228
C649	C	0.031959	-0.147066	0.635694
C650	C	0.531959	0.352934	1.135694
C651	C	-0.000455	-0.118870	0.672376
C652	C	0.499545	0.381130	1.172376
C653	C	-0.019295	-0.062448	0.653592
C654	C	0.480705	0.437552	1.153592
C655	C	-0.005721	-0.034219	0.598123
C656	C	0.494279	0.465781	1.098123
C657	C	0.026693	-0.062415	0.561441
C658	C	0.526693	0.437585	1.061441
H659	H	0.045906	-0.188836	0.649602
H660	H	0.545906	0.311164	1.149602
H661	H	-0.010503	-0.139767	0.713438
H662	H	0.489497	0.360233	1.213438
H663	H	-0.043289	-0.041576	0.680746
H664	H	0.456711	0.458424	1.180746
H665	H	-0.019667	0.007550	0.584216
H666	H	0.480333	0.507550	1.084216
H667	H	0.036741	-0.041518	0.520380
H668	H	0.536741	0.458482	1.020380
H669	H	-0.025639	-0.470264	0.074572
H670	H	0.474361	0.029736	0.574572
C671	C	-0.065218	-0.491697	0.174942
C672	C	0.434782	0.008303	0.674942
C673	C	-0.078791	-0.436232	0.146704
C674	C	0.421209	0.063768	0.646704
C675	C	-0.111251	-0.399537	0.174885
C676	C	0.388749	0.100463	0.674885
C677	C	-0.130139	-0.418307	0.231304
C678	C	0.369861	0.081693	0.731304
C679	C	-0.116567	-0.473774	0.259546
C680	C	0.383433	0.026226	0.759546
C681	C	-0.084106	-0.510470	0.231365
C682	C	0.415894	-0.010470	0.731365
H683	H	-0.064809	-0.422335	0.104936
H684	H	0.435191	0.077665	0.604936
H685	H	-0.121298	-0.358476	0.153978
H686	H	0.378702	0.141524	0.653978
H687	H	-0.154168	-0.391143	0.252166
H688	H	0.345832	0.108857	0.752166
H689	H	-0.130549	-0.487671	0.301314
H690	H	0.369451	0.012329	0.801314
H691	H	-0.074059	-0.551531	0.252271
H692	H	0.425941	-0.051531	0.752271
H693	H	0.050281	-0.622271	0.074658
H694	H	0.550281	-0.122271	0.574658
H695	H	-0.057039	-0.501216	0.345698
H696	H	0.442961	-0.001216	0.845698
C697	C	0.022666	-0.667644	0.175047
C698	C	0.522666	-0.167644	0.675047
C699	C	0.076820	-0.699896	0.168082
C700	C	0.576820	-0.199896	0.668082
C701	C	0.090391	-0.755364	0.196317
C702	C	0.590391	-0.255364	0.696317
C703	C	0.049808	-0.778581	0.231518
C704	C	0.549808	-0.278581	0.731518
C705	C	-0.004350	-0.746328	0.238485
C706	C	0.495650	-0.246328	0.738485
C707	C	-0.017921	-0.690860	0.210249
C708	C	0.482079	-0.190860	0.710249
H709	H	0.106866	-0.682710	0.142023
H710	H	0.606866	-0.182710	0.642023
H711	H	0.130483	-0.779239	0.191160
H712	H	0.630483	-0.279239	0.691160
H713	H	0.059854	-0.819642	0.252419
H714	H	0.559854	-0.319642	0.752419
H715	H	-0.034396	-0.763514	0.264543
H716	H	0.465604	-0.263514	0.764543
H717	H	-0.058013	-0.666985	0.215407
H718	H	0.441987	-0.166985	0.715407
C719	C	-0.029606	-0.455838	0.373284
C720	C	0.470394	0.044162	0.873284
C721	C	0.010967	-0.432622	0.344809
C722	C	0.510967	0.067378	0.844809
C723	C	-0.002625	-0.377154	0.331174
C724	C	0.497375	0.122846	0.831174
C725	C	-0.056792	-0.344903	0.346014
C726	C	0.443208	0.155097	0.846014
C727	C	-0.097369	-0.368118	0.374491
C728	C	0.402631	0.131882	0.874491
C729	C	-0.083776	-0.423585	0.388127
C730	C	0.416224	0.076415	0.888127
H731	H	0.051067	-0.456497	0.333821
H732	H	0.551067	0.043503	0.833821
H733	H	0.027413	-0.359969	0.310093
H734	H	0.527413	0.140031	0.810093
H735	H	-0.066854	-0.303842	0.335921
H736	H	0.433146	0.196158	0.835921
H737	H	-0.137469	-0.344243	0.385479
H738	H	0.362531	0.155757	0.885479
H739	H	-0.113814	-0.440771	0.409207
H740	H	0.386186	0.059229	0.909207
C741	C	0.058142	-0.631775	0.461387
C742	C	0.558142	-0.131775	0.961387
C743	C	0.110206	-0.631596	0.444440
C744	C	0.610206	-0.131596	0.944440
C745	C	0.142576	-0.668286	0.476950
C746	C	0.642576	-0.168286	0.976950
C747	C	0.122883	-0.705154	0.526407
C748	C	0.622883	-0.205154	1.026407
C749	C	0.070817	-0.705334	0.543356
C750	C	0.570817	-0.205334	1.043356
C751	C	0.038446	-0.668645	0.510846
C752	C	0.538446	-0.168645	1.010846
H753	H	0.124786	-0.604303	0.407827
H754	H	0.624786	-0.104303	0.907827
H755	H	0.181119	-0.668152	0.464403
H756	H	0.681119	-0.168152	0.964403
H757	H	0.146845	-0.732313	0.550473
H758	H	0.646845	-0.232313	1.050473
H759	H	0.056236	-0.732627	0.579970
H760	H	0.556236	-0.232627	1.079970
H761	H	-0.000097	-0.668778	0.523394
H762	H	0.499903	-0.168778	1.023394
H763	H	0.018765	-0.653217	0.421828
H764	H	0.518765	-0.153217	0.921828
H765	H	0.056124	-0.793157	0.355062
H766	H	0.556124	-0.293157	0.855062
H767	H	0.087072	-0.886205	0.386121
H768	H	0.587072	-0.386205	0.886121
H769	H	-0.094449	-0.793002	0.412253
H770	H	0.405551	-0.293002	0.912253
C771	C	-0.072917	-0.893377	0.450258
C772	C	0.427083	-0.393377	0.950258
C773	C	-0.114954	-0.886281	0.497862
C774	C	0.385046	-0.386281	0.997862
C775	C	-0.151218	-0.914447	0.524621
C776	C	0.348782	-0.414447	1.024621
C777	C	-0.145445	-0.949708	0.503775
C778	C	0.354555	-0.449708	1.003775
C779	C	-0.103406	-0.956806	0.456168
C780	C	0.396594	-0.456806	0.956168
C781	C	-0.067142	-0.928640	0.429409
C782	C	0.432858	-0.428640	0.929409
H783	H	-0.119229	-0.860177	0.513296
H784	H	0.380771	-0.360177	1.013296
H785	H	-0.182338	-0.909193	0.559863
H786	H	0.317662	-0.409193	1.059863
H787	H	-0.172289	-0.970559	0.523583
H788	H	0.327711	-0.470559	1.023583
H789	H	-0.099131	-0.982910	0.440734
H790	H	0.400869	-0.482910	0.940734
H791	H	-0.036022	-0.933894	0.394167
H792	H	0.463978	-0.433894	0.894167
H793	H	-0.235077	-0.614964	0.459366
H794	H	0.264923	-0.114964	0.959366
H795	H	-0.327887	-0.507903	0.338181
H796	H	0.172113	-0.007903	0.838181
C797	C	-0.335479	-0.587374	0.504639
C798	C	0.164521	-0.087374	1.004639
C799	C	-0.370750	-0.546797	0.527872
C800	C	0.129250	-0.046797	1.027872
C801	C	-0.399038	-0.560383	0.583326
C802	C	0.100962	-0.060383	1.083326
C803	C	-0.392055	-0.614545	0.615546
C804	C	0.107945	-0.114545	1.115546
C805	C	-0.356783	-0.655125	0.592313
C806	C	0.143217	-0.155125	1.092313
C807	C	-0.328495	-0.641540	0.536859
C808	C	0.171505	-0.141540	1.036859
H809	H	-0.375920	-0.506700	0.504020
H810	H	0.124080	-0.006700	1.004020
H811	H	-0.425149	-0.530342	0.600524
H812	H	0.074851	-0.030342	1.100524
H813	H	-0.412996	-0.624601	0.656596
H814	H	0.087004	-0.124601	1.156596
H815	H	-0.351613	-0.695222	0.616165
H816	H	0.148387	-0.195222	1.116165
H817	H	-0.302384	-0.671581	0.519661
H818	H	0.197616	-0.171581	1.019661
C819	C	-0.227490	-0.535480	0.292907
C820	C	0.272510	-0.035480	0.792907
C821	C	-0.255628	-0.503024	0.256174
C822	C	0.244372	-0.003024	0.756174
C823	C	-0.227348	-0.489428	0.200718
C824	C	0.272652	0.010572	0.700718
C825	C	-0.170930	-0.508290	0.181996
C826	C	0.329070	-0.008290	0.681996
C827	C	-0.142789	-0.540748	0.218730
C828	C	0.357211	-0.040748	0.718730
C829	C	-0.171069	-0.554344	0.274186
C830	C	0.328931	-0.054344	0.774186
H831	H	-0.297395	-0.489059	0.270032
H832	H	0.202605	0.010941	0.770032
H833	H	-0.248180	-0.465400	0.173525
H834	H	0.251820	0.034600	0.673525
H835	H	-0.149996	-0.498226	0.140945
H836	H	0.350004	0.001774	0.640945
H837	H	-0.101022	-0.554713	0.204872
H838	H	0.398978	-0.054713	0.704872
H839	H	-0.150237	-0.578372	0.301379
H840	H	0.349763	-0.078372	0.801379
