data_functionalizedCrystal
_audit_creation_method	'MofGen! by Chris Wilmer'
_symmetry_space_group_name_H-M	'P1'
_symmetry_Int_Tables_number	1
_symmetry_cell_setting	triclinic
loop_
_symmetry_equiv_pos_as_xyz
  x,y,z
_cell_length_a	42.795305
_cell_length_b	42.779661
_cell_length_c	42.784841
_cell_angle_alpha	119.998300
_cell_angle_beta	89.997995
_cell_angle_gamma	120.011937
loop_
_atom_site_label
_atom_site_type_symbol
_atom_site_fract_x
_atom_site_fract_y
_atom_site_fract_z
O1	O	0.266397	0.275761	0.490106
O2	O	0.220942	0.211742	0.380652
O3	O	0.220956	0.275759	0.444653
O4	O	0.266383	0.211744	0.426106
O5	O	0.168972	0.223763	0.444653
O6	O	0.168958	0.159746	0.380652
O7	O	0.214413	0.223764	0.490106
Cu8	Cu	0.186939	0.187007	0.435379
Cu9	Cu	0.248416	0.248499	0.435379
O10	O	0.214399	0.159747	0.426106
C11	C	0.079221	0.440849	0.463530
C12	C	0.098109	0.422126	0.463795
C13	C	0.022623	0.384236	0.463530
C14	C	0.041597	0.365599	0.463795
C15	C	0.079208	0.384237	0.463530
C16	C	0.041610	0.422125	0.463795
C17	C	0.113802	0.567118	0.453283
C18	C	0.131621	0.602882	0.450386
C19	C	0.168891	0.620822	0.448932
C20	C	0.188210	0.659593	0.445784
C21	C	0.188343	0.602998	0.450378
C22	C	0.170526	0.567242	0.453280
C23	C	0.133254	0.549302	0.454733
C24	C	0.170855	0.339419	0.453283
C25	C	0.188786	0.318703	0.450386
C26	C	0.169444	0.279964	0.448930
C27	C	0.188880	0.257496	0.445783
C28	C	0.132169	0.261945	0.450376
C29	C	0.114241	0.282665	0.453280
C30	C	0.133588	0.321403	0.454731
C31	C	-0.113842	0.339415	0.453283
C32	C	-0.152491	0.318694	0.450381
C33	C	-0.171884	0.279955	0.448926
C34	C	-0.213790	0.257485	0.445778
C35	C	-0.152629	0.261937	0.450371
C36	C	-0.113982	0.282657	0.453271
C37	C	-0.094590	0.321400	0.454731
C38	C	0.113937	0.510527	0.457876
C39	C	0.098538	0.479620	0.460383
C40	C	-0.019282	0.361769	0.460383
C41	C	-0.052684	0.343863	0.457876
C42	C	0.098647	0.361772	0.460383
C43	C	0.114144	0.343865	0.457876
O44	O	-0.337042	0.211733	0.426105
O45	O	-0.227602	0.275751	0.444652
O46	O	-0.291600	0.211733	0.380652
O47	O	-0.273044	0.275751	0.490106
O48	O	-0.291610	0.159737	0.380652
O49	O	-0.227612	0.223756	0.444652
O50	O	-0.337053	0.159737	0.426105
Cu51	Cu	-0.282333	0.186999	0.435379
Cu52	Cu	-0.282321	0.248490	0.435379
O53	O	-0.273055	0.223755	0.490106
C54	C	0.079126	0.051032	0.073799
C55	C	0.041510	0.013144	0.054902
C56	C	0.079127	0.051030	0.130396
C57	C	0.041511	0.013142	0.111414
C58	C	0.022527	-0.005579	0.073799
C59	C	0.098023	0.069668	0.111414
C60	C	0.170807	0.152984	0.039239
C61	C	0.188747	0.173828	0.021425
C62	C	0.169407	0.155939	-0.015849
C63	C	0.188855	0.178542	-0.035163
C64	C	0.132126	0.117205	-0.035309
C65	C	0.114191	0.096362	-0.017497
C66	C	0.133533	0.114253	0.019779
C67	C	-0.113958	-0.131845	-0.017876
C68	C	-0.152609	-0.167607	-0.035816
C69	C	-0.172000	-0.185547	-0.016478
C70	C	-0.213908	-0.224318	-0.035923
C71	C	-0.152734	-0.167725	0.020801
C72	C	-0.114083	-0.131970	0.038737
C73	C	-0.094697	-0.114030	0.019394
C74	C	0.170811	0.152975	0.266881
C75	C	0.188751	0.173820	0.305534
C76	C	0.169412	0.155929	0.324924
C77	C	0.188861	0.178529	0.366834
C78	C	0.132133	0.117198	0.305660
C79	C	0.114194	0.096357	0.267009
C80	C	0.133538	0.114247	0.247621
C81	C	0.114080	0.091651	0.039092
C82	C	0.098575	0.073635	0.054486
C83	C	0.098577	0.073630	0.172305
C84	C	0.114083	0.091644	0.205711
C85	C	-0.019381	-0.044350	0.054351
C86	C	-0.052787	-0.075256	0.038847
C87	C	0.356124	-0.005351	0.407228
C88	C	0.393735	0.013372	0.406964
C89	C	0.356139	0.051262	0.407228
C90	C	0.393750	0.069898	0.406964
C91	C	0.412723	0.051261	0.407228
C92	C	0.337237	0.013373	0.406964
C93	C	0.264435	-0.131620	0.417476
C94	C	0.246490	-0.167383	0.420373
C95	C	0.265820	-0.185323	0.421827
C96	C	0.246367	-0.224095	0.424976
C97	C	0.303095	-0.167500	0.420381
C98	C	0.321035	-0.131744	0.417479
C99	C	0.301704	-0.113804	0.416026
C100	C	0.549186	0.096077	0.417475
C101	C	0.587833	0.116793	0.420372
C102	C	0.607230	0.155532	0.421828
C103	C	0.649134	0.178000	0.424975
C104	C	0.587974	0.173551	0.420382
C105	C	0.549327	0.152832	0.417478
C106	C	0.529935	0.114093	0.416027
C107	C	0.264495	0.096084	0.417475
C108	C	0.246567	0.116805	0.420377
C109	C	0.265912	0.155544	0.421832
C110	C	0.246476	0.178014	0.424980
C111	C	0.303186	0.173562	0.420387
C112	C	0.321112	0.152841	0.417487
C113	C	0.301762	0.114099	0.416027
C114	C	0.321161	-0.075029	0.412882
C115	C	0.336670	-0.044122	0.410375
C116	C	0.336701	0.073729	0.410375
C117	C	0.321205	0.091636	0.412882
C118	C	0.454627	0.073726	0.410375
C119	C	0.488029	0.091632	0.412882
O120	O	0.266264	0.763212	0.426106
O121	O	0.220800	0.672286	0.444653
O122	O	0.220801	0.672284	0.380653
O123	O	0.266263	0.763214	0.490107
O124	O	0.168830	0.672284	0.380653
O125	O	0.168828	0.672286	0.444653
O126	O	0.214293	0.763213	0.426106
Cu127	Cu	0.186815	0.717749	0.435380
Cu128	Cu	0.248277	0.717749	0.435380
O129	O	0.214291	0.763215	0.490106
O130	O	-0.337175	-0.327934	-0.061467
O131	O	-0.227727	-0.237011	-0.016018
O132	O	-0.291708	-0.237006	-0.016010
O133	O	-0.273194	-0.327940	-0.061474
O134	O	-0.291710	-0.237004	-0.067993
O135	O	-0.227729	-0.237009	-0.068001
O136	O	-0.337176	-0.327933	-0.113450
Cu137	Cu	-0.282453	-0.282471	-0.095472
Cu138	Cu	-0.282451	-0.282473	-0.033996
O139	O	-0.273195	-0.327938	-0.113457
O140	O	0.214407	0.223782	-0.113206
O141	O	0.168950	0.159764	-0.067757
O142	O	0.168968	0.223784	-0.067750
O143	O	0.214389	0.159762	-0.113214
O144	O	0.220953	0.275778	-0.015766
O145	O	0.220935	0.211758	-0.015774
O146	O	0.266392	0.275776	-0.061223
Cu147	Cu	0.248410	0.248515	-0.033752
Cu148	Cu	0.186932	0.187026	-0.095228
O149	O	0.266374	0.211756	-0.061231
C150	C	0.412571	0.440865	0.796969
C151	C	0.393588	0.422142	0.815866
C152	C	0.355974	0.384250	0.740369
C153	C	0.337077	0.365614	0.759353
C154	C	0.355973	0.384253	0.796969
C155	C	0.393589	0.422140	0.759353
C156	C	0.549055	0.567136	0.831530
C157	C	0.587705	0.602900	0.849345
C158	C	0.607094	0.620841	0.886620
C159	C	0.649003	0.659614	0.905936
C160	C	0.587828	0.603018	0.906081
C161	C	0.549179	0.567261	0.888268
C162	C	0.529792	0.549320	0.850991
C163	C	0.321409	0.339437	0.888650
C164	C	0.303593	0.318721	0.906590
C165	C	0.266320	0.279982	0.887252
C166	C	0.247002	0.257514	0.906698
C167	C	0.246860	0.261962	0.849971
C168	C	0.264672	0.282681	0.832034
C169	C	0.301951	0.321420	0.851377
C170	C	0.321412	0.339426	0.603880
C171	C	0.303599	0.318705	0.565226
C172	C	0.266324	0.279965	0.545836
C173	C	0.247009	0.257495	0.503925
C174	C	0.246866	0.261947	0.565101
C175	C	0.264680	0.282669	0.603753
C176	C	0.301953	0.321411	0.623141
C177	C	0.487885	0.510544	0.831677
C178	C	0.454479	0.479637	0.816282
C179	C	0.336660	0.361783	0.698459
C180	C	0.321265	0.343875	0.665053
C181	C	0.336659	0.361788	0.816419
C182	C	0.321263	0.343882	0.831923
C183	C	-0.310516	-0.005368	0.073790
C184	C	-0.310777	0.013353	0.054892
C185	C	-0.310505	0.051246	0.130389
C186	C	-0.310766	0.069881	0.111405
C187	C	-0.310505	0.051242	0.073788
C188	C	-0.310777	0.013357	0.111406
C189	C	-0.300296	-0.131635	0.039231
C190	C	-0.297407	-0.167398	0.021417
C191	C	-0.295957	-0.185339	-0.015858
C192	C	-0.292816	-0.224111	-0.035173
C193	C	-0.297399	-0.167517	-0.035320
C194	C	-0.300293	-0.131761	-0.017508
C195	C	-0.301742	-0.113820	0.019770
C196	C	-0.300252	0.096054	-0.017894
C197	C	-0.297352	0.116769	-0.035836
C198	C	-0.295888	0.155508	-0.016498
C199	C	-0.292738	0.177975	-0.035945
C200	C	-0.297331	0.173528	0.020783
C201	C	-0.300238	0.152810	0.038721
C202	C	-0.301696	0.114071	0.019378
C203	C	-0.300251	0.096072	0.266879
C204	C	-0.297346	0.116794	0.305533
C205	C	-0.295884	0.155532	0.324922
C206	C	-0.292732	0.178003	0.366833
C207	C	-0.297325	0.173549	0.305657
C208	C	-0.300229	0.152827	0.267004
C209	C	-0.301695	0.114085	0.247617
C210	C	-0.304877	-0.075045	0.039083
C211	C	-0.307378	-0.044139	0.054477
C212	C	-0.307354	0.073713	0.172299
C213	C	-0.304844	0.091621	0.205705
C214	C	-0.307355	0.073706	0.054338
C215	C	-0.304845	0.091611	0.038833
C216	C	-0.254175	0.384466	0.796961
C217	C	-0.253914	0.422348	0.815855
C218	C	-0.254177	0.384464	0.740362
C219	C	-0.253916	0.422346	0.759342
C220	C	-0.254181	0.441066	0.796957
C221	C	-0.253910	0.365831	0.759346
C222	C	-0.264409	0.282534	0.831529
C223	C	-0.267303	0.261695	0.849345
C224	C	-0.268758	0.279582	0.886619
C225	C	-0.271903	0.256985	0.905936
C226	C	-0.267315	0.318311	0.906077
C227	C	-0.264416	0.339149	0.888263
C228	C	-0.262963	0.321259	0.850987
C229	C	-0.264437	0.567309	0.888626
C230	C	-0.267337	0.603064	0.906563
C231	C	-0.268796	0.620998	0.887223
C232	C	-0.271946	0.659761	0.906666
C233	C	-0.267349	0.603178	0.849944
C234	C	-0.264443	0.567429	0.832010
C235	C	-0.262989	0.549495	0.851355
C236	C	-0.264418	0.282526	0.603879
C237	C	-0.267320	0.261683	0.565226
C238	C	-0.268777	0.279568	0.545834
C239	C	-0.271924	0.256968	0.503924
C240	C	-0.267336	0.318293	0.565096
C241	C	-0.264436	0.339133	0.603747
C242	C	-0.262974	0.321248	0.623137
C243	C	-0.259823	0.343856	0.831672
C244	C	-0.257318	0.361869	0.816276
C245	C	-0.257323	0.361865	0.698453
C246	C	-0.259830	0.343851	0.665047
C247	C	-0.257331	0.479829	0.816403
C248	C	-0.259841	0.510728	0.831904
C249	C	0.022631	0.384224	0.073789
C250	C	0.041605	0.365586	0.054893
C251	C	0.079227	0.440838	0.130389
C252	C	0.098116	0.422114	0.111407
C253	C	0.079216	0.384224	0.073790
C254	C	0.041617	0.422114	0.111405
C255	C	-0.113833	0.339403	0.039225
C256	C	-0.152480	0.318685	0.021410
C257	C	-0.171873	0.279945	-0.015866
C258	C	-0.213779	0.257475	-0.035182
C259	C	-0.152616	0.261926	-0.035326
C260	C	-0.113970	0.282647	-0.017513
C261	C	-0.094579	0.321387	0.019765
C262	C	0.113747	0.282271	-0.017888
C263	C	0.131553	0.261429	-0.035828
C264	C	0.168821	0.279316	-0.016489
C265	C	0.188128	0.256718	-0.035934
C266	C	0.188285	0.318053	0.020792
C267	C	0.170483	0.338899	0.038728
C268	C	0.133209	0.321002	0.019384
C269	C	0.113806	0.567113	0.266878
C270	C	0.131622	0.602874	0.305532
C271	C	0.168892	0.620814	0.324923
C272	C	0.188211	0.659587	0.366834
C273	C	0.188343	0.602990	0.305659
C274	C	0.170525	0.567229	0.267006
C275	C	0.133257	0.549295	0.247618
C276	C	-0.052675	0.343850	0.039079
C277	C	-0.019273	0.361757	0.054475
C278	C	0.098544	0.479611	0.172299
C279	C	0.113942	0.510519	0.205706
C280	C	0.098520	0.361622	0.054342
C281	C	0.113907	0.343607	0.038838
O282	O	-0.273025	0.275730	-0.061489
O283	O	-0.291592	0.211714	-0.016036
O284	O	-0.227589	0.275715	-0.016047
O285	O	-0.337028	0.211729	-0.061478
O286	O	-0.227619	0.223705	-0.068038
O287	O	-0.291621	0.159704	-0.068028
O288	O	-0.273055	0.223720	-0.113480
Cu289	Cu	-0.282340	0.186963	-0.095501
Cu290	Cu	-0.282306	0.248471	-0.034015
O291	O	-0.337057	0.159719	-0.113470
C292	C	0.356132	1.051276	0.796970
C293	C	0.393742	1.069912	0.815867
C294	C	0.356118	0.994661	0.740370
C295	C	0.393728	1.013383	0.759353
C296	C	0.412715	1.051274	0.796969
C297	C	0.337230	1.013385	0.759354
C298	C	0.264488	1.096099	0.831535
C299	C	0.246558	1.116817	0.849350
C300	C	0.265902	1.155557	0.886626
C301	C	0.246466	1.178028	0.905942
C302	C	0.303177	1.173576	0.906086
C303	C	0.321102	1.152854	0.888272
C304	C	0.301756	1.114114	0.850995
C305	C	0.549192	1.153224	0.888647
C306	C	0.587839	1.174066	0.906587
C307	C	0.607221	1.156178	0.887248
C308	C	0.649125	1.178776	0.906693
C309	C	0.587951	1.117442	0.849967
C310	C	0.549304	1.096596	0.832031
C311	C	0.529927	1.114494	0.851375
C312	C	0.264431	0.868386	0.603881
C313	C	0.246489	0.832625	0.565227
C314	C	0.265819	0.814684	0.545837
C315	C	0.246367	0.775911	0.503925
C316	C	0.303092	0.832508	0.565100
C317	C	0.321033	0.868269	0.603753
C318	C	0.301698	0.886203	0.623142
C319	C	0.321198	1.091650	0.831680
C320	C	0.336693	1.073743	0.816285
C321	C	0.336664	0.955887	0.698460
C322	C	0.321156	0.924980	0.665053
C323	C	0.454619	1.073875	0.816417
C324	C	0.488021	1.091890	0.831921
H325	H	0.116421	0.230405	0.449196
H326	H	0.351461	0.167514	0.416309
H327	H	0.186367	0.552734	0.454459
C328	C	0.073192	0.053751	0.245820
H329	H	0.064244	0.046079	0.262901
H330	H	0.056883	0.058452	0.236612
H331	H	0.073154	0.030435	0.224877
C332	C	0.191924	0.547631	0.245817
H333	H	0.216673	0.563440	0.262898
H334	H	0.178014	0.517401	0.236605
H335	H	0.194292	0.549970	0.224876
H336	H	0.186333	0.370439	0.069080
C337	C	-0.301864	0.053441	-0.039172
H338	H	-0.300595	0.045673	-0.063944
H339	H	-0.280856	0.058186	-0.025214
H340	H	-0.325142	0.030170	-0.041490
H341	H	0.351379	0.882773	0.619437
C342	C	0.414342	0.111076	0.406377
H343	H	0.439504	0.119539	0.406254
H344	H	0.400570	0.104461	0.384056
H345	H	0.415660	0.134633	0.428460
C346	C	0.609155	0.622752	0.947081
H347	H	0.634933	0.646599	0.954902
H348	H	0.596986	0.633198	0.963957
H349	H	0.608708	0.600631	0.947676
C350	C	0.229755	0.216422	0.326724
H351	H	0.237667	0.226274	0.352520
H352	H	0.246579	0.210627	0.314495
H353	H	0.230315	0.238651	0.326233
H354	H	0.216209	1.102143	0.833504
H355	H	0.533399	0.064534	0.416291
H356	H	0.533616	1.065056	0.801678
H357	H	0.603388	0.617407	0.833496
C358	C	0.325005	0.338522	0.544037
H359	H	0.349754	0.364563	0.561120
H360	H	0.327369	0.317609	0.523095
H361	H	0.311100	0.345628	0.534827
C362	C	0.527991	0.547657	0.909673
H363	H	0.545073	0.563460	0.934423
H364	H	0.507054	0.549989	0.912041
H365	H	0.518781	0.517427	0.895762
C366	C	0.324357	0.812774	0.543773
H367	H	0.308334	0.788920	0.517996
H368	H	0.347067	0.834891	0.544216
H369	H	0.330782	0.802327	0.555951
H370	H	0.083893	0.267992	0.454458
H371	H	0.248735	0.064535	0.416281
C372	C	0.072753	0.262592	-0.039166
H373	H	0.064934	0.280550	-0.023143
H374	H	0.072157	0.261553	-0.061875
H375	H	0.055874	0.233533	-0.045598
C376	C	0.229750	0.216433	0.042832
H377	H	0.238698	0.224104	0.067583
H378	H	0.246059	0.211734	0.028923
H379	H	0.229787	0.239750	0.045203
C380	C	-0.253329	0.324656	0.738761
H381	H	-0.253209	0.316188	0.755463
H382	H	-0.275406	0.301104	0.716520
H383	H	-0.231007	0.331277	0.731607
C384	C	-0.311353	-0.007813	0.013141
H385	H	-0.311470	-0.033102	0.004558
H386	H	-0.333668	-0.016369	-0.002574
H387	H	-0.289269	0.012975	0.011687
H388	H	0.351760	0.370981	0.904403
C389	C	0.192085	0.172655	0.245555
H390	H	0.176065	0.154693	0.219776
H391	H	0.198523	0.201712	0.257731
H392	H	0.214790	0.173692	0.245995
H393	H	-0.311211	-0.002317	0.126644
H394	H	-0.268480	0.230162	0.833499
H395	H	0.115780	0.617389	0.449207
C396	C	-0.174060	-0.187455	0.042076
H397	H	-0.199839	-0.211299	0.026057
H398	H	-0.161894	-0.197903	0.048507
H399	H	-0.173610	-0.165330	0.064787
H400	H	0.218690	0.617598	0.321449
C401	C	0.205896	0.219279	0.543751
H402	H	0.198081	0.209502	0.517966
H403	H	0.205365	0.197053	0.544219
H404	H	0.188976	0.224946	0.555889
H405	H	0.408958	0.997708	0.744111
H406	H	-0.296174	0.102120	0.321216
H407	H	0.351763	0.370970	0.619663
C408	C	0.229336	0.622731	0.448778
H409	H	0.237161	0.646578	0.446840
H410	H	0.246210	0.633178	0.471396
H411	H	0.229926	0.600610	0.427104
H412	H	-0.301445	0.064526	0.251095
H413	H	-0.168156	0.333358	0.037257
C414	C	0.110142	0.218820	-0.076830
H415	H	0.085394	0.211147	-0.085778
H416	H	0.124046	0.223516	-0.093146
H417	H	0.107769	0.195506	-0.076859
H418	H	0.248686	0.882989	0.619665
H419	H	0.026361	0.335097	0.023985
H420	H	-0.311183	0.100371	0.126647
C421	C	0.243271	0.262856	0.624945
H422	H	0.218519	0.236822	0.607864
H423	H	0.257170	0.255750	0.634158
H424	H	0.240910	0.283776	0.645884
H425	H	0.248731	1.064555	0.801183
C426	C	0.072811	0.547381	0.245551
H427	H	0.064988	0.523534	0.219771
H428	H	0.055937	0.536935	0.257725
H429	H	0.072220	0.569501	0.245993
C430	C	0.609267	1.097762	0.828692
H431	H	0.635044	1.115724	0.844712
H432	H	0.597089	1.068705	0.822259
H433	H	0.608824	1.096725	0.805982
H434	H	-0.296178	0.102094	-0.066189
C435	C	0.609304	0.216160	0.421979
H436	H	0.592301	0.223921	0.420698
H437	H	0.630251	0.239432	0.445255
H438	H	0.618513	0.211409	0.400963
H439	H	0.186612	0.370963	0.454468
C440	C	0.528147	0.172650	0.415887
H441	H	0.502352	0.154760	0.413949
H442	H	0.540377	0.201715	0.438508
H443	H	0.528639	0.173693	0.394217
H444	H	-0.296133	0.205094	0.321446
C445	C	0.021041	0.443286	0.131993
H446	H	-0.004125	0.426700	0.115291
H447	H	0.019739	0.443448	0.154233
H448	H	0.034815	0.472775	0.139149
C449	C	0.229783	0.338520	0.448790
H450	H	0.238734	0.364555	0.450067
H451	H	0.246096	0.345627	0.469802
H452	H	0.229807	0.317603	0.425511
H453	H	-0.098307	0.267983	0.454447
H454	H	0.026348	0.335103	0.464208
H455	H	0.408963	-0.002305	0.406531
H456	H	-0.268515	0.617570	0.936915
C457	C	0.324999	0.338540	0.947593
H458	H	0.349751	0.364575	0.956540
H459	H	0.311098	0.345647	0.963908
H460	H	0.327362	0.317624	0.947622
C461	C	0.110228	0.622480	0.326719
H462	H	0.085482	0.606679	0.309634
H463	H	0.107856	0.620148	0.347662
H464	H	0.124144	0.652711	0.335925
H465	H	-0.253523	0.437990	0.744088
H466	H	0.129012	0.437799	0.464222
C467	C	-0.268903	0.219088	0.544041
H468	H	-0.267614	0.211425	0.561126
H469	H	-0.292175	0.195764	0.523096
H470	H	-0.247888	0.223803	0.534837
C471	C	0.021025	0.443280	0.464353
H472	H	0.037725	0.468570	0.464466
H473	H	-0.001209	0.422486	0.442267
H474	H	0.013862	0.451841	0.486672
H475	H	-0.098048	0.370947	0.069577
C476	C	-0.253340	0.443513	0.857605
H477	H	-0.253226	0.426927	0.866191
H478	H	-0.231024	0.473005	0.873320
H479	H	-0.275424	0.443657	0.859058
H480	H	-0.268498	0.332872	0.936426
C481	C	-0.295723	0.216138	0.042056
H482	H	-0.293783	0.225899	0.026036
H483	H	-0.318336	0.210395	0.048489
H484	H	-0.274050	0.238413	0.064766
C485	C	0.324466	0.216173	0.421985
H486	H	0.308452	0.225932	0.423916
H487	H	0.347176	0.238447	0.443655
H488	H	0.330893	0.210423	0.399363
C489	C	-0.268938	0.337970	0.543769
H490	H	-0.267667	0.364015	0.560776
H491	H	-0.247928	0.345033	0.534557
H492	H	-0.292214	0.317000	0.522820
C493	C	-0.173947	0.219315	-0.076326
H494	H	-0.199722	0.209553	-0.084148
H495	H	-0.161774	0.225058	-0.093201
H496	H	-0.173511	0.197042	-0.076920
C497	C	0.609013	0.096976	0.421968
H498	H	0.591929	0.070942	0.420692
H499	H	0.618220	0.089869	0.400957
H500	H	0.629953	0.117894	0.445248
H501	H	0.306172	0.335124	0.744110
H502	H	0.408984	1.100401	0.846775
C503	C	0.414173	0.443314	0.857619
H504	H	0.439343	0.468604	0.866204
H505	H	0.400409	0.451867	0.873330
H506	H	0.415472	0.422530	0.859079
H507	H	-0.098294	0.267974	-0.033360
H508	H	-0.168167	0.333366	0.449201
C509	C	-0.301827	0.172629	0.079724
H510	H	-0.300538	0.198668	0.088674
H511	H	-0.325101	0.151715	0.079758
H512	H	-0.280814	0.179739	0.096038
H513	H	-0.263235	0.267957	0.619662
H514	H	-0.301477	-0.117032	0.069583
H515	H	0.116386	0.102631	0.321449
H516	H	-0.168425	0.230384	0.449174
C517	C	-0.262806	0.262857	0.790530
H518	H	-0.264075	0.236813	0.781496
H519	H	-0.283817	0.255793	0.774258
H520	H	-0.239530	0.283828	0.790545
H521	H	0.128931	0.100154	0.126652
C522	C	0.205860	0.219352	0.828698
H523	H	0.198038	0.209590	0.844718
H524	H	0.188990	0.225094	0.822266
H525	H	0.205261	0.197077	0.805987
H526	H	0.186560	0.167556	0.069590
C527	C	0.414181	0.443298	0.738759
H528	H	0.439351	0.468588	0.755458
H529	H	0.415473	0.422505	0.716523
H530	H	0.400424	0.451856	0.731594
C531	C	-0.092513	0.382025	0.454882
H532	H	-0.109516	0.389786	0.453601
H533	H	-0.071566	0.405299	0.478158
H534	H	-0.083303	0.377274	0.433867
C535	C	0.324454	1.216187	0.947085
H536	H	0.308441	1.225950	0.954907
H537	H	0.330883	1.210444	0.963961
H538	H	0.347164	1.238460	0.947680
C539	C	-0.295815	-0.186995	0.042826
H540	H	-0.297088	-0.171186	0.067578
H541	H	-0.316827	-0.217225	0.028920
H542	H	-0.272540	-0.184654	0.045194
H543	H	-0.263240	0.370682	0.904109
H544	H	-0.296221	-0.182130	-0.065671
H545	H	0.603526	1.205606	0.936940
C546	C	0.243269	0.262859	0.791030
H547	H	0.218520	0.236819	0.782078
H548	H	0.240907	0.283770	0.790992
H549	H	0.257176	0.255751	0.774718
H550	H	0.306334	-0.002299	0.406537
C551	C	0.229279	0.337733	0.042066
H552	H	0.237095	0.319770	0.026046
H553	H	0.246158	0.366790	0.048498
H554	H	0.229873	0.338771	0.064776
C555	C	0.527730	0.547410	0.790530
H556	H	0.544736	0.563150	0.781494
H557	H	0.518510	0.517176	0.774260
H558	H	0.506790	0.549744	0.790546
C559	C	0.243168	-0.111893	0.415873
H560	H	0.218398	-0.127631	0.417144
H561	H	0.257129	-0.081658	0.436885
H562	H	0.240850	-0.114226	0.392593
H563	H	0.216142	-0.181891	0.421551
C564	C	-0.262847	0.381731	0.624935
H565	H	-0.260914	0.391579	0.650730
H566	H	-0.241183	0.403961	0.624443
H567	H	-0.285470	0.375929	0.612705
H568	H	0.306328	0.997718	0.744115
H569	H	-0.263251	0.552711	0.904380
C570	C	0.072808	0.547392	0.454887
H571	H	0.063777	0.563131	0.453616
H572	H	0.056536	0.517157	0.433875
H573	H	0.072822	0.549725	0.478166
H574	H	-0.301403	0.167499	0.251321
C575	C	0.073187	0.053758	-0.038900
H576	H	0.065276	0.043906	-0.022953
H577	H	0.056362	0.059551	-0.045334
H578	H	0.072629	0.031530	-0.061615
H579	H	0.026272	-0.002527	0.126656
H580	H	-0.301473	-0.117258	-0.033358
H581	H	-0.268532	0.617784	0.834198
H582	H	-0.263263	0.552924	0.801659
C583	C	0.139859	0.443277	0.131997
H584	H	0.148447	0.468569	0.157167
H585	H	0.141307	0.422489	0.133296
H586	H	0.155575	0.451835	0.118232
C587	C	0.020919	-0.008025	0.013152
H588	H	-0.004248	-0.033321	0.004568
H589	H	0.019617	0.012756	0.011693
H590	H	0.034682	-0.016580	-0.002564
C591	C	0.110856	0.097529	-0.076307
H592	H	0.126876	0.115491	-0.084129
H593	H	0.104418	0.068472	-0.093184
H594	H	0.088151	0.096493	-0.076902
C595	C	0.205491	0.813022	0.544040
H596	H	0.196545	0.828823	0.561124
H597	H	0.205454	0.815354	0.523098
H598	H	0.189176	0.782791	0.534832
H599	H	0.351450	1.167526	0.904120
H600	H	0.533418	1.167798	0.904401
H601	H	-0.098176	-0.117242	-0.033629
C602	C	-0.173797	-0.187211	-0.076819
H603	H	-0.156716	-0.171404	-0.085768
H604	H	-0.183010	-0.217440	-0.093132
H605	H	-0.194734	-0.184874	-0.076853
C606	C	0.362033	-0.112140	0.415888
H607	H	0.369949	-0.088275	0.413951
H608	H	0.378862	-0.101742	0.438510
H609	H	0.362580	-0.134307	0.394218
H610	H	0.216218	0.102132	0.421555
C611	C	-0.092892	-0.112366	0.079740
H612	H	-0.067096	-0.088502	0.087651
H613	H	-0.105112	-0.101968	0.096573
H614	H	-0.093389	-0.134534	0.080290
C615	C	0.324356	-0.187233	0.421981
H616	H	0.308334	-0.211079	0.423920
H617	H	0.330785	-0.197680	0.399364
H618	H	0.347066	-0.165112	0.443655
