data_functionalizedCrystal
_audit_creation_method	'MofGen! by Chris Wilmer'
_symmetry_space_group_name_H-M	'P1'
_symmetry_Int_Tables_number	1
_symmetry_cell_setting	triclinic
loop_
_symmetry_equiv_pos_as_xyz
  x,y,z
_cell_length_a	12.827893
_cell_length_b	17.077404
_cell_length_c	17.077396
_cell_angle_alpha	89.980499
_cell_angle_beta	90.020142
_cell_angle_gamma	89.996265
loop_
_atom_site_label
_atom_site_type_symbol
_atom_site_fract_x
_atom_site_fract_y
_atom_site_fract_z
Zn1	Zn	0.416027	1.200160	-0.443888
Zn2	Zn	0.916027	1.700160	0.056112
Zn3	Zn	0.590789	1.200112	-0.312641
Zn4	Zn	1.090789	1.700112	0.187359
Zn5	Zn	0.416063	1.068892	-0.312636
Zn6	Zn	0.916063	1.568892	0.187364
Zn7	Zn	0.590727	1.068904	-0.443865
Zn8	Zn	1.090727	1.568904	0.056135
O9	O	0.503402	1.134517	-0.378258
O10	O	1.003402	1.634517	0.121742
O11	O	0.439220	1.310001	-0.426490
O12	O	0.939220	1.810001	0.073510
O13	O	0.567653	1.182680	-0.202794
O14	O	1.067653	1.682680	0.297206
O15	O	0.269822	1.086320	-0.330055
O16	O	0.769822	1.586320	0.169945
O17	O	0.567617	1.309965	-0.330063
O18	O	1.067617	1.809965	0.169937
O19	O	0.269796	1.182762	-0.426485
O20	O	0.769796	1.682762	0.073515
O21	O	0.439282	1.086273	-0.202790
O22	O	0.939282	1.586273	0.297210
O23	O	0.439222	0.959047	-0.330032
O24	O	0.939222	1.459047	0.169968
O25	O	0.567511	1.086341	-0.553715
O26	O	1.067511	1.586341	-0.053715
O27	O	0.567547	0.959056	-0.426445
O28	O	1.067547	1.459056	0.073555
O29	O	0.439160	1.182774	-0.553732
O30	O	0.939160	1.682774	-0.053732
O31	O	0.737017	1.182692	-0.330041
O32	O	1.237017	1.682692	0.169959
O33	O	0.736971	1.086294	-0.426450
O34	O	1.236971	1.586294	0.073550
C35	C	0.503383	0.930569	-0.378236
C36	C	1.003383	1.430569	0.121764
C37	C	0.503400	0.843320	-0.378245
C38	C	1.003400	1.343320	0.121755
C39	C	0.230831	1.134545	-0.378272
C40	C	0.730831	1.634545	0.121728
C41	C	0.114678	1.134557	-0.378278
C42	C	0.614678	1.634557	0.121722
C43	C	0.570319	0.802355	-0.428367
C44	C	1.070319	1.302355	0.071633
C45	C	0.570321	0.720374	-0.428380
C46	C	1.070321	1.220374	0.071620
C47	C	0.503409	0.679360	-0.378266
C48	C	1.003409	1.179360	0.121734
C49	C	0.436482	0.720331	-0.328142
C50	C	0.936482	1.220331	0.171858
C51	C	0.436475	0.802310	-0.328134
C52	C	0.936475	1.302310	0.171866
C53	C	0.436502	0.549461	-0.328161
C54	C	0.936502	1.049461	0.171839
C55	C	0.436510	0.467476	-0.328167
C56	C	0.936510	0.967476	0.171833
C57	C	0.570349	0.467525	-0.428407
C58	C	1.070349	0.967525	0.071593
C59	C	0.570342	0.549504	-0.428399
C60	C	1.070342	1.049504	0.071601
C61	C	0.503416	0.590469	-0.378273
C62	C	1.003416	1.090469	0.121727
C63	C	0.062907	1.086845	-0.330569
C64	C	0.562907	1.586845	0.169431
C65	C	-0.057143	1.086856	-0.330574
C66	C	0.442857	1.586856	0.169426
C67	C	0.774911	1.134510	-0.378261
C68	C	1.274911	1.634510	0.121739
C69	C	0.891065	1.134579	-0.378288
C70	C	1.391065	1.634579	0.121712
C71	C	0.503325	1.134565	-0.583002
C72	C	1.003325	1.634565	-0.083002
C73	C	0.503292	1.134585	-0.670252
C74	C	1.003292	1.634585	-0.170252
C75	C	0.503421	1.339261	-0.378280
C76	C	1.003421	1.839261	0.121720
C77	C	0.503430	1.426511	-0.378289
C78	C	1.003430	1.926511	0.121711
C79	C	0.436454	1.184799	-0.711252
C80	C	0.936454	1.684799	-0.211252
C81	C	0.436419	1.184809	-0.793233
C82	C	0.936419	1.684809	-0.293233
C83	C	0.503228	1.134607	-0.834211
C84	C	1.003228	1.634607	-0.334211
C85	C	0.570069	1.084387	-0.793205
C86	C	1.070069	1.584387	-0.293205
C87	C	0.570098	1.084374	-0.711226
C88	C	1.070098	1.584374	-0.211226
C89	C	0.570007	1.084419	-0.964075
C90	C	1.070007	1.584419	-0.464075
C91	C	0.569980	1.084432	-1.046060
C92	C	1.069980	1.584432	-0.546060
C93	C	0.436327	1.184853	-1.046082
C94	C	0.936327	1.684853	-0.546082
C95	C	0.436356	1.184840	-0.964103
C96	C	0.936356	1.684840	-0.464103
C97	C	0.503199	1.134621	-0.923102
C98	C	1.003199	1.634621	-0.423102
C99	C	0.503403	1.134515	-0.174310
C100	C	1.003403	1.634515	0.325690
C101	C	0.503141	1.134647	-0.087060
C102	C	1.003141	1.634647	0.412940
H103	H	0.624811	0.835742	-0.469173
H104	H	1.124811	1.335742	0.030827
H105	H	0.381995	1.225700	-0.826612
H106	H	0.881995	1.725700	-0.326612
H107	H	0.624839	0.434168	-0.469223
H108	H	1.124839	0.934168	0.030777
O109	O	0.116003	1.037988	-0.281917
O110	O	0.616003	1.537988	0.218083
C111	C	0.089375	0.959742	-0.299033
C112	C	0.589375	1.459742	0.200967
H113	H	0.059275	0.955775	-0.361722
H114	H	0.559275	1.455775	0.138278
H115	H	0.161202	0.921002	-0.292314
H116	H	0.661202	1.421002	0.207686
H117	H	0.026119	0.939177	-0.256903
H118	H	0.526119	1.439177	0.243097
H119	H	-0.101665	1.046011	-0.289725
H120	H	0.398335	1.546011	0.210275
O121	O	0.371384	0.680613	-0.279435
O122	O	0.871384	1.180613	0.220565
C123	C	0.312335	0.734353	-0.235181
C124	C	0.812335	1.234353	0.264819
H125	H	0.308764	0.792803	-0.267334
H126	H	0.808764	1.292803	0.232666
H127	H	0.229989	0.710662	-0.226908
H128	H	0.729989	1.210662	0.273092
H129	H	0.350503	0.743048	-0.175517
H130	H	0.850503	1.243048	0.324483
H131	H	-0.064420	1.175433	-0.419133
H132	H	0.435580	1.675433	0.080867
O133	O	0.061421	1.183192	-0.427052
O134	O	0.561421	1.683192	0.072948
C135	C	-0.001717	1.138473	-0.477720
C136	C	0.498283	1.638473	0.022280
H137	H	-0.017953	1.078969	-0.450019
H138	H	0.482047	1.578969	0.049981
H139	H	-0.078515	1.170403	-0.488195
H140	H	0.421485	1.670403	0.011805
H141	H	0.040261	1.129888	-0.535918
H142	H	0.540261	1.629888	-0.035918
O143	O	0.635003	1.035547	-0.832888
O144	O	1.135003	1.535547	-0.332888
C145	C	0.694021	0.991237	-0.779118
C146	C	1.194021	1.491237	-0.279118
H147	H	0.651236	0.988512	-0.720684
H148	H	1.151236	1.488512	-0.220684
H149	H	0.705157	0.929393	-0.802793
H150	H	1.205157	1.429393	-0.302793
H151	H	0.773393	1.019974	-0.770396
H152	H	1.273393	1.519974	-0.270396
H153	H	0.381977	0.835662	-0.287324
H154	H	0.881977	1.335662	0.212676
O155	O	0.635438	0.680703	-0.477084
O156	O	1.135438	1.180703	0.022916
C157	C	0.694487	0.734482	-0.521319
C158	C	1.194487	1.234482	-0.021319
H159	H	0.698031	0.792906	-0.489158
H160	H	1.198031	1.292906	0.010842
H161	H	0.776843	0.710802	-0.529580
H162	H	1.276843	1.210802	-0.029580
H163	H	0.656337	0.743223	-0.580989
H164	H	1.156337	1.243223	-0.080989
H165	H	0.381960	1.225724	-0.930740
H166	H	0.881960	1.725724	-0.430740
H167	H	0.624421	1.043513	-0.930695
H168	H	1.124421	1.543513	-0.430695
H169	H	0.382053	1.225682	-0.677893
H170	H	0.882053	1.725682	-0.177893
H171	H	0.381900	1.225742	-1.079468
H172	H	0.881900	1.725742	-0.579468
O173	O	0.371640	0.589344	-0.279430
O174	O	0.871640	1.089344	0.220570
C175	C	0.431057	0.636725	-0.228644
C176	C	0.931057	1.136725	0.271356
H177	H	0.510296	0.649014	-0.256236
H178	H	1.010296	1.149014	0.243764
H179	H	0.388475	0.694371	-0.218170
H180	H	0.888475	1.194371	0.281830
H181	H	0.442446	0.605106	-0.170461
H182	H	0.942446	1.105106	0.329539
O183	O	0.634906	1.035590	-1.085747
O184	O	1.134906	1.535590	-0.585747
C185	C	0.693921	0.991271	-1.031982
C186	C	1.193921	1.491271	-0.531982
H187	H	0.651141	0.988547	-0.973546
H188	H	1.151141	1.488547	-0.473546
H189	H	0.705045	0.929428	-1.055662
H190	H	1.205045	1.429428	-0.555662
H191	H	0.773298	1.020000	-1.023263
H192	H	1.273298	1.520000	-0.523263
O193	O	0.634883	1.035514	-0.671365
O194	O	1.134883	1.535514	-0.171365
C195	C	0.575407	0.984822	-0.623925
C196	C	1.075407	1.484822	-0.123925
H197	H	0.493091	0.979985	-0.648631
H198	H	0.993091	1.479985	-0.148631
H199	H	0.613200	0.924409	-0.622988
H200	H	1.113200	1.424409	-0.122988
H201	H	0.571837	1.009079	-0.561798
H202	H	1.071837	1.509079	-0.061798
O203	O	0.635375	0.589225	-0.477150
O204	O	1.135375	1.089225	0.022850
C205	C	0.694465	0.535492	-0.521381
C206	C	1.194465	1.035492	-0.021381
H207	H	0.651676	0.477054	-0.524161
H208	H	1.151676	0.977054	-0.024161
H209	H	0.705715	0.559210	-0.583211
H210	H	1.205715	1.059210	-0.083211
H211	H	0.773784	0.526762	-0.492539
H212	H	1.273784	1.026762	0.007461
H213	H	0.382012	0.434085	-0.287370
H214	H	0.882012	0.934085	0.212630
