data_functionalizedCrystal
_audit_creation_method	'MofGen! by Chris Wilmer'
_symmetry_space_group_name_H-M	'P1'
_symmetry_Int_Tables_number	1
_symmetry_cell_setting	triclinic
loop_
_symmetry_equiv_pos_as_xyz
  x,y,z
_cell_length_a	13.262415
_cell_length_b	17.699083
_cell_length_c	16.776229
_cell_angle_alpha	89.998886
_cell_angle_beta	105.922413
_cell_angle_gamma	96.116377
loop_
_atom_site_label
_atom_site_type_symbol
_atom_site_fract_x
_atom_site_fract_y
_atom_site_fract_z
O1	O	0.132733	-1.004677	0.094951
O2	O	0.632733	-0.504677	0.594951
O3	O	0.150002	-0.784376	0.098721
O4	O	0.650002	-0.284376	0.598721
O5	O	-0.011441	-0.900064	0.063703
O6	O	0.488559	-0.400064	0.563703
O7	O	0.294176	-0.888989	0.129969
O8	O	0.794176	-0.388989	0.629969
O9	O	-0.011451	-0.900049	-0.068875
O10	O	0.488549	-0.400049	0.431125
O11	O	0.149992	-0.784361	-0.033858
O12	O	0.649992	-0.284361	0.466142
O13	O	0.132723	-1.004661	-0.037627
O14	O	0.632723	-0.504661	0.462373
Zn15	Zn	0.141356	-0.894509	-0.056792
Zn16	Zn	0.641356	-0.394509	0.443208
Zn17	Zn	0.141369	-0.894529	0.117886
Zn18	Zn	0.641369	-0.394529	0.617886
O19	O	0.294167	-0.888973	-0.002610
O20	O	0.794167	-0.388973	0.497390
C21	C	0.149378	-0.756169	0.032301
C22	C	0.649378	-0.256169	0.532301
C23	C	0.147522	-0.672142	0.031908
C24	C	0.647522	-0.172142	0.531908
C25	C	-0.050549	-0.899434	-0.011063
C26	C	0.449451	-0.399434	0.488937
C27	C	-0.167064	-0.897570	-0.036320
C28	C	0.332936	-0.397570	0.463680
C29	C	0.133347	-1.032869	0.028795
C30	C	0.633347	-0.532869	0.528795
C31	C	0.135203	-1.116895	0.029192
C32	C	0.635203	-0.616895	0.529192
C33	C	-0.495466	-0.892354	0.181561
C34	C	0.004534	-0.392354	0.681561
C35	C	-0.385996	-0.894111	0.205296
C36	C	0.114004	-0.394111	0.705296
C37	C	-0.331257	-0.894976	0.144894
C38	C	0.168743	-0.394976	0.644894
C39	C	-0.386000	-0.894084	0.060753
C40	C	0.114000	-0.394084	0.560753
C41	C	-0.495483	-0.892332	0.037015
C42	C	0.004517	-0.392332	0.537015
C43	C	-0.331274	-0.894954	0.000348
C44	C	0.168726	-0.394954	0.500348
C45	C	-0.386017	-0.894062	-0.083793
C46	C	0.113983	-0.394062	0.416207
C47	C	-0.495488	-0.892310	-0.107526
C48	C	0.004512	-0.392310	0.392474
C49	C	-0.550227	-0.891446	-0.047125
C50	C	-0.050227	-0.391446	0.452875
C51	C	-0.221792	-0.896705	0.024086
C52	C	0.278208	-0.396705	0.524086
C53	C	-0.221808	-0.896683	-0.120460
C54	C	0.278192	-0.396683	0.379540
C55	C	-0.331279	-0.894926	-0.144195
C56	C	0.168721	-0.394926	0.355805
C57	C	0.333275	-0.889604	0.072158
C58	C	0.833275	-0.389604	0.572158
C59	C	0.449790	-0.891467	0.097421
C60	C	0.949790	-0.391467	0.597421
N61	N	0.141347	-0.894500	-0.176005
N62	N	0.641347	-0.394500	0.323995
C63	C	0.242286	-0.623948	0.052455
C64	C	0.742286	-0.123948	0.552455
C65	C	0.240535	-0.544997	0.052066
C66	C	0.740535	-0.044997	0.552066
C67	C	0.144020	-0.514241	0.031134
C68	C	0.644020	-0.014241	0.531134
C69	C	0.049249	-0.562441	0.010583
C70	C	0.549249	-0.062441	0.510583
C71	C	0.051001	-0.641391	0.010968
C72	C	0.551001	-0.141391	0.510968
C73	C	0.042183	-0.244046	0.009031
C74	C	0.542183	0.255954	0.509031
C75	C	0.040439	-0.165091	0.008651
C76	C	0.540439	0.334909	0.508651
C77	C	0.231718	-0.147653	0.050129
C78	C	0.731718	0.352347	0.550129
C79	C	0.233469	-0.226602	0.050514
C80	C	0.733469	0.273398	0.550514
C81	C	0.138699	-0.274795	0.029959
C82	C	0.638699	0.225205	0.529959
C83	C	0.140598	-0.360403	0.030380
C84	C	0.640598	0.139597	0.530380
C85	C	0.142120	-0.428635	0.030718
C86	C	0.642120	0.071365	0.530718
C87	C	0.069889	-0.945742	-0.233222
C88	C	0.569889	-0.445742	0.266778
C89	C	0.069888	-0.945747	-0.316674
C90	C	0.569888	-0.445747	0.183326
C91	C	0.141351	-0.894512	-0.342907
C92	C	0.641351	-0.394512	0.157093
C93	C	0.212812	-0.843264	-0.285684
C94	C	0.712812	-0.343264	0.214316
C95	C	0.212807	-0.843257	-0.202235
C96	C	0.712807	-0.343257	0.297765
C97	C	0.212833	-0.843291	-0.622227
C98	C	0.712833	-0.343291	-0.122227
C99	C	0.212834	-0.843304	-0.705683
C100	C	0.712834	-0.343304	-0.205683
C101	C	0.069914	-0.945781	-0.736667
C102	C	0.569914	-0.445781	-0.236667
C103	C	0.069909	-0.945774	-0.653217
C104	C	0.569909	-0.445774	-0.153217
C105	C	0.141366	-0.894524	-0.596002
C106	C	0.641366	-0.394524	-0.096002
C107	C	0.141364	-0.894519	-0.505514
C108	C	0.641364	-0.394519	-0.005514
C109	C	0.141358	-0.894520	-0.433393
C110	C	0.641358	-0.394520	0.066607
N111	N	0.141371	-0.894543	0.237097
N112	N	0.641371	-0.394543	0.737097
H113	H	-0.177230	-0.897431	0.092594
H114	H	0.322770	-0.397431	0.592594
Br115	Br	0.364459	-0.268338	0.078929
Br116	Br	0.864459	0.231662	0.578929
Br117	Br	0.360338	-0.082243	0.078025
Br118	Br	0.860338	0.417757	0.578025
Br119	Br	0.309792	-0.773723	-0.321284
Br120	Br	0.809792	-0.273723	0.178716
Br121	Br	0.309783	-0.773705	-0.124584
Br122	Br	0.809783	-0.273705	0.375416
Br123	Br	-0.147531	-0.897865	-0.202440
Br124	Br	0.352469	-0.397865	0.297560
H125	H	-0.029336	-0.537394	-0.006471
H126	H	0.470664	-0.037394	0.493529
Br127	Br	-0.077612	-0.706799	-0.016926
Br128	Br	0.422388	-0.206799	0.483074
H129	H	-0.540045	-0.891656	0.230731
H130	H	-0.040045	-0.391656	0.730731
Br131	Br	-0.090555	-0.123351	-0.019756
Br132	Br	0.409445	0.376649	0.480244
H133	H	0.320880	-0.648983	0.069501
H134	H	0.820880	-0.148983	0.569501
H135	H	0.317702	-0.505760	0.068798
H136	H	0.817702	-0.005760	0.568798
H137	H	0.011700	-0.987467	-0.211869
H138	H	0.511700	-0.487467	0.288131
Br139	Br	-0.027095	-1.015288	-0.394329
Br140	Br	0.472905	-0.515288	0.105671
H141	H	0.011721	-0.987497	-0.631862
H142	H	0.511721	-0.487497	-0.131862
H143	H	0.011726	-0.987510	-0.783262
H144	H	0.511726	-0.487510	-0.283262
Br145	Br	0.309827	-0.773767	-0.741284
Br146	Br	0.809827	-0.273767	-0.241284
H147	H	0.271017	-0.801563	-0.575648
H148	H	0.771017	-0.301563	-0.075648
H149	H	-0.375866	-0.894200	-0.212704
H150	H	0.124134	-0.394200	0.287296
Br151	Br	-0.182687	-0.897359	0.177107
Br152	Br	0.317313	-0.397359	0.677107
Br153	Br	-0.311709	-0.895325	0.319482
Br154	Br	0.188291	-0.395325	0.819482
H155	H	-0.034985	-0.283276	-0.007707
H156	H	0.465015	0.216724	0.492293
Br157	Br	-0.698798	-0.889049	-0.079333
Br158	Br	-0.198798	-0.389049	0.420667
H159	H	-0.540059	-0.891594	-0.176040
H160	H	-0.040059	-0.391594	0.323960
