data_functionalizedCrystal
_audit_creation_method	'MofGen! by Chris Wilmer'
_symmetry_space_group_name_H-M	'P1'
_symmetry_Int_Tables_number	1
_symmetry_cell_setting	triclinic
loop_
_symmetry_equiv_pos_as_xyz
  x,y,z
_cell_length_a	20.919309
_cell_length_b	14.446369
_cell_length_c	14.446369
_cell_angle_alpha	60.000250
_cell_angle_beta	90.000599
_cell_angle_gamma	57.442498
loop_
_atom_site_label
_atom_site_type_symbol
_atom_site_fract_x
_atom_site_fract_y
_atom_site_fract_z
Zr1	Zr	0.641770	0.940909	-0.085371
O2	O	0.535401	1.146008	-0.239172
O3	O	0.674378	0.744118	-0.038216
O4	O	0.674379	0.937226	-0.231335
O5	O	0.535399	0.952908	0.106276
O6	O	0.784009	0.924871	-0.225160
O7	O	0.535399	0.952899	-0.046053
O8	O	0.784006	0.579435	0.120295
O9	O	0.535402	1.298343	-0.239179
O10	O	0.770101	0.812764	-0.013504
O11	O	0.688285	0.821990	0.095569
O12	O	0.688287	1.049350	-0.131804
O13	O	0.606471	1.058577	-0.022731
Zr14	Zr	0.816617	0.921217	0.167425
Zr15	Zr	0.816617	0.921204	-0.075522
Zr16	Zr	0.641770	0.940922	0.157576
Zr17	Zr	0.641772	1.183867	-0.085382
Zr18	Zr	0.816615	0.678260	0.167436
O19	O	0.784009	1.118009	0.120270
O20	O	0.784010	1.117990	-0.225169
O21	O	0.535400	1.146027	0.106267
O22	O	0.922986	0.716119	0.321227
O23	O	0.922987	0.716100	-0.024213
O24	O	0.674377	0.744137	0.307223
O25	O	0.922988	0.909219	-0.024221
O26	O	0.784008	0.924901	0.313389
O27	O	0.674378	0.937256	0.307214
O28	O	0.922988	0.909227	0.128107
O29	O	0.674381	1.282681	-0.231351
O30	O	0.784006	0.579446	0.313405
O31	O	0.922985	0.563783	0.321233
O32	O	0.922986	0.563773	0.128123
O33	O	0.535401	1.298354	-0.046069
O34	O	0.674381	1.282691	-0.038241
O35	O	0.770100	0.812776	0.213858
O36	O	0.851916	0.803549	0.104786
O37	O	0.770102	1.040136	-0.013514
O38	O	0.688287	1.049363	0.095558
C39	C	0.729192	0.627160	0.041041
C40	C	0.729191	0.524018	0.041046
C41	C	0.677837	0.382800	0.110180
C42	C	0.677558	0.490451	0.109873
C43	C	0.691549	0.577250	-0.084610
C44	C	0.691163	0.470060	-0.084257
C45	C	0.818223	0.280529	0.096505
C46	C	0.818092	0.386695	0.099019
C47	C	0.510487	0.955711	0.028708
C48	C	0.436260	0.964076	0.024527
C49	C	0.444092	0.844513	0.084308
C50	C	0.374345	0.852382	0.080377
C51	C	0.296767	0.979814	0.016657
C52	C	0.288937	1.099385	-0.043126
C53	C	0.358683	1.091516	-0.039187
C54	C	0.084043	1.009753	0.001683
C55	C	0.014295	1.017613	-0.002254
C56	C	0.099708	0.770608	0.121251
C57	C	0.169452	0.762750	0.125178
C58	C	0.161616	0.882322	0.065400
C59	C	0.225474	0.987859	0.012635
C60	C	0.232908	0.874275	0.069430
C61	C	0.947900	0.906415	0.053346
C62	C	1.022127	0.898050	0.057527
C63	C	0.729194	0.931047	-0.262862
C64	C	0.729194	0.931041	-0.366000
C65	C	0.729195	1.234966	0.041013
C66	C	0.729196	1.338108	0.041009
C67	C	0.781051	0.781812	-0.438054
C68	C	0.780826	0.781740	-0.330738
C69	C	0.640296	1.012287	-0.445570
C70	C	0.640580	1.011345	-0.552413
C71	C	0.765517	1.000218	-0.546949
C72	C	0.767316	0.997313	-0.438176
C73	C	0.729193	0.931080	0.344917
C74	C	0.729193	0.931086	0.448054
C75	C	0.947898	0.602512	0.053360
C76	C	1.022124	0.491005	0.057546
C77	C	0.729191	0.627177	0.344930
C78	C	0.729190	0.524041	0.448072
C79	C	0.947898	0.602529	0.357250
C80	C	1.022124	0.491028	0.464572
C81	C	0.510489	1.259597	-0.275195
C82	C	0.436263	1.371099	-0.382518
C83	C	0.510489	1.259614	0.028694
C84	C	0.436263	1.371121	0.024508
C85	C	0.729196	1.234950	-0.262876
C86	C	0.729197	1.338086	-0.366018
C87	C	1.014275	0.443450	-0.002245
C88	C	1.084012	0.338691	0.001665
C89	C	1.161597	0.281483	0.065373
C90	C	1.169445	0.329048	0.125165
C91	C	1.099709	0.433812	0.121248
C92	C	1.099695	0.433848	0.458038
C93	C	1.169445	0.329094	0.558870
C94	C	1.161622	0.281513	0.666236
C95	C	1.084042	0.338703	0.672768
C96	C	1.014294	0.443463	0.571937
C97	C	0.358692	1.428290	-0.375984
C98	C	0.288942	1.533075	-0.476816
C99	C	0.296765	1.580660	-0.584182
C100	C	0.374345	1.523464	-0.590714
C101	C	0.444093	1.418688	-0.489882
C102	C	0.444112	1.418687	0.084289
C103	C	0.374375	1.523472	0.080352
C104	C	0.296790	1.580684	0.016641
C105	C	0.288943	1.533114	-0.043146
C106	C	0.358678	1.428337	-0.039216
C107	C	0.677339	0.383570	0.520141
C108	C	0.677559	0.490466	0.412820
C109	C	0.818090	0.387169	0.527639
C110	C	0.817811	0.279825	0.634487
C111	C	0.692875	0.468878	0.629028
C112	C	0.691072	0.577551	0.520250
H113	H	0.702808	0.450901	0.202262
N114	N	0.604384	0.533713	-0.142628
H115	H	0.566742	0.631002	-0.168349
H116	H	0.588295	0.480004	-0.086888
H117	H	0.702301	0.291090	0.520515
H118	H	0.832812	0.937986	-0.383067
H119	H	0.599839	1.121169	-0.633292
N120	N	0.382846	1.574784	0.144824
H121	H	0.355808	1.560998	0.203015
H122	H	0.355833	1.675087	0.088781
H123	H	0.507280	1.372113	0.136177
H124	H	0.380705	1.562221	-0.678143
N125	N	0.711098	0.261350	0.232853
H126	H	0.759781	0.176176	0.244783
H127	H	0.667448	0.251157	0.248937
N128	N	0.930633	0.505101	0.579007
H129	H	0.899798	0.491692	0.539722
H130	H	0.899842	0.605836	0.539731
N131	N	0.722486	1.141035	-0.474541
H132	H	0.761498	1.147525	-0.442142
H133	H	0.676620	1.165257	-0.444608
N134	N	0.221578	1.693692	0.012407
H135	H	0.238331	1.715133	0.059952
H136	H	0.188040	1.663676	0.044269
N137	N	0.205259	1.594805	-0.111839
H138	H	0.162280	1.668384	-0.105238
H139	H	0.198806	1.521510	-0.081017
N140	N	0.350203	1.377023	-0.103678
H141	H	0.406148	1.301962	-0.091526
H142	H	0.319360	1.454508	-0.188405
N143	N	1.108145	0.485142	0.342245
H144	H	1.167875	0.433013	0.353423
H145	H	1.081066	0.585478	0.297915
N146	N	1.075529	0.287410	-0.062830
H147	H	1.044723	0.250673	-0.033422
H148	H	1.131500	0.212416	-0.050678
N149	N	0.591370	0.439873	0.059373
H150	H	0.585322	0.436905	-0.008256
H151	H	0.552461	0.537381	0.032871
N152	N	0.930601	0.505134	-0.070960
H153	H	0.899757	0.605891	-0.132412
H154	H	0.899831	0.491637	-0.018186
H155	H	0.756087	0.728611	-0.438424
H156	H	0.611889	0.586651	0.071177
H157	H	1.218374	0.196178	0.068554
N158	N	0.253118	0.625296	0.193900
H159	H	0.259651	0.572669	0.277284
H160	H	0.296069	0.638553	0.187233
H161	H	0.507253	1.372123	-0.495216
H162	H	0.106079	0.673260	0.169919
N163	N	0.856298	0.155290	0.636280
H164	H	0.856493	0.084460	0.705558
H165	H	0.914194	0.116490	0.640491
N166	N	0.590403	0.442690	0.512140
H167	H	0.583788	0.440594	0.582262
H168	H	0.577058	0.386966	0.507966
N169	N	1.253113	0.267421	0.551811
H170	H	1.247479	0.313455	0.468493
H171	H	1.283915	0.166666	0.591175
H172	H	0.626663	0.676867	-0.128953
H173	H	0.077652	1.107116	-0.047013
N174	N	1.253128	0.267340	0.193874
H175	H	1.296107	0.193755	0.187279
H176	H	1.259595	0.226465	0.277230
N177	N	0.871777	0.234038	0.741630
H178	H	0.850276	0.315094	0.742419
H179	H	0.929186	0.192299	0.742387
N180	N	-0.069387	1.155057	-0.070978
H181	H	-0.075920	1.207686	-0.154362
H182	H	-0.075876	1.207573	-0.040124
H183	H	1.218422	0.196211	0.748331
N184	N	0.350242	1.376974	-0.260191
H185	H	0.290512	1.429120	-0.271369
H186	H	0.377324	1.390781	-0.215869
N187	N	1.075611	0.287377	0.788573
H188	H	1.131571	0.212332	0.851448
H189	H	1.044779	0.250701	0.795822
H190	H	0.239965	1.665976	-0.666276
N191	N	0.747435	0.711030	-0.261380
H192	H	0.747150	0.710690	-0.191299
H193	H	0.782881	0.614030	-0.236436
N194	N	0.850922	0.929793	-0.547578
H195	H	0.873061	0.975766	-0.544319
H196	H	0.849724	0.935573	-0.620255
N197	N	0.871501	0.410605	0.566718
H198	H	0.838505	0.510413	0.533138
H199	H	0.918781	0.382733	0.539771
H200	H	0.225780	1.579627	-0.471475
N201	N	0.715733	1.145789	-0.653357
H202	H	0.657474	1.198306	-0.657920
H203	H	0.717079	1.146790	-0.723721
H204	H	1.106111	0.472517	0.169944
H205	H	0.625579	0.675424	0.465137
H206	H	0.611501	0.964003	-0.553779
H207	H	0.611010	0.966115	-0.395615
H208	H	0.612096	0.587191	0.354860
N209	N	0.586886	1.158052	-0.484664
H210	H	0.619881	1.172858	-0.451088
H211	H	0.539602	1.176932	-0.457725
N212	N	0.710913	0.437103	0.343430
H213	H	0.725537	0.343961	0.382526
H214	H	0.761226	0.430136	0.337462
H215	H	0.847373	0.345308	0.477683
N216	N	0.607475	0.530923	0.629677
H217	H	0.591468	0.474897	0.633222
H218	H	0.568248	0.627312	0.557280
H219	H	0.724918	0.605864	0.547677
N220	N	0.205267	1.236833	-0.111841
H221	H	0.162270	1.223678	-0.105267
H222	H	0.198810	1.289391	-0.195192
N223	N	0.867987	0.697435	-0.430052
H224	H	0.900203	0.602035	-0.356358
H225	H	0.893346	0.740570	-0.430670
N226	N	0.742670	0.430442	0.735432
H227	H	0.741395	0.363129	0.805862
H228	H	0.719022	0.514908	0.731632
H229	H	0.726155	0.444145	-0.138897
N230	N	0.738735	0.610041	-0.156124
H231	H	0.701285	0.709579	-0.223946
H232	H	0.761477	0.551767	-0.184621
N233	N	0.859874	0.151702	0.217514
H234	H	0.821449	0.129357	0.237585
H235	H	0.875558	0.165599	0.272912
H236	H	0.846214	0.343930	0.191612
H237	H	0.859583	0.403519	0.054327
H238	H	0.507256	0.740744	0.136201
N239	N	0.869154	0.240381	0.030183
H240	H	0.834771	0.259360	-0.035485
H241	H	0.917082	0.139934	0.083006
H242	H	0.296075	0.770520	0.121315
N243	N	0.382791	0.723425	0.144848
H244	H	0.355761	0.721179	0.203044
H245	H	0.442535	0.641579	0.185733
N246	N	0.350240	1.220471	-0.103662
H247	H	0.290512	1.302394	-0.144628
H248	H	0.377321	1.222585	-0.161790
H249	H	0.846288	0.718479	-0.272775
H250	H	0.162302	1.091615	-0.039245
