data_functionalizedCrystal
_audit_creation_method	'MofGen! by Chris Wilmer'
_symmetry_space_group_name_H-M	'P1'
_symmetry_Int_Tables_number	1
_symmetry_cell_setting	triclinic
loop_
_symmetry_equiv_pos_as_xyz
  x,y,z
_cell_length_a	15.995343
_cell_length_b	14.472310
_cell_length_c	14.853569
_cell_angle_alpha	90.002228
_cell_angle_beta	83.562375
_cell_angle_gamma	90.008706
loop_
_atom_site_label
_atom_site_type_symbol
_atom_site_fract_x
_atom_site_fract_y
_atom_site_fract_z
O1	O	1.111136	0.076751	0.116167
O2	O	0.867377	0.076773	0.130524
O3	O	0.995767	0.076752	-0.007893
O4	O	0.982746	0.076771	0.254584
O5	O	0.995734	-0.076930	-0.007885
O6	O	0.867344	-0.076909	0.130532
O7	O	1.111103	-0.076931	0.116175
Cu8	Cu	0.989220	-0.090952	0.123354
Cu9	Cu	0.989260	0.090794	0.123345
O10	O	0.982713	-0.076911	0.254592
C11	C	0.836165	-0.000065	0.129936
C12	C	0.743212	-0.000057	0.128160
N13	N	0.989199	-0.218783	0.123360
C14	C	0.573022	-0.000069	0.124937
C15	C	0.549559	-0.000076	0.025021
C16	C	0.452879	-0.000431	0.023141
C17	C	0.405458	-0.000081	0.121762
C18	C	0.434590	-0.087663	0.172006
C19	C	0.531383	-0.087731	0.173191
C20	C	0.531333	0.087041	0.174645
C21	C	0.434834	0.088186	0.170956
C22	C	0.310758	-0.000090	0.119973
C23	C	0.667722	-0.000066	0.126729
C24	C	0.989258	-0.592875	0.123341
C25	C	0.920328	-0.553698	0.197157
C26	C	0.920488	-0.446610	0.197426
C27	C	0.989228	-0.407284	0.123351
C28	C	1.076617	-0.446127	0.143894
C29	C	1.076230	-0.553249	0.144418
C30	C	0.971579	-0.553409	0.028763
C31	C	0.969576	-0.446281	0.029394
C32	C	0.989217	-0.302395	0.123354
C33	C	0.989276	-0.697763	0.123339
C34	C	1.142315	-0.000091	0.116763
C35	C	1.235268	-0.000093	0.118539
C36	C	0.995160	-0.000089	-0.041477
C37	C	0.993392	-0.000090	-0.141558
N38	N	0.989288	0.218625	0.123331
C39	C	0.916295	-0.000084	-0.177829
C40	C	1.068826	-0.000088	-0.199328
C41	C	1.067167	-0.000084	-0.293360
C42	C	0.990071	-0.000078	-0.329631
C43	C	0.914634	-0.000077	-0.271869
C44	C	1.142603	-0.000076	-0.351129
C45	C	1.140947	-0.000071	-0.445167
C46	C	1.063849	-0.000072	-0.481439
C47	C	0.988409	-0.000072	-0.423671
C48	C	0.911313	-0.000066	-0.459941
C49	C	0.835872	-0.000072	-0.402175
C50	C	0.837536	-0.000078	-0.308141
C51	C	1.062185	-0.000066	-0.575473
C52	C	0.909651	-0.000059	-0.553981
C53	C	0.983320	-0.000067	0.288176
C54	C	0.985088	-0.000061	0.388257
H55	H	0.577535	0.062720	-0.013711
H56	H	0.545433	0.087891	0.248189
N57	N	0.429682	-0.079658	-0.025964
N58	N	0.484930	-0.134867	-0.058945
H59	H	0.468550	-0.190826	-0.093627
H60	H	1.092549	-0.419286	0.212082
H61	H	0.433827	0.062339	-0.016190
H62	H	0.414444	-0.153094	0.137539
N63	N	0.838887	-0.413675	0.182512
N64	N	0.781423	-0.469804	0.171820
H65	H	0.723745	-0.446550	0.161455
N66	N	1.142524	-0.585803	0.079574
N67	N	1.125886	-0.635435	0.015049
H68	H	1.172714	-0.658433	-0.030731
N69	N	0.934314	-0.587457	0.284703
N70	N	0.994827	-0.640244	0.292968
H71	H	1.004708	-0.664088	0.354797
H72	H	0.854873	-0.000093	-0.130792
N73	N	0.838582	-0.586045	0.182049
N74	N	0.830167	-0.638353	0.116706
H75	H	0.772432	-0.661204	0.106032
N76	N	0.934619	-0.414453	0.285489
N77	N	0.944403	-0.471126	0.346939
H78	H	0.954370	-0.448417	0.409142
N79	N	0.585856	-0.078752	-0.022764
N80	N	0.628928	-0.134818	0.016447
H81	H	0.654565	-0.190384	-0.017298
H82	H	1.131595	-0.000111	-0.169791
N83	N	0.549769	-0.092431	0.265108
N84	N	0.524784	-0.159767	0.313545
H85	H	0.537766	-0.163096	0.378460
H86	H	1.129140	-0.420652	0.091560
N87	N	1.034629	-0.585211	-0.040144
N88	N	1.044305	-0.669883	-0.054286
H89	H	1.088836	-0.692350	-0.102946
H90	H	1.205371	-0.000137	-0.321590
H91	H	1.091793	-0.578221	0.213393
H92	H	0.909233	-0.580472	0.009009
H93	H	0.905291	-0.420894	0.013804
H94	H	0.402828	-0.090668	0.244588
N95	N	1.028455	-0.412692	-0.042740
N96	N	1.086121	-0.359231	-0.026000
H97	H	1.127711	-0.335507	-0.076943
N98	N	1.139228	-0.000069	-0.634490
N99	N	1.137735	-0.000069	-0.718448
H100	H	1.192150	-0.000072	-0.760131
N101	N	0.564910	-0.170184	0.130062
N102	N	0.516798	-0.227277	0.099296
H103	H	0.540472	-0.285512	0.068834
N104	N	0.566827	0.170339	0.135141
N105	N	0.623285	0.166512	0.069861
H106	H	0.648375	0.225336	0.041971
H107	H	0.416248	0.152981	0.134366
N108	N	0.830890	-0.000066	-0.591012
N109	N	0.763544	-0.000077	-0.539424
H110	H	0.707918	-0.000084	-0.565576
N111	N	0.757130	-0.000076	-0.439246
N112	N	0.739189	-0.064849	-0.489337
H113	H	0.683580	-0.064852	-0.515524
H114	H	0.776116	-0.000081	-0.261100
H115	H	0.401963	0.093751	0.242916
H116	H	1.202376	-0.000067	-0.492193
