data_functionalizedCrystal
_audit_creation_method	'MofGen! by Chris Wilmer'
_symmetry_space_group_name_H-M	'P1'
_symmetry_Int_Tables_number	1
_symmetry_cell_setting	triclinic
loop_
_symmetry_equiv_pos_as_xyz
  x,y,z
_cell_length_a	17.019311
_cell_length_b	27.732048
_cell_length_c	15.500227
_cell_angle_alpha	92.799543
_cell_angle_beta	83.285249
_cell_angle_gamma	83.020427
loop_
_atom_site_label
_atom_site_type_symbol
_atom_site_fract_x
_atom_site_fract_y
_atom_site_fract_z
O1	O	1.053658	0.056902	-0.150450
O2	O	1.553658	0.556902	0.349550
O3	O	0.823015	0.065287	-0.133270
O4	O	1.323015	0.565287	0.366730
O5	O	0.945499	-0.009290	-0.142377
O6	O	1.445499	0.490710	0.357623
O7	O	0.931174	0.131480	-0.141343
O8	O	1.431174	0.631480	0.358657
O9	O	0.938067	-0.004782	0.002065
O10	O	1.438067	0.495218	0.502065
O11	O	0.815583	0.069795	0.011172
O12	O	1.315583	0.569795	0.511172
O13	O	1.046226	0.061410	-0.006008
O14	O	1.546226	0.561410	0.493992
Cu15	Cu	0.930226	0.066014	0.015770
Cu16	Cu	1.430226	0.566014	0.515770
Cu17	Cu	0.939015	0.060683	-0.155048
Cu18	Cu	1.439015	0.560683	0.344952
O19	O	0.923742	0.135988	0.003099
O20	O	1.423742	0.635988	0.503099
C21	C	0.789800	0.067311	-0.058852
C22	C	1.289800	0.567311	0.441148
C23	C	0.701905	0.066621	-0.052304
C24	C	1.201905	0.566621	0.447696
C25	C	0.204577	0.062857	-0.011323
C26	C	0.704577	0.562857	0.488677
C27	C	0.287165	0.063506	-0.017477
C28	C	0.787165	0.563506	0.482523
C29	C	0.332511	0.061369	-0.099291
C30	C	0.832511	0.561369	0.400709
C31	C	0.295264	0.058589	-0.174955
C32	C	0.795264	0.558589	0.325045
C33	C	0.212678	0.057944	-0.168800
C34	C	0.712678	0.557944	0.331200
C35	C	0.582072	0.063196	-0.121813
C36	C	1.082072	0.563196	0.378187
C37	C	0.664664	0.063840	-0.127963
C38	C	1.164664	0.563840	0.372037
C39	C	0.656558	0.068758	0.029516
C40	C	1.156558	0.568758	0.529516
C41	C	0.573971	0.068110	0.035663
C42	C	1.073971	0.568110	0.535663
C43	C	0.536731	0.065332	-0.040001
C44	C	1.036731	0.565332	0.459999
C45	C	0.416929	0.062030	-0.105583
C46	C	0.916929	0.562030	0.394417
C47	C	0.452314	0.064674	-0.033707
C48	C	0.952314	0.564674	0.466293
C49	C	0.941482	-0.025044	-0.070131
C50	C	1.441482	0.474956	0.429869
C51	C	0.940576	-0.078700	-0.070057
C52	C	1.440576	0.421300	0.429943
C53	C	1.007258	-0.417412	-0.075068
C54	C	1.507258	0.082588	0.424932
C55	C	1.003899	-0.619077	-0.074830
C56	C	1.503899	-0.119077	0.425170
O57	O	1.064874	-0.650239	-0.079409
O58	O	1.564874	-0.150239	0.420591
N59	N	0.931270	-0.638314	-0.069419
N60	N	1.431270	-0.138314	0.430581
C61	C	0.859477	-0.607132	-0.064073
C62	C	1.359477	-0.107132	0.435927
O63	O	0.797625	-0.628122	-0.059475
O64	O	1.297625	-0.128122	0.440525
C65	C	0.862837	-0.405468	-0.064318
C66	C	1.362837	0.094532	0.435682
C67	C	0.935470	-0.386234	-0.069720
C68	C	1.435470	0.113766	0.430280
C69	C	1.079885	-0.398177	-0.080471
C70	C	1.579885	0.101823	0.419529
C71	C	1.080724	-0.347764	-0.080525
C72	C	1.580724	0.152236	0.419475
C73	C	1.008936	-0.316585	-0.075177
C74	C	1.508936	0.183415	0.424823
C75	C	0.936309	-0.335820	-0.069775
C76	C	1.436309	0.164180	0.430225
C77	C	0.791045	-0.374287	-0.058978
C78	C	1.291045	0.125713	0.441022
C79	C	0.791891	-0.323868	-0.059042
C80	C	1.291891	0.176132	0.440958
C81	C	0.864524	-0.304634	-0.064444
C82	C	1.364524	0.195366	0.435556
C83	C	0.865359	-0.254228	-0.064482
C84	C	1.365359	0.245772	0.435518
N85	N	0.937988	-0.234991	-0.069892
N86	N	1.437988	0.265009	0.430108
C87	C	1.009776	-0.266169	-0.075240
C88	C	1.509776	0.233831	0.424760
C89	C	0.857717	-0.713009	-0.063944
C90	C	1.357717	-0.213009	0.436056
C91	C	0.856877	-0.763425	-0.063881
C92	C	1.356877	-0.263425	0.436119
C93	C	1.001300	-0.775366	-0.074639
C94	C	1.501300	-0.275366	0.425361
C95	C	1.002139	-0.724950	-0.074695
C96	C	1.502139	-0.224950	0.425305
C97	C	0.930346	-0.693772	-0.069354
C98	C	1.430346	-0.193772	0.430646
C99	C	1.011532	-0.160297	-0.075354
C100	C	1.511532	0.339703	0.424646
C101	C	1.012364	-0.109878	-0.075405
C102	C	1.512364	0.390122	0.424595
C103	C	0.867942	-0.097941	-0.064651
C104	C	1.367942	0.402059	0.435349
C105	C	0.867109	-0.148355	-0.064596
C106	C	1.367109	0.351645	0.435404
C107	C	0.938911	-0.179532	-0.069951
C108	C	1.438911	0.320468	0.430049
O109	O	0.804417	-0.223038	-0.059914
O110	O	1.304417	0.276962	0.440086
O111	O	1.071620	-0.245170	-0.079857
O112	O	1.571620	0.254830	0.420143
C113	C	1.006419	-0.467826	-0.075013
C114	C	1.506419	0.032174	0.424987
C115	C	0.933792	-0.487061	-0.069610
C116	C	1.433792	0.012939	0.430390
C117	C	0.862004	-0.455882	-0.064263
C118	C	1.362004	0.044118	0.435737
C119	C	0.932952	-0.537476	-0.069548
C120	C	1.432952	-0.037476	0.430452
C121	C	1.004740	-0.568655	-0.074896
C122	C	1.504740	-0.068655	0.425104
C123	C	1.077369	-0.549418	-0.080306
C124	C	1.577369	-0.049418	0.419694
C125	C	1.078207	-0.499004	-0.080361
C126	C	1.578207	0.000996	0.419639
C127	C	0.789376	-0.475119	-0.058852
C128	C	1.289376	0.024881	0.441148
C129	C	0.788543	-0.525533	-0.058797
C130	C	1.288543	-0.025533	0.441203
C131	C	0.860331	-0.556712	-0.064145
C132	C	1.360331	-0.056712	0.435855
C133	C	1.079441	0.059386	-0.080428
C134	C	1.579441	0.559386	0.419572
C135	C	1.167337	0.060076	-0.086982
C136	C	1.667337	0.560076	0.413018
C137	C	0.927759	0.151741	-0.069149
C138	C	1.427759	0.651741	0.430851
C139	C	0.928665	0.205397	-0.069229
C140	C	1.428665	0.705397	0.430771
N141	N	0.924049	0.069763	0.135914
N142	N	1.424049	0.569763	0.635914
N143	N	0.945198	0.056930	-0.275193
N144	N	1.445198	0.556930	0.224807
C145	C	0.975968	0.038174	0.177331
C146	C	1.475968	0.538174	0.677331
C147	C	0.971304	0.041014	0.268250
C148	C	1.471304	0.541014	0.768250
C149	C	0.914725	0.075446	0.317752
C150	C	1.414725	0.575446	0.817752
C151	C	0.862801	0.107037	0.276329
C152	C	1.362801	0.607037	0.776329
C153	C	0.867461	0.104194	0.185412
C154	C	1.367461	0.604194	0.685412
C155	C	0.897935	0.085678	0.592467
C156	C	1.397935	0.585678	1.092467
C157	C	0.893279	0.088520	0.683391
C158	C	1.393279	0.588520	1.183391
C159	C	1.001782	0.022495	0.675305
C160	C	1.501782	0.522495	1.175305
C161	C	1.006441	0.019658	0.584386
C162	C	1.506441	0.519658	1.084386
C163	C	0.954514	0.051247	0.542972
C164	C	1.454514	0.551247	1.042972
C165	C	0.909958	0.078351	0.410686
C166	C	1.409958	0.578351	0.910686
C167	C	0.959278	0.048340	0.450039
C168	C	1.459278	0.548340	0.950039
H169	H	0.332191	0.056852	-0.241569
H170	H	0.832191	0.556852	0.258431
N171	N	0.403404	0.066980	0.054529
N172	N	0.903404	0.566980	0.554529
H173	H	0.374873	0.037177	0.059635
H174	H	0.874873	0.537177	0.559635
H175	H	0.439713	0.068181	0.101463
H176	H	0.939713	0.568181	0.601463
N177	N	0.832244	0.125659	0.736773
N178	N	1.332244	0.625659	1.236773
H179	H	0.795482	0.108459	0.777110
H180	H	1.295482	0.608459	1.277110
H181	H	0.860363	0.148154	0.772185
H182	H	1.360363	0.648154	1.272185
H183	H	0.701582	0.062104	-0.194588
H184	H	1.201582	0.562104	0.305412
H185	H	1.139869	-0.332108	-0.084928
H186	H	1.639869	0.167892	0.415072
H187	H	0.317482	0.065770	0.044132
H188	H	0.817482	0.565770	0.544132
H189	H	0.453859	0.060289	-0.172196
H190	H	0.953859	0.560289	0.327804
H191	H	1.135821	-0.574812	-0.084657
H192	H	1.635821	-0.074812	0.415343
H193	H	0.551762	0.060933	-0.183425
H194	H	1.051762	0.560933	0.316575
N195	N	0.848938	0.115487	0.464086
N196	N	1.348938	0.615487	0.964086
H197	H	0.877006	0.137985	0.499557
H198	H	1.377006	0.637985	0.999557
H199	H	0.816768	0.135038	0.424005
H200	H	1.316768	0.635038	0.924005
N201	N	1.090709	-0.089136	-0.081228
N202	N	1.590709	0.410864	0.418772
H203	H	1.124887	-0.102186	-0.137114
H204	H	1.624887	0.397814	0.362886
H205	H	1.080286	-0.052468	-0.080411
H206	H	1.580286	0.447532	0.419589
N207	N	1.057783	-0.011574	0.719977
N208	N	1.557783	0.488426	1.219977
H209	H	1.025856	-0.031718	0.759951
H210	H	1.525856	0.468282	1.259951
H211	H	1.094321	-0.033786	0.674769
H212	H	1.594321	0.466214	1.174769
H213	H	0.182357	0.055680	-0.230409
H214	H	0.682357	0.555680	0.269591
H215	H	1.070000	-0.185676	-0.079718
H216	H	1.570000	0.314324	0.420282
N217	N	1.027328	0.006959	0.312920
N218	N	1.527328	0.506959	0.812920
H219	H	1.063890	-0.015277	0.267764
H220	H	1.563890	0.484723	0.767764
H221	H	1.060157	0.026571	0.348019
H222	H	1.560157	0.526571	0.848019
H223	H	0.797731	-0.779080	-0.059467
H224	H	1.297731	-0.279080	0.440533
H225	H	0.537058	0.069839	0.102284
H226	H	1.037058	0.569839	0.602284
N227	N	1.157320	-0.431801	-0.086238
N228	N	1.657320	0.068199	0.413762
H229	H	1.203449	-0.411958	-0.089669
H230	H	1.703449	0.088042	0.410331
H231	H	1.157363	-0.451309	-0.032898
H232	H	1.657363	0.048691	0.467102
N233	N	1.080477	-0.704205	-0.080521
N234	N	1.580477	-0.204205	0.419479
H235	H	1.125823	-0.731611	-0.083897
H236	H	1.625823	-0.231611	0.416103
H237	H	1.086732	-0.685216	-0.134329
H238	H	1.586732	-0.185216	0.365671
H239	H	1.059752	-0.800761	-0.078993
H240	H	1.559752	-0.300761	0.421007
N241	N	1.067474	-0.017476	0.531000
N242	N	1.567474	0.482524	1.031000
H243	H	1.062553	-0.014480	0.467119
H244	H	1.562553	0.485520	0.967119
H245	H	1.122757	-0.011535	0.542704
H246	H	1.622757	0.488465	1.042704
H247	H	0.799252	-0.687628	-0.059594
H248	H	1.299252	-0.187628	0.440406
N249	N	0.712704	-0.395024	-0.053141
N250	N	1.212704	0.104976	0.446859
H251	H	0.667362	-0.367616	-0.049764
H252	H	1.167362	0.132384	0.450236
H253	H	0.711957	-0.417348	-0.106426
H254	H	1.211957	0.082652	0.393574
N255	N	0.714448	-0.290247	-0.053265
N256	N	1.214448	0.209753	0.446735
H257	H	0.708820	-0.267400	0.000499
H258	H	1.208820	0.232600	0.500499
H259	H	0.714368	-0.270758	-0.106628
H260	H	1.214368	0.229242	0.393372
N261	N	0.788772	-0.169104	-0.058757
N262	N	1.288772	0.330896	0.441243
H263	H	0.743423	-0.141701	-0.055375
H264	H	1.243423	0.358299	0.444625
H265	H	0.788034	-0.191424	-0.112050
H266	H	1.288034	0.308576	0.387950
N267	N	0.711943	-0.441495	-0.053084
N268	N	1.211943	0.058505	0.446916
H269	H	0.665812	-0.461336	-0.049649
H270	H	1.165812	0.038664	0.450351
H271	H	0.706388	-0.418653	0.000675
H272	H	1.206388	0.081347	0.500675
N273	N	0.696723	0.071757	0.111121
N274	N	1.196723	0.571757	0.611121
H275	H	0.755921	0.071842	0.094811
H276	H	1.255921	0.571842	0.594811
H277	H	0.673734	0.102685	0.147071
H278	H	1.173734	0.602685	0.647071
N279	N	0.710201	-0.546279	-0.052974
N280	N	1.210201	-0.046279	0.447026
H281	H	0.703871	-0.565267	0.000832
H282	H	1.203871	-0.065267	0.500832
H283	H	0.664900	-0.518850	-0.049633
H284	H	1.164900	-0.018850	0.450367
N285	N	0.790515	-0.064308	-0.058860
N286	N	1.290515	0.435692	0.441140
H287	H	0.802075	-0.029452	-0.059712
H288	H	1.302075	0.470548	0.440288
H289	H	0.761581	-0.072171	-0.110043
H290	H	1.261581	0.427829	0.389957
H291	H	1.137352	-0.483348	-0.084760
H292	H	1.637352	0.016652	0.415240
N293	N	1.036998	0.001039	0.123943
N294	N	1.536998	0.501039	0.623943
H295	H	1.069178	-0.018542	0.163980
H296	H	1.569178	0.481458	0.663980
H297	H	1.008881	-0.021430	0.088475
H298	H	1.508881	0.478570	0.588475
N299	N	0.841944	0.119752	0.547796
N300	N	1.341944	0.619752	1.047796
H301	H	0.809043	0.100194	0.512688
H302	H	1.309043	0.600194	1.012688
H303	H	0.805447	0.141992	0.592998
H304	H	1.305447	0.641992	1.092998
N305	N	0.155674	0.065158	0.076920
N306	N	0.655674	0.565158	0.576920
H307	H	0.191876	0.066682	0.123906
H308	H	0.691876	0.566682	0.623906
H309	H	0.114809	0.095141	0.083636
H310	H	0.614809	0.595141	0.583636
H311	H	0.816728	0.135071	0.316639
H312	H	1.316728	0.635071	0.816639
N313	N	0.811469	0.138267	0.140733
N314	N	1.311469	0.638267	0.640733
H315	H	0.778571	0.118707	0.105626
H316	H	1.278571	0.618707	0.605626
H317	H	0.774970	0.160506	0.185935
H318	H	1.274970	0.660506	0.685935
H319	H	1.005342	0.020303	0.409733
H320	H	1.505342	0.520303	0.909733
