data_functionalizedCrystal
_audit_creation_method	'MofGen! by Chris Wilmer'
_symmetry_space_group_name_H-M	'P1'
_symmetry_Int_Tables_number	1
_symmetry_cell_setting	triclinic
loop_
_symmetry_equiv_pos_as_xyz
  x,y,z
_cell_length_a	16.109302
_cell_length_b	17.699083
_cell_length_c	15.186229
_cell_angle_alpha	89.995368
_cell_angle_beta	89.994701
_cell_angle_gamma	83.372398
loop_
_atom_site_label
_atom_site_type_symbol
_atom_site_fract_x
_atom_site_fract_y
_atom_site_fract_z
O1	O	1.102963	0.097287	-0.073270
O2	O	0.860880	0.109394	-0.073263
O3	O	0.988761	-0.006839	-0.073259
O4	O	0.975082	0.213520	-0.073274
O5	O	0.988752	-0.006841	0.073198
O6	O	0.860871	0.109392	0.073194
O7	O	1.102954	0.097286	0.073187
Zn8	Zn	0.981911	0.103338	0.096444
Zn9	Zn	0.981923	0.103341	-0.096520
O10	O	0.975073	0.213518	0.073183
C11	C	0.829902	0.108902	-0.000034
C12	C	0.737609	0.107432	-0.000031
C13	C	0.525269	0.104031	0.079795
C14	C	0.438552	0.102641	0.079792
C15	C	0.438571	0.102646	-0.079884
C16	C	0.525288	0.104031	-0.079880
C17	C	0.568634	0.104727	-0.000038
C18	C	0.395200	0.101952	-0.000045
C19	C	0.301177	0.100445	-0.000049
C20	C	0.662664	0.106232	-0.000034
C21	C	0.988266	-0.035038	-0.000030
C22	C	0.986796	-0.119058	-0.000030
C23	C	1.061859	-0.167571	-0.000031
C24	C	1.060473	-0.246517	-0.000038
C25	C	0.984022	-0.276947	-0.000039
C26	C	0.908953	-0.228427	-0.000041
C27	C	0.910340	-0.149483	-0.000039
C28	C	0.903356	-0.546798	-0.000048
C29	C	0.901974	-0.625748	-0.000047
C30	C	1.053488	-0.643832	-0.000047
C31	C	1.054876	-0.564888	-0.000045
C32	C	0.979807	-0.516375	-0.000052
C33	C	0.981311	-0.430774	-0.000045
C34	C	0.982517	-0.362547	-0.000039
C35	C	1.133932	0.097777	-0.000044
C36	C	1.226225	0.099247	-0.000053
C37	C	0.975568	0.241717	-0.000048
C38	C	0.977038	0.325737	-0.000054
N39	N	0.981910	0.103336	0.228137
N40	N	0.981931	0.103337	-0.228212
C41	C	1.038555	0.051886	0.453861
C42	C	1.038557	0.051884	0.546051
C43	C	0.925280	0.154789	0.546056
C44	C	0.925274	0.154787	0.453868
C45	C	0.981916	0.103336	0.407773
C46	C	0.981925	0.103337	0.592151
C47	C	0.981927	0.103335	0.692107
C48	C	0.981913	0.103337	0.307811
H49	H	0.560559	0.104597	0.144807
H50	H	0.403248	0.102074	0.144800
C51	C	0.390886	0.101891	-0.167703
H52	H	0.333029	0.100975	-0.156273
H53	H	0.411530	0.058011	-0.200508
H54	H	0.398673	0.146236	-0.200502
C55	C	0.862976	0.211389	0.403164
H56	H	0.871082	0.204013	0.341659
H57	H	0.871905	0.261904	0.418263
H58	H	0.807504	0.203154	0.418279
C59	C	1.100858	-0.004709	0.596748
H60	H	1.092745	0.002653	0.658255
H61	H	1.156326	0.003523	0.581632
H62	H	1.091926	-0.055227	0.581644
H63	H	1.124114	-0.142802	-0.000025
H64	H	1.114613	-0.683341	-0.000046
H65	H	0.839715	-0.650520	-0.000045
C66	C	0.572993	0.104799	-0.167701
H67	H	0.534757	0.104198	-0.215252
H68	H	0.613253	0.061230	-0.171017
H69	H	0.600389	0.149456	-0.171015
C70	C	1.138969	-0.531415	-0.000041
H71	H	1.129044	-0.477450	-0.000032
H72	H	1.169875	-0.548063	-0.051113
H73	H	1.169863	-0.548072	0.051039
C74	C	0.820784	-0.493444	-0.000039
H75	H	0.775056	-0.522876	-0.000028
H76	H	0.818170	-0.462266	-0.051110
H77	H	0.818176	-0.462279	0.051042
C78	C	1.143042	-0.299879	-0.000030
H79	H	1.188772	-0.270449	-0.000017
H80	H	1.145662	-0.331048	-0.051103
H81	H	1.145641	-0.331052	0.051049
C82	C	0.862987	0.211387	0.596764
H83	H	0.871107	0.204027	0.658269
H84	H	0.807516	0.203157	0.581669
H85	H	0.871920	0.261904	0.581644
H86	H	0.846705	-0.253209	-0.000047
H87	H	0.849216	-0.109983	-0.000039
H88	H	1.084675	0.009991	0.416333
