data_functionalizedCrystal
_audit_creation_method	'MofGen! by Chris Wilmer'
_symmetry_space_group_name_H-M	'P1'
_symmetry_Int_Tables_number	1
_symmetry_cell_setting	triclinic
loop_
_symmetry_equiv_pos_as_xyz
  x,y,z
_cell_length_a	10.654541
_cell_length_b	11.792241
_cell_length_c	9.730217
_cell_angle_alpha	89.996588
_cell_angle_beta	89.999932
_cell_angle_gamma	84.338672
loop_
_atom_site_label
_atom_site_type_symbol
_atom_site_fract_x
_atom_site_fract_y
_atom_site_fract_z
O1	O	1.667388	0.159405	-0.114248
O2	O	1.301866	0.174596	-0.114261
O3	O	1.493497	0.001850	-0.114245
O4	O	1.475756	0.332151	-0.114264
O5	O	1.493491	0.001849	0.114336
O6	O	1.301860	0.174595	0.114320
O7	O	1.667382	0.159403	0.114332
Zn8	Zn	1.484620	0.166999	0.150618
Zn9	Zn	1.484628	0.167001	-0.150547
O10	O	1.475750	0.332149	0.114316
C11	C	1.255068	0.173481	0.000028
C12	C	1.115634	0.170145	0.000024
C13	C	1.087078	0.376710	-0.000006
C14	C	1.007297	0.478420	-0.000026
C15	C	0.876287	0.475279	-0.000027
C16	C	0.825059	0.370416	-0.000004
C17	C	0.904841	0.268706	0.000016
C18	C	1.035851	0.271858	0.000013
C19	C	0.933396	0.062144	0.000056
C20	C	1.064405	0.065282	0.000047
C21	C	0.882167	-0.042719	0.000079
C22	C	0.961949	-0.144432	0.000089
C23	C	1.092966	-0.141286	0.000089
C24	C	1.144187	-0.036428	0.000067
C25	C	1.492380	-0.040444	0.000045
C26	C	1.489044	-0.166465	0.000044
C27	C	1.482911	-0.397192	0.000020
C28	C	1.486319	-0.268799	0.000033
C29	C	1.714180	0.160519	0.000040
C30	C	1.853614	0.163854	0.000035
C31	C	1.476868	0.374443	0.000023
C32	C	1.480203	0.500465	0.000015
N33	N	1.484624	0.166997	0.356154
N34	N	1.484634	0.166994	-0.356083
C35	C	1.654383	0.014075	0.356159
C36	C	1.739271	-0.062382	0.428101
C37	C	1.739283	-0.062383	0.571981
C38	C	1.654397	0.014080	0.643922
C39	C	1.569509	0.090537	0.571979
C40	C	1.569508	0.090532	0.428096
C41	C	1.399746	0.243451	0.571975
C42	C	1.399737	0.243459	0.428095
C43	C	1.314859	0.319914	0.643916
C44	C	1.229975	0.396379	0.571973
C45	C	1.229966	0.396377	0.428085
C46	C	1.314849	0.319917	0.356153
H47	H	0.775491	-0.045269	0.000086
N48	N	1.143286	0.474487	0.645454
N49	N	1.145704	0.579418	0.629390
H50	H	1.084479	0.634585	0.681290
N51	N	1.059647	0.585521	-0.000039
N52	N	1.176619	0.588317	-0.000037
H53	H	1.213590	0.663957	-0.000042
H54	H	1.808402	-0.124645	0.630557
H55	H	1.654402	0.014065	0.761076
N56	N	0.909601	-0.251525	0.000130
N57	N	0.792627	-0.254314	0.000147
H58	H	0.755649	-0.329950	0.000176
H59	H	1.314867	0.319906	0.761070
N60	N	1.174459	-0.245183	0.000142
N61	N	1.169383	-0.314673	0.096517
H62	H	1.226935	-0.388052	0.096558
N63	N	0.794785	0.579170	-0.000018
N64	N	0.799847	0.648680	0.096328
H65	H	0.742284	0.722053	0.096337
H66	H	1.314854	0.319913	0.238998
N67	N	1.143236	0.474478	0.354624
N68	N	1.067456	0.542732	0.418878
H69	H	1.006200	0.597893	0.367002
H70	H	0.718383	0.367868	0.000012
H71	H	1.250860	-0.033857	0.000051
H72	H	1.193752	0.379277	-0.000035
H73	H	1.654391	0.014077	0.239004
H74	H	1.808383	-0.124640	0.369514
