data_functionalizedCrystal
_audit_creation_method	'MofGen! by Chris Wilmer'
_symmetry_space_group_name_H-M	'P1'
_symmetry_Int_Tables_number	1
_symmetry_cell_setting	triclinic
loop_
_symmetry_equiv_pos_as_xyz
  x,y,z
_cell_length_a	19.805407
_cell_length_b	12.645330
_cell_length_c	12.645323
_cell_angle_alpha	89.972994
_cell_angle_beta	89.975734
_cell_angle_gamma	90.014586
loop_
_atom_site_label
_atom_site_type_symbol
_atom_site_fract_x
_atom_site_fract_y
_atom_site_fract_z
Zn1	Zn	1.034826	-0.421976	-0.599476
Zn2	Zn	1.034761	-0.599264	-0.422209
Zn3	Zn	0.921633	-0.422021	-0.422215
Zn4	Zn	0.921632	-0.599204	-0.599420
O5	O	0.978213	-0.510616	-0.510830
O6	O	1.129534	-0.445500	-0.575982
O7	O	1.019727	-0.575796	-0.273862
O8	O	0.936677	-0.273668	-0.445755
O9	O	1.129486	-0.575753	-0.445745
O10	O	1.019839	-0.273635	-0.575988
O11	O	0.936613	-0.445577	-0.273867
O12	O	0.826916	-0.445518	-0.445701
O13	O	0.936674	-0.575650	-0.747774
O14	O	0.826915	-0.575694	-0.575892
O15	O	1.019837	-0.445442	-0.747816
O16	O	1.019726	-0.747603	-0.445690
O17	O	0.936610	-0.747559	-0.575886
C18	C	0.802357	-0.510605	-0.510792
C19	C	0.727125	-0.510626	-0.510800
C20	C	0.978179	-0.786046	-0.510805
C21	C	0.978226	-0.903876	-0.510829
C22	C	0.265362	-0.442920	-0.578789
C23	C	0.336051	-0.442922	-0.578781
C24	C	0.371363	-0.510632	-0.510864
C25	C	0.335983	-0.578352	-0.442957
C26	C	0.265296	-0.578355	-0.442971
C27	C	0.621057	-0.578344	-0.442901
C28	C	0.691749	-0.578334	-0.442891
C29	C	0.691811	-0.442912	-0.578711
C30	C	0.621124	-0.442914	-0.578725
C31	C	0.585751	-0.510638	-0.510823
C32	C	0.509102	-0.510636	-0.510834
C33	C	0.448010	-0.510629	-0.510847
C34	C	1.030430	-1.071424	-0.428757
C35	C	1.030600	-0.948863	-0.428958
C36	C	0.997572	-0.948257	-0.622575
C37	C	0.997987	-1.070855	-0.622140
C38	C	0.906656	-1.071207	-0.482257
C39	C	0.906999	-0.948603	-0.479751
C40	C	1.154756	-0.510628	-0.510869
C41	C	1.229988	-0.510633	-0.510885
C42	C	0.978263	-0.510534	-0.787335
C43	C	0.978284	-0.510499	-0.905165
C44	C	0.978265	-0.234111	-0.510878
C45	C	0.978288	-0.116281	-0.510899
C46	C	0.925804	-0.592028	-1.072704
C47	C	0.925942	-0.592431	-0.950144
C48	C	1.049604	-0.540814	-0.949687
C49	C	1.049316	-0.541325	-1.072285
C50	C	0.960119	-0.398201	-1.072367
C51	C	0.958527	-0.398873	-0.949760
C52	C	0.978202	-0.510621	-0.235400
C53	C	0.978312	-0.510358	-0.117571
H54	H	0.236616	-0.387777	-0.634089
N55	N	1.015438	-1.108495	-0.324506
N56	N	0.959693	-1.087641	-0.283096
H57	H	0.949102	-1.113829	-0.209466
H58	H	0.906043	-0.376012	-0.920659
H59	H	0.867805	-1.100217	-0.542085
N60	N	0.888707	-0.912230	-0.376584
N61	N	0.927945	-0.853581	-0.326076
H62	H	0.915029	-0.827889	-0.253212
N63	N	1.008091	-0.321873	-1.108787
N64	N	1.015310	-0.305917	-1.205695
H65	H	1.049192	-0.252018	-1.231423
N66	N	0.952418	-1.108108	-0.701528
N67	N	0.903365	-1.164955	-0.676185
H68	H	0.871187	-1.191264	-0.732255
N69	N	0.372175	-0.373759	-0.648161
N70	N	0.340638	-0.313310	-0.708797
H71	H	0.366150	-0.264464	-0.757803
N72	N	1.062510	-0.909625	-0.653534
N73	N	1.072343	-0.812369	-0.662289
H74	H	1.118206	-0.785084	-0.684151
N75	N	0.585065	-0.373735	-0.648099
N76	N	0.616659	-0.313280	-0.708724
H77	H	0.591193	-0.264421	-0.757723
H78	H	0.236495	-0.633496	-0.387679
H79	H	0.364740	-0.633487	-0.387662
N80	N	1.096818	-1.109113	-0.452341
N81	N	1.128573	-1.162425	-0.385599
H82	H	1.175528	-1.188724	-0.402298
H83	H	0.993977	-0.334808	-0.919143
H84	H	1.064736	-0.623314	-1.100894
N85	N	0.859255	-0.568467	-1.109649
N86	N	0.813310	-0.548134	-1.044985
H87	H	0.766308	-0.531492	-1.071084
H88	H	0.720621	-0.387771	-0.634004
N89	N	1.015412	-0.911234	-0.325012
N90	N	1.004613	-0.975519	-0.251810
H91	H	0.993887	-0.948950	-0.178393
N92	N	0.727810	-0.647506	-0.373501
N93	N	0.696220	-0.707966	-0.312878
H94	H	0.721688	-0.756814	-0.263872
N95	N	0.584944	-0.647513	-0.373520
N96	N	0.592813	-0.640354	-0.275713
H97	H	0.567308	-0.689208	-0.226705
N98	N	1.069276	-0.642602	-0.911214
N99	N	1.080885	-0.716028	-0.974814
H100	H	1.094776	-0.787919	-0.947644
H101	H	1.083656	-0.919452	-0.447903
N102	N	1.063672	-1.106612	-0.652576
N103	N	1.108890	-1.041023	-0.673988
H104	H	1.155283	-1.066270	-0.695484
N105	N	0.884593	-1.110113	-0.381815
N106	N	0.921400	-1.171543	-0.330115
H107	H	0.905826	-1.199022	-0.259174
N108	N	0.951375	-0.911697	-0.701403
N109	N	0.903564	-0.852380	-0.676042
H110	H	0.870935	-0.826558	-0.731712
N111	N	0.855628	-0.910191	-0.549289
N112	N	0.845019	-0.813039	-0.556789
H113	H	0.808740	-0.785910	-0.605909
N114	N	0.859601	-0.568617	-0.912374
N115	N	0.832364	-0.482652	-0.936047
H116	H	0.785507	-0.465836	-0.909378
H117	H	0.937698	-0.674655	-1.103520
H118	H	0.909017	-0.370567	-1.103270
N119	N	0.941033	-0.696733	-0.913374
N120	N	0.951502	-0.769454	-0.978256
H121	H	0.962162	-0.843123	-0.952290
N122	N	1.100059	-0.469940	-1.109513
N123	N	1.135575	-0.419906	-1.044947
H124	H	1.171413	-0.369492	-1.071233
H125	H	1.089775	-0.483211	-0.920556
