data_functionalizedCrystal
_audit_creation_method	'MofGen! by Chris Wilmer'
_symmetry_space_group_name_H-M	'P1'
_symmetry_Int_Tables_number	1
_symmetry_cell_setting	triclinic
loop_
_symmetry_equiv_pos_as_xyz
  x,y,z
_cell_length_a	19.077068
_cell_length_b	19.077241
_cell_length_c	11.169409
_cell_angle_alpha	92.325682
_cell_angle_beta	92.259065
_cell_angle_gamma	85.292229
loop_
_atom_site_label
_atom_site_type_symbol
_atom_site_fract_x
_atom_site_fract_y
_atom_site_fract_z
Zn1	Zn	-0.237396	-1.066489	-0.768078
Zn2	Zn	0.262604	-0.566489	-0.268078
Zn3	Zn	-0.355310	-1.061652	-0.575112
Zn4	Zn	0.144690	-0.561652	-0.075112
Zn5	Zn	-0.242163	-0.948589	-0.559631
Zn6	Zn	0.257837	-0.448589	-0.059631
Zn7	Zn	-0.359974	-0.943826	-0.767973
Zn8	Zn	0.140026	-0.443826	-0.267973
O9	O	-0.298711	-1.005139	-0.667699
O10	O	0.201289	-0.505139	-0.167699
O11	O	-0.249091	-1.164500	-0.749003
O12	O	0.250909	-0.664500	-0.249003
O13	O	-0.340344	-1.046624	-0.405109
O14	O	0.159656	-0.546624	0.094891
O15	O	-0.142879	-0.968247	-0.580848
O16	O	0.357121	-0.468247	-0.080848
O17	O	-0.335722	-1.160946	-0.607232
O18	O	0.164278	-0.660946	-0.107232
O19	O	-0.139377	-1.054868	-0.733993
O20	O	0.360623	-0.554868	-0.233993
O21	O	-0.257216	-0.963557	-0.393736
O22	O	0.242784	-0.463557	0.106264
O23	O	-0.261738	-0.849305	-0.580746
O24	O	0.238262	-0.349305	-0.080746
O25	O	-0.343671	-0.960128	-0.935936
O26	O	0.156329	-0.460128	-0.435936
O27	O	-0.348293	-0.845805	-0.733814
O28	O	0.151707	-0.345805	-0.233814
O29	O	-0.253613	-1.050249	-0.936013
O30	O	0.246387	-0.550249	-0.436013
O31	O	-0.454580	-1.042004	-0.607130
O32	O	0.045420	-0.542004	-0.107130
O33	O	-0.458007	-0.955438	-0.748825
O34	O	0.041993	-0.455438	-0.248825
C35	C	-0.306039	-0.821976	-0.655589
C36	C	0.193961	-0.321976	-0.155589
C37	C	-0.309191	-0.743617	-0.650439
C38	C	0.190809	-0.243617	-0.150439
C39	C	-0.265639	-0.708652	-0.721954
C40	C	0.234361	-0.208652	-0.221954
C41	C	-0.268597	-0.635026	-0.717103
C42	C	0.231403	-0.135026	-0.217103
C43	C	-0.315111	-0.596366	-0.640744
C44	C	0.184889	-0.096366	-0.140744
C45	C	-0.358665	-0.631336	-0.569221
C46	C	0.141335	-0.131336	-0.069221
C47	C	-0.355702	-0.704961	-0.574065
C48	C	0.144298	-0.204961	-0.074065
C49	C	-0.328796	-0.375972	-0.618320
C50	C	0.171204	0.124028	-0.118320
C51	C	-0.331756	-0.302342	-0.613483
C52	C	0.168244	0.197658	-0.113483
C53	C	-0.241688	-0.306037	-0.761365
C54	C	0.258312	0.193963	-0.261365
C55	C	-0.238733	-0.379663	-0.766208
C56	C	0.261267	0.120337	-0.266208
C57	C	-0.282283	-0.414627	-0.694680
C58	C	0.217717	0.085373	-0.194680
N59	N	-0.318138	-0.521108	-0.635787
N60	N	0.181862	-0.021108	-0.135787
N61	N	-0.279253	-0.489884	-0.699632
N62	N	0.220747	0.010116	-0.199632
C63	C	-0.481872	-0.997698	-0.679673
C64	C	0.018128	-0.497698	-0.179673
C65	C	-0.560227	-0.994580	-0.684840
C66	C	-0.060227	-0.494580	-0.184840
C67	C	-0.595229	-1.038220	-0.613561
C68	C	-0.095229	-0.538220	-0.113561
C69	C	-0.668851	-1.035291	-0.618428
C70	C	-0.168851	-0.535291	-0.118428
C71	C	-0.707470	-0.988717	-0.694569
C72	C	-0.207470	-0.488717	-0.194569
C73	C	-0.672462	-0.945075	-0.765857
C74	C	-0.172462	-0.445075	-0.265857
C75	C	-0.598841	-0.948008	-0.760995
C76	C	-0.098841	-0.448008	-0.260995
C77	C	-0.927848	-0.975111	-0.717019
C78	C	-0.427848	-0.475111	-0.217019
C79	C	-1.001474	-0.972180	-0.721873
C80	C	-0.501474	-0.472180	-0.221873
C81	C	-0.997858	-1.062397	-0.574446
C82	C	-0.497858	-0.562397	-0.074446
C83	C	-0.924235	-1.065323	-0.569586
C84	C	-0.424235	-0.565323	-0.069586
C85	C	-0.889234	-1.021683	-0.640877
C86	C	-0.389234	-0.521683	-0.140877
N87	N	-0.782724	-0.985720	-0.699543
N88	N	-0.282724	-0.485720	-0.199543
N89	N	-0.813981	-1.024684	-0.635909
N90	N	-0.313981	-0.524684	-0.135909
C91	C	-0.114834	-1.012628	-0.655705
C92	C	0.385166	-0.512628	-0.155705
C93	C	-0.036476	-1.015820	-0.650594
C94	C	0.463524	-0.515820	-0.150594
C95	C	-0.298630	-1.005197	-0.980740
C96	C	0.201370	-0.505197	-0.480740
C97	C	-0.298596	-1.005221	-1.114139
C98	C	0.201404	-0.505221	-0.614139
C99	C	-0.291351	-0.189018	-0.679846
C100	C	0.208649	0.310982	-0.179846
C101	C	-0.288205	-0.267377	-0.684998
C102	C	0.211795	0.232623	-0.184998
C103	C	-0.298739	-1.005125	-0.355875
C104	C	0.201261	-0.505125	0.144125
C105	C	-0.298569	-1.005245	-0.222472
C106	C	0.201431	-0.505245	0.277528
H107	H	-0.206230	-0.277561	-0.819596
H108	H	0.293770	0.222439	-0.319596
H109	H	-0.892793	-1.103247	-0.507585
H110	H	-0.392793	-0.603247	-0.007585
C111	C	-0.220689	-0.596568	-0.795780
C112	C	0.279311	-0.096568	-0.295780
N113	N	-0.184602	-0.567601	-0.855043
N114	N	0.315398	-0.067601	-0.355043
C115	C	-1.036365	-1.110399	-0.496034
C116	C	-0.536365	-0.610399	0.003966
N117	N	-1.065369	-1.146558	-0.436974
N118	N	-0.565369	-0.646558	0.063026
H119	H	-0.369637	-0.270866	-0.551301
H120	H	0.130363	0.229134	-0.051301
H121	H	-0.570343	-0.912472	-0.819039
H122	H	-0.070343	-0.412472	-0.319039
C123	C	-0.707351	-1.083294	-0.540007
C124	C	-0.207351	-0.583294	-0.040007
N125	N	-0.736348	-1.119452	-0.480934
N126	N	-0.236348	-0.619452	0.019066
H127	H	-1.032915	-0.934262	-0.783898
H128	H	-0.532915	-0.434262	-0.283898
C129	C	-0.187557	-0.422184	-0.850198
C130	C	0.312443	0.077816	-0.350198
N131	N	-0.149011	-0.454211	-0.913460
N132	N	0.350989	0.045789	-0.413460
H133	H	-0.899356	-0.939577	-0.775066
H134	H	-0.399356	-0.439577	-0.275066
H135	H	-0.563790	-1.076142	-0.551553
H136	H	-0.063790	-0.576142	-0.051553
C137	C	-0.403614	-0.743422	-0.495396
C138	C	0.096386	-0.243422	0.004604
N139	N	-0.439702	-0.772390	-0.436137
N140	N	0.060298	-0.272390	0.063863
H141	H	-0.396534	-0.599853	-0.507041
H142	H	0.103466	-0.099853	-0.007041
C143	C	-0.376707	-0.414422	-0.539642
C144	C	0.123293	0.085578	-0.039642
N145	N	-0.412796	-0.443386	-0.480379
N146	N	0.087204	0.056614	0.019621
C147	C	-0.714946	-0.893841	-0.849609
C148	C	-0.214946	-0.393841	-0.349609
N149	N	-0.746944	-0.855247	-0.912687
N150	N	-0.246944	-0.355247	-0.412687
H151	H	-0.227764	-0.740124	-0.784137
H152	H	0.272236	-0.240124	-0.284137
