data_functionalizedCrystal
_audit_creation_method	'MofGen! by Chris Wilmer'
_symmetry_space_group_name_H-M	'P1'
_symmetry_Int_Tables_number	1
_symmetry_cell_setting	triclinic
loop_
_symmetry_equiv_pos_as_xyz
  x,y,z
_cell_length_a	12.759400
_cell_length_b	18.215407
_cell_length_c	18.215399
_cell_angle_alpha	89.982223
_cell_angle_beta	90.024546
_cell_angle_gamma	89.989695
loop_
_atom_site_label
_atom_site_type_symbol
_atom_site_fract_x
_atom_site_fract_y
_atom_site_fract_z
Zn1	Zn	-0.418400	-1.125124	0.416093
Zn2	Zn	-0.594097	-1.125054	0.293034
Zn3	Zn	-0.418419	-1.002057	0.293045
Zn4	Zn	-0.594024	-1.002044	0.416063
O5	O	-0.506235	-1.063570	0.354559
O6	O	-0.441729	-1.228099	0.399777
O7	O	-0.570832	-1.108714	0.190051
O8	O	-0.271396	-1.018416	0.309384
O9	O	-0.570813	-1.228048	0.309366
O10	O	-0.271381	-1.108833	0.399787
O11	O	-0.441762	-1.018349	0.190059
O12	O	-0.441691	-0.899071	0.309355
O13	O	-0.570688	-1.018395	0.519051
O14	O	-0.570707	-0.899062	0.399737
O15	O	-0.441658	-1.108821	0.519073
O16	O	-0.741109	-1.108703	0.309337
O17	O	-0.741055	-1.018328	0.399726
C18	C	-0.506194	-0.872364	0.354544
C19	C	-0.506202	-0.790565	0.354556
C20	C	-0.439118	-0.602396	0.401706
C21	C	-0.439123	-0.525538	0.401708
C22	C	-0.573337	-0.525495	0.307417
C23	C	-0.573325	-0.602353	0.307412
C24	C	-0.506217	-0.640801	0.354561
C25	C	-0.506234	-0.487085	0.354568
C26	C	-0.506241	-0.403752	0.354569
C27	C	-0.506209	-0.724140	0.354558
C28	C	-0.779202	-1.063526	0.354543
C29	C	-0.895979	-1.063575	0.354561
C30	C	-0.950834	-1.110685	0.307548
C31	C	-1.060558	-1.110730	0.307570
C32	C	-1.060562	-1.016549	0.401622
C33	C	-0.950840	-1.016508	0.401603
C34	C	-0.895973	-1.157753	0.260506
C35	C	-0.950828	-1.204866	0.213488
C36	C	-1.060552	-1.204911	0.213511
C37	C	-1.115421	-1.157843	0.260552
C38	C	-0.232202	-1.063634	0.354590
C39	C	-0.115425	-1.063661	0.354604
C40	C	-0.506163	-1.063615	0.546512
C41	C	-0.506132	-1.063634	0.628311
C42	C	-0.506266	-0.255523	0.354572
C43	C	-0.506249	-0.337322	0.354573
C44	C	-0.506231	-1.063568	0.163352
C45	C	-0.505966	-1.063691	0.081554
C46	C	-0.438883	-1.110736	0.816517
C47	C	-0.438852	-1.110744	0.893376
C48	C	-0.573218	-1.016584	0.893342
C49	C	-0.573243	-1.016572	0.816485
C50	C	-0.506077	-1.063652	0.778074
C51	C	-0.506022	-1.063673	0.931790
C52	C	-0.505989	-1.063682	1.015124
C53	C	-0.506108	-1.063642	0.694735
H54	H	-0.627967	-0.633623	0.269017
Br55	Br	-0.664371	-0.952696	0.945475
Br56	Br	-0.747063	-1.157920	0.260700
H57	H	-0.906149	-1.243192	0.175193
H58	H	-0.627959	-0.978226	0.785183
Br59	Br	-0.876387	-0.952575	0.465412
H60	H	-0.384482	-0.494272	0.440097
Br61	Br	-0.664409	-0.473311	0.243435
H62	H	-1.105213	-1.243279	0.175232
Br63	Br	-0.348041	-0.654575	0.465690
H64	H	-0.384189	-1.149069	0.785246
Br65	Br	-1.135027	-0.952673	0.465458
Br66	Br	-1.264332	-1.157569	0.260245
H67	H	-0.384135	-1.149083	0.924673
