data_functionalizedCrystal
_audit_creation_method	'MofGen! by Chris Wilmer'
_symmetry_space_group_name_H-M	'P1'
_symmetry_Int_Tables_number	1
_symmetry_cell_setting	triclinic
loop_
_symmetry_equiv_pos_as_xyz
  x,y,z
_cell_length_a	10.654550
_cell_length_b	14.853567
_cell_length_c	9.730223
_cell_angle_alpha	90.002458
_cell_angle_beta	89.996251
_cell_angle_gamma	84.059917
loop_
_atom_site_label
_atom_site_type_symbol
_atom_site_fract_x
_atom_site_fract_y
_atom_site_fract_z
O1	O	1.666519	0.126622	-0.114390
O2	O	1.300915	0.138686	-0.114367
O3	O	1.493482	0.001477	-0.114383
O4	O	1.473951	0.263832	-0.114374
O5	O	1.493480	0.001480	0.114197
O6	O	1.300912	0.138690	0.114213
O7	O	1.666516	0.126625	0.114190
Zn8	Zn	1.483714	0.132658	0.150493
Zn9	Zn	1.483717	0.132654	-0.150671
O10	O	1.473949	0.263835	0.114206
C11	C	1.254125	0.137802	-0.000074
C12	C	1.114709	0.135152	-0.000066
C13	C	1.034384	0.215939	-0.000083
C14	C	0.903389	0.213443	-0.000107
C15	C	0.933057	0.049367	-0.000102
C16	C	1.064050	0.051863	-0.000068
C17	C	1.017254	0.310667	-0.000091
C18	C	0.886260	0.308171	-0.000115
C19	C	1.492596	-0.032115	-0.000097
C20	C	1.489944	-0.132213	-0.000109
C21	C	1.364344	-0.545419	-0.000075
C22	C	1.593119	-0.565475	-0.000090
C23	C	1.595613	-0.471428	-0.000098
C24	C	1.482470	-0.414372	-0.000093
C25	C	1.366834	-0.451363	-0.000079
C26	C	1.711247	-0.434430	-0.000097
C27	C	1.713745	-0.340378	-0.000104
C28	C	1.600601	-0.283320	-0.000109
C29	C	1.484961	-0.320316	-0.000097
C30	C	1.371818	-0.263260	-0.000091
C31	C	1.256176	-0.300254	-0.000089
C32	C	1.253691	-0.394305	-0.000084
C33	C	1.603087	-0.189269	-0.000114
C34	C	1.374308	-0.169204	-0.000096
C35	C	1.713306	0.127510	-0.000106
C36	C	1.852722	0.130160	-0.000123
C37	C	1.474835	0.297427	-0.000083
C38	C	1.477487	0.397525	-0.000080
N39	N	1.483721	0.132661	0.356030
N40	N	1.483720	0.132644	-0.356207
C41	C	1.569012	0.071925	0.427949
C42	C	1.569009	0.071914	0.571832
C43	C	1.398420	0.193382	0.571864
C44	C	1.398418	0.193388	0.427984
C45	C	1.667504	0.001799	0.427931
C46	C	1.667501	0.001788	0.571814
H47	H	0.844157	0.343862	-0.095782
C48	C	1.819503	-0.575856	-0.000108
C49	C	1.717482	-0.628188	-0.000094
H50	H	1.896282	-0.614576	-0.000106
H51	H	1.815715	-0.538763	-0.079817
H52	H	1.815712	-0.538747	0.079605
H53	H	1.721268	-0.665292	-0.079813
H54	H	1.721272	-0.665296	0.079623
H55	H	1.164056	-0.253787	-0.000075
C56	C	1.939634	-0.369660	-0.000128
C57	C	1.840854	-0.299718	-0.000123
H58	H	2.018105	-0.344555	-0.000151
H59	H	1.933907	-0.405916	0.079585
H60	H	1.933891	-0.405935	-0.079838
H61	H	1.846592	-0.263447	0.079593
H62	H	1.846584	-0.263447	-0.079844
C63	C	1.227548	0.211809	0.266195
C64	C	1.304662	0.260146	0.348925
H65	H	1.169662	0.253027	0.217393
H66	H	1.278347	0.175652	0.202758
H67	H	1.182320	0.173978	0.322335
H68	H	1.349897	0.297972	0.292784
H69	H	1.253856	0.296319	0.412369
C70	C	1.738603	-0.095140	-0.117623
C71	C	1.730183	-0.148599	-0.000116
H72	H	1.817069	-0.070029	-0.117619
H73	H	1.732891	-0.131422	-0.197315
H74	H	1.671568	-0.047705	-0.117614
H75	H	1.797213	-0.196038	-0.000131
H76	H	1.735907	-0.112315	0.079596
H77	H	1.328968	0.242824	0.630465
C78	C	1.850970	-0.049835	0.704461
C79	C	1.797564	0.022638	0.624542
H80	H	1.931263	-0.036964	0.737006
H81	H	1.797440	-0.058420	0.780375
H82	H	1.860443	-0.103271	0.650190
H83	H	1.788082	0.076073	0.678816
H84	H	1.851106	0.031233	0.548617
C85	C	1.258931	-0.680679	-0.000065
C86	C	1.237234	-0.586078	-0.000066
H87	H	1.180457	-0.705778	-0.000050
H88	H	1.305512	-0.700210	-0.079775
H89	H	1.305523	-0.700204	0.079647
H90	H	1.190650	-0.566553	-0.079784
H91	H	1.190634	-0.566539	0.079653
H92	H	1.646781	-0.067496	0.388876
H93	H	1.803361	-0.480892	-0.000089
H94	H	1.129447	-0.013921	-0.000035
C95	C	1.805553	0.119303	0.412195
C96	C	1.790293	0.031449	0.367698
H97	H	1.881362	0.137610	0.375023
H98	H	1.735959	0.159589	0.382043
H99	H	1.809707	0.120288	0.509698
H100	H	1.786130	0.030466	0.270195
H101	H	1.859905	-0.008847	0.397842
H102	H	1.637668	-0.063695	0.616429
H103	H	0.840290	0.336801	0.098570
H104	H	0.891794	-0.018444	-0.000125
H105	H	1.046200	0.347716	0.095576
H106	H	1.282173	-0.122754	-0.000097
C107	C	1.008325	0.440150	-0.148831
C108	C	1.064978	0.351390	-0.133304
H109	H	1.037797	0.465289	-0.231069
H110	H	0.919328	0.439801	-0.153392
H111	H	1.029451	0.475559	-0.072570
H112	H	1.043845	0.315979	-0.209561
H113	H	1.153996	0.351733	-0.128754
H114	H	1.159541	-0.424435	-0.000080
