data_functionalizedCrystal
_audit_creation_method	'MofGen! by Chris Wilmer'
_symmetry_space_group_name_H-M	'P1'
_symmetry_Int_Tables_number	1
_symmetry_cell_setting	triclinic
loop_
_symmetry_equiv_pos_as_xyz
  x,y,z
_cell_length_a	11.169417
_cell_length_b	25.639239
_cell_length_c	11.169409
_cell_angle_alpha	89.960719
_cell_angle_beta	89.980176
_cell_angle_gamma	90.039565
loop_
_atom_site_label
_atom_site_type_symbol
_atom_site_fract_x
_atom_site_fract_y
_atom_site_fract_z
Zn1	Zn	1.834726	-0.208096	-0.678485
Zn2	Zn	1.834516	-0.295546	-0.477777
Zn3	Zn	1.634012	-0.208128	-0.477819
Zn4	Zn	1.633920	-0.295504	-0.678422
O5	O	1.734293	-0.251819	-0.578126
O6	O	2.002648	-0.219701	-0.651869
O7	O	1.807869	-0.283981	-0.309833
O8	O	1.660763	-0.134959	-0.504482
O9	O	2.002494	-0.283950	-0.504410
O10	O	1.808227	-0.134935	-0.651910
O11	O	1.660560	-0.219755	-0.309864
O12	O	1.466050	-0.219714	-0.504421
O13	O	1.660607	-0.283878	-0.846380
O14	O	1.465983	-0.283909	-0.651803
O15	O	1.808138	-0.219660	-0.846426
O16	O	1.807780	-0.368706	-0.504350
O17	O	1.660403	-0.368675	-0.651763
C18	C	1.422469	-0.251811	-0.578110
C19	C	1.289069	-0.251820	-0.578132
C20	C	1.734092	-0.387661	-0.578071
C21	C	1.734115	-0.445775	-0.578088
C22	C	1.811233	-0.806142	-0.501499
C23	C	1.811279	-0.860746	-0.501515
O24	O	1.876638	-0.888986	-0.436336
N25	N	1.734504	-0.888058	-0.578205
C26	C	1.657686	-0.860762	-0.654894
O27	O	1.592388	-0.889006	-0.720127
C28	C	1.657647	-0.806159	-0.654883
C29	C	1.734418	-0.778850	-0.578178
C30	C	1.887999	-0.778833	-0.424802
C31	C	1.887951	-0.724233	-0.424784
C32	C	1.811136	-0.696941	-0.501464
C33	C	1.734370	-0.724249	-0.578161
C34	C	1.580836	-0.778864	-0.731576
C35	C	1.580804	-0.724257	-0.731559
C36	C	1.657575	-0.696948	-0.654855
C37	C	1.657507	-0.642357	-0.654823
N38	N	1.734282	-0.615046	-0.578133
C39	C	1.811097	-0.642338	-0.501453
C40	C	1.657777	-0.975432	-0.654912
C41	C	1.657809	-1.030035	-0.654918
C42	C	1.811404	-1.030015	-0.501540
C43	C	1.811365	-0.975412	-0.501529
C44	C	1.734552	-0.948121	-0.578221
C45	C	1.810988	-0.527673	-0.501422
C46	C	1.810930	-0.473067	-0.501408
C47	C	1.657340	-0.473091	-0.654789
C48	C	1.657393	-0.527692	-0.654799
C49	C	1.734228	-0.554981	-0.578112
O50	O	1.592185	-0.614082	-0.719973
O51	O	1.876395	-0.614086	-0.436242
C52	C	2.047336	-0.251827	-0.578142
C53	C	2.180736	-0.251830	-0.578149
C54	C	1.734386	-0.251761	-0.891168
C55	C	1.734425	-0.251736	-1.024569
C56	C	1.734529	-0.115446	-0.578207
C57	C	1.734629	-0.057331	-0.578242
C58	C	1.734271	-0.251839	-0.266301
C59	C	1.734464	-0.251716	-0.132902
H60	H	1.873557	-0.549885	-0.438978
H61	H	1.518314	-0.801089	-0.794031
O62	O	1.886236	-1.056456	-0.427120
C63	C	2.005805	-1.043036	-0.453522
H64	H	2.008174	-1.003377	-0.499670
H65	H	2.046233	-1.073725	-0.515270
C66	C	2.075697	-1.089205	-0.279931
C67	C	2.078607	-1.040493	-0.336601
H68	H	2.120607	-1.087638	-0.207811
H69	H	1.995141	-1.098248	-0.262145
H70	H	2.109384	-1.114774	-0.331400
H71	H	2.044906	-1.014927	-0.285138
H72	H	2.159159	-1.031445	-0.354376
H73	H	1.518254	-0.702039	-0.794015
H74	H	1.950557	-0.801049	-0.362360
H75	H	1.595217	-0.953215	-0.717360
H76	H	1.594884	-0.549928	-0.717262
O77	O	1.583353	-1.056535	-0.729592
C78	C	1.609491	-1.043123	-0.849224
H79	H	1.705358	-1.028070	-0.855358
H80	H	1.545109	-1.011443	-0.880522
C81	C	1.477769	-1.110092	-0.921803
C82	C	1.595518	-1.091607	-0.929339
H83	H	1.469145	-1.139997	-0.971224
H84	H	1.460155	-1.119127	-0.841205
H85	H	1.424130	-1.083687	-0.947883
H86	H	1.649154	-1.118009	-0.903245
H87	H	1.613142	-1.082577	-1.009934
O88	O	1.582904	-0.446549	-0.729403
C89	C	1.651192	-0.414898	-0.806932
H90	H	1.745721	-0.431315	-0.814422
H91	H	1.655324	-0.373528	-0.769805
C92	C	1.476408	-0.393867	-0.922457
C93	C	1.592508	-0.414034	-0.931664
H94	H	1.440208	-0.393332	-0.999397
H95	H	1.430400	-0.415190	-0.870222
H96	H	1.479868	-0.359395	-0.891513
H97	H	1.589047	-0.448508	-0.962593
H98	H	1.638515	-0.392717	-0.983908
O99	O	1.885624	-0.446621	-0.426857
C100	C	1.953411	-0.482423	-0.359166
H101	H	1.957571	-0.521326	-0.408346
H102	H	1.909513	-0.488285	-0.267979
C103	C	2.076030	-0.413281	-0.281566
C104	C	2.081147	-0.461061	-0.341974
H105	H	2.154822	-0.400104	-0.270955
H106	H	2.030358	-0.389160	-0.327167
H107	H	2.039442	-0.418173	-0.205583
H108	H	2.117720	-0.456168	-0.417961
H109	H	2.126829	-0.485181	-0.296385
O110	O	1.962481	-0.697768	-0.350117
C111	C	1.936314	-0.711157	-0.230479
H112	H	1.890192	-0.750821	-0.227965
H113	H	1.874626	-0.680464	-0.189978
C114	C	2.110013	-0.664951	-0.160984
C115	C	2.053374	-0.713668	-0.157896
H116	H	2.182219	-0.666498	-0.116209
H117	H	2.127641	-0.655929	-0.241586
H118	H	2.058594	-0.639379	-0.127236
H119	H	2.104786	-0.739239	-0.191657
H120	H	2.035757	-0.722695	-0.077297
O121	O	1.886005	-0.948830	-0.427192
C122	C	1.963493	-0.917200	-0.495578
H123	H	1.921114	-0.909003	-0.586493
H124	H	2.052437	-0.938204	-0.508848
C125	C	2.037283	-0.875415	-0.317881
C126	C	1.985229	-0.865344	-0.429540
H127	H	2.050697	-0.843429	-0.277144
H128	H	1.985082	-0.896726	-0.271806
H129	H	2.111398	-0.892921	-0.328954
H130	H	1.911109	-0.847845	-0.418464
H131	H	2.037418	-0.844029	-0.475611
