data_functionalizedCrystal
_audit_creation_method	'MofGen! by Chris Wilmer'
_symmetry_space_group_name_H-M	'P1'
_symmetry_Int_Tables_number	1
_symmetry_cell_setting	triclinic
loop_
_symmetry_equiv_pos_as_xyz
  x,y,z
_cell_length_a	16.120530
_cell_length_b	12.645330
_cell_length_c	12.645323
_cell_angle_alpha	89.975130
_cell_angle_beta	87.080466
_cell_angle_gamma	87.113442
loop_
_atom_site_label
_atom_site_type_symbol
_atom_site_fract_x
_atom_site_fract_y
_atom_site_fract_z
Zn1	Zn	1.274613	-0.504324	-0.681531
Zn2	Zn	1.274520	-0.681606	-0.504265
Zn3	Zn	1.135188	-0.495361	-0.495296
Zn4	Zn	1.135173	-0.672543	-0.672507
O5	O	1.204873	-0.588458	-0.588400
O6	O	1.391267	-0.535384	-0.665546
O7	O	1.256004	-0.656942	-0.354726
O8	O	1.153728	-0.348206	-0.520024
O9	O	1.391199	-0.665632	-0.535310
O10	O	1.256163	-0.354790	-0.656850
O11	O	1.153638	-0.520109	-0.348137
O12	O	1.018519	-0.511321	-0.511274
O13	O	1.153703	-0.650186	-0.822053
O14	O	1.018509	-0.641496	-0.641469
O15	O	1.256149	-0.526596	-0.828683
O16	O	1.255990	-0.828748	-0.526559
O17	O	1.153613	-0.822089	-0.650166
C18	C	0.988264	-0.574453	-0.574420
C19	C	0.895597	-0.568487	-0.568464
C20	C	0.725934	-0.557570	-0.557600
C21	C	0.684653	-0.619425	-0.619278
C22	C	0.590247	-0.613350	-0.613233
C23	C	0.820349	-0.563643	-0.563643
C24	C	1.204813	-0.863884	-0.588381
C25	C	1.204863	-0.981717	-0.588413
C26	C	1.140723	-1.145154	-0.666444
C27	C	1.140395	-1.022573	-0.666159
C28	C	1.181077	-1.024776	-0.475160
C29	C	1.180685	-1.147349	-0.475633
C30	C	1.293181	-1.154509	-0.622756
C31	C	1.292640	-1.031867	-0.625164
C32	C	1.422329	-0.602519	-0.602435
C33	C	1.514996	-0.608511	-0.608416
C34	C	1.204935	-0.588380	-0.864909
C35	C	1.204961	-0.588347	-0.982741
C36	C	1.204957	-0.311958	-0.588443
C37	C	1.204993	-0.194131	-0.588462
C38	C	1.140314	-0.665699	-1.146121
C39	C	1.140483	-0.666113	-1.023572
C40	C	1.292806	-0.624337	-1.032918
C41	C	1.292452	-0.624825	-1.155494
C42	C	1.182593	-0.474603	-1.148498
C43	C	1.180634	-0.475149	-1.025766
C44	C	1.204860	-0.588463	-0.312969
C45	C	1.204996	-0.588208	-0.195148
H46	H	0.690377	-0.500058	-0.500259
C47	C	1.160497	-0.983132	-0.779369
N48	N	1.175635	-0.953429	-0.864645
C49	C	1.160637	-1.186182	-0.780010
N50	N	1.175636	-1.217094	-0.865550
H51	H	1.075016	-0.989117	-0.642991
H52	H	1.075753	-1.171860	-0.643544
C53	C	1.318097	-0.737248	-1.195800
N54	N	1.337411	-0.821929	-1.226153
C55	C	1.241170	-1.191323	-0.394040
N56	N	1.286722	-1.224438	-0.332579
H57	H	1.074980	-0.642691	-1.171387
C58	C	0.732691	-0.697136	-0.696740
N59	N	0.768877	-0.755670	-0.755078
H60	H	1.310578	-1.003875	-0.708541
H61	H	1.116219	-1.171878	-0.447241
H62	H	1.154958	-0.749272	-1.177883
C63	C	1.242305	-0.989331	-0.394179
N64	N	1.288422	-0.962629	-0.333185
H65	H	1.119652	-0.442903	-1.175349
C66	C	1.094889	-0.977869	-0.436272
N67	N	1.029969	-0.942541	-0.406988
H68	H	1.314879	-1.186754	-0.704236
H69	H	1.343046	-1.004471	-0.572953
H70	H	1.341064	-1.186588	-0.566028
H71	H	1.075343	-0.642935	-0.989275
H72	H	1.342279	-0.571142	-1.188381
H73	H	1.155272	-0.750216	-0.995211
H74	H	1.342291	-0.569931	-1.006970
C75	C	1.318898	-0.735629	-0.993148
N76	N	1.338545	-0.819458	-0.963195
H77	H	1.115987	-0.448111	-0.992503
H78	H	1.224303	-0.413905	-0.997957
H79	H	1.229704	-0.416800	-1.180546
