data_functionalizedCrystal
_audit_creation_method	'MofGen! by Chris Wilmer'
_symmetry_space_group_name_H-M	'P1'
_symmetry_Int_Tables_number	1
_symmetry_cell_setting	triclinic
loop_
_symmetry_equiv_pos_as_xyz
  x,y,z
_cell_length_a	13.897449
_cell_length_b	13.897441
_cell_length_c	13.897448
_cell_angle_alpha	89.970373
_cell_angle_beta	89.981028
_cell_angle_gamma	90.018596
loop_
_atom_site_label
_atom_site_type_symbol
_atom_site_fract_x
_atom_site_fract_y
_atom_site_fract_z
Zn1	Zn	-1.474682	-0.545381	-0.383960
Zn2	Zn	-0.974682	-0.045381	0.116040
Zn3	Zn	-1.474582	-0.384083	-0.545279
Zn4	Zn	-0.974582	0.115917	-0.045279
Zn5	Zn	-1.313377	-0.384100	-0.384004
Zn6	Zn	-0.813377	0.115900	0.115996
Zn7	Zn	-1.313353	-0.545335	-0.545219
Zn8	Zn	-0.813353	-0.045335	-0.045219
O9	O	-1.393999	-0.464725	-0.464616
O10	O	-0.893999	0.035275	0.035384
O11	O	-1.609651	-0.523997	-0.405367
O12	O	-1.109651	-0.023997	0.094633
O13	O	-1.453166	-0.249103	-0.523929
O14	O	-0.953166	0.250897	-0.023929
O15	O	-1.334827	-0.405520	-0.249016
O16	O	-0.834827	0.094480	0.250984
O17	O	-1.609577	-0.405491	-0.523887
O18	O	-1.109577	0.094509	-0.023887
O19	O	-1.453337	-0.524013	-0.248985
O20	O	-0.953337	-0.024013	0.251015
O21	O	-1.334730	-0.249116	-0.405441
O22	O	-0.834730	0.250884	0.094559
O23	O	-1.178393	-0.405476	-0.405382
O24	O	-0.678393	0.094524	0.094618
O25	O	-1.334785	-0.680323	-0.523784
O26	O	-0.834785	-0.180323	-0.023784
O27	O	-1.178375	-0.523935	-0.523826
O28	O	-0.678375	-0.023935	-0.023826
O29	O	-1.453313	-0.680357	-0.405308
O30	O	-0.953313	-0.180357	0.094692
O31	O	-1.453143	-0.405447	-0.680253
O32	O	-0.953143	0.094553	-0.180253
O33	O	-1.334688	-0.523918	-0.680208
O34	O	-0.834688	-0.023918	-0.180208
C35	C	-1.143384	-0.464703	-0.464603
C36	C	-0.643384	0.035297	0.035397
C37	C	-1.036171	-0.464716	-0.464620
C38	C	-0.536171	0.035284	0.035380
C39	C	-1.393928	-0.464697	-0.715230
C40	C	-0.893928	0.035303	-0.215230
C41	C	-1.393987	-0.464717	-0.822444
C42	C	-0.893987	0.035283	-0.322444
C43	C	-1.394058	-0.716318	-0.464535
C44	C	-0.894058	-0.216318	0.035465
C45	C	-1.394083	-0.823532	-0.464500
C46	C	-0.894083	-0.323532	0.035500
C47	C	-1.645592	-0.464747	-0.464629
C48	C	-1.145592	0.035253	0.035371
C49	C	-1.752806	-0.464757	-0.464635
C50	C	-1.252806	0.035243	0.035365
C51	C	-0.839875	-0.464741	-0.464624
C52	C	-0.339875	0.035259	0.035376
C53	C	-0.949108	-0.464725	-0.464619
C54	C	-0.449108	0.035275	0.035381
C55	C	-1.394103	-0.910602	-0.464473
C56	C	-0.894103	-0.410602	0.035527
C57	C	-1.394130	-1.019834	-0.464429
C58	C	-0.894130	-0.519834	0.035571
C59	C	-1.393995	-0.214110	-0.464627
C60	C	-0.893995	0.285890	0.035373
C61	C	-1.394157	-0.106897	-0.464389
C62	C	-0.894157	0.393103	0.035611
C63	C	-1.394088	-0.464778	-1.018739
C64	C	-0.894088	0.035222	-0.518739
C65	C	-1.394029	-0.464747	-0.909506
C66	C	-0.894029	0.035253	-0.409506
C67	C	-1.394096	-0.464774	-0.213023
C68	C	-0.894096	0.035226	0.286977
C69	C	-1.394137	-0.464795	-0.105809
C70	C	-0.894137	0.035205	0.394191
