data_functionalizedCrystal
_audit_creation_method	'MofGen! by Chris Wilmer'
_symmetry_space_group_name_H-M	'P1'
_symmetry_Int_Tables_number	1
_symmetry_cell_setting	triclinic
loop_
_symmetry_equiv_pos_as_xyz
  x,y,z
_cell_length_a	19.805407
_cell_length_b	18.101396
_cell_length_c	19.805399
_cell_angle_alpha	89.975513
_cell_angle_beta	90.017803
_cell_angle_gamma	89.965660
loop_
_atom_site_label
_atom_site_type_symbol
_atom_site_fract_x
_atom_site_fract_y
_atom_site_fract_z
Zn1	Zn	1.034686	0.294900	0.382702
Zn2	Zn	1.368019	0.628233	0.716036
Zn3	Zn	1.701352	0.961566	1.049369
Zn4	Zn	1.034580	0.418743	0.269520
Zn5	Zn	1.367913	0.752077	0.602853
Zn6	Zn	1.701246	1.085410	0.936187
Zn7	Zn	0.921500	0.294914	0.269530
Zn8	Zn	1.254834	0.628248	0.602864
Zn9	Zn	1.588167	0.961581	0.936197
Zn10	Zn	0.921443	0.418698	0.382670
Zn11	Zn	1.254776	0.752032	0.716004
Zn12	Zn	1.588110	1.085365	1.049337
O13	O	0.978052	0.356814	0.326106
O14	O	1.311385	0.690147	0.659439
O15	O	1.644719	1.023481	0.992772
O16	O	1.129388	0.311341	0.367697
O17	O	1.462722	0.644674	0.701031
O18	O	1.796055	0.978007	1.034364
O19	O	1.019559	0.402342	0.174805
O20	O	1.352892	0.735676	0.508138
O21	O	1.686226	1.069009	0.841471
O22	O	0.936583	0.191280	0.284560
O23	O	1.269916	0.524613	0.617894
O24	O	1.603250	0.857946	0.951227
O25	O	1.129310	0.402328	0.284543
O26	O	1.462644	0.735661	0.617876
O27	O	1.795977	1.068995	0.951210
O28	O	1.019740	0.191269	0.367707
O29	O	1.353073	0.524602	0.701041
O30	O	1.686407	0.857936	1.034374
O31	O	0.936480	0.311366	0.174812
O32	O	1.269814	0.644699	0.508146
O33	O	1.603147	0.978032	0.841479
O34	O	0.826776	0.311322	0.284529
O35	O	1.160110	0.644655	0.617863
O36	O	1.493443	0.977989	0.951196
O37	O	0.936485	0.402251	0.477391
O38	O	1.269819	0.735584	0.810724
O39	O	1.603152	1.068918	1.144058
O40	O	0.826734	0.402265	0.367653
O41	O	1.160067	0.735599	0.700986
O42	O	1.493401	1.068932	1.034320
O43	O	1.019684	0.311297	0.477415
O44	O	1.353018	0.644630	0.810748
O45	O	1.686351	0.977964	1.144081
O46	O	1.019503	0.522370	0.284512
O47	O	1.352837	0.855704	0.617845
O48	O	1.686170	1.189037	0.951179
O49	O	0.936382	0.522337	0.367643
O50	O	1.269716	0.855670	0.700976
O51	O	1.603049	1.189004	1.034310
C52	C	0.802196	0.356791	0.326089
C53	C	1.135529	0.690124	0.659423
C54	C	1.468863	1.023457	0.992756
C55	C	0.726964	0.356799	0.326098
C56	C	1.060297	0.690132	0.659432
C57	C	1.393631	1.023465	0.992765
C58	C	0.691661	0.309505	0.369463
C59	C	1.024995	0.642839	0.702796
C60	C	1.358328	0.976172	1.036129
C61	C	0.620973	0.309509	0.369465
C62	C	0.954306	0.642843	0.702799
C63	C	1.287639	0.976176	1.036132
C64	C	0.585589	0.356811	0.326106
C65	C	0.918922	0.690144	0.659440
C66	C	1.252255	1.023477	0.992773
C67	C	0.620896	0.404106	0.282737
C68	C	0.954230	0.737440	0.616071
C69	C	1.287563	1.070773	0.949404
C70	C	0.691584	0.404098	0.282732
C71	C	1.024917	0.737431	0.616065
C72	C	1.358250	1.070765	0.949398
C73	C	0.335823	0.404139	0.282758
C74	C	0.669156	0.737473	0.616091
C75	C	1.002490	1.070806	0.949425
C76	C	0.265131	0.404146	0.282768
C77	C	0.598464	0.737479	0.616102
C78	C	0.931798	1.070812	0.949435
C79	C	0.265212	0.309551	0.369492
C80	C	0.598546	0.642884	0.702825
C81	C	0.931879	0.976217	1.036158
C82	C	0.335899	0.309543	0.369486
C83	C	0.669233	0.642876	0.702819
C84	C	1.002566	0.976209	1.036153
C85	C	0.371201	0.356835	0.326115
C86	C	0.704535	0.690168	0.659448
C87	C	1.037868	1.023502	0.992781
C88	C	0.447850	0.356829	0.326111
C89	C	0.781183	0.690162	0.659445
C90	C	1.114516	1.023496	0.992778
C91	C	0.508941	0.356821	0.326113
C92	C	0.842275	0.690154	0.659446
C93	C	1.175608	1.023487	0.992779
C94	C	0.977943	0.549225	0.326088
C95	C	1.311277	0.882558	0.659421
C96	C	1.644610	1.215891	0.992754
C97	C	0.977959	0.631539	0.326103
C98	C	1.311292	0.964872	0.659436
C99	C	1.644626	1.298205	0.992769
C100	C	0.978079	0.930630	0.326142
C101	C	1.311412	1.263963	0.659475
C102	C	1.644746	1.597296	0.992809
C103	C	0.925906	0.899314	0.378575
C104	C	1.259239	1.232648	0.711909
C105	C	1.592573	1.565981	1.045242
C106	C	0.925666	0.813696	0.378411
C107	C	1.258999	1.147030	0.711744
C108	C	1.592333	1.480363	1.045077
C109	C	0.978019	0.782247	0.326123
C110	C	1.311353	1.115580	0.659456
C111	C	1.644686	1.448914	0.992790
C112	C	0.958706	0.813394	0.254789
C113	C	1.292039	1.146728	0.588123
C114	C	1.625372	1.480061	0.921456
C115	C	0.958361	0.899040	0.255104
C116	C	1.291695	1.232373	0.588437
C117	C	1.625028	1.565706	0.921771
C118	C	1.049683	0.898978	0.344414
C119	C	1.383017	1.232311	0.677748
C120	C	1.716350	1.565644	1.011081
C121	C	1.049270	0.813327	0.345978
C122	C	1.382604	1.146660	0.679311
C123	C	1.715937	1.479993	1.012645
C124	C	0.977987	0.698388	0.326108
C125	C	1.311320	1.031721	0.659441
C126	C	1.644654	1.365054	0.992775
C127	C	0.978110	1.014489	0.326152
C128	C	1.311443	1.347822	0.659486
C129	C	1.644777	1.681156	0.992819
C130	C	1.154595	0.356838	0.326123
C131	C	1.487928	0.690171	0.659456
C132	C	1.821262	1.023504	0.992789
C133	C	1.229827	0.356848	0.326130
C134	C	1.563160	0.690181	0.659463
C135	C	1.896493	1.023515	0.992796
C136	C	0.978090	0.356767	0.502648
C137	C	1.311423	0.690101	0.835982
C138	C	1.644757	1.023434	1.169315
C139	C	0.978106	0.356747	0.577881
C140	C	1.311440	0.690081	0.911214
C141	C	1.644773	1.023414	1.244547
C142	C	0.978156	1.163652	0.326141
C143	C	1.311489	1.496985	0.659474
C144	C	1.644823	1.830319	0.992808
C145	C	0.978140	1.081338	0.326163
C146	C	1.311473	1.414671	0.659496
C147	C	1.644806	1.748005	0.992829
C148	C	0.978053	0.356807	0.150250
C149	C	1.311387	0.690140	0.483583
C150	C	1.644720	1.023474	0.816916
C151	C	0.978168	0.356618	0.075018
C152	C	1.311502	0.689952	0.408351
C153	C	1.644835	1.023285	0.741685
C154	C	1.021429	0.309385	0.613238
C155	C	1.354762	0.642719	0.946571
C156	C	1.688096	0.976052	1.279905
C157	C	1.021436	0.309364	0.683926
C158	C	1.354769	0.642697	1.017260
C159	C	1.688103	0.976030	1.350593
C160	C	0.978123	0.356709	0.719256
C161	C	1.311456	0.690042	1.052590
C162	C	1.644790	1.023375	1.385923
C163	C	0.934796	0.404073	0.683894
C164	C	1.268129	0.737406	1.017227
C165	C	1.601462	1.070740	1.350560
C166	C	0.934786	0.404090	0.613207
C167	C	1.268119	0.737424	0.946540
C168	C	1.601452	1.070757	1.279873
C169	C	0.934834	0.404004	0.968967
C170	C	1.268167	0.737337	1.302301
C171	C	1.601501	1.070671	1.635634
C172	C	0.934849	0.403985	1.039659
C173	C	1.268182	0.737318	1.372993
C174	C	1.601515	1.070651	1.706326
C175	C	1.021484	0.309278	1.039687
C176	C	1.354817	0.642611	1.373020
C177	C	1.688151	0.975944	1.706354
C178	C	1.021474	0.309295	0.969000
C179	C	1.354807	0.642628	1.302333
C180	C	1.688141	0.975961	1.635667
C181	C	0.978145	0.356656	0.933644
C182	C	1.311478	0.689989	1.266977
C183	C	1.644811	1.023323	1.600310
C184	C	0.978137	0.356678	0.856995
C185	C	1.311470	0.690011	1.190329
C186	C	1.644803	1.023344	1.523662
C187	C	0.978134	0.356691	0.795903
C188	C	1.311467	0.690025	1.129237
C189	C	1.644801	1.023358	1.462570
H190	H	0.937750	0.792635	0.431304
H191	H	1.271083	1.125968	0.764637
H192	H	1.604416	1.459302	1.097971
N193	N	0.374059	0.258522	0.416253
N194	N	0.707392	0.591856	0.749586
N195	N	1.040725	0.925189	1.082920
H196	H	0.403392	0.224162	0.388798
H197	H	0.736726	0.557495	0.722131
H198	H	1.070059	0.890829	1.055464
H199	H	0.403346	0.288712	0.447561
H200	H	0.736679	0.622045	0.780894
H201	H	1.070013	0.955379	1.114227
N202	N	1.006488	0.926487	0.201572
N203	N	1.339821	1.259821	0.534905
N204	N	1.673155	1.593154	0.868239
H205	H	1.006634	0.982283	0.201354
H206	H	1.339968	1.315616	0.534688
H207	H	1.673301	1.648950	0.868021
H208	H	1.053467	0.907732	0.211618
H209	H	1.386801	1.241065	0.544951
H210	H	1.720134	1.574398	0.878285
H211	H	0.720466	0.270989	0.404772
H212	H	1.053799	0.604322	0.738106
H213	H	1.387133	0.937656	1.071439
H214	H	1.056702	0.270834	0.584478
H215	H	1.390035	0.604167	0.917811
H216	H	1.723368	0.937500	1.251144
N217	N	0.582733	0.455129	0.235976
N218	N	0.916067	0.788463	0.569309
N219	N	1.249400	1.121796	0.902643
H220	H	0.615826	0.485088	0.208503
H221	H	0.949159	0.818421	0.541837
H222	H	1.282493	1.151754	0.875170
H223	H	0.553404	0.424945	0.204703
H224	H	0.886737	0.758278	0.538037
H225	H	1.220071	1.091611	0.871370
N226	N	0.227142	0.258532	0.416269
N227	N	0.560476	0.591866	0.749603
N228	N	0.893809	0.925199	1.082936
H229	H	0.197811	0.288674	0.447590
H230	H	0.531144	0.622008	0.780923
H231	H	0.864477	0.955341	1.114256
H232	H	0.197860	0.224181	0.388775
H233	H	0.531194	0.557515	0.722108
H234	H	0.864527	0.890848	1.055441
H235	H	1.056746	0.270744	0.940238
H236	H	1.390080	0.604077	1.273571
H237	H	1.723413	0.937411	1.606905
N238	N	1.068218	0.258191	1.077821
N239	N	1.401552	0.591524	1.411154
N240	N	1.734885	0.924858	1.744488
H241	H	1.061653	0.265359	1.127962
H242	H	1.394987	0.598692	1.461296
H243	H	1.728320	0.932026	1.794629
H244	H	1.057720	0.205302	1.065471
H245	H	1.391053	0.538635	1.398804
H246	H	1.724386	0.871969	1.732137
N247	N	0.888072	0.455122	0.722007
N248	N	1.221405	0.788455	1.055340
N249	N	1.554738	1.121789	1.388673
H250	H	0.915555	0.489439	0.751337
H251	H	1.248888	0.822772	1.084670
H252	H	1.582221	1.156106	1.418003
H253	H	0.860626	0.485079	0.688844
H254	H	1.193960	0.818412	1.022178
H255	H	1.527293	1.151746	1.355511
N256	N	0.729661	0.455112	0.235963
N257	N	1.062995	0.788445	0.569296
N258	N	1.396328	1.121778	0.902630
H259	H	0.779810	0.447927	0.242536
H260	H	1.113144	0.781261	0.575870
H261	H	1.446477	1.114594	0.909203
H262	H	0.717290	0.443515	0.187643
H263	H	1.050624	0.776848	0.520977
H264	H	1.383957	1.110181	0.854310
H265	H	0.364557	0.442648	0.247443
H266	H	0.697891	0.775982	0.580776
H267	H	1.031224	1.109315	0.914110
H268	H	0.236323	0.442666	0.247458
H269	H	0.569656	0.775999	0.580791
H270	H	0.902990	1.109333	0.914124
H271	H	1.063835	0.792967	0.398476
H272	H	1.397168	1.126300	0.731809
H273	H	1.730501	1.459633	1.065142
N274	N	0.888065	0.455175	0.575063
N275	N	1.221398	0.788508	0.908396
N276	N	1.554731	1.121842	1.241730
H277	H	0.856716	0.425078	0.545737
H278	H	1.190049	0.758412	0.879070
H279	H	1.523382	1.091745	1.212404
H280	H	0.860672	0.485159	0.608208
H281	H	1.194005	0.818492	0.941541
H282	H	1.527338	1.151826	1.274875
H283	H	0.873154	0.920898	0.366624
H284	H	1.206487	1.254231	0.699958
H285	H	1.539821	1.587564	1.033291
H286	H	0.899575	0.442540	1.068423
H287	H	1.232908	0.775874	1.401756
H288	H	1.566242	1.109207	1.735090
N289	N	0.941738	0.926537	0.448868
N290	N	1.275071	1.259871	0.782202
N291	N	1.608404	1.593204	1.115535
H292	H	0.982883	0.959435	0.447410
H293	H	1.316216	1.292769	0.780743
H294	H	1.649550	1.626102	1.114077
H295	H	0.901989	0.955429	0.466858
H296	H	1.235323	1.288762	0.800191
H297	H	1.568656	1.622096	1.133524
H298	H	1.090203	0.791915	0.310571
H299	H	1.423536	1.125248	0.643905
H300	H	1.756869	1.458581	0.977238
H301	H	0.872595	0.793270	0.366307
H302	H	1.205929	1.126603	0.699640
H303	H	1.539262	1.459937	1.032973
H304	H	0.906019	0.919079	0.239626
H305	H	1.239353	1.252413	0.572959
H306	H	1.572686	1.585746	0.906292
N307	N	1.007459	0.786418	0.201624
N308	N	1.340793	1.119751	0.534957
N309	N	1.674126	1.453084	0.868291
H310	H	1.042618	0.753667	0.223320
H311	H	1.375952	1.087000	0.556653
H312	H	1.709285	1.420333	0.889987
H313	H	0.982024	0.757431	0.166261
H314	H	1.315358	1.090764	0.499594
H315	H	1.648691	1.424097	0.832928
N316	N	0.890114	0.785067	0.233911
N317	N	1.223448	1.118400	0.567244
N318	N	1.556781	1.451733	0.900577
H319	H	0.871453	0.752066	0.270551
H320	H	1.204786	1.085399	0.603884
H321	H	1.538120	1.418733	0.937217
H322	H	0.858576	0.828197	0.226581
H323	H	1.191909	1.161530	0.559914
H324	H	1.525243	1.494864	0.893248
H325	H	1.088555	0.919228	0.306225
H326	H	1.421888	1.252561	0.639559
H327	H	1.755221	1.585895	0.972892
H328	H	0.899562	0.442579	0.940189
H329	H	1.232895	0.775913	1.273522
H330	H	1.566229	1.109246	1.606855
N331	N	1.073008	0.927522	0.412141
N332	N	1.406341	1.260855	0.745474
N333	N	1.739674	1.594188	1.078807
H334	H	1.037390	0.961265	0.431665
H335	H	1.370723	1.294598	0.764998
H336	H	1.704056	1.627932	1.098332
H337	H	1.080719	0.884536	0.443748
H338	H	1.414052	1.217869	0.777081
H339	H	1.747386	1.551202	1.110414
H340	H	0.592232	0.271000	0.404778
H341	H	0.925566	0.604333	0.738112
H342	H	1.258899	0.937666	1.071445
N343	N	1.068149	0.258266	0.722063
N344	N	1.401482	0.591599	1.055396
N345	N	1.734816	0.924933	1.388730
H346	H	1.095585	0.228275	0.688956
H347	H	1.428918	0.561608	1.022289
H348	H	1.762251	0.894942	1.355622
H349	H	1.099458	0.288395	0.751400
H350	H	1.432792	0.621729	1.084733
H351	H	1.766125	0.955062	1.418067
