data_functionalizedCrystal
_audit_creation_method	'MofGen! by Chris Wilmer'
_symmetry_space_group_name_H-M	'P1'
_symmetry_Int_Tables_number	1
_symmetry_cell_setting	triclinic
loop_
_symmetry_equiv_pos_as_xyz
  x,y,z
_cell_length_a	14.853558
_cell_length_b	14.971500
_cell_length_c	14.048226
_cell_angle_alpha	89.997740
_cell_angle_beta	89.994800
_cell_angle_gamma	83.625527
loop_
_atom_site_label
_atom_site_type_symbol
_atom_site_fract_x
_atom_site_fract_y
_atom_site_fract_z
O1	O	1.196357	0.116742	-0.079124
O2	O	0.933894	0.130662	-0.079131
O3	O	1.072153	-0.006496	-0.079131
O4	O	1.058097	0.253900	-0.079124
O5	O	1.072137	-0.006504	0.079190
O6	O	0.933877	0.130654	0.079191
O7	O	1.196340	0.116734	0.079198
Zn8	Zn	1.065106	0.123693	0.104331
Zn9	Zn	1.065128	0.123703	-0.104264
O10	O	1.058081	0.253892	0.079198
C11	C	0.900297	0.130028	0.000029
C12	C	0.800213	0.128143	0.000026
C13	C	1.229937	0.117367	0.000036
C14	C	1.330021	0.119253	0.000033
C15	C	1.377046	0.120142	-0.086273
C16	C	1.377038	0.120143	0.086335
C17	C	1.471071	0.121920	0.086336
C18	C	1.518096	0.122808	0.000030
C19	C	1.471087	0.121921	-0.086275
C20	C	1.518086	0.122817	0.172640
C21	C	1.612125	0.124594	0.172643
C22	C	1.659152	0.125476	0.086337
C23	C	1.612138	0.124587	0.000028
C24	C	1.659163	0.125476	-0.086277
C25	C	1.612151	0.124581	-0.172587
C26	C	1.518115	0.122803	-0.172581
C27	C	1.753188	0.127254	0.086331
C28	C	1.753204	0.127255	-0.086280
C29	C	1.071514	-0.039825	0.000027
C30	C	1.069624	-0.139122	0.000018
C31	C	1.058720	0.287221	0.000038
C32	C	1.060610	0.386517	0.000041
N33	N	1.065098	0.123685	0.246692
C34	C	1.068744	0.814231	-0.086282
C35	C	1.066966	0.720932	-0.086278
C36	C	1.066074	0.674280	0.000026
C37	C	1.066951	0.720934	0.086332
C38	C	1.068722	0.814233	0.086328
C39	C	1.063260	0.526470	0.086336
C40	C	1.061490	0.433165	0.086340
C41	C	1.061503	0.433169	-0.086271
C42	C	1.063275	0.526467	-0.086275
C43	C	1.064154	0.573115	0.000032
N44	N	1.065143	0.123704	-0.246625
C45	C	1.126338	0.062976	0.296510
C46	C	1.126344	0.062976	0.396167
C47	C	1.065113	0.123689	0.446005
C48	C	1.003866	0.184400	0.396180
C49	C	1.003857	0.184396	0.296524
C50	C	1.003892	0.184407	0.603894
C51	C	1.003903	0.184412	0.703557
C52	C	1.126380	0.062987	0.703537
C53	C	1.126370	0.062982	0.603882
C54	C	1.065124	0.123695	0.554064
H55	H	1.791486	0.127976	-0.156561
Br56	Br	1.069964	0.877534	-0.203416
Br57	Br	1.060307	0.369863	-0.203401
H58	H	1.479829	0.122073	-0.242850
Br59	Br	1.816985	0.128479	0.203455
Br60	Br	1.060283	0.369851	0.203469
Br61	Br	1.454262	0.121626	0.289761
H62	H	1.650450	0.125311	-0.242857
H63	H	1.338765	0.119409	-0.156544
Br64	Br	1.313217	0.118952	0.203458
H65	H	1.650394	0.125321	0.242922
Br66	Br	1.064454	0.589777	0.203467
Br67	Br	1.065771	0.657628	-0.203405
H68	H	1.176210	0.013542	0.436729
H69	H	1.064008	0.564447	-0.156552
H70	H	1.066219	0.682944	0.156603
H71	H	0.954016	0.233842	0.563336
H72	H	1.069426	0.852214	0.156602
Br73	Br	1.209449	-0.019418	0.228883
Br74	Br	1.209476	-0.019406	0.536241
Br75	Br	1.209502	-0.019404	0.771150
Br76	Br	0.920800	0.266812	0.771187
Br77	Br	0.920758	0.266792	0.463813
Br78	Br	0.920735	0.266783	0.228914
