data_functionalizedCrystal
_audit_creation_method	'MofGen! by Chris Wilmer'
_symmetry_space_group_name_H-M	'P1'
_symmetry_Int_Tables_number	1
_symmetry_cell_setting	triclinic
loop_
_symmetry_equiv_pos_as_xyz
  x,y,z
_cell_length_a	16.959455
_cell_length_b	16.959453
_cell_length_c	16.959447
_cell_angle_alpha	89.968904
_cell_angle_beta	89.979626
_cell_angle_gamma	90.021841
loop_
_atom_site_label
_atom_site_type_symbol
_atom_site_fract_x
_atom_site_fract_y
_atom_site_fract_z
Zn1	Zn	1.208358	-0.314729	-0.447032
Zn2	Zn	1.708358	0.185271	0.052968
Zn3	Zn	1.208269	-0.446921	-0.314852
Zn4	Zn	1.708269	0.053079	0.185148
Zn5	Zn	1.076186	-0.314754	-0.314856
Zn6	Zn	1.576186	0.185246	0.185144
Zn7	Zn	1.076140	-0.446862	-0.446976
Zn8	Zn	1.576140	0.053138	0.053024
O9	O	1.142238	-0.380817	-0.380929
O10	O	1.642238	0.119183	0.119071
O11	O	1.318957	-0.332279	-0.429520
O12	O	1.818957	0.167721	0.070480
O13	O	1.190731	-0.429424	-0.204241
O14	O	1.690731	0.070576	0.295759
O15	O	1.093775	-0.204140	-0.332414
O16	O	1.593775	0.295860	0.167586
O17	O	1.318892	-0.429400	-0.332407
O18	O	1.818892	0.070600	0.167593
O19	O	1.190881	-0.204121	-0.429524
O20	O	1.690881	0.295879	0.070476
O21	O	1.093690	-0.332321	-0.204244
O22	O	1.593690	0.167679	0.295756
O23	O	0.965569	-0.332264	-0.332360
O24	O	1.465569	0.167736	0.167640
O25	O	1.093697	-0.429299	-0.557595
O26	O	1.593697	0.070701	-0.057595
O27	O	0.965535	-0.429324	-0.429429
O28	O	1.465535	0.070676	0.070571
O29	O	1.190836	-0.332221	-0.557636
O30	O	1.690836	0.167779	-0.057636
O31	O	1.190686	-0.557524	-0.332353
O32	O	1.690686	-0.057524	0.167647
O33	O	1.093611	-0.557481	-0.429425
O34	O	1.593611	-0.057481	0.070575
C35	C	0.936872	-0.380791	-0.380889
C36	C	1.436872	0.119209	0.119111
C37	C	0.849015	-0.380799	-0.380891
C38	C	1.349015	0.119201	0.119109
C39	C	0.477495	-0.431337	-0.330337
C40	C	0.977495	0.068663	0.169663
C41	C	0.477584	-0.330361	-0.431617
C42	C	0.977584	0.169639	0.068383
C43	C	0.560130	-0.330348	-0.431598
C44	C	1.060130	0.169652	0.068402
C45	C	0.601362	-0.380831	-0.380948
C46	C	1.101362	0.119169	0.119052
C47	C	0.560049	-0.431328	-0.330318
C48	C	1.060049	0.068672	0.169682
C49	C	0.601450	-0.279859	-0.482233
C50	C	1.101450	0.220141	0.017767
C51	C	0.684001	-0.279844	-0.482217
C52	C	1.184001	0.220156	0.017783
C53	C	0.725235	-0.330324	-0.431562
C54	C	1.225235	0.169676	0.068438
C55	C	0.683916	-0.380822	-0.380929
C56	C	1.183916	0.119178	0.119071
C57	C	0.725148	-0.431305	-0.330279
C58	C	1.225148	0.068695	0.169721
C59	C	0.683831	-0.481799	-0.279641
C60	C	1.183831	0.018201	0.220359
C61	C	0.601283	-0.481807	-0.279663
C62	C	1.101283	0.018193	0.220337
C63	C	0.807783	-0.330316	-0.431541
C64	C	1.307783	0.169684	0.068459
C65	C	0.807702	-0.431295	-0.330260
C66	C	1.307702	0.068705	0.169740
C67	C	1.142155	-0.586183	-0.380900
C68	C	1.642155	-0.086183	0.119100
C69	C	1.142192	-0.674039	-0.380914
C70	C	1.642192	-0.174039	0.119086
C71	C	1.091624	-0.715320	-0.431419
C72	C	1.591624	-0.215320	0.068581
C73	C	1.192798	-0.715312	-0.330427
C74	C	1.692798	-0.215312	0.169573
C75	C	1.192838	-0.797858	-0.330441
C76	C	1.692838	-0.297858	0.169559
C77	C	1.142270	-0.839139	-0.380946
C78	C	1.642270	-0.339139	0.119054
C79	C	1.091664	-0.797873	-0.431436
C80	C	1.591664	-0.297873	0.068564
C81	C	1.243449	-0.839130	-0.279957
C82	C	1.743449	-0.339130	0.220043
C83	C	1.243491	-0.921681	-0.279970
C84	C	1.743491	-0.421681	0.220030
C85	C	1.192919	-0.962963	-0.330471
C86	C	1.692919	-0.462963	0.169529
C87	C	1.142310	-0.921692	-0.380963
C88	C	1.642310	-0.421692	0.119037
C89	C	1.091742	-0.962973	-0.431468
C90	C	1.591742	-0.462973	0.068532
C91	C	1.041129	-0.921704	-0.481957
C92	C	1.541129	-0.421704	0.018043
C93	C	1.041092	-0.839155	-0.481938
C94	C	1.541092	-0.339155	0.018062
C95	C	1.192955	-1.045511	-0.330490
C96	C	1.692955	-0.545511	0.169510
C97	C	1.091782	-1.045526	-0.431486
C98	C	1.591782	-0.545526	0.068514
C99	C	1.348406	-0.380843	-0.380969
C100	C	1.848406	0.119157	0.119031
C101	C	1.436263	-0.380854	-0.380987
C102	C	1.936263	0.119146	0.119013
C103	C	1.142271	-0.380751	-0.587097
C104	C	1.642271	0.119249	-0.087097
C105	C	1.142285	-0.380723	-0.674954
C106	C	1.642285	0.119277	-0.174954
C107	C	1.142343	-0.174648	-0.380975
C108	C	1.642343	0.325352	0.119025
C109	C	1.142388	-0.086792	-0.380995
C110	C	1.642388	0.413208	0.119005
C111	C	1.091803	-0.431184	-1.046411
C112	C	1.591803	0.068816	-0.546411
C113	C	1.192956	-0.330096	-1.046449
C114	C	1.692956	0.169904	-0.546449
C115	C	1.192935	-0.330113	-0.963903
C116	C	1.692935	0.169887	-0.463903
C117	C	1.142348	-0.380667	-0.922607
C118	C	1.642348	0.119333	-0.422607
C119	C	1.091782	-0.431204	-0.963857
C120	C	1.591782	0.068796	-0.463857
C121	C	1.243505	-0.279582	-0.922646
C122	C	1.743505	0.220418	-0.422646
C123	C	1.243487	-0.279597	-0.840095
C124	C	1.743487	0.220403	-0.340095
C125	C	1.192896	-0.330148	-0.798798
C126	C	1.692896	0.169852	-0.298798
C127	C	1.142327	-0.380687	-0.840053
C128	C	1.642327	0.119313	-0.340053
C129	C	1.091740	-0.431240	-0.798758
C130	C	1.591740	0.068760	-0.298758
C131	C	1.041167	-0.481776	-0.840012
C132	C	1.541167	0.018224	-0.340012
C133	C	1.041191	-0.481754	-0.922560
C134	C	1.541191	0.018246	-0.422560
C135	C	1.192872	-0.330169	-0.716250
C136	C	1.692872	0.169831	-0.216250
C137	C	1.091719	-0.431260	-0.716204
C138	C	1.591719	0.068740	-0.216204
C139	C	1.142251	-0.380825	-0.175563
C140	C	1.642251	0.119175	0.324437
C141	C	1.142390	-0.380630	-0.087707
C142	C	1.642390	0.119370	0.412293
H143	H	0.444008	-0.289265	-0.472858
H144	H	0.944008	0.210735	0.027142
H145	H	1.234146	-0.288942	-1.080076
H146	H	1.734146	0.211058	-0.580076
F147	F	0.851752	-0.276584	-0.485433
F148	F	1.351752	0.223416	0.014567
H149	H	1.050626	-0.472326	-1.080003
H150	H	1.550626	0.027674	-0.580003
F151	F	0.987318	-0.965647	-0.535711
F152	F	1.487318	-0.465647	-0.035711
F153	F	0.987335	-0.535581	-0.796052
F154	F	1.487335	-0.035581	-0.296052
F155	F	0.557564	-0.226144	-0.536144
F156	F	1.057564	0.273856	-0.036144
F157	F	1.297268	-0.795193	-0.226217
F158	F	1.797268	-0.295193	0.273783
F159	F	1.037956	-1.089454	-0.485237
F160	F	1.537956	-0.589454	0.014763
F161	F	1.297309	-0.225812	-0.796197
F162	F	1.797309	0.274188	-0.296197
H163	H	0.717634	-0.238728	-0.523449
H164	H	1.217634	0.261272	-0.023449
F165	F	0.987375	-0.535535	-0.966470
F166	F	1.487375	-0.035535	-0.466470
F167	F	1.297345	-0.225788	-0.966600
F168	F	1.797345	0.274212	-0.466600
H169	H	0.567635	-0.522917	-0.238436
H170	H	1.067635	-0.022917	0.261564
F171	F	1.297356	-0.965595	-0.226235
F172	F	1.797356	-0.465595	0.273765
F173	F	1.037873	-0.485064	-0.672261
F174	F	1.537873	0.014936	-0.172261
F175	F	1.246696	-0.276395	-0.672348
F176	F	1.746696	0.223605	-0.172348
F177	F	1.246822	-1.089429	-0.276765
F178	F	1.746822	-0.589429	0.223235
H179	H	0.841267	-0.472402	-0.289012
H180	H	1.341267	0.027598	0.210988
F181	F	0.727723	-0.535530	-0.225743
F182	F	1.227723	-0.035530	0.274257
H183	H	0.443851	-0.472446	-0.289106
H184	H	0.943851	0.027554	0.210894
F185	F	1.037760	-0.671399	-0.485149
F186	F	1.537760	-0.171399	0.014851
F187	F	1.246618	-0.671377	-0.276685
F188	F	1.746618	-0.171377	0.223315
F189	F	0.987236	-0.795229	-0.535672
F190	F	1.487236	-0.295229	-0.035672
