data_functionalizedCrystal
_audit_creation_method	'MofGen! by Chris Wilmer'
_symmetry_space_group_name_H-M	'P1'
_symmetry_Int_Tables_number	1
_symmetry_cell_setting	triclinic
loop_
_symmetry_equiv_pos_as_xyz
  x,y,z
_cell_length_a	13.032831
_cell_length_b	16.120484
_cell_length_c	16.120297
_cell_angle_alpha	84.385569
_cell_angle_beta	93.942761
_cell_angle_gamma	86.078521
loop_
_atom_site_label
_atom_site_type_symbol
_atom_site_fract_x
_atom_site_fract_y
_atom_site_fract_z
Zn1	Zn	1.523156	-0.519540	0.651743
Zn2	Zn	2.023156	-0.019540	1.151743
Zn3	Zn	1.523026	-0.652216	0.519040
Zn4	Zn	2.023026	-0.152216	1.019040
Zn5	Zn	1.359946	-0.495033	0.494599
Zn6	Zn	1.859946	0.004967	0.994599
Zn7	Zn	1.341486	-0.639855	0.639419
Zn8	Zn	1.841486	-0.139855	1.139419
O9	O	1.436904	-0.576661	0.576200
O10	O	1.936904	-0.076661	1.076200
O11	O	1.667419	-0.552570	0.649525
O12	O	2.167419	-0.052570	1.149525
O13	O	1.509065	-0.626282	0.399653
O14	O	2.009065	-0.126282	0.899653
O15	O	1.389376	-0.382150	0.510374
O16	O	1.889376	0.117850	1.010374
O17	O	1.667323	-0.650046	0.552029
O18	O	2.167323	-0.150046	1.052029
O19	O	1.509286	-0.400156	0.625827
O20	O	2.009286	0.099844	1.125827
O21	O	1.389250	-0.510800	0.381697
O22	O	1.889250	-0.010800	0.881697
O23	O	1.213218	-0.498814	0.498424
O24	O	1.713218	0.001186	0.998424
O25	O	1.357913	-0.628978	0.757199
O26	O	1.857913	-0.128978	1.257199
O27	O	1.199655	-0.605214	0.604823
O28	O	1.699655	-0.105214	1.104823
O29	O	1.491386	-0.540584	0.766253
O30	O	1.991386	-0.040584	1.266253
O31	O	1.491165	-0.766710	0.540079
O32	O	1.991165	-0.266710	1.040079
O33	O	1.357787	-0.757628	0.628522
O34	O	1.857787	-0.257628	1.128522
C35	C	1.169026	-0.548014	0.547635
C36	C	1.669026	-0.048014	1.047635
C37	C	1.054424	-0.535779	0.535435
C38	C	1.554424	-0.035779	1.035435
C39	C	0.996648	-0.583046	0.582568
C40	C	1.496648	-0.083046	1.082568
C41	C	0.878201	-0.570403	0.569959
C42	C	1.378201	-0.070403	1.069959
C43	C	1.422485	-0.792285	0.585636
C44	C	1.922485	-0.292285	1.085636
C45	C	1.416410	-0.884541	0.589711
C46	C	1.916410	-0.384541	1.089711
C47	C	1.405322	-1.053456	0.597167
C48	C	1.905322	-0.553456	1.097167
C49	C	1.468669	-1.099046	0.555266
C50	C	1.968669	-0.599046	1.055266
C51	C	1.462500	-1.193036	0.559415
C52	C	1.962500	-0.693036	1.059415
C53	C	1.411490	-0.959458	0.593019
C54	C	1.911490	-0.459458	1.093019
C55	C	1.705827	-0.605421	0.604878
C56	C	2.205827	-0.105421	1.104878
C57	C	1.820426	-0.617677	0.617099
C58	C	2.320426	-0.117677	1.117099
C59	C	1.422605	-0.586136	0.792683
C60	C	1.922605	-0.086136	1.292683
C61	C	1.416512	-0.590173	0.884935
C62	C	1.916512	-0.090173	1.384935
C63	C	1.451405	-0.360199	0.566749
C64	C	1.951405	0.139801	1.066749
C65	C	1.457584	-0.267955	0.562721
C66	C	1.957584	0.232045	1.062721
C67	C	1.451210	-0.567170	0.360564
C68	C	1.951210	-0.067170	0.860564
C69	C	1.457518	-0.562920	0.268323
C70	C	1.957518	-0.062920	0.768323
C71	C	1.405351	-0.597522	1.053835
C72	C	1.905351	-0.097522	1.553835
C73	C	1.468676	-0.555573	1.099428
C74	C	1.968676	-0.055573	1.599428
C75	C	1.462466	-0.559662	1.193410
C76	C	1.962466	-0.059662	1.693410
C77	C	1.411559	-0.593434	0.959845
C78	C	1.911559	-0.093434	1.459845
H79	H	0.858646	-0.667504	0.666794
H80	H	1.358646	-0.167504	1.166794
H81	H	1.346477	-0.636504	1.085384
H82	H	1.846477	-0.136504	1.585384
C83	C	1.547099	-1.057067	0.503135
C84	C	2.047099	-0.557067	1.003135
C85	C	1.528806	-1.072173	0.419533
C86	C	2.028806	-0.572173	0.919533
C87	C	1.601037	-1.033521	0.371487
C88	C	2.101037	-0.533521	0.871487
H89	H	1.540941	-0.998560	0.507111
H90	H	2.040941	-0.498560	1.007111
H91	H	1.614671	-1.079123	0.523270
H92	H	2.114671	-0.579123	1.023270
H93	H	1.461251	-1.050114	0.399403
H94	H	1.961251	-0.550114	0.899403
H95	H	1.534973	-1.130672	0.415531
H96	H	2.034973	-0.630672	0.915531
H97	H	1.668609	-1.055577	0.391623
H98	H	2.168609	-0.555577	0.891623
H99	H	1.594873	-0.975016	0.375470
H100	H	2.094873	-0.475016	0.875470
H101	H	1.588641	-1.043772	0.314760
H102	H	2.088641	-0.543772	0.814760
H103	H	1.034873	-0.632872	0.632257
H104	H	1.534873	-0.132872	1.132257
H105	H	0.839980	-0.520568	0.520273
H106	H	1.339980	-0.020568	1.020273
H107	H	1.346460	-1.085013	0.636152
H108	H	1.846460	-0.585013	1.136152
H109	H	1.016199	-0.485947	0.485752
H110	H	1.516199	0.014053	0.985752
C111	C	1.547230	-0.503517	1.057517
C112	C	2.047230	-0.003517	1.557517
C113	C	1.604422	-0.465605	1.118052
C114	C	2.104422	0.034395	1.618052
C115	C	1.676785	-0.417641	1.079471
C116	C	2.176785	0.082359	1.579471
H117	H	1.592310	-0.538548	1.029887
H118	H	2.092310	-0.038548	1.529887
H119	H	1.512435	-0.461653	1.017918
H120	H	2.012435	0.038347	1.517918
H121	H	1.639216	-0.507463	1.157636
H122	H	2.139216	-0.007463	1.657636
H123	H	1.559371	-0.430560	1.145686
H124	H	2.059371	0.069440	1.645686
H125	H	1.641990	-0.375777	1.039872
H126	H	2.141990	0.124223	1.539872
H127	H	1.721858	-0.452678	1.051842
H128	H	2.221858	0.047322	1.551842
H129	H	1.715592	-0.391906	1.120536
H130	H	2.215592	0.108094	1.620536
