data_functionalizedCrystal
_audit_creation_method	'MofGen! by Chris Wilmer'
_symmetry_space_group_name_H-M	'P1'
_symmetry_Int_Tables_number	1
_symmetry_cell_setting	triclinic
loop_
_symmetry_equiv_pos_as_xyz
  x,y,z
_cell_length_a	13.339070
_cell_length_b	14.519709
_cell_length_c	11.804365
_cell_angle_alpha	101.851959
_cell_angle_beta	74.875130
_cell_angle_gamma	99.654719
loop_
_atom_site_label
_atom_site_type_symbol
_atom_site_fract_x
_atom_site_fract_y
_atom_site_fract_z
O1	O	1.363544	0.449147	-0.099080
O2	O	1.068905	0.388436	-0.099072
O3	O	1.224034	0.286542	-0.099066
O4	O	1.208414	0.551041	-0.099087
O5	O	1.183194	0.313329	0.098989
O6	O	1.028065	0.415223	0.098982
O7	O	1.322704	0.475934	0.098974
Cu8	Cu	1.171656	0.448024	0.117062
Cu9	Cu	1.219953	0.416345	-0.117160
O10	O	1.167575	0.577828	0.098968
C11	C	1.010777	0.391574	-0.000044
C12	C	0.898419	0.361005	-0.000040
C13	C	0.534064	0.598691	-0.000078
C14	C	0.639630	0.627415	-0.000085
C15	C	0.704332	0.560815	-0.000073
C16	C	0.663459	0.465486	-0.000055
C17	C	0.557884	0.436759	-0.000058
C18	C	0.728152	0.398882	-0.000053
C19	C	0.687279	0.303554	-0.000035
C20	C	0.581714	0.274831	-0.000037
C21	C	0.517012	0.341431	-0.000048
C22	C	0.833727	0.427610	-0.000051
C23	C	0.857547	0.265677	-0.000031
C24	C	0.751981	0.236954	-0.000024
C25	C	1.202886	0.265390	-0.000038
C26	C	1.200704	0.162454	-0.000038
C27	C	1.192677	-0.214489	-0.000068
C28	C	1.194906	-0.109613	-0.000059
C29	C	1.196690	-0.026021	-0.000052
C30	C	1.198920	0.078862	-0.000045
C31	C	1.380832	0.472796	-0.000057
C32	C	1.493192	0.503364	-0.000068
C33	C	1.188723	0.598979	-0.000062
C34	C	1.190907	0.701915	-0.000071
N35	N	1.137693	0.470307	0.281801
N36	N	1.253924	0.394058	-0.281899
C37	C	1.335480	0.340531	0.655758
C38	C	1.361172	0.323670	0.531097
C39	C	1.305304	0.360328	0.468767
C40	C	1.223741	0.413850	0.531110
C41	C	1.198052	0.430719	0.655783
C42	C	1.167876	0.450515	0.468792
C43	C	1.086313	0.504037	0.531135
C44	C	1.060628	0.520903	0.655795
C45	C	1.116496	0.484245	0.718126
C46	C	1.193565	0.433646	0.344119
C47	C	1.056137	0.523834	0.344144
C48	C	1.030445	0.540695	0.468805
H49	H	0.718688	0.159335	-0.000019
H50	H	0.790289	0.584207	-0.000082
H51	H	1.326226	0.346597	0.367263
O52	O	0.920522	0.201040	-0.000177
C53	C	1.074669	0.125578	-0.102809
C54	C	1.003444	0.198818	-0.102771
H55	H	1.141715	0.123743	-0.185760
H56	H	1.107676	0.146187	-0.019978
H57	H	1.027291	0.052528	-0.102749
H58	H	1.050750	0.271893	-0.102873
H59	H	0.970432	0.178128	-0.185595
H60	H	0.481377	0.652905	-0.000097
H61	H	0.994223	0.564492	0.706555
O62	O	1.001695	0.559390	0.283740
C63	C	0.833682	0.563129	0.245567
C64	C	0.895194	0.522810	0.314080
H65	H	0.747569	0.533556	0.270053
H66	H	0.841861	0.643727	0.270085
H67	H	0.866102	0.541903	0.145763
H68	H	0.862816	0.543965	0.413899
H69	H	0.887016	0.442219	0.289462
O70	O	0.951281	0.592705	0.529555
C71	C	0.850768	0.658604	0.721626
C72	C	0.940459	0.599707	0.652975
H73	H	0.841974	0.664267	0.821423
H74	H	0.869114	0.732602	0.697197
H75	H	0.774758	0.622485	0.697067
H76	H	1.016505	0.635744	0.677497
H77	H	0.922022	0.525711	0.677409
O78	O	1.272664	0.381486	0.283662
C79	C	1.339509	0.231100	0.245723
C80	C	1.249847	0.290078	0.314215
H81	H	1.321104	0.157191	0.270418
H82	H	1.348316	0.225220	0.145889
H83	H	1.415530	0.267258	0.270219
H84	H	1.173776	0.253967	0.289818
H85	H	1.241133	0.295962	0.414032
H86	H	0.431050	0.318049	-0.000042
O87	O	1.440392	0.271625	0.470726
C88	C	1.574030	0.184000	0.483865
C89	C	1.484317	0.242911	0.552385
H90	H	1.609584	0.160784	0.549856
H91	H	1.542326	0.118762	0.425547
H92	H	1.636646	0.228904	0.425451
H93	H	1.421669	0.198087	0.610863
H94	H	1.516099	0.308154	0.610627
H95	H	1.380966	0.310695	0.706515
O96	O	1.091371	0.500677	0.839225
C97	C	0.979141	0.574405	1.018140
C98	C	1.007468	0.555853	0.880997
H99	H	0.911317	0.619033	1.051955
H100	H	0.955346	0.503977	1.052054
H101	H	1.049852	0.613996	1.051943
H102	H	0.936799	0.516292	0.847093
H103	H	1.031302	0.626312	0.847164
O104	O	0.679517	0.719960	-0.000182
C105	C	0.831594	0.835979	-0.000196
C106	C	0.786559	0.731134	-0.000094
H107	H	0.918138	0.845050	-0.000100
H108	H	0.822125	0.859047	-0.083119
H109	H	0.787828	0.881474	0.082652
H110	H	0.830293	0.685565	-0.082885
H111	H	0.796012	0.708142	0.082884
H112	H	0.866995	0.505227	-0.000061
H113	H	0.548441	0.197207	-0.000035
