data_functionalizedCrystal
_audit_creation_method	'MofGen! by Chris Wilmer'
_symmetry_space_group_name_H-M	'P1'
_symmetry_Int_Tables_number	1
_symmetry_cell_setting	triclinic
loop_
_symmetry_equiv_pos_as_xyz
  x,y,z
_cell_length_a	8.559649
_cell_length_b	10.967829
_cell_length_c	7.681481
_cell_angle_alpha	72.153773
_cell_angle_beta	94.912730
_cell_angle_gamma	77.415441
loop_
_atom_site_label
_atom_site_type_symbol
_atom_site_fract_x
_atom_site_fract_y
_atom_site_fract_z
O1	O	2.105628	-0.029860	-0.137361
O2	O	1.639078	0.036333	-0.157451
O3	O	1.888889	-0.184598	-0.090403
O4	O	1.855817	0.191071	-0.204409
O5	O	1.919637	-0.211846	0.210724
O6	O	1.669827	0.009085	0.143676
O7	O	2.136376	-0.057108	0.163766
Zn8	Zn	1.907984	-0.028338	0.201531
Zn9	Zn	1.867471	0.007562	-0.195216
O10	O	1.886566	0.163823	0.096718
C11	C	1.594820	0.027726	-0.008410
C12	C	1.417137	0.042657	-0.012942
C13	C	1.904180	-0.245870	0.074617
C14	C	1.903913	-0.387845	0.117692
C15	C	1.887865	-0.437020	-0.019099
C16	C	1.887589	-0.583758	0.025417
C17	C	2.180634	-0.048500	0.014721
C18	C	2.358316	-0.063431	0.019241
C19	C	1.871274	0.225095	-0.068306
C20	C	1.871540	0.367071	-0.111393
N21	N	1.935644	-0.052840	0.472302
N22	N	1.839823	0.032054	-0.465983
H23	H	1.443901	-0.165689	0.050273
H24	H	1.874324	-0.370485	-0.169167
O25	O	2.052559	-0.156112	0.593266
C26	C	2.205990	-0.146834	0.545461
H27	H	2.199570	-0.039637	0.462139
H28	H	2.243190	-0.212640	0.458544
C29	C	2.339894	-0.324272	0.825545
C30	C	2.332012	-0.192609	0.723221
H31	H	2.417634	-0.352513	0.935193
H32	H	2.236525	-0.330527	0.857750
H33	H	2.370889	-0.379094	0.753093
H34	H	2.300998	-0.137788	0.795664
H35	H	2.435379	-0.186346	0.691031
H36	H	1.331559	0.144910	-0.043991
H37	H	1.857985	-0.566397	-0.261473
O38	O	1.903454	-0.663001	0.204477
C39	C	1.774871	-0.611385	0.286007
H40	H	1.668080	-0.546280	0.172904
H41	H	1.816880	-0.549681	0.366961
C42	C	1.853085	-0.806267	0.557406
C43	C	1.721917	-0.726312	0.418492
H44	H	1.820424	-0.877158	0.639136
H45	H	1.939718	-0.841041	0.502482
H46	H	1.888080	-0.754832	0.624848
H47	H	1.686938	-0.777743	0.351039
H48	H	1.635277	-0.691550	0.473408
O49	O	1.920283	-0.467124	0.296811
C50	C	2.069434	-0.471829	0.395407
H51	H	2.111174	-0.380101	0.322370
H52	H	2.164193	-0.564512	0.401259
C53	C	1.996706	-0.588340	0.683572
C54	C	2.047965	-0.475672	0.593874
H55	H	1.983467	-0.590717	0.805999
H56	H	1.896222	-0.585175	0.617146
H57	H	2.075679	-0.665564	0.688430
H58	H	1.968982	-0.398452	0.588997
H59	H	2.148436	-0.478824	0.660304
H60	H	1.742010	0.118706	0.432523
