data_functionalizedCrystal
_audit_creation_method	'MofGen! by Chris Wilmer'
_symmetry_space_group_name_H-M	'P1'
_symmetry_Int_Tables_number	1
_symmetry_cell_setting	triclinic
loop_
_symmetry_equiv_pos_as_xyz
  x,y,z
_cell_length_a	16.120490
_cell_length_b	16.120444
_cell_length_c	12.759393
_cell_angle_alpha	92.863572
_cell_angle_beta	87.082433
_cell_angle_gamma	90.165174
loop_
_atom_site_label
_atom_site_type_symbol
_atom_site_fract_x
_atom_site_fract_y
_atom_site_fract_z
Zn1	Zn	1.254489	-0.395617	-0.699338
Zn2	Zn	1.754489	0.104383	-0.199338
Zn3	Zn	1.247325	-0.534691	-0.532072
Zn4	Zn	1.747325	-0.034691	-0.032072
Zn5	Zn	1.115423	-0.388592	-0.514347
Zn6	Zn	1.615423	0.111408	-0.014347
Zn7	Zn	1.108339	-0.527563	-0.698382
Zn8	Zn	1.608339	-0.027563	-0.198382
O9	O	1.181394	-0.461616	-0.611035
O10	O	1.681394	0.038384	-0.111035
O11	O	1.369904	-0.419989	-0.684967
O12	O	1.869904	0.080011	-0.184967
O13	O	1.229794	-0.515354	-0.382701
O14	O	1.729794	-0.015354	0.117299
O15	O	1.139833	-0.273162	-0.531869
O16	O	1.639833	0.226838	-0.031869
O17	O	1.364641	-0.522166	-0.562078
O18	O	1.864641	-0.022166	-0.062078
O19	O	1.242005	-0.278323	-0.667780
O20	O	1.742005	0.221677	-0.167780
O21	O	1.132887	-0.408016	-0.369678
O22	O	1.632887	0.091984	0.130322
O23	O	0.998117	-0.401104	-0.530942
O24	O	1.498117	0.098896	-0.030942
O25	O	1.127759	-0.510016	-0.845530
O26	O	1.627759	-0.010016	-0.345530
O27	O	0.992913	-0.503205	-0.666152
O28	O	1.492913	-0.003205	-0.166152
O29	O	1.235135	-0.413076	-0.846232
O30	O	1.735135	0.086924	-0.346232
O31	O	1.222925	-0.650108	-0.561152
O32	O	1.722925	-0.150108	-0.061152
O33	O	1.120812	-0.644871	-0.683339
O34	O	1.620812	-0.144871	-0.183339
C35	C	0.965343	-0.450619	-0.596521
C36	C	1.465343	0.049381	-0.096521
C37	C	0.872914	-0.445935	-0.590338
C38	C	1.372914	0.054065	-0.090338
C39	C	1.170345	-0.677662	-0.624090
C40	C	1.670345	-0.177662	-0.124090
C41	C	1.165694	-0.770092	-0.629715
C42	C	1.665694	-0.270092	-0.129715
C43	C	1.205723	-0.983071	-0.582095
C44	C	1.705723	-0.483071	-0.082095
C45	C	1.157218	-0.939317	-0.639997
C46	C	1.657218	-0.439317	-0.139997
C47	C	1.161936	-0.845151	-0.634274
C48	C	1.661936	-0.345151	-0.134274
C49	C	1.201007	-1.077246	-0.587816
C50	C	1.701007	-0.577246	-0.087816
C51	C	0.659945	-0.485908	-0.643109
C52	C	1.159945	0.014092	-0.143109
C53	C	0.703690	-0.437390	-0.579048
C54	C	1.203690	0.062610	-0.079048
C55	C	0.797855	-0.442145	-0.585332
C56	C	1.297855	0.057855	-0.085332
C57	C	0.565772	-0.481154	-0.636827
C58	C	1.065772	0.018846	-0.136827
C59	C	1.398289	-0.472656	-0.625606
C60	C	1.898289	0.027344	-0.125606
C61	C	1.490716	-0.477361	-0.631816
C62	C	1.990716	0.022639	-0.131816
C63	C	1.181456	-0.461535	-0.885067
C64	C	1.681456	0.038465	-0.385067
C65	C	1.181483	-0.461500	-1.001843
C66	C	1.681483	0.038500	-0.501843
C67	C	1.192509	-0.244727	-0.597954
C68	C	1.692509	0.255273	-0.097954
C69	C	1.197245	-0.152302	-0.592380
C70	C	1.697245	0.347698	-0.092380
C71	C	1.131042	-0.405600	-1.049925
C72	C	1.631042	0.094400	-0.549925
C73	C	1.131063	-0.405576	-1.159649
C74	C	1.631063	0.094424	-0.659649
C75	C	1.231971	-0.517353	-1.173201
C76	C	1.731971	-0.017353	-0.673201
C77	C	1.231946	-0.517381	-1.063479
C78	C	1.731946	-0.017381	-0.563479
C79	C	1.181383	-0.461639	-0.338068
C80	C	1.681383	0.038361	0.161932
C81	C	1.181529	-0.461448	-0.221289
C82	C	1.681529	0.038552	0.278711
H83	H	1.250788	-0.949814	-0.528228
H84	H	1.750788	-0.449814	-0.028228
H85	H	0.693211	-0.531015	-0.702666
H86	H	1.193211	-0.031015	-0.202666
H87	H	1.112149	-0.972578	-0.693866
H88	H	1.612149	-0.472578	-0.193866
N89	N	1.283540	-0.574404	-1.236169
N90	N	1.783540	-0.074404	-0.736169
N91	N	1.360551	-0.572784	-1.228734
N92	N	1.860551	-0.072784	-0.728734
H93	H	1.396978	-0.613071	-1.273206
H94	H	1.896978	-0.113071	-0.773206
H95	H	1.089952	-0.360098	-0.999744
H96	H	1.589952	0.139902	-0.499744
N97	N	0.661950	-0.380799	-0.504335
N98	N	1.161950	0.119201	-0.004335
N99	N	0.584406	-0.376966	-0.499272
N100	N	1.084406	0.123034	0.000728
H101	H	0.554922	-0.337002	-0.446507
H102	H	1.054922	0.162998	0.053493
H103	H	1.273022	-0.562905	-1.024331
H104	H	1.773022	-0.062905	-0.524331
H105	H	1.089989	-0.360057	-1.198791
H106	H	1.589989	0.139943	-0.698791
