data_functionalizedCrystal
_audit_creation_method	'MofGen! by Chris Wilmer'
_symmetry_space_group_name_H-M	'P1'
_symmetry_Int_Tables_number	1
_symmetry_cell_setting	triclinic
loop_
_symmetry_equiv_pos_as_xyz
  x,y,z
_cell_length_a	11.169417
_cell_length_b	12.759394
_cell_length_c	12.759380
_cell_angle_alpha	89.937006
_cell_angle_beta	89.958625
_cell_angle_gamma	90.015716
loop_
_atom_site_label
_atom_site_type_symbol
_atom_site_fract_x
_atom_site_fract_y
_atom_site_fract_z
Zn1	Zn	1.835180	-0.417862	-0.593973
Zn2	Zn	1.834978	-0.593675	-0.418290
Zn3	Zn	1.634390	-0.418013	-0.418312
Zn4	Zn	1.634458	-0.593502	-0.593932
O5	O	1.734752	-0.505763	-0.506127
O6	O	2.003103	-0.441193	-0.570676
O7	O	1.808257	-0.570508	-0.271272
O8	O	1.661082	-0.270972	-0.441640
O9	O	2.002955	-0.570362	-0.441602
O10	O	1.808601	-0.270861	-0.570697
O11	O	1.660886	-0.441451	-0.271288
O12	O	1.466450	-0.441283	-0.441601
O13	O	1.661197	-0.570067	-0.740959
O14	O	1.466499	-0.570214	-0.570628
O15	O	1.808666	-0.441025	-0.740989
O16	O	1.808322	-0.740673	-0.441564
O17	O	1.661001	-0.740546	-0.570607
C18	C	1.422927	-0.505747	-0.506113
C19	C	1.289527	-0.505765	-0.506132
C20	C	1.734680	-0.778730	-0.506101
C21	C	1.734759	-0.895507	-0.506126
C22	C	1.888280	-0.895586	-0.371853
C23	C	1.965072	-0.950486	-0.304729
C24	C	1.965142	-1.060207	-0.304758
C25	C	1.888415	-1.115031	-0.371920
C26	C	1.811623	-1.060131	-0.439044
C27	C	1.811558	-0.950407	-0.439006
C28	C	1.658110	-1.060052	-0.573320
C29	C	1.658031	-0.950331	-0.573288
C30	C	1.581382	-1.114876	-0.640482
C31	C	1.504583	-1.059976	-0.707602
C32	C	1.504515	-0.950248	-0.707570
C33	C	1.581240	-0.895431	-0.640411
C34	C	2.047794	-0.505780	-0.506141
C35	C	2.181194	-0.505787	-0.506147
C36	C	1.734962	-0.505510	-0.780161
C37	C	1.735051	-0.505402	-0.896938
C38	C	1.734857	-0.231729	-0.506175
C39	C	1.734901	-0.114953	-0.506196
C40	C	1.734612	-0.505939	-0.233159
C41	C	1.734755	-0.505751	-0.116383
C42	C	1.580176	-0.372351	-0.116482
C43	C	1.502955	-0.305567	-0.061671
C44	C	1.503096	-0.305394	0.048050
C45	C	1.580468	-0.372009	0.102963
C46	C	1.657689	-0.438792	0.048152
C47	C	1.657538	-0.438961	-0.061572
C48	C	1.812272	-0.572185	0.048251
C49	C	1.812127	-0.572366	-0.061470
C50	C	1.889645	-0.638800	0.103164
C51	C	1.966862	-0.705590	0.048353
C52	C	1.966717	-0.705762	-0.061375
C53	C	1.889348	-0.639149	-0.116281
H54	H	1.888215	-0.806245	-0.371810
C55	C	2.119534	-0.837602	-0.050246
C56	C	2.051601	-0.779175	-0.121619
H57	H	2.171933	-0.882929	-0.087437
H58	H	2.165127	-0.791464	-0.007653
H59	H	2.067611	-0.878052	-0.007252
H60	H	2.103524	-0.738719	-0.164608
H61	H	2.006005	-0.825319	-0.164230
C62	C	1.446030	-0.916267	-0.885428
C63	C	1.420104	-0.889905	-0.781359
H64	H	1.393913	-0.879019	-0.930982
H65	H	1.526647	-0.898198	-0.900840
H66	H	1.435091	-0.989461	-0.895043
H67	H	1.431052	-0.816711	-0.771742
H68	H	1.339468	-0.907967	-0.765942
H69	H	1.889222	-0.639283	-0.205622
C70	C	2.168279	-0.916624	-0.253664
C71	C	2.049404	-0.890224	-0.230902
H72	H	2.220340	-0.879418	-0.208090
H73	H	2.179300	-0.989818	-0.244077
H74	H	2.185819	-0.898521	-0.324262
H75	H	2.031861	-0.908334	-0.160307
H76	H	2.038377	-0.817013	-0.240481
C77	C	2.126663	-1.183501	-0.290318
C78	C	2.049561	-1.120555	-0.230981
H79	H	2.178786	-1.220750	-0.244771
H80	H	2.080975	-1.231848	-0.330304
H81	H	2.172533	-1.140587	-0.336110
H82	H	2.003684	-1.163470	-0.185194
H83	H	2.095255	-1.072202	-0.190977
C84	C	1.341716	-0.291647	0.171683
C85	C	1.418216	-0.231989	0.108310
H86	H	1.289322	-0.246328	0.208890
H87	H	1.296119	-0.337766	0.129074
H88	H	1.387829	-0.331295	0.220078
H89	H	1.372104	-0.192347	0.059910
H90	H	1.463818	-0.185852	0.150923
H91	H	1.580586	-0.371853	0.192304
H92	H	1.581184	-0.806090	-0.640372
H93	H	1.580048	-0.372490	-0.205823
C94	C	1.860066	-0.738699	0.260647
C95	C	1.889801	-0.638615	0.223771
H96	H	1.860169	-0.738588	0.335105
H97	H	1.782739	-0.757389	0.236002
H98	H	1.917138	-0.787994	0.235855
H99	H	1.832724	-0.589321	0.248557
H100	H	1.967139	-0.619913	0.248427
C101	C	1.434082	-0.246601	-0.229914
C102	C	1.417908	-0.232348	-0.122032
H103	H	1.381573	-0.201400	-0.267173
H104	H	1.514562	-0.230735	-0.248064
H105	H	1.417058	-0.317333	-0.247669
H106	H	1.434940	-0.161617	-0.104276
H107	H	1.337409	-0.248206	-0.103875
H108	H	1.888489	-1.204372	-0.371946
H109	H	1.581450	-1.204217	-0.640505
H110	H	1.442123	-1.104622	-0.762284
H111	H	2.029858	-0.759818	0.093071
