data_functionalizedCrystal
_audit_creation_method	'MofGen! by Chris Wilmer'
_symmetry_space_group_name_H-M	'P1'
_symmetry_Int_Tables_number	1
_symmetry_cell_setting	triclinic
loop_
_symmetry_equiv_pos_as_xyz
  x,y,z
_cell_length_a	17.640280
_cell_length_b	14.908571
_cell_length_c	14.909241
_cell_angle_alpha	83.210755
_cell_angle_beta	74.898467
_cell_angle_gamma	74.921313
loop_
_atom_site_label
_atom_site_type_symbol
_atom_site_fract_x
_atom_site_fract_y
_atom_site_fract_z
Zn1	Zn	-0.364344	1.492910	-0.512128
Zn2	Zn	-0.506883	1.515193	-0.329699
Zn3	Zn	-0.364364	1.332811	-0.352055
Zn4	Zn	-0.492075	1.369397	-0.475528
O5	O	-0.431917	1.427578	-0.417353
O6	O	-0.389441	1.623884	-0.493890
O7	O	-0.494183	1.485014	-0.204644
O8	O	-0.251261	1.329411	-0.397963
O9	O	-0.494164	1.640256	-0.359860
O10	O	-0.251247	1.447035	-0.515568
O11	O	-0.389475	1.351018	-0.221069
O12	O	-0.375116	1.209645	-0.362473
O13	O	-0.468926	1.391767	-0.608404
O14	O	-0.468945	1.236525	-0.453187
O15	O	-0.375083	1.482512	-0.635294
O16	O	-0.618019	1.520490	-0.324370
O17	O	-0.607140	1.413374	-0.431510
C18	C	-0.420427	1.189892	-0.406285
C19	C	-0.415530	1.088214	-0.401567
C20	C	-0.641906	1.473346	-0.371563
C21	C	-0.731742	1.493011	-0.352009
C22	C	-0.504199	0.925217	-0.486972
C23	C	-0.499600	0.829682	-0.482542
C24	C	-0.401729	0.801608	-0.388284
C25	C	-0.406328	0.897142	-0.392714
C26	C	-0.457566	0.958944	-0.442058
C27	C	-0.462168	1.054481	-0.446482
C28	C	-0.364293	1.026405	-0.352230
C29	C	-0.359694	0.930870	-0.347800
C30	C	-0.999025	1.278575	-0.566255
C31	C	-1.083441	1.297054	-0.547851
C32	C	-1.094702	1.408672	-0.436409
C33	C	-1.010285	1.390206	-0.454806
C34	C	-0.962452	1.325156	-0.519729
C35	C	-0.973712	1.436786	-0.408280
C36	C	-0.889302	1.418318	-0.426673
C37	C	-0.841464	1.353269	-0.491591
C38	C	-0.878042	1.306687	-0.538122
C39	C	-1.021546	1.501831	-0.343353
C40	C	-0.984974	1.548411	-0.296827
C41	C	-0.900562	1.529948	-0.315224
C42	C	-0.852725	1.464899	-0.380142
C43	C	-0.863985	1.576530	-0.268693
C44	C	-0.779575	1.558061	-0.287086
C45	C	-0.768314	1.446431	-0.398535
C46	C	-0.221108	1.381656	-0.463342
C47	C	-0.131274	1.362088	-0.482940
C48	C	-0.420351	1.438735	-0.655971
C49	C	-0.415422	1.443490	-0.757656
C50	C	-0.443452	1.666192	-0.428464
C51	C	-0.448368	1.767875	-0.433199
C52	C	-0.503898	1.357939	-0.920731
C53	C	-0.499269	1.362404	-1.016272
C54	C	-0.401541	1.456890	-1.044282
C55	C	-0.406170	1.452425	-0.948740
C56	C	-0.457349	1.402946	-0.886968
C57	C	-0.461972	1.398476	-0.791425
C58	C	-0.364249	1.492968	-0.819436
C59	C	-0.359620	1.497433	-0.914977
C60	C	-0.443382	1.416504	-0.179677
C61	C	-0.448092	1.411876	-0.078051
H62	H	-0.503890	1.104800	-0.486659
H63	H	-0.545924	0.975538	-0.527144
H64	H	-0.317954	1.537720	-0.965285
H65	H	-0.537573	0.802226	-0.519118
O66	O	-0.553687	1.309884	-0.860842
C67	C	-0.650114	1.216615	-0.843142
C68	C	-0.593768	1.271014	-0.911065
H69	H	-0.682522	1.185158	-0.883723
H70	H	-0.696618	1.265718	-0.791172
H71	H	-0.612866	1.158641	-0.804246
H72	H	-0.630949	1.328989	-0.950026
H73	H	-0.547262	1.221851	-0.962976
H74	H	-0.317976	0.880538	-0.307628
O75	O	-0.351999	0.741439	-0.340399
C76	C	-0.301437	0.581799	-0.291947
C77	C	-0.357821	0.649842	-0.346167
H78	H	-0.306112	0.507727	-0.296608
H79	H	-0.319974	0.600080	-0.215917
H80	H	-0.236431	0.587218	-0.323234
H81	H	-0.422843	0.644460	-0.314960
H82	H	-0.339215	0.631541	-0.422194
O83	O	-0.319019	1.059318	-0.308683
C84	C	-0.282774	1.194058	-0.273671
C85	C	-0.334070	1.156906	-0.323052
H86	H	-0.294938	1.272963	-0.285254
H87	H	-0.215920	1.161893	-0.303193
H88	H	-0.299533	1.174819	-0.195943
H89	H	-0.317382	1.176133	-0.400784
H90	H	-0.400912	1.189068	-0.293456
H91	H	-0.729367	1.393468	-0.451409
H92	H	-0.359880	1.497182	-1.094592
O93	O	-0.319091	1.536650	-0.786483
C94	C	-0.282822	1.571537	-0.651725
C95	C	-0.334034	1.522065	-0.688915
H96	H	-0.294872	1.559746	-0.572839
H97	H	-0.299649	1.649295	-0.670771
H98	H	-0.215979	1.542138	-0.684050
H99	H	-0.400890	1.551387	-0.656610
H100	H	-0.317139	1.444310	-0.669880
H101	H	-0.839095	1.253724	-0.590996
H102	H	-0.503637	1.358177	-0.741132
H103	H	-0.749798	1.595991	-0.249199
H104	H	-0.772733	1.338226	-0.506558
O105	O	-0.952672	1.215341	-0.629333
C106	C	-0.950401	1.106638	-0.738010
C107	C	-1.002989	1.178201	-0.666580
H108	H	-0.991060	1.076604	-0.768159
H109	H	-0.910662	1.048174	-0.702394
H110	H	-0.910538	1.142209	-0.796409
H111	H	-1.042900	1.142712	-0.608162
H112	H	-1.042674	1.236659	-0.702264
H113	H	-1.133659	1.461633	-0.383545
H114	H	-1.113214	1.259129	-0.585755
O115	O	-1.103546	1.519685	-0.325337
C116	C	-1.227837	1.518713	-0.210115
C117	C	-1.134978	1.498435	-0.230390
H118	H	-1.253279	1.501560	-0.133349
H119	H	-1.245806	1.474231	-0.254463
H120	H	-1.253176	1.595433	-0.227520
H121	H	-1.109574	1.421737	-0.212979
H122	H	-1.117065	1.542978	-0.186052
H123	H	-0.537175	1.325755	-1.043757
O124	O	-1.031362	1.611705	-0.233834
C125	C	-1.066807	1.770925	-0.191226
C126	C	-1.014210	1.699336	-0.262626
H127	H	-1.052970	1.841796	-0.214489
H128	H	-1.053027	1.747921	-0.120301
H129	H	-1.133411	1.776067	-0.186059
H130	H	-0.947589	1.694161	-0.267876
H131	H	-1.028059	1.722370	-0.333514
O132	O	-0.910372	1.639819	-0.205696
C133	C	-0.945819	1.799035	-0.163074
C134	C	-0.893224	1.727453	-0.234482
H135	H	-0.931986	1.869908	-0.186331
H136	H	-0.932035	1.776024	-0.092152
H137	H	-1.012424	1.804175	-0.157903
H138	H	-0.826602	1.722279	-0.239735
H139	H	-0.907077	1.750493	-0.305366
