data_functionalizedCrystal
_audit_creation_method	'MofGen! by Chris Wilmer'
_symmetry_space_group_name_H-M	'P1'
_symmetry_Int_Tables_number	1
_symmetry_cell_setting	triclinic
loop_
_symmetry_equiv_pos_as_xyz
  x,y,z
_cell_length_a	19.188930
_cell_length_b	19.188924
_cell_length_c	9.130313
_cell_angle_alpha	89.996698
_cell_angle_beta	89.985896
_cell_angle_gamma	83.143372
loop_
_atom_site_label
_atom_site_type_symbol
_atom_site_fract_x
_atom_site_fract_y
_atom_site_fract_z
O1	O	0.926139	0.087165	-0.122277
O2	O	0.722827	0.098899	-0.122177
O3	O	0.830353	-0.008624	-0.122213
O4	O	0.818613	0.194688	-0.122241
O5	O	0.830351	-0.008621	0.121386
O6	O	0.722826	0.098902	0.121422
O7	O	0.926137	0.087168	0.121322
Cu8	Cu	0.824481	0.093035	0.143614
Cu9	Cu	0.824483	0.093032	-0.144469
O10	O	0.818612	0.194691	0.121357
C11	C	0.696815	0.098521	-0.000365
C12	C	0.619311	0.097380	-0.000326
C13	C	0.574385	0.160471	-0.000358
C14	C	0.501562	0.159399	-0.000374
C15	C	0.473667	0.095233	-0.000388
C16	C	0.518602	0.032134	-0.000347
C17	C	0.591424	0.033207	-0.000317
N18	N	0.365688	0.046185	-0.083347
N19	N	0.296510	0.045169	-0.083379
C20	C	0.254258	0.091995	-0.000477
N21	N	0.283797	0.139885	0.082441
N22	N	0.352982	0.140902	0.082467
C23	C	0.394704	0.094062	-0.000420
C24	C	0.130368	0.153928	-0.000524
C25	C	0.057543	0.152854	-0.000531
C26	C	0.074585	0.025586	-0.000519
C27	C	0.147409	0.026663	-0.000497
C28	C	0.175295	0.090835	-0.000507
C29	C	0.829973	-0.034634	-0.000412
C30	C	0.828834	-0.112138	-0.000407
C31	C	0.828303	-0.148539	-0.133193
C32	C	0.827223	-0.221362	-0.133204
C33	C	0.826688	-0.257783	-0.000421
C34	C	0.827215	-0.221373	0.132383
C35	C	0.828288	-0.148551	0.132389
N36	N	0.864735	-0.377445	0.098387
N37	N	0.863718	-0.446623	0.098372
C38	C	0.823454	-0.477192	-0.000433
N39	N	0.784255	-0.435970	-0.099245
N40	N	0.785276	-0.366786	-0.099234
C41	C	0.825524	-0.336746	-0.000413
C42	C	0.821751	-0.592555	-0.133240
C43	C	0.820667	-0.665379	-0.133245
C44	C	0.820666	-0.665390	0.132345
C45	C	0.821743	-0.592567	0.132346
C46	C	0.822289	-0.556154	-0.000450
C47	C	0.952149	0.087546	-0.000493
C48	C	1.029654	0.088687	-0.000542
C49	C	0.818992	0.220700	-0.000447
C50	C	0.820131	0.298205	-0.000461
N51	N	0.824485	0.093037	0.346237
N52	N	0.824485	0.093024	-0.347092
C53	C	0.872110	0.045442	0.422873
C54	C	0.872108	0.045433	0.576210
C55	C	0.776855	0.140622	0.576261
C56	C	0.776854	0.140626	0.422927
C57	C	0.919741	-0.002147	0.346183
C58	C	0.967369	-0.049746	0.422820
C59	C	0.967368	-0.049754	0.576157
C60	C	0.919737	-0.002164	0.652857
H61	H	0.020965	0.204232	-0.000548
C62	C	0.487916	-0.038450	-0.000364
N63	N	0.464804	-0.091615	-0.000372
C64	C	0.724466	0.192968	0.660637
N65	N	0.685007	0.232397	0.724190
H66	H	0.628003	-0.018171	-0.000292
H67	H	0.822181	-0.562930	0.240475
H68	H	0.738074	0.179382	0.360529
H69	H	0.051874	-0.026659	-0.000620
H70	H	0.826787	-0.251004	-0.241337
C71	C	0.161046	0.224519	-0.000516
N72	N	0.184151	0.277688	-0.000507
H73	H	0.183988	-0.024713	-0.000479
H74	H	0.597086	0.212725	-0.000369
C75	C	0.828897	-0.108489	-0.279274
N76	N	0.829343	-0.078321	-0.389303
C77	C	1.019750	-0.102122	0.660452
N78	N	1.059206	-0.141568	0.723941
C79	C	0.452135	0.228807	-0.000427
N80	N	0.414908	0.281085	-0.000473
H81	H	0.826777	-0.251032	0.240495
C82	C	0.828876	-0.108510	0.278471
N83	N	0.829321	-0.078350	0.388501
H84	H	0.822192	-0.562906	-0.241371
C85	C	0.820118	-0.705424	-0.279328
N86	N	0.819719	-0.735588	-0.389360
H87	H	0.919748	-0.002144	0.221329
C88	C	0.820077	-0.705449	0.278409
N89	N	0.819633	-0.735625	0.388427
C90	C	1.019751	-0.102101	0.338447
N91	N	1.059204	-0.141538	0.274899
H92	H	0.919735	-0.002180	0.777714
