data_functionalizedCrystal
_audit_creation_method	'MofGen! by Chris Wilmer'
_symmetry_space_group_name_H-M	'P1'
_symmetry_Int_Tables_number	1
_symmetry_cell_setting	triclinic
loop_
_symmetry_equiv_pos_as_xyz
  x,y,z
_cell_length_a	14.971486
_cell_length_b	19.288865
_cell_length_c	13.448316
_cell_angle_alpha	89.988163
_cell_angle_beta	89.998199
_cell_angle_gamma	83.375189
loop_
_atom_site_label
_atom_site_type_symbol
_atom_site_fract_x
_atom_site_fract_y
_atom_site_fract_z
O1	O	1.186458	0.090517	-0.082589
O2	O	0.925999	0.101357	-0.082618
O3	O	1.063755	-0.005169	-0.082583
O4	O	1.048703	0.197043	-0.082624
O5	O	1.063737	-0.005175	0.082801
O6	O	0.925982	0.101350	0.082766
O7	O	1.186441	0.090511	0.082794
Cu8	Cu	1.056210	0.095930	0.097881
Cu9	Cu	1.056230	0.095938	-0.097704
O10	O	1.048685	0.197036	0.082760
C11	C	0.892669	0.100869	0.000071
C12	C	0.793379	0.099416	0.000061
C13	C	0.735816	0.161997	0.000049
C14	C	0.642524	0.160628	0.000065
C15	C	0.606797	0.096677	0.000084
C16	C	0.664368	0.034092	0.000098
C17	C	0.757658	0.035461	0.000090
C18	C	0.469921	0.031241	0.000112
C19	C	0.376624	0.029871	0.000118
C20	C	0.354786	0.156407	0.000087
C21	C	0.448077	0.157777	0.000079
C22	C	0.505641	0.095191	0.000091
C23	C	1.063262	-0.031050	0.000112
C24	C	1.061808	-0.108158	0.000120
C25	C	1.142636	-0.152591	0.000134
C26	C	1.141271	-0.225043	0.000118
C27	C	1.059071	-0.253058	0.000109
C28	C	0.978232	-0.208615	0.000089
C29	C	0.979600	-0.136166	0.000095
C30	C	0.994447	-0.361558	0.058032
C31	C	0.993083	-0.434007	0.058032
C32	C	1.054848	-0.476517	0.000086
C33	C	1.117994	-0.446571	-0.057848
C34	C	1.119362	-0.374121	-0.057842
C35	C	1.057579	-0.331617	0.000101
C36	C	1.134201	-0.599511	0.000081
C37	C	1.132832	-0.671963	0.000059
C38	C	0.969791	-0.655535	0.000040
C39	C	0.971163	-0.583084	0.000052
C40	C	1.053370	-0.555077	0.000077
C41	C	1.219771	0.090999	0.000104
C42	C	1.319061	0.092452	0.000107
C43	C	1.049178	0.222918	0.000063
C44	C	1.050632	0.300026	0.000048
N45	N	1.056202	0.095924	0.235445
N46	N	1.056245	0.095938	-0.235269
C47	C	1.117219	0.048774	0.287501
C48	C	1.117224	0.048773	0.391604
C49	C	1.056217	0.095927	0.443650
C50	C	0.995193	0.143079	0.391587
C51	C	0.995184	0.143076	0.287486
C52	C	0.995218	0.143084	0.608567
C53	C	0.995228	0.143088	0.712675
C54	C	1.117258	0.048781	0.712686
C55	C	1.117249	0.048778	0.608584
C56	C	1.056227	0.095932	0.556529
H57	H	0.595658	0.211588	0.000054
F58	F	0.928704	-0.316322	0.119712
H59	H	1.166902	0.010379	0.245132
F60	F	0.486097	0.225841	0.000048
F61	F	1.182164	-0.001410	0.447006
H62	H	1.207093	-0.261227	0.000125
H63	H	1.166945	0.010388	0.755076
H64	H	0.516788	-0.019723	0.000124
H65	H	1.166930	0.010386	0.566209
F66	F	1.186560	-0.342252	-0.119502
F67	F	0.626343	-0.033970	0.000125
H68	H	0.941662	-0.458383	0.105199
F69	F	0.930239	0.193258	0.232085
H70	H	1.201139	-0.576706	0.000097
H71	H	0.911305	-0.231430	0.000079
F72	F	0.893568	-0.088875	0.000080
F73	F	0.930294	0.193275	0.768059
F74	F	1.218866	-0.719253	0.000067
H75	H	0.945524	0.181479	0.566187
F76	F	0.930259	0.193261	0.446978
H77	H	0.804527	-0.015498	0.000099
F78	F	1.230129	-0.122788	0.000139
H79	H	0.764896	0.214073	0.000033
H80	H	0.307912	0.207367	0.000081
H81	H	0.902863	-0.678344	0.000027
F82	F	1.183734	-0.491808	-0.119525
F83	F	0.338604	-0.038193	0.000165
H84	H	0.905343	-0.546906	0.000046
