data_functionalizedCrystal
_audit_creation_method	'MofGen! by Chris Wilmer'
_symmetry_space_group_name_H-M	'P1'
_symmetry_Int_Tables_number	1
_symmetry_cell_setting	triclinic
loop_
_symmetry_equiv_pos_as_xyz
  x,y,z
_cell_length_a	13.032831
_cell_length_b	18.050589
_cell_length_c	13.033431
_cell_angle_alpha	82.821406
_cell_angle_beta	103.314307
_cell_angle_gamma	82.833186
loop_
_atom_site_label
_atom_site_type_symbol
_atom_site_fract_x
_atom_site_fract_y
_atom_site_fract_z
Zn1	Zn	1.699731	-0.522266	0.806375
Zn2	Zn	1.677091	-0.628345	0.628770
Zn3	Zn	1.499627	-0.486097	0.606278
Zn4	Zn	1.522058	-0.628317	0.783805
O5	O	1.599627	-0.566256	0.706307
O6	O	1.845355	-0.551486	0.801673
O7	O	1.634687	-0.594351	0.477162
O8	O	1.526258	-0.386981	0.632854
O9	O	1.828721	-0.629422	0.671188
O10	O	1.673275	-0.413554	0.779864
O11	O	1.504305	-0.489842	0.460638
O12	O	1.353976	-0.489814	0.610969
O13	O	1.564490	-0.629373	0.935423
O14	O	1.370456	-0.594302	0.741398
O15	O	1.695026	-0.551458	0.952005
O16	O	1.656438	-0.732255	0.649303
O17	O	1.542536	-0.732234	0.763207
C18	C	1.323679	-0.538131	0.671294
C19	C	1.205630	-0.526119	0.656341
C20	C	1.161170	-0.572525	0.714111
C21	C	1.039161	-0.560112	0.698658
C22	C	1.599496	-0.759194	0.706273
C23	C	1.599542	-0.841746	0.706306
C24	C	1.537669	-1.041217	0.768231
C25	C	1.499501	-1.078142	0.668037
C26	C	1.599648	-0.992889	0.706334
C27	C	1.637869	-1.103052	0.806546
C28	C	1.599750	-1.138886	0.706368
C29	C	1.561423	-1.028716	0.606081
C30	C	1.699845	-1.053633	0.744661
C31	C	1.661706	-1.090532	0.644405
C32	C	1.599587	-0.908783	0.706315
C33	C	1.599810	-1.222989	0.706376
C34	C	1.876652	-0.594492	0.741457
C35	C	1.994704	-0.606524	0.756436
C36	C	1.634785	-0.594447	0.983328
C37	C	1.649768	-0.606461	1.101378
C38	C	1.599790	-0.372571	0.706368
C39	C	1.599859	-0.290034	0.706394
C40	C	1.607428	-0.572523	1.267848
C41	C	1.591934	-0.560104	1.145837
C42	C	1.564594	-0.538189	1.430362
C43	C	1.549602	-0.526172	1.312311
H44	H	1.153368	-0.477197	0.595446
H45	H	0.986902	-0.511186	0.637758
H46	H	1.668400	-0.621402	1.320111
C47	C	1.510711	-0.494947	1.075988
C48	C	1.511515	-0.495567	0.968860
C49	C	1.436719	-0.435553	0.904486
H50	H	1.441567	-0.500308	1.084927
H51	H	1.528586	-0.448449	1.096040
H52	H	1.493634	-0.542054	0.948814
H53	H	1.580641	-0.490196	0.959887
H54	H	1.454594	-0.389054	0.924538
H55	H	1.367581	-0.440919	0.913434
H56	H	1.437262	-0.435961	0.831794
H57	H	1.488622	-0.477298	1.260048
H58	H	1.485156	-1.019547	0.820480
C59	C	1.681004	-1.145903	0.919596
C60	C	1.706879	-1.094653	0.990055
C61	C	1.746622	-1.134097	1.094204
H62	H	1.628298	-1.172620	0.939188
H63	H	1.743136	-1.180702	0.922861
H64	H	1.644755	-1.059868	0.986795
H65	H	1.759594	-1.067935	0.970498
H66	H	1.808754	-1.168896	1.097469
H67	H	1.693910	-1.160813	1.113785
H68	H	1.764192	-1.099331	1.142022
H69	H	1.046963	-0.655444	0.817346
C70	C	1.230991	-0.637657	0.795396
C71	C	1.303373	-0.609056	0.871569
C72	C	1.367716	-0.669034	0.946458
H73	H	1.187412	-0.665203	0.829754
H74	H	1.269135	-0.670193	0.760164
H75	H	1.265233	-0.576532	0.906798
H76	H	1.346976	-0.581516	0.837243
H77	H	1.405860	-0.701570	0.911226
H78	H	1.324129	-0.696576	0.980808
H79	H	1.416842	-0.649637	0.998145
C80	C	1.386527	-1.093022	0.625016
C81	C	1.321935	-1.068111	0.690106
C82	C	1.217860	-1.081811	0.650524
H83	H	1.358845	-1.066535	0.554281
H84	H	1.387426	-1.145709	0.624768
H85	H	1.321031	-1.015433	0.690343
H86	H	1.349582	-1.094592	0.760843
H87	H	1.218758	-1.134498	0.650275
H88	H	1.190189	-1.055324	0.579788
H89	H	1.174023	-1.064918	0.694686
H90	H	1.529040	-0.996558	0.521312
H91	H	1.714154	-1.112046	0.592005
H92	H	1.784517	-1.042441	0.777095
H93	H	1.710752	-0.655339	1.153636
