data_functionalizedCrystal
_audit_creation_method	'MofGen! by Chris Wilmer'
_symmetry_space_group_name_H-M	'P1'
_symmetry_Int_Tables_number	1
_symmetry_cell_setting	triclinic
loop_
_symmetry_equiv_pos_as_xyz
  x,y,z
_cell_length_a	10.654545
_cell_length_b	14.853567
_cell_length_c	13.330367
_cell_angle_alpha	89.995281
_cell_angle_beta	89.999981
_cell_angle_gamma	84.060179
loop_
_atom_site_label
_atom_site_type_symbol
_atom_site_fract_x
_atom_site_fract_y
_atom_site_fract_z
O1	O	0.163956	1.197248	-0.083349
O2	O	0.183488	0.934893	-0.083366
O3	O	-0.009080	1.072102	-0.083356
O4	O	0.356524	1.060039	-0.083358
O5	O	-0.009076	1.072081	0.083491
O6	O	0.183492	0.934872	0.083482
O7	O	0.163960	1.197227	0.083498
Cu8	Cu	0.173726	1.066047	0.098724
Cu9	Cu	0.173721	1.066072	-0.098592
O10	O	0.356528	1.060018	0.083489
C11	C	0.182605	0.901289	0.000056
C12	C	0.179953	0.801191	0.000049
C13	C	-0.055867	1.071205	0.000065
C14	C	-0.195283	1.068554	0.000059
C15	C	0.054353	0.387984	0.000073
C16	C	0.283127	0.367929	0.000070
C17	C	0.285621	0.461976	0.000067
C18	C	0.172479	0.519032	0.000065
C19	C	0.056843	0.482040	0.000066
C20	C	0.401255	0.498974	0.000055
C21	C	0.403753	0.593027	0.000051
C22	C	0.290609	0.650084	0.000056
C23	C	0.174969	0.613088	0.000059
C24	C	0.061826	0.670143	0.000057
C25	C	-0.053816	0.633149	0.000066
C26	C	-0.056301	0.539098	0.000072
C27	C	0.293095	0.744135	0.000051
C28	C	0.064317	0.764200	0.000051
C29	C	-0.195296	1.068588	-0.181843
C30	C	-0.260799	1.067363	-0.272793
C31	C	-0.391792	1.064873	-0.272794
C32	C	-0.457284	1.063605	-0.181835
C33	C	-0.391780	1.064830	-0.090885
C34	C	-0.260785	1.067323	-0.090893
C35	C	-0.391766	1.064790	0.091015
C36	C	-0.260775	1.067286	0.091018
C37	C	-0.457258	1.063522	0.181974
C38	C	-0.391756	1.064753	0.272927
C39	C	-0.260755	1.067245	0.272924
C40	C	-0.195271	1.068511	0.181969
C41	C	0.403314	1.060914	0.000065
C42	C	0.542730	1.063565	0.000064
C43	C	0.164843	1.230831	0.000075
C44	C	0.167495	1.330928	0.000074
N45	N	0.173729	1.066036	0.237506
N46	N	0.173709	1.066090	-0.237373
C47	C	0.097421	1.010887	0.290028
C48	C	0.250030	1.121196	0.290012
C49	C	0.250029	1.121207	0.395030
C50	C	0.173722	1.066058	0.447552
C51	C	0.097415	1.010898	0.395056
C52	C	0.326325	1.176372	0.447535
C53	C	0.326326	1.176386	0.552559
C54	C	0.250024	1.121231	0.605083
C55	C	0.173716	1.066069	0.552580
C56	C	0.097408	1.010919	0.605102
C57	C	0.021106	0.955751	0.552601
C58	C	0.021114	0.955743	0.447580
C59	C	0.250016	1.121239	0.710105
C60	C	0.097402	1.010930	0.710130
H61	H	-0.027819	0.810649	0.000053
H62	H	-0.445089	1.063714	0.346978
C63	C	0.460493	1.157909	0.257672
C64	C	0.333903	1.181815	0.232283
H65	H	0.512273	1.195338	0.222032
H66	H	0.483661	1.096379	0.240467
H67	H	0.471400	1.165812	0.327734
H68	H	0.322994	1.173906	0.162221
H69	H	0.310727	1.243360	0.249480
C70	C	-0.630937	0.982652	-0.132333
C71	C	-0.601272	1.060858	-0.181839
H72	H	-0.719830	0.980955	-0.132341
H73	H	-0.601309	0.983213	-0.065157
H74	H	-0.591806	0.930750	-0.165939
H75	H	-0.640395	1.112761	-0.148228
H76	H	-0.630914	1.060305	-0.249028
H77	H	-0.563919	1.061489	0.181966
H78	H	0.497916	0.623139	0.000043
H79	H	0.387249	0.774252	0.000045
H80	H	-0.145936	0.679616	0.000058
C81	C	-0.161694	0.403831	0.000067
C82	C	-0.183406	0.498431	0.000071
H83	H	-0.240164	0.378725	0.000058
H84	H	-0.115112	0.384300	0.058248
H85	H	-0.115098	0.384313	-0.058119
H86	H	-0.229994	0.517950	0.058261
H87	H	-0.230008	0.517970	-0.058116
C88	C	-0.206460	0.990813	-0.427861
C89	C	-0.188795	1.068764	-0.372766
H90	H	-0.162000	0.991678	-0.489575
H91	H	-0.293836	0.989159	-0.440885
H92	H	-0.175502	0.938737	-0.390492
H93	H	-0.219762	1.120840	-0.410132
H94	H	-0.101401	1.070427	-0.359745
H95	H	-0.207428	1.068228	0.346988
H96	H	-0.041010	0.910830	0.404824
H97	H	-0.039800	0.357859	0.000084
H98	H	-0.445123	1.063867	-0.346854
H99	H	0.375243	0.321469	0.000063
H100	H	-0.088636	1.070626	-0.181851
C101	C	0.499005	0.345897	0.000084
C102	C	0.525615	0.436259	0.000064
H103	H	0.575784	0.307178	0.000098
H104	H	0.451607	0.334607	-0.058094
H105	H	0.451593	0.334621	0.058273
H106	H	0.573019	0.447537	-0.058129
H107	H	0.573033	0.447554	0.058248
H108	H	-0.088611	1.070544	0.181958
H109	H	0.035268	0.966016	0.752886
C110	C	0.047741	0.859551	0.257732
C111	C	0.013553	0.950248	0.232323
H112	H	-0.004033	0.822116	0.222101
H113	H	0.036809	0.851675	0.327788
H114	H	0.133630	0.843348	0.240523
H115	H	-0.072334	0.966453	0.249539
H116	H	0.024473	0.958128	0.162252
C117	C	0.536786	1.213093	0.415194
C118	C	0.410194	1.236990	0.389801
H119	H	0.588562	1.250521	0.379550
H120	H	0.559960	1.151561	0.397999
H121	H	0.547688	1.221005	0.485256
H122	H	0.399290	1.229072	0.319740
H123	H	0.387012	1.298536	0.406989
C124	C	0.376028	1.327719	0.584854
C125	C	0.410207	1.237019	0.610259
H126	H	0.427822	1.365147	0.620473
H127	H	0.290156	1.343928	0.602073
H128	H	0.386947	1.335593	0.514788
H129	H	0.399279	1.229144	0.680325
H130	H	0.496100	1.220805	0.593048
H131	H	-0.041029	0.910853	0.595378
H132	H	0.312136	1.166160	0.752846
