data_functionalizedCrystal
_audit_creation_method	'MofGen! by Chris Wilmer'
_symmetry_space_group_name_H-M	'P1'
_symmetry_Int_Tables_number	1
_symmetry_cell_setting	triclinic
loop_
_symmetry_equiv_pos_as_xyz
  x,y,z
_cell_length_a	18.215407
_cell_length_b	29.839131
_cell_length_c	18.215399
_cell_angle_alpha	89.969127
_cell_angle_beta	89.980167
_cell_angle_gamma	90.041868
loop_
_atom_site_label
_atom_site_type_symbol
_atom_site_fract_x
_atom_site_fract_y
_atom_site_fract_z
Zn1	Zn	1.124987	-0.178853	-0.416101
Zn2	Zn	1.624987	0.321147	0.083899
Zn3	Zn	1.124860	-0.253982	-0.293028
Zn4	Zn	1.624860	0.246018	0.206972
Zn5	Zn	1.001920	-0.178867	-0.293048
Zn6	Zn	1.501920	0.321133	0.206952
Zn7	Zn	1.001850	-0.253957	-0.416053
Zn8	Zn	1.501850	0.246043	0.083947
O9	O	1.063404	-0.216415	-0.354558
O10	O	1.563404	0.283585	0.145442
O11	O	1.227955	-0.188823	-0.399787
O12	O	1.727955	0.311177	0.100213
O13	O	1.108528	-0.244034	-0.190047
O14	O	1.608528	0.255966	0.309953
O15	O	1.018327	-0.115998	-0.309400
O16	O	1.518327	0.384002	0.190600
O17	O	1.227861	-0.244020	-0.309366
O18	O	1.727861	0.255980	0.190634
O19	O	1.108745	-0.115987	-0.399806
O20	O	1.608745	0.384013	0.100194
O21	O	1.018204	-0.188848	-0.190061
O22	O	1.518204	0.311152	0.309939
O23	O	0.898926	-0.188824	-0.309354
O24	O	1.398926	0.311176	0.190646
O25	O	1.018209	-0.243978	-0.519044
O26	O	1.518209	0.256022	-0.019044
O27	O	0.898875	-0.243992	-0.399725
O28	O	1.398875	0.256008	0.100275
O29	O	1.108677	-0.188799	-0.519079
O30	O	1.608677	0.311201	-0.019079
O31	O	1.108460	-0.316846	-0.309320
O32	O	1.608460	0.183154	0.190680
O33	O	1.018086	-0.316827	-0.399705
O34	O	1.518086	0.183173	0.100295
C35	C	0.872198	-0.216407	-0.354537
C36	C	1.372198	0.283593	0.145463
C37	C	0.790399	-0.216414	-0.354545
C38	C	1.290399	0.283586	0.145455
C39	C	0.602198	-0.245186	-0.401542
C40	C	1.102198	0.254814	0.098458
C41	C	0.525339	-0.245187	-0.401551
C42	C	1.025339	0.254813	0.098449
C43	C	0.525363	-0.187652	-0.307589
C44	C	1.025363	0.312348	0.192411
C45	C	0.602220	-0.187648	-0.307584
C46	C	1.102220	0.312352	0.192416
C47	C	0.640636	-0.216418	-0.354560
C48	C	1.140636	0.283582	0.145440
C49	C	0.486920	-0.216423	-0.354574
C50	C	0.986920	0.283577	0.145426
C51	C	0.403586	-0.216424	-0.354583
C52	C	0.903586	0.283576	0.145417
C53	C	0.723975	-0.216416	-0.354551
C54	C	1.223975	0.283584	0.145449
C55	C	1.063272	-0.333137	-0.354521
C56	C	1.563272	0.166863	0.145479
C57	C	1.063282	-0.383072	-0.354530
C58	C	1.563282	0.116928	0.145470
C59	C	1.110548	-0.692712	-0.307563
C60	C	1.610548	-0.192712	0.192437
C61	C	1.110639	-0.880385	-0.307591
C62	C	1.610639	-0.380385	0.192409
O63	O	1.150721	-0.904647	-0.267629
O64	O	1.650721	-0.404647	0.232371
N65	N	1.063557	-0.903857	-0.354613
N66	N	1.563557	-0.403857	0.145387
C67	C	1.016452	-0.880407	-0.401635
C68	C	1.516452	-0.380407	0.098365
O69	O	0.976414	-0.904678	-0.441636
O70	O	1.476414	-0.404678	0.058364
C71	C	1.016366	-0.692735	-0.401609
C72	C	1.516366	-0.192735	0.098391
C73	C	1.063446	-0.669266	-0.354579
C74	C	1.563446	-0.169266	0.145421
C75	C	1.157625	-0.669243	-0.260536
C76	C	1.657625	-0.169243	0.239464
C77	C	1.157599	-0.622327	-0.260527
C78	C	1.657599	-0.122327	0.239473
C79	C	1.110496	-0.598881	-0.307544
C80	C	1.610496	-0.098881	0.192456
C81	C	1.063420	-0.622350	-0.354570
C82	C	1.563420	-0.122350	0.145430
C83	C	0.969265	-0.669287	-0.448634
C84	C	1.469265	-0.169287	0.051366
C85	C	0.969249	-0.622365	-0.448625
C86	C	1.469249	-0.122365	0.051375
C87	C	1.016329	-0.598896	-0.401595
C88	C	1.516329	-0.098896	0.098405
C89	C	1.016291	-0.551989	-0.401577
C90	C	1.516291	-0.051989	0.098423
N91	N	1.063373	-0.528517	-0.354554
N92	N	1.563373	-0.028517	0.145446
C93	C	1.110476	-0.551963	-0.307538
C94	C	1.610476	-0.051963	0.192462
C95	C	1.016500	-0.978938	-0.401644
C96	C	1.516500	-0.478938	0.098356
C97	C	1.016521	-1.025856	-0.401649
C98	C	1.516521	-0.525856	0.098351
C99	C	1.110709	-1.025830	-0.307606
C100	C	1.610709	-0.525830	0.192394
C101	C	1.110684	-0.978911	-0.307598
C102	C	1.610684	-0.478911	0.192402
C103	C	1.063582	-0.955466	-0.354622
C104	C	1.563582	-0.455466	0.145378
C105	C	1.110417	-0.453437	-0.307521
C106	C	1.610417	0.046563	0.192479
C107	C	1.110385	-0.406518	-0.307514
C108	C	1.610385	0.093482	0.192486
C109	C	1.016200	-0.406547	-0.401559
C110	C	1.516200	0.093453	0.098441
C111	C	1.016229	-0.453463	-0.401564
C112	C	1.516229	0.046537	0.098436
C113	C	1.063344	-0.476907	-0.354543
C114	C	1.563344	0.023093	0.145457
O115	O	0.976236	-0.527698	-0.441523
O116	O	1.476236	-0.027698	0.058477
O117	O	1.150520	-0.527685	-0.267554
O118	O	1.650520	-0.027685	0.232446
C119	C	1.110574	-0.739627	-0.307572
C120	C	1.610574	-0.239627	0.192428
C121	C	1.063498	-0.763097	-0.354598
C122	C	1.563498	-0.263097	0.145402
C123	C	1.016395	-0.739651	-0.401615
C124	C	1.516395	-0.239651	0.098385
C125	C	1.063518	-0.810015	-0.354604
C126	C	1.563518	-0.310015	0.145396
C127	C	1.110621	-0.833461	-0.307587
C128	C	1.610621	-0.333461	0.192413
C129	C	1.157703	-0.809989	-0.260565
C130	C	1.657703	-0.309989	0.239435
C131	C	1.157677	-0.763074	-0.260555
C132	C	1.657677	-0.263074	0.239445
C133	C	0.969313	-0.763122	-0.448637
C134	C	1.469313	-0.263122	0.051363
C135	C	0.969342	-0.810038	-0.448642
C136	C	1.469342	-0.310038	0.051358
C137	C	1.016445	-0.833484	-0.401625
C138	C	1.516445	-0.333484	0.098375
C139	C	1.255357	-0.216423	-0.354579
C140	C	1.755357	0.283577	0.145421
C141	C	1.337156	-0.216426	-0.354589
C142	C	1.837156	0.283574	0.145411
C143	C	1.063449	-0.216384	-0.546511
C144	C	1.563449	0.283616	-0.046511
C145	C	1.063468	-0.216370	-0.628310
C146	C	1.563468	0.283630	-0.128310
C147	C	1.063558	-0.099236	-0.354610
C148	C	1.563558	0.400764	0.145390
C149	C	1.063623	-0.049302	-0.354633
C150	C	1.563623	0.450698	0.145367
C151	C	1.110592	-0.187612	-0.816523
C152	C	1.610592	0.312388	-0.316523
C153	C	1.110601	-0.187599	-0.893382
C154	C	1.610601	0.312401	-0.393382
C155	C	1.016397	-0.245059	-0.893334
C156	C	1.516397	0.254941	-0.393334
C157	C	1.016385	-0.245070	-0.816477
C158	C	1.516385	0.254930	-0.316477
C159	C	1.063487	-0.216347	-0.778073
C160	C	1.563487	0.283653	-0.278073
C161	C	1.063507	-0.216323	-0.931789
C162	C	1.563507	0.283677	-0.431789
C163	C	1.063517	-0.216309	-1.015123
C164	C	1.563517	0.283691	-0.515123
C165	C	1.063477	-0.216360	-0.694734
C166	C	1.563477	0.283640	-0.194734
C167	C	1.063402	-0.216413	-0.163351
C168	C	1.563402	0.283587	0.336649
C169	C	1.063526	-0.216300	-0.081553
C170	C	1.563526	0.283700	0.418447
H171	H	0.633474	-0.268610	-0.439794
H172	H	1.133474	0.231390	0.060206
H173	H	0.494047	-0.268612	-0.439810
H174	H	0.994047	0.231388	0.060190
H175	H	1.148944	-0.164223	-0.785257
H176	H	1.648944	0.335777	-0.285257
C177	C	0.917433	-0.596579	-0.500357
C178	C	1.417433	-0.096579	-0.000357
N179	N	0.878403	-0.577157	-0.539320
N180	N	1.378403	-0.077157	-0.039320
H181	H	0.978021	-0.268469	-0.785170
H182	H	1.478021	0.231531	-0.285170
C183	C	1.209466	-0.737263	-0.208815
C184	C	1.709466	-0.237263	0.291185
N185	N	1.248476	-0.717826	-0.169841
N186	N	1.748476	-0.217826	0.330159
H187	H	1.148723	-0.387411	-0.269213
H188	H	1.648723	0.112589	0.230787
H189	H	1.196053	-0.829087	-0.222280
H190	H	1.696053	-0.329087	0.277720
C191	C	1.162423	-0.155989	-0.935673
C192	C	1.662423	0.344011	-0.435673
N193	N	1.201457	-0.132179	-0.967527
N194	N	1.701457	0.367821	-0.467527
C195	C	0.964586	-0.276652	-0.935585
C196	C	1.464586	0.223348	-0.435585
N197	N	0.925561	-0.300449	-0.967408
N198	N	1.425561	0.199551	-0.467408
C199	C	0.483099	-0.156010	-0.255915
C200	C	0.983099	0.343990	0.244085
N201	N	0.451266	-0.132177	-0.216991
N202	N	0.951266	0.367823	0.283009
H203	H	1.148784	-0.472520	-0.269233
H204	H	1.648784	0.027480	0.230767
C205	C	0.644504	-0.156000	-0.255897
C206	C	1.144504	0.344000	0.244103
N207	N	0.676353	-0.132163	-0.216969
N208	N	1.176353	0.367837	0.283031
C209	C	1.162477	-0.953100	-0.255863
C210	C	1.662477	-0.453100	0.244137
N211	N	1.201491	-0.933661	-0.216896
N212	N	1.701491	-0.433661	0.283104
H213	H	1.195985	-0.688328	-0.222250
H214	H	1.695985	-0.188328	0.277750
C215	C	0.917546	-0.835849	-0.500382
C216	C	1.417546	-0.335849	-0.000382
N217	N	0.878538	-0.855288	-0.539356
N218	N	1.378538	-0.355288	-0.039356
H219	H	1.195937	-0.603221	-0.222233
H220	H	1.695937	-0.103221	0.277767
H221	H	1.149062	-1.044928	-0.269324
H222	H	1.649062	-0.544928	0.230676
C223	C	0.964722	-1.051667	-0.453379
C224	C	1.464722	-0.551667	0.046621
N225	N	0.925709	-1.071106	-0.492348
N226	N	1.425709	-0.571106	0.007652
H227	H	0.977895	-0.472573	-0.439862
H228	H	1.477895	0.027427	0.060138
C229	C	0.964701	-0.953154	-0.453397
C230	C	1.464701	-0.453154	0.046603
N231	N	0.925690	-0.933735	-0.492384
N232	N	1.425690	-0.433735	0.007616
C233	C	0.917475	-0.695092	-0.500375
C234	C	1.417475	-0.195092	-0.000375
N235	N	0.878465	-0.714528	-0.539350
N236	N	1.378465	-0.214528	-0.039350
C237	C	0.964392	-0.380748	-0.453278
C238	C	1.464392	0.119252	0.046722
N239	N	0.925375	-0.361314	-0.492237
N240	N	1.425375	0.138686	0.007763
H241	H	0.930957	-0.744036	-0.486924
H242	H	1.430957	-0.244036	0.013076
