data_functionalizedCrystal
_audit_creation_method	'MofGen! by Chris Wilmer'
_symmetry_space_group_name_H-M	'P1'
_symmetry_Int_Tables_number	1
_symmetry_cell_setting	triclinic
loop_
_symmetry_equiv_pos_as_xyz
  x,y,z
_cell_length_a	15.995350
_cell_length_b	15.995292
_cell_length_c	7.681481
_cell_angle_alpha	95.746457
_cell_angle_beta	84.284326
_cell_angle_gamma	83.480495
loop_
_atom_site_label
_atom_site_type_symbol
_atom_site_fract_x
_atom_site_fract_y
_atom_site_fract_z
O1	O	0.099786	1.118950	0.146468
O2	O	0.113165	0.875167	0.146460
O3	O	-0.015414	1.003722	0.146462
O4	O	0.228364	0.990395	0.146465
O5	O	0.000396	0.987848	-0.146396
O6	O	0.128974	0.859293	-0.146398
O7	O	0.115596	1.103075	-0.146390
Zn8	Zn	0.124795	0.978663	-0.192892
Zn9	Zn	0.103965	0.999579	0.192961
O10	O	0.244174	0.974520	-0.146393
C11	C	0.120525	0.836034	0.000030
C12	C	0.118893	0.743081	0.000027
C13	C	0.112891	0.405344	0.000047
C14	C	0.205659	0.428692	0.000702
C15	C	0.207459	0.525331	0.000034
C16	C	0.115869	0.572899	0.000038
C17	C	0.078499	0.534733	-0.167193
C18	C	0.077389	0.437935	-0.167326
C19	C	0.057515	0.456132	0.165709
C20	C	0.060835	0.552744	0.167912
C21	C	0.117547	0.667595	0.000027
C22	C	0.111210	0.310648	0.000046
C23	C	-0.038704	0.995234	0.000037
C24	C	-0.131654	0.993583	0.000047
C25	C	-0.469400	0.987650	0.000040
C26	C	-0.421982	0.896131	0.000694
C27	C	-0.325257	0.897748	0.000034
C28	C	-0.301840	0.990593	0.000044
C29	C	-0.333899	1.026686	-0.167187
C30	C	-0.430527	1.024378	-0.167327
C31	C	-0.448864	1.044322	0.165707
C32	C	-0.352038	1.044420	0.167917
C33	C	-0.207143	0.992261	0.000041
C34	C	-0.564097	0.985985	0.000032
C35	C	0.267464	0.983008	0.000037
C36	C	0.360414	0.984660	0.000038
C37	C	0.108235	1.142208	0.000044
C38	C	0.109867	1.235162	0.000058
N39	N	0.089743	1.013854	0.456296
N40	N	0.139011	0.964395	-0.456226
H41	H	0.087939	0.578020	0.291628
F42	F	-0.484638	1.014172	0.331383
F43	F	0.243956	0.400596	0.157459
F44	F	0.023994	1.079836	0.554591
H45	H	0.117438	0.548045	-0.291648
F46	F	-0.031852	0.437927	0.167187
F47	F	-0.011006	0.418371	-0.177331
F48	F	0.204748	0.898410	0.445486
F49	F	-0.288015	0.976874	-0.329863
H50	H	0.237320	0.550856	0.119916
F51	F	-0.472163	1.111697	-0.177254
F52	F	-0.009160	0.575938	-0.175314
F53	F	-0.280348	0.842528	-0.156922
H54	H	-0.435131	0.853236	-0.118565
F55	F	-0.027261	0.596548	0.181116
H56	H	-0.303299	0.868749	0.119912
F57	F	0.260573	0.382313	-0.155168
F58	F	-0.454654	0.856795	0.157447
H59	H	-0.319453	1.094560	-0.173399
F60	F	0.263709	0.540882	-0.156928
F61	F	-0.324756	1.010364	0.329644
H62	H	0.079680	0.434676	0.292461
F63	F	-0.332688	1.133633	0.181137
H64	H	-0.442073	0.984673	-0.292343
H65	H	0.116271	0.404342	-0.292337
F66	F	-0.490477	1.132633	0.167190
