data_functionalizedCrystal
_audit_creation_method	'MofGen! by Chris Wilmer'
_symmetry_space_group_name_H-M	'P1'
_symmetry_Int_Tables_number	1
_symmetry_cell_setting	triclinic
loop_
_symmetry_equiv_pos_as_xyz
  x,y,z
_cell_length_a	14.908979
_cell_length_b	13.897447
_cell_length_c	13.897441
_cell_angle_alpha	90.028354
_cell_angle_beta	86.724737
_cell_angle_gamma	93.321111
loop_
_atom_site_label
_atom_site_type_symbol
_atom_site_fract_x
_atom_site_fract_y
_atom_site_fract_z
Zn1	Zn	1.379188	-0.298824	0.460421
Zn2	Zn	1.879188	0.201176	0.960421
Zn3	Zn	1.379090	-0.460149	0.299132
Zn4	Zn	1.879090	0.039851	0.799132
Zn5	Zn	1.228328	-0.308179	0.308433
Zn6	Zn	1.728328	0.191821	0.808433
Zn7	Zn	1.228300	-0.469396	0.469674
Zn8	Zn	1.728300	0.030604	0.969674
O9	O	1.303727	-0.384137	0.384415
O10	O	1.803727	0.115863	0.884415
O11	O	1.505417	-0.312438	0.431260
O12	O	2.005417	0.187562	0.931260
O13	O	1.359061	-0.440035	0.165386
O14	O	1.859061	0.059965	0.665386
O15	O	1.248392	-0.171953	0.328615
O16	O	1.748392	0.328047	0.828615
O17	O	1.505345	-0.430963	0.312762
O18	O	2.005345	0.069037	0.812762
O19	O	1.359229	-0.165080	0.440279
O20	O	1.859229	0.334920	0.940279
O21	O	1.248297	-0.328384	0.172220
O22	O	1.748297	0.171616	0.672220
O23	O	1.102082	-0.337351	0.337588
O24	O	1.602082	0.162649	0.837588
O25	O	1.248345	-0.446724	0.603427
O26	O	1.748345	0.053276	1.103427
O27	O	1.102062	-0.455796	0.456051
O28	O	1.602062	0.044204	0.956051
O29	O	1.359202	-0.321405	0.596628
O30	O	1.859202	0.178595	1.096628
O31	O	1.359035	-0.596360	0.321734
O32	O	1.859035	-0.096360	0.821734
O33	O	1.248250	-0.603154	0.447031
O34	O	1.748250	-0.103154	0.947031
C35	C	1.069339	-0.398593	0.398833
C36	C	1.569339	0.101407	0.898833
C37	C	0.969067	-0.404800	0.405024
C38	C	1.469067	0.095200	0.905024
C39	C	0.827751	-0.475311	0.475316
C40	C	1.327751	0.024689	0.975316
C41	C	0.921966	-0.469479	0.469508
C42	C	1.421966	0.030521	0.969508
C43	C	0.921947	-0.345951	0.346343
C44	C	1.421947	0.154049	0.846343
C45	C	0.827732	-0.351783	0.352152
C46	C	1.327732	0.148217	0.852152
C47	C	0.780638	-0.416464	0.416642
C48	C	1.280638	0.083536	0.916642
C49	C	0.686422	-0.422291	0.422454
C50	C	1.186422	0.077709	0.922454
C51	C	0.686404	-0.298768	0.299285
C52	C	1.186404	0.201232	0.799285
C53	C	0.780619	-0.292936	0.293477
C54	C	1.280619	0.207064	0.793477
C55	C	1.303653	-0.634756	0.384397
C56	C	1.803653	-0.134756	0.884397
C57	C	1.303704	-0.741967	0.384417
C58	C	1.803704	-0.241967	0.884417
C59	C	1.303748	-0.829034	0.384436
C60	C	1.803748	-0.329034	0.884436
C61	C	1.303811	-0.938262	0.384457
C62	C	1.803811	-0.438262	0.884457
C63	C	1.539029	-0.369625	0.369941
C64	C	2.039029	0.130375	0.869941
C65	C	1.639301	-0.363442	0.363773
C66	C	2.139301	0.136558	0.863773
C67	C	1.303782	-0.384053	0.636005
C68	C	1.803782	0.115947	1.136005
C69	C	1.303805	-0.384017	0.743217
C70	C	1.803805	0.115983	1.243217
C71	C	1.303825	-0.132538	0.384453
C72	C	1.803825	0.367462	0.884453
C73	C	1.303867	-0.025321	0.384468
C74	C	1.803867	0.474679	0.884468
C75	C	1.303723	-0.384148	0.133801
C76	C	1.803723	0.115852	0.633801
C77	C	1.303875	-0.383902	0.026578
C78	C	1.803875	0.116098	0.526578
C79	C	1.303824	-0.383988	0.830286
C80	C	1.803824	0.116012	1.330286
C81	C	1.303850	-0.383943	0.939517
C82	C	1.803850	0.116057	1.439517
H83	H	0.648079	-0.474954	0.474969
H84	H	1.148079	0.025046	0.974969
C85	C	0.832433	-0.221781	0.222551
C86	C	1.332433	0.278219	0.722551
N87	N	0.871459	-0.168180	0.169134
N88	N	1.371459	0.331820	0.669134
C89	C	0.634572	-0.234033	0.234737
C90	C	1.134572	0.265967	0.734737
N91	N	0.595531	-0.185276	0.186122
N92	N	1.095531	0.314724	0.686122
C93	C	0.973787	-0.534214	0.534056
C94	C	1.473787	-0.034214	1.034056
N95	N	1.012819	-0.582976	0.582677
N96	N	1.512819	-0.082976	1.082677
H97	H	0.789406	-0.527969	0.527835
H98	H	1.289406	-0.027969	1.027835
C99	C	0.973767	-0.274798	0.275420
C100	C	1.473767	0.225202	0.775420
N101	N	1.012799	-0.221198	0.222006
N102	N	1.512799	0.278802	0.722006
