data_functionalizedCrystal
_audit_creation_method	'MofGen! by Chris Wilmer'
_symmetry_space_group_name_H-M	'P1'
_symmetry_Int_Tables_number	1
_symmetry_cell_setting	triclinic
loop_
_symmetry_equiv_pos_as_xyz
  x,y,z
_cell_length_a	29.839134
_cell_length_b	29.839131
_cell_length_c	16.625539
_cell_angle_alpha	89.972076
_cell_angle_beta	89.979472
_cell_angle_gamma	90.022274
loop_
_atom_site_label
_atom_site_type_symbol
_atom_site_fract_x
_atom_site_fract_y
_atom_site_fract_z
Zn1	Zn	0.686756	-0.179085	-0.455910
Zn2	Zn	0.686676	-0.254216	-0.321078
Zn3	Zn	0.611627	-0.179076	-0.321091
Zn4	Zn	0.611586	-0.254164	-0.455868
O5	O	0.649161	-0.216635	-0.388487
O6	O	0.749612	-0.189078	-0.438037
O7	O	0.676705	-0.244267	-0.208248
O8	O	0.621644	-0.116210	-0.338998
O9	O	0.749554	-0.244276	-0.338976
O10	O	0.676840	-0.116217	-0.438049
O11	O	0.621567	-0.189061	-0.208257
O12	O	0.548755	-0.189010	-0.338957
O13	O	0.621573	-0.244186	-0.568706
O14	O	0.548724	-0.244177	-0.437978
O15	O	0.676800	-0.189027	-0.568737
O16	O	0.676665	-0.317076	-0.338936
O17	O	0.621496	-0.317038	-0.437965
C18	C	0.532439	-0.216587	-0.388465
C19	C	0.482504	-0.216577	-0.388474
C20	C	0.125943	-0.187953	-0.440169
C21	C	0.313616	-0.187917	-0.440151
O22	O	0.337903	-0.163523	-0.484100
N23	N	0.337059	-0.216607	-0.388493
C24	C	0.313581	-0.245309	-0.336840
O25	O	0.337827	-0.269714	-0.292908
C26	C	0.125909	-0.245347	-0.336864
C27	C	0.102468	-0.216653	-0.388519
C28	C	0.102503	-0.159261	-0.491821
C29	C	0.055587	-0.159269	-0.491822
C30	C	0.032112	-0.187969	-0.440171
C31	C	0.055553	-0.216660	-0.388520
C32	C	0.102431	-0.274052	-0.285216
C33	C	0.055510	-0.274060	-0.285227
C34	C	0.032070	-0.245365	-0.336883
C35	C	-0.014838	-0.245368	-0.336870
N36	N	-0.038280	-0.216678	-0.388528
C37	C	-0.014805	-0.187979	-0.440178
C38	C	0.412111	-0.245287	-0.336831
C39	C	0.459029	-0.245277	-0.336824
C40	C	0.459062	-0.187885	-0.440135
C41	C	0.412143	-0.187893	-0.440138
C42	C	0.388669	-0.216597	-0.388488
C43	C	-0.113331	-0.187996	-0.440176
C44	C	-0.160251	-0.188005	-0.440170
C45	C	-0.160279	-0.245398	-0.336862
C46	C	-0.113364	-0.245388	-0.336865
C47	C	-0.089891	-0.216686	-0.388528
O48	O	-0.039153	-0.269753	-0.292951
O49	O	-0.039059	-0.163585	-0.484117
C50	C	0.172859	-0.187946	-0.440168
C51	C	0.196299	-0.216638	-0.388517
C52	C	0.172824	-0.245337	-0.336866
C53	C	0.243217	-0.216628	-0.388510
C54	C	0.266692	-0.187928	-0.440160
C55	C	0.243249	-0.159239	-0.491818
C56	C	0.196334	-0.159246	-0.491819
C57	C	0.196267	-0.274027	-0.285209
C58	C	0.243182	-0.274016	-0.285211
C59	C	0.266657	-0.245317	-0.336862
C60	C	0.649080	-0.333358	-0.388462
C61	C	0.649086	-0.383292	-0.388479
C62	C	0.620453	-0.739875	-0.440048
C63	C	0.620394	-0.552202	-0.440023
O64	O	0.595952	-0.527933	-0.483854
N65	N	0.649133	-0.528737	-0.388503
C66	C	0.677891	-0.552194	-0.336989
O67	O	0.702338	-0.527930	-0.293173
C68	C	0.677953	-0.739866	-0.337019
C69	C	0.649208	-0.763328	-0.388537
C70	C	0.591712	-0.763337	-0.491563
C71	C	0.591725	-0.810252	-0.491565
C72	C	0.620480	-0.833706	-0.440054
C73	C	0.649222	-0.810244	-0.388539
C74	C	0.706713	-0.763322	-0.285509
C75	C	0.706726	-0.810243	-0.285523
C76	C	0.677982	-0.833705	-0.337041
C77	C	0.677990	-0.880613	-0.337030
N78	N	0.649251	-0.904077	-0.388551
C79	C	0.620496	-0.880624	-0.440062
C80	C	0.677857	-0.453663	-0.336976
C81	C	0.677841	-0.406746	-0.336967
C82	C	0.620344	-0.406757	-0.440003
C83	C	0.620358	-0.453675	-0.440007
C84	C	0.649117	-0.477128	-0.388496
C85	C	0.620526	-0.979149	-0.440064
C86	C	0.620541	-1.026069	-0.440059
C87	C	0.678039	-1.026054	-0.337027
C88	C	0.678023	-0.979138	-0.337028
C89	C	0.649265	-0.955687	-0.388553
O90	O	0.702423	-0.904910	-0.293229
O91	O	0.596060	-0.904896	-0.483884
C92	C	0.620440	-0.692959	-0.440046
C93	C	0.649182	-0.669497	-0.388531
C94	C	0.677937	-0.692951	-0.337020
C95	C	0.649166	-0.622580	-0.388523
C96	C	0.620411	-0.599126	-0.440034
C97	C	0.591672	-0.622591	-0.491555
C98	C	0.591685	-0.669506	-0.491557
C99	C	0.706676	-0.669486	-0.285499
C100	C	0.706660	-0.622571	-0.285500
C101	C	0.677905	-0.599117	-0.337012
C102	C	0.766340	-0.216684	-0.388510
C103	C	0.816274	-0.216705	-0.388520
C104	C	0.649191	-0.216602	-0.598796
C105	C	0.649203	-0.216588	-0.688417
C106	C	0.649256	-0.099457	-0.388530
C107	C	0.649296	-0.049522	-0.388548
C108	C	0.649224	-0.216537	-1.016593
C109	C	0.649217	-0.216553	-0.925285
C110	C	0.649214	-0.216563	-0.852508
C111	C	0.649206	-0.216577	-0.761194
C112	C	0.649158	-0.216636	-0.178996
C113	C	0.649233	-0.216524	-0.089376
H114	H	0.121508	-0.297418	-0.243152
N115	N	0.484388	-0.156935	-0.495850
H116	H	0.476236	-0.163958	-0.553438
H117	H	0.476221	-0.124839	-0.483371
N118	N	-0.185533	-0.157050	-0.495878
H119	H	-0.163539	-0.138869	-0.528596
H120	H	-0.204998	-0.175362	-0.533140
H121	H	-0.094225	-0.164624	-0.482245
N122	N	0.484305	-0.276221	-0.281096
H123	H	0.476135	-0.308329	-0.293523
H124	H	0.517583	-0.271825	-0.288946
H125	H	0.177158	-0.297398	-0.243149
N126	N	0.709017	-0.953830	-0.281452
H127	H	0.727233	-0.975808	-0.248816
H128	H	0.729793	-0.934341	-0.314305
H129	H	0.701449	-1.045158	-0.295085
H130	H	0.393003	-0.268662	-0.294769
H131	H	0.597109	-0.960061	-0.482021
N132	N	0.030192	-0.305021	-0.229521
H133	H	0.052163	-0.323195	-0.196801
H134	H	0.010721	-0.286714	-0.192260
H135	H	0.568296	-0.744245	-0.533513
N136	N	0.030316	-0.128321	-0.547549
H137	H	0.010856	-0.146605	-0.584866
H138	H	0.010872	-0.107483	-0.514802
H139	H	0.730148	-0.829336	-0.243578
H140	H	0.568279	-0.688605	-0.533510
N141	N	0.268575	-0.128288	-0.547533
H142	H	0.246610	-0.110112	-0.580263
H143	H	0.288040	-0.107473	-0.514775
N144	N	0.560722	-0.835555	-0.547130
H145	H	0.542506	-0.813572	-0.579758
H146	H	0.579000	-0.854997	-0.584483
N147	N	0.268462	-0.304964	-0.229487
H148	H	0.246467	-0.323145	-0.196771
H149	H	0.287930	-0.325775	-0.262243
H150	H	0.393061	-0.164527	-0.482199
H151	H	0.121611	-0.135891	-0.533885
N152	N	0.560654	-0.597290	-0.547110
H153	H	0.565010	-0.564008	-0.539283
H154	H	0.567628	-0.605466	-0.604710
H155	H	0.596954	-0.472775	-0.481961
H156	H	0.177253	-0.135880	-0.533882
N157	N	0.589330	-0.381453	-0.495560
H158	H	0.607573	-0.361963	-0.532947
H159	H	0.571130	-0.403460	-0.528152
H160	H	0.730066	-0.603471	-0.243541
N161	N	-0.088078	-0.276331	-0.281144
H162	H	-0.110071	-0.294511	-0.248422
H163	H	-0.068612	-0.297142	-0.313902
N164	N	-0.185603	-0.276348	-0.281149
H165	H	-0.218882	-0.271997	-0.288994
H166	H	-0.177409	-0.308441	-0.293600
N167	N	0.589534	-1.051375	-0.495622
H168	H	0.571317	-1.029395	-0.528254
H169	H	0.607812	-1.070819	-0.532972
N170	N	0.708840	-0.381443	-0.281395
H171	H	0.727058	-0.403424	-0.248769
H172	H	0.729613	-0.361952	-0.314251
H173	H	0.701277	-0.472754	-0.295026
N174	N	0.737721	-0.738024	-0.229953
H175	H	0.755941	-0.760008	-0.197334
H176	H	0.758494	-0.718537	-0.262818
H177	H	0.730093	-0.688577	-0.243552
