data_functionalizedCrystal
_audit_creation_method	'MofGen! by Chris Wilmer'
_symmetry_space_group_name_H-M	'P1'
_symmetry_Int_Tables_number	1
_symmetry_cell_setting	triclinic
loop_
_symmetry_equiv_pos_as_xyz
  x,y,z
_cell_length_a	13.635800
_cell_length_b	10.943867
_cell_length_c	11.168136
_cell_angle_alpha	88.103034
_cell_angle_beta	108.508683
_cell_angle_gamma	71.156739
loop_
_atom_site_label
_atom_site_type_symbol
_atom_site_fract_x
_atom_site_fract_y
_atom_site_fract_z
V1	V	2.055817	-0.178653	0.393685
O2	O	2.034691	0.008565	0.386205
O3	O	2.044822	-0.354219	0.390979
O4	O	2.043949	-0.175913	0.565391
O5	O	2.035570	-0.170975	0.210585
V6	V	2.294322	-0.156258	0.371787
O7	O	2.193590	-0.227777	0.441721
O8	O	2.381648	-0.107134	0.323750
O9	O	2.193714	0.019308	0.374493
O10	O	2.374146	-0.343476	0.379266
O11	O	2.373267	-0.163936	0.554886
O12	O	2.194587	-0.158997	0.200081
V13	V	2.555817	-0.178653	0.393685
O14	O	2.534691	0.008565	0.386205
O15	O	2.544822	-0.354219	0.390979
O16	O	2.543949	-0.175913	0.565391
O17	O	2.535570	-0.170975	0.210585
V18	V	2.794322	-0.156258	0.371787
O19	O	2.693590	-0.227777	0.441721
O20	O	2.881648	-0.107134	0.323750
O21	O	2.693714	0.019308	0.374493
O22	O	2.874146	-0.343476	0.379266
O23	O	2.873267	-0.163936	0.554886
O24	O	2.694587	-0.158997	0.200081
C25	C	1.970135	-0.397018	0.384764
C26	C	2.001871	-0.540546	0.383696
C27	C	2.116563	-0.631429	0.389642
C28	C	2.114616	-0.730551	0.490303
C29	C	2.060361	-0.697168	0.281156
C30	C	1.999529	-0.637790	0.484458
C31	C	1.945261	-0.604386	0.275218
C32	C	1.943242	-0.703468	0.375900
C33	C	1.969021	-0.169570	0.607243
C34	C	2.000047	-0.168492	0.747614
C35	C	2.100072	0.062100	0.380704
C36	C	2.057956	0.205627	0.381780
C37	C	2.101185	-0.165345	0.158222
C38	C	2.059778	-0.166417	0.017850
C39	C	2.470135	-0.397018	0.384764
C40	C	2.501871	-0.540546	0.383696
C41	C	2.469021	-0.169570	0.607243
C42	C	2.500047	-0.168492	0.747614
C43	C	2.101329	-0.174135	0.816305
C44	C	2.133397	-0.173021	0.961386
C45	C	2.600072	0.062100	0.380704
C46	C	2.557956	0.205627	0.381780
C47	C	2.601185	-0.165345	0.158222
C48	C	2.559778	-0.166417	0.017850
C49	C	2.603470	-0.610783	0.389208
C50	C	2.636273	-0.759127	0.388104
C51	C	2.601329	-0.174135	0.816305
C52	C	2.633397	-0.173021	0.961386
H53	H	2.189542	-0.599594	0.395592
H54	H	2.720163	-0.177858	1.020436
H55	H	2.475929	-0.756489	0.376917
Cl56	Cl	2.700282	-0.534078	0.397764
H57	H	2.473014	-0.161594	0.958809
Cl58	Cl	1.925817	-0.158970	0.926698
H59	H	2.186513	-0.785305	0.581229
Cl60	Cl	2.267362	-0.180488	1.052548
Cl61	Cl	2.770653	-0.852338	0.395377
Cl62	Cl	2.198559	-0.182874	0.741286
Cl63	Cl	2.405064	-0.617253	0.375158
H64	H	2.664296	-0.179782	0.767706
Cl65	Cl	2.402815	-0.159749	0.822632
Cl66	Cl	1.902815	-0.159749	0.822632
H67	H	1.973579	-0.611441	0.570479
H68	H	1.873393	-0.549606	0.184290
Cl69	Cl	2.100589	-0.738126	0.148503
Cl70	Cl	1.830463	-0.752310	0.366964
