data_functionalizedCrystal
_audit_creation_method	'MofGen! by Chris Wilmer'
_symmetry_space_group_name_H-M	'P1'
_symmetry_Int_Tables_number	1
_symmetry_cell_setting	triclinic
loop_
_symmetry_equiv_pos_as_xyz
  x,y,z
_cell_length_a	13.032831
_cell_length_b	12.594516
_cell_length_c	13.032268
_cell_angle_alpha	82.847564
_cell_angle_beta	89.113023
_cell_angle_gamma	82.821304
loop_
_atom_site_label
_atom_site_type_symbol
_atom_site_fract_x
_atom_site_fract_y
_atom_site_fract_z
Zn1	Zn	1.498496	-0.718822	0.780872
Zn2	Zn	1.520242	-0.877407	0.608900
Zn3	Zn	1.348353	-0.674358	0.587111
Zn4	Zn	1.326490	-0.871652	0.759025
O5	O	1.423395	-0.785560	0.683977
O6	O	1.645302	-0.760876	0.776322
O7	O	1.515691	-0.834272	0.462092
O8	O	1.368319	-0.531320	0.612838
O9	O	1.661279	-0.877387	0.649975
O10	O	1.478628	-0.563987	0.755193
O11	O	1.389406	-0.685093	0.446084
O12	O	1.201532	-0.679512	0.591654
O13	O	1.331056	-0.867579	0.905841
O14	O	1.185469	-0.824463	0.717958
O15	O	1.457428	-0.755295	0.921892
O16	O	1.494491	-1.025580	0.628791
O17	O	1.352143	-1.021351	0.739087
C18	C	1.156183	-0.746539	0.650071
C19	C	1.041866	-0.729875	0.635591
C20	C	1.423329	-1.062090	0.683958
C21	C	1.423391	-1.180408	0.683997
C22	C	0.982991	-0.794257	0.691535
C23	C	0.864838	-0.777035	0.676569
C24	C	1.345967	-1.247394	0.743938
C25	C	1.332833	-1.304009	0.646920
C26	C	1.436617	-1.334607	0.781043
C27	C	1.410213	-1.235453	0.586923
C28	C	1.514033	-1.266057	0.721115
C29	C	1.500943	-1.322639	0.624037
C30	C	1.691651	-0.824733	0.718016
C31	C	1.805965	-0.841426	0.732521
C32	C	1.389378	-0.815755	0.952226
C33	C	1.374882	-0.828622	1.066537
C34	C	1.423487	-0.507956	0.684022
C35	C	1.423526	-0.389658	0.684041
C36	C	1.457340	-0.755414	0.416779
C37	C	1.472035	-0.742276	0.302494
C38	C	1.430945	-0.778803	1.125443
C39	C	1.415964	-0.792101	1.243590
H40	H	0.827774	-0.709156	0.617595
H41	H	1.447750	-1.377685	0.863096
O42	O	1.345545	-0.854737	1.287931
C43	C	1.346253	-0.854059	1.396022
H44	H	1.423799	-0.832413	1.420665
H45	H	1.281426	-0.791885	1.418780
C46	C	1.234603	-0.993132	1.419796
C47	C	1.329850	-0.966555	1.450064
H48	H	1.224481	-1.062522	1.453133
H49	H	1.234123	-0.993586	1.346973
H50	H	1.180591	-0.941311	1.438763
H51	H	1.383860	-1.018367	1.431086
H52	H	1.330339	-0.966112	1.522886
O53	O	1.605472	-1.245614	0.758469
C54	C	1.687172	-1.285701	0.696208
H55	H	1.661603	-1.352082	0.654165
H56	H	1.709026	-1.217557	0.637162
C57	C	1.812838	-1.250342	0.816390
C58	C	1.781437	-1.331879	0.764759
H59	H	1.870987	-1.278822	0.858673
H60	H	1.757796	-1.223331	0.858334
H61	H	1.831042	-1.193561	0.767175
H62	H	1.763221	-1.388651	0.813973
H63	H	1.836478	-1.358901	0.722824
H64	H	1.490030	-0.726303	1.088406
O65	O	1.542396	-0.679538	1.258203
C66	C	1.491668	-0.595284	1.188675
H67	H	1.415737	-0.619667	1.162781
H68	H	1.475169	-0.519393	1.228609
C69	C	1.654371	-0.542880	1.125561
C70	C	1.561116	-0.572832	1.093751
H71	H	1.697210	-0.529026	1.067010
H72	H	1.688548	-0.599640	1.172406
H73	H	1.640608	-0.479641	1.158840
H74	H	1.574878	-0.636077	1.060485
H75	H	1.526942	-0.516081	1.046898
H76	H	1.020059	-0.862124	0.750512
H77	H	1.256241	-1.321250	0.615556
H78	H	1.398991	-1.192486	0.504836
H79	H	0.843026	-0.909296	0.791506
H80	H	1.315786	-0.881111	1.103573
O81	O	0.997630	-0.649042	0.565107
C82	C	0.943882	-0.693058	0.490785
H83	H	0.977131	-0.780843	0.488390
H84	H	0.858472	-0.688570	0.512336
C85	C	0.914797	-0.520798	0.386662
C86	C	0.955639	-0.628615	0.383715
H87	H	0.922044	-0.481044	0.320617
H88	H	0.951004	-0.491141	0.436736
H89	H	0.843625	-0.517073	0.404626
H90	H	1.026812	-0.632339	0.365765
H91	H	0.919444	-0.658270	0.333636
H92	H	1.280399	-1.214409	0.794530
H93	H	1.566484	-1.355404	0.573298
