data_functionalizedCrystal
_audit_creation_method	'MofGen! by Chris Wilmer'
_symmetry_space_group_name_H-M	'P1'
_symmetry_Int_Tables_number	1
_symmetry_cell_setting	triclinic
loop_
_symmetry_equiv_pos_as_xyz
  x,y,z
_cell_length_a	16.109301
_cell_length_b	16.109301
_cell_length_c	14.586319
_cell_angle_alpha	89.998390
_cell_angle_beta	89.996867
_cell_angle_gamma	83.461481
loop_
_atom_site_label
_atom_site_type_symbol
_atom_site_fract_x
_atom_site_fract_y
_atom_site_fract_z
O1	O	-1.103134	-0.106861	0.076185
O2	O	-0.853134	0.143139	0.326185
O3	O	-0.603134	0.393139	0.576185
O4	O	-0.353134	0.643139	0.826185
O5	O	-0.861072	-0.120161	0.076200
O6	O	-0.611072	0.129839	0.326200
O7	O	-0.361072	0.379839	0.576200
O8	O	-0.111072	0.629839	0.826200
O9	O	-0.988753	0.007520	0.076183
O10	O	-0.738753	0.257520	0.326183
O11	O	-0.488753	0.507520	0.576183
O12	O	-0.238753	0.757520	0.826183
O13	O	-0.975454	-0.234542	0.076203
O14	O	-0.725454	0.015458	0.326203
O15	O	-0.475454	0.265458	0.576203
O16	O	-0.225454	0.515458	0.826203
O17	O	-0.988737	0.007512	-0.076298
O18	O	-0.738737	0.257512	0.173702
O19	O	-0.488737	0.507512	0.423702
O20	O	-0.238737	0.757512	0.673702
O21	O	-0.861057	-0.120168	-0.076281
O22	O	-0.611057	0.129832	0.173719
O23	O	-0.361057	0.379832	0.423719
O24	O	-0.111057	0.629832	0.673719
O25	O	-1.103119	-0.106869	-0.076295
O26	O	-0.853119	0.143131	0.173705
O27	O	-0.603119	0.393131	0.423705
O28	O	-0.353119	0.643131	0.673705
Cu29	Cu	-0.982086	-0.113519	-0.090211
Cu30	Cu	-0.732086	0.136481	0.159789
Cu31	Cu	-0.482086	0.386481	0.409789
Cu32	Cu	-0.232086	0.636481	0.659789
Cu33	Cu	-0.982105	-0.113510	0.090115
Cu34	Cu	-0.732105	0.136490	0.340115
Cu35	Cu	-0.482105	0.386490	0.590115
Cu36	Cu	-0.232105	0.636490	0.840115
O37	O	-0.975438	-0.234550	-0.076278
O38	O	-0.725438	0.015450	0.173722
O39	O	-0.475438	0.265450	0.423722
O40	O	-0.225438	0.515450	0.673722
C41	C	-0.830090	-0.119626	-0.000038
C42	C	-0.580090	0.130374	0.249962
C43	C	-0.330090	0.380374	0.499962
C44	C	-0.080090	0.630374	0.749962
C45	C	-0.737794	-0.118011	-0.000033
C46	C	-0.487794	0.131989	0.249967
C47	C	-0.237794	0.381989	0.499967
C48	C	0.012206	0.631989	0.749967
C49	C	-0.988206	0.038491	-0.000058
C50	C	-0.738206	0.288491	0.249942
C51	C	-0.488206	0.538491	0.499942
C52	C	-0.238206	0.788491	0.749942
C53	C	-0.986591	0.130786	-0.000059
C54	C	-0.736591	0.380786	0.249941
C55	C	-0.486591	0.630786	0.499941
C56	C	-0.236591	0.880786	0.749941
C57	C	-1.134101	-0.107404	-0.000055
C58	C	-0.884101	0.142596	0.249945
C59	C	-0.634101	0.392596	0.499945
C60	C	-0.384101	0.642596	0.749945
C61	C	-1.226397	-0.109019	-0.000054
C62	C	-0.976397	0.140981	0.249946
C63	C	-0.726397	0.390981	0.499946
C64	C	-0.476397	0.640981	0.749946
C65	C	-0.975984	-0.265521	-0.000035
C66	C	-0.725984	-0.015521	0.249965
C67	C	-0.475984	0.234479	0.499965
C68	C	-0.225984	0.484479	0.749965
C69	C	-0.977600	-0.357816	-0.000028
C70	C	-0.727600	-0.107816	0.249972
C71	C	-0.477600	0.142184	0.499972
C72	C	-0.227600	0.392184	0.749972
C73	C	-0.515522	-0.190018	-0.000038
C74	C	-0.265522	0.059982	0.249962
C75	C	-0.015522	0.309982	0.499962
C76	C	0.234478	0.559982	0.749962
C77	C	-0.428801	-0.188494	-0.000044
C78	C	-0.178801	0.061506	0.249956
C79	C	0.071199	0.311506	0.499956
C80	C	0.321199	0.561506	0.749956
C81	C	-0.448676	-0.037006	-0.000052
C82	C	-0.198676	0.212994	0.249948
C83	C	0.051324	0.462994	0.499948
C84	C	0.301324	0.712994	0.749948
C85	C	-0.535394	-0.038530	-0.000053
C86	C	-0.285394	0.211470	0.249947
C87	C	-0.035394	0.461470	0.499947
C88	C	0.214606	0.711470	0.749947
C89	C	-0.568815	-0.115039	-0.000041
C90	C	-0.318815	0.134961	0.249959
C91	C	-0.068815	0.384961	0.499959
C92	C	0.181185	0.634961	0.749959
C93	C	-0.395376	-0.111990	-0.000046
C94	C	-0.145376	0.138010	0.249954
C95	C	0.104624	0.388010	0.499954
C96	C	0.354624	0.638010	0.749954
C97	C	-0.301350	-0.110337	-0.000053
C98	C	-0.051350	0.139663	0.249947
C99	C	0.198650	0.389663	0.499947
C100	C	0.448650	0.639663	0.749947
C101	C	-0.662847	-0.116693	-0.000036
C102	C	-0.412847	0.133307	0.249964
C103	C	-0.162847	0.383307	0.499964
C104	C	0.087153	0.633307	0.749964
N105	N	-0.982079	-0.113525	-0.217042
N106	N	-0.732079	0.136475	0.032958
N107	N	-0.482079	0.386475	0.282958
N108	N	-0.232079	0.636475	0.532958
C109	C	-1.058599	0.353059	-0.000049
C110	C	-0.808599	0.603059	0.249951
C111	C	-0.558599	0.853059	0.499951
C112	C	-0.308599	1.103059	0.749951
C113	C	-1.057075	0.439779	-0.000041
C114	C	-0.807075	0.689779	0.249959
C115	C	-0.557075	0.939779	0.499959
C116	C	-0.307075	1.189779	0.749959
C117	C	-0.905586	0.419905	-0.000036
C118	C	-0.655586	0.669905	0.249964
C119	C	-0.405586	0.919905	0.499964
C120	C	-0.155586	1.169905	0.749964
C121	C	-0.907111	0.333186	-0.000037
C122	C	-0.657111	0.583186	0.249963
C123	C	-0.407111	0.833186	0.499963
C124	C	-0.157111	1.083186	0.749963
C125	C	-0.983620	0.299766	-0.000048
C126	C	-0.733620	0.549766	0.249952
C127	C	-0.483620	0.799766	0.499952
C128	C	-0.233620	1.049766	0.749952
C129	C	-0.980571	0.473205	-0.000039
C130	C	-0.730571	0.723205	0.249961
C131	C	-0.480571	0.973205	0.499961
C132	C	-0.230571	1.223205	0.749961
C133	C	-0.978918	0.567231	-0.000031
C134	C	-0.728918	0.817231	0.249969
C135	C	-0.478918	1.067231	0.499969
C136	C	-0.228918	1.317231	0.749969
C137	C	-0.985273	0.205734	-0.000055
C138	C	-0.735273	0.455734	0.249945
C139	C	-0.485273	0.705734	0.499945
C140	C	-0.235273	0.955734	0.749945
C141	C	-1.032502	-0.163954	-0.452048
C142	C	-0.782502	0.086046	-0.202048
C143	C	-0.532502	0.336046	0.047952
C144	C	-0.282502	0.586046	0.297952
C145	C	-1.032511	-0.163948	-0.548029
C146	C	-0.782511	0.086052	-0.298029
C147	C	-0.532511	0.336052	-0.048029
C148	C	-0.282511	0.586052	0.201971
C149	C	-0.931693	-0.063064	-0.548041
C150	C	-0.681693	0.186936	-0.298041
C151	C	-0.431693	0.436936	-0.048041
C152	C	-0.181693	0.686936	0.201959
C153	C	-0.931690	-0.063066	-0.452061
C154	C	-0.681690	0.186934	-0.202061
C155	C	-0.431690	0.436934	0.047939
C156	C	-0.181690	0.686934	0.297939
C157	C	-0.982093	-0.113515	-0.404067
C158	C	-0.732093	0.136485	-0.154067
C159	C	-0.482093	0.386485	0.095933
C160	C	-0.232093	0.636485	0.345933
C161	C	-0.982105	-0.113508	-0.596028
C162	C	-0.732105	0.136492	-0.346028
C163	C	-0.482105	0.386492	-0.096028
C164	C	-0.232105	0.636492	0.153972
C165	C	-0.982114	-0.113501	-0.700095
C166	C	-0.732114	0.136499	-0.450095
C167	C	-0.482114	0.386499	-0.200095
C168	C	-0.232114	0.636499	0.049905
C169	C	-0.982085	-0.113521	-0.299993
C170	C	-0.732085	0.136479	-0.049993
C171	C	-0.482085	0.386479	0.200007
C172	C	-0.232085	0.636479	0.450007
N173	N	-0.982118	-0.113498	0.216947
N174	N	-0.732118	0.136502	0.466947
N175	N	-0.482118	0.386502	0.716947
N176	N	-0.232118	0.636502	0.966947
H177	H	-0.542730	-0.252317	-0.000035
H178	H	-0.292730	-0.002317	0.249965
H179	H	-0.042730	0.247683	0.499965
H180	H	0.207270	0.497683	0.749965
F181	F	-0.827304	0.276464	-0.000029
F182	F	-0.577304	0.526464	0.249971
F183	F	-0.327304	0.776464	0.499971
F184	F	-0.077304	1.026464	0.749971
F185	F	-0.878049	-0.009379	-0.599127
F186	F	-0.628049	0.240621	-0.349127
F187	F	-0.378049	0.490621	-0.099127
F188	F	-0.128049	0.740621	0.150873
H189	H	-0.578788	0.022530	-0.000058
H190	H	-0.328788	0.272530	0.249942
H191	H	-0.078788	0.522530	0.499942
H192	H	0.171212	0.772530	0.749942
H193	H	-0.385413	-0.249550	-0.000043
H194	H	-0.135413	0.000450	0.249957
H195	H	0.114587	0.250450	0.499957
H196	H	0.364587	0.500450	0.749957
H197	H	-0.421454	0.025285	-0.000067
H198	H	-0.171454	0.275285	0.249933
H199	H	0.078546	0.525285	0.499933
H200	H	0.328546	0.775285	0.749933
H201	H	-1.120897	0.325851	-0.000056
H202	H	-0.870897	0.575851	0.249944
H203	H	-0.620897	0.825851	0.499944
H204	H	-0.370897	1.075851	0.749944
H205	H	-1.118130	0.483168	-0.000040
H206	H	-0.868130	0.733168	0.249960
H207	H	-0.618130	0.983168	0.499960
H208	H	-0.368130	1.233168	0.749960
H209	H	-0.843295	0.447127	-0.000028
H210	H	-0.593295	0.697127	0.249972
H211	H	-0.343295	0.947127	0.499972
H212	H	-0.093295	1.197127	0.749972
H213	H	-1.073544	-0.205033	-0.412974
H214	H	-0.823544	0.044967	-0.162974
H215	H	-0.573544	0.294967	0.087026
H216	H	-0.323544	0.544967	0.337026
F217	F	-1.086165	-0.217630	-0.599089
F218	F	-0.836165	0.032370	-0.349089
F219	F	-0.586165	0.282370	-0.099089
F220	F	-0.336165	0.532370	0.150911
H221	H	-0.890639	-0.021988	-0.412994
H222	H	-0.640639	0.228012	-0.162994
H223	H	-0.390639	0.478012	0.087006
H224	H	-0.140639	0.728012	0.337006
