data_functionalizedCrystal
_audit_creation_method	'MofGen! by Chris Wilmer'
_symmetry_space_group_name_H-M	'P1'
_symmetry_Int_Tables_number	1
_symmetry_cell_setting	triclinic
loop_
_symmetry_equiv_pos_as_xyz
  x,y,z
_cell_length_a	17.052862
_cell_length_b	14.628931
_cell_length_c	14.628931
_cell_angle_alpha	60.000000
_cell_angle_beta	89.999927
_cell_angle_gamma	50.259505
loop_
_atom_site_label
_atom_site_type_symbol
_atom_site_fract_x
_atom_site_fract_y
_atom_site_fract_z
Zr1	Zr	0.914393	0.679066	0.040793
O2	O	0.762834	0.923061	-0.131813
O3	O	0.960853	0.472024	0.093706
O4	O	0.960854	0.662729	-0.097000
O5	O	0.762834	0.732356	0.209324
O6	O	1.117055	0.607806	-0.069539
O7	O	0.762834	0.732356	0.058893
O8	O	1.117054	0.266670	0.271599
O9	O	0.762835	1.073492	-0.131813
O10	O	1.097239	0.502509	0.136766
O11	O	0.980668	0.543497	0.228538
O12	O	0.980669	0.768028	0.004007
O13	O	0.864097	0.809016	0.095778
Zr14	Zr	1.163515	0.591471	0.324511
Zr15	Zr	1.163515	0.591471	0.084590
Zr16	Zr	0.914392	0.679066	0.280714
Zr17	Zr	0.914393	0.918987	0.040793
Zr18	Zr	1.163515	0.351550	0.324511
O19	O	1.117055	0.798513	0.271598
O20	O	1.117055	0.798512	-0.069539
O21	O	0.762834	0.923062	0.209324
O22	O	1.315073	0.347476	0.497117
O23	O	1.315074	0.347475	0.155980
O24	O	0.960852	0.472025	0.434843
O25	O	1.315074	0.538181	0.155979
O26	O	1.117054	0.607808	0.462304
O27	O	0.960853	0.662731	0.434843
O28	O	1.315074	0.538181	0.306411
O29	O	0.960854	1.003866	-0.097000
O30	O	1.117053	0.266671	0.462304
O31	O	1.315073	0.197045	0.497117
O32	O	1.315073	0.197044	0.306412
O33	O	0.762834	1.073493	0.058892
O34	O	0.960854	1.003867	0.093705
O35	O	1.097239	0.502510	0.361297
O36	O	1.213810	0.461521	0.269526
O37	O	1.097240	0.727040	0.136766
O38	O	0.980668	0.768028	0.228538
C39	C	1.038953	0.335163	0.182652
C40	C	1.038953	0.233311	0.182652
C41	C	1.096780	0.167568	0.137128
C42	C	1.096782	0.062298	0.137127
C43	C	0.727339	0.744836	0.127868
C44	C	0.621580	0.782023	0.109275
C45	C	0.566863	0.332439	0.334063
C46	C	0.666231	0.297496	0.351528
C47	C	0.655074	0.418624	0.290967
C48	C	0.544537	0.574703	0.212937
C49	C	0.445159	0.609649	0.195463
C50	C	0.533370	0.695834	0.152367
C51	C	0.422834	0.851913	0.074337
C52	C	0.323467	0.886853	0.056868
C53	C	0.334624	0.765725	0.117429
C54	C	0.632748	0.660888	0.169841
C55	C	0.511045	0.938098	0.031241
C56	C	0.411677	0.973041	0.013776
C57	C	1.350569	0.525701	0.237435
C58	C	1.456328	0.488514	0.256028
C59	C	1.038954	0.635267	-0.117453
C60	C	1.038954	0.635267	-0.219306
C61	C	1.038954	0.935374	0.182652
C62	C	1.038954	1.037227	0.182651
C63	C	0.981127	0.766982	-0.330572
C64	C	0.981126	0.766985	-0.435844
C65	C	1.038953	0.635270	0.482757
C66	C	1.038953	0.635270	0.584609
C67	C	1.350568	0.225596	0.237436
C68	C	1.456327	0.086556	0.256029
C69	C	1.038953	0.335164	0.482757
C70	C	1.038953	0.233312	0.584610
C71	C	1.350568	0.225597	0.537541
C72	C	1.456327	0.086558	0.657986
C73	C	0.727340	1.044940	-0.172237
C74	C	0.621581	1.183979	-0.292683
C75	C	0.727339	1.044941	0.127868
C76	C	0.621580	1.183981	0.109275
C77	C	1.038955	0.935373	-0.117453
C78	C	1.038955	1.037225	-0.219306
C79	C	1.445144	0.042657	0.195451
C80	C	1.544506	-0.087968	0.212898
C81	C	1.655051	-0.174699	0.290928
C82	C	1.666232	-0.130790	0.351507
C83	C	1.566870	-0.000160	0.334054
C84	C	1.566852	-0.000136	0.666647
C85	C	1.666233	-0.130767	0.779811
C86	C	1.655086	-0.174710	0.884313
C87	C	1.544550	-0.088003	0.875649
C88	C	1.445171	0.042633	0.762486
C89	C	0.511056	1.270684	-0.301343
C90	C	0.411675	1.401346	-0.414507
C91	C	0.422821	1.445293	-0.519009
C92	C	0.533358	1.358580	-0.510345
C93	C	0.632736	1.227928	-0.397182
C94	C	0.632764	1.227890	0.169842
C95	C	0.533401	1.358542	0.152370
C96	C	0.422857	1.445276	0.074336
C97	C	0.411676	1.401362	0.013762
C98	C	0.511037	1.270719	0.031228
C99	C	1.096780	0.167570	0.695877
C100	C	1.096781	0.062300	0.801149
H101	H	0.722740	0.533806	0.233381
H102	H	0.989449	0.211656	0.221630
N103	N	0.762245	0.380944	0.309796
H104	H	0.833962	0.263691	0.368417
H105	H	0.762190	0.427032	0.343117
N106	N	0.292440	1.494903	-0.070380
H107	H	0.283096	1.537906	-0.154010
H108	H	0.231280	1.584235	-0.072131
H109	H	0.931612	0.879753	-0.531279
H110	H	1.088465	0.522502	-0.201981
H111	H	1.735948	-0.281064	0.305130
N112	N	0.785445	0.129169	0.435669
H113	H	0.777436	0.057737	0.471381
H114	H	0.829338	0.108615	0.502303
H115	H	0.542420	1.394380	-0.595444
H116	H	1.146290	0.005840	0.896583
H117	H	0.501915	1.234976	-0.018093
H118	H	0.989449	0.093674	0.685265
H119	H	0.989441	0.211668	0.567285
H120	H	0.321665	1.100121	-0.049757
H121	H	0.341891	1.551682	-0.611146
H122	H	0.501958	1.234915	-0.216265
H123	H	1.355142	0.113271	0.131899
N124	N	1.785465	-0.224341	0.435665
H125	H	1.846703	-0.313754	0.437524
H126	H	1.794679	-0.267230	0.519242
H127	H	0.722728	1.157333	-0.390143
N128	N	0.751988	1.134366	0.253996
H129	H	0.795936	1.022848	0.320703
H130	H	0.743883	1.182154	0.289613
H131	H	1.535491	-0.123801	0.960750
H132	H	1.575992	0.035565	0.383393
N133	N	0.545490	1.405885	0.217704
H134	H	0.506999	1.515479	0.157185
H135	H	0.630623	1.330997	0.269785
H136	H	1.088457	0.522500	-0.319961
H137	H	1.146282	0.189228	0.713200
H138	H	1.535380	-0.123700	0.163564
H139	H	0.341960	1.551651	0.060124
H140	H	1.146293	0.189210	0.098158
H141	H	1.355180	0.113207	0.755450
N142	N	1.578891	0.047231	0.553945
H143	H	1.663995	-0.027524	0.576621
H144	H	1.540307	0.156867	0.504895
N145	N	1.162371	-0.012492	0.085505
H146	H	1.200962	0.018707	0.055125
H147	H	1.106462	0.023818	0.016795
N148	N	0.578874	0.201825	0.399363
H149	H	0.622767	0.135138	0.489064
H150	H	0.622732	0.135268	0.376242
N151	N	0.973381	0.111987	0.234296
H152	H	0.934792	0.080785	0.264679
H153	H	0.912241	0.229557	0.169707
N154	N	0.227444	0.803418	0.098596
H155	H	0.251290	0.702998	0.148808
H156	H	0.179657	0.866297	0.010796
N157	N	0.204243	1.055188	-0.027295
H158	H	0.194931	1.109710	-0.110913
H159	H	0.195012	1.109565	0.001917
N160	N	1.785444	-0.224273	0.789141
H161	H	1.777416	-0.176615	0.705765
H162	H	1.829331	-0.335774	0.834013
H163	H	0.931626	0.879744	-0.347895
N164	N	0.499000	1.068752	-0.034089
H165	H	0.537515	1.060436	0.026429
H166	H	0.413877	1.172861	-0.086181
N167	N	1.762279	-0.315612	1.006364
H168	H	1.833984	-0.363858	0.995982
H169	H	1.762231	-0.394945	1.052377
H170	H	0.321681	1.471930	-0.421539
