data_functionalizedCrystal
_audit_creation_method	'MofGen! by Chris Wilmer'
_symmetry_space_group_name_H-M	'P1'
_symmetry_Int_Tables_number	1
_symmetry_cell_setting	triclinic
loop_
_symmetry_equiv_pos_as_xyz
  x,y,z
_cell_length_a	17.640112
_cell_length_b	25.639239
_cell_length_c	25.639233
_cell_angle_alpha	89.981253
_cell_angle_beta	101.179825
_cell_angle_gamma	101.263838
loop_
_atom_site_label
_atom_site_type_symbol
_atom_site_fract_x
_atom_site_fract_y
_atom_site_fract_z
Zn1	Zn	1.208290	-0.046428	-0.134303
Zn2	Zn	1.708290	0.453572	0.365697
Zn3	Zn	1.208174	-0.133862	-0.046882
Zn4	Zn	1.708174	0.366138	0.453118
Zn5	Zn	1.076121	-0.064124	-0.064526
Zn6	Zn	1.576121	0.435876	0.435474
Zn7	Zn	1.076038	-0.151542	-0.151927
Zn8	Zn	1.576038	0.348458	0.348073
O9	O	1.142156	-0.098989	-0.099409
O10	O	1.642156	0.401011	0.400591
O11	O	1.318888	-0.043221	-0.107946
O12	O	1.818888	0.456779	0.392054
O13	O	1.190644	-0.124618	0.023941
O14	O	1.690644	0.375382	0.523941
O15	O	1.093736	0.011400	-0.073790
O16	O	1.593736	0.511400	0.426210
O17	O	1.318803	-0.107458	-0.043719
O18	O	1.818803	0.392542	0.456281
O19	O	1.190841	0.024401	-0.125054
O20	O	1.690841	0.524401	0.374946
O21	O	1.093624	-0.073382	0.010978
O22	O	1.593624	0.426618	0.510978
O23	O	0.965497	-0.090525	-0.090880
O24	O	1.465497	0.409475	0.409120
O25	O	1.093595	-0.137592	-0.222752
O26	O	1.593595	0.362408	0.277248
O27	O	0.965436	-0.154751	-0.155093
O28	O	1.465436	0.345249	0.344907
O29	O	1.190760	-0.060365	-0.209804
O30	O	1.690760	0.439635	0.290196
O31	O	1.190563	-0.209384	-0.060809
O32	O	1.690563	0.290616	0.439191
O33	O	1.093483	-0.222373	-0.137985
O34	O	1.593483	0.277627	0.362015
C35	C	0.936785	-0.126478	-0.126814
C36	C	1.436785	0.373522	0.373186
C37	C	0.848927	-0.138250	-0.138550
C38	C	1.348927	0.361750	0.361450
C39	C	0.560021	-0.009547	-0.010257
C40	C	1.060021	0.490453	0.489743
C41	C	0.477465	-0.020619	-0.021291
C42	C	0.977465	0.479381	0.478709
C43	C	0.477455	-0.087590	-0.088041
C44	C	0.977455	0.412410	0.411959
C45	C	0.560013	-0.076521	-0.077014
C46	C	1.060013	0.423479	0.422986
C47	C	0.601290	-0.037500	-0.038121
C48	C	1.101290	0.462500	0.461879
C49	C	0.601282	-0.104474	-0.104878
C50	C	1.101282	0.395526	0.395122
C51	C	0.683833	-0.093408	-0.093849
C52	C	1.183833	0.406592	0.406151
C53	C	0.725115	-0.054389	-0.054957
C54	C	1.225115	0.445611	0.445043
C55	C	0.683840	-0.026434	-0.027092
C56	C	1.183840	0.473566	0.472908
C57	C	0.560004	-0.143498	-0.143769
C58	C	1.060004	0.356502	0.356231
C59	C	0.601273	-0.171450	-0.171633
C60	C	1.101273	0.328550	0.328367
C61	C	0.683825	-0.160382	-0.160607
C62	C	1.183825	0.339618	0.339393
C63	C	0.725107	-0.121363	-0.121714
C64	C	1.225107	0.378637	0.378286
C65	C	0.725100	-0.188337	-0.188472
C66	C	1.225100	0.311663	0.311528
C67	C	0.807651	-0.177271	-0.177443
C68	C	1.307651	0.322729	0.322557
C69	C	0.807658	-0.110297	-0.110685
C70	C	1.307658	0.389703	0.389315
C71	C	1.142023	-0.234849	-0.099403
C72	C	1.642023	0.265151	0.400597
C73	C	1.142038	-0.292961	-0.099408
C74	C	1.642038	0.207039	0.400592
C75	C	1.192837	-0.646515	-0.059263
C76	C	1.692837	-0.146515	0.440737
C77	C	1.192868	-0.701115	-0.059266
C78	C	1.692868	-0.201115	0.440734
O79	O	1.235921	-0.723580	-0.025126
O80	O	1.735921	-0.223580	0.474874
N81	N	1.142295	-0.735209	-0.099426
N82	N	1.642295	-0.235209	0.400574
C83	C	1.091693	-0.714701	-0.139588
C84	C	1.591693	-0.214701	0.360412
O85	O	1.048680	-0.748714	-0.173747
O86	O	1.548680	-0.248714	0.326253
C87	C	1.091667	-0.660101	-0.139586
C88	C	1.591667	-0.160101	0.360414
C89	C	1.142238	-0.626009	-0.099421
C90	C	1.642238	-0.126009	0.400579
C91	C	1.243405	-0.612424	-0.019102
C92	C	1.743405	-0.112424	0.480898
C93	C	1.243373	-0.557828	-0.019099
C94	C	1.743373	-0.057828	0.480901
C95	C	1.192774	-0.537322	-0.059257
C96	C	1.692774	-0.037322	0.440743
C97	C	1.142206	-0.571413	-0.099418
C98	C	1.642206	-0.071413	0.400582
C99	C	1.041070	-0.639592	-0.179750
C100	C	1.541070	-0.139592	0.320250
C101	C	1.041049	-0.584988	-0.179745
C102	C	1.541049	-0.084988	0.320255
C103	C	1.091620	-0.550897	-0.139580
C104	C	1.591620	-0.050897	0.360420
C105	C	1.091575	-0.496312	-0.139573
C106	C	1.591575	0.003688	0.360427
N107	N	1.142148	-0.462217	-0.099413
N108	N	1.642148	0.037783	0.400587
C109	C	1.192748	-0.482722	-0.059255
C110	C	1.692748	0.017278	0.440745
C111	C	1.091753	-0.829363	-0.139588
C112	C	1.591753	-0.329363	0.360412
C113	C	1.091774	-0.883963	-0.139587
C114	C	1.591774	-0.383963	0.360413
C115	C	1.192950	-0.870373	-0.059266
C116	C	1.692950	-0.370373	0.440734
C117	C	1.192924	-0.815773	-0.059265
C118	C	1.692924	-0.315773	0.440735
C119	C	1.142326	-0.795269	-0.099428
C120	C	1.642326	-0.295269	0.400572
C121	C	1.192676	-0.368067	-0.059251
C122	C	1.692676	0.131933	0.440749
C123	C	1.192638	-0.313467	-0.059250
C124	C	1.692638	0.186533	0.440750
C125	C	1.091465	-0.327061	-0.139573
C126	C	1.591465	0.172939	0.360427
C127	C	1.091500	-0.381656	-0.139572
C128	C	1.591500	0.118344	0.360428
C129	C	1.142112	-0.402157	-0.099409
C130	C	1.642112	0.097843	0.400591
O131	O	1.048546	-0.473808	-0.173697
O132	O	1.548546	0.026192	0.326303
O133	O	1.235761	-0.448702	-0.025106
O134	O	1.735761	0.051298	0.474894
C135	C	1.348328	-0.071394	-0.071899
C136	C	1.848328	0.428606	0.428101
C137	C	1.436186	-0.059634	-0.060175
C138	C	1.936186	0.440366	0.439825
C139	C	1.142181	-0.098976	-0.235779
C140	C	1.642181	0.401024	0.264221
C141	C	1.142192	-0.098971	-0.293892
C142	C	1.642192	0.401029	0.206108
C143	C	1.142311	0.037405	-0.099424
C144	C	1.642311	0.537405	0.400576
C145	C	1.142377	0.095528	-0.099430
C146	C	1.642377	0.595528	0.400570
C147	C	1.192850	-0.058651	-0.647510
C148	C	1.692850	0.441349	-0.147510
C149	C	1.192860	-0.058635	-0.702113
C150	C	1.692860	0.441365	-0.202113
O151	O	1.235868	-0.024424	-0.724623
O152	O	1.735868	0.475576	-0.224623
N153	N	1.142279	-0.098837	-0.736163
N154	N	1.642279	0.401163	-0.236163
C155	C	1.091680	-0.139054	-0.715608
C156	C	1.591680	0.360946	-0.215608
O157	O	1.048657	-0.173247	-0.749584
O158	O	1.548657	0.326753	-0.249584
C159	C	1.091667	-0.139067	-0.661007
C160	C	1.591667	0.360933	-0.161007
C161	C	1.142256	-0.098866	-0.626958
C162	C	1.642256	0.401134	-0.126958
C163	C	1.243435	-0.018453	-0.613462
C164	C	1.743435	0.481547	-0.113462
C165	C	1.243426	-0.018469	-0.558862
C166	C	1.743426	0.481531	-0.058862
C167	C	1.192832	-0.058684	-0.538311
C168	C	1.692832	0.441316	-0.038311
C169	C	1.142247	-0.098882	-0.572359
C170	C	1.642247	0.401118	-0.072359
C171	C	1.041064	-0.179281	-0.640453
C172	C	1.541064	0.320719	-0.140453
C173	C	1.041054	-0.179291	-0.585848
C174	C	1.541054	0.320709	-0.085848
C175	C	1.091644	-0.139090	-0.551799
C176	C	1.591644	0.360910	-0.051799
C177	C	1.091645	-0.139113	-0.497208
C178	C	1.591645	0.360887	0.002792
N179	N	1.142225	-0.098912	-0.463158
N180	N	1.642225	0.401088	0.036842
C181	C	1.192819	-0.058697	-0.483709
C182	C	1.692819	0.441303	0.016291
C183	C	1.091710	-0.139023	-0.830275
C184	C	1.591710	0.360977	-0.330275
C185	C	1.091727	-0.139012	-0.884875
C186	C	1.591727	0.360988	-0.384875
C187	C	1.192906	-0.058593	-0.871376
C188	C	1.692906	0.441407	-0.371376
C189	C	1.192893	-0.058606	-0.816774
C190	C	1.692893	0.441394	-0.316774
C191	C	1.142291	-0.098821	-0.796225
C192	C	1.642291	0.401179	-0.296225
C193	C	1.192797	-0.058735	-0.369047
C194	C	1.692797	0.441265	0.130953
C195	C	1.192786	-0.058756	-0.314443
C196	C	1.692786	0.441244	0.185557
C197	C	1.091604	-0.139174	-0.327947
C198	C	1.591604	0.360826	0.172053
C199	C	1.091618	-0.139154	-0.382546
C200	C	1.591618	0.360846	0.117454
C201	C	1.142217	-0.098930	-0.403094
C202	C	1.642217	0.401070	0.096906
O203	O	1.048657	-0.173306	-0.474660
O204	O	1.548657	0.326694	0.025340
O205	O	1.235827	-0.024506	-0.449728
O206	O	1.735827	0.475494	0.050272
C207	C	1.142176	-0.098958	0.036436
C208	C	1.642176	0.401042	0.536436
C209	C	1.142318	-0.098795	0.094569
C210	C	1.642318	0.401205	0.594569
H211	H	0.443867	0.002150	0.001398
H212	H	0.943867	0.502150	0.501398
C213	C	1.254447	0.053340	-0.496015
C214	C	1.754447	0.553340	0.003985
C215	C	1.299016	0.025738	-0.521450
C216	C	1.799016	0.525738	-0.021450
H217	H	1.288764	0.080635	-0.472921
H218	H	1.788764	0.580635	0.027079
H219	H	1.220026	0.068716	-0.521918
H220	H	1.720026	0.568716	-0.021918
H221	H	1.224333	0.029386	-0.475948
H222	H	1.724333	0.529386	0.024052
H223	H	1.329125	0.049691	-0.541520
H224	H	1.829125	0.549691	-0.041520
H225	H	1.333450	0.010361	-0.495543
H226	H	1.833450	0.510361	0.004457
C227	C	0.843369	-0.002072	-0.002808
C228	C	1.343369	0.497928	0.497192
C229	C	0.815857	-0.042223	-0.042830
C230	C	1.315857	0.457777	0.457170
H231	H	0.899389	0.005436	0.004679
H232	H	1.399389	0.505436	0.504679
H233	H	0.824723	0.029150	-0.014404
H234	H	1.324723	0.529150	0.485596
H235	H	0.824662	-0.013576	0.028446
H236	H	1.324662	0.486424	0.528446
H237	H	0.834559	-0.030717	-0.074086
H238	H	1.334559	0.469283	0.425914
H239	H	0.834511	-0.073451	-0.031237
H240	H	1.334511	0.426549	0.468763
C241	C	1.030057	-0.702435	-0.251560
C242	C	1.530057	-0.202435	0.248440
C243	C	0.985487	-0.677055	-0.223905
C244	C	1.485487	-0.177055	0.276095
H245	H	0.995739	-0.725564	-0.278820
H246	H	1.495739	-0.225564	0.221180
H247	H	1.064466	-0.676492	-0.266973
H248	H	1.564466	-0.176492	0.233027
H249	H	1.060182	-0.722469	-0.227641
H250	H	1.560182	-0.222469	0.272359
H251	H	0.955366	-0.657018	-0.247824
H252	H	1.455366	-0.157018	0.252176
H253	H	0.951064	-0.703002	-0.208492
H254	H	1.451064	-0.203002	0.291508
C255	C	0.985193	-0.457369	-0.160977
C256	C	1.485193	0.042631	0.339023
C257	C	1.035905	-0.419132	-0.183719
C258	C	1.535905	0.080868	0.316281
H259	H	0.950871	-0.480498	-0.188235
H260	H	1.450871	0.019502	0.311765
H261	H	1.015334	-0.477396	-0.137069
H262	H	1.515334	0.022604	0.362931
H263	H	0.954972	-0.440142	-0.142209
H264	H	1.454972	0.059858	0.357791
H265	H	1.066130	-0.436358	-0.202483
H266	H	1.566130	0.063642	0.297517
H267	H	1.005761	-0.399102	-0.207636
H268	H	1.505761	0.100898	0.292364
H269	H	1.233818	-0.285710	-0.026541
H270	H	1.733818	0.214290	0.473459
H271	H	0.717450	0.005349	0.004571
H272	H	1.217450	0.505349	0.504571
C273	C	1.326852	-0.869133	-0.016029
C274	C	1.826852	-0.369133	0.483971
C275	C	1.248607	-0.892891	-0.015122
C276	C	1.748607	-0.392891	0.484878
H277	H	1.361217	-0.883026	0.011225
H278	H	1.861217	-0.383026	0.511225
H279	H	1.338369	-0.876522	-0.049625
H280	H	1.838369	-0.376522	0.450375
H281	H	1.334037	-0.831737	-0.010293
H282	H	1.834037	-0.331737	0.489707
H283	H	1.241421	-0.930287	-0.020862
H284	H	1.741421	-0.430287	0.479138
H285	H	1.237087	-0.885505	0.018482
H286	H	1.737087	-0.385505	0.518482
H287	H	0.593630	0.022236	0.021407
H288	H	1.093630	0.522236	0.521407
C289	C	1.343393	-0.549895	0.060286
C290	C	1.843393	-0.049895	0.560286
C291	C	1.298975	-0.520357	0.025046
C292	C	1.798975	-0.020357	0.525046
H293	H	1.377726	-0.526763	0.087537
H294	H	1.877726	-0.026763	0.587537
H295	H	1.308984	-0.575827	0.075711
H296	H	1.808984	-0.075827	0.575711
H297	H	1.373602	-0.567120	0.041508
H298	H	1.873602	-0.067120	0.541508
H299	H	1.268760	-0.503135	0.043823
H300	H	1.768760	-0.003135	0.543823
H301	H	1.333387	-0.494416	0.009620
H302	H	1.833387	0.005584	0.509620
C303	C	0.941052	-0.603908	-0.259146
C304	C	1.441052	-0.103908	0.240854
C305	C	0.985428	-0.562451	-0.223896
C306	C	1.485428	-0.062451	0.276104
H307	H	0.906712	-0.589994	-0.286400
H308	H	1.406712	-0.089994	0.213600
H309	H	0.975487	-0.620561	-0.274567
H310	H	1.475487	-0.120561	0.225433
H311	H	0.910851	-0.629281	-0.240377
H312	H	1.410851	-0.129281	0.259623
H313	H	1.015634	-0.537080	-0.242664
H314	H	1.515634	-0.037080	0.257336
H315	H	0.950989	-0.545789	-0.208474
H316	H	1.450989	-0.045789	0.291526
H317	H	1.233997	-0.025979	-0.385771
H318	H	1.733997	0.474021	0.114229
H319	H	1.284635	0.014298	-0.630188
H320	H	1.784635	0.514298	-0.130188
C321	C	0.985408	-0.160503	-0.960468
C322	C	1.485408	0.339497	-0.460468
C323	C	1.036130	-0.183207	-0.922299
C324	C	1.536130	0.316793	-0.422299
H325	H	0.951088	-0.187787	-0.983573
H326	H	1.451088	0.312213	-0.483573
H327	H	0.955193	-0.141778	-0.943201
H328	H	1.455193	0.358222	-0.443201
H329	H	1.015547	-0.136551	-0.980522
H330	H	1.515547	0.363449	-0.480522
H331	H	1.005992	-0.207156	-0.902243
H332	H	1.505992	0.292844	-0.402243
H333	H	1.066348	-0.201940	-0.939568
H334	H	1.566348	0.298060	-0.439568
C335	C	1.046515	-0.249390	-0.175228
C336	C	1.546515	0.250610	0.324772
C337	C	1.035851	-0.304513	-0.183715
C338	C	1.535851	0.195487	0.316285
H339	H	1.012187	-0.235470	-0.202484
H340	H	1.512187	0.264530	0.297516
H341	H	1.034971	-0.242015	-0.141636
H342	H	1.534971	0.257985	0.358364
H343	H	1.099618	-0.233301	-0.175817
H344	H	1.599618	0.266699	0.324183
H345	H	0.982750	-0.320602	-0.183122
H346	H	1.482750	0.179398	0.316878
H347	H	1.047390	-0.311892	-0.217316
H348	H	1.547390	0.188108	0.282684
C349	C	1.292673	-0.349136	0.020148
C350	C	1.792673	0.150864	0.520148
C351	C	1.248304	-0.390597	-0.015101
C352	C	1.748304	0.109403	0.484899
H353	H	1.327007	-0.363047	0.047407
H354	H	1.827007	0.136953	0.547407
H355	H	1.322872	-0.323767	0.001383
H356	H	1.822872	0.176233	0.501383
H357	H	1.258227	-0.332482	0.035566
H358	H	1.758227	0.167518	0.535566
H359	H	1.282749	-0.407248	-0.030521
H360	H	1.782749	0.092752	0.469479
H361	H	1.218103	-0.415975	0.003667
H362	H	1.718103	0.084025	0.503667
H363	H	0.999868	-0.212018	-0.668167
H364	H	1.499868	0.287982	-0.168167
C365	C	0.900439	-0.235172	-0.172185
C366	C	1.400439	0.264828	0.327815
C367	C	0.853017	-0.207997	-0.208072
C368	C	1.353017	0.292003	0.291928
H369	H	0.928442	-0.254145	-0.191095
H370	H	1.428442	0.245855	0.308905
H371	H	0.936834	-0.210351	-0.147450
H372	H	1.436834	0.289649	0.352550
H373	H	0.868200	-0.259458	-0.153679
H374	H	1.368200	0.240542	0.346321
H375	H	0.885258	-0.183708	-0.226575
H376	H	1.385258	0.316292	0.273425
H377	H	0.816618	-0.232821	-0.232817
H378	H	1.316618	0.267179	0.267183
H379	H	1.234104	-0.788019	-0.026560
H380	H	1.734104	-0.288019	0.473440
H381	H	1.233985	-0.026019	-0.286722
H382	H	1.733985	0.473981	0.213278
H383	H	1.234086	-0.025870	-0.789055
H384	H	1.734086	0.474130	-0.289055
H385	H	1.050503	-0.171773	-0.813548
H386	H	1.550503	0.328227	-0.313548
C387	C	1.231508	0.035117	-0.883045
C388	C	1.731508	0.535117	-0.383045
C389	C	1.248517	-0.014381	-0.893970
C390	C	1.748517	0.485619	-0.393970
H391	H	1.265842	0.062409	-0.896991
H392	H	1.765842	0.562409	-0.396991
H393	H	1.178413	0.035657	-0.899079
H394	H	1.678413	0.535657	-0.399079
H395	H	1.238746	0.040856	-0.845652
H396	H	1.738746	0.540856	-0.345652
H397	H	1.241274	-0.020122	-0.931363
H398	H	1.741274	0.479878	-0.431363
H399	H	1.301624	-0.014922	-0.877937
H400	H	1.801624	0.485078	-0.377937
C401	C	0.941054	-0.258787	-0.604678
C402	C	1.441054	0.241213	-0.104678
C403	C	0.985443	-0.223506	-0.563259
C404	C	1.485443	0.276494	-0.063259
H405	H	0.906731	-0.286087	-0.590732
H406	H	1.406731	0.213913	-0.090732
H407	H	0.910842	-0.240046	-0.630003
H408	H	1.410842	0.259954	-0.130003
H409	H	0.975487	-0.274164	-0.621385
H410	H	1.475487	0.225836	-0.121385
H411	H	0.951010	-0.208126	-0.546555
H412	H	1.451010	0.291874	-0.046555
H413	H	1.015658	-0.242249	-0.537926
H414	H	1.515658	0.257751	-0.037926
H415	H	1.050431	-0.171893	-0.410269
H416	H	1.550431	0.328107	0.089731
H417	H	1.050414	-0.171917	-0.311204
H418	H	1.550414	0.328083	0.188796
H419	H	0.443837	-0.119362	-0.119707
H420	H	0.943837	0.380638	0.380293
H421	H	1.050587	-0.911717	-0.172290
H422	H	1.550587	-0.411717	0.327710
H423	H	1.284613	-0.629112	0.013600
H424	H	1.784613	-0.129112	0.513600
C425	C	0.441748	-0.195834	-0.195896
C426	C	0.941748	0.304166	0.304104
C427	C	0.469262	-0.155673	-0.155883
C428	C	0.969262	0.344327	0.344117
H429	H	0.385728	-0.203355	-0.203369
H430	H	0.885728	0.296645	0.296631
H431	H	0.460430	-0.184335	-0.227154
H432	H	0.960430	0.315665	0.272846
H433	H	0.460416	-0.227052	-0.184295
H434	H	0.960416	0.272948	0.315705
H435	H	0.450599	-0.124454	-0.167485
H436	H	0.950599	0.375546	0.332515
H437	H	0.450572	-0.167170	-0.124618
H438	H	0.950572	0.332830	0.375382
C439	C	0.575888	-0.200439	-0.263514
C440	C	1.075888	0.299561	0.236486
C441	C	0.555896	-0.214336	-0.214388
C442	C	1.055896	0.285664	0.285612
H443	H	0.547877	-0.226916	-0.289910
H444	H	1.047877	0.273084	0.210090
H445	H	0.562386	-0.167133	-0.273022
H446	H	1.062386	0.332867	0.226978
H447	H	0.630959	-0.197852	-0.260927
H448	H	1.130959	0.302148	0.239073
H449	H	0.500825	-0.216920	-0.216973
H450	H	1.000825	0.283080	0.283027
H451	H	0.569392	-0.247651	-0.204878
H452	H	1.069392	0.252349	0.295122
C453	C	0.991738	-0.848290	-0.218978
C454	C	1.491738	-0.348290	0.281022
C455	C	1.036120	-0.806829	-0.183734
C456	C	1.536120	-0.306829	0.316266
H457	H	0.957392	-0.834380	-0.246230
H458	H	1.457392	-0.334380	0.253770
H459	H	1.026169	-0.864943	-0.234402
H460	H	1.526169	-0.364943	0.265598
H461	H	0.961545	-0.873661	-0.200204
H462	H	1.461545	-0.373661	0.299796
H463	H	1.066318	-0.781460	-0.202508
H464	H	1.566318	-0.281460	0.297492
H465	H	1.001684	-0.790167	-0.168309
H466	H	1.501684	-0.290167	0.331691
H467	H	0.841268	-0.078514	-0.079022
H468	H	1.341268	0.421486	0.420978
C469	C	0.699706	-0.217336	-0.280352
C470	C	1.199706	0.282664	0.219648
C471	C	0.679721	-0.231227	-0.231223
C472	C	1.179721	0.268773	0.268777
H473	H	0.671694	-0.243816	-0.306744
H474	H	1.171694	0.256184	0.193256
H475	H	0.686202	-0.184032	-0.289863
H476	H	1.186202	0.315968	0.210137
H477	H	0.754778	-0.214748	-0.277768
H478	H	1.254778	0.285252	0.222232
H479	H	0.624650	-0.233811	-0.233806
H480	H	1.124650	0.266189	0.266194
H481	H	0.693220	-0.264541	-0.221709
H482	H	1.193220	0.235459	0.278291
