data_functionalizedCrystal
_audit_creation_method	'MofGen! by Chris Wilmer'
_symmetry_space_group_name_H-M	'P1'
_symmetry_Int_Tables_number	1
_symmetry_cell_setting	triclinic
loop_
_symmetry_equiv_pos_as_xyz
  x,y,z
_cell_length_a	16.109301
_cell_length_b	10.489741
_cell_length_c	14.586319
_cell_angle_alpha	90.000119
_cell_angle_beta	89.996867
_cell_angle_gamma	84.000327
loop_
_atom_site_label
_atom_site_type_symbol
_atom_site_fract_x
_atom_site_fract_y
_atom_site_fract_z
O1	O	1.104145	0.163940	-0.076182
O2	O	1.354145	0.413940	0.173818
O3	O	1.604145	0.663940	0.423818
O4	O	1.854145	0.913940	0.673818
O5	O	0.862208	0.184343	-0.076196
O6	O	1.112208	0.434343	0.173804
O7	O	1.362208	0.684343	0.423804
O8	O	1.612208	0.934343	0.673804
O9	O	0.988682	-0.011537	-0.076183
O10	O	1.238682	0.238463	0.173817
O11	O	1.488682	0.488463	0.423817
O12	O	1.738682	0.738463	0.673817
O13	O	0.977671	0.359819	-0.076195
O14	O	1.227671	0.609819	0.173805
O15	O	1.477671	0.859819	0.423805
O16	O	1.727671	1.109819	0.673805
O17	O	0.988666	-0.011525	0.076298
O18	O	1.238666	0.238475	0.326298
O19	O	1.488666	0.488475	0.576298
O20	O	1.738666	0.738475	0.826298
O21	O	0.862193	0.184354	0.076284
O22	O	1.112193	0.434354	0.326284
O23	O	1.362193	0.684354	0.576284
O24	O	1.612193	0.934354	0.826284
O25	O	1.104129	0.163951	0.076299
O26	O	1.354129	0.413951	0.326299
O27	O	1.604129	0.663951	0.576299
O28	O	1.854129	0.913951	0.826299
Cu29	Cu	0.983160	0.174154	0.090214
Cu30	Cu	1.233160	0.424154	0.340214
Cu31	Cu	1.483160	0.674154	0.590214
Cu32	Cu	1.733160	0.924154	0.840214
Cu33	Cu	0.983178	0.174140	-0.090112
Cu34	Cu	1.233178	0.424140	0.159888
Cu35	Cu	1.483178	0.674140	0.409888
Cu36	Cu	1.733178	0.924140	0.659888
O37	O	0.977656	0.359830	0.076286
O38	O	1.227656	0.609830	0.326286
O39	O	1.477656	0.859830	0.576286
O40	O	1.727656	1.109830	0.826286
C41	C	0.831221	0.183522	0.000042
C42	C	1.081221	0.433522	0.250042
C43	C	1.331221	0.683522	0.500042
C44	C	1.581221	0.933522	0.750042
C45	C	0.738910	0.181044	0.000037
C46	C	0.988910	0.431044	0.250037
C47	C	1.238910	0.681044	0.500037
C48	C	1.488910	0.931044	0.750037
C49	C	0.987842	-0.059050	0.000057
C50	C	1.237842	0.190950	0.250057
C51	C	1.487842	0.440950	0.500057
C52	C	1.737842	0.690950	0.750057
C53	C	0.985354	-0.200644	0.000055
C54	C	1.235354	0.049356	0.250055
C55	C	1.485354	0.299356	0.500055
C56	C	1.735354	0.549356	0.750055
C57	C	0.517319	0.291514	0.000044
C58	C	0.767319	0.541514	0.250044
C59	C	1.017319	0.791514	0.500044
C60	C	1.267319	1.041514	0.750044
C61	C	0.430584	0.289175	0.000050
C62	C	0.680584	0.539175	0.250050
C63	C	0.930584	0.789175	0.500050
C64	C	1.180584	1.039175	0.750050
C65	C	0.449026	0.056771	0.000053
C66	C	0.699026	0.306771	0.250053
C67	C	0.949026	0.556771	0.500053
C68	C	1.199026	0.806771	0.750053
C69	C	0.535759	0.059111	0.000054
C70	C	0.785759	0.309111	0.250054
C71	C	1.035759	0.559111	0.500054
C72	C	1.285759	0.809111	0.750054
C73	C	0.569903	0.176486	0.000045
C74	C	0.819903	0.426486	0.250045
C75	C	1.069903	0.676486	0.500045
C76	C	1.319903	0.926486	0.750045
C77	C	0.396435	0.171808	0.000050
C78	C	0.646435	0.421808	0.250050
C79	C	0.896435	0.671808	0.500050
C80	C	1.146435	0.921808	0.750050
C81	C	0.302393	0.169272	0.000056
C82	C	0.552393	0.419272	0.250056
C83	C	0.802393	0.669272	0.500056
C84	C	1.052393	0.919272	0.750056
C85	C	0.663950	0.179022	0.000040
C86	C	0.913950	0.429022	0.250040
C87	C	1.163950	0.679022	0.500040
C88	C	1.413950	0.929022	0.750040
C89	C	0.904883	-0.267616	0.000043
C90	C	1.154883	-0.017616	0.250043
C91	C	1.404883	0.232384	0.500043
C92	C	1.654883	0.482384	0.750043
C93	C	0.942889	-0.360285	0.075226
C94	C	1.192889	-0.110285	0.325226
C95	C	1.442889	0.139715	0.575226
C96	C	1.692889	0.389715	0.825226
C97	C	0.942924	-0.360271	-0.075108
C98	C	1.192924	-0.110271	0.174892
C99	C	1.442924	0.139729	0.424892
C100	C	1.692924	0.389729	0.674892
C101	C	1.023394	-0.291447	0.075300
C102	C	1.273394	-0.041447	0.325300
C103	C	1.523394	0.208553	0.575300
C104	C	1.773394	0.458553	0.825300
C105	C	1.023417	-0.291424	-0.075102
C106	C	1.273417	-0.041424	0.174898
C107	C	1.523417	0.208576	0.424898
C108	C	1.773417	0.458576	0.674898
C109	C	1.061482	-0.384066	0.000100
C110	C	1.311482	-0.134066	0.250100
C111	C	1.561482	0.115934	0.500100
C112	C	1.811482	0.365934	0.750100
C113	C	1.135117	0.164772	0.000058
C114	C	1.385117	0.414772	0.250058
C115	C	1.635117	0.664772	0.500058
C116	C	1.885117	0.914772	0.750058
C117	C	1.227427	0.167250	0.000058
C118	C	1.477427	0.417250	0.250058
C119	C	1.727427	0.667250	0.500058
C120	C	1.977427	0.917250	0.750058
C121	C	0.978495	0.407344	0.000044
C122	C	1.228495	0.657344	0.250044
C123	C	1.478495	0.907344	0.500044
C124	C	1.728495	1.157344	0.750044
C125	C	0.980983	0.548938	0.000040
C126	C	1.230983	0.798938	0.250040
C127	C	1.480983	1.048938	0.500040
C128	C	1.730983	1.298938	0.750040
N129	N	0.983153	0.174163	0.217046
N130	N	1.233153	0.424163	0.467046
N131	N	1.483153	0.674163	0.717046
N132	N	1.733153	0.924163	0.967046
N133	N	0.983191	0.174121	-0.216944
N134	N	1.233191	0.424121	0.033056
N135	N	1.483191	0.674121	0.283056
N136	N	1.733191	0.924121	0.533056
C137	C	1.034052	0.251527	0.452053
C138	C	1.284052	0.501527	0.702053
C139	C	1.534052	0.751527	0.952053
C140	C	1.784052	1.001527	1.202053
C141	C	1.034061	0.251518	0.548034
C142	C	1.284061	0.501518	0.798034
C143	C	1.534061	0.751518	1.048034
C144	C	1.784061	1.001518	1.298034
C145	C	0.932290	0.096748	0.548043
C146	C	1.182290	0.346748	0.798043
C147	C	1.432290	0.596748	1.048043
C148	C	1.682290	0.846748	1.298043
C149	C	0.932286	0.096751	0.452063
C150	C	1.182286	0.346751	0.702063
C151	C	1.432286	0.596751	0.952063
C152	C	1.682286	0.846751	1.202063
C153	C	0.983166	0.174148	0.404071
C154	C	1.233166	0.424148	0.654071
C155	C	1.483166	0.674148	0.904071
C156	C	1.733166	0.924148	1.154071
C157	C	0.983178	0.174136	0.596032
C158	C	1.233178	0.424136	0.846032
C159	C	1.483178	0.674136	1.096032
C160	C	1.733178	0.924136	1.346032
C161	C	0.983187	0.174126	0.700099
C162	C	1.233187	0.424126	0.950099
C163	C	1.483187	0.674126	1.200099
C164	C	1.733187	0.924126	1.450099
C165	C	0.983158	0.174156	0.299997
C166	C	1.233158	0.424156	0.549997
C167	C	1.483158	0.674156	0.799997
C168	C	1.733158	0.924156	1.049997
H169	H	0.545116	0.387088	0.000043
H170	H	0.795116	0.637088	0.250043
H171	H	1.045116	0.887088	0.500043
H172	H	1.295116	1.137088	0.750043
H173	H	0.890864	0.033736	0.587130
H174	H	1.140864	0.283736	0.837130
H175	H	1.390864	0.533736	1.087130
H176	H	1.640864	0.783736	1.337130
H177	H	0.387773	0.382843	0.000051
H178	H	0.637773	0.632843	0.250051
H179	H	0.887773	0.882843	0.500051
H180	H	1.137773	1.132843	0.750051
H181	H	1.075499	0.314526	0.587097
H182	H	1.325499	0.564526	0.837097
H183	H	1.575499	0.814526	1.087097
H184	H	1.825499	1.064526	1.337097
H185	H	0.890847	0.033733	0.412995
H186	H	1.140847	0.283733	0.662995
H187	H	1.390847	0.533733	0.912995
H188	H	1.640847	0.783733	1.162995
H189	H	1.057444	-0.260878	-0.138663
H190	H	1.307444	-0.010878	0.111337
H191	H	1.557444	0.239122	0.361337
H192	H	1.807444	0.489122	0.611337
H193	H	0.908871	-0.390746	-0.138675
H194	H	1.158871	-0.140746	0.111325
H195	H	1.408871	0.109254	0.361325
H196	H	1.658871	0.359254	0.611325
H197	H	0.421215	-0.038791	0.000067
H198	H	0.671215	0.211209	0.250067
H199	H	0.921215	0.461209	0.500067
H200	H	1.171215	0.711209	0.750067
H201	H	1.075482	0.314548	0.412981
H202	H	1.325482	0.564548	0.662981
H203	H	1.575482	0.814548	0.912981
H204	H	1.825482	1.064548	1.162981
H205	H	0.838720	-0.217005	0.000115
H206	H	1.088720	0.032995	0.250115
H207	H	1.338720	0.282995	0.500115
H208	H	1.588720	0.532995	0.750115
H209	H	0.908834	-0.390797	0.138784
H210	H	1.158834	-0.140797	0.388784
H211	H	1.408834	0.109203	0.638784
H212	H	1.658834	0.359203	0.888784
H213	H	0.578575	-0.034565	0.000057
H214	H	0.828575	0.215435	0.250057
H215	H	1.078575	0.465435	0.500057
H216	H	1.328575	0.715435	0.750057
H217	H	1.127704	-0.434450	0.000146
H218	H	1.377704	-0.184450	0.250146
H219	H	1.627704	0.065550	0.500146
H220	H	1.877704	0.315550	0.750146
H221	H	1.057407	-0.261104	0.138933
H222	H	1.307407	-0.011104	0.388933
H223	H	1.557407	0.238896	0.638933
H224	H	1.807407	0.488896	0.888933
