data_functionalizedCrystal
_audit_creation_method	'MofGen! by Chris Wilmer'
_symmetry_space_group_name_H-M	'P1'
_symmetry_Int_Tables_number	1
_symmetry_cell_setting	triclinic
loop_
_symmetry_equiv_pos_as_xyz
  x,y,z
_cell_length_a	25.639242
_cell_length_b	11.169416
_cell_length_c	11.169409
_cell_angle_alpha	89.968635
_cell_angle_beta	90.031940
_cell_angle_gamma	89.994323
loop_
_atom_site_label
_atom_site_type_symbol
_atom_site_fract_x
_atom_site_fract_y
_atom_site_fract_z
Zn1	Zn	0.799379	0.477853	0.678939
Zn2	Zn	0.799331	0.678593	0.478259
Zn3	Zn	0.711941	0.477907	0.478231
Zn4	Zn	0.711944	0.678477	0.678862
O5	O	0.755649	0.578208	0.578573
O6	O	0.872538	0.504508	0.652362
O7	O	0.787717	0.652044	0.310305
O8	O	0.723558	0.309950	0.504876
O9	O	0.872503	0.651991	0.504924
O10	O	0.787799	0.309910	0.652335
O11	O	0.723512	0.504600	0.310285
O12	O	0.638776	0.504487	0.504801
O13	O	0.723564	0.651792	0.846822
O14	O	0.638779	0.651845	0.652203
O15	O	0.787802	0.504395	0.846878
O16	O	0.787721	0.846528	0.504849
O17	O	0.723518	0.846442	0.652231
C18	C	0.619806	0.578160	0.578491
C19	C	0.561692	0.578169	0.578485
C20	C	0.755629	0.890032	0.578561
C21	C	0.755668	1.023432	0.578596
C22	C	0.755689	0.578074	0.891615
C23	C	0.755706	0.578018	1.025015
C24	C	0.201339	0.655065	0.655252
C25	C	0.146735	0.655073	0.655271
O26	O	0.118507	0.720393	0.720473
N27	N	0.119410	0.578241	0.578651
C28	C	0.146692	0.501388	0.502015
O29	O	0.118435	0.436037	0.436846
C30	C	0.201295	0.501376	0.502003
C31	C	0.228617	0.578221	0.578620
C32	C	0.228662	0.731903	0.731864
C33	C	0.283263	0.731897	0.731843
C34	C	0.310541	0.655053	0.655211
C35	C	0.283218	0.578215	0.578599
C36	C	0.228576	0.424518	0.425374
C37	C	0.283183	0.424511	0.425370
C38	C	0.310505	0.501357	0.501986
C39	C	0.365096	0.501365	0.501946
N40	N	0.392422	0.578196	0.578566
C41	C	0.365144	0.655041	0.655199
C42	C	0.032021	0.501419	0.502048
C43	C	-0.022581	0.501436	0.502053
C44	C	-0.022534	0.655119	0.655311
C45	C	0.032069	0.655107	0.655299
C46	C	0.059346	0.578250	0.578668
C47	C	0.479809	0.655023	0.655148
C48	C	0.534414	0.655013	0.655117
C49	C	0.534362	0.501326	0.501864
C50	C	0.479762	0.501340	0.501890
C51	C	0.452486	0.578192	0.578542
O52	O	0.393359	0.436073	0.436781
O53	O	0.393407	0.720370	0.720368
C54	C	0.892022	0.578256	0.578655
C55	C	0.950136	0.578277	0.578690
C56	C	0.755683	0.265165	0.578611
C57	C	0.755698	0.131765	0.578627
C58	C	0.755639	0.578254	0.266748
C59	C	0.755723	0.577973	0.133348
H60	H	0.556658	0.717595	0.717509
H61	H	0.305389	0.361917	0.362973
H62	H	0.206339	0.361945	0.362981
H63	H	0.305504	0.794470	0.794235
H64	H	-0.044823	0.438873	0.439651
H65	H	0.054227	0.438834	0.439637
Cl66	Cl	0.445412	0.404752	0.405552
H67	H	0.556582	0.438765	0.439468
H68	H	0.457608	0.717600	0.717568
H69	H	0.206458	0.794480	0.794274
H70	H	-0.044754	0.717687	0.717713
Cl71	Cl	0.066412	0.751713	0.751623
