data_functionalizedCrystal
_audit_creation_method	'MofGen! by Chris Wilmer'
_symmetry_space_group_name_H-M	'P1'
_symmetry_Int_Tables_number	1
_symmetry_cell_setting	triclinic
loop_
_symmetry_equiv_pos_as_xyz
  x,y,z
_cell_length_a	15.625950
_cell_length_b	15.538191
_cell_length_c	14.185569
_cell_angle_alpha	97.872928
_cell_angle_beta	59.454407
_cell_angle_gamma	66.741480
loop_
_atom_site_label
_atom_site_type_symbol
_atom_site_fract_x
_atom_site_fract_y
_atom_site_fract_z
O1	O	1.281604	0.025220	-0.382623
O2	O	0.978092	0.068055	-0.272256
O3	O	1.188928	-0.095910	-0.348918
O4	O	1.070769	0.189185	-0.305961
O5	O	1.251209	-0.144342	-0.538399
O6	O	1.040373	0.019623	-0.461737
O7	O	1.343885	-0.023211	-0.572104
Cu8	Cu	1.197816	-0.006216	-0.534221
Cu9	Cu	1.124161	0.051060	-0.310138
O10	O	1.133050	0.140753	-0.495442
C11	C	0.971336	0.046695	-0.353216
C12	C	0.858422	0.055194	-0.312156
C13	C	0.656649	-0.048765	-0.693398
C14	C	0.550523	-0.040746	-0.654760
C15	C	0.482679	0.012048	-0.448215
C16	C	0.588800	0.004038	-0.486835
C17	C	0.675779	-0.026370	-0.609428
C18	C	0.607929	0.026434	-0.402865
C19	C	0.714043	0.018419	-0.441483
C20	C	0.801028	-0.011990	-0.564071
C21	C	0.781893	-0.034384	-0.648046
C22	C	0.520952	0.056835	-0.280274
C23	C	0.540081	0.079230	-0.196304
C24	C	0.646193	0.071223	-0.234920
C25	C	0.733178	0.040813	-0.357508
C26	C	0.665329	0.093617	-0.150945
C27	C	0.771443	0.085603	-0.189563
C28	C	0.839293	0.032799	-0.396126
C29	C	1.232430	-0.156354	-0.448150
C30	C	1.269251	-0.264303	-0.461530
C31	C	0.903412	-0.518542	-0.328520
C32	C	0.938041	-0.619985	-0.341115
C33	C	1.132819	-0.660294	-0.411942
C34	C	1.098204	-0.558851	-0.399347
C35	C	0.983499	-0.487982	-0.357637
C36	C	1.178291	-0.528291	-0.428465
C37	C	1.143681	-0.426859	-0.415877
C38	C	1.028982	-0.355986	-0.374172
C39	C	0.948889	-0.386550	-0.345050
C40	C	1.292998	-0.599164	-0.470182
C41	C	1.373085	-0.568604	-0.499300
C42	C	1.338472	-0.467168	-0.486704
C43	C	1.223774	-0.396295	-0.445000
C44	C	1.418566	-0.436604	-0.515827
C45	C	1.383955	-0.335171	-0.503239
C46	C	1.189164	-0.294862	-0.432412
C47	C	1.350640	-0.001851	-0.491141
C48	C	1.463552	-0.010348	-0.532194
C49	C	1.089547	0.201198	-0.396207
C50	C	1.052723	0.309149	-0.382820
N51	N	1.249628	-0.046503	-0.691832
C52	C	0.920150	0.209656	-0.939680
C53	C	0.959402	0.179146	-1.058974
C54	C	1.146108	0.034002	-1.126823
C55	C	1.106869	0.064497	-1.007532
C56	C	0.993890	0.152326	-0.913969
C57	C	1.180609	0.007167	-0.981820
C58	C	1.141376	0.037663	-0.862540
C59	C	1.028403	0.125490	-0.768972
C60	C	0.954657	0.182822	-0.794688
C61	C	1.293591	-0.080657	-1.075387
C62	C	1.367331	-0.137988	-1.049675
C63	C	1.328095	-0.107496	-0.930392
C64	C	1.215122	-0.019669	-0.836823
C65	C	1.401841	-0.164828	-0.904675
C66	C	1.362607	-0.134331	-0.785395
C67	C	1.175888	0.010828	-0.717543
N68	N	1.072360	0.091338	-0.152532
H69	H	0.534946	-0.058963	-0.723144
C70	C	0.870536	0.248215	-0.561164
C71	C	0.985269	0.159019	-0.637853
H72	H	0.843913	0.268916	-0.480220
H73	H	0.818829	0.233937	-0.566131
H74	H	0.871063	0.302290	-0.585123
H75	H	0.984741	0.104942	-0.613900
H76	H	1.036990	0.173293	-0.632880
C77	C	0.713073	-0.100157	-0.893713
C78	C	0.752268	-0.082192	-0.828156
H79	H	0.772109	-0.120800	-0.976903
H80	H	0.642099	-0.038453	-0.864116
H81	H	0.698450	-0.153416	-0.884593
H82	H	0.766883	-0.028928	-0.837269
H83	H	0.823264	-0.143904	-0.857763
C84	C	1.500039	-0.321484	-1.130237
C85	C	1.491509	-0.234534	-1.152525
H86	H	1.576703	-0.381089	-1.193729
H87	H	1.441991	-0.330819	-1.126355
H88	H	1.487228	-0.311516	-1.055517
H89	H	1.504311	-0.244499	-1.227241
H90	H	1.549574	-0.225198	-1.156420
H91	H	1.325533	-0.105481	-1.172511
C92	C	0.608917	0.145005	0.049356
C93	C	0.569718	0.127038	-0.016195
H94	H	0.549891	0.165633	0.132545
H95	H	0.623527	0.198263	0.040245
H96	H	0.679908	0.083295	0.019745
H97	H	0.498731	0.188751	0.013411
H98	H	0.555092	0.073776	-0.007076
C99	C	1.534569	-0.348326	-0.985255
C100	C	1.526023	-0.261368	-1.007528
H101	H	1.611236	-0.407924	-1.048750
H102	H	1.476527	-0.357668	-0.981379
H103	H	1.521758	-0.338362	-0.910535
H104	H	1.538825	-0.271328	-1.082244
H105	H	1.584082	-0.252024	-1.011417
H106	H	1.238099	-0.037507	-1.203016
C107	C	1.341526	-0.750776	-0.573588
C108	C	1.258897	-0.738196	-0.457784
H109	H	1.419361	-0.798873	-0.601887
H110	H	1.332371	-0.685998	-0.570248
H111	H	1.328895	-0.776009	-0.627170
H112	H	1.271524	-0.712956	-0.404199
H113	H	1.268057	-0.802987	-0.461117
H114	H	0.872821	-0.644863	-0.317417
H115	H	1.449171	-0.310291	-0.526951
H116	H	0.899345	0.225840	-1.079897
H117	H	1.095757	-0.237154	-0.398439
C118	C	0.809890	0.191957	-0.098082
C119	C	0.792484	0.110222	-0.097272
H120	H	0.822889	0.207147	-0.041110
H121	H	0.741722	0.251461	-0.077056
H122	H	0.876878	0.172685	-0.176628
H123	H	0.725490	0.129497	-0.018727
H124	H	0.860659	0.050706	-0.118290
H125	H	1.466479	-0.626320	-0.533265
C126	C	1.558114	-0.609996	-0.566583
C127	C	1.544647	-0.514511	-0.561678
H128	H	1.635951	-0.658088	-0.594884
H129	H	1.545489	-0.635213	-0.620169
H130	H	1.502046	-0.601444	-0.488014
H131	H	1.600710	-0.523061	-0.640249
H132	H	1.557285	-0.489288	-0.508091
H133	H	0.434546	0.063364	-0.248834
C134	C	0.774017	0.323251	-0.739582
C135	C	0.830466	0.279366	-0.691831
H136	H	0.697355	0.382854	-0.676083
H137	H	0.767084	0.274164	-0.778021
H138	H	0.819324	0.342512	-0.797014
H139	H	0.785163	0.260097	-0.634406
H140	H	0.837393	0.328462	-0.653373
H141	H	0.910110	0.008052	-0.495951
H142	H	0.887432	-0.018516	-0.595512
H143	H	1.083885	0.082340	-0.641356
C144	C	0.982143	-0.158756	-0.826413
C145	C	0.877512	-0.067802	-0.782801
H146	H	1.041174	-0.179380	-0.909599
H147	H	0.967519	-0.212009	-0.817316
H148	H	1.008706	-0.146557	-0.781913
H149	H	0.850944	-0.080004	-0.827296
H150	H	0.892136	-0.014538	-0.791909
H151	H	0.810006	-0.460833	-0.294547
H152	H	0.469252	0.103984	-0.096489
H153	H	0.411850	0.036802	-0.348400
H154	H	1.000807	-0.273395	-0.363931
C155	C	0.759801	-0.356875	-0.276280
C156	C	0.822799	-0.308638	-0.299190
H157	H	0.681965	-0.308776	-0.247975
H158	H	0.755638	-0.380389	-0.216592
H159	H	0.799070	-0.414165	-0.348743
H160	H	0.783534	-0.251352	-0.226724
H161	H	0.826957	-0.285108	-0.358881
H162	H	1.321170	-0.681753	-0.480419
H163	H	0.828147	0.281169	-0.863493
H164	H	1.422655	-0.181016	-0.764464
