data_functionalizedCrystal
_audit_creation_method	'MofGen! by Chris Wilmer'
_symmetry_space_group_name_H-M	'P1'
_symmetry_Int_Tables_number	1
_symmetry_cell_setting	triclinic
loop_
_symmetry_equiv_pos_as_xyz
  x,y,z
_cell_length_a	18.215407
_cell_length_b	10.686285
_cell_length_c	18.215399
_cell_angle_alpha	85.609148
_cell_angle_beta	89.980167
_cell_angle_gamma	85.632014
loop_
_atom_site_label
_atom_site_type_symbol
_atom_site_fract_x
_atom_site_fract_y
_atom_site_fract_z
Zn1	Zn	1.147639	-0.502344	-0.393704
Zn2	Zn	1.157027	-0.713359	-0.261223
Zn3	Zn	1.024574	-0.502385	-0.270649
Zn4	Zn	1.034014	-0.713289	-0.384251
O5	O	1.090813	-0.607844	-0.327457
O6	O	1.251869	-0.530347	-0.376141
O7	O	1.139435	-0.685420	-0.159487
O8	O	1.033019	-0.325804	-0.294874
O9	O	1.258767	-0.685380	-0.278808
O10	O	1.123434	-0.325774	-0.385281
O11	O	1.042122	-0.530418	-0.166413
O12	O	0.922841	-0.530350	-0.285708
O13	O	1.049109	-0.685260	-0.488492
O14	O	0.929777	-0.685300	-0.369171
O15	O	1.132588	-0.530279	-0.495436
O16	O	1.148589	-0.889925	-0.269642
O17	O	1.058212	-0.889873	-0.360030
C18	C	0.899606	-0.607823	-0.327437
C19	C	0.817808	-0.607844	-0.327444
C20	C	1.105463	-0.935683	-0.312804
C21	C	1.111798	-1.075934	-0.306560
C22	C	0.633251	-0.688653	-0.370839
C23	C	0.556392	-0.688657	-0.370848
C24	C	0.549129	-0.527058	-0.284090
C25	C	0.625986	-0.527049	-0.284086
C26	C	0.668045	-0.607853	-0.327459
C27	C	0.514330	-0.607867	-0.327472
C28	C	0.430996	-0.607870	-0.327482
C29	C	0.751384	-0.607848	-0.327450
C30	C	1.282767	-0.607867	-0.327478
C31	C	1.364567	-0.607876	-0.327486
C32	C	1.090854	-0.607757	-0.519414
C33	C	1.090872	-0.607720	-0.601214
C34	C	1.076126	-0.278725	-0.342183
C35	C	1.069867	-0.138474	-0.348459
C36	C	1.134353	-0.526946	-0.793029
C37	C	1.134360	-0.526909	-0.869890
C38	C	1.047434	-0.688299	-0.862646
C39	C	1.047423	-0.688328	-0.785788
C40	C	1.090887	-0.607654	-0.750981
C41	C	1.090905	-0.607588	-0.904700
C42	C	1.090912	-0.607548	-0.988036
C43	C	1.090879	-0.607691	-0.667640
C44	C	1.090811	-0.607840	-0.136251
C45	C	1.090920	-0.607521	-0.054467
H46	H	0.667493	-0.754447	-0.406158
C47	C	0.518119	-0.777543	-0.418565
C48	C	0.535095	-0.920973	-0.406009
C49	C	0.496823	-1.009862	-0.453730
C50	C	0.441575	-0.955320	-0.514006
C51	C	0.424597	-0.811882	-0.526564
C52	C	0.462869	-0.722993	-0.478843
H53	H	0.575995	-0.961355	-0.361387
H54	H	0.509391	-1.116044	-0.444433
H55	H	0.413244	-1.021120	-0.549331
H56	H	0.383697	-0.771500	-0.571186
H57	H	0.450301	-0.616811	-0.488140
H58	H	1.169742	-0.461252	-0.764692
H59	H	1.029123	-1.084722	-0.389109
H60	H	1.152540	-1.129693	-0.265903
H61	H	1.012022	-0.754049	-0.751551
C62	C	1.182175	-0.438131	-0.916143
C63	C	1.229980	-0.349394	-0.877854
C64	C	1.277796	-0.260609	-0.924107
C65	C	1.277807	-0.260561	-1.008649
C66	C	1.230000	-0.349302	-1.046943
C67	C	1.182184	-0.438086	-1.000690
H68	H	1.229974	-0.349427	-0.815266
H69	H	1.313185	-0.194918	-0.895759
H70	H	1.313203	-0.194837	-1.042888
H71	H	1.230006	-0.349269	-1.109530
H72	H	1.146795	-0.503778	-1.029038
H73	H	0.514875	-0.461271	-0.248777
C74	C	0.999631	-0.777047	-0.900935
C75	C	0.999643	-0.777026	-0.985476
C76	C	0.951842	-0.865780	-1.023763
C77	C	0.904028	-0.954555	-0.977509
C78	C	0.904014	-0.954580	-0.892963
C79	C	0.951815	-0.865826	-0.854676
H80	H	1.035040	-0.711306	-1.019721
H81	H	0.951853	-0.865761	-1.086350
H82	H	0.868642	-1.020256	-1.005851
H83	H	0.868617	-1.020300	-0.858718
H84	H	0.951805	-0.865845	-0.792089
H85	H	0.654316	-0.461244	-0.248761
