data_functionalizedCrystal
_audit_creation_method	'MofGen! by Chris Wilmer'
_symmetry_space_group_name_H-M	'P1'
_symmetry_Int_Tables_number	1
_symmetry_cell_setting	triclinic
loop_
_symmetry_equiv_pos_as_xyz
  x,y,z
_cell_length_a	17.077404
_cell_length_b	19.805405
_cell_length_c	17.077396
_cell_angle_alpha	89.968350
_cell_angle_beta	89.981638
_cell_angle_gamma	90.024381
loop_
_atom_site_label
_atom_site_type_symbol
_atom_site_fract_x
_atom_site_fract_y
_atom_site_fract_z
Zn1	Zn	1.200035	-0.269500	-0.443802
Zn2	Zn	1.199934	-0.382693	-0.312528
Zn3	Zn	1.068767	-0.269519	-0.312552
Zn4	Zn	1.068727	-0.382648	-0.443754
O5	O	1.134366	-0.326090	-0.378159
O6	O	1.309869	-0.284526	-0.426398
O7	O	1.182509	-0.367707	-0.202684
O8	O	1.086239	-0.174800	-0.329992
O9	O	1.309795	-0.367688	-0.329952
O10	O	1.182681	-0.174786	-0.426421
O11	O	1.086141	-0.284559	-0.202702
O12	O	0.958915	-0.284515	-0.329947
O13	O	1.086171	-0.367612	-0.553608
O14	O	0.958886	-0.367631	-0.426340
O15	O	1.182643	-0.284482	-0.553642
O16	O	1.182470	-0.477404	-0.329906
O17	O	1.086073	-0.477371	-0.426317
C18	C	0.930418	-0.326071	-0.378141
C19	C	0.843168	-0.326079	-0.378153
C20	C	0.802218	-0.282853	-0.428449
C21	C	0.720237	-0.282858	-0.428452
C22	C	0.679209	-0.326092	-0.378163
C23	C	0.720165	-0.369319	-0.327862
C24	C	0.802144	-0.369311	-0.327855
C25	C	0.549295	-0.369335	-0.327881
C26	C	0.467311	-0.369344	-0.327889
C27	C	0.467388	-0.282881	-0.428479
C28	C	0.549367	-0.282873	-0.428472
C29	C	0.590318	-0.326102	-0.378171
C30	C	1.134278	-0.501946	-0.378121
C31	C	1.134312	-0.577178	-0.378131
C32	C	1.184555	-0.612517	-0.327982
C33	C	1.184588	-0.683205	-0.328000
C34	C	1.134374	-0.718554	-0.378162
C35	C	1.084129	-0.683210	-0.428317
C36	C	1.084100	-0.612523	-0.428303
C37	C	1.084245	-0.968283	-0.428375
C38	C	1.084276	-1.038975	-0.428383
C39	C	1.184733	-1.038966	-0.328072
C40	C	1.184704	-0.968278	-0.328058
C41	C	1.134462	-0.932941	-0.378215
C42	C	1.134427	-0.856293	-0.378196
C43	C	1.134404	-0.795201	-0.378177
C44	C	1.339110	-0.326110	-0.378177
C45	C	1.426360	-0.326118	-0.378185
C46	C	1.134414	-0.326040	-0.582903
C47	C	1.134434	-0.326019	-0.670153
C48	C	1.134476	-0.149547	-0.378214
C49	C	1.134523	-0.074315	-0.378238
C50	C	1.184668	-0.282730	-0.711163
C51	C	1.184678	-0.282707	-0.793143
C52	C	1.134456	-0.325978	-0.834113
C53	C	1.084216	-0.369269	-0.793098
C54	C	1.084203	-0.369287	-0.711119
C55	C	1.084247	-0.369228	-0.963968
C56	C	1.084261	-0.369211	-1.045952
C57	C	1.184722	-0.282648	-1.045992
C58	C	1.184709	-0.282666	-0.964013
C59	C	1.134470	-0.325959	-0.923004
C60	C	1.134364	-0.326091	-0.174211
C61	C	1.134496	-0.325921	-0.086962
H62	H	0.835485	-0.404509	-0.286898
Br63	Br	0.605048	-0.224205	-0.496731
Br64	Br	0.857891	-0.224180	-0.496708
H65	H	1.225609	-0.247436	-0.930658
Br66	Br	1.252699	-0.564551	-0.259893
Br67	Br	1.252893	-0.223986	-0.848796
H68	H	1.043364	-0.404444	-1.079308
Br69	Br	1.252783	-0.731163	-0.259942
H70	H	1.043325	-0.404471	-0.930580
H71	H	1.043188	-0.583751	-0.469140
H72	H	1.043247	-0.711996	-0.469164
Br73	Br	1.016052	-0.427990	-0.848698
H74	H	1.043386	-1.067754	-0.469238
Br75	Br	1.252852	-0.920309	-0.259976
H76	H	0.434042	-0.247682	-0.469434
Br77	Br	1.016059	-0.920334	-0.496445
H78	H	1.225567	-0.247496	-0.677811
Br79	Br	1.252908	-0.223897	-1.101647
Br80	Br	0.411630	-0.428039	-0.259661
H81	H	1.043289	-0.404531	-0.677730
Br82	Br	0.604871	-0.428006	-0.259619
Br83	Br	0.664664	-0.224192	-0.496715
H84	H	0.686754	-0.404518	-0.286912
H85	H	1.225645	-1.067746	-0.287235
