data_functionalizedCrystal
_audit_creation_method	'MofGen! by Chris Wilmer'
_symmetry_space_group_name_H-M	'P1'
_symmetry_Int_Tables_number	1
_symmetry_cell_setting	triclinic
loop_
_symmetry_equiv_pos_as_xyz
  x,y,z
_cell_length_a	11.792241
_cell_length_b	19.288864
_cell_length_c	10.268362
_cell_angle_alpha	89.981569
_cell_angle_beta	90.005428
_cell_angle_gamma	96.335169
loop_
_atom_site_label
_atom_site_type_symbol
_atom_site_fract_x
_atom_site_fract_y
_atom_site_fract_z
O1	O	0.141581	-0.922153	0.108719
O2	O	0.641581	-0.422153	0.608719
O3	O	0.160681	-0.720000	0.108630
O4	O	0.660681	-0.220000	0.608630
O5	O	-0.014114	-0.825982	0.108667
O6	O	0.485886	-0.325982	0.608667
O7	O	0.316376	-0.816171	0.108681
O8	O	0.816376	-0.316171	0.608681
O9	O	-0.014121	-0.825973	-0.107933
O10	O	0.485879	-0.325973	0.392067
O11	O	0.160674	-0.719991	-0.107971
O12	O	0.660674	-0.219991	0.392029
O13	O	0.141574	-0.922143	-0.107882
O14	O	0.641574	-0.422143	0.392118
Cu15	Cu	0.151123	-0.821066	-0.127704
Cu16	Cu	0.651123	-0.321066	0.372296
Cu17	Cu	0.151132	-0.821077	0.128452
Cu18	Cu	0.651132	-0.321077	0.628452
O19	O	0.316369	-0.816162	-0.107919
O20	O	0.816369	-0.316162	0.392081
C21	C	0.160063	-0.694116	0.000318
C22	C	0.660063	-0.194116	0.500318
C23	C	0.158218	-0.617002	0.000284
C24	C	0.658218	-0.117002	0.500284
C25	C	-0.056399	-0.825361	0.000367
C26	C	0.443601	-0.325361	0.500367
C27	C	-0.182385	-0.823517	0.000368
C28	C	0.317615	-0.323517	0.500368
N29	N	0.151117	-0.821064	-0.307870
N30	N	0.651117	-0.321064	0.192130
C31	C	-0.413046	-0.820125	0.000388
C32	C	0.086954	-0.320125	0.500388
C33	C	-0.284689	-0.822009	0.000377
C34	C	0.215311	-0.322009	0.500377
C35	C	0.358654	-0.816782	0.000384
C36	C	0.858654	-0.316782	0.500384
C37	C	0.484640	-0.818627	0.000392
C38	C	0.984640	-0.318627	0.500392
C39	C	0.142192	-0.948028	0.000433
C40	C	0.642192	-0.448028	0.500433
C41	C	0.144037	-1.025142	0.000475
C42	C	0.644037	-0.525142	0.500475
C43	C	0.260779	-0.572888	0.000309
C44	C	0.760779	-0.072888	0.500309
C45	C	0.259046	-0.500431	0.000323
C46	C	0.759046	-0.000431	0.500323
C47	C	0.154746	-0.472091	0.000339
C48	C	0.654746	0.027909	0.500339
C49	C	0.052171	-0.516215	0.000306
C50	C	0.552171	-0.016215	0.500306
C51	C	0.053907	-0.588670	0.000279
C52	C	0.553907	-0.088670	0.500279
C53	C	0.072756	-0.363367	0.076264
C54	C	0.572756	0.136633	0.576264
C55	C	0.071025	-0.290912	0.076299
C56	C	0.571025	0.209088	0.576299
C57	C	0.149387	-0.248615	0.000417
C58	C	0.649387	0.251385	0.500417
C59	C	0.229500	-0.278780	-0.075483
C60	C	0.729500	0.221220	0.424517
C61	C	0.231236	-0.351235	-0.075511
C62	C	0.731236	0.148765	0.424489
C63	C	0.152852	-0.393526	0.000367
C64	C	0.652852	0.106474	0.500367
C65	C	0.250076	-0.125935	0.000456
C66	C	0.750076	0.374065	0.500456
C67	C	0.248339	-0.053477	0.000462
C68	C	0.748339	0.446523	0.500462
C69	C	0.041460	-0.069262	0.000459
C70	C	0.541460	0.430738	0.500459
C71	C	0.043201	-0.141718	0.000439
C72	C	0.543201	0.358282	0.500439
C73	C	0.147512	-0.170050	0.000444
C74	C	0.647512	0.329950	0.500444
C75	C	0.151129	-0.821074	-0.573540
C76	C	0.651129	-0.321074	-0.073540
C77	C	0.151126	-0.821066	-0.425702
C78	C	0.651126	-0.321066	0.074298
N79	N	0.151129	-0.821085	0.308617
N80	N	0.651129	-0.321085	0.808617
H81	H	0.345717	-0.595951	0.000315
H82	H	0.845717	-0.095951	0.500315
Cl83	Cl	0.387990	-0.444964	0.000351
Cl84	Cl	0.887990	0.055036	0.500351
Cl85	Cl	0.328020	-0.225614	-0.170884
Cl86	Cl	0.828020	0.274386	0.329116
H87	H	0.005796	-0.266358	0.138107
H88	H	0.505796	0.233642	0.638107
H89	H	0.296464	-0.375792	-0.137316
H90	H	0.796464	0.124208	0.362684
Cl91	Cl	0.381207	-0.161556	0.000449
Cl92	Cl	0.881207	0.338444	0.500449
H93	H	0.008942	-0.397800	0.138064
H94	H	0.508942	0.102200	0.638064
Cl95	Cl	0.377286	0.001982	0.000487
Cl96	Cl	0.877286	0.501982	0.500487
H97	H	-0.029614	-0.624588	0.000260
H98	H	0.470386	-0.124588	0.500260
H99	H	-0.043463	-0.046188	0.000552
H100	H	0.456537	0.453812	0.500552
Cl101	Cl	-0.085742	-0.197179	0.000416
Cl102	Cl	0.414258	0.302821	0.500416
Cl103	Cl	-0.078950	-0.480588	0.000319
Cl104	Cl	0.421050	0.019412	0.500319
