data_functionalizedCrystal
_audit_creation_method	'MofGen! by Chris Wilmer'
_symmetry_space_group_name_H-M	'P1'
_symmetry_Int_Tables_number	1
_symmetry_cell_setting	triclinic
loop_
_symmetry_equiv_pos_as_xyz
  x,y,z
_cell_length_a	6.817900
_cell_length_b	10.992723
_cell_length_c	19.453030
_cell_angle_alpha	94.463015
_cell_angle_beta	101.707737
_cell_angle_gamma	108.770285
loop_
_atom_site_label
_atom_site_type_symbol
_atom_site_fract_x
_atom_site_fract_y
_atom_site_fract_z
V1	V	-4.034008	-0.179100	-0.218992
O2	O	-3.993626	0.007230	-0.214830
O3	O	-4.012170	-0.353802	-0.217489
O4	O	-3.976588	-0.176949	-0.314505
O5	O	-4.029455	-0.170847	-0.117142
V6	V	-4.515362	-0.156741	-0.206811
O7	O	-4.300022	-0.228145	-0.245713
O8	O	-4.699545	-0.107696	-0.180090
O9	O	-4.313993	0.017960	-0.208315
O10	O	-4.673140	-0.343072	-0.210973
O11	O	-4.637312	-0.164995	-0.308662
O12	O	-4.349575	-0.158893	-0.111298
C13	C	-3.863925	-0.396371	-0.214032
C14	C	-3.927297	-0.539196	-0.213439
C15	C	-4.238083	-0.750156	-0.216562
C16	C	-4.172481	-0.601682	-0.217450
C17	C	-3.880523	-0.608805	-0.278495
C18	C	-3.947884	-0.757475	-0.277959
C19	C	-3.865727	-0.718381	-0.143682
C20	C	-3.803444	-0.569659	-0.143491
C21	C	-3.818535	-0.170776	-0.337786
C22	C	-3.853047	-0.170174	-0.415868
C23	C	-3.926396	-0.287612	-0.462569
C24	C	-3.958850	-0.287060	-0.535938
C25	C	-3.917910	-0.169060	-0.562600
C26	C	-3.844562	-0.051607	-0.515889
C27	C	-3.812130	-0.052163	-0.442523
N28	N	-3.812167	-0.076544	-0.668098
N29	N	-3.842976	-0.076023	-0.737793
C30	C	-4.015625	-0.167376	-0.783648
N31	N	-4.156288	-0.259288	-0.757175
N32	N	-4.125469	-0.259812	-0.687474
C33	C	-3.953072	-0.168443	-0.642153
C34	C	-4.124171	-0.284223	-0.909904
C35	C	-4.156635	-0.283666	-0.983273
C36	C	-4.042325	-0.048209	-0.963223
C37	C	-4.009883	-0.048770	-0.889855
C38	C	-4.050800	-0.166780	-0.863201
C39	C	-4.125582	0.060523	-0.211769
C40	C	-4.041448	0.203346	-0.212367
C41	C	-4.170971	-0.165069	-0.088014
C42	C	-4.115696	-0.165665	-0.009931
H43	H	-4.271330	-0.583343	-0.267647
H44	H	-3.718322	-0.747553	-0.139963
Br45	Br	-3.981955	-0.447769	-0.426398
H46	H	-3.752402	0.043472	-0.404498
Br47	Br	-3.789018	0.108536	-0.552073
H48	H	-4.009003	0.047868	-0.984931
Br49	Br	-4.256214	-0.443062	-1.046657
Br50	Br	-3.910252	0.110623	-0.826469
Br51	Br	-3.707316	-0.809201	-0.277651
H52	H	-4.018573	-0.382695	-0.573969
H53	H	-4.070381	-0.809613	-0.329680
Br54	Br	-3.585999	-0.541413	-0.277727
Br55	Br	-4.242380	-0.522613	-0.139947
H56	H	-4.312779	-0.775037	-0.169786
Br57	Br	-3.503338	-0.496204	-0.131828
Br58	Br	-4.179695	-0.444375	-0.873725
H59	H	-4.368738	-0.804595	-0.266114
H60	H	-3.923481	-0.743533	-0.093809
Br61	Br	-3.862620	-0.491522	-0.063202
Br62	Br	-4.028372	-0.575689	-0.364770
