data_functionalizedCrystal
_audit_creation_method	'MofGen! by Chris Wilmer'
_symmetry_space_group_name_H-M	'P1'
_symmetry_Int_Tables_number	1
_symmetry_cell_setting	triclinic
loop_
_symmetry_equiv_pos_as_xyz
  x,y,z
_cell_length_a	10.654541
_cell_length_b	15.995292
_cell_length_c	14.472311
_cell_angle_alpha	90.006753
_cell_angle_beta	89.995226
_cell_angle_gamma	83.976272
loop_
_atom_site_label
_atom_site_type_symbol
_atom_site_fract_x
_atom_site_fract_y
_atom_site_fract_z
O1	O	1.666275	0.117586	-0.076805
O2	O	1.300647	0.128792	-0.076813
O3	O	1.493494	0.001356	-0.076810
O4	O	1.473428	0.245022	-0.076808
O5	O	1.493468	0.001373	0.076872
O6	O	1.300621	0.128809	0.076869
O7	O	1.666250	0.117602	0.076877
Cu8	Cu	1.483433	0.123207	0.090905
Cu9	Cu	1.483463	0.123187	-0.090842
O10	O	1.473402	0.245038	0.076874
C11	C	1.253847	0.127978	0.000027
C12	C	1.114436	0.125518	0.000024
C13	C	1.084427	0.277902	0.000014
C14	C	1.003929	0.352935	0.000005
C15	C	0.872942	0.350618	0.000004
C16	C	0.822451	0.273260	0.000015
C17	C	0.902949	0.198227	0.000024
C18	C	1.033938	0.200552	0.000022
C19	C	0.932958	0.045844	0.000040
C20	C	1.063946	0.048159	0.000035
C21	C	0.882468	-0.031514	0.000051
C22	C	0.962966	-0.106549	0.000053
C23	C	1.093960	-0.104228	0.000053
C24	C	1.144443	-0.026873	0.000043
C25	C	1.492664	-0.029836	0.000028
C26	C	1.490216	-0.122803	0.000021
C27	C	1.481215	-0.460594	0.000030
C28	C	1.620407	-0.436474	0.000376
C29	C	1.623052	-0.339783	0.000026
C30	C	1.485681	-0.293012	0.000026
C31	C	1.416107	-0.322526	-0.087732
C32	C	1.414431	-0.419326	-0.087803
C33	C	1.411559	-0.419181	0.086963
C34	C	1.416717	-0.322658	0.088119
C35	C	1.488198	-0.198301	0.000021
C36	C	1.478694	-0.555304	0.000028
C37	C	1.713050	0.118416	0.000035
C38	C	1.852460	0.120877	0.000032
C39	C	1.474232	0.276230	0.000033
C40	C	1.476680	0.369198	0.000034
N41	N	1.483420	0.123221	0.218736
N42	N	1.483486	0.123167	-0.218672
C43	C	1.483442	0.123202	0.407236
C44	C	1.380237	0.191366	0.446465
C45	C	1.379883	0.191176	0.553553
C46	C	1.483464	0.123186	0.592827
C47	C	1.455407	0.035549	0.553935
C48	C	1.454653	0.035958	0.446814
C49	C	1.615022	0.141888	0.446698
C50	C	1.614151	0.143858	0.553827
C51	C	1.483478	0.123171	0.697716
C52	C	1.483425	0.123211	0.302348
H53	H	0.775810	-0.033395	0.000055
H54	H	1.642109	0.204491	0.419691
H55	H	1.635443	0.208339	0.579232
H56	H	0.807399	0.411716	0.000004
C57	C	1.182499	-0.186766	0.000057
H58	H	1.133663	-0.233164	0.000056
H59	H	1.234220	-0.189022	0.053646
H60	H	1.234220	-0.189039	-0.053545
H61	H	0.715793	0.271380	0.000025
H62	H	1.694519	0.097511	0.580561
C63	C	1.327289	0.013026	0.590184
H64	H	1.290735	0.056908	0.629008
H65	H	1.339447	-0.037865	0.624386
H66	H	1.272630	0.006156	0.539511
H67	H	1.677542	-0.320435	0.062933
C68	C	1.718772	0.074766	0.412410
H69	H	1.682149	0.035540	0.374231
H70	H	1.758608	0.046291	0.463897
H71	H	1.779553	0.101060	0.377926
H72	H	1.191082	0.279797	-0.000006
H73	H	1.315020	-0.291245	-0.090995
C74	C	1.552793	-0.034440	0.411743
H75	H	1.553129	-0.034588	0.346099
H76	H	1.531888	-0.087208	0.433689
H77	H	1.634039	-0.024870	0.433799
C78	C	1.554285	-0.034695	0.588300
H79	H	1.613695	-0.011145	0.626768
H80	H	1.596708	-0.061559	0.536855
H81	H	1.513448	-0.074714	0.622499
H82	H	1.677885	-0.321067	-0.062990
C83	C	1.692502	-0.475247	-0.084169
H84	H	1.776508	-0.460369	-0.083428
H85	H	1.651495	-0.454593	-0.139123
H86	H	1.693995	-0.534706	-0.082106
C87	C	1.273154	-0.438883	0.087772
H88	H	1.231552	-0.413688	0.140454
H89	H	1.270490	-0.498023	0.090028
H90	H	1.232028	-0.417079	0.033329
C91	C	1.692887	-0.473868	0.085388
H92	H	1.776666	-0.458585	0.084305
H93	H	1.695005	-0.533379	0.084223
H94	H	1.651714	-0.452699	0.140089
C95	C	1.470446	-0.456998	0.176822
H96	H	1.538073	-0.498401	0.162159
H97	H	1.408251	-0.482117	0.211089
H98	H	1.501377	-0.413803	0.212647
H99	H	1.462637	-0.445870	-0.153404
C100	C	1.276572	-0.439789	-0.093210
H101	H	1.221839	-0.388959	-0.095361
H102	H	1.257481	-0.471237	-0.040297
H103	H	1.265345	-0.471782	-0.147334
C104	C	1.288525	-0.024322	0.000039
H105	H	1.329239	-0.080086	0.000039
H106	H	1.312609	0.004357	0.053625
H107	H	1.312617	0.004329	-0.053566
H108	H	1.464442	-0.302192	-0.153042
C109	C	1.402294	0.279621	0.411682
H110	H	1.339023	0.319845	0.436140
H111	H	1.398464	0.280727	0.346111
H112	H	1.483006	0.292745	0.431350
C113	C	1.485140	-0.297165	0.175827
H114	H	1.555439	-0.268568	0.158841
H115	H	1.513518	-0.346062	0.210289
H116	H	1.428673	-0.261116	0.212455
C117	C	1.402346	0.279129	0.589084
H118	H	1.411763	0.315298	0.538049
H119	H	1.476761	0.275148	0.625661
H120	H	1.332350	0.301210	0.625449
H121	H	0.921845	-0.169528	0.000061
C122	C	1.059470	0.438022	-0.000010
H123	H	1.149010	0.428660	-0.000018
H124	H	1.031832	0.468963	0.053577
H125	H	1.031845	0.468933	-0.053615
C126	C	1.249053	0.175306	0.410136
H127	H	1.256905	0.127239	0.371168
H128	H	1.213789	0.222835	0.376070
H129	H	1.195537	0.165917	0.460767
H130	H	1.316449	-0.290270	0.093419
H131	H	1.282238	0.179118	0.579195
H132	H	1.358711	0.019660	0.421843
