data_functionalizedCrystal
_audit_creation_method	'MofGen! by Chris Wilmer'
_symmetry_space_group_name_H-M	'P1'
_symmetry_Int_Tables_number	1
_symmetry_cell_setting	triclinic
loop_
_symmetry_equiv_pos_as_xyz
  x,y,z
_cell_length_a	13.033304
_cell_length_b	13.033732
_cell_length_c	13.033352
_cell_angle_alpha	90.896296
_cell_angle_beta	89.090160
_cell_angle_gamma	89.100950
loop_
_atom_site_label
_atom_site_type_symbol
_atom_site_fract_x
_atom_site_fract_y
_atom_site_fract_z
Zn1	Zn	-1.542727	0.315467	0.747150
Zn2	Zn	-1.585028	0.460946	0.559344
Zn3	Zn	-1.391874	0.310035	0.553920
Zn4	Zn	-1.397200	0.503226	0.704770
O5	O	-1.479207	0.397418	0.641296
O6	O	-1.690077	0.319345	0.742243
O7	O	-1.574880	0.420960	0.416896
O8	O	-1.391953	0.169021	0.595018
O9	O	-1.721156	0.426228	0.604263
O10	O	-1.502784	0.173012	0.736983
O11	O	-1.432970	0.310086	0.412910
O12	O	-1.250841	0.351082	0.553924
O13	O	-1.401031	0.498287	0.852121
O14	O	-1.254755	0.493019	0.664754
O15	O	-1.507949	0.360341	0.883257
O16	O	-1.580044	0.608289	0.563170
O17	O	-1.442048	0.639352	0.670014
C18	C	-1.216047	0.426050	0.604152
C19	C	-1.103466	0.438326	0.588283
C20	C	-1.037900	0.391025	0.649563
C21	C	-0.921542	0.403712	0.633163
C22	C	-1.516240	0.660571	0.612608
C23	C	-1.532171	0.773143	0.600381
C24	C	-0.743396	0.368670	0.678579
C25	C	-0.855977	0.356404	0.694451
C26	C	-1.470956	0.838733	0.647734
C27	C	-1.487421	0.955082	0.635099
C28	C	-1.450365	0.434636	0.905465
C29	C	-1.438075	0.450496	1.018039
C30	C	-1.442049	1.133241	0.670135
C31	C	-1.426197	1.020671	0.682458
C32	C	-1.485496	0.389314	1.083633
C33	C	-1.472794	0.405705	1.199983
C34	C	-1.507932	0.360370	1.378150
C35	C	-1.520222	0.344515	1.265577
H36	H	-1.073456	0.488213	0.523676
H37	H	-1.552020	0.985061	0.585198
Cl38	Cl	-1.597445	0.244913	1.219308
Cl39	Cl	-1.631904	0.819426	0.523339
Cl40	Cl	-1.326445	0.974395	0.759486
H41	H	-1.535494	0.324797	1.053652
Cl42	Cl	-1.371219	0.792450	0.724770
Cl43	Cl	-0.902292	0.279362	0.794198
Cl44	Cl	-1.360865	0.550100	1.064316
Cl45	Cl	-1.084223	0.313994	0.749309
Cl46	Cl	-0.875224	0.480736	0.533404
H47	H	-1.422780	0.470218	1.229958
