data_functionalizedCrystal
_audit_creation_method	'MofGen! by Chris Wilmer'
_symmetry_space_group_name_H-M	'P1'
_symmetry_Int_Tables_number	1
_symmetry_cell_setting	triclinic
loop_
_symmetry_equiv_pos_as_xyz
  x,y,z
_cell_length_a	19.077236
_cell_length_b	13.031981
_cell_length_c	19.076919
_cell_angle_alpha	95.212724
_cell_angle_beta	90.112677
_cell_angle_gamma	99.168272
loop_
_atom_site_label
_atom_site_type_symbol
_atom_site_fract_x
_atom_site_fract_y
_atom_site_fract_z
Zn1	Zn	1.027260	-0.379248	0.406832
Zn2	Zn	1.527260	0.120752	0.906832
Zn3	Zn	1.018200	-0.546676	0.274444
Zn4	Zn	1.518200	-0.046676	0.774444
Zn5	Zn	0.914520	-0.378700	0.284661
Zn6	Zn	1.414520	0.121300	0.784661
Zn7	Zn	0.894879	-0.560614	0.385943
Zn8	Zn	1.394879	-0.060614	0.885943
O9	O	0.963714	-0.466310	0.337970
O10	O	1.463714	0.033690	0.837970
O11	O	1.124850	-0.395853	0.393737
O12	O	1.624850	0.104147	0.893737
O13	O	1.008875	-0.518331	0.178007
O14	O	1.508875	-0.018331	0.678007
O15	O	0.941487	-0.232571	0.313886
O16	O	1.441487	0.267429	0.813886
O17	O	1.118194	-0.518863	0.296472
O18	O	1.618194	-0.018863	0.796472
O19	O	1.024316	-0.232973	0.403644
O20	O	1.524316	0.267027	0.903644
O21	O	0.932702	-0.394920	0.185514
O22	O	1.432702	0.105080	0.685514
O23	O	0.813122	-0.408435	0.293630
O24	O	1.313122	0.091565	0.793630
O25	O	0.908011	-0.542618	0.486506
O26	O	1.408011	-0.042618	0.986506
O27	O	0.798692	-0.542087	0.368042
O28	O	1.298692	-0.042087	0.868042
O29	O	1.005271	-0.409369	0.501853
O30	O	1.505271	0.090631	1.001853
O31	O	0.989829	-0.694727	0.276216
O32	O	1.489829	-0.194727	0.776216
O33	O	0.899226	-0.704967	0.358134
O34	O	1.399226	-0.204967	0.858134
C35	C	0.780291	-0.476715	0.329678
C36	C	1.280291	0.023285	0.829678
C37	C	0.701819	-0.481192	0.326145
C38	C	1.201819	0.018808	0.826145
C39	C	0.668407	-0.419362	0.375185
C40	C	1.168407	0.080638	0.875185
C41	C	0.594675	-0.423564	0.371860
C42	C	1.094675	0.076436	0.871860
C43	C	0.554355	-0.489602	0.319497
C44	C	1.054355	0.010398	0.819497
C45	C	0.587773	-0.551435	0.270452
C46	C	1.087773	-0.051435	0.770452
C47	C	0.661504	-0.547227	0.273775
C48	C	1.161504	-0.047227	0.773775
C49	C	0.333472	-0.509038	0.304120
C50	C	0.833472	-0.009038	0.804120
C51	C	0.259735	-0.513244	0.300803
C52	C	0.759735	-0.013244	0.800803
C53	C	0.266643	-0.385371	0.402209
C54	C	0.766643	0.114629	0.902209
C55	C	0.340375	-0.381173	0.405530
C56	C	0.840375	0.118827	0.905530
C57	C	0.373786	-0.443002	0.356483
C58	C	0.873786	0.056998	0.856483
N59	N	0.478989	-0.493901	0.316098
N60	N	0.978989	0.006099	0.816098
N61	N	0.449152	-0.438697	0.359879
N62	N	0.949152	0.061303	0.859879
C63	C	0.941432	-0.737755	0.313816
C64	C	1.441432	-0.237755	0.813816
C65	C	0.931963	-0.853878	0.303509
C66	C	1.431963	-0.353878	0.803509
C67	C	0.968693	-0.905770	0.343365
C68	C	1.468693	-0.405770	0.843365
C69	C	0.958907	-1.025789	0.332713
C70	C	1.458907	-0.525789	0.832713
C71	C	1.147854	-0.455864	0.346295
C72	C	1.647854	0.044136	0.846295
C73	C	1.226323	-0.451413	0.349842
C74	C	1.726323	0.048587	0.849842
C75	C	0.955460	-0.477609	0.520245
C76	C	1.455460	0.022391	1.020245
C77	C	0.951943	-0.482425	0.597920
C78	C	1.451943	0.017575	1.097920
C79	C	0.986103	-0.193804	0.362235
C80	C	1.486103	0.306196	0.862235
C81	C	0.995643	-0.077678	0.372575
C82	C	1.495643	0.422322	0.872575
C83	C	0.971983	-0.454976	0.156413
C84	C	1.471983	0.045024	0.656413
C85	C	0.975662	-0.449859	0.078771
C86	C	1.475662	0.050141	0.578771
C87	C	1.000926	-0.415314	0.642403
C88	C	1.500926	0.084686	1.142403
C89	C	0.997612	-0.419835	0.715386
C90	C	1.497612	0.080165	1.215386
C91	C	0.945319	-0.491472	0.743885
C92	C	1.445319	0.008528	1.243885
C93	C	0.896331	-0.558586	0.699397
C94	C	1.396331	-0.058586	1.199397
C95	C	0.899642	-0.554059	0.626415
C96	C	1.399642	-0.054059	1.126415
C97	C	0.929984	-0.512445	0.961301
C98	C	1.429984	-0.012445	1.461301
C99	C	0.926679	-0.516969	1.034288
C100	C	1.426679	-0.016969	1.534288
C101	C	1.027960	-0.378217	1.050273
C102	C	1.527960	0.121783	1.550273
C103	C	1.031269	-0.373700	0.977288
C104	C	1.531269	0.126300	1.477288
C105	C	0.982278	-0.440810	0.932807
C106	C	1.482278	0.059190	1.432807
N107	N	0.941932	-0.496098	0.818486
N108	N	1.441932	0.003902	1.318486
N109	N	0.985662	-0.436179	0.858208
N110	N	1.485662	0.063821	1.358208
H111	H	0.688707	-0.597575	0.233841
H112	H	1.188707	-0.097575	0.733841
H113	H	1.037501	-0.365189	0.751602
H114	H	1.537501	0.134811	1.251602
O115	O	0.562239	-0.363619	0.419591
O116	O	1.062239	0.136381	0.919591
C117	C	0.575244	-0.389891	0.487982
C118	C	1.075244	0.110109	0.987982
H119	H	0.588507	-0.472422	0.484900
H120	H	1.088507	0.027578	0.984900
H121	H	0.525931	-0.385876	0.521127
H122	H	1.025931	0.114124	1.021127
H123	H	0.621809	-0.332622	0.513219
H124	H	1.121809	0.167378	1.013219
O125	O	0.882341	-0.577484	0.918069
O126	O	1.382341	-0.077484	1.418069
C127	C	0.843562	-0.517960	0.879077
C128	C	1.343562	-0.017960	1.379077
H129	H	0.844964	-0.437290	0.908208
H130	H	1.344964	0.062710	1.408208
H131	H	0.786164	-0.558774	0.872420
H132	H	1.286164	-0.058774	1.372420
H133	H	0.868197	-0.509684	0.825077
H134	H	1.368197	-0.009684	1.325077
O135	O	1.014847	-0.852614	0.393430
O136	O	1.514847	-0.352614	0.893430
C137	C	1.014334	-0.744615	0.392928
C138	C	1.514334	-0.244615	0.892928
H139	H	0.994892	-0.727845	0.339234
H140	H	1.494892	-0.227845	0.839234
H141	H	1.070363	-0.700290	0.403768
H142	H	1.570363	-0.200290	0.903768
H143	H	0.977333	-0.718378	0.435374
H144	H	1.477333	-0.218378	0.935374
O145	O	1.041897	-1.024798	0.422655
O146	O	1.541897	-0.524798	0.922655
C147	C	1.110819	-1.046340	0.408275
C148	C	1.610819	-0.546340	0.908275
H149	H	1.107104	-1.123858	0.374493
H150	H	1.607104	-0.623858	0.874493
H151	H	1.139862	-1.051224	0.459851
H152	H	1.639862	-0.551224	0.959851
H153	H	1.141223	-0.981360	0.378853
H154	H	1.641223	-0.481360	0.878853
H155	H	0.920210	-1.070214	0.290706
H156	H	1.420210	-0.570214	0.790706
O157	O	0.845622	-0.628280	0.727105
O158	O	1.345622	-0.128280	1.227105
C159	C	0.878357	-0.696084	0.765145
C160	C	1.378357	-0.196084	1.265145
H161	H	0.934426	-0.698021	0.745093
H162	H	1.434426	-0.198021	1.245093
H163	H	0.846178	-0.777985	0.757657
H164	H	1.346178	-0.277985	1.257657
H165	H	0.880935	-0.667074	0.823443
H166	H	1.380935	-0.167074	1.323443
O167	O	0.852162	-0.619293	0.583121
O168	O	1.352162	-0.119293	1.083121
C169	C	0.888730	-0.681886	0.536728
C170	C	1.388730	-0.181886	1.036728
H171	H	0.945755	-0.641323	0.531505
H172	H	1.445755	-0.141323	1.031505
H173	H	0.861157	-0.694329	0.482855
H174	H	1.361157	-0.194329	0.982855
H175	H	0.888849	-0.760618	0.558307
H176	H	1.388849	-0.260618	1.058307
O177	O	0.379641	-0.317112	0.456369
O178	O	0.879641	0.182888	0.956369
C179	C	0.451885	-0.326641	0.448776
C180	C	0.951885	0.173359	0.948776
H181	H	0.456382	-0.405215	0.419081
H182	H	0.956382	0.094785	0.919081
H183	H	0.478116	-0.321328	0.503011
H184	H	0.978116	0.178672	1.003011
H185	H	0.479575	-0.261086	0.418096
H186	H	0.979575	0.238914	0.918096
H187	H	0.226908	-0.567025	0.258162
H188	H	0.726908	-0.067025	0.758162
H189	H	0.239431	-0.335032	0.442140
H190	H	0.739431	0.164968	0.942140
O191	O	1.082091	-0.304015	0.949725
O192	O	1.582091	0.195985	1.449725
C193	C	1.124626	-0.245767	1.004637
C194	C	1.624626	0.254233	1.504637
H195	H	1.093648	-0.247014	1.055674
H196	H	1.593648	0.252986	1.555674
H197	H	1.139877	-0.161717	0.991220
H198	H	1.639877	0.338283	1.491220
H199	H	1.174748	-0.281468	1.011419
H200	H	1.674748	0.218532	1.511419
O201	O	0.885750	-0.906711	0.253381
O202	O	1.385750	-0.406711	0.753381
C203	C	0.853512	-0.835159	0.218378
C204	C	1.353512	-0.335159	0.718378
H205	H	0.856048	-0.759247	0.253745
H206	H	1.356048	-0.259247	0.753745
H207	H	0.795668	-0.869539	0.205571
H208	H	1.295668	-0.369539	0.705571
H209	H	0.882748	-0.818831	0.167514
H210	H	1.382748	-0.318831	0.667514
H211	H	1.067844	-0.323579	1.086497
H212	H	1.567844	0.176421	1.586497
O213	O	0.365805	-0.569202	0.256444
O214	O	0.865805	-0.069202	0.756444
C215	C	0.314406	-0.628371	0.209507
C216	C	0.814406	-0.128371	0.709507
H217	H	0.260257	-0.636830	0.235436
H218	H	0.760257	-0.136830	0.735436
H219	H	0.329300	-0.708986	0.195595
H220	H	0.829300	-0.208986	0.695595
H221	H	0.312100	-0.587146	0.159538
H222	H	0.812100	-0.087146	0.659538
O223	O	1.051750	-0.345632	0.614840
O224	O	1.551750	0.154368	1.114840
C225	C	1.094283	-0.287385	0.669755
C226	C	1.594283	0.212615	1.169755
H227	H	1.063302	-0.288637	0.720791
H228	H	1.563302	0.211363	1.220791
H229	H	1.109533	-0.203334	0.656341
H230	H	1.609533	0.296666	1.156341
H231	H	1.144405	-0.323084	0.676538
H232	H	1.644405	0.176916	1.176538
O233	O	0.548562	-0.615704	0.219676
O234	O	1.048562	-0.115704	0.719676
C235	C	0.498570	-0.688155	0.251456
C236	C	0.998570	-0.188155	0.751456
H237	H	0.517770	-0.696879	0.306904
H238	H	1.017770	-0.196879	0.806904
H239	H	0.492289	-0.766974	0.218906
H240	H	0.992289	-0.266974	0.718906
H241	H	0.445229	-0.659199	0.254256
H242	H	0.945229	-0.159199	0.754256
H243	H	0.884093	-0.575308	1.057488
H244	H	1.384093	-0.075308	1.557488
H245	H	0.701230	-0.365589	0.417826
H246	H	1.201230	0.134411	0.917826
