data_functionalizedCrystal
_audit_creation_method	'MofGen! by Chris Wilmer'
_symmetry_space_group_name_H-M	'P1'
_symmetry_Int_Tables_number	1
_symmetry_cell_setting	triclinic
loop_
_symmetry_equiv_pos_as_xyz
  x,y,z
_cell_length_a	10.654550
_cell_length_b	14.044220
_cell_length_c	9.130313
_cell_angle_alpha	89.997493
_cell_angle_beta	89.996220
_cell_angle_gamma	88.836890
loop_
_atom_site_label
_atom_site_type_symbol
_atom_site_fract_x
_atom_site_fract_y
_atom_site_fract_z
O1	O	1.681222	0.133227	-0.121925
O2	O	1.317019	0.145921	-0.121902
O3	O	1.493654	0.001554	-0.121899
O4	O	1.504587	0.277595	-0.121929
O5	O	1.493652	0.001557	0.121700
O6	O	1.317017	0.145925	0.121696
O7	O	1.681220	0.133231	0.121673
Cu8	Cu	1.499119	0.139578	0.143927
Cu9	Cu	1.499121	0.139574	-0.144156
O10	O	1.504585	0.277598	0.121670
C11	C	1.270127	0.144991	-0.000100
C12	C	1.130403	0.142202	-0.000091
C13	C	1.059459	0.227203	-0.000121
C14	C	0.928175	0.224578	-0.000146
C15	C	0.938790	0.051942	-0.000116
C16	C	1.070072	0.054569	-0.000081
C17	C	1.053329	0.326873	-0.000145
C18	C	0.922045	0.324247	-0.000170
C19	C	1.488867	-0.033790	-0.000099
C20	C	1.474592	-0.139110	-0.000096
C21	C	1.448493	-0.331943	-0.000116
C22	C	1.549741	-0.388911	-0.000126
C23	C	1.535219	-0.496210	-0.000137
C24	C	1.463013	-0.224634	-0.000105
C25	C	1.728113	0.134161	-0.000132
C26	C	1.867836	0.136950	-0.000151
C27	C	1.509372	0.312942	-0.000133
C28	C	1.523648	0.418262	-0.000146
N29	N	1.499126	0.139581	0.346550
N30	N	1.499122	0.139564	-0.346779
C31	C	1.577364	0.075677	0.423203
C32	C	1.577359	0.075666	0.576540
C33	C	1.420876	0.203470	0.576557
C34	C	1.420875	0.203477	0.423223
C35	C	1.667713	0.001893	0.423195
C36	C	1.667708	0.001881	0.576532
H37	H	0.889652	-0.019406	-0.000131
O38	O	1.784727	0.021219	0.626432
C39	C	1.784494	0.021193	0.780855
H40	H	1.703321	-0.023085	0.822289
H41	H	1.876957	-0.010761	0.822649
H42	H	1.773018	0.097399	0.822497
H43	H	1.357165	0.255492	0.639000
O44	O	1.332143	-0.369999	-0.000298
C45	C	1.317712	-0.426603	-0.126478
H46	H	1.414053	-0.450467	-0.168560
H47	H	1.260510	-0.491800	-0.098096
H48	H	1.266906	-0.383315	-0.214809
H49	H	1.086577	0.365856	0.101803
H50	H	1.647328	-0.357098	-0.000231
H51	H	0.884087	0.361800	-0.102127
H52	H	1.127830	-0.014647	-0.000035
O53	O	1.344828	0.265637	0.348988
C54	C	1.275743	0.322012	0.449546
H55	H	1.327391	0.323448	0.558842
H56	H	1.265034	0.397633	0.405245
H57	H	1.178944	0.290543	0.465864
O58	O	1.633161	-0.085047	0.373620
C59	C	1.511787	-0.105015	0.425260
H60	H	1.459906	-0.035467	0.452508
H61	H	1.458013	-0.144713	0.337132
H62	H	1.519293	-0.151012	0.527896
O63	O	1.099611	0.364897	-0.125528
C64	C	1.052809	0.458911	-0.142019
H65	H	1.023959	0.488475	-0.030439
H66	H	1.128830	0.505134	-0.191106
H67	H	0.967796	0.459147	-0.217844
O68	O	0.871321	0.360087	0.125436
C69	C	0.915584	0.306301	0.245883
H70	H	1.008183	0.269220	0.215715
H71	H	0.930779	0.355547	0.343259
H72	H	0.843585	0.250646	0.276072
O73	O	1.779268	0.029596	0.366633
C74	C	1.804709	0.122688	0.414458
H75	H	1.750651	0.138255	0.519807
H76	H	1.909627	0.129099	0.435752
H77	H	1.774425	0.175986	0.326489
O78	O	1.622863	-0.080235	0.633331
C79	C	1.516418	-0.059390	0.720233
H80	H	1.472649	0.011604	0.684427
H81	H	1.445004	-0.118073	0.706399
H82	H	1.545524	-0.054845	0.840142
