data_functionalizedCrystal
_audit_creation_method	'MofGen! by Chris Wilmer'
_symmetry_space_group_name_H-M	'P1'
_symmetry_Int_Tables_number	1
_symmetry_cell_setting	triclinic
loop_
_symmetry_equiv_pos_as_xyz
  x,y,z
_cell_length_a	16.992694
_cell_length_b	16.053802
_cell_length_c	16.974875
_cell_angle_alpha	96.211142
_cell_angle_beta	92.975842
_cell_angle_gamma	92.750953
loop_
_atom_site_label
_atom_site_type_symbol
_atom_site_fract_x
_atom_site_fract_y
_atom_site_fract_z
O1	O	1.042985	0.058180	-0.165032
O2	O	1.542985	0.558180	0.334968
O3	O	0.814708	0.058329	-0.163187
O4	O	1.314708	0.558329	0.336813
O5	O	0.935581	0.066018	-0.049061
O6	O	1.435581	0.566018	0.450939
O7	O	0.922112	0.050492	-0.279158
O8	O	1.422112	0.550492	0.220842
O9	O	0.928928	-0.073263	-0.055315
O10	O	1.428928	0.426737	0.444685
O11	O	0.808055	-0.080951	-0.169441
O12	O	1.308055	0.419049	0.330559
O13	O	1.036332	-0.081100	-0.171287
O14	O	1.536332	0.418900	0.328713
Zn15	Zn	0.921137	-0.103139	-0.171357
Zn16	Zn	1.421137	0.396861	0.328643
Zn17	Zn	0.929903	0.080368	-0.163116
Zn18	Zn	1.429903	0.580368	0.336884
O19	O	0.915459	-0.088789	-0.285412
O20	O	1.415459	0.411211	0.214588
C21	C	0.782180	-0.011148	-0.163940
C22	C	1.282180	0.488852	0.336060
C23	C	0.695166	-0.010660	-0.156859
C24	C	1.195166	0.489340	0.343141
C25	C	0.644632	-0.015271	-0.225181
C26	C	1.144632	0.484729	0.274819
C27	C	0.562874	-0.014833	-0.218523
C28	C	1.062874	0.485167	0.281477
C29	C	0.531651	-0.009779	-0.143543
C30	C	1.031651	0.490221	0.356457
C31	C	0.582192	-0.005170	-0.075216
C32	C	1.082192	0.494830	0.424784
C33	C	0.663948	-0.005614	-0.081874
C34	C	1.163948	0.494386	0.418126
C35	C	0.288171	-0.007939	-0.115946
C36	C	0.788171	0.492061	0.384054
C37	C	0.206408	-0.007493	-0.109292
C38	C	0.706408	0.492507	0.390708
C39	C	0.187096	-0.017158	-0.252600
C40	C	0.687096	0.482842	0.247400
C41	C	0.268855	-0.017596	-0.259252
C42	C	0.768855	0.482404	0.240748
C43	C	0.319388	-0.012992	-0.190925
C44	C	0.819388	0.487008	0.309075
N45	N	0.448081	-0.009328	-0.136736
N46	N	0.948081	0.490672	0.363264
N47	N	0.402956	-0.013448	-0.197733
N48	N	0.902956	0.486552	0.302267
N49	N	0.915161	-0.228379	-0.176980
N50	N	1.415161	0.271621	0.323020
C51	C	0.966611	-0.268802	-0.128439
C52	C	1.466611	0.231198	0.371561
C53	C	0.962437	-0.356475	-0.132381
C54	C	1.462437	0.143525	0.367619
C55	C	0.906817	-0.403722	-0.184868
C56	C	1.406817	0.096278	0.315132
C57	C	0.855361	-0.363292	-0.233411
C58	C	1.355361	0.136708	0.266589
C59	C	0.859532	-0.275621	-0.229465
C60	C	1.359532	0.224379	0.270535
C61	C	0.888600	-0.666291	-0.202084
C62	C	1.388600	-0.166291	0.297916
C63	C	0.884436	-0.753968	-0.206028
C64	C	1.384436	-0.253968	0.293972
C65	C	0.991511	-0.747145	-0.104996
C66	C	1.491511	-0.247145	0.395004
C67	C	0.995680	-0.659473	-0.101058
C68	C	1.495680	-0.159473	0.398942
C69	C	0.944221	-0.619050	-0.149598
C70	C	1.444221	-0.119050	0.350402
N71	N	0.902551	-0.493337	-0.188900
N72	N	1.402551	0.006663	0.311100
N73	N	0.948484	-0.529436	-0.145561
N74	N	1.448484	-0.029436	0.354439
C75	C	1.068860	-0.011622	-0.170533
C76	C	1.568860	0.488378	0.329467
C77	C	1.155874	-0.012104	-0.177614
C78	C	1.655874	0.487896	0.322386
C79	C	0.931866	-0.001625	-0.022610
C80	C	1.431866	0.498375	0.477390
C81	C	0.930698	0.004328	0.065525
C82	C	1.430698	0.504328	0.565525
N83	N	0.935886	0.205608	-0.157487
N84	N	1.435886	0.705608	0.342513
C85	C	0.926521	-0.068793	0.103529
C86	C	1.426521	0.431207	0.603529
C87	C	0.925429	-0.063192	0.186342
C88	C	1.425429	0.436808	0.686342
C89	C	0.928509	0.015531	0.231149
C90	C	1.428509	0.515531	0.731149
C91	C	0.932688	0.088657	0.193139
C92	C	1.432688	0.588657	0.693139
C93	C	0.933786	0.083056	0.110328
C94	C	1.433786	0.583056	0.610328
C95	C	0.925621	0.040425	0.479182
C96	C	1.425621	0.540425	0.979182
C97	C	0.924520	0.046021	0.561998
C98	C	1.424520	0.546021	1.061998
C99	C	0.917263	-0.105829	0.555195
C100	C	1.417263	0.394171	1.055195
C101	C	0.918356	-0.111424	0.472382
C102	C	1.418356	0.388576	0.972382
C103	C	0.922540	-0.038297	0.434381
C104	C	1.422540	0.461703	0.934381
N105	N	0.927390	0.021257	0.315796
N106	N	1.427390	0.521257	0.815796
N107	N	0.923664	-0.044025	0.349735
N108	N	1.423664	0.455975	0.849735
C109	C	0.919175	-0.021147	0.688137
C110	C	1.419175	0.478853	1.188137
C111	C	0.920343	-0.027100	0.600002
C112	C	1.420343	0.472900	1.100002
H113	H	0.329306	-0.004190	-0.060309
H114	H	0.829306	0.495810	0.439691
H115	H	0.839140	-0.792434	-0.248773
H116	H	1.339140	-0.292434	0.251227
N117	N	0.927853	0.130934	0.610326
N118	N	1.427853	0.630934	1.110326
H119	H	0.926520	0.123383	0.668552
H120	H	1.426520	0.623383	1.168552
H121	H	0.881042	0.162896	0.593987
H122	H	1.381042	0.662896	1.093987
N123	N	0.718451	-0.000638	-0.008181
N124	N	1.218451	0.499362	0.491819
H125	H	0.755263	0.051022	-0.005428
H126	H	1.255263	0.551022	0.494572
H127	H	0.750288	-0.052277	-0.010114
H128	H	1.250288	0.447723	0.489886
N129	N	0.172730	-0.002036	-0.028417
N130	N	0.672730	0.497964	0.471583
H131	H	0.217147	0.000813	0.013858
H132	H	0.717147	0.500813	0.513858
H133	H	0.136766	-0.053271	-0.024855
H134	H	0.636766	0.446729	0.475145
N135	N	1.055678	-0.608518	-0.044453
N136	N	1.555678	-0.108518	0.455547
H137	H	1.050518	-0.546845	-0.049325
H138	H	1.550518	-0.046845	0.450675
H139	H	1.110509	-0.624701	-0.057877
H140	H	1.610509	-0.124701	0.442123
N141	N	0.912763	-0.184698	0.596183
N142	N	1.412763	0.315302	1.096183
H143	H	0.912539	-0.169208	0.655442
H144	H	1.412539	0.330792	1.155442
H145	H	0.959967	-0.218601	0.583568
H146	H	1.459967	0.281399	1.083568
N147	N	0.833098	-0.622699	-0.254431
N148	N	1.333098	-0.122699	0.245569
H149	H	0.797232	-0.665935	-0.288279
H150	H	1.297232	-0.165935	0.211721
H151	H	0.864676	-0.588805	-0.289775
H152	H	1.364676	-0.088805	0.210225
H153	H	0.935201	0.152755	0.229628
H154	H	1.435201	0.652755	0.729628
H155	H	1.033405	-0.780065	-0.065477
H156	H	1.533405	-0.280065	0.434523
H157	H	0.817634	-0.242709	-0.268991
H158	H	1.317634	0.257291	0.231009
N159	N	1.017938	-0.400073	-0.080033
N160	N	1.517938	0.099927	0.419967
H161	H	1.006857	-0.462781	-0.090493
H162	H	1.506857	0.037219	0.409507
H163	H	1.009863	-0.380919	-0.022504
H164	H	1.509863	0.119081	0.477496
N165	N	0.930131	0.119293	0.438199
N166	N	1.430131	0.619293	0.938199
H167	H	0.931911	0.170011	0.479152
H168	H	1.431911	0.670011	0.979152
H169	H	0.882154	0.120058	0.400637
H170	H	1.382154	0.620058	0.900637
H171	H	0.556763	-0.001067	-0.014166
H172	H	1.056763	0.498933	0.485834
N173	N	1.026588	-0.217836	-0.071819
N174	N	1.526588	0.282164	0.428181
H175	H	1.062895	-0.183643	-0.102701
H176	H	1.562895	0.316357	0.397299
H177	H	1.058492	-0.256797	-0.041671
H178	H	1.558492	0.243203	0.458329
N179	N	0.795364	-0.414246	-0.290018
N180	N	1.295364	0.085754	0.209982
H181	H	0.800529	-0.475920	-0.285154
H182	H	1.300529	0.024080	0.214846
H183	H	0.804901	-0.402748	-0.346167
H184	H	1.304901	0.097252	0.153833
N185	N	0.923194	-0.153702	0.055204
N186	N	1.423194	0.346298	0.555204
H187	H	0.920384	-0.199173	0.091849
H188	H	1.420384	0.300827	0.591849
H189	H	0.972083	-0.159113	0.024047
H190	H	1.472083	0.340887	0.524047
H191	H	0.922031	-0.122735	0.217281
H192	H	1.422031	0.377265	0.717281
N193	N	0.938296	0.161921	0.069334
N194	N	1.438296	0.661921	0.569334
H195	H	0.940079	0.212643	0.110283
H196	H	1.440079	0.712643	0.610283
H197	H	0.890320	0.162687	0.031771
H198	H	1.390320	0.662687	0.531771
H199	H	0.670047	-0.019386	-0.286238
H200	H	1.170047	0.480614	0.213762
H201	H	0.915865	-0.175528	0.435907
H202	H	1.415865	0.324472	0.935907
H203	H	0.521732	-0.018587	-0.274158
H204	H	1.021732	0.481413	0.225842
H205	H	0.294270	-0.021702	-0.320308
H206	H	0.794270	0.478298	0.179692
H207	H	0.145943	-0.020908	-0.308228
H208	H	0.645943	0.479092	0.191772
