data_functionalizedCrystal
_audit_creation_method	'MofGen! by Chris Wilmer'
_symmetry_space_group_name_H-M	'P1'
_symmetry_Int_Tables_number	1
_symmetry_cell_setting	triclinic
loop_
_symmetry_equiv_pos_as_xyz
  x,y,z
_cell_length_a	19.805407
_cell_length_b	12.759394
_cell_length_c	12.759387
_cell_angle_alpha	89.967183
_cell_angle_beta	89.977851
_cell_angle_gamma	90.014837
loop_
_atom_site_label
_atom_site_type_symbol
_atom_site_fract_x
_atom_site_fract_y
_atom_site_fract_z
Zn1	Zn	1.034807	-0.418199	-0.594092
Zn2	Zn	1.034740	-0.593920	-0.418410
Zn3	Zn	0.921617	-0.418255	-0.418419
Zn4	Zn	0.921608	-0.593837	-0.594039
O5	O	0.978193	-0.506053	-0.506240
O6	O	1.129515	-0.441520	-0.570806
O7	O	1.019709	-0.570676	-0.271390
O8	O	0.936664	-0.271227	-0.441748
O9	O	1.129465	-0.570621	-0.441733
O10	O	1.019824	-0.271185	-0.570815
O11	O	0.936598	-0.441616	-0.271397
O12	O	0.826899	-0.441535	-0.441697
O13	O	0.936649	-0.570480	-0.741067
O14	O	0.826893	-0.570534	-0.570724
O15	O	1.019816	-0.441440	-0.741106
O16	O	1.019701	-0.740930	-0.441682
O17	O	0.936584	-0.740869	-0.570715
C18	C	0.802337	-0.506033	-0.506206
C19	C	0.727105	-0.506049	-0.506216
C20	C	0.691775	-0.573320	-0.573292
C21	C	0.621087	-0.573322	-0.573307
C22	C	0.585730	-0.506057	-0.506240
C23	C	0.621064	-0.438779	-0.439161
C24	C	0.691751	-0.438773	-0.439153
C25	C	0.335991	-0.438802	-0.439196
C26	C	0.265299	-0.438816	-0.439208
C27	C	0.265327	-0.573352	-0.573350
C28	C	0.336014	-0.573345	-0.573342
C29	C	0.371342	-0.506063	-0.506267
C30	C	0.447991	-0.506061	-0.506254
C31	C	0.509082	-0.506065	-0.506248
C32	C	0.978152	-0.779020	-0.506215
C33	C	0.978197	-0.895797	-0.506239
C34	C	1.064812	-0.895807	-0.371977
C35	C	1.108137	-0.950673	-0.304858
C36	C	1.108177	-1.060394	-0.304886
C37	C	1.064888	-1.115253	-0.372043
C38	C	1.021563	-1.060387	-0.439162
C39	C	1.021527	-0.950663	-0.439124
C40	C	0.934952	-1.060377	-0.573428
C41	C	0.934908	-0.950655	-0.573396
C42	C	0.891664	-1.115235	-0.640585
C43	C	0.848334	-1.060369	-0.707700
C44	C	0.848296	-0.950641	-0.707667
C45	C	0.891583	-0.895789	-0.640514
C46	C	1.154736	-0.506074	-0.506275
C47	C	1.229968	-0.506082	-0.506290
C48	C	0.978239	-0.505944	-0.780274
C49	C	0.978259	-0.505898	-0.897050
C50	C	0.978252	-0.232019	-0.506289
C51	C	0.978278	-0.115242	-0.506309
C52	C	0.891721	-0.371499	-0.897076
C53	C	0.848464	-0.304278	-0.951950
C54	C	0.848484	-0.304240	-1.061671
C55	C	0.891765	-0.371432	-1.116522
C56	C	0.935021	-0.438653	-1.061648
C57	C	0.934998	-0.438681	-0.951924
C58	C	1.021554	-0.573056	-1.061623
C59	C	1.021539	-0.573090	-0.951901
C60	C	1.064835	-0.640248	-1.116473
C61	C	1.108096	-0.707464	-1.061600
C62	C	1.108074	-0.707499	-0.951871
C63	C	1.064795	-0.640310	-0.897027
C64	C	0.978186	-0.506085	-0.233273
C65	C	0.978298	-0.505835	-0.116496
H66	H	0.364798	-0.628122	-0.627951
H67	H	0.813225	-0.249574	-0.907278
O68	O	1.150227	-0.772676	-1.114764
C69	C	1.217690	-0.749721	-1.087999
H70	H	1.219093	-0.709357	-1.008345
H71	H	1.248020	-0.825553	-1.084232
H72	H	1.240509	-0.695693	-1.149774
O73	O	0.725968	-0.373398	-0.373890
C74	C	0.679605	-0.314014	-0.314711
H75	H	0.629209	-0.357046	-0.311008
H76	H	0.700005	-0.302713	-0.231950
H77	H	0.672110	-0.234264	-0.353320
H78	H	1.143384	-0.905998	-0.250181
O79	O	0.891702	-0.371723	-0.790493
C80	C	0.874267	-0.472412	-0.753801
H81	H	0.885821	-0.532915	-0.817016
H82	H	0.904779	-0.491117	-0.680397
H83	H	0.818102	-0.474624	-0.734319
O84	O	0.586616	-0.373531	-0.374051
C85	C	0.516649	-0.387941	-0.388459
H86	H	0.506993	-0.469064	-0.422721
H87	H	0.489761	-0.380718	-0.309780
H88	H	0.496615	-0.325694	-0.444524
O89	O	0.586846	-0.638630	-0.638602
C90	C	0.604143	-0.615790	-0.743356
H91	H	0.655470	-0.575392	-0.745601
H92	H	0.606573	-0.691678	-0.790319
H93	H	0.564374	-0.561834	-0.778856
H94	H	1.143301	-0.762235	-0.907200
H95	H	0.236554	-0.628132	-0.627970
O96	O	0.891764	-1.221817	-0.640786
C97	C	0.909116	-1.258365	-0.741518
H98	H	0.938589	-1.195058	-0.784969
H99	H	0.941600	-1.331734	-0.734059
H100	H	0.861191	-1.277855	-0.786979
H101	H	0.813095	-1.105043	-0.762378
O102	O	1.064770	-0.640538	-0.790444
C103	C	1.047332	-0.741229	-0.753761
H104	H	1.058893	-0.801729	-0.816976
H105	H	1.077837	-0.759937	-0.680351
H106	H	0.991165	-0.743443	-0.734292
H107	H	0.236513	-0.384035	-0.384594
O108	O	1.150337	-1.113740	-0.239843
C109	C	1.194044	-1.177120	-0.299740
H110	H	1.198185	-1.143975	-0.382482
H111	H	1.246146	-1.178335	-0.261816
H112	H	1.173143	-1.260299	-0.303356
O113	O	1.064807	-1.221836	-0.372079
C114	C	0.999965	-1.258610	-0.344999
H115	H	0.960947	-1.195415	-0.362868
H116	H	0.987949	-1.331984	-0.392402
H117	H	0.998567	-1.278167	-0.257831
O118	O	0.726193	-0.638516	-0.638495
C119	C	0.767097	-0.578773	-0.706467
H120	H	0.777687	-0.499111	-0.669547
H121	H	0.816802	-0.621579	-0.720470
H122	H	0.739878	-0.567319	-0.784347
O123	O	0.370198	-0.373414	-0.373944
C124	C	0.323830	-0.314031	-0.314773
H125	H	0.273439	-0.357074	-0.311062
H126	H	0.344231	-0.302713	-0.232014
H127	H	0.316328	-0.234289	-0.353394
H128	H	1.064775	-0.806466	-0.371933
H129	H	0.891552	-0.806448	-0.640475
H130	H	0.813018	-0.905975	-0.762328
O131	O	0.806444	-0.238846	-1.114819
C132	C	0.768225	-0.179571	-1.042886
H133	H	0.795930	-0.175961	-0.964673
H134	H	0.761035	-0.096783	-1.074613
H135	H	0.716806	-0.218035	-1.031204
H136	H	0.891771	-0.371405	-1.205863
O137	O	1.064914	-0.640039	-1.223056
C138	C	1.082318	-0.539331	-1.259733
H139	H	1.111826	-0.495932	-1.196513
H140	H	1.114786	-0.546834	-1.333140
H141	H	1.034416	-0.493792	-1.279205
