data_functionalizedCrystal
_audit_creation_method	'MofGen! by Chris Wilmer'
_symmetry_space_group_name_H-M	'P1'
_symmetry_Int_Tables_number	1
_symmetry_cell_setting	triclinic
loop_
_symmetry_equiv_pos_as_xyz
  x,y,z
_cell_length_a	15.298068
_cell_length_b	16.625545
_cell_length_c	15.296720
_cell_angle_alpha	80.355801
_cell_angle_beta	91.645182
_cell_angle_gamma	99.685208
loop_
_atom_site_label
_atom_site_type_symbol
_atom_site_fract_x
_atom_site_fract_y
_atom_site_fract_z
Zn1	Zn	1.253364	-0.239865	0.727359
Zn2	Zn	1.753364	0.260135	1.227359
Zn3	Zn	1.278620	-0.348155	0.580888
Zn4	Zn	1.778620	0.151845	1.080888
Zn5	Zn	1.132245	-0.232030	0.555526
Zn6	Zn	1.632245	0.267970	1.055526
Zn7	Zn	1.106846	-0.393358	0.701911
Zn8	Zn	1.606846	0.106642	1.201911
O9	O	1.192769	-0.303352	0.641421
O10	O	1.692769	0.196648	1.141421
O11	O	1.379291	-0.238591	0.729194
O12	O	1.879291	0.261409	1.229194
O13	O	1.280402	-0.310555	0.454963
O14	O	1.780402	0.189445	0.954963
O15	O	1.148371	-0.120233	0.578357
O16	O	1.648371	0.379767	1.078357
O17	O	1.397846	-0.318152	0.621582
O18	O	1.897846	0.181848	1.121582
O19	O	1.237357	-0.125990	0.704602
O20	O	1.737357	0.374010	1.204602
O21	O	1.172860	-0.225238	0.436329
O22	O	1.672860	0.274762	0.936329
O23	O	1.006299	-0.269069	0.553680
O24	O	1.506299	0.230931	1.053680
O25	O	1.105083	-0.395193	0.827848
O26	O	1.605083	0.104807	1.327848
O27	O	0.987639	-0.387596	0.661228
O28	O	1.487639	0.112404	1.161228
O29	O	1.212729	-0.282422	0.846545
O30	O	1.712729	0.217578	1.346545
O31	O	1.255774	-0.466988	0.596906
O32	O	1.755774	0.033012	1.096906
O33	O	1.129573	-0.500198	0.685821
O34	O	1.629573	-0.000198	1.185821
C35	C	0.965186	-0.332388	0.601941
C36	C	1.465186	0.167612	1.101941
C37	C	0.867821	-0.344833	0.585072
C38	C	1.367821	0.155167	1.085072
C39	C	0.554665	-0.214609	0.761988
C40	C	1.054665	0.285391	1.261988
C41	C	0.646143	-0.202920	0.777843
C42	C	1.146143	0.297080	1.277843
C43	C	0.701567	-0.238397	0.729651
C44	C	1.201567	0.261603	1.229651
C45	C	0.665504	-0.285566	0.665603
C46	C	1.165504	0.214434	1.165603
C47	C	0.574016	-0.297262	0.649752
C48	C	1.074016	0.202738	1.149752
C49	C	0.720918	-0.321049	0.617415
C50	C	1.220918	0.178951	1.117415
C51	C	0.684855	-0.368218	0.553367
C52	C	1.184855	0.131782	1.053367
C53	C	0.593376	-0.379912	0.537518
C54	C	1.093376	0.120088	1.037518
C55	C	0.537952	-0.344435	0.585710
C56	C	1.037952	0.155565	1.085710
C57	C	0.812406	-0.309353	0.633266
C58	C	1.312406	0.190647	1.133266
C59	C	0.831757	-0.392006	0.521030
C60	C	1.331757	0.107994	1.021030
C61	C	0.740279	-0.403695	0.505175
C62	C	1.240279	0.096305	1.005175
C63	C	1.192678	-0.512850	0.641377
C64	C	1.692678	-0.012850	1.141377
C65	C	1.192715	-0.602469	0.641401
C66	C	1.692715	-0.102469	1.141401
C67	C	1.192746	-0.675251	0.641425
C68	C	1.692746	-0.175251	1.141425
C69	C	1.192793	-0.766556	0.641453
C70	C	1.692793	-0.266556	1.141453
C71	C	1.192837	-0.839329	0.641472
C72	C	1.692837	-0.339329	1.141472
C73	C	1.192884	-0.930640	0.641499
C74	C	1.692884	-0.430640	1.141499
C75	C	1.421240	-0.274203	0.681056
C76	C	1.921240	0.225797	1.181056
C77	C	1.518601	-0.261782	0.697946
C78	C	2.018601	0.238218	1.197946
C79	C	1.153256	-0.344724	0.869864
C80	C	1.653256	0.155276	1.369864
C81	C	1.136418	-0.362354	0.967212
C82	C	1.636418	0.137646	1.467212
C83	C	1.192880	-0.093036	0.641489
C84	C	1.692880	0.406964	1.141489
C85	C	1.192927	-0.003412	0.641518
C86	C	1.692927	0.496588	1.141518
C87	C	1.232178	-0.262077	0.413876
C88	C	1.732178	0.237923	0.913876
C89	C	1.249186	-0.244198	0.316558
C90	C	1.749186	0.255802	0.816558
C91	C	1.313144	-0.177201	1.280561
C92	C	1.813144	0.322799	1.780561
C93	C	1.328970	-0.160637	1.189098
C94	C	1.828970	0.339363	1.689098
C95	C	1.280833	-0.211065	1.133622
C96	C	1.780833	0.288935	1.633622
C97	C	1.216869	-0.278059	1.169618
C98	C	1.716869	0.221941	1.669618
C99	C	1.201046	-0.294629	1.261091
C100	C	1.701046	0.205371	1.761091
C101	C	1.168735	-0.328492	1.114152
C102	C	1.668735	0.171508	1.614152
C103	C	1.104770	-0.395487	1.150148
C104	C	1.604770	0.104513	1.650148
C105	C	1.088951	-0.412053	1.241611
C106	C	1.588951	0.087947	1.741611
C107	C	1.137087	-0.361625	1.297087
C108	C	1.637087	0.138375	1.797087
C109	C	1.184557	-0.311923	1.022679
C110	C	1.684557	0.188077	1.522679
C111	C	1.072459	-0.429351	1.003209
C112	C	1.572459	0.070649	1.503209
C113	C	1.056634	-0.445914	1.094672
C114	C	1.556634	0.054086	1.594672
H115	H	0.841759	-0.270947	0.685414
H116	H	1.341759	0.229053	1.185414
N117	N	0.800235	-0.225797	0.746731
N118	N	1.300235	0.274203	1.246731
H119	H	0.819483	-0.281219	0.766529
H120	H	1.319483	0.218781	1.266529
H121	H	0.814620	-0.190505	0.794595
H122	H	1.314620	0.309495	1.294595
N123	N	0.987652	-0.518170	1.133515
N124	N	1.487652	-0.018170	1.633515
H125	H	1.003971	-0.571169	1.119945
H126	H	1.503971	-0.071169	1.619945
H127	H	0.927851	-0.510673	1.106735
H128	H	1.427851	-0.010673	1.606735
N129	N	1.297878	-0.193198	1.034969
N130	N	1.797878	0.306802	1.534969
H131	H	1.317753	-0.242466	1.015700
H132	H	1.817753	0.257534	1.515700
H133	H	1.345678	-0.143081	1.020645
H134	H	1.845678	0.356919	1.520645
N135	N	1.019964	-0.484312	1.280436
N136	N	1.519964	0.015688	1.780436
H137	H	1.017247	-0.487157	1.346797
H138	H	1.517247	0.012843	1.846797
H139	H	1.036332	-0.537264	1.266791
H140	H	1.536332	-0.037264	1.766791
H141	H	0.564016	-0.418327	0.485373
H142	H	1.064016	0.081673	0.985373
N143	N	0.891524	-0.430278	0.469049
N144	N	1.391524	0.069722	0.969049
H145	H	0.954950	-0.415710	0.488806
H146	H	1.454950	0.084290	0.988806
H147	H	0.886339	-0.408361	0.403750
H148	H	1.386339	0.091639	0.903750
H149	H	0.509530	-0.185734	0.801224
H150	H	1.009530	0.314266	1.301224
N151	N	0.701380	-0.454565	0.436094
N152	N	1.201380	0.045435	0.936094
H153	H	0.635018	-0.456586	0.433367
H154	H	1.135018	0.043414	0.933367
H155	H	0.715012	-0.512579	0.452375
H156	H	1.215012	-0.012579	0.952375
N157	N	1.020538	-0.483750	0.943386
N158	N	1.520538	0.016250	1.443386
H159	H	1.040265	-0.463087	0.879980
H160	H	1.540265	0.036913	1.379980
H161	H	0.955220	-0.482078	0.948525
H162	H	1.455220	0.017922	1.448525
H163	H	0.675498	-0.164517	0.829993
H164	H	1.175498	0.335483	1.329993
H165	H	1.236637	-0.257375	0.993381
H166	H	1.736637	0.242625	1.493381
H167	H	1.381052	-0.106092	1.159797
H168	H	1.881052	0.393908	1.659797
N169	N	1.365065	-0.122823	1.340393
N170	N	1.865065	0.377177	1.840393
H171	H	1.345336	-0.143488	1.403798
H172	H	1.845336	0.356512	1.903798
H173	H	1.354231	-0.064077	1.322067
H174	H	1.854231	0.435923	1.822067
H175	H	0.463462	-0.353956	0.572810
H176	H	0.963462	0.146044	1.072810
H177	H	1.124206	-0.375108	1.371565
H178	H	1.624206	0.124892	1.871565
