data_functionalizedCrystal
_audit_creation_method	'MofGen! by Chris Wilmer'
_symmetry_space_group_name_H-M	'P1'
_symmetry_Int_Tables_number	1
_symmetry_cell_setting	triclinic
loop_
_symmetry_equiv_pos_as_xyz
  x,y,z
_cell_length_a	18.760492
_cell_length_b	14.446369
_cell_length_c	14.446369
_cell_angle_alpha	89.999182
_cell_angle_beta	120.005178
_cell_angle_gamma	59.997333
loop_
_atom_site_label
_atom_site_type_symbol
_atom_site_fract_x
_atom_site_fract_y
_atom_site_fract_z
Zr1	Zr	0.780227	0.891726	0.121489
O2	O	0.928960	0.743900	0.269316
O3	O	0.631508	0.937048	0.076167
O4	O	0.780239	0.937028	0.269302
O5	O	0.780214	0.743930	-0.076161
O6	O	0.780232	1.089365	0.269296
O7	O	0.780229	0.743920	0.076181
O8	O	0.514180	1.089401	-0.076186
O9	O	1.046267	0.743895	0.269322
O10	O	0.692668	1.070059	0.056840
O11	O	0.692662	0.956379	-0.056848
O12	O	0.867774	0.956355	0.170544
O13	O	0.867768	0.842675	0.056856
Zr14	Zr	0.780193	1.134703	-0.121488
Zr15	Zr	0.780216	1.134687	0.121480
Zr16	Zr	0.780204	0.891743	-0.121479
Zr17	Zr	0.967318	0.891718	0.121498
Zr18	Zr	0.593102	1.134711	-0.121497
O19	O	0.928912	1.089381	-0.076167
O20	O	0.928945	1.089358	0.269303
O21	O	0.928927	0.743923	-0.076154
O22	O	0.631460	1.282529	-0.269315
O23	O	0.631493	1.282506	0.076154
O24	O	0.631475	0.937071	-0.269303
O25	O	0.780206	1.282499	0.076162
O26	O	0.780181	1.089401	-0.269301
O27	O	0.780188	0.937064	-0.269296
O28	O	0.780191	1.282509	-0.076181
O29	O	1.046258	0.937016	0.269315
O30	O	0.514162	1.089413	-0.269314
O31	O	0.514153	1.282534	-0.269321
O32	O	0.514172	1.282521	-0.076194
O33	O	1.046248	0.743908	0.076194
O34	O	1.046240	0.937029	0.076187
O35	O	0.692646	1.070074	-0.170543
O36	O	0.692652	1.183754	-0.056856
O37	O	0.867758	1.070050	0.056848
O38	O	0.867752	0.956371	-0.056839
C39	C	0.546187	1.013225	-0.000011
C40	C	0.466762	1.013229	-0.000015
C41	C	0.780223	0.709308	0.000011
C42	C	0.780227	0.606166	0.000015
C43	C	0.130964	0.953860	-0.059333
C44	C	0.130975	1.072544	0.059358
C45	C	0.205591	1.072552	0.059352
C46	C	0.242898	1.013213	0.000003
C47	C	0.205589	0.953864	-0.059339
C48	C	0.242912	1.131890	0.118702
C49	C	0.317533	1.131900	0.118699
C50	C	0.354836	1.072566	0.059343
C51	C	0.317522	1.013217	-0.000003
C52	C	0.354829	0.953877	-0.059351
C53	C	0.317511	0.894533	-0.118704
C54	C	0.242892	0.894530	-0.118695
C55	C	0.429455	1.072569	0.059334
C56	C	0.429454	0.953881	-0.059357
C57	C	0.890655	0.387787	0.071367
C58	C	0.890729	0.495019	0.071768
C59	C	0.725380	0.602841	0.052316
C60	C	0.726081	0.495072	0.052839
C61	C	0.723790	0.496448	-0.123728
C62	C	0.725871	0.602417	-0.123533
C63	C	1.014233	1.013204	0.000012
C64	C	1.093658	1.013200	0.000015
C65	C	0.780239	1.013194	0.303917
C66	C	0.780249	1.013187	0.407063
C67	C	0.780197	1.317121	-0.000011
C68	C	0.780193	1.420264	-0.000015
C69	C	0.890684	0.941121	0.625448
C70	C	0.890753	0.941431	0.518212
C71	C	0.725391	1.136723	0.410380
C72	C	0.726098	1.136331	0.518153
C73	C	0.723831	0.962724	0.516795
C74	C	0.725907	0.960221	0.410822
C75	C	0.780194	1.013223	0.696092
C76	C	0.780224	1.013193	0.592972
C77	C	0.546175	1.317132	-0.000022
C78	C	0.466745	1.420278	-0.000030
C79	C	0.546158	1.013246	-0.303928
C80	C	0.466724	1.013256	-0.407078
C81	C	0.546146	1.317152	-0.303939
C82	C	0.466706	1.420305	-0.407093
C83	C	1.014274	0.709277	0.303939
C84	C	1.093714	0.606124	0.407093
C85	C	1.014245	0.709298	0.000023
C86	C	1.093675	0.606151	0.000030
C87	C	1.014261	1.013183	0.303928
C88	C	1.093696	1.013173	0.407078
C89	C	0.429452	1.409369	0.059325
C90	C	0.354830	1.506277	0.059340
C91	C	0.317497	1.614093	-0.000006
C92	C	0.354797	1.625000	-0.059362
C93	C	0.429423	1.528093	-0.059371
C94	C	0.429412	1.072609	-0.514876
C95	C	0.354785	1.072615	-0.611806
C96	C	0.317466	1.013274	-0.600935
C97	C	0.354785	0.953914	-0.493125
C98	C	0.429415	0.953902	-0.396198
C99	C	0.429404	1.528097	-0.396192
C100	C	0.354773	1.625030	-0.493106
C101	C	0.317440	1.614169	-0.600922
C102	C	0.354750	1.506366	-0.611821
C103	C	0.429385	1.409435	-0.514907
C104	C	1.131025	0.498332	0.396192
C105	C	1.205680	0.401399	0.493107
C106	C	1.243016	0.412260	0.600922
C107	C	1.205702	0.520064	0.611821
C108	C	1.131054	0.616994	0.514907
C109	C	1.130975	0.617060	-0.059314
C110	C	1.205618	0.520152	-0.059303
C111	C	1.242954	0.412336	0.000047
C112	C	1.205650	0.401430	0.059399
C113	C	1.131014	0.498336	0.059393
C114	C	1.130992	1.072525	0.396171
C115	C	1.205620	1.072538	0.493082
C116	C	1.242955	1.013190	0.600900
C117	C	1.205653	0.953836	0.611805
C118	C	1.131021	0.953831	0.514895
H119	H	0.459822	0.905560	-0.107688
H120	H	0.256696	1.013292	-0.679869
Br121	Br	0.782675	0.413070	-0.196559
H122	H	1.236060	0.313633	0.107719
H123	H	0.459789	1.536962	-0.308412
Br124	Br	0.792506	0.601583	-0.188671
Br125	Br	0.304126	0.873385	-0.478391
H126	H	0.763485	1.177415	0.408239
H127	H	0.459747	1.321670	-0.523799
H128	H	1.100582	0.704840	-0.107651
H129	H	0.256731	1.692991	0.000009
H130	H	0.324343	1.497539	-0.699617
Br131	Br	1.080339	1.153078	0.249859
Br132	Br	0.480038	1.153159	-0.529662
Br133	Br	1.080396	0.483511	0.139934
Br134	Br	0.304152	1.771319	-0.478288
H135	H	0.934062	0.976439	0.520666
H136	H	0.642418	0.523894	-0.177164
Br137	Br	0.589958	0.733300	-0.030165
Br138	Br	1.080421	0.763280	0.529723
Br139	Br	0.782747	0.813399	0.600179
H140	H	0.324408	1.120956	-0.699580
H141	H	0.100603	1.120850	0.107685
H142	H	0.459785	0.905574	-0.308427
H143	H	1.100663	0.905494	0.523792
Br144	Br	0.216148	1.745730	-0.732438
Br145	Br	0.962397	0.789818	0.520850
H146	H	0.324390	1.712796	-0.107680
Br147	Br	0.792568	0.808529	0.411691
H148	H	0.347901	0.846212	-0.167020
H149	H	0.934038	0.492564	0.163027
H150	H	1.235978	0.529055	-0.107638
H151	H	0.459777	1.536991	-0.107711
H152	H	0.324470	1.497375	0.107675
H153	H	0.765071	0.444720	0.143875
H154	H	1.235984	1.120869	0.484181
Br155	Br	1.344247	0.280830	0.000042
H156	H	0.645037	0.521733	0.004209
H157	H	0.763487	0.604968	0.142488
Br158	Br	0.591485	0.734345	-0.219631
H159	H	1.100630	0.489467	0.308412
Br160	Br	0.962955	0.789101	0.715390
Br161	Br	0.368173	1.212436	0.199247
Br162	Br	1.256303	0.255110	0.478289
Br163	Br	1.344244	1.013207	0.732411
H164	H	0.212501	0.846216	-0.167017
Br165	Br	0.791073	1.203672	0.602073
Br166	Br	1.344326	0.280699	0.732439
Br167	Br	1.256381	0.534785	0.758151
Br168	Br	0.591026	1.230702	0.473725
H169	H	0.933823	0.975802	0.680430
H170	H	0.100574	0.905548	-0.107661
Br171	Br	0.192291	1.212403	0.199256
H172	H	0.459841	1.120880	0.107664
Br173	Br	0.962450	0.492333	0.013298
H174	H	1.236063	0.905516	0.699603
H175	H	0.934001	0.333831	0.036463
H176	H	0.933803	0.332794	0.162076
H177	H	0.644141	1.192753	0.332103
Br178	Br	0.591533	1.038620	0.278871
H179	H	0.642458	1.014969	0.489340
H180	H	0.459848	1.321589	0.107665
