data_functionalizedCrystal
_audit_creation_method	'MofGen! by Chris Wilmer'
_symmetry_space_group_name_H-M	'P1'
_symmetry_Int_Tables_number	1
_symmetry_cell_setting	triclinic
loop_
_symmetry_equiv_pos_as_xyz
  x,y,z
_cell_length_a	16.109301
_cell_length_b	8.965430
_cell_length_c	16.109301
_cell_angle_alpha	90.001002
_cell_angle_beta	83.461481
_cell_angle_gamma	90.001088
loop_
_atom_site_label
_atom_site_type_symbol
_atom_site_fract_x
_atom_site_fract_y
_atom_site_fract_z
O1	O	1.103132	0.123950	0.106861
O2	O	1.603132	0.623950	0.606861
O3	O	0.861070	0.123974	0.120160
O4	O	1.361070	0.623974	0.620160
O5	O	0.988750	0.123946	-0.007520
O6	O	1.488750	0.623946	0.492480
O7	O	0.975451	0.123978	0.234542
O8	O	1.475451	0.623978	0.734542
O9	O	0.988740	-0.124133	-0.007512
O10	O	1.488740	0.375867	0.492488
O11	O	0.861059	-0.124105	0.120169
O12	O	1.361059	0.375895	0.620169
O13	O	1.103121	-0.124129	0.106869
O14	O	1.603121	0.375871	0.606869
Cu15	Cu	0.982089	-0.146768	0.113520
Cu16	Cu	1.482089	0.353232	0.613520
Cu17	Cu	0.982102	0.146614	0.113510
Cu18	Cu	1.482102	0.646614	0.613510
O19	O	0.975440	-0.124101	0.234550
O20	O	1.475440	0.375899	0.734550
C21	C	0.830090	-0.000062	0.119626
C22	C	1.330090	0.499938	0.619626
C23	C	0.737794	-0.000054	0.118011
C24	C	1.237794	0.499946	0.618011
N25	N	0.982086	-0.353118	0.113526
N26	N	1.482086	0.146882	0.613526
C27	C	0.515522	-0.000061	0.190018
C28	C	1.015522	0.499939	0.690018
C29	C	0.428801	-0.000071	0.188494
C30	C	0.928801	0.499929	0.688494
C31	C	0.448676	-0.000085	0.037006
C32	C	0.948676	0.499915	0.537006
C33	C	0.535394	-0.000086	0.038530
C34	C	1.035394	0.499914	0.538530
C35	C	0.568815	-0.000067	0.115039
C36	C	1.068815	0.499933	0.615039
C37	C	0.395376	-0.000075	0.111990
C38	C	0.895376	0.499925	0.611990
C39	C	0.301350	-0.000086	0.110337
C40	C	0.801350	0.499914	0.610337
C41	C	0.662847	-0.000059	0.116693
C42	C	1.162847	0.499941	0.616693
C43	C	0.923020	-0.450411	0.172555
C44	C	1.423020	0.049589	0.672555
C45	C	0.998145	-0.549829	0.188668
C46	C	1.498145	-0.049829	0.688668
C47	C	0.906992	-0.549826	0.097421
C48	C	1.406992	-0.049826	0.597421
C49	C	1.057249	-0.450348	0.129676
C50	C	1.557249	0.049652	0.629676
C51	C	0.966047	-0.450336	0.038397
C52	C	1.466047	0.049664	0.538397
C53	C	1.041227	-0.549710	0.054477
C54	C	1.541227	-0.049710	0.554477
C55	C	1.134101	-0.000089	0.107404
C56	C	1.634101	0.499911	0.607404
C57	C	1.226397	-0.000088	0.109019
C58	C	1.726397	0.499912	0.609019
C59	C	0.988206	-0.000094	-0.038491
C60	C	1.488206	0.499906	0.461509
C61	C	0.986591	-0.000096	-0.130786
C62	C	1.486591	0.499904	0.369214
N63	N	0.982111	0.352963	0.113497
N64	N	1.482111	0.852963	0.613497
C65	C	1.058599	-0.000080	-0.353059
C66	C	1.558599	0.499920	0.146941
C67	C	1.057075	-0.000067	-0.439779
C68	C	1.557075	0.499933	0.060221
C69	C	0.905586	-0.000058	-0.419905
C70	C	1.405586	0.499942	0.080095
C71	C	0.907111	-0.000060	-0.333186
C72	C	1.407111	0.499940	0.166814
C73	C	0.983620	-0.000078	-0.299766
C74	C	1.483620	0.499922	0.200234
C75	C	0.980571	-0.000064	-0.473205
C76	C	1.480571	0.499936	0.026795
C77	C	0.978918	-0.000050	-0.567231
C78	C	1.478918	0.499950	-0.067231
C79	C	0.985273	-0.000089	-0.205734
C80	C	1.485273	0.499911	0.294266
C81	C	0.975984	-0.000058	0.265521
C82	C	1.475984	0.499942	0.765521
C83	C	0.977600	-0.000046	0.357816
C84	C	1.477600	0.499954	0.857816
H85	H	0.542730	-0.000057	0.252317
H86	H	1.042730	0.499943	0.752317
C87	C	0.855606	-0.391491	0.240053
C88	C	1.355606	0.108509	0.740053
N89	N	0.804835	-0.347107	0.290894
N90	N	1.304835	0.152893	0.790894
H91	H	0.421454	-0.000110	-0.025285
H92	H	0.921454	0.499890	0.474715
H93	H	0.578788	-0.000094	-0.022530
H94	H	1.078788	0.499906	0.477470
H95	H	0.843295	-0.000046	-0.447127
H96	H	1.343295	0.499954	0.052873
H97	H	1.011729	-0.593531	0.252190
H98	H	1.511729	-0.093531	0.752190
C99	C	0.824624	-0.000051	-0.274560
C100	C	1.324624	0.499949	0.225440
N101	N	0.762497	-0.000038	-0.230402
N102	N	1.262497	0.499962	0.269598
H103	H	1.120779	-0.406834	0.143362
H104	H	1.620779	0.093166	0.643362
C105	C	0.370182	-0.000073	0.270977
C106	C	0.870182	0.499927	0.770977
N107	N	0.326030	-0.000078	0.333108
N108	N	0.826030	0.499922	0.833108
H109	H	1.091242	-0.593036	0.004543
H110	H	1.591242	-0.093036	0.504543
H111	H	0.952440	-0.406599	-0.025105
H112	H	1.452440	0.093401	0.474895
C113	C	0.821185	-0.608852	0.079031
C114	C	1.321185	-0.108852	0.579031
N115	N	0.756552	-0.653304	0.065185
N116	N	1.256552	-0.153304	0.565185
C117	C	1.142761	-0.000083	-0.316300
C118	C	1.642761	0.499917	0.183700
N119	N	1.206154	-0.000080	-0.288615
N120	N	1.706154	0.499920	0.211385
C121	C	1.139558	-0.000082	-0.498398
C122	C	1.639558	0.499918	0.001602
N123	N	1.201688	-0.000096	-0.542550
N124	N	1.701688	0.499904	-0.042550
