data_functionalizedCrystal
_audit_creation_method	'MofGen! by Chris Wilmer'
_symmetry_space_group_name_H-M	'P1'
_symmetry_Int_Tables_number	1
_symmetry_cell_setting	triclinic
loop_
_symmetry_equiv_pos_as_xyz
  x,y,z
_cell_length_a	14.971486
_cell_length_b	23.532407
_cell_length_c	14.048226
_cell_angle_alpha	89.986955
_cell_angle_beta	90.003623
_cell_angle_gamma	83.231399
loop_
_atom_site_label
_atom_site_type_symbol
_atom_site_fract_x
_atom_site_fract_y
_atom_site_fract_z
O1	O	-1.186156	-0.074217	0.079064
O2	O	-0.925662	-0.083105	0.079092
O3	O	-1.063764	0.004237	0.079056
O4	O	-1.048054	-0.161559	0.079099
O5	O	-1.063761	0.004244	-0.079265
O6	O	-0.925659	-0.083098	-0.079230
O7	O	-1.186153	-0.074210	-0.079257
Zn8	Zn	-1.055906	-0.078653	-0.104380
Zn9	Zn	-1.055910	-0.078662	0.104215
O10	O	-1.048051	-0.161552	-0.079222
C11	C	-0.892340	-0.082704	-0.000066
C12	C	-0.793056	-0.081513	-0.000056
C13	C	-1.063363	0.025458	-0.000108
C14	C	-1.062160	0.088680	-0.000117
C15	C	-1.219475	-0.074611	-0.000098
C16	C	-1.318760	-0.075802	-0.000101
C17	C	-0.735288	-0.132824	-0.000044
C18	C	-0.642001	-0.131701	-0.000059
C19	C	-0.606482	-0.079267	-0.000078
C20	C	-0.664257	-0.027952	-0.000093
C21	C	-0.757543	-0.029075	-0.000086
C22	C	-0.469819	-0.025615	-0.000107
C23	C	-0.376527	-0.024491	-0.000113
C24	C	-0.354277	-0.128241	-0.000080
C25	C	-0.447563	-0.129364	-0.000073
C26	C	-0.505331	-0.078049	-0.000086
N27	N	-1.055913	-0.078665	0.246575
C28	C	-1.136342	0.487466	-0.000088
C29	C	-1.135224	0.546871	-0.000083
O30	O	-1.203992	0.583321	-0.000057
N31	N	-1.053123	0.569849	-0.000076
C32	C	-0.972133	0.533418	-0.000065
O33	O	-0.902197	0.558417	-0.000057
C34	C	-0.973251	0.474014	-0.000063
C35	C	-1.055358	0.451040	-0.000080
C36	C	-1.218442	0.464491	-0.000104
C37	C	-1.219559	0.405090	-0.000111
C38	C	-1.138576	0.368664	-0.000102
C39	C	-1.056475	0.391639	-0.000086
C40	C	-0.892263	0.437584	-0.000045
C41	C	-0.893388	0.378177	-0.000042
C42	C	-0.975495	0.355203	-0.000059
C43	C	-0.976609	0.295812	-0.000084
N44	N	-1.058711	0.272834	-0.000091
C45	C	-1.139694	0.309260	-0.000100
C46	C	-0.969791	0.658170	-0.000067
C47	C	-0.968672	0.717573	-0.000076
C48	C	-1.131763	0.731022	-0.000092
C49	C	-1.132882	0.671618	-0.000091
C50	C	-1.051893	0.635193	-0.000074
C51	C	-1.142034	0.184513	-0.000115
C52	C	-1.143143	0.125106	-0.000126
C53	C	-0.980052	0.111663	-0.000104
C54	C	-0.978942	0.171064	-0.000098
C55	C	-1.059940	0.207489	-0.000101
O56	O	-0.907878	0.259327	-0.000107
O57	O	-1.209619	0.284253	-0.000095
C58	C	-1.048453	0.817227	-0.000066
C59	C	-1.049655	0.754004	-0.000079
N60	N	-1.055910	-0.078646	-0.246741
C61	C	-1.117177	-0.040066	0.296378
C62	C	-1.117181	-0.040064	0.396036
C63	C	-1.055915	-0.078659	0.445889
C64	C	-0.994648	-0.117262	0.396080
C65	C	-0.994649	-0.117266	0.296424
C66	C	-0.994648	-0.117249	0.603794
C67	C	-0.994646	-0.117245	0.703457
C68	C	-1.117180	-0.040048	0.703406
C69	C	-1.117181	-0.040052	0.603750
C70	C	-1.055912	-0.078654	0.553947
H71	H	-0.594969	-0.173484	-0.000048
N72	N	-0.928571	-0.158875	0.757226
H73	H	-0.962447	-0.184165	0.798588
H74	H	-0.889252	-0.136975	0.798506
N75	N	-0.806034	0.338890	-0.000019
H76	H	-0.753856	0.362462	-0.000009
H77	H	-0.802937	0.313959	-0.058712
N78	N	-0.928571	-0.158894	0.242699
H79	H	-0.938386	-0.199345	0.260062
H80	H	-0.865214	-0.152140	0.260060
H81	H	-0.764199	-0.175522	-0.000028
H82	H	-0.901812	0.736273	-0.000078
N83	N	-0.819854	0.026267	-0.000106
H84	H	-0.783200	0.059654	-0.000119
H85	H	-0.859039	0.028060	0.058586
N86	N	-0.292005	-0.183601	-0.000137
H87	H	-0.303355	-0.206495	0.058543
H88	H	-0.227535	-0.174911	-0.000207
N89	N	-0.338229	0.032066	-0.000154
H90	H	-0.300029	0.034838	-0.058850
H91	H	-0.300058	0.034818	0.058568
H92	H	-0.516853	0.016172	-0.000119
H93	H	-0.944760	-0.148685	0.563248
H94	H	-1.210008	0.106405	-0.000142
N95	N	-1.305795	0.503775	-0.000127
H96	H	-1.308984	0.528718	0.058559
H97	H	-1.357916	0.480159	-0.000174
H98	H	-1.167063	-0.008635	0.255794
H99	H	-0.944767	-0.148689	0.436676
H100	H	-0.914118	0.081994	-0.000100
N101	N	-0.485876	-0.185916	-0.000033
H102	H	-0.435126	-0.218254	-0.000025
H103	H	-0.524108	-0.188642	-0.058718
N104	N	-0.625942	0.028599	-0.000113
H105	H	-0.647034	0.051081	0.058570
H106	H	-0.647054	0.051039	-0.058848
H107	H	-1.207990	0.214164	-0.000113
N108	N	-1.308118	0.380315	-0.000125
H109	H	-1.359243	0.412411	-0.000128
H110	H	-1.312139	0.355954	0.058566
N111	N	-1.221438	0.646841	-0.000109
H112	H	-1.272566	0.678936	-0.000118
H113	H	-1.225462	0.622481	0.058584
H114	H	-1.197704	0.760691	-0.000096
H115	H	-0.903835	0.628515	-0.000062
N116	N	-0.803704	0.462354	-0.000039
H117	H	-0.752579	0.430257	-0.000031
H118	H	-0.799680	0.486700	0.058652
H119	H	-1.167067	-0.008634	0.436584
N120	N	-0.890387	0.195848	-0.000094
H121	H	-0.839255	0.163756	-0.000092
H122	H	-0.886373	0.220189	0.058605
H123	H	-1.167063	-0.008623	0.563159
H124	H	-1.167067	-0.008617	0.743961
