data_functionalizedCrystal
_audit_creation_method	'MofGen! by Chris Wilmer'
_symmetry_space_group_name_H-M	'P1'
_symmetry_Int_Tables_number	1
_symmetry_cell_setting	triclinic
loop_
_symmetry_equiv_pos_as_xyz
  x,y,z
_cell_length_a	23.532407
_cell_length_b	23.532407
_cell_length_c	9.616153
_cell_angle_alpha	89.993077
_cell_angle_beta	89.998491
_cell_angle_gamma	82.848678
loop_
_atom_site_label
_atom_site_type_symbol
_atom_site_fract_x
_atom_site_fract_y
_atom_site_fract_z
O1	O	0.755262	0.069132	-0.115486
O2	O	0.589398	0.079136	-0.115529
O3	O	0.677332	-0.008798	-0.115481
O4	O	0.667328	0.157066	-0.115534
O5	O	0.677320	-0.008796	0.115811
O6	O	0.589386	0.079138	0.115763
O7	O	0.755250	0.069134	0.115805
Zn8	Zn	0.672316	0.074136	0.152506
Zn9	Zn	0.672332	0.074134	-0.152230
O10	O	0.667316	0.157068	0.115757
C11	C	0.568176	0.078882	0.000112
C12	C	0.504959	0.078116	0.000096
C13	C	0.105856	0.125350	0.000144
C14	C	0.046456	0.124638	0.000153
O15	O	0.009711	0.168424	0.000189
N16	N	0.023830	0.072362	0.000168
C17	C	0.060607	0.020794	0.000187
O18	O	0.035908	-0.023737	0.000202
C19	C	0.120006	0.021506	0.000189
C20	C	0.142629	0.073785	0.000160
C21	C	0.128479	0.177625	0.000117
C22	C	0.187876	0.178336	0.000106
C23	C	0.224649	0.126772	0.000122
C24	C	0.202025	0.074497	0.000149
C25	C	0.156783	-0.030062	0.000219
C26	C	0.216185	-0.029345	0.000221
C27	C	0.238808	0.022934	0.000192
C28	C	0.298194	0.023643	0.000153
N29	N	0.320820	0.075920	0.000139
C30	C	0.284048	0.127484	0.000123
C31	C	-0.064135	0.019302	0.000187
C32	C	-0.123533	0.018589	0.000176
C33	C	-0.137680	0.122434	0.000144
C34	C	-0.078281	0.123146	0.000146
C35	C	-0.041509	0.071578	0.000173
C36	C	0.408784	0.128974	0.000098
C37	C	0.468186	0.129680	0.000081
C38	C	0.482329	0.025836	0.000120
C39	C	0.422932	0.025129	0.000130
C40	C	0.386160	0.076702	0.000123
O41	O	0.334974	-0.020119	0.000122
O42	O	0.308755	0.172007	0.000127
C43	C	0.677071	-0.030013	0.000169
C44	C	0.676305	-0.093230	0.000179
C45	C	0.723539	-0.492333	0.000115
C46	C	0.722827	-0.551733	0.000104
O47	O	0.766613	-0.588478	0.000064
N48	N	0.670551	-0.574359	0.000092
C49	C	0.618983	-0.537582	0.000076
O50	O	0.574452	-0.562281	0.000063
C51	C	0.619695	-0.478182	0.000077
C52	C	0.671974	-0.455560	0.000103
C53	C	0.775814	-0.469710	0.000140
C54	C	0.776525	-0.410313	0.000153
C55	C	0.724961	-0.373540	0.000142
C56	C	0.672685	-0.396164	0.000117
C57	C	0.568127	-0.441406	0.000051
C58	C	0.568844	-0.382004	0.000051
C59	C	0.621123	-0.359381	0.000077
C60	C	0.621832	-0.299995	0.000118
N61	N	0.674109	-0.277368	0.000131
C62	C	0.725673	-0.314141	0.000142
C63	C	0.617491	-0.662324	0.000072
C64	C	0.616778	-0.721722	0.000081
C65	C	0.720623	-0.735869	0.000107
C66	C	0.721335	-0.676470	0.000107
C67	C	0.669767	-0.639698	0.000084
C68	C	0.727163	-0.189405	0.000172
C69	C	0.727869	-0.130003	0.000191
C70	C	0.624025	-0.115860	0.000158
C71	C	0.623318	-0.175257	0.000146
C72	C	0.674891	-0.212029	0.000148
O73	O	0.578070	-0.263215	0.000153
O74	O	0.770196	-0.289433	0.000137
C75	C	0.776472	0.069388	0.000162
C76	C	0.839689	0.070154	0.000168
C77	C	0.667577	0.178283	0.000105
C78	C	0.668343	0.241500	0.000085
N79	N	0.672310	0.074138	0.360481
N80	N	0.672343	0.074128	-0.360204
C81	C	0.625132	0.121023	0.580825
C82	C	0.625232	0.121194	0.419658
C83	C	0.731662	0.086782	0.418941
C84	C	0.731404	0.087113	0.580159
C85	C	0.660730	0.014449	0.580408
C86	C	0.659357	0.014857	0.419181
H87	H	-0.034198	-0.022693	0.000197
N88	N	0.569873	0.111822	0.370041
N89	N	0.560475	0.110351	0.242237
H90	H	0.521375	0.103735	0.207198
H91	H	0.762610	-0.765821	0.000111
H92	H	0.819097	-0.391900	0.000169
N93	N	0.571357	-0.078290	0.000104
N94	N	0.536526	-0.080177	-0.097422
H95	H	0.499329	-0.053641	-0.097475
N96	N	-0.055176	0.176548	0.000159
N97	N	-0.023617	0.188534	0.097661
H98	H	-0.007301	0.226252	0.097677
N99	N	0.828485	-0.507276	0.000148
N100	N	0.839688	-0.541998	-0.097335
H101	H	0.876889	-0.568528	-0.097320
N102	N	-0.175248	0.175109	0.000175
N103	N	-0.173351	0.209948	0.097671
H104	H	-0.199883	0.247148	0.097697
H105	H	0.580863	0.113666	0.619628
N106	N	0.133694	-0.083470	0.000241
N107	N	0.166544	-0.129501	0.000264
H108	H	0.150240	-0.167224	0.000281
H109	H	0.763906	-0.658056	0.000128
N110	N	0.519899	-0.026832	0.000175
N111	N	0.518006	-0.061668	0.097701
H112	H	0.544542	-0.098866	0.097753
N113	N	-0.146628	-0.034818	0.000174
N114	N	-0.113782	-0.080851	0.000181
H115	H	-0.130090	-0.118572	0.000185
H116	H	0.246123	-0.071339	0.000244
H117	H	0.404512	-0.017441	0.000133
H118	H	0.691532	-0.021648	0.378905
H119	H	0.741689	0.130626	0.617736
H120	H	0.574207	-0.740136	0.000083
H121	H	0.767614	0.054285	0.619166
N122	N	0.781274	-0.106895	0.000243
N123	N	0.815953	-0.118276	0.097751
H124	H	0.853669	-0.101958	0.097789
N125	N	0.564807	-0.624772	0.000053
N126	N	0.518139	-0.644987	0.000039
H127	H	0.480930	-0.618469	0.000023
N128	N	0.634263	0.176274	0.631625
N129	N	0.675390	0.181264	0.711070
H130	H	0.681841	0.220285	0.746950
N131	N	0.634455	0.176773	0.371255
N132	N	0.640844	0.215554	0.456541
H133	H	0.647349	0.254812	0.422359
N134	N	0.491293	0.183086	0.000088
N135	N	0.522858	0.195069	0.097581
H136	H	0.539175	0.232786	0.097592
N137	N	0.371237	0.181659	0.000099
N138	N	0.391454	0.228326	0.000076
H139	H	0.364937	0.265536	0.000070
N140	N	0.779848	-0.226952	0.000170
N141	N	0.826515	-0.206735	0.000193
H142	H	0.863725	-0.233252	0.000199
N143	N	0.514719	-0.464495	0.000020
N144	N	0.468688	-0.431645	-0.000005
H145	H	0.430965	-0.447949	-0.000031
H146	H	0.580748	-0.193677	0.000163
H147	H	0.526850	-0.352066	0.000030
N148	N	0.703927	-0.029321	0.628257
N149	N	0.743116	-0.016696	0.705757
H150	H	0.773625	-0.047604	0.739559
H151	H	0.767615	0.053521	0.380607
N152	N	0.744876	0.140744	0.368247
N153	N	0.710680	0.169979	0.289082
H154	H	0.720009	0.208092	0.253280
N155	N	0.607624	-0.000890	0.631433
N156	N	0.561921	0.030543	0.606677
H157	H	0.524410	0.019716	0.642706
N158	N	0.210970	0.231744	0.000075
N159	N	0.178121	0.277775	0.000062
H160	H	0.194427	0.315498	0.000042
N161	N	0.090930	0.230307	0.000110
N162	N	0.111149	0.276973	0.000091
H163	H	0.084634	0.314183	0.000078
N164	N	0.604586	0.002815	0.371250
N165	N	0.575170	0.037733	0.294141
H166	H	0.536488	0.029231	0.260281
