data_functionalizedCrystal
_audit_creation_method	'MofGen! by Chris Wilmer'
_symmetry_space_group_name_H-M	'P1'
_symmetry_Int_Tables_number	1
_symmetry_cell_setting	triclinic
loop_
_symmetry_equiv_pos_as_xyz
  x,y,z
_cell_length_a	15.538191
_cell_length_b	9.130307
_cell_length_c	15.624967
_cell_angle_alpha	71.913712
_cell_angle_beta	66.740751
_cell_angle_gamma	89.997153
loop_
_atom_site_label
_atom_site_type_symbol
_atom_site_fract_x
_atom_site_fract_y
_atom_site_fract_z
O1	O	1.249515	0.033659	-0.292691
O2	O	0.975396	-0.021614	-0.188636
O3	O	1.119773	0.077019	-0.374302
O4	O	1.105138	-0.064974	-0.107025
O5	O	1.119768	0.320618	-0.374301
O6	O	0.975391	0.221985	-0.188635
O7	O	1.249510	0.277257	-0.292691
Cu8	Cu	1.112450	0.271864	-0.240663
Cu9	Cu	1.112456	-0.016220	-0.240663
O10	O	1.105133	0.178625	-0.107025
C11	C	0.940313	0.094403	-0.177749
C12	C	0.835783	0.077178	-0.145320
C13	C	1.119106	0.216544	-0.407673
C14	C	1.117114	0.269360	-0.507106
N15	N	1.112453	0.474488	-0.240666
C16	C	0.547559	0.248310	-0.467489
C17	C	0.449335	0.232109	-0.436995
C18	C	0.427122	0.140986	-0.265472
C19	C	0.525347	0.157187	-0.295952
C20	C	0.585558	0.210848	-0.396961
C21	C	0.563346	0.119724	-0.225424
C22	C	0.661562	0.135917	-0.255902
C23	C	0.721780	0.189571	-0.356907
C24	C	0.683775	0.227040	-0.427439
C25	C	0.503133	0.066053	-0.124414
C26	C	0.541132	0.028591	-0.053887
C27	C	0.639350	0.044793	-0.084364
C28	C	0.699567	0.098448	-0.185370
C29	C	0.677355	0.007324	-0.013832
C30	C	0.775571	0.023516	-0.044310
C31	C	0.797784	0.114640	-0.215848
C32	C	1.284594	0.161238	-0.303578
C33	C	1.389124	0.178453	-0.336006
N34	N	1.112460	-0.218839	-0.240670
C35	C	1.240351	0.561808	-0.405055
C36	C	1.304307	0.682134	-0.487248
C37	C	1.304316	0.835469	-0.487252
C38	C	1.240361	0.868478	-0.405054
C39	C	1.176406	0.748152	-0.322860
C40	C	1.176406	0.594817	-0.322864
C41	C	1.048505	0.660835	-0.158476
C42	C	1.048499	0.507497	-0.158468
C43	C	0.984551	0.693843	-0.076278
C44	C	0.920598	0.573514	0.005920
C45	C	0.920592	0.420171	0.005921
C46	C	0.984544	0.387170	-0.076274
C47	C	1.114305	0.476581	-0.647260
C48	C	1.116177	0.426937	-0.553827
C49	C	1.116186	0.161366	-0.553811
C50	C	1.114319	0.210989	-0.647248
C51	C	1.113378	0.368598	-0.693964
C52	C	1.113392	0.103007	-0.693952
C53	C	1.111521	0.152625	-0.787379
C54	C	1.110577	0.310226	-0.834101
C55	C	1.111507	0.418217	-0.787391
C56	C	1.114327	-0.054603	-0.647231
C57	C	1.113400	-0.162586	-0.693935
C58	C	1.111535	-0.112966	-0.787367
C59	C	1.110591	0.044635	-0.834089
C60	C	1.110605	-0.220956	-0.834077
C61	C	1.108733	-0.171338	-0.927503
C62	C	1.108719	0.094253	-0.927515
C63	C	1.105800	0.039096	-0.073653
C64	C	1.107792	-0.013729	0.025780
H65	H	0.846812	0.158345	-0.298100
H66	H	1.113544	0.604923	-0.685302
C67	C	1.374657	0.645826	-0.577663
C68	C	1.374680	0.477162	-0.577658
C69	C	1.445029	0.440862	-0.668075
C70	C	1.515355	0.573227	-0.758496
C71	C	1.515335	0.741903	-0.758504
C72	C	1.444986	0.778202	-0.668088
H73	H	1.322618	0.379167	-0.510720
H74	H	1.445043	0.315997	-0.668068
H75	H	1.567432	0.546356	-0.825427
H76	H	1.567397	0.839897	-0.825442
H77	H	1.444972	0.903067	-0.668095
C78	C	1.107715	-0.290109	-0.978890
C79	C	1.189677	-0.386835	-1.003023
C80	C	1.188654	-0.505607	-1.054409
C81	C	1.105669	-0.527654	-1.081662
C82	C	1.023701	-0.430926	-1.057529
C83	C	1.024724	-0.312153	-1.006143
H84	H	1.251113	-0.370517	-0.982849
H85	H	1.249332	-0.577212	-1.072274
H86	H	1.104911	-0.615576	-1.119701
H87	H	0.962265	-0.447244	-1.077703
H88	H	0.964046	-0.240549	-0.988278
H89	H	1.356390	0.933444	-0.554184
C90	C	0.850254	0.609825	0.096329
C91	C	0.850407	0.778437	0.096421
C92	C	0.780062	0.814752	0.186833
C93	C	0.709564	0.682454	0.277153
C94	C	0.709409	0.513831	0.277064
C95	C	0.779753	0.477516	0.186653
H96	H	0.902596	0.876382	0.029558
H97	H	0.780178	0.939579	0.186898
H98	H	0.657491	0.709337	0.344081
H99	H	0.657219	0.415886	0.343928
H100	H	0.779638	0.352689	0.186588
H101	H	0.984557	0.818700	-0.076287
C102	C	1.107662	0.267615	-0.978917
C103	C	1.026200	0.350675	-0.929104
C104	C	1.025128	0.524022	-0.980506
C105	C	1.105519	0.614309	-1.081721
C106	C	1.186987	0.531249	-1.131539
C107	C	1.188058	0.357903	-1.080137
H108	H	0.966685	0.283839	-0.854173
H109	H	0.964820	0.585508	-0.943626
H110	H	1.104725	0.742630	-1.119772
H111	H	1.246502	0.598085	-1.206470
H112	H	1.248366	0.296417	-1.117017
H113	H	0.628316	-0.036381	0.068410
C114	C	1.117194	0.545724	-0.502446
C115	C	1.035229	0.642445	-0.478323
C116	C	1.036241	0.761223	-0.426937
C117	C	1.119218	0.783280	-0.399674
C118	C	1.201189	0.686556	-0.423797
C119	C	1.200177	0.567778	-0.475183
H120	H	0.973799	0.626120	-0.498504
H121	H	0.975560	0.832825	-0.409080
H122	H	1.119967	0.871207	-0.361636
H123	H	1.262619	0.702881	-0.403615
H124	H	1.260858	0.496176	-0.493040
C125	C	1.117228	-0.011996	-0.502419
C126	C	1.198680	-0.095070	-0.552234
C127	C	1.199726	-0.268433	-0.500846
C128	C	1.119320	-0.358722	-0.399643
C129	C	1.037862	-0.275648	-0.349822
C130	C	1.036816	-0.102285	-0.401210
H131	H	1.258206	-0.028232	-0.627156
H132	H	1.260027	-0.329929	-0.537727
H133	H	1.120095	-0.487056	-0.361603
H134	H	0.978335	-0.342486	-0.274901
H135	H	0.976515	-0.040789	-0.364329
H136	H	1.240365	0.993337	-0.405067
C137	C	0.360884	0.081966	-0.154365
C138	C	0.290310	-0.068191	-0.109818
C139	C	0.224074	-0.127206	0.001291
C140	C	0.228410	-0.036064	0.067852
C141	C	0.298986	0.114102	0.023306
C142	C	0.365223	0.173117	-0.087802
H143	H	0.287098	-0.135668	-0.159091
H144	H	0.171829	-0.238369	0.034266
H145	H	0.179378	-0.079750	0.150101
H146	H	0.302199	0.181580	0.072580
H147	H	0.417468	0.284281	-0.120778
H148	H	0.868509	0.322206	0.072851
H149	H	0.984548	0.262321	-0.076278
H150	H	0.806510	-0.006976	0.013121
H151	H	0.801753	0.202734	-0.381720
H152	H	0.732803	0.270745	-0.509692
H153	H	1.115837	-0.095001	-0.571151
H154	H	0.596588	0.292015	-0.549741
H155	H	0.418401	0.262617	-0.494435
H156	H	0.423159	0.052867	-0.099603
H157	H	0.492094	-0.015106	0.028356
H158	H	1.109045	0.350621	-0.910171
H159	H	1.240358	0.436956	-0.405055
H160	H	1.110746	0.546558	-0.825433
H161	H	1.114163	-0.290912	-0.655885
H162	H	1.111362	-0.349284	-0.796022
