data_functionalizedCrystal
_audit_creation_method	'MofGen! by Chris Wilmer'
_symmetry_space_group_name_H-M	'P1'
_symmetry_Int_Tables_number	1
_symmetry_cell_setting	triclinic
loop_
_symmetry_equiv_pos_as_xyz
  x,y,z
_cell_length_a	8.559649
_cell_length_b	8.559649
_cell_length_c	7.088929
_cell_angle_alpha	95.344185
_cell_angle_beta	95.325015
_cell_angle_gamma	110.221336
loop_
_atom_site_label
_atom_site_type_symbol
_atom_site_fract_x
_atom_site_fract_y
_atom_site_fract_z
O1	O	2.108185	0.036318	-0.158958
O2	O	1.632699	-0.047464	-0.158965
O3	O	1.912333	0.232170	-0.158959
O4	O	1.828551	-0.243315	-0.158964
O5	O	1.949712	0.269616	0.159017
O6	O	1.670079	-0.010018	0.159011
O7	O	2.145564	0.073764	0.159018
Cu8	Cu	1.911235	0.035292	0.188048
Cu9	Cu	1.867029	-0.008992	-0.187995
O10	O	1.865931	-0.205870	0.159012
C11	C	1.591080	-0.035090	0.000022
C12	C	1.411380	-0.053990	0.000019
C13	C	1.937372	0.311201	0.000026
C14	C	1.956269	0.490899	0.000015
C15	C	2.187183	0.061390	0.000027
C16	C	2.366881	0.080288	0.000017
N17	N	1.942338	0.066441	0.452537
C18	C	1.840892	-0.284902	0.000023
C19	C	1.821992	-0.464601	0.000021
N20	N	1.835940	-0.040127	-0.452484
H21	H	1.692573	0.436021	0.000025
C22	C	2.116541	0.783082	0.000028
C23	C	2.130999	0.625057	0.000017
H24	H	2.224409	0.865900	0.000016
H25	H	2.070760	0.808320	0.110912
H26	H	2.044666	0.782203	-0.110860
H27	H	2.202864	0.625933	0.110913
H28	H	2.176803	0.599814	-0.110878
H29	H	1.725671	-0.150562	0.465867
C30	C	2.184631	0.309105	0.432820
C31	C	2.091216	0.215536	0.562755
H32	H	2.276543	0.401142	0.500868
H33	H	2.115048	0.349968	0.354765
H34	H	2.225679	0.239664	0.354728
H35	H	2.050157	0.284974	0.640838
H36	H	2.160811	0.174674	0.640843
C37	C	1.463822	0.322449	-0.163447
C38	C	1.501031	0.255007	0.000015
H39	H	1.546656	0.430310	-0.163452
H40	H	1.356626	0.332244	-0.163432
H41	H	1.462980	0.250541	-0.274318
H42	H	1.501862	0.326909	0.110887
H43	H	1.608257	0.245221	0.000017
C44	C	1.353896	-0.349135	0.000003
C45	C	1.277223	-0.228722	0.000005
H46	H	1.271070	-0.457004	-0.000018
H47	H	1.434321	-0.322991	0.110887
H48	H	1.408274	-0.349088	-0.110884
H49	H	1.222856	-0.228760	0.110901
H50	H	1.196769	-0.254873	-0.110890
