data_functionalizedCrystal
_audit_creation_method	'MofGen! by Chris Wilmer'
_symmetry_space_group_name_H-M	'P1'
_symmetry_Int_Tables_number	1
_symmetry_cell_setting	triclinic
loop_
_symmetry_equiv_pos_as_xyz
  x,y,z
_cell_length_a	6.817900
_cell_length_b	16.418049
_cell_length_c	10.943624
_cell_angle_alpha	93.819405
_cell_angle_beta	108.838799
_cell_angle_gamma	103.389670
loop_
_atom_site_label
_atom_site_type_symbol
_atom_site_fract_x
_atom_site_fract_y
_atom_site_fract_z
V1	V	-4.087790	-0.115864	-0.403006
O2	O	-4.074541	0.005590	-0.394866
O3	O	-4.038505	-0.229761	-0.400699
O4	O	-4.066181	-0.114072	-0.578565
O5	O	-4.046673	-0.110899	-0.215769
V6	V	-4.568061	-0.101338	-0.380556
O7	O	-4.356181	-0.147728	-0.452251
O8	O	-4.749866	-0.069474	-0.331311
O9	O	-4.394139	0.012559	-0.382862
O10	O	-4.698706	-0.222792	-0.388695
O11	O	-4.726574	-0.106303	-0.567792
O12	O	-4.366463	-0.103130	-0.204997
C13	C	-3.882423	-0.257527	-0.394458
C14	C	-3.923593	-0.350638	-0.393742
C15	C	-4.201363	-0.569128	-0.398579
C16	C	-4.240036	-0.656617	-0.397918
C17	C	-3.873846	-0.648074	-0.384991
C18	C	-3.835181	-0.560587	-0.385662
C19	C	-3.998943	-0.521116	-0.392449
C20	C	-4.076282	-0.696092	-0.391118
C21	C	-4.118211	-0.790951	-0.390401
C22	C	-3.957012	-0.426250	-0.393168
C23	C	-3.917726	-0.109953	-0.621342
C24	C	-3.981336	-0.109241	-0.764865
C25	C	-3.827312	-0.104449	-0.841994
C26	C	-3.999661	-0.175581	-0.948263
C27	C	-3.922353	-0.036850	-0.914332
C28	C	-4.152880	-0.180440	-0.869258
C29	C	-4.075506	-0.041646	-0.835303
C30	C	-4.247988	-0.112798	-0.941543
C31	C	-4.213562	0.040320	-0.389100
C32	C	-4.151632	0.133431	-0.389824
C33	C	-4.178259	-0.107252	-0.162213
C34	C	-4.093887	-0.107959	-0.018688
H35	H	-3.670341	-0.521494	-0.380674
N36	N	-4.274421	-0.256657	-0.843822
N37	N	-4.475018	-0.273354	-0.881801
H38	H	-4.560852	-0.327183	-0.863837
N39	N	-3.603541	-0.100146	-0.787479
N40	N	-3.532915	-0.157023	-0.825460
H41	H	-3.374882	-0.153988	-0.786960
N42	N	-3.800947	0.039284	-0.940066
N43	N	-3.831921	0.052300	-1.055188
H44	H	-3.746183	0.106067	-1.073371
H45	H	-4.106824	0.014979	-0.786097
N46	N	-4.368674	-0.528826	-0.405540
N47	N	-4.540615	-0.550706	-0.501265
H48	H	-4.658790	-0.522246	-0.506187
H49	H	-4.404865	-0.695705	-0.402912
N50	N	-3.706603	-0.688408	-0.378061
N51	N	-3.741147	-0.766521	-0.377464
H52	H	-3.623026	-0.795007	-0.372567
N53	N	-4.471879	-0.117265	-0.995824
N54	N	-4.596278	-0.177342	-1.082659
H55	H	-4.754405	-0.180505	-1.121000
H56	H	-3.968259	-0.232203	-0.997434
