data_functionalizedCrystal
_audit_creation_method	'MofGen! by Chris Wilmer'
_symmetry_space_group_name_H-M	'P1'
_symmetry_Int_Tables_number	1
_symmetry_cell_setting	triclinic
loop_
_symmetry_equiv_pos_as_xyz
  x,y,z
_cell_length_a	6.817900
_cell_length_b	16.305681
_cell_length_c	16.305550
_cell_angle_alpha	95.371254
_cell_angle_beta	103.455250
_cell_angle_gamma	103.457389
loop_
_atom_site_label
_atom_site_type_symbol
_atom_site_fract_x
_atom_site_fract_y
_atom_site_fract_z
V1	V	-4.026191	-0.117429	-0.263322
O2	O	-4.013843	0.004910	-0.258012
O3	O	-3.977589	-0.232137	-0.261807
O4	O	-3.977598	-0.115944	-0.378035
O5	O	-4.013834	-0.112087	-0.140979
V6	V	-4.509870	-0.102758	-0.248654
O7	O	-4.287107	-0.149611	-0.295497
O8	O	-4.699152	-0.070575	-0.216479
O9	O	-4.335266	0.011951	-0.250169
O10	O	-4.639615	-0.225097	-0.253964
O11	O	-4.639624	-0.108100	-0.370997
O12	O	-4.335257	-0.104243	-0.133941
C13	C	-3.822547	-0.260091	-0.257726
C14	C	-3.864094	-0.353868	-0.257252
C15	C	-3.822557	-0.111874	-0.405986
C16	C	-3.864109	-0.111419	-0.499767
C17	C	-3.940236	-0.525570	-0.256406
C18	C	-3.736017	-0.556086	-0.251127
C19	C	-3.779332	-0.653679	-0.250964
C20	C	-4.015199	-0.694622	-0.255573
C21	C	-4.151340	-0.674609	-0.339102
C22	C	-4.106672	-0.577011	-0.339618
C23	C	-4.026207	-0.551426	-0.178454
C24	C	-4.064811	-0.648742	-0.176814
C25	C	-4.057579	-0.790163	-0.255105
C26	C	-3.897866	-0.430030	-0.256880
C27	C	-4.015197	-0.109656	-0.840508
C28	C	-3.779151	-0.104421	-0.799567
C29	C	-3.735957	-0.105244	-0.702074
C30	C	-3.940239	-0.110530	-0.671462
C31	C	-4.107233	-0.193843	-0.722295
C32	C	-4.149097	-0.193372	-0.819843
C33	C	-4.069988	-0.032242	-0.794473
C34	C	-4.022059	-0.031583	-0.696629
C35	C	-3.897889	-0.111027	-0.575926
C36	C	-4.057556	-0.109164	-0.936046
C37	C	-4.153650	0.039900	-0.254247
C38	C	-4.091341	0.133676	-0.254727
C39	C	-4.153640	-0.108316	-0.105985
C40	C	-4.091326	-0.108767	-0.012203
H41	H	-3.608708	-0.521391	-0.191292
N42	N	-3.577260	-0.030116	-0.657932
N43	N	-3.518113	-0.017878	-0.578205
H44	H	-3.406015	0.035179	-0.547032
H45	H	-4.242052	-0.035336	-0.821297
H46	H	-3.978616	0.030884	-0.807685
N47	N	-3.870234	0.045719	-0.653307
N48	N	-3.702359	0.042746	-0.604067
H49	H	-3.595129	0.097340	-0.573462
N50	N	-4.369137	-0.709024	-0.347121
N51	N	-4.449644	-0.685283	-0.290769
H52	H	-4.603460	-0.709586	-0.296419
H53	H	-4.233541	-0.676086	-0.175295
H54	H	-4.050850	-0.562046	-0.398575
N55	N	-4.298352	-0.552847	-0.348798
N56	N	-4.447338	-0.584523	-0.413331
H57	H	-4.582714	-0.567461	-0.419820
H58	H	-4.169347	-0.030546	-0.675279
N59	N	-4.109659	-0.715032	-0.412494
N60	N	-4.253920	-0.768485	-0.466805
H61	H	-4.224475	-0.797032	-0.518638
H62	H	-3.912582	-0.515435	-0.115666
H63	H	-4.112925	-0.251976	-0.850370
N64	N	-4.299374	-0.202503	-0.698596
N65	N	-4.451245	-0.265346	-0.732638
H66	H	-4.586946	-0.271462	-0.715900
H67	H	-3.963914	-0.660527	-0.115061
H68	H	-3.673041	-0.044236	-0.811781
N69	N	-4.037628	-0.267376	-0.701392
N70	N	-3.870909	-0.276765	-0.715370
H71	H	-3.821735	-0.328695	-0.700608
H72	H	-4.177665	-0.532034	-0.181547
N73	N	-3.722567	-0.174194	-0.839277
N74	N	-3.855328	-0.227758	-0.897599
H75	H	-3.815374	-0.277037	-0.925647
H76	H	-4.322930	-0.200679	-0.847853
H77	H	-3.734102	-0.684236	-0.307122
N78	N	-3.652576	-0.175812	-0.681786
N79	N	-3.475451	-0.163038	-0.631603
H80	H	-3.416561	-0.212880	-0.617275
H81	H	-3.669674	-0.538725	-0.307126
N82	N	-3.646821	-0.669643	-0.175652
N83	N	-3.521624	-0.608615	-0.122845
H84	H	-3.428025	-0.619884	-0.069653
