data_functionalizedCrystal
_audit_creation_method	'MofGen! by Chris Wilmer'
_symmetry_space_group_name_H-M	'P1'
_symmetry_Int_Tables_number	1
_symmetry_cell_setting	triclinic
loop_
_symmetry_equiv_pos_as_xyz
  x,y,z
_cell_length_a	16.120484
_cell_length_b	12.759401
_cell_length_c	12.759393
_cell_angle_alpha	89.980678
_cell_angle_beta	87.137118
_cell_angle_gamma	87.076643
loop_
_atom_site_label
_atom_site_type_symbol
_atom_site_fract_x
_atom_site_fract_y
_atom_site_fract_z
Zn1	Zn	-0.331902	-1.584969	0.615172
Zn2	Zn	-0.471340	-1.575920	0.448384
Zn3	Zn	-0.331940	-1.409268	0.439511
Zn4	Zn	-0.471270	-1.400321	0.624019
O5	O	-0.401613	-1.492619	0.531771
O6	O	-0.350412	-1.730788	0.593058
O7	O	-0.452893	-1.553771	0.300189
O8	O	-0.215270	-1.440107	0.455397
O9	O	-0.452856	-1.724141	0.470520
O10	O	-0.215242	-1.569193	0.584454
O11	O	-0.350477	-1.431333	0.293670
O12	O	-0.350410	-1.261061	0.463975
O13	O	-0.452738	-1.424857	0.769864
O14	O	-0.452775	-1.254488	0.599533
O15	O	-0.350345	-1.560517	0.763364
O16	O	-0.587995	-1.545095	0.479099
O17	O	-0.587944	-1.416083	0.608137
C18	C	-0.401589	-1.219654	0.531752
C19	C	-0.401599	-1.102876	0.531770
C20	C	-0.454984	-1.044614	0.602248
C21	C	-0.454991	-0.934889	0.602258
C22	C	-0.348226	-0.941700	0.461303
C23	C	-0.348215	-1.051423	0.461298
C24	C	-0.508368	-1.096067	0.672719
C25	C	-0.561758	-1.037804	0.743202
C26	C	-0.561765	-0.928080	0.743212
C27	C	-0.508382	-0.876618	0.672739
C28	C	-0.618220	-1.478665	0.545564
C29	C	-0.710885	-1.472791	0.551499
C30	C	-0.880545	-1.462073	0.562358
C31	C	-0.921840	-1.523354	0.501203
C32	C	-1.016245	-1.517390	0.507244
C33	C	-0.786132	-1.468035	0.556317
C34	C	-0.184161	-1.506657	0.517948
C35	C	-0.091495	-1.512639	0.512058
C36	C	-0.401529	-1.492698	0.805800
C37	C	-0.401493	-1.492732	0.922574
C38	C	-0.401630	-0.766652	0.531788
C39	C	-0.401617	-0.883429	0.531784
C40	C	-0.401637	-1.492605	0.258806
C41	C	-0.401438	-1.492790	0.142017
C42	C	-0.348172	-1.563380	0.974053
C43	C	-0.348142	-1.563407	1.083775
C44	C	-0.454761	-1.422135	1.090530
C45	C	-0.454787	-1.422104	0.980810
C46	C	-0.294879	-1.634008	0.915817
C47	C	-0.241554	-1.704662	0.967296
C48	C	-0.241524	-1.704689	1.077018
C49	C	-0.294819	-1.634062	1.135261
H50	H	-0.605232	-0.880645	0.800610
N51	N	-0.616295	-1.090365	0.815171
N52	N	-0.693217	-1.073160	0.812934
H53	H	-0.731736	-1.110280	0.863764
H54	H	-0.294780	-1.634078	1.224604
N55	N	-0.877267	-1.594780	0.429807
N56	N	-0.916039	-1.652390	0.372298
H57	H	-0.884558	-1.702831	0.321873
H58	H	-0.498151	-1.364633	1.137961
H59	H	-0.498192	-1.364561	0.938894
N60	N	-0.294903	-1.634002	0.803740
N61	N	-0.247321	-1.697067	0.751752
H62	H	-0.247340	-1.697064	0.672597
H63	H	-0.304765	-0.899791	0.403927
N64	N	-0.508389	-0.764537	0.672775
N65	N	-0.556053	-0.712526	0.735715
H66	H	-0.556061	-0.633369	0.735740
H67	H	-0.304738	-1.098862	0.403916
N68	N	-0.508377	-1.208146	0.672717
N69	N	-0.556045	-1.254077	0.735636
H70	H	-0.556053	-1.333233	0.735632
N71	N	-0.925144	-1.390650	0.633723
N72	N	-1.002881	-1.385852	0.638586
H73	H	-1.034389	-1.335409	0.688985
H74	H	-0.198158	-1.762158	0.919866
H75	H	-0.198098	-1.762212	1.118928
