data_functionalizedCrystal
_audit_creation_method	'MofGen! by Chris Wilmer'
_symmetry_space_group_name_H-M	'P1'
_symmetry_Int_Tables_number	1
_symmetry_cell_setting	triclinic
loop_
_symmetry_equiv_pos_as_xyz
  x,y,z
_cell_length_a	17.699097
_cell_length_b	17.699092
_cell_length_c	9.730223
_cell_angle_alpha	89.997288
_cell_angle_beta	89.993116
_cell_angle_gamma	83.287399
loop_
_atom_site_label
_atom_site_type_symbol
_atom_site_fract_x
_atom_site_fract_y
_atom_site_fract_z
O1	O	1.004071	0.095758	-0.114399
O2	O	1.504071	0.595758	0.385601
O3	O	0.783694	0.108200	-0.114376
O4	O	1.283694	0.608200	0.385624
O5	O	0.900106	-0.008209	-0.114385
O6	O	1.400106	0.491791	0.385615
O7	O	0.887660	0.212168	-0.114390
O8	O	1.387660	0.712168	0.385610
O9	O	0.900098	-0.008212	0.114195
O10	O	1.400098	0.491788	0.614195
O11	O	0.783687	0.108197	0.114204
O12	O	1.283687	0.608197	0.614204
O13	O	1.004064	0.095755	0.114181
O14	O	1.504064	0.595755	0.614181
Zn15	Zn	0.893874	0.101976	0.150485
Zn16	Zn	1.393874	0.601976	0.650485
Zn17	Zn	0.893884	0.101980	-0.150679
Zn18	Zn	1.393884	0.601980	0.349321
O19	O	0.887652	0.212165	0.114190
O20	O	1.387652	0.712165	0.614190
C21	C	0.755494	0.107751	-0.000083
C22	C	1.255494	0.607751	0.499917
C23	C	0.671476	0.106409	-0.000074
C24	C	1.171476	0.606409	0.499926
C25	C	0.155762	0.098181	-0.124729
C26	C	0.655762	0.598181	0.375271
C27	C	0.234706	0.099437	-0.124722
C28	C	0.734706	0.599437	0.375278
C29	C	0.274168	0.100065	-0.000117
C30	C	0.774168	0.600065	0.499883
C31	C	0.234683	0.099429	0.124489
C32	C	0.734683	0.599429	0.624489
C33	C	0.155741	0.098167	0.124480
C34	C	0.655741	0.598167	0.624480
C35	C	0.553047	0.104516	0.124525
C36	C	1.053047	0.604516	0.624525
C37	C	0.631994	0.105780	0.124523
C38	C	1.131994	0.605780	0.624523
C39	C	0.632012	0.105786	-0.124678
C40	C	1.132012	0.605786	0.375322
C41	C	0.553070	0.104525	-0.124686
C42	C	1.053070	0.604525	0.375314
C43	C	0.513592	0.103884	-0.000081
C44	C	1.013592	0.603884	0.499919
C45	C	0.427992	0.102521	-0.000090
C46	C	0.927992	0.602521	0.499910
C47	C	0.359766	0.101434	-0.000107
C48	C	0.859766	0.601434	0.499893
C49	C	0.899655	-0.036408	-0.000097
C50	C	1.399655	0.463592	0.499903
C51	C	0.898314	-0.120425	-0.000103
C52	C	1.398314	0.379575	0.499897
C53	C	0.897690	-0.159891	-0.124704
C54	C	1.397690	0.340109	0.375296
C55	C	0.896425	-0.238834	-0.124705
C56	C	1.396425	0.261166	0.375295
C57	C	0.895789	-0.278311	-0.000105
C58	C	1.395789	0.221689	0.499895
C59	C	0.896411	-0.238839	0.124505
C60	C	1.396411	0.261161	0.624505
C61	C	0.897671	-0.159897	0.124505
C62	C	1.397671	0.340103	0.624505
C63	C	0.891331	-0.557204	0.124508
C64	C	1.391331	-0.057204	0.624508
C65	C	0.890074	-0.636153	0.124498
C66	C	1.390074	-0.136153	0.624498
C67	C	0.890085	-0.636142	-0.124703
C68	C	1.390085	-0.136142	0.375297
C69	C	0.891344	-0.557199	-0.124703
C70	C	1.391344	-0.057199	0.375297
C71	C	0.891962	-0.517734	-0.000094
C72	C	1.391962	-0.017734	0.499906
C73	C	0.893332	-0.432135	-0.000093
C74	C	1.393332	0.067865	0.499907
C75	C	0.894425	-0.363909	-0.000103
C76	C	1.394425	0.136091	0.499897
C77	C	1.032264	0.096204	-0.000115
C78	C	1.532264	0.596204	0.499885
C79	C	1.116282	0.097547	-0.000132
C80	C	1.616282	0.597547	0.499868
C81	C	0.888103	0.240363	-0.000101
C82	C	1.388103	0.740363	0.499899
C83	C	0.889444	0.324381	-0.000104
C84	C	1.389444	0.824381	0.499896
N85	N	0.893873	0.101972	0.356021
N86	N	1.393873	0.601972	0.856021
N87	N	0.893891	0.101977	-0.356216
N88	N	1.393891	0.601977	0.143784
C89	C	0.945437	0.050448	0.427943
C90	C	1.445437	0.550448	0.927943
C91	C	0.945445	0.050448	0.571826
C92	C	1.445445	0.550448	1.071826
C93	C	0.842321	0.153504	0.571852
C94	C	1.342321	0.653504	1.071852
C95	C	0.842311	0.153500	0.427972
C96	C	1.342311	0.653500	0.927972
H97	H	0.266819	0.099935	0.225944
H98	H	0.766819	0.599935	0.725944
H99	H	0.520944	0.104017	-0.226152
H100	H	1.020944	0.604017	0.273848
H101	H	0.889555	-0.668292	0.225969
H102	H	1.389555	-0.168292	0.725969
H103	H	0.664165	0.106305	-0.226137
H104	H	1.164165	0.606305	0.273863
H105	H	0.987432	0.008491	0.630381
H106	H	1.487432	0.508491	1.130381
H107	H	0.889578	-0.668283	-0.226166
H108	H	1.389578	-0.168283	0.273834
H109	H	0.891849	-0.525083	0.225972
H110	H	1.391849	-0.025083	0.725972
H111	H	0.800317	0.195458	0.369409
H112	H	1.300317	0.695458	0.869409
H113	H	0.895920	-0.270964	-0.226167
H114	H	1.395920	0.229036	0.273833
H115	H	0.123596	0.097658	0.225939
H116	H	0.623596	0.597658	0.725939
H117	H	0.891865	-0.525062	-0.226165
H118	H	1.391865	-0.025062	0.273835
H119	H	0.664122	0.106291	0.225997
H120	H	1.164122	0.606291	0.725997
H121	H	0.800342	0.195458	0.630449
H122	H	1.300342	0.695458	1.130449
H123	H	0.895890	-0.270987	0.225957
H124	H	1.395890	0.229013	0.725957
H125	H	0.266848	0.099949	-0.226181
H126	H	0.766848	0.599949	0.273819
H127	H	0.123637	0.097675	-0.226196
H128	H	0.623637	0.597675	0.273804
H129	H	0.898211	-0.127756	-0.226168
H130	H	1.398211	0.372244	0.273832
H131	H	0.520915	0.103983	0.225986
H132	H	1.020915	0.603983	0.725986
H133	H	0.898169	-0.127763	0.225968
H134	H	1.398169	0.372237	0.725968
H135	H	0.987421	0.008490	0.369364
H136	H	1.487421	0.508490	0.869364
