data_functionalizedCrystal
_audit_creation_method	'MofGen! by Chris Wilmer'
_symmetry_space_group_name_H-M	'P1'
_symmetry_Int_Tables_number	1
_symmetry_cell_setting	triclinic
loop_
_symmetry_equiv_pos_as_xyz
  x,y,z
_cell_length_a	8.559649
_cell_length_b	8.634740
_cell_length_c	18.366186
_cell_angle_alpha	89.996787
_cell_angle_beta	89.991101
_cell_angle_gamma	85.174486
loop_
_atom_site_label
_atom_site_type_symbol
_atom_site_fract_x
_atom_site_fract_y
_atom_site_fract_z
O1	O	2.112229	-0.051375	-0.060538
O2	O	1.659066	0.026836	-0.060541
O3	O	1.864196	-0.234205	-0.060538
O4	O	1.907099	0.209666	-0.060541
O5	O	1.864153	-0.234212	0.060561
O6	O	1.659023	0.026829	0.060558
O7	O	2.112186	-0.051382	0.060561
Zn8	Zn	1.885598	-0.012277	0.079787
Zn9	Zn	1.885654	-0.012268	-0.079767
O10	O	1.907056	0.209659	0.060558
C11	C	1.600427	0.032760	0.000008
C12	C	1.425763	0.050402	0.000007
C13	C	1.854456	-0.290508	0.000011
C14	C	1.825478	-0.458259	0.000007
C15	C	2.170825	-0.057305	0.000010
C16	C	2.345489	-0.074948	0.000007
C17	C	1.916796	0.265962	0.000008
C18	C	1.945774	0.433714	0.000007
N19	N	1.885571	-0.012286	0.188678
N20	N	1.885692	-0.012274	-0.188658
C21	C	1.976445	-0.127828	0.226780
C22	C	1.976454	-0.127836	0.303008
C23	C	1.885607	-0.012277	0.341131
C24	C	1.794714	0.103276	0.303020
C25	C	1.794696	0.103271	0.226793
C26	C	1.886282	0.128082	0.461890
C27	C	1.886312	0.128087	0.538115
C28	C	1.885655	-0.012263	0.576238
C29	C	1.885001	-0.152628	0.538127
C30	C	1.884983	-0.152633	0.461901
C31	C	1.885617	-0.012260	0.423786
C32	C	1.976544	-0.127824	0.696995
C33	C	1.976541	-0.127832	0.773224
C34	C	1.794811	0.103292	0.773235
C35	C	1.794804	0.103288	0.697007
C36	C	1.885679	-0.012269	0.658892
H37	H	1.360858	0.171225	0.000002
Cl38	Cl	1.632224	-0.513603	-0.000002
Cl39	Cl	2.139019	-0.510946	0.000004
H40	H	2.050437	-0.221924	0.195748
H41	H	2.050536	-0.221928	0.804247
H42	H	2.050457	-0.221928	0.334036
H43	H	1.884446	-0.266922	0.430874
H44	H	1.884466	-0.266915	0.569166
Cl45	Cl	2.090776	-0.273101	0.649077
H46	H	1.720693	0.197362	0.195770
H47	H	1.720835	0.197377	0.804274
Cl48	Cl	1.680566	0.248555	0.649103
H49	H	1.886854	0.242379	0.569139
H50	H	1.410386	-0.195763	0.000004
H51	H	1.886790	0.242383	0.430856
H52	H	1.720742	0.197363	0.334063
