data_functionalizedCrystal
_audit_creation_method	'MofGen! by Chris Wilmer'
_symmetry_space_group_name_H-M	'P1'
_symmetry_Int_Tables_number	1
_symmetry_cell_setting	triclinic
loop_
_symmetry_equiv_pos_as_xyz
  x,y,z
_cell_length_a	10.686220
_cell_length_b	12.827892
_cell_length_c	10.686551
_cell_angle_alpha	94.405078
_cell_angle_beta	89.691918
_cell_angle_gamma	94.396976
loop_
_atom_site_label
_atom_site_type_symbol
_atom_site_fract_x
_atom_site_fract_y
_atom_site_fract_z
Zn1	Zn	1.972286	-0.254771	0.562389
Zn2	Zn	2.472286	0.245229	1.062389
Zn3	Zn	1.956055	-0.443915	0.352633
Zn4	Zn	2.456055	0.056085	0.852633
Zn5	Zn	1.746404	-0.281503	0.368707
Zn6	Zn	2.246404	0.218497	0.868707
Zn7	Zn	1.762485	-0.441797	0.578411
Zn8	Zn	2.262485	0.058203	1.078411
O9	O	1.859307	-0.355496	0.465535
O10	O	2.359307	0.144504	0.965535
O11	O	2.145674	-0.269560	0.521133
O12	O	2.645674	0.230440	1.021133
O13	O	1.914721	-0.434445	0.179220
O14	O	2.414721	0.065555	0.679220
O15	O	1.776430	-0.131715	0.394421
O16	O	2.276430	0.368285	0.894421
O17	O	2.133750	-0.408523	0.367026
O18	O	2.633750	0.091477	0.867026
O19	O	1.942384	-0.112075	0.536719
O20	O	2.442384	0.387925	1.036719
O21	O	1.760692	-0.315121	0.191029
O22	O	2.260692	0.184879	0.691029
O23	O	1.572995	-0.313068	0.409957
O24	O	2.072995	0.186932	0.909957
O25	O	1.803838	-0.404914	0.751831
O26	O	2.303838	0.095086	1.251831
O27	O	1.584810	-0.430835	0.564025
O28	O	2.084810	0.069165	1.064025
O29	O	1.957978	-0.267506	0.740060
O30	O	2.457978	0.232494	1.240060
O31	O	1.930315	-0.589876	0.382561
O32	O	2.430315	-0.089876	0.882561
O33	O	1.788100	-0.588320	0.548439
O34	O	2.288100	-0.088320	1.048439
C35	C	1.533386	-0.374623	0.490474
C36	C	2.033386	0.125377	0.990474
C37	C	1.393958	-0.382829	0.501173
C38	C	1.893958	0.117171	1.001173
C39	C	1.859227	-0.627013	0.465519
C40	C	2.359227	-0.127013	0.965519
C41	C	1.859311	-0.743159	0.465545
C42	C	2.359311	-0.243159	0.965545
C43	C	1.929780	-0.795668	0.383541
C44	C	2.429780	-0.295668	0.883541
C45	C	1.929868	-0.915711	0.383567
C46	C	2.429868	-0.415711	0.883567
C47	C	2.186501	-0.336296	0.440499
C48	C	2.686501	0.163704	0.940499
C49	C	2.325931	-0.328114	0.429830
C50	C	2.825931	0.171886	0.929830
C51	C	1.884512	-0.332992	0.792735
C52	C	2.384512	0.167008	1.292735
C53	C	1.895253	-0.323402	0.932168
C54	C	2.395253	0.176598	1.432168
C55	C	1.859424	-0.082916	0.465576
C56	C	2.359424	0.417084	0.965576
C57	C	1.859474	0.033241	0.465594
C58	C	2.359474	0.533241	0.965594
C59	C	1.834273	-0.377834	0.139602
C60	C	2.334273	0.122166	0.639602
C61	C	1.823775	-0.387115	0.000151
C62	C	2.323775	0.112885	0.500151
H63	H	1.374357	-0.274993	0.360564
H64	H	1.874357	0.225007	0.860564
H65	H	1.964676	-0.261517	0.980641
H66	H	2.464676	0.238483	1.480641
C67	C	1.328534	-0.454604	0.594751
C68	C	1.828534	0.045396	1.094751
N69	N	1.279255	-0.508663	0.665233
N70	N	1.779255	-0.008663	1.165233
C71	C	2.011199	-0.736343	0.288665
C72	C	2.511199	-0.236343	0.788665
N73	N	2.072524	-0.691662	0.217200
N74	N	2.572524	-0.191662	0.717200
C75	C	1.777889	-0.802483	0.560418
C76	C	2.277889	-0.302483	1.060418
N77	N	1.716557	-0.847165	0.631878
N78	N	2.216557	-0.347165	1.131878
C79	C	2.011374	-0.976708	0.288714
C80	C	2.511374	-0.476708	0.788714
N81	N	2.072766	-1.022655	0.217269
N82	N	2.572766	-0.522655	0.717269
H83	H	1.799133	-0.921614	0.535800
H84	H	2.299133	-0.421614	1.035800
C85	C	1.729996	-0.470719	0.934677
C86	C	2.229996	0.029281	1.434677
N87	N	1.659359	-0.533690	0.885353
N88	N	2.159359	-0.033690	1.385353
