data_functionalizedCrystal
_audit_creation_method	'MofGen! by Chris Wilmer'
_symmetry_space_group_name_H-M	'P1'
_symmetry_Int_Tables_number	1
_symmetry_cell_setting	triclinic
loop_
_symmetry_equiv_pos_as_xyz
  x,y,z
_cell_length_a	10.654549
_cell_length_b	10.654558
_cell_length_c	16.053802
_cell_angle_alpha	92.590492
_cell_angle_beta	87.394887
_cell_angle_gamma	84.486468
loop_
_atom_site_label
_atom_site_type_symbol
_atom_site_fract_x
_atom_site_fract_y
_atom_site_fract_z
O1	O	1.673097	0.171156	-0.069410
O2	O	1.307620	0.187962	-0.069416
O3	O	1.498756	-0.003179	-0.069407
O4	O	1.481961	0.362297	-0.069419
O5	O	1.488235	0.007298	0.069451
O6	O	1.297099	0.198439	0.069442
O7	O	1.662576	0.181633	0.069448
Zn8	Zn	1.478167	0.191700	0.091492
Zn9	Zn	1.492029	0.177896	-0.091460
O10	O	1.471440	0.372774	0.069439
C11	C	1.255561	0.191967	0.000012
C12	C	1.116118	0.188275	0.000010
C13	C	0.905606	0.297338	0.000010
C14	C	1.036627	0.300816	0.000005
C15	C	1.064582	0.072248	0.000012
C16	C	0.933564	0.068771	0.000011
C17	C	1.202575	0.439193	-0.048649
C18	C	1.254106	0.555218	-0.048639
C19	C	1.195557	0.658662	0.000015
C20	C	1.085477	0.646087	0.048679
C21	C	1.033953	0.530061	0.048677
C22	C	1.092501	0.426620	0.000003
C23	C	0.767612	-0.069598	0.048672
C24	C	0.716085	-0.185626	0.048676
C25	C	0.774633	-0.289080	0.000027
C26	C	0.884717	-0.276516	-0.048625
C27	C	0.936244	-0.160489	-0.048628
C28	C	0.877687	-0.057034	0.000019
C29	C	1.492260	-0.044738	0.000022
C30	C	1.488564	-0.184181	0.000021
C31	C	1.481091	-0.243992	0.075709
C32	C	1.477630	-0.375015	0.075701
C33	C	1.489110	-0.386405	-0.075690
C34	C	1.492580	-0.255386	-0.075681
C35	C	1.539444	-0.556210	0.166630
C36	C	1.531948	-0.616022	0.242322
C37	C	1.454545	-0.559489	0.309153
C38	C	1.384605	-0.443142	0.300295
C39	C	1.392089	-0.383335	0.224602
C40	C	1.469522	-0.439870	0.157773
C41	C	1.430755	-0.074187	-0.166605
C42	C	1.438230	-0.014377	-0.242299
C43	C	1.515627	-0.070907	-0.309137
C44	C	1.585548	-0.187256	-0.300287
C45	C	1.578073	-0.247066	-0.224593
C46	C	1.500679	-0.190527	-0.157755
C47	C	1.714635	0.177628	0.000018
C48	C	1.854078	0.181320	0.000015
C49	C	1.477936	0.414333	0.000009
C50	C	1.481632	0.553776	0.000004
N51	N	1.468716	0.201120	0.216352
N52	N	1.501490	0.168465	-0.216320
C53	C	1.550075	0.119819	0.260050
C54	C	1.543475	0.126420	0.347456
C55	C	1.455522	0.214330	0.391163
C56	C	1.374154	0.295635	0.347459
C57	C	1.380749	0.289027	0.260055
C58	C	1.426717	0.243162	0.652572
C59	C	1.420131	0.249767	0.739982
C60	C	1.589451	0.080549	0.739973
C61	C	1.596043	0.073954	0.652567
C62	C	1.514671	0.155254	0.608870
N63	N	1.448777	0.221083	0.480507
N64	N	1.521411	0.148494	0.519529
H65	H	0.719930	0.014639	0.088290
F66	F	1.643694	0.026258	0.213541
H67	H	1.655699	0.014357	0.775559
F68	F	0.598931	-0.198999	0.100466
H69	H	1.129314	-0.019385	0.000011
H70	H	1.521652	-0.022230	-0.370786
H71	H	1.335173	-0.288591	0.217397
H72	H	1.348505	0.321359	0.775565
F73	F	1.363827	0.109465	-0.251711
H74	H	1.492376	-0.444395	-0.137324
F75	F	1.476824	-0.168216	0.156278
F76	F	1.652509	-0.370888	-0.215171
F77	F	1.606374	-0.739850	0.251744
H78	H	1.343734	0.565448	-0.088267
H79	H	1.609723	0.060217	0.383034
F80	F	1.340119	0.329690	0.606073
F81	F	1.302201	-0.382994	0.371423
F82	F	0.916808	0.516672	0.100466
H83	H	1.648555	-0.233296	-0.354717
H84	H	1.367736	-0.028142	-0.112180
F85	F	0.719797	-0.412571	0.000042
F86	F	1.689653	-0.019608	0.606051
H87	H	0.932391	-0.360757	-0.088238
H88	H	1.250249	0.354972	-0.088279
H89	H	1.302534	0.367209	0.383051
F90	F	1.053410	-0.147120	-0.100408
F91	F	1.446562	-0.623155	0.389708
H92	H	1.602490	-0.602243	0.112219
H93	H	1.314496	0.355229	0.224477
H94	H	1.037821	0.730321	0.088304
F95	F	0.821016	0.417122	0.000011
H96	H	1.237522	0.753132	0.000022
