data_functionalizedCrystal
_audit_creation_method	'MofGen! by Chris Wilmer'
_symmetry_space_group_name_H-M	'P1'
_symmetry_Int_Tables_number	1
_symmetry_cell_setting	triclinic
loop_
_symmetry_equiv_pos_as_xyz
  x,y,z
_cell_length_a	16.974897
_cell_length_b	10.268362
_cell_length_c	16.956995
_cell_angle_alpha	90.004490
_cell_angle_beta	79.735481
_cell_angle_gamma	93.656161
loop_
_atom_site_label
_atom_site_type_symbol
_atom_site_fract_x
_atom_site_fract_y
_atom_site_fract_z
O1	O	1.042488	0.218056	0.101697
O2	O	0.811439	0.193732	0.114630
O3	O	0.940843	0.207350	-0.007929
O4	O	0.913083	0.204438	0.224257
O5	O	0.940833	-0.009251	-0.007934
O6	O	0.811428	-0.022870	0.114625
O7	O	1.042477	0.001454	0.101692
Cu8	Cu	0.926952	-0.030485	0.108158
Cu9	Cu	0.926964	0.225672	0.108164
O10	O	0.913073	-0.012164	0.224252
C11	C	0.782008	0.082333	0.114134
C12	C	0.694329	0.073103	0.112652
N13	N	0.926949	-0.210651	0.108154
C14	C	0.653135	0.186826	0.111961
C15	C	0.570749	0.178134	0.110581
C16	C	0.529560	0.055717	0.109887
C17	C	0.570759	-0.058015	0.110581
C18	C	0.653142	-0.049321	0.111967
C19	C	0.283169	0.017056	0.105750
C20	C	0.200781	0.008371	0.104362
C21	C	0.200777	0.244521	0.104363
C22	C	0.283163	0.253204	0.105744
C23	C	0.324354	0.139472	0.106442
N24	N	0.445348	0.046829	0.108475
N25	N	0.408562	0.148361	0.107860
C26	C	0.926960	-0.476321	0.108163
C27	C	0.926951	-0.328484	0.108160
C28	C	1.071908	0.112856	0.102189
C29	C	1.159587	0.122095	0.103671
C30	C	0.942259	0.099201	-0.037641
C31	C	0.946485	0.099650	-0.126166
N32	N	0.926973	0.405838	0.108163
C33	C	0.978098	0.102983	-0.625499
C34	C	0.974121	0.102556	-0.542320
C35	C	0.899477	0.094704	-0.491154
C36	C	0.828805	0.087265	-0.523171
C37	C	0.832782	0.087682	-0.606349
C38	C	0.879790	0.092628	-0.241361
C39	C	0.875818	0.092215	-0.158178
C40	C	1.021135	0.107504	-0.177333
C41	C	1.025106	0.107929	-0.260512
C42	C	0.954434	0.100482	-0.292521
N43	N	0.895410	0.094272	-0.406131
N44	N	0.958501	0.100905	-0.377543
C45	C	0.911657	0.095989	0.253964
C46	C	0.907431	0.095548	0.342489
H47	H	0.686667	0.286512	0.112523
O48	O	0.764158	0.080237	-0.637485
C49	C	0.762111	-0.032143	-0.685044
H50	H	0.802137	-0.106339	-0.665413
H51	H	0.697892	-0.076552	-0.677520
H52	H	0.784647	-0.004412	-0.750655
O53	O	0.693046	-0.159921	0.112597
C54	C	0.639023	-0.269835	0.111706
H55	H	0.585217	-0.240902	0.085484
H56	H	0.670376	-0.349110	0.073408
H57	H	0.617794	-0.308373	0.175503
H58	H	0.167242	-0.091321	0.103820
H59	H	0.167230	0.337115	0.103797
H60	H	0.768028	0.080864	-0.481505
O61	O	1.050562	0.110434	-0.675280
C62	C	1.057210	-0.001062	-0.723956
H63	H	0.994720	-0.045033	-0.728108
H64	H	1.090762	0.027697	-0.786498
H65	H	1.091525	-0.076006	-0.696626
O66	O	0.323061	-0.093547	0.106386
C67	C	0.269033	-0.203454	0.105493
H68	H	0.215230	-0.174513	0.079269
H69	H	0.300383	-0.282734	0.067198
H70	H	0.247800	-0.241990	0.169290
O71	O	0.530741	-0.176898	0.109766
C72	C	0.496532	-0.187567	0.039943
H73	H	0.530766	-0.116958	-0.007887
H74	H	0.500119	-0.291621	0.016755
H75	H	0.431051	-0.162752	0.054499
O76	O	0.530865	0.288736	0.109867
C77	C	0.584884	0.398646	0.110788
H78	H	0.648530	0.370737	0.086545
H79	H	0.568626	0.479498	0.071684
H80	H	0.581176	0.434583	0.174877
H81	H	1.031666	0.108609	-0.516261
O82	O	0.811167	0.085184	-0.272490
C83	C	0.809113	-0.027194	-0.320050
H84	H	0.849134	-0.101398	-0.300419
H85	H	0.744891	-0.071593	-0.312526
H86	H	0.831650	0.000537	-0.385661
O87	O	1.097682	0.115494	-0.310098
C88	C	1.159204	0.121996	-0.264006
H89	H	1.135065	0.078454	-0.201907
H90	H	1.211161	0.064571	-0.294738
H91	H	1.181133	0.228215	-0.258104
O92	O	0.323044	0.372224	0.106447
C93	C	0.269023	0.470739	0.105517
H94	H	0.205378	0.429420	0.129771
H95	H	0.285283	0.555046	0.144607
H96	H	0.272724	0.507415	0.041424
H97	H	0.815031	0.085817	-0.116519
H98	H	1.078672	0.113577	-0.151261
