data_functionalizedCrystal
_audit_creation_method	'MofGen! by Chris Wilmer'
_symmetry_space_group_name_H-M	'P1'
_symmetry_Int_Tables_number	1
_symmetry_cell_setting	triclinic
loop_
_symmetry_equiv_pos_as_xyz
  x,y,z
_cell_length_a	17.699083
_cell_length_b	11.792241
_cell_length_c	16.176319
_cell_angle_alpha	89.993071
_cell_angle_beta	89.998611
_cell_angle_gamma	83.738215
loop_
_atom_site_label
_atom_site_type_symbol
_atom_site_fract_x
_atom_site_fract_y
_atom_site_fract_z
O1	O	1.004844	0.143527	-0.068631
O2	O	1.504844	0.643527	0.431369
O3	O	0.784565	0.162200	-0.068658
O4	O	1.284565	0.662200	0.431342
O5	O	0.900050	-0.012371	-0.068638
O6	O	1.400050	0.487629	0.431362
O7	O	0.889359	0.318098	-0.068651
O8	O	1.389359	0.818098	0.431349
O9	O	0.900034	-0.012382	0.068855
O10	O	1.400034	0.487618	0.568855
O11	O	0.784549	0.162189	0.068835
O12	O	1.284549	0.662189	0.568835
O13	O	1.004828	0.143516	0.068862
O14	O	1.504828	0.643516	0.568862
Cu15	Cu	0.894687	0.152851	0.081403
Cu16	Cu	1.394687	0.652851	0.581403
Cu17	Cu	0.894706	0.152865	-0.081199
Cu18	Cu	1.394706	0.652865	0.418801
O19	O	0.889343	0.318087	0.068842
O20	O	1.389343	0.818087	0.568842
C21	C	0.756356	0.161525	0.000085
C22	C	1.256356	0.661525	0.500085
C23	C	0.672328	0.159518	0.000075
C24	C	1.172328	0.659518	0.500075
C25	C	0.624253	0.261988	0.000071
C26	C	1.124253	0.761988	0.500071
C27	C	0.545299	0.260095	0.000082
C28	C	1.045299	0.760095	0.500082
C29	C	0.514422	0.155731	0.000091
C30	C	1.014422	0.655731	0.500091
C31	C	0.562503	0.053254	0.000097
C32	C	1.062503	0.553254	0.500097
C33	C	0.641455	0.055148	0.000092
C34	C	1.141455	0.555148	0.500092
C35	C	0.244099	0.045613	0.000118
C36	C	0.744099	0.545613	0.500118
C37	C	0.165141	0.043727	0.000120
C38	C	0.665141	0.543727	0.500120
C39	C	0.147944	0.250560	0.000108
C40	C	0.647944	0.750560	0.500108
C41	C	0.226896	0.252454	0.000103
C42	C	0.726896	0.752454	0.500103
C43	C	0.274970	0.149977	0.000113
C44	C	0.774970	0.649977	0.500113
C45	C	0.360580	0.152031	0.000103
C46	C	0.860580	0.652031	0.500103
C47	C	0.428814	0.153676	0.000095
C48	C	0.928814	0.653676	0.500095
C49	C	0.899370	-0.054660	0.000108
C50	C	1.399370	0.445340	0.500108
C51	C	0.897360	-0.180649	0.000107
C52	C	1.397360	0.319351	0.500107
C53	C	0.893664	-0.411317	0.000093
C54	C	1.393664	0.088683	0.500093
C55	C	0.895718	-0.282956	0.000101
C56	C	1.395718	0.217044	0.500101
C57	C	1.033036	0.144190	0.000117
C58	C	1.533036	0.644190	0.500117
C59	C	1.117065	0.146198	0.000122
C60	C	1.617065	0.646198	0.500122
C61	C	0.890022	0.360375	0.000094
C62	C	1.390022	0.860375	0.500094
C63	C	0.892032	0.486365	0.000090
C64	C	1.392032	0.986365	0.500090
N65	N	0.894679	0.152841	0.195768
N66	N	1.394679	0.652841	0.695768
N67	N	0.894720	0.152865	-0.195564
N68	N	1.394720	0.652865	0.304436
C69	C	0.945831	0.075573	0.239041
C70	C	1.445831	0.575573	0.739041
C71	C	0.945835	0.075572	0.325588
C72	C	1.445835	0.575572	0.825588
C73	C	0.894690	0.152845	0.368861
C74	C	1.394690	0.652845	0.868861
C75	C	0.843532	0.230118	0.325582
C76	C	1.343532	0.730118	0.825582
C77	C	0.843525	0.230113	0.239036
C78	C	1.343525	0.730113	0.739036
C79	C	0.843558	0.230139	0.674610
C80	C	1.343558	0.730139	1.174610
C81	C	0.843570	0.230140	0.761161
C82	C	1.343570	0.730140	1.261161
C83	C	0.945868	0.075598	0.761162
C84	C	1.445868	0.575598	1.261162
C85	C	0.945861	0.075593	0.674617
C86	C	1.445861	0.575593	1.174617
C87	C	0.894701	0.152861	0.631345
C88	C	1.394701	0.652861	1.131345
C89	C	0.894697	0.152860	0.537501
C90	C	1.394697	0.652860	1.037501
C91	C	0.894697	0.152853	0.462703
C92	C	1.394697	0.652853	0.962703
H93	H	0.108792	0.334002	0.000103
H94	H	0.608792	0.834002	0.500103
H95	H	0.987511	0.012673	0.639387
H96	H	1.487511	0.512673	1.139387
H97	H	0.987483	0.012653	0.203814
H98	H	1.487483	0.512653	0.703814
H99	H	0.252031	0.337438	0.000092
H100	H	0.752031	0.837438	0.500092
C101	C	0.787299	0.315144	0.808759
C102	C	1.287299	0.815144	1.308759
N103	N	0.744916	0.379165	0.844610
N104	N	1.244916	0.879165	1.344610
C105	C	0.694338	-0.057577	0.000094
C106	C	1.194338	0.442423	0.500094
N107	N	0.734168	-0.142485	0.000097
N108	N	1.234168	0.357515	0.500097
H109	H	0.801871	0.293031	0.203804
H110	H	1.301871	0.793031	0.703804
C111	C	1.002139	-0.009409	0.808768
C112	C	1.502139	0.490591	1.308768
N113	N	1.044522	-0.073434	0.844624
N114	N	1.544522	0.426566	1.344624
C115	C	1.002089	-0.009457	0.373185
C116	C	1.502089	0.490543	0.873185
N117	N	1.044454	-0.073515	0.409034
N118	N	1.544454	0.426485	0.909034
H119	H	0.801884	0.293032	0.360819
H120	H	1.301884	0.793032	0.860819
H121	H	0.649386	0.346973	0.000064
H122	H	1.149386	0.846973	0.500064
H123	H	0.801903	0.293055	0.639385
H124	H	1.301903	0.793055	1.139385
H125	H	0.283232	-0.037830	0.000127
H126	H	0.783232	0.462170	0.500127
C127	C	0.492420	0.372820	0.000093
C128	C	0.992420	0.872820	0.500093
N129	N	0.452591	0.457730	0.000107
N130	N	0.952591	0.957730	0.500107
C131	C	0.528536	-0.061548	0.000108
C132	C	1.028536	0.438452	0.500108
N133	N	0.502952	-0.148019	0.000113
N134	N	1.002952	0.351981	0.500113
C135	C	0.131179	-0.071087	0.000139
C136	C	0.631179	0.428913	0.500139
N137	N	0.105599	-0.157560	0.000156
N138	N	0.605599	0.342440	0.500156
