data_functionalizedCrystal
_audit_creation_method	'MofGen! by Chris Wilmer'
_symmetry_space_group_name_H-M	'P1'
_symmetry_Int_Tables_number	1
_symmetry_cell_setting	triclinic
loop_
_symmetry_equiv_pos_as_xyz
  x,y,z
_cell_length_a	23.532355
_cell_length_b	23.532357
_cell_length_c	13.330367
_cell_angle_alpha	90.007948
_cell_angle_beta	90.001851
_cell_angle_gamma	82.827896
loop_
_atom_site_label
_atom_site_type_symbol
_atom_site_fract_x
_atom_site_fract_y
_atom_site_fract_z
O1	O	0.755269	0.068994	0.083299
O2	O	0.589400	0.079028	0.083333
O3	O	0.677351	-0.008924	0.083294
O4	O	0.667318	0.156945	0.083337
O5	O	0.677338	-0.008922	-0.083553
O6	O	0.589386	0.079030	-0.083514
O7	O	0.755256	0.068995	-0.083548
Cu8	Cu	0.672320	0.074013	-0.098766
Cu9	Cu	0.672336	0.074011	0.098550
O10	O	0.667305	0.156947	-0.083510
C11	C	0.568177	0.078778	-0.000087
C12	C	0.504958	0.078024	-0.000075
C13	C	0.112938	0.073287	-0.091067
C14	C	0.053539	0.072569	-0.091071
O15	O	0.022814	0.072180	-0.168418
N16	N	0.023837	0.072212	-0.000123
C17	C	0.053539	0.072567	0.090835
O18	O	0.022822	0.072197	0.168193
C19	C	0.112938	0.073281	0.090838
C20	C	0.142636	0.073643	-0.000116
C21	C	0.142635	0.073649	-0.182013
C22	C	0.202030	0.074367	-0.182009
C23	C	0.231728	0.074724	-0.091058
C24	C	0.202031	0.074362	-0.000111
C25	C	0.142640	0.073632	0.181795
C26	C	0.202043	0.074344	0.181790
C27	C	0.231740	0.074707	0.090836
C28	C	0.291123	0.075437	0.090844
N29	N	0.320824	0.075794	-0.000104
C30	C	0.291127	0.075437	-0.091055
C31	C	-0.071202	0.071068	0.090822
C32	C	-0.130600	0.070359	0.090820
C33	C	-0.130597	0.070360	-0.091086
C34	C	-0.071198	0.071073	-0.091083
C35	C	-0.041501	0.071425	-0.000126
C36	C	0.415861	0.076946	-0.091039
C37	C	0.475260	0.077667	-0.091026
C38	C	0.475252	0.077663	0.090880
C39	C	0.415857	0.076946	0.090868
C40	C	0.386163	0.076585	-0.000099
O41	O	0.321886	0.075824	0.168152
O42	O	0.321852	0.075800	-0.168400
C43	C	0.677094	-0.030140	-0.000132
C44	C	0.676339	-0.093358	-0.000142
C45	C	0.671609	-0.485369	0.090862
C46	C	0.670892	-0.544769	0.090868
O47	O	0.670508	-0.575486	0.168216
N48	N	0.670529	-0.574479	-0.000079
C49	C	0.670878	-0.544786	-0.091038
O50	O	0.670503	-0.575511	-0.168395
C51	C	0.671591	-0.485387	-0.091043
C52	C	0.671960	-0.455681	-0.000090
C53	C	0.671977	-0.455663	0.181807
C54	C	0.672696	-0.396268	0.181801
C55	C	0.673046	-0.366579	0.090849
C56	C	0.672678	-0.396286	-0.000096
C57	C	0.671935	-0.455694	-0.182001
C58	C	0.672648	-0.396291	-0.181998
C59	C	0.673017	-0.366585	-0.091045
C60	C	0.673746	-0.307202	-0.091054
N61	N	0.674109	-0.277492	-0.000107
C62	C	0.673759	-0.307181	0.090844
C63	C	0.669379	-0.669527	-0.091021
C64	C	0.668670	-0.728925	-0.091017
C65	C	0.668683	-0.728904	0.090889
C66	C	0.669397	-0.669505	0.090884
C67	C	0.669742	-0.639817	-0.000074
C68	C	0.675268	-0.182447	0.090824
C69	C	0.675989	-0.123047	0.090810
C70	C	0.675972	-0.123073	-0.091095
C71	C	0.675255	-0.182468	-0.091082
C72	C	0.674901	-0.212153	-0.000114
O73	O	0.674129	-0.276447	-0.168363
O74	O	0.674127	-0.276447	0.168188
C75	C	0.776479	0.069245	-0.000126
C76	C	0.839698	0.069999	-0.000132
C77	C	0.667562	0.178163	-0.000081
C78	C	0.668317	0.241381	-0.000065
N79	N	0.672313	0.074014	-0.237547
C80	C	0.637977	0.039653	-0.290074
C81	C	0.706656	0.108372	-0.290048
C82	C	0.706663	0.108372	-0.395066
C83	C	0.672327	0.074011	-0.447594
C84	C	0.637983	0.039650	-0.395103
C85	C	0.741010	0.142728	-0.447565
C86	C	0.741019	0.142728	-0.552590
C87	C	0.706679	0.108370	-0.605119
C88	C	0.672334	0.074008	-0.552622
C89	C	0.637997	0.039647	-0.605149
C90	C	0.603649	0.005288	-0.552653
C91	C	0.603643	0.005292	-0.447632
C92	C	0.706684	0.108366	-0.710141
C93	C	0.638004	0.039644	-0.710177
N94	N	0.672347	0.074005	0.237332
H95	H	0.118462	0.073357	-0.256080
H96	H	0.768969	0.170698	-0.404790
H97	H	0.499443	0.077956	0.164930
C98	C	0.616162	-0.055636	-0.257775
C99	C	0.600221	0.001885	-0.232381
H100	H	0.592850	-0.078951	-0.222161
H101	H	0.655182	-0.066421	-0.240544
H102	H	0.611254	-0.060547	-0.327843
H103	H	0.605133	0.006797	-0.162314
H104	H	0.561191	0.012674	-0.249606
H105	H	0.768987	0.170706	-0.595323
C106	C	-0.077174	0.071000	-0.270886
C107	C	-0.038556	0.071464	-0.191062
H108	H	-0.057023	0.071236	-0.332610
H109	H	-0.104877	0.103938	-0.267093
H110	H	-0.095806	0.037504	-0.267098
H111	H	-0.019928	0.104962	-0.194845
H112	H	-0.010844	0.038522	-0.194857
C113	C	0.719142	-0.609436	-0.196584
C114	C	0.669767	-0.636897	-0.191011
H115	H	0.719378	-0.589291	-0.258311
H116	H	0.752074	-0.637147	-0.192804
H117	H	0.719454	-0.583238	-0.142423
H118	H	0.669458	-0.663098	-0.245169
H119	H	0.636827	-0.609183	-0.194801
C120	C	0.774575	0.176286	-0.699561
C121	C	0.744436	0.146129	-0.767844
H122	H	0.797880	0.199603	-0.735186
H123	H	0.798059	0.149950	-0.658602
H124	H	0.748224	0.199765	-0.658596
H125	H	0.770788	0.122646	-0.808804
H126	H	0.720950	0.172468	-0.808820
C127	C	0.508369	-0.016569	-0.415301
C128	C	0.565896	-0.032476	-0.389922
H129	H	0.485068	-0.039884	-0.379663
H130	H	0.503458	-0.021492	-0.485355
H131	H	0.497566	0.022458	-0.398079
H132	H	0.576701	-0.071502	-0.407150
H133	H	0.570810	-0.027558	-0.319852
H134	H	0.391690	0.076658	-0.165113
C135	C	0.469289	0.077592	-0.270837
C136	C	0.507903	0.078061	-0.191010
H137	H	0.489442	0.077831	-0.332559
H138	H	0.441582	0.110527	-0.267047
H139	H	0.450662	0.044093	-0.267051
H140	H	0.526527	0.111562	-0.194791
H141	H	0.535621	0.045123	-0.194802
H142	H	0.610040	0.011665	-0.752937
H143	H	0.734615	0.136344	-0.247274
H144	H	0.669696	-0.645322	0.164946
C145	C	0.573125	-0.025184	-0.713662
C146	C	0.565905	-0.032481	-0.610396
H147	H	0.549822	-0.048499	-0.749310
H148	H	0.612148	-0.035951	-0.730903
H149	H	0.562294	0.013846	-0.730807
H150	H	0.576741	-0.071511	-0.593250
H151	H	0.526875	-0.021718	-0.593148
H152	H	-0.154787	0.070068	-0.165144
C153	C	0.196050	0.074288	-0.361809
C154	C	0.234670	0.074757	-0.281989
H155	H	0.216199	0.074524	-0.423535
H156	H	0.168346	0.107225	-0.358017
H157	H	0.177420	0.040792	-0.358016
H158	H	0.253296	0.108256	-0.285778
H159	H	0.262384	0.041817	-0.285784
H160	H	-0.154776	0.070073	0.164884
C161	C	0.619506	-0.740488	0.245952
C162	C	0.668294	-0.761543	0.190870
H163	H	0.619270	-0.760637	0.307675
H164	H	0.586176	-0.745687	0.208587
H165	H	0.619991	-0.700862	0.258965
H166	H	0.667807	-0.801169	0.177851
H167	H	0.701633	-0.756349	0.228243
C168	C	0.069164	0.121782	0.287375
C169	C	0.110010	0.073230	0.281779
H170	H	0.049024	0.121534	0.349110
H171	H	0.042970	0.121466	0.233227
H172	H	0.087800	0.155276	0.283602
H173	H	0.091373	0.039736	0.285545
H174	H	0.136208	0.073540	0.335942
H175	H	0.668378	-0.753108	-0.165081
H176	H	0.671636	-0.479871	-0.256065
H177	H	0.672994	-0.372086	0.255865
C178	C	-0.077183	0.071007	0.270629
C179	C	-0.038563	0.071468	0.190812
H180	H	-0.057034	0.071258	0.332357
H181	H	-0.095807	0.037513	0.266836
H182	H	-0.104892	0.103946	0.266834
H183	H	-0.010855	0.038526	0.194603
H184	H	-0.019929	0.104966	0.194607
C185	C	0.213633	0.123529	0.336855
C186	C	0.234686	0.074737	0.281774
H187	H	0.233788	0.123774	0.398576
H188	H	0.174013	0.123045	0.349864
H189	H	0.218829	0.156860	0.299484
H190	H	0.229486	0.041406	0.319142
H191	H	0.274316	0.075217	0.268768
C192	C	0.421822	0.077026	0.270674
C193	C	0.383209	0.076557	0.190844
H194	H	0.401669	0.076780	0.332395
H195	H	0.440445	0.110521	0.266896
H196	H	0.449534	0.044088	0.266879
H197	H	0.355500	0.109497	0.194635
H198	H	0.364577	0.043058	0.194625
H199	H	0.676290	-0.098863	0.164878
H200	H	0.674977	-0.206609	0.164899
H201	H	0.671690	-0.479829	0.255875
C202	C	0.672546	-0.402281	-0.361806
C203	C	0.673023	-0.363658	-0.281985
H204	H	0.672780	-0.382135	-0.423532
H205	H	0.639054	-0.420908	-0.357999
H206	H	0.705488	-0.429989	-0.358029
H207	H	0.640079	-0.335953	-0.285758
H208	H	0.706518	-0.345022	-0.285794
H209	H	0.676260	-0.098890	-0.165146
C210	C	0.675313	-0.176519	-0.270889
C211	C	0.674852	-0.215125	-0.191057
H212	H	0.675056	-0.196678	-0.332609
H213	H	0.708810	-0.157899	-0.267116
H214	H	0.642377	-0.148805	-0.267088
H215	H	0.707790	-0.242837	-0.194853
H216	H	0.641351	-0.233755	-0.194831
