data_functionalizedCrystal
_audit_creation_method	'MofGen! by Chris Wilmer'
_symmetry_space_group_name_H-M	'P1'
_symmetry_Int_Tables_number	1
_symmetry_cell_setting	triclinic
loop_
_symmetry_equiv_pos_as_xyz
  x,y,z
_cell_length_a	14.853566
_cell_length_b	14.853559
_cell_length_c	13.930277
_cell_angle_alpha	89.997639
_cell_angle_beta	89.995631
_cell_angle_gamma	83.632934
loop_
_atom_site_label
_atom_site_type_symbol
_atom_site_fract_x
_atom_site_fract_y
_atom_site_fract_z
O1	O	1.196365	0.117699	-0.079763
O2	O	0.933905	0.131721	-0.079778
O3	O	1.072150	-0.006520	-0.079769
O4	O	1.058121	0.255940	-0.079772
O5	O	1.072131	-0.006523	0.079893
O6	O	0.933886	0.131718	0.079884
O7	O	1.196346	0.117696	0.079899
Zn8	Zn	1.065113	0.124706	0.105241
Zn9	Zn	1.065138	0.124710	-0.105120
O10	O	1.058102	0.255937	0.079890
C11	C	0.900307	0.131085	0.000051
C12	C	0.800223	0.129181	0.000045
C13	C	0.377049	0.121132	-0.086970
C14	C	0.377050	0.121129	0.087100
C15	C	0.471084	0.122917	0.087097
C16	C	0.518105	0.123813	0.000059
C17	C	0.471092	0.122922	-0.086975
C18	C	0.518103	0.123817	0.174130
C19	C	0.612142	0.125606	0.174130
C20	C	0.659166	0.126496	0.087092
C21	C	0.612147	0.125604	0.000054
C22	C	0.659168	0.126500	-0.086984
C23	C	0.612152	0.125601	-0.174023
C24	C	0.518115	0.123812	-0.174014
C25	C	0.753202	0.128285	0.087083
C26	C	0.753210	0.128290	-0.086990
C27	C	1.071506	-0.040111	0.000060
C28	C	1.069605	-0.140195	0.000055
C29	C	1.061552	-0.563368	-0.086978
C30	C	1.061531	-0.563366	0.087092
C31	C	1.063324	-0.469333	0.087093
C32	C	1.064230	-0.422313	0.000057
C33	C	1.063343	-0.469326	-0.086979
C34	C	1.064203	-0.422312	0.174128
C35	C	1.065995	-0.328272	0.174132
C36	C	1.066908	-0.281251	0.087096
C37	C	1.066021	-0.328270	0.000056
C38	C	1.066927	-0.281250	-0.086980
C39	C	1.066047	-0.328268	-0.174021
C40	C	1.064255	-0.422305	-0.174016
C41	C	1.068700	-0.187215	0.087090
C42	C	1.068718	-0.187208	-0.086982
C43	C	1.229945	0.118332	0.000068
C44	C	1.330028	0.120236	0.000068
C45	C	1.058745	0.289528	0.000059
C46	C	1.060646	0.389612	0.000058
N47	N	1.065102	0.124703	0.248807
N48	N	1.065156	0.124706	-0.248686
C49	C	1.003921	0.185900	0.701073
C50	C	1.126380	0.063514	0.701050
C51	C	1.126370	0.063511	0.600554
C52	C	1.065135	0.124704	0.550313
C53	C	1.003911	0.185901	0.600568
C54	C	1.187599	0.002322	0.550292
C55	C	1.187591	0.002318	0.449790
C56	C	1.126351	0.063507	0.399547
C57	C	1.065124	0.124705	0.449808
C58	C	1.003889	0.185898	0.399567
C59	C	0.942657	0.247093	0.449826
C60	C	0.942670	0.247090	0.550325
C61	C	1.126337	0.063510	0.299049
C62	C	1.003878	0.185899	0.299062
H63	H	0.791478	0.129025	0.157948
O64	O	0.657916	0.126597	-0.258507
C65	C	0.753931	0.206698	-0.359548
C66	C	0.702157	0.205672	-0.263831
H67	H	0.789698	0.270633	-0.363892
H68	H	0.806193	0.144542	-0.363907
H69	H	0.704172	0.205703	-0.421742
H70	H	0.751848	0.206698	-0.201581
H71	H	0.649883	0.267823	-0.259555
H72	H	1.060788	-0.601655	0.157952
O73	O	1.069390	-0.141474	0.171602
C74	C	0.993375	-0.025134	0.272569
C75	C	0.992471	-0.076881	0.176832
H76	H	0.931203	0.027114	0.276820
H77	H	0.992355	-0.074837	0.334820
H78	H	1.057283	0.010674	0.276914
H79	H	0.928574	-0.112692	0.172394
H80	H	0.993539	-0.027135	0.114627
H81	H	1.066778	-0.289972	-0.244886
O82	O	1.185845	0.003988	0.250376
C83	C	1.307357	-0.117358	0.260965
C84	C	1.239996	-0.050007	0.316204
H85	H	1.351168	-0.161017	0.314163
H86	H	1.268428	-0.162535	0.213953
H87	H	1.352386	-0.078330	0.213874
H88	H	1.194950	-0.088961	0.363348
H89	H	1.278981	-0.004831	0.363156
O90	O	0.944359	0.245431	0.250410
C91	C	0.822856	0.366783	0.261039
C92	C	0.890225	0.299427	0.316256
H93	H	0.779058	0.410442	0.314251
H94	H	0.861777	0.411959	0.214008
H95	H	0.777814	0.327759	0.213968
H96	H	0.935284	0.338376	0.363378
H97	H	0.851247	0.254250	0.363226
H98	H	0.791489	0.129017	-0.157867
H99	H	0.479826	0.123080	-0.244877
O100	O	1.063350	-0.468111	-0.258475
C101	C	1.060643	-0.612989	-0.335610
C102	C	1.061648	-0.561220	-0.239895
H103	H	1.059286	-0.688279	-0.320622
H104	H	0.997941	-0.586388	-0.378546
H105	H	1.124028	-0.602624	-0.378530
H106	H	0.998306	-0.571562	-0.196898
H107	H	1.124392	-0.587831	-0.197032
H108	H	0.338765	0.120397	-0.157835
O109	O	0.331511	0.120301	0.171729
C110	C	0.341437	0.120423	0.344384
C111	C	0.393122	0.121387	0.248607
H112	H	0.391229	0.121281	0.406565
H113	H	0.289262	0.182644	0.348806
H114	H	0.305556	0.056557	0.348681
H115	H	0.429057	0.185211	0.244246
H116	H	0.445246	0.059123	0.244225
O117	O	1.069428	-0.141567	-0.171564
C118	C	0.991960	-0.102766	-0.320373
C119	C	0.991038	-0.154469	-0.224606
H120	H	0.928599	-0.113194	-0.363294
H121	H	0.993327	-0.027456	-0.305506
H122	H	1.054684	-0.129426	-0.363249
H123	H	0.928325	-0.127886	-0.181682
H124	H	0.989720	-0.229773	-0.239541
O125	O	0.944478	0.245464	0.749780
C126	C	0.891862	0.402129	0.780570
C127	C	0.959220	0.334773	0.725335
H128	H	0.903769	0.474350	0.760843
H129	H	0.819625	0.390319	0.760797
H130	H	0.902365	0.391574	0.861027
H131	H	0.948799	0.345288	0.644866
H132	H	1.031432	0.346600	0.745188
O133	O	0.883265	0.306660	0.401060
C134	C	0.830585	0.463325	0.370345
C135	C	0.897906	0.395968	0.425619
H136	H	0.842386	0.535544	0.390196
H137	H	0.841103	0.452891	0.289873
H138	H	0.758374	0.451396	0.390097
H139	H	0.970143	0.407855	0.405947
H140	H	0.887309	0.406417	0.506078
O141	O	1.185939	0.004033	0.749701
C142	C	1.307341	-0.117421	0.739081
C143	C	1.239958	-0.050083	0.683859
H144	H	1.351019	-0.161204	0.685871
H145	H	1.352496	-0.078474	0.786099
H146	H	1.268340	-0.162481	0.786164
H147	H	1.278885	-0.005006	0.636724
H148	H	1.194803	-0.089086	0.636901
H149	H	0.479810	0.123093	0.244991
H150	H	1.063460	-0.460602	0.244987
O151	O	0.657676	0.126429	0.258761
C152	C	0.647737	0.126288	0.431417
C153	C	0.596060	0.125336	0.335643
H154	H	0.597941	0.125424	0.493601
H155	H	0.699910	0.064065	0.435833
H156	H	0.683621	0.190151	0.435715
H157	H	0.560122	0.061515	0.331281
H158	H	0.543938	0.187602	0.331268
H159	H	0.892818	0.296913	0.591252
H160	H	1.237459	-0.047495	0.591202
O161	O	1.066899	-0.282749	0.258765
C162	C	1.066649	-0.292675	0.431421
C163	C	1.065638	-0.344344	0.335645
H164	H	1.065611	-0.342449	0.493603
H165	H	1.130549	-0.256858	0.435836
H166	H	1.004465	-0.240445	0.435722
H167	H	1.127778	-0.396617	0.331278
H168	H	1.001697	-0.380099	0.331270
O169	O	1.247098	-0.057215	0.401123
C170	C	1.368596	-0.178574	0.411715
C171	C	1.301244	-0.111214	0.466952
H172	H	1.412403	-0.222236	0.464914
H173	H	1.329661	-0.223747	0.364706
H174	H	1.413631	-0.139554	0.364621
H175	H	1.256192	-0.150160	0.514098
H176	H	1.340235	-0.066041	0.513901
H177	H	1.060839	-0.601655	-0.157844
