data_functionalizedCrystal
_audit_creation_method	'MofGen! by Chris Wilmer'
_symmetry_space_group_name_H-M	'P1'
_symmetry_Int_Tables_number	1
_symmetry_cell_setting	triclinic
loop_
_symmetry_equiv_pos_as_xyz
  x,y,z
_cell_length_a	6.817900
_cell_length_b	9.109307
_cell_length_c	9.514088
_cell_angle_alpha	93.164333
_cell_angle_beta	118.843545
_cell_angle_gamma	111.764999
loop_
_atom_site_label
_atom_site_type_symbol
_atom_site_fract_x
_atom_site_fract_y
_atom_site_fract_z
V1	V	-4.285760	-0.228427	-0.532230
O2	O	-4.198970	0.008003	-0.490108
O3	O	-4.302227	-0.450072	-0.559357
O4	O	-4.319878	-0.226218	-0.750317
O5	O	-4.181196	-0.217400	-0.297826
V6	V	-4.750290	-0.199993	-0.500456
O7	O	-4.588680	-0.290799	-0.601929
O8	O	-4.897567	-0.137621	-0.430757
O9	O	-4.510617	0.021652	-0.473328
O10	O	-4.954478	-0.436422	-0.542578
O11	O	-4.972251	-0.211019	-0.734859
O12	O	-4.492966	-0.202202	-0.282369
C13	C	-4.160338	-0.504063	-0.558900
C14	C	-4.255638	-0.685269	-0.582534
C15	C	-4.182851	-0.218513	-0.802486
C16	C	-4.292458	-0.218174	-0.980975
C17	C	-4.315849	0.075635	-0.473782
C18	C	-4.199792	0.256839	-0.450159
C19	C	-4.293333	-0.209911	-0.230192
C20	C	-4.162961	-0.210242	-0.051700
H21	H	-4.376353	-0.774347	-0.713989
H22	H	-3.968250	-0.203727	-0.975706
H23	H	-4.487196	-0.224708	-1.056983
H24	H	-4.079102	-0.654092	-0.318713
