data_functionalizedCrystal
_audit_creation_method	'MofGen! by Chris Wilmer'
_symmetry_space_group_name_H-M	'P1'
_symmetry_Int_Tables_number	1
_symmetry_cell_setting	triclinic
loop_
_symmetry_equiv_pos_as_xyz
  x,y,z
_cell_length_a	14.853567
_cell_length_b	11.792241
_cell_length_c	13.930277
_cell_angle_alpha	89.995317
_cell_angle_beta	89.995755
_cell_angle_gamma	83.914173
loop_
_atom_site_label
_atom_site_type_symbol
_atom_site_fract_x
_atom_site_fract_y
_atom_site_fract_z
O1	O	1.196945	0.148181	-0.079765
O2	O	0.934554	0.165833	-0.079782
O3	O	1.072117	-0.008203	-0.079766
O4	O	1.059382	0.322217	-0.079780
O5	O	1.072098	-0.008206	0.079896
O6	O	0.934535	0.165829	0.079880
O7	O	1.196926	0.148177	0.079897
Zn8	Zn	1.065728	0.157003	0.105238
Zn9	Zn	1.065753	0.157008	-0.105123
O10	O	1.059363	0.322213	0.079881
C11	C	0.900953	0.165032	0.000047
C12	C	0.800860	0.162635	0.000041
C13	C	0.387884	0.049122	0.000068
C14	C	0.367408	0.255880	0.000058
C15	C	0.461451	0.258134	0.000055
C16	C	0.518715	0.155880	0.000056
C17	C	0.481936	0.051372	0.000062
C18	C	0.498237	0.362640	0.000040
C19	C	0.592285	0.364898	0.000035
C20	C	0.649550	0.262642	0.000044
C21	C	0.612766	0.158131	0.000050
C22	C	0.670030	0.055877	0.000052
C23	C	0.633248	-0.048637	0.000065
C24	C	0.539201	-0.050883	0.000070
C25	C	0.743596	0.264889	0.000039
C26	C	0.764081	0.058127	0.000046
C27	C	1.071308	-0.050491	0.000064
C28	C	1.068913	-0.176489	0.000063
C29	C	1.064511	-0.407174	0.000047
C30	C	1.066957	-0.278804	0.000056
C31	C	1.230527	0.148979	0.000066
C32	C	1.330621	0.151376	0.000066
C33	C	1.060173	0.364501	0.000049
C34	C	1.062567	0.490500	0.000044
N35	N	1.065717	0.156999	0.248804
N36	N	1.065771	0.157003	-0.248689
C37	C	1.004838	0.234041	0.701067
C38	C	1.126693	0.079966	0.701050
C39	C	1.126682	0.079963	0.600554
C40	C	1.065749	0.157000	0.550310
C41	C	1.004827	0.234042	0.600562
C42	C	1.187610	0.002930	0.550295
C43	C	1.187602	0.002925	0.449793
C44	C	1.126664	0.079958	0.399547
C45	C	1.065738	0.157001	0.449805
C46	C	1.004805	0.234039	0.399561
C47	C	0.943875	0.311078	0.449817
C48	C	0.943889	0.311075	0.550316
C49	C	1.126650	0.079961	0.299048
C50	C	1.004794	0.234040	0.299056
H51	H	0.622224	0.449998	0.000025
C52	C	0.755099	0.441807	-0.082056
C53	C	0.784028	0.379758	0.000025
H54	H	0.780055	0.512729	-0.082059
H55	H	0.774727	0.399697	-0.137718
H56	H	0.690892	0.455092	-0.082046
H57	H	0.848234	0.366465	0.000011
H58	H	0.764405	0.421877	0.055702
H59	H	0.894282	0.373798	0.591241
C60	C	0.849095	0.300315	0.732028
C61	C	0.937863	0.318714	0.756306
H62	H	0.807749	0.352584	0.766138
H63	H	0.840378	0.311349	0.664992
H64	H	0.838955	0.224537	0.748507
H65	H	0.948005	0.394490	0.739821
H66	H	0.946584	0.307690	0.823357
H67	H	1.176263	0.017242	0.258135
C68	C	0.884344	0.386341	0.309168
C69	C	0.937815	0.318727	0.243832
H70	H	0.842999	0.438627	0.275073
H71	H	0.851692	0.339018	0.348370
H72	H	0.922080	0.427249	0.348363
H73	H	0.900080	0.277812	0.204642
H74	H	0.970470	0.366057	0.204613
C75	C	0.786510	-0.136976	0.000056
C76	C	0.696198	-0.161033	0.000068
H77	H	0.825374	-0.206364	0.000063
H78	H	0.797703	-0.094138	-0.055624
H79	H	0.797705	-0.094126	0.055732
H80	H	0.685002	-0.203876	-0.055612
H81	H	0.685001	-0.203889	0.055754
C82	C	1.241398	-0.065865	0.295733
C83	C	1.254366	-0.082014	0.394555
H84	H	1.282557	-0.118377	0.261633
H85	H	1.181094	-0.078071	0.279405
H86	H	1.251764	0.009802	0.279141
H87	H	1.243993	-0.157679	0.411149
H88	H	1.314684	-0.069817	0.410890
C89	C	1.145505	-0.074443	0.814080
C90	C	1.193664	-0.004712	0.756280
H91	H	1.186852	-0.126727	0.848175
H92	H	1.109233	-0.028555	0.858383
H93	H	1.107781	-0.115354	0.774874
H94	H	1.231383	0.036206	0.795487
H95	H	1.229951	-0.050605	0.711972
H96	H	0.894266	0.373808	0.408897
C97	C	1.308044	-0.149385	0.540191
C98	C	1.254571	-0.081763	0.605522
H99	H	1.349382	-0.201674	0.574291
H100	H	1.270314	-0.190278	0.500993
H101	H	1.340711	-0.102058	0.500993
H102	H	1.221898	-0.129089	0.644715
H103	H	1.292305	-0.040866	0.644736
C104	C	0.404128	-0.146133	0.000069
C105	C	0.498768	-0.165756	0.000074
H106	H	0.379166	-0.217051	0.000064
H107	H	0.384512	-0.104037	0.055743
H108	H	0.384524	-0.104019	-0.055613
H109	H	0.518373	-0.207863	0.055760
H110	H	0.518392	-0.207870	-0.055605
C111	C	0.214152	0.344229	0.000065
C112	C	0.304467	0.368274	0.000059
H113	H	0.175293	0.413621	0.000074
H114	H	0.202954	0.301397	-0.055609
H115	H	0.202956	0.301376	0.055747
H116	H	0.315665	0.411120	-0.055627
H117	H	0.315669	0.411124	0.055739
C118	C	0.451810	0.538164	-0.082056
C119	C	0.435289	0.475028	0.000030
H120	H	0.412939	0.607546	-0.082063
H121	H	0.513074	0.554470	-0.082057
H122	H	0.440605	0.495299	-0.137721
H123	H	0.446500	0.517890	0.055695
H124	H	0.374010	0.458725	0.000040
H125	H	0.810700	-0.025142	0.000052
H126	H	0.357932	-0.035970	0.000082
