data_functionalizedCrystal
_audit_creation_method	'MofGen! by Chris Wilmer'
_symmetry_space_group_name_H-M	'P1'
_symmetry_Int_Tables_number	1
_symmetry_cell_setting	triclinic
loop_
_symmetry_equiv_pos_as_xyz
  x,y,z
_cell_length_a	13.033291
_cell_length_b	18.101397
_cell_length_c	18.101375
_cell_angle_alpha	89.899245
_cell_angle_beta	82.758447
_cell_angle_gamma	97.189668
loop_
_atom_site_label
_atom_site_type_symbol
_atom_site_fract_x
_atom_site_fract_y
_atom_site_fract_z
Zn1	Zn	1.598324	-0.150446	-0.562825
Zn2	Zn	2.098324	0.349554	-0.062825
Zn3	Zn	1.598081	-0.274466	-0.438956
Zn4	Zn	2.098081	0.225534	0.061044
Zn5	Zn	1.423413	-0.166366	-0.423228
Zn6	Zn	1.923413	0.333634	0.076772
Zn7	Zn	1.423505	-0.289987	-0.547017
Zn8	Zn	1.923505	0.210013	-0.047017
O9	O	1.510831	-0.220316	-0.493006
O10	O	2.010831	0.279684	0.006994
O11	O	1.744553	-0.153739	-0.559592
O12	O	2.244553	0.346261	-0.059592
O13	O	1.574770	-0.260293	-0.333224
O14	O	2.074770	0.239707	0.166776
O15	O	1.446679	-0.060615	-0.441780
O16	O	1.946679	0.439385	0.058220
O17	O	1.744374	-0.244856	-0.468586
O18	O	2.244374	0.255144	0.031414
O19	O	1.575185	-0.048919	-0.544341
O20	O	2.075185	0.451081	-0.044341
O21	O	1.446442	-0.180872	-0.321668
O22	O	1.946442	0.319128	0.178332
O23	O	1.277164	-0.195923	-0.426450
O24	O	1.777164	0.304077	0.073550
O25	O	1.446836	-0.271310	-0.652760
O26	O	1.946836	0.228690	-0.152760
O27	O	1.277231	-0.286747	-0.517398
O28	O	1.777231	0.213253	-0.017398
O29	O	1.575275	-0.168789	-0.664374
O30	O	2.075275	0.331211	-0.164374
O31	O	1.574859	-0.380163	-0.453257
O32	O	2.074859	0.119837	0.046743
O33	O	1.446599	-0.391567	-0.532648
O34	O	1.946599	0.108433	-0.032648
C35	C	1.239274	-0.244747	-0.468502
C36	C	1.739274	0.255253	0.031498
C37	C	1.123100	-0.255217	-0.458037
C38	C	1.623100	0.244783	0.041963
C39	C	0.951327	-0.225684	-0.487658
C40	C	1.451327	0.274316	0.012342
C41	C	1.071398	-0.214865	-0.498474
C42	C	1.571398	0.285135	0.001526
C43	C	1.510741	-0.412735	-0.492963
C44	C	2.010741	0.087265	0.007037
C45	C	1.510799	-0.495044	-0.492977
C46	C	2.010799	0.004956	0.007023
C47	C	1.510932	-0.794122	-0.493057
C48	C	2.010932	-0.294122	0.006943
C49	C	1.591404	-0.755612	-0.442932
C50	C	2.091404	-0.255612	0.057068
C51	C	1.591683	-0.669968	-0.443106
C52	C	2.091683	-0.169968	0.056894
C53	C	1.510866	-0.645746	-0.493017
C54	C	2.010866	-0.145746	0.006983
C55	C	1.540806	-0.673962	-0.573777
C56	C	2.040806	-0.173962	-0.073777
C57	C	1.541429	-0.759552	-0.573520
C58	C	2.041429	-0.259552	-0.073520
C59	C	1.400306	-0.772614	-0.463078
C60	C	1.900306	-0.272614	0.036922
C61	C	1.400850	-0.686918	-0.461384
C62	C	1.900850	-0.186918	0.038616
C63	C	1.510827	-0.561890	-0.492999
C64	C	2.010827	-0.061890	0.007001
C65	C	1.510974	-0.877978	-0.493080
C66	C	2.010974	-0.377978	0.006920
C67	C	1.783448	-0.195790	-0.517607
C68	C	2.283448	0.304210	-0.017607
C69	C	1.899622	-0.185339	-0.528090
C70	C	2.399622	0.314661	-0.028090
C71	C	1.511093	-0.220005	-0.686193
C72	C	2.011093	0.279995	-0.186193
C73	C	1.511204	-0.219872	-0.768517
C74	C	2.011204	0.280128	-0.268517
C75	C	1.510949	-0.027143	-0.493069
C76	C	2.010949	0.472857	0.006931
C77	C	1.510999	0.055175	-0.493096
C78	C	2.010999	0.555175	0.006904
C79	C	1.510630	-0.220567	-0.300577
C80	C	2.010630	0.279433	0.199423
C81	C	1.510721	-0.220473	-0.218272
C82	C	2.010721	0.279527	0.281728
C83	C	1.510883	-0.220271	-0.067578
C84	C	2.010883	0.279729	0.432422
C85	C	1.592236	-0.269730	-0.043507
C86	C	2.092236	0.230270	0.456493
C87	C	1.592643	-0.269417	0.042074
C88	C	2.092643	0.230583	0.542074
C89	C	1.511042	-0.220074	0.080790
C90	C	2.011042	0.279926	0.580790
C91	C	1.539794	-0.139271	0.046845
C92	C	2.039794	0.360729	0.546845
C93	C	1.540292	-0.139660	-0.038845
C94	C	2.040292	0.360340	0.461155
C95	C	1.400601	-0.250911	-0.025871
C96	C	1.900601	0.249089	0.474129
C97	C	1.401301	-0.252461	0.059721
C98	C	1.901301	0.247539	0.559721
C99	C	1.511131	-0.219958	0.164641
C100	C	2.011131	0.280042	0.664641
C101	C	1.510797	-0.220382	-0.151430
C102	C	2.010797	0.279618	0.348570
H103	H	1.572943	-0.650765	-0.383535
H104	H	2.072943	-0.150765	0.116465
H105	H	1.078480	-0.297771	-0.415411
H106	H	1.578480	0.202229	0.084589
H107	H	0.944247	-0.142784	-0.570709
H108	H	1.444247	0.357216	-0.070709
H109	H	1.340347	-0.798226	-0.499464
H110	H	1.840347	-0.298226	0.000536
H111	H	0.906701	-0.268232	-0.445032
H112	H	1.406701	0.231768	0.054968
H113	H	1.572889	-0.777993	-0.383208
H114	H	2.072889	-0.277993	0.116792
H115	H	1.373084	-0.796794	-0.404688
H116	H	1.873084	-0.296794	0.095312
H117	H	1.672900	-0.769728	-0.463364
H118	H	2.172900	-0.269728	0.036636
H119	H	1.340005	-0.215013	-0.040720
H120	H	1.840005	0.284987	0.459280
H121	H	1.379596	-0.311982	0.082192
H122	H	1.879596	0.188018	0.582192
H123	H	1.337661	-0.671173	-0.494419
H124	H	1.837661	-0.171173	0.005581
H125	H	1.620876	-0.114940	-0.066237
H126	H	2.120876	0.385060	0.433763
H127	H	1.619533	-0.114285	0.060954
H128	H	2.119533	0.385715	0.560954
H129	H	1.574837	-0.329003	0.064890
H130	H	2.074837	0.170997	0.564890
H131	H	1.673504	-0.248809	-0.072500
H132	H	2.173504	0.251191	0.427500
H133	H	1.374164	-0.309439	-0.044891
H134	H	1.874164	0.190561	0.455109
H135	H	1.673627	-0.642032	-0.463730
H136	H	2.173627	-0.142032	0.036270
H137	H	1.337580	-0.219873	0.086828
H138	H	1.837580	0.280127	0.586828
H139	H	1.116019	-0.172308	-0.541097
H140	H	1.616019	0.327692	-0.041097
H141	H	1.485388	-0.785269	-0.612694
H142	H	1.985388	-0.285269	-0.112694
H143	H	1.622294	-0.772171	-0.597757
H144	H	2.122294	-0.272171	-0.097757
H145	H	1.483989	-0.658664	-0.612557
H146	H	1.983989	-0.158664	-0.112557
H147	H	1.620766	-0.645236	-0.598218
H148	H	2.120766	-0.145236	-0.098218
H149	H	1.378277	-0.668762	-0.401902
H150	H	1.878277	-0.168762	0.098098
H151	H	1.674422	-0.248233	0.055047
H152	H	2.174422	0.251767	0.555047
H153	H	1.574541	-0.329530	-0.062307
H154	H	2.074541	0.170470	0.437693
H155	H	1.483561	-0.100967	-0.054521
H156	H	1.983561	0.399033	0.445479
H157	H	1.482371	-0.100898	0.072319
H158	H	1.982371	0.399102	0.572319
