data_functionalizedCrystal
_audit_creation_method	'MofGen! by Chris Wilmer'
_symmetry_space_group_name_H-M	'P1'
_symmetry_Int_Tables_number	1
_symmetry_cell_setting	triclinic
loop_
_symmetry_equiv_pos_as_xyz
  x,y,z
_cell_length_a	12.759400
_cell_length_b	12.759401
_cell_length_c	12.759393
_cell_angle_alpha	89.977503
_cell_angle_beta	90.030490
_cell_angle_gamma	89.984494
loop_
_atom_site_label
_atom_site_type_symbol
_atom_site_fract_x
_atom_site_fract_y
_atom_site_fract_z
Zn1	Zn	-0.418192	-1.606266	0.594064
Zn2	Zn	0.081808	-1.106266	1.094064
Zn3	Zn	-0.593908	-1.606158	0.418384
Zn4	Zn	-0.093908	-1.106158	0.918384
Zn5	Zn	-0.418246	-1.430565	0.418394
Zn6	Zn	0.081754	-0.930565	0.918394
Zn7	Zn	-0.593832	-1.430557	0.594016
Zn8	Zn	-0.093832	-0.930557	1.094016
O9	O	-0.506045	-1.518387	0.506215
O10	O	-0.006045	-1.018387	1.006215
O11	O	-0.441511	-1.753273	0.570775
O12	O	0.058489	-1.253273	1.070775
O13	O	-0.570660	-1.582823	0.271364
O14	O	-0.070660	-1.082823	0.771364
O15	O	-0.271218	-1.453921	0.441721
O16	O	0.228782	-0.953921	0.941721
O17	O	-0.570608	-1.753193	0.441704
O18	O	-0.070608	-1.253193	0.941704
O19	O	-0.271178	-1.583008	0.570785
O20	O	0.228822	-1.083008	1.070785
O21	O	-0.441602	-1.453816	0.271372
O22	O	0.058398	-0.953816	0.771372
O23	O	-0.441529	-1.283543	0.441675
O24	O	0.058471	-0.783543	0.941675
O25	O	-0.570479	-1.453908	0.741044
O26	O	-0.070479	-0.953908	1.241044
O27	O	-0.570531	-1.283537	0.570704
O28	O	-0.070531	-0.783537	1.070704
O29	O	-0.441437	-1.583000	0.741079
O30	O	0.058563	-1.083000	1.241079
O31	O	-0.740919	-1.582815	0.441658
O32	O	-0.240919	-1.082815	0.941658
O33	O	-0.740863	-1.453802	0.570694
O34	O	-0.240863	-0.953802	1.070694
C35	C	-0.506029	-1.245419	0.506186
C36	C	-0.006029	-0.745419	1.006186
C37	C	-0.506047	-1.128643	0.506199
C38	C	-0.006047	-0.628643	1.006199
C39	C	-0.573320	-1.073805	0.573277
C40	C	-0.073320	-0.573805	1.073277
C41	C	-0.573323	-0.964081	0.573295
C42	C	-0.073323	-0.464081	1.073295
C43	C	-0.438776	-0.964042	0.439148
C44	C	0.061224	-0.464042	0.939148
C45	C	-0.438769	-1.073764	0.439136
C46	C	0.061231	-0.573764	0.939136
C47	C	-0.779012	-1.518324	0.506193
C48	C	-0.279012	-1.018324	1.006193
C49	C	-0.895789	-1.518394	0.506218
C50	C	-0.395789	-1.018394	1.006218
C51	C	-0.950645	-1.585645	0.439104
C52	C	-0.450645	-1.085645	0.939104
C53	C	-1.060369	-1.585710	0.439136
C54	C	-0.560369	-1.085710	0.939136
C55	C	-1.060371	-1.451262	0.573401
C56	C	-0.560371	-0.951262	1.073401
C57	C	-0.950649	-1.451204	0.573373
C58	C	-0.450649	-0.951204	1.073373
C59	C	-0.895784	-1.652835	0.371949
C60	C	-0.395784	-1.152835	0.871949
C61	C	-0.950641	-1.720091	0.304827
C62	C	-0.450641	-1.220091	0.804827
C63	C	-1.060365	-1.720156	0.304860
C64	C	-0.560365	-1.220156	0.804860
C65	C	-1.115232	-1.652964	0.372014
C66	C	-0.615232	-1.152964	0.872014
C67	C	-0.232011	-1.518478	0.506260
C68	C	0.267989	-1.018478	1.006260
C69	C	-0.115235	-1.518517	0.506279
C70	C	0.384765	-1.018517	1.006279
C71	C	-0.505944	-1.518465	0.780248
C72	C	-0.005944	-1.018465	1.280248
C73	C	-0.505901	-1.518499	0.897025
C74	C	-0.005901	-1.018499	1.397025
C75	C	-0.506059	-0.792420	0.506237
C76	C	-0.006059	-0.292420	1.006237
C77	C	-0.506057	-0.909197	0.506229
C78	C	-0.006057	-0.409197	1.006229
C79	C	-0.506069	-1.518369	0.233247
C80	C	-0.006069	-1.018369	0.733247
C81	C	-0.505816	-1.518539	0.116471
C82	C	-0.005816	-1.018539	0.616471
C83	C	-0.438698	-1.585722	0.951907
C84	C	0.061302	-1.085722	1.451907
C85	C	-0.438653	-1.585740	1.061631
C86	C	0.061347	-1.085740	1.561631
C87	C	-0.573022	-1.451308	1.061582
C88	C	-0.073022	-0.951308	1.561582
C89	C	-0.573061	-1.451285	0.951860
C90	C	-0.073061	-0.951285	1.451860
H91	H	-0.628099	-1.118484	0.627887
H92	H	-0.128099	-0.618484	1.127887
H93	H	-0.384003	-0.919346	0.384546
H94	H	0.115997	-0.419346	0.884546
Cl95	Cl	-0.881682	-1.366659	0.657750
Cl96	Cl	-0.381682	-0.866659	1.157750
Cl97	Cl	-0.657454	-1.366821	1.130524
Cl98	Cl	-0.157454	-0.866821	1.630524
Cl99	Cl	-1.129324	-1.804714	0.220490
Cl100	Cl	-0.629324	-1.304714	0.720490
Cl101	Cl	-0.657546	-1.366763	0.882860
Cl102	Cl	-0.157546	-0.866763	1.382860
Cl103	Cl	-0.354264	-1.670215	0.882975
Cl104	Cl	0.145736	-1.170215	1.382975
H105	H	-0.628102	-0.919437	0.627918
H106	H	-0.128102	-0.419437	1.127918
Cl107	Cl	-0.354183	-1.142708	0.354809
Cl108	Cl	0.145817	-0.642708	0.854809
H109	H	-0.806442	-1.652787	0.371912
H110	H	-0.306442	-1.152787	0.871912
Cl111	Cl	-0.354174	-1.670263	1.130621
Cl112	Cl	0.145826	-1.170263	1.630621
Cl113	Cl	-0.881666	-1.804566	0.220421
Cl114	Cl	-0.381666	-1.304566	0.720421
H115	H	-1.204577	-1.653031	0.372043
H116	H	-0.704577	-1.153031	0.872043
Cl117	Cl	-1.129349	-1.366796	0.657813
Cl118	Cl	-0.629349	-0.866796	1.157813
