data_functionalizedCrystal
_audit_creation_method	'MofGen! by Chris Wilmer'
_symmetry_space_group_name_H-M	'P1'
_symmetry_Int_Tables_number	1
_symmetry_cell_setting	triclinic
loop_
_symmetry_equiv_pos_as_xyz
  x,y,z
_cell_length_a	8.559649
_cell_length_b	18.266242
_cell_length_c	8.559649
_cell_angle_alpha	89.996016
_cell_angle_beta	110.221336
_cell_angle_gamma	90.008663
loop_
_atom_site_label
_atom_site_type_symbol
_atom_site_fract_x
_atom_site_fract_y
_atom_site_fract_z
O1	O	2.126892	0.060869	0.055037
O2	O	1.651407	0.060872	-0.028745
O3	O	1.931040	0.060870	0.250888
O4	O	1.847259	0.060872	-0.224596
O5	O	1.930999	-0.060892	0.250890
O6	O	1.651366	-0.060890	-0.028743
O7	O	2.126850	-0.060893	0.055038
Zn8	Zn	1.889101	-0.080223	0.013148
Zn9	Zn	1.889156	0.080203	0.013146
O10	O	1.847217	-0.060890	-0.224595
C11	C	1.591077	-0.000008	-0.035093
C12	C	1.411378	-0.000007	-0.053992
N13	N	1.889076	-0.189710	0.013152
C14	C	1.975368	-0.228013	-0.073234
C15	C	1.975395	-0.304658	-0.073226
C16	C	1.889098	-0.342997	0.013145
C17	C	1.802803	-0.304685	0.099551
C18	C	1.802791	-0.228042	0.099554
N19	N	1.747551	-0.463349	0.000140
N20	N	1.747565	-0.536157	0.000128
C21	C	1.889130	-0.573920	0.013143
N22	N	2.030678	-0.536124	0.026140
N23	N	2.030661	-0.463309	0.026143
C24	C	1.889102	-0.426104	0.013152
C25	C	1.975459	-0.695330	-0.073239
C26	C	1.975492	-0.771976	-0.073219
C27	C	1.802883	-0.772001	0.099547
C28	C	1.802867	-0.695357	0.099539
C29	C	1.889151	-0.657025	0.013136
C30	C	2.187180	-0.000010	0.061387
C31	C	2.366879	-0.000007	0.080286
C32	C	1.937369	-0.000010	0.311198
C33	C	1.956268	-0.000006	0.490898
N34	N	1.889196	0.189690	0.013156
C35	C	1.840889	-0.000009	-0.284904
C36	C	1.821990	-0.000008	-0.464604
H37	H	1.311990	-0.000003	-0.183420
C38	C	1.708989	-0.653898	0.193344
C39	C	1.633381	-0.703875	0.268954
C40	C	1.546869	-0.665710	0.355371
H41	H	1.784462	-0.623992	0.276239
H42	H	1.626089	-0.624021	0.117764
H43	H	1.716271	-0.733739	0.344528
H44	H	1.557882	-0.733782	0.186096
H45	H	1.463969	-0.635833	0.279791
H46	H	1.622354	-0.635806	0.438258
H47	H	1.495547	-0.699614	0.406670
H48	H	2.085696	-0.000012	0.590286
H49	H	2.045635	-0.196809	-0.143582
H50	H	1.466258	-0.000004	0.209705
C51	C	1.709385	-0.186408	0.193575
C52	C	1.821209	-0.142407	0.315474
C53	C	1.735219	-0.104049	0.402121
H54	H	1.626571	-0.156460	0.118145
H55	H	1.658033	-0.220190	0.245123
H56	H	1.872535	-0.108630	0.263927
H57	H	1.904026	-0.172338	0.390939
H58	H	1.683866	-0.137830	0.453669
H59	H	1.652407	-0.074105	0.326678
H60	H	1.811080	-0.074195	0.484848
H61	H	1.732541	-0.335906	0.169877
H62	H	2.045665	-0.335851	-0.143577
H63	H	2.045719	-0.664119	-0.143591
H64	H	2.045773	-0.803161	-0.143559
C65	C	1.649314	0.000112	0.403072
C66	C	1.562985	0.062746	0.421446
C67	C	1.403902	0.062877	0.299582
H68	H	1.658882	0.000153	0.295770
H69	H	1.590377	-0.042328	0.415268
H70	H	1.621907	0.105174	0.409236
H71	H	1.553371	0.062718	0.528722
H72	H	1.344965	0.020437	0.311778
H73	H	1.413486	0.062916	0.192289
H74	H	1.345303	0.105369	0.312042
H75	H	1.732620	-0.803216	0.169875
