data_functionalizedCrystal
_audit_creation_method	'MofGen! by Chris Wilmer'
_symmetry_space_group_name_H-M	'P1'
_symmetry_Int_Tables_number	1
_symmetry_cell_setting	triclinic
loop_
_symmetry_equiv_pos_as_xyz
  x,y,z
_cell_length_a	10.540535
_cell_length_b	10.540539
_cell_length_c	9.016244
_cell_angle_alpha	89.999933
_cell_angle_beta	89.995024
_cell_angle_gamma	84.524567
loop_
_atom_site_label
_atom_site_type_symbol
_atom_site_fract_x
_atom_site_fract_y
_atom_site_fract_z
O1	O	1.685896	0.178868	-0.123252
O2	O	1.316483	0.195730	-0.123272
O3	O	1.509617	0.002592	-0.123259
O4	O	1.492762	0.372005	-0.123264
O5	O	1.509589	0.002596	0.123421
O6	O	1.316454	0.195734	0.123409
O7	O	1.685868	0.178872	0.123429
Cu8	Cu	1.501158	0.187304	0.145943
Cu9	Cu	1.501192	0.187298	-0.145785
O10	O	1.492733	0.372010	0.123417
C11	C	1.269165	0.194469	0.000066
C12	C	1.128217	0.190689	0.000058
C13	C	1.508339	-0.044709	0.000078
C14	C	1.504557	-0.185657	0.000070
C15	C	1.091546	0.049675	0.000066
C16	C	0.944946	0.045698	0.000641
C17	C	0.918865	0.255062	0.140668
C18	C	1.065630	0.258062	0.140771
C19	C	1.065546	0.260109	-0.139761
C20	C	0.919200	0.253588	-0.141594
C21	C	1.359640	-0.369081	-0.000491
C22	C	1.363474	-0.222463	0.000064
C23	C	1.572437	-0.247313	0.140941
C24	C	1.567622	-0.393857	0.141059
C25	C	1.570524	-0.394381	-0.139463
C26	C	1.571823	-0.247399	-0.141325
C27	C	1.733185	0.180133	0.000088
C28	C	1.874134	0.183913	0.000086
C29	C	1.494011	0.419311	0.000076
C30	C	1.497793	0.560259	0.000074
N31	N	1.501144	0.187306	0.351129
N32	N	1.501216	0.187286	-0.350972
C33	C	1.397513	0.290276	0.586155
C34	C	1.397742	0.290661	0.414264
C35	C	1.633867	0.217438	0.413475
C36	C	1.633302	0.218167	0.585419
C37	C	1.473370	0.053868	0.585673
C38	C	1.470325	0.054733	0.413718
H39	H	0.915620	-0.009945	-0.100113
H40	H	1.105789	0.210016	0.246262
H41	H	1.310061	-0.179861	-0.100918
C42	C	1.712398	-0.217091	0.148048
N43	N	1.817814	-0.194317	0.153405
H44	H	1.712923	0.144473	0.372575
C45	C	1.667498	0.347459	0.355300
N46	N	1.692818	0.445398	0.311491
H47	H	1.108018	0.216105	-0.246354
C48	C	1.345355	0.015152	0.644307
N49	N	1.248928	-0.013994	0.688470
H50	H	0.916481	-0.009669	0.102012
H51	H	1.372687	0.031894	0.372971
C52	C	1.740794	0.120800	0.641607
N53	N	1.821771	0.047481	0.683920
C54	C	1.508698	-0.189771	0.282559
N55	N	1.460681	-0.146432	0.389223
C56	C	1.708188	-0.458190	-0.140742
N57	N	1.811872	-0.506260	-0.141697
C58	C	1.096747	0.397715	0.148870
N59	N	1.120178	0.502899	0.154980
C60	C	1.148283	-0.023496	-0.136094
N61	N	1.191036	-0.078611	-0.238647
C62	C	1.421377	0.423244	0.644504
N63	N	1.439356	0.523394	0.688455
C64	C	0.877111	0.189117	0.282556
N65	N	0.845666	0.139440	0.389422
C66	C	1.499803	-0.431951	0.283303
N67	N	1.448715	-0.460637	0.390442
H68	H	1.309664	-0.180704	0.101208
C69	C	1.565624	-0.053778	0.355698
N70	N	1.637422	-0.135505	0.312010
H71	H	1.524874	-0.425935	-0.246233
C72	C	1.666178	0.349673	0.639582
N73	N	1.690932	0.448731	0.680370
C74	C	0.854877	0.392539	0.147208
N75	N	0.806676	0.496085	0.152134
C76	C	1.504790	-0.192129	-0.282117
N77	N	1.454288	-0.150504	-0.388159
C78	C	1.575511	-0.049692	0.640609
N79	N	1.652446	-0.127685	0.681997
C80	C	1.150225	-0.022252	0.136072
N81	N	1.194419	-0.076423	0.238518
H82	H	0.890610	0.201810	-0.245598
C83	C	1.095530	0.400268	-0.141610
N84	N	1.118123	0.505831	-0.142994
H85	H	0.870153	0.354461	-0.150521
H86	H	1.303920	-0.397682	-0.101512
C87	C	1.284653	-0.409846	0.135242
N88	N	1.228182	-0.440539	0.237489
H89	H	1.669086	-0.441827	0.147455
C90	C	1.710791	-0.214690	-0.152806
N91	N	1.815468	-0.190059	-0.161439
H92	H	1.299125	0.272532	0.372115
H93	H	1.298587	0.272425	0.627543
H94	H	1.415641	0.389645	0.373117
