data_functionalizedCrystal
_audit_creation_method	'MofGen! by Chris Wilmer'
_symmetry_space_group_name_H-M	'P1'
_symmetry_Int_Tables_number	1
_symmetry_cell_setting	triclinic
loop_
_symmetry_equiv_pos_as_xyz
  x,y,z
_cell_length_a	13.930277
_cell_length_b	8.559649
_cell_length_c	8.559649
_cell_angle_alpha	69.778664
_cell_angle_beta	89.996782
_cell_angle_gamma	89.993094
loop_
_atom_site_label
_atom_site_type_symbol
_atom_site_fract_x
_atom_site_fract_y
_atom_site_fract_z
O1	O	0.079816	-2.126888	0.055037
O2	O	0.079820	-1.651403	-0.028744
O3	O	0.079816	-1.931036	0.250889
O4	O	0.079819	-1.847255	-0.224596
O5	O	-0.079845	-1.931002	0.250890
O6	O	-0.079842	-1.651369	-0.028743
O7	O	-0.079846	-2.126854	0.055038
Zn8	Zn	-0.105194	-1.889106	0.013148
Zn9	Zn	0.105167	-1.889151	0.013146
O10	O	-0.079843	-1.847221	-0.224595
C11	C	-0.000011	-1.591077	-0.035093
C12	C	-0.000009	-1.411378	-0.053992
N13	N	-0.248760	-1.889088	0.013151
C14	C	-0.000013	-1.937369	0.311198
C15	C	-0.000008	-1.956268	0.490898
C16	C	-0.701028	-1.765331	-0.110632
C17	C	-0.701000	-2.013018	0.136943
C18	C	-0.600504	-2.012999	0.136946
C19	C	-0.550266	-1.889146	0.013156
C20	C	-0.600523	-1.765311	-0.110636
C21	C	-0.550240	-2.136841	0.260726
C22	C	-0.449738	-2.136829	0.260733
C23	C	-0.399497	-2.012967	0.136949
C24	C	-0.449761	-1.889126	0.013152
C25	C	-0.399522	-1.765273	-0.110638
C26	C	-0.449784	-1.641424	-0.234429
C27	C	-0.550282	-1.641449	-0.234421
C28	C	-0.298999	-2.012941	0.136941
C29	C	-0.299017	-1.765253	-0.110641
N30	N	0.248733	-1.889184	0.013157
C31	C	-0.000014	-2.187180	0.061387
C32	C	-0.000009	-2.366879	0.080286
C33	C	-0.000012	-1.840889	-0.284904
C34	C	-0.000010	-1.821990	-0.464604
H35	H	-0.258119	-1.664391	-0.211442
H36	H	-0.000003	-1.311990	-0.183420
H37	H	-0.000013	-1.692570	0.436018
O38	O	-0.749737	-1.645065	-0.231091
C39	C	-0.725192	-1.651733	-0.388468
H40	H	-0.652219	-1.714284	-0.380635
H41	H	-0.781748	-1.726310	-0.428782
C42	C	-0.810183	-1.396955	-0.526122
C43	C	-0.720552	-1.473768	-0.516504
H44	H	-0.807324	-1.287180	-0.605104
H45	H	-0.826723	-1.392465	-0.420095
H46	H	-0.857304	-1.459119	-0.559711
H47	H	-0.673435	-1.411616	-0.482896
H48	H	-0.704004	-1.478244	-0.622529
H49	H	-0.408868	-1.540587	-0.335226
H50	H	-0.591212	-1.540617	-0.335208
H51	H	-0.000016	-2.085696	0.590286
O52	O	-0.401067	-2.257201	0.381149
C53	C	-0.466961	-2.366544	0.490381
H54	H	-0.538612	-2.300283	0.484084
H55	H	-0.477626	-2.480581	0.452424
C56	C	-0.339743	-2.502831	0.677212
C57	C	-0.427743	-2.421443	0.669489
H58	H	-0.315551	-2.536702	0.787694
H59	H	-0.295348	-2.429169	0.603619
H60	H	-0.348642	-2.597851	0.645573
H61	H	-0.418841	-2.326414	0.701107
H62	H	-0.472136	-2.495090	0.743092
O63	O	-0.250058	-2.133032	0.257182
C64	C	-0.191945	-2.058483	0.346703
H65	H	-0.176917	-1.923602	0.266626
H66	H	-0.230664	-2.062247	0.465293
C67	C	-0.114919	-2.319828	0.490816
C68	C	-0.096455	-2.154169	0.392459
H69	H	-0.056018	-2.378854	0.519049
H70	H	-0.154074	-2.370056	0.430510
H71	H	-0.147188	-2.322942	0.589630
H72	H	-0.064198	-2.151056	0.293640
H73	H	-0.057293	-2.103942	0.452750
H74	H	-0.741908	-2.113863	0.237722
H75	H	-0.000005	-1.466258	0.209705
H76	H	-0.591147	-2.237686	0.361506
