data_functionalizedCrystal
_audit_creation_method	'MofGen! by Chris Wilmer'
_symmetry_space_group_name_H-M	'P1'
_symmetry_Int_Tables_number	1
_symmetry_cell_setting	triclinic
loop_
_symmetry_equiv_pos_as_xyz
  x,y,z
_cell_length_a	27.731993
_cell_length_b	13.339070
_cell_length_c	11.804365
_cell_angle_alpha	74.887832
_cell_angle_beta	101.734368
_cell_angle_gamma	99.124843
loop_
_atom_site_label
_atom_site_type_symbol
_atom_site_fract_x
_atom_site_fract_y
_atom_site_fract_z
O1	O	-0.664434	-0.099380	-0.098692
O2	O	-0.164434	0.400620	0.401308
O3	O	-0.526165	-0.117686	-0.098763
O4	O	-0.026165	0.382314	0.401237
O5	O	-0.579430	0.038477	-0.098732
O6	O	-0.079430	0.538477	0.401268
O7	O	-0.611168	-0.255543	-0.098723
O8	O	-0.111168	0.244457	0.401277
O9	O	-0.565402	-0.002593	0.099316
O10	O	-0.065402	0.497407	0.599316
O11	O	-0.512136	-0.158756	0.099285
O12	O	-0.012136	0.341244	0.599285
O13	O	-0.650406	-0.140450	0.099356
O14	O	-0.150406	0.359550	0.599356
Cu15	Cu	-0.579990	-0.153353	0.117404
Cu16	Cu	-0.079990	0.346647	0.617404
Cu17	Cu	-0.596580	-0.104783	-0.116811
Cu18	Cu	-0.096580	0.395217	0.383189
O19	O	-0.597140	-0.296613	0.099325
O20	O	-0.097140	0.203387	0.599325
C21	C	-0.567055	0.055546	0.000287
C22	C	-0.067055	0.555546	0.500287
C23	C	-0.551075	0.167594	0.000274
C24	C	-0.051075	0.667594	0.500274
C25	C	-0.501092	-0.137843	0.000252
C26	C	-0.001092	0.362157	0.500252
C27	C	-0.447282	-0.136705	0.000224
C28	C	0.052718	0.363295	0.500224
C29	C	-0.675479	-0.120292	0.000339
C30	C	-0.175479	0.379708	0.500339
C31	C	-0.729290	-0.121429	0.000358
C32	C	-0.229290	0.378571	0.500358
C33	C	-0.070634	-0.106121	-0.107674
C34	C	0.429366	0.393879	0.392326
C35	C	-0.272888	-0.110431	-0.107706
C36	C	0.227112	0.389569	0.392294
O37	O	-0.305536	-0.091908	-0.199521
O38	O	0.194464	0.408092	0.300479
N39	N	-0.290536	-0.133358	0.000247
N40	N	0.209464	0.366642	0.500247
C41	C	-0.257616	-0.155203	0.108216
C42	C	0.242384	0.344797	0.608216
O43	O	-0.277267	-0.174792	0.200037
O44	O	0.222733	0.325208	0.700037
C45	C	-0.055363	-0.150885	0.108247
C46	C	0.444637	0.349115	0.608247
C47	C	-0.037719	-0.127967	0.000287
C48	C	0.462281	0.372033	0.500287
C49	C	-0.052989	-0.083203	-0.215626
C50	C	0.447011	0.416797	0.284374
C51	C	-0.002429	-0.082132	-0.215617
C52	C	0.497571	0.417868	0.284383
C53	C	0.030486	-0.103978	-0.107656
C54	C	0.530486	0.396022	0.392344
C55	C	0.012842	-0.126895	0.000296
C56	C	0.512842	0.373105	0.500296
C57	C	-0.022444	-0.172722	0.216215
C58	C	0.477556	0.327278	0.716215
C59	C	0.028123	-0.171638	0.216213
C60	C	0.528123	0.328362	0.716213
C61	C	0.045767	-0.148720	0.108253
C62	C	0.545767	0.351280	0.608253
C63	C	0.096317	-0.147670	0.108266
C64	C	0.596317	0.352330	0.608266
N65	N	0.113965	-0.124742	0.000312
N66	N	0.613965	0.375258	0.500312
C67	C	0.081050	-0.102896	-0.107649
C68	C	0.581050	0.397104	0.392351
C69	C	-0.363803	-0.157470	0.108192
C70	C	0.136197	0.342530	0.608192
C71	C	-0.414366	-0.158551	0.108185
C72	C	0.085634	0.341449	0.608185
C73	C	-0.429634	-0.113777	-0.107738
C74	C	0.070366	0.386223	0.392262
C75	C	-0.379071	-0.112703	-0.107729
C76	C	0.120929	0.387297	0.392271
C77	C	-0.346155	-0.134542	0.000239
C78	C	0.153845	0.365458	0.500239
C79	C	0.187230	-0.100649	-0.107621
C80	C	0.687230	0.399351	0.392379
C81	C	0.237795	-0.099583	-0.107603
C82	C	0.737795	0.400417	0.392397
C83	C	0.253059	-0.144351	0.108320
C84	C	0.753059	0.355649	0.608320
C85	C	0.202498	-0.145422	0.108302
C86	C	0.702498	0.354578	0.608302
C87	C	0.169585	-0.123565	0.000322
C88	C	0.669585	0.376435	0.500322
O89	O	0.128993	-0.166170	0.200032
O90	O	0.628993	0.333830	0.700032
O91	O	0.100712	-0.083287	-0.199455
O92	O	0.600712	0.416713	0.300545
C93	C	-0.121194	-0.107193	-0.107683
C94	C	0.378806	0.392807	0.392317
C95	C	-0.138839	-0.130110	0.000268
C96	C	0.361161	0.369890	0.500268
C97	C	-0.105924	-0.151956	0.108229
C98	C	0.394076	0.348044	0.608229
C99	C	-0.189402	-0.131191	0.000261
C100	C	0.310598	0.368809	0.500261
C101	C	-0.222317	-0.109345	-0.107700
C102	C	0.277683	0.390655	0.392300
C103	C	-0.204670	-0.086418	-0.215653
C104	C	0.295330	0.413582	0.284347
C105	C	-0.154109	-0.085347	-0.215644
C106	C	0.345891	0.414653	0.284356
C107	C	-0.123572	-0.174883	0.216183
C108	C	0.376428	0.325117	0.716183
C109	C	-0.174133	-0.175954	0.216165
C110	C	0.325867	0.324046	0.716165
C111	C	-0.207048	-0.154108	0.108204
C112	C	0.292952	0.345892	0.608204
C113	C	-0.609516	-0.313681	0.000303
C114	C	-0.109516	0.186319	0.500303
C115	C	-0.625496	-0.425728	0.000308
C116	C	-0.125496	0.074272	0.500308
N117	N	-0.568325	-0.187515	0.282138
N118	N	-0.068325	0.312485	0.782138
C119	C	-0.675329	0.534367	0.000339
C120	C	-0.175329	1.034367	0.500339
C121	C	-0.690344	0.429091	0.000358
C122	C	-0.190344	0.929091	0.500358
C123	C	-0.655528	0.363712	0.000336
C124	C	-0.155528	0.863712	0.500336
C125	C	-0.605695	0.403619	0.000297
C126	C	-0.105695	0.903619	0.500297
C127	C	-0.590677	0.508903	0.000288
C128	C	-0.090677	1.008903	0.500288
C129	C	-0.570876	0.338248	0.000285
C130	C	-0.070876	0.838248	0.500285
C131	C	-0.521043	0.378154	0.000246
C132	C	-0.021043	0.878154	0.500246
C133	C	-0.506028	0.483428	0.000236
C134	C	-0.006028	0.983428	0.500236
C135	C	-0.540844	0.548808	0.000257
C136	C	-0.040844	1.048808	0.500257
C137	C	-0.585894	0.232964	0.000295
C138	C	-0.085894	0.732964	0.500295
C139	C	-0.501242	0.207499	0.000244
C140	C	-0.001242	0.707499	0.500244
C141	C	-0.486227	0.312775	0.000225
C142	C	0.013773	0.812775	0.500225
N143	N	-0.608248	-0.070613	-0.281545
N144	N	-0.108248	0.429387	0.218455
C145	C	-0.636258	0.011440	0.656126
C146	C	-0.136258	0.511440	1.156126
C147	C	-0.645081	0.037287	0.531469
C148	C	-0.145081	0.537287	1.031469
C149	C	-0.625893	-0.018911	0.469130
C150	C	-0.125893	0.481089	0.969130
C151	C	-0.597880	-0.100961	0.531460
C152	C	-0.097880	0.399039	1.031460
C153	C	-0.589058	-0.126816	0.656129
C154	C	-0.089058	0.373184	1.156129
C155	C	-0.578693	-0.157167	0.469133
C156	C	-0.078693	0.342833	0.969133
C157	C	-0.550680	-0.239217	0.531463
C158	C	-0.050680	0.260783	1.031463
C159	C	-0.541860	-0.265068	0.656119
C160	C	-0.041860	0.234932	1.156119
C161	C	-0.561049	-0.208870	0.718458
C162	C	-0.061049	0.291130	1.218458
C163	C	-0.587515	-0.131312	0.344464
C164	C	-0.087515	0.368688	0.844464
C165	C	-0.540315	-0.269568	0.344467
C166	C	-0.040315	0.230432	0.844467
C167	C	-0.531492	-0.295415	0.469124
C168	C	-0.031492	0.204585	0.969124
H169	H	0.252157	-0.080922	-0.195521
H170	H	0.752157	0.419078	0.304479
Br171	Br	-0.625532	-0.019963	0.259889
Br172	Br	-0.125532	0.480037	0.759889
Br173	Br	-0.662304	0.087690	0.740728
Br174	Br	-0.162304	0.587690	1.240728
Br175	Br	-0.514276	-0.345849	0.259874
Br176	Br	-0.014276	0.154151	0.759874
H177	H	-0.528622	0.634534	0.000237
H178	H	-0.028622	1.134534	0.500237
H179	H	0.160437	-0.082852	-0.195549
H180	H	0.660437	0.417148	0.304451
H181	H	-0.465450	0.515914	0.000213
H182	H	0.034550	1.015914	0.500213
Br183	Br	-0.653522	0.178817	0.000352
Br184	Br	-0.153522	0.678817	0.500352
Br185	Br	-0.757974	0.374944	0.000386
Br186	Br	-0.257974	0.874944	0.500386
H187	H	-0.188493	-0.194627	0.304086
H188	H	0.311507	0.305373	0.804086
H189	H	0.188131	-0.164104	0.196212
H190	H	0.688131	0.335896	0.696212
H191	H	-0.519055	-0.331885	0.706869
H192	H	-0.019055	0.168115	1.206869
Br193	Br	-0.722571	0.623091	0.000396
Br194	Br	-0.222571	1.123091	0.500396
Br195	Br	-0.549069	-0.243944	0.887643
Br196	Br	-0.049069	0.256056	1.387643
Br197	Br	-0.418598	0.366947	0.000165
Br198	Br	0.081402	0.866947	0.500165
H199	H	-0.667756	0.277993	0.000352
H200	H	-0.167756	0.777993	0.500352
Br201	Br	-0.453987	0.118776	0.000229
Br202	Br	0.046013	0.618776	0.500229
H203	H	-0.508683	-0.362223	0.519888
H204	H	-0.008683	0.137777	1.019888
Br205	Br	-0.130172	-0.054242	-0.362170
Br206	Br	0.369828	0.445758	0.137830
H207	H	0.011932	-0.063465	-0.303529
H208	H	0.511932	0.436535	0.196471
Br209	Br	-0.355131	-0.081599	-0.254252
Br210	Br	0.144869	0.418401	0.245748
Br211	Br	-0.474315	-0.084134	-0.254256
Br212	Br	0.025685	0.415866	0.245744
H213	H	-0.231479	-0.068636	-0.303559
H214	H	0.268521	0.431364	0.196441
H215	H	-0.079784	-0.065409	-0.303546
H216	H	0.420216	0.434591	0.196454
H217	H	-0.428728	-0.177230	0.196097
H218	H	0.071272	0.322770	0.696097
H219	H	-0.667890	0.104091	0.480725
H220	H	-0.167890	0.604091	0.980725
Br221	Br	-0.319139	-0.187125	0.254736
Br222	Br	0.180861	0.312875	0.754736
H223	H	-0.036800	-0.191382	0.304128
H224	H	0.463200	0.308618	0.804128
Br225	Br	0.072792	-0.201269	0.362750
Br226	Br	0.572792	0.298731	0.862750
H227	H	0.279867	-0.162142	0.196219
H228	H	0.779867	0.337858	0.696219
H229	H	-0.096776	-0.192668	0.304099
H230	H	0.403224	0.307332	0.804099
H231	H	-0.633078	0.002138	0.367629
H232	H	-0.133078	0.502138	0.867629
