data_functionalizedCrystal
_audit_creation_method	'MofGen! by Chris Wilmer'
_symmetry_space_group_name_H-M	'P1'
_symmetry_Int_Tables_number	1
_symmetry_cell_setting	triclinic
loop_
_symmetry_equiv_pos_as_xyz
  x,y,z
_cell_length_a	29.839134
_cell_length_b	29.839125
_cell_length_c	21.295417
_cell_angle_alpha	90.018987
_cell_angle_beta	89.974633
_cell_angle_gamma	89.978020
loop_
_atom_site_label
_atom_site_type_symbol
_atom_site_fract_x
_atom_site_fract_y
_atom_site_fract_z
Zn1	Zn	0.686754	-0.254121	0.250784
Zn2	Zn	0.686700	-0.178989	0.356031
Zn3	Zn	0.611636	-0.178991	0.250770
Zn4	Zn	0.611599	-0.254078	0.356010
O5	O	0.649172	-0.216545	0.303398
O6	O	0.749614	-0.244172	0.264760
O7	O	0.676736	-0.116122	0.342071
O8	O	0.621639	-0.188975	0.162682
O9	O	0.749574	-0.188973	0.342084
O10	O	0.676828	-0.244174	0.162693
O11	O	0.621587	-0.116123	0.264736
O12	O	0.548764	-0.188933	0.264716
O13	O	0.621575	-0.316951	0.342048
O14	O	0.548736	-0.244100	0.342035
O15	O	0.676791	-0.316982	0.264739
O16	O	0.676699	-0.188931	0.444117
O17	O	0.621523	-0.244098	0.444102
C18	C	0.532450	-0.216512	0.303372
C19	C	0.482515	-0.216509	0.303375
C20	C	0.172867	-0.245234	0.343718
C21	C	-0.014806	-0.245254	0.343736
O22	O	-0.039075	-0.269659	0.378007
N23	N	-0.038270	-0.216578	0.303422
C24	C	-0.014812	-0.187898	0.263097
O25	O	-0.039076	-0.163511	0.228803
C26	C	0.172860	-0.187880	0.263077
C27	C	0.196321	-0.216555	0.303398
C28	C	0.196328	-0.273907	0.384036
C29	C	0.243243	-0.273900	0.384033
C30	C	0.266698	-0.245220	0.343713
C31	C	0.243236	-0.216548	0.303396
C32	C	0.196317	-0.159202	0.222749
C33	C	0.243238	-0.159201	0.222747
C34	C	0.266699	-0.187876	0.263068
C35	C	0.313606	-0.187861	0.263073
N36	N	0.337070	-0.216537	0.303387
C37	C	0.313616	-0.245217	0.343707
C38	C	-0.113343	-0.187908	0.263112
C39	C	-0.160261	-0.187912	0.263117
C40	C	-0.160251	-0.245269	0.343755
C41	C	-0.113333	-0.245263	0.343752
C42	C	-0.089879	-0.216584	0.303426
C43	C	0.412141	-0.245200	0.343700
C44	C	0.459061	-0.245189	0.343696
C45	C	0.459048	-0.187833	0.263055
C46	C	0.412132	-0.187842	0.263062
C47	C	0.388680	-0.216529	0.303386
O48	O	0.337904	-0.163473	0.228815
O49	O	0.337887	-0.269607	0.377986
C50	C	0.125951	-0.245242	0.343721
C51	C	0.102490	-0.216569	0.303403
C52	C	0.125944	-0.187889	0.263083
C53	C	0.055572	-0.216573	0.303409
C54	C	0.032118	-0.245252	0.343729
C55	C	0.055582	-0.273928	0.384043
C56	C	0.102497	-0.273921	0.384041
C57	C	0.102481	-0.159213	0.222769
C58	C	0.055565	-0.159222	0.222775
C59	C	0.032111	-0.187902	0.263095
C60	C	0.649184	-0.333723	0.303393
C61	C	0.649190	-0.383657	0.303390
C62	C	0.677971	-0.693321	0.263030
C63	C	0.677993	-0.880994	0.262977
O64	O	0.702431	-0.905275	0.228720
N65	N	0.649249	-0.904443	0.303222
C66	C	0.620495	-0.880971	0.343480
O67	O	0.596044	-0.905222	0.377706
C68	C	0.620471	-0.693298	0.343531
C69	C	0.649220	-0.669852	0.303287
C70	C	0.706717	-0.669874	0.222790
C71	C	0.706713	-0.622958	0.222806
C72	C	0.677963	-0.599490	0.263063
C73	C	0.649216	-0.622936	0.303303
C74	C	0.591716	-0.669827	0.383786
C75	C	0.591711	-0.622906	0.383793
C76	C	0.620460	-0.599460	0.343550
C77	C	0.620461	-0.552552	0.343576
N78	N	0.649205	-0.529103	0.303331
C79	C	0.677956	-0.552572	0.263074
C80	C	0.620511	-0.979501	0.343452
C81	C	0.620517	-1.026419	0.343441
C82	C	0.678015	-1.026439	0.262936
C83	C	0.678010	-0.979520	0.262951
C84	C	0.649255	-0.956052	0.303207
C85	C	0.677945	-0.454046	0.263112
C86	C	0.677940	-0.407126	0.263134
C87	C	0.620441	-0.407111	0.343636
C88	C	0.620448	-0.454026	0.343617
C89	C	0.649202	-0.477493	0.303350
O90	O	0.596033	-0.528242	0.377810
O91	O	0.702397	-0.528313	0.228844
C92	C	0.677975	-0.740236	0.263014
C93	C	0.649229	-0.763683	0.303255
C94	C	0.620478	-0.740214	0.343511
C95	C	0.649235	-0.810601	0.303243
C96	C	0.677986	-0.834069	0.262986
C97	C	0.706730	-0.810620	0.222741
C98	C	0.706726	-0.763705	0.222757
C99	C	0.591734	-0.763663	0.383757
C100	C	0.591741	-0.810579	0.383738
C101	C	0.620491	-0.834047	0.343481
C102	C	0.766351	-0.216577	0.303426
C103	C	0.816285	-0.216591	0.303437
C104	C	0.649113	-0.216520	0.466950
C105	C	0.649129	-0.216524	0.536918
C106	C	0.649186	-0.099822	0.303359
C107	C	0.649268	-0.049888	0.303184
C108	C	0.649244	-0.216579	0.139208
C109	C	0.649274	-0.216594	0.069240
C110	C	0.677885	-0.187828	0.569772
C111	C	0.677906	-0.187838	0.635515
C112	C	0.649163	-0.216540	0.668401
C113	C	0.620405	-0.245241	0.635539
C114	C	0.620388	-0.245234	0.569798
N115	N	0.609863	-0.219954	0.771663
N116	N	0.609880	-0.219958	0.834114
C117	C	0.649214	-0.216565	0.866475
N118	N	0.688530	-0.213159	0.834026
N119	N	0.688512	-0.213152	0.771569
C120	C	0.649179	-0.216551	0.739686
C121	C	0.677995	-0.187879	0.970615
C122	C	0.678017	-0.187892	1.036358
C123	C	0.620512	-0.245293	1.036382
C124	C	0.620494	-0.245282	0.970639
C125	C	0.649235	-0.216572	0.937760
H126	H	0.478161	-0.268539	0.376532
H127	H	0.478153	-0.164481	0.230230
H128	H	-0.094251	-0.164552	0.230272
H129	H	0.701353	-0.388038	0.230362
H130	H	0.262341	-0.297251	0.416866
H131	H	0.597043	-0.473117	0.376392
H132	H	0.597112	-1.045506	0.376218
H133	H	0.701399	-0.164503	0.943843
H134	H	0.701289	-0.164452	0.543003
H135	H	0.597095	-0.960398	0.376238
H136	H	0.568305	-0.688909	0.416556
H137	H	-0.094234	-0.268613	0.376585
H138	H	0.596971	-0.268602	0.543047
H139	H	0.177237	-0.297264	0.416869
H140	H	0.701436	-0.164525	1.063107
H141	H	0.730123	-0.603872	0.190034
H142	H	0.701325	-0.164471	0.662269
H143	H	0.393029	-0.164492	0.230230
H144	H	0.597003	-0.268611	0.662319
H145	H	-0.179356	-0.268622	0.376586
H146	H	0.597110	-0.268664	1.063157
H147	H	0.393052	-0.268560	0.376534
H148	H	-0.179359	-0.164558	0.230290
H149	H	0.701425	-1.045555	0.230157
H150	H	0.177223	-0.135851	0.189917
H151	H	0.121595	-0.297271	0.416874
H152	H	0.568290	-0.603801	0.416569
H153	H	0.597035	-0.387994	0.376414
H154	H	0.597076	-0.268647	0.943888
H155	H	0.701419	-0.960433	0.230180
H156	H	0.262331	-0.135849	0.189904
H157	H	0.036467	-0.135868	0.189941
H158	H	0.121572	-0.135858	0.189934
H159	H	0.036477	-0.297279	0.416875
H160	H	0.701358	-0.473147	0.230320
H161	H	0.730129	-0.688977	0.190004
H162	H	0.730141	-0.829737	0.189964
H163	H	0.568331	-0.829665	0.416515
H164	H	0.730136	-0.744619	0.189986
H165	H	0.568322	-0.744559	0.416540
