data_functionalizedCrystal
_audit_creation_method	'MofGen! by Chris Wilmer'
_symmetry_space_group_name_H-M	'P1'
_symmetry_Int_Tables_number	1
_symmetry_cell_setting	triclinic
loop_
_symmetry_equiv_pos_as_xyz
  x,y,z
_cell_length_a	16.109301
_cell_length_b	16.109302
_cell_length_c	15.186229
_cell_angle_alpha	89.994701
_cell_angle_beta	89.994833
_cell_angle_gamma	83.461631
loop_
_atom_site_label
_atom_site_type_symbol
_atom_site_fract_x
_atom_site_fract_y
_atom_site_fract_z
O1	O	0.106869	1.103130	-0.073271
O2	O	0.120168	0.861068	-0.073264
O3	O	-0.007513	0.988749	-0.073259
O4	O	0.234549	0.975450	-0.073276
O5	O	-0.007514	0.988740	0.073198
O6	O	0.120166	0.861060	0.073193
O7	O	0.106867	1.103122	0.073186
Zn8	Zn	0.113516	0.982089	0.096443
Zn9	Zn	0.113519	0.982101	-0.096521
O10	O	0.234547	0.975441	0.073181
C11	C	0.119628	0.830089	-0.000035
C12	C	0.118013	0.737794	-0.000032
C13	C	-0.038488	0.988206	-0.000030
C14	C	-0.130784	0.986591	-0.000028
C15	C	0.114276	0.525448	0.079793
C16	C	0.112750	0.438728	0.079790
C17	C	0.112756	0.438748	-0.079885
C18	C	0.114277	0.525467	-0.079881
C19	C	0.115041	0.568815	-0.000039
C20	C	0.111994	0.395375	-0.000046
C21	C	0.110338	0.301350	-0.000050
C22	C	0.116695	0.662847	-0.000035
C23	C	-0.353056	1.058599	-0.000044
C24	C	-0.439776	1.057074	-0.000052
C25	C	-0.419902	0.905586	-0.000044
C26	C	-0.333184	0.907111	-0.000043
C27	C	-0.299763	0.983620	-0.000039
C28	C	-0.473202	0.980571	-0.000047
C29	C	-0.567228	0.978918	-0.000055
C30	C	-0.205731	0.985273	-0.000033
C31	C	0.265523	0.975984	-0.000050
C32	C	0.357819	0.977599	-0.000057
C33	C	0.107407	1.134101	-0.000045
C34	C	0.109022	1.226396	-0.000054
N35	N	0.113514	0.982088	0.228136
N36	N	0.113514	0.982109	-0.228214
C37	C	0.056996	1.038644	0.453861
C38	C	0.056994	1.038647	0.546051
C39	C	0.170035	0.925547	0.546055
C40	C	0.170032	0.925541	0.453867
C41	C	0.113514	0.982094	0.407772
C42	C	0.113514	0.982103	0.592150
C43	C	0.113513	0.982105	0.692106
C44	C	0.113514	0.982091	0.307810
H45	H	0.114899	0.560739	0.144806
H46	H	0.010972	1.084694	0.583573
C47	C	-0.581532	1.122003	-0.000070
C48	C	-0.498357	1.139493	-0.000060
H49	H	-0.617696	1.172889	-0.000083
H50	H	-0.591667	1.090638	0.051001
H51	H	-0.591644	1.090632	-0.051145
H52	H	-0.488243	1.170860	0.051019
H53	H	-0.488219	1.170872	-0.051136
C54	C	-0.544012	0.835983	-0.000031
C55	C	-0.456642	0.821490	-0.000036
H56	H	-0.566690	0.784064	-0.000018
H57	H	-0.562299	0.866847	-0.051104
H58	H	-0.562301	0.866857	0.051043
H59	H	-0.438353	0.790622	-0.051113
H60	H	-0.438348	0.790613	0.051042
H61	H	0.112127	0.403423	0.144798
H62	H	0.010975	1.084692	0.416333
C63	C	-0.322242	0.757211	-0.000027
C64	C	-0.274597	0.824687	-0.000034
H65	H	-0.286071	0.706330	-0.000018
H66	H	-0.356472	0.759766	-0.051096
H67	H	-0.356485	0.759770	0.051050
H68	H	-0.240358	0.822132	-0.051114
H69	H	-0.240352	0.822131	0.051041
H70	H	0.216052	0.879503	0.583594
C71	C	0.313955	0.876678	0.425463
C72	C	0.232164	0.863379	0.403199
H73	H	0.352307	0.838305	0.394177
H74	H	0.322042	0.868585	0.486955
H75	H	0.322987	0.932163	0.410339
H76	H	0.223129	0.807896	0.418328
H77	H	0.224073	0.871465	0.341692
H78	H	0.112134	0.403444	-0.144890
H79	H	0.114897	0.560777	-0.144895
H80	H	-0.325848	1.120897	-0.000043
