data_functionalizedCrystal
_audit_creation_method	'MofGen! by Chris Wilmer'
_symmetry_space_group_name_H-M	'P1'
_symmetry_Int_Tables_number	1
_symmetry_cell_setting	triclinic
loop_
_symmetry_equiv_pos_as_xyz
  x,y,z
_cell_length_a	12.837943
_cell_length_b	17.038272
_cell_length_c	11.295483
_cell_angle_alpha	94.391706
_cell_angle_beta	85.461227
_cell_angle_gamma	92.970248
loop_
_atom_site_label
_atom_site_type_symbol
_atom_site_fract_x
_atom_site_fract_y
_atom_site_fract_z
O1	O	1.400057	0.199823	-0.099006
O2	O	1.097361	0.189716	-0.099013
O3	O	1.246909	0.080820	-0.099000
O4	O	1.250509	0.308719	-0.099019
O5	O	1.233773	0.090368	0.099049
O6	O	1.084224	0.199264	0.099036
O7	O	1.386921	0.209371	0.099043
Cu8	Cu	1.234373	0.205189	0.117123
Cu9	Cu	1.249908	0.193897	-0.117093
O10	O	1.237372	0.318267	0.099030
C11	C	1.051871	0.191076	0.000011
C12	C	0.935896	0.180893	0.000008
C13	C	0.705733	0.303310	0.000015
C14	C	0.596764	0.293746	0.000014
C15	C	0.608986	0.152201	0.000013
C16	C	0.717955	0.161765	0.000014
C17	C	0.766324	0.237322	0.000014
C18	C	0.875296	0.246885	0.000007
C19	C	0.887516	0.105342	0.000014
C20	C	0.778546	0.095777	0.000013
C21	C	1.237069	0.056221	0.000024
C22	C	1.227305	-0.031301	0.000024
C23	C	1.316945	-0.074719	0.000027
C24	C	1.307766	-0.156956	0.000015
C25	C	1.208945	-0.195773	0.000009
C26	C	1.119299	-0.152349	0.000002
C27	C	1.128480	-0.070114	0.000005
C28	C	1.176511	-0.443954	-0.000008
C29	C	1.167337	-0.526195	-0.000007
C30	C	1.355805	-0.530796	0.000004
C31	C	1.364977	-0.448559	0.000014
C32	C	1.275331	-0.405143	0.000001
C33	C	1.199560	-0.279832	0.000001
C34	C	1.284718	-0.321086	0.000000
C35	C	1.432411	0.208011	0.000017
C36	C	1.548386	0.218194	0.000011
C37	C	1.247213	0.342865	0.000003
C38	C	1.256977	0.430387	-0.000004
N39	N	1.223454	0.213132	0.281859
N40	N	1.260835	0.185950	-0.281829
C41	C	1.339435	0.128734	0.531158
C42	C	1.331191	0.134742	0.655821
C43	C	1.198717	0.231151	0.655850
C44	C	1.206961	0.225143	0.531187
C45	C	1.277323	0.173934	0.468845
C46	C	1.285572	0.167930	0.344180
C47	C	1.153093	0.264335	0.344211
C48	C	1.144849	0.270343	0.468874
H49	H	0.745116	0.364831	0.000013
H50	H	1.141422	0.272839	0.706625
H51	H	0.547433	0.347481	0.000019
H52	H	0.569577	0.090691	0.000112
H53	H	1.396734	0.087042	0.480399
C54	C	1.085778	0.313554	0.276623
C55	C	1.107541	0.393620	0.306928
C56	C	1.045566	0.438987	0.244681
H57	H	1.013998	0.300879	0.297017
H58	H	1.100773	0.302701	0.193437
H59	H	1.092538	0.404469	0.390096
H60	H	1.179309	0.406320	0.286531
H61	H	1.060561	0.428133	0.161494
H62	H	0.973790	0.426305	0.265080
H63	H	1.060330	0.493316	0.265225
H64	H	0.739148	0.034262	0.000027
C65	C	1.398754	0.085630	0.723261
C66	C	1.462152	0.039512	0.641977
C67	C	1.524414	-0.005736	0.704058
H68	H	1.355225	0.052336	0.771906
H69	H	1.441532	0.119519	0.771856
H70	H	1.419378	0.005626	0.593403
H71	H	1.505702	0.072786	0.593329
H72	H	1.567192	0.028154	0.752653
H73	H	1.480876	-0.039025	0.752701
H74	H	1.567443	-0.037026	0.648917
H75	H	1.342867	0.126235	0.293423
C76	C	0.953264	0.033649	-0.000232
C77	C	0.937214	-0.016270	-0.102140
C78	C	0.997773	-0.082314	-0.102421
H79	H	0.933396	0.006236	0.068750
H80	H	1.025108	0.050127	-0.000299
H81	H	0.865386	-0.032748	-0.102063
H82	H	0.957088	0.011119	-0.171140
H83	H	1.069618	-0.065836	-0.102488
H84	H	0.977900	-0.109720	-0.033434
H85	H	0.986900	-0.116188	-0.171569
H86	H	1.038837	-0.183960	-0.000010
H87	H	1.397415	-0.043120	0.000039
C88	C	1.472174	-0.406270	0.000067
C89	C	1.461025	-0.324958	0.000099
C90	C	1.559752	-0.285976	0.000166
H91	H	1.514053	-0.423926	-0.068979
H92	H	1.504822	-0.417319	0.069158
H93	H	1.428392	-0.313915	-0.068985
H94	H	1.419164	-0.307279	0.069140
H95	H	1.592400	-0.297025	0.069257
H96	H	1.601623	-0.303638	-0.068882
H97	H	1.552200	-0.230801	0.000198
H98	H	0.914677	0.308407	0.000008
C99	C	1.453231	-0.577846	-0.000182
C100	C	1.519081	-0.564121	-0.102059
C101	C	1.608850	-0.607441	-0.102269
H102	H	1.433764	-0.632400	-0.000248
H103	H	1.488936	-0.561975	0.068846
H104	H	1.483383	-0.579996	-0.171070
H105	H	1.538576	-0.509575	-0.102015
H106	H	1.644555	-0.591570	-0.033240
H107	H	1.589373	-0.661992	-0.102331
H108	H	1.653545	-0.598129	-0.171385
C109	C	1.068562	0.325926	0.536780
C110	C	1.074651	0.321528	0.659293
C111	C	1.004402	0.372730	0.721881
H112	H	0.999465	0.311238	0.516510
H113	H	1.085890	0.378336	0.516414
H114	H	1.057316	0.269129	0.679650
H115	H	1.143732	0.336222	0.679598
H116	H	1.021730	0.425141	0.701515
H117	H	0.935310	0.358038	0.701601
H118	H	1.008531	0.369759	0.805012
C119	C	1.092181	-0.321836	-0.000061
C120	C	1.015635	-0.266217	-0.000087
C121	C	0.916708	-0.304886	-0.000166
H122	H	1.079959	-0.350498	0.068980
H123	H	1.089217	-0.357127	-0.069158
H124	H	1.018596	-0.230940	0.069002
H125	H	1.027822	-0.237552	-0.069123
H126	H	0.913744	-0.340176	-0.069263
H127	H	0.904497	-0.333546	0.068876
H128	H	0.864760	-0.267155	-0.000195
H129	H	1.086860	-0.557796	0.000007
H130	H	1.380760	-0.192303	0.000021
H131	H	1.103515	-0.408614	-0.000018
H132	H	1.055485	-0.034764	0.000002
H133	H	1.365179	-0.289479	-0.000021
