data_functionalizedCrystal
_audit_creation_method	'MofGen! by Chris Wilmer'
_symmetry_space_group_name_H-M	'P1'
_symmetry_Int_Tables_number	1
_symmetry_cell_setting	triclinic
loop_
_symmetry_equiv_pos_as_xyz
  x,y,z
_cell_length_a	18.101398
_cell_length_b	18.101395
_cell_length_c	12.759387
_cell_angle_alpha	89.966033
_cell_angle_beta	89.988053
_cell_angle_gamma	90.026661
loop_
_atom_site_label
_atom_site_type_symbol
_atom_site_fract_x
_atom_site_fract_y
_atom_site_fract_z
Zn1	Zn	1.132137	-0.294870	-0.593798
Zn2	Zn	1.132028	-0.418733	-0.418112
Zn3	Zn	1.008291	-0.294900	-0.418156
Zn4	Zn	1.008247	-0.418665	-0.593772
O5	O	1.070176	-0.356792	-0.505959
O6	O	1.235755	-0.311317	-0.570485
O7	O	1.115587	-0.402347	-0.271097
O8	O	1.024784	-0.191263	-0.441484
O9	O	1.235675	-0.402318	-0.441410
O10	O	1.115773	-0.191241	-0.570527
O11	O	1.024678	-0.311368	-0.271129
O12	O	0.904652	-0.311302	-0.441459
O13	O	1.024708	-0.402202	-0.740797
O14	O	0.904620	-0.402231	-0.570484
O15	O	1.115730	-0.311251	-0.740816
O16	O	1.115544	-0.522357	-0.441385
O17	O	1.024602	-0.522307	-0.570441
C18	C	0.877765	-0.356763	-0.505974
C19	C	0.795451	-0.356768	-0.506005
C20	C	0.496360	-0.356812	-0.505961
C21	C	0.527690	-0.414299	-0.586739
C22	C	0.613308	-0.414119	-0.587071
C23	C	0.644743	-0.356791	-0.505983
C24	C	0.613689	-0.278786	-0.536237
C25	C	0.528044	-0.279131	-0.536812
C26	C	0.527905	-0.376642	-0.394734
C27	C	0.613555	-0.378353	-0.395329
C28	C	0.728602	-0.356774	-0.505994
C29	C	0.412501	-0.356823	-0.505953
C30	C	1.070077	-0.549202	-0.505929
C31	C	1.070102	-0.631516	-0.505950
C32	C	1.070265	-0.930607	-0.506007
C33	C	1.013179	-0.899282	-0.587407
C34	C	1.012908	-0.813664	-0.587153
C35	C	1.070184	-0.782225	-0.505980
C36	C	1.049052	-0.813384	-0.395258
C37	C	1.048684	-0.899029	-0.395745
C38	C	1.148607	-0.898955	-0.534354
C39	C	1.148146	-0.813304	-0.536782
C40	C	1.070140	-0.698365	-0.505958
C41	C	1.070307	-1.014467	-0.506022
C42	C	1.263338	-0.356822	-0.505945
C43	C	1.345652	-0.356834	-0.505939
C44	C	1.070226	-0.356715	-0.779993
C45	C	1.070247	-0.356683	-0.896770
C46	C	1.070295	-0.163630	-0.506013
C47	C	1.070346	-0.081316	-0.506036
C48	C	0.975590	-0.261939	-0.896822
C49	C	0.928275	-0.214553	-0.951709
C50	C	0.928297	-0.214526	-1.061431
C51	C	0.975638	-0.261893	-1.116268
C52	C	1.022953	-0.309279	-1.061381
C53	C	1.022927	-0.309299	-0.951657
C54	C	1.117606	-0.404025	-1.061329
C55	C	1.117588	-0.404049	-0.951607
C56	C	1.164946	-0.451391	-1.116166
C57	C	1.212266	-0.498775	-1.061279
C58	C	1.212243	-0.498799	-0.951551
C59	C	1.164903	-0.451435	-0.896720
C60	C	1.070168	-0.356815	-0.232992
C61	C	1.070290	-0.356639	-0.116216
H62	H	0.508085	-0.262313	-0.618123
H63	H	1.164958	-0.451370	-1.205507
H64	H	0.889729	-0.175990	-0.907048
C65	C	1.264336	-0.550873	-1.121599
C66	C	1.264356	-0.550850	-1.242289
C67	C	1.316428	-0.602948	-1.302613
C68	C	1.368479	-0.655070	-1.242248
C69	C	1.368460	-0.655095	-1.121551
C70	C	1.316389	-0.602996	-1.061226
H71	H	1.225823	-0.512265	-1.286981
H72	H	1.316441	-0.602929	-1.391961
H73	H	1.407025	-0.693636	-1.286903
H74	H	1.406993	-0.693680	-1.076858
H75	H	1.316375	-0.603015	-0.971878
C76	C	0.641190	-0.219345	-0.459242
C77	C	0.687248	-0.153711	-0.499710
C78	C	0.714747	-0.094271	-0.422712
C79	C	0.696188	-0.100465	-0.305246
C80	C	0.650127	-0.166101	-0.264772
C81	C	0.622628	-0.225542	-0.341769
H82	H	0.700989	-0.149123	-0.586671
H83	H	0.748844	-0.045682	-0.452675
H84	H	0.716544	-0.056463	-0.248248
H85	H	0.636386	-0.170689	-0.177811
H86	H	0.588531	-0.274130	-0.311807
C87	C	0.642682	-0.255653	-0.644893
C88	C	0.587985	-0.240070	-0.734636
C89	C	0.616976	-0.216942	-0.843294
C90	C	0.700665	-0.209399	-0.862209
C91	C	0.755368	-0.224982	-0.772463
C92	C	0.726376	-0.248110	-0.663805
H93	H	0.526028	-0.245654	-0.720636
H94	H	0.576482	-0.205406	-0.909730
H95	H	0.722127	-0.192278	-0.942644
H96	H	0.817324	-0.219398	-0.786463
H97	H	0.766871	-0.259646	-0.597370
C98	C	0.500041	-0.219293	-0.460823
C99	C	0.555611	-0.171345	-0.399814
C100	C	0.527612	-0.111501	-0.323840
C101	C	0.444043	-0.099604	-0.308874
C102	C	0.388468	-0.147554	-0.369884
C103	C	0.416467	-0.207398	-0.445858
H104	H	0.617479	-0.180150	-0.410891
H105	H	0.568753	-0.076006	-0.278676
H106	H	0.423316	-0.055304	-0.252633
H107	H	0.326600	-0.138748	-0.358807
H108	H	0.375326	-0.242893	-0.491022
H109	H	0.633858	-0.435754	-0.372511
H110	H	0.991416	-0.919069	-0.371731
H111	H	0.506290	-0.432551	-0.367240
H112	H	1.088458	-0.919754	-0.333028
H113	H	0.954839	-0.793237	-0.568378
C114	C	1.030864	-0.927030	-0.698681
C115	C	1.031077	-1.010476	-0.722096
C116	C	1.048767	-1.038229	-0.833372
C117	C	1.066243	-0.982536	-0.921234
C118	C	1.066031	-0.899085	-0.897822
C119	C	1.048341	-0.871332	-0.786546
H120	H	1.018139	-1.051708	-0.657053
H121	H	1.048924	-1.100006	-0.850703
H122	H	1.079338	-1.003081	-1.003608
H123	H	1.078969	-0.857853	-0.962865
H124	H	1.048184	-0.809555	-0.769215
C125	C	1.103448	-0.785877	-0.311083
C126	C	1.167844	-0.734680	-0.341979
C127	C	1.222241	-0.707172	-0.257806
C128	C	1.212242	-0.730861	-0.142735
C129	C	1.147843	-0.782061	-0.111833
C130	C	1.093446	-0.809569	-0.196007
H131	H	1.175248	-0.717141	-0.427166
H132	H	1.269914	-0.669270	-0.280682
H133	H	1.252510	-0.710498	-0.080425
H134	H	1.140439	-0.799599	-0.026647
H135	H	1.045774	-0.847470	-0.173131
H136	H	0.634953	-0.339524	-0.331911
C137	C	1.264289	-0.550927	-0.891177
C138	C	1.322441	-0.518874	-0.815751
C139	C	1.374487	-0.571004	-0.755381
C140	C	1.368381	-0.655188	-0.770437
C141	C	1.310227	-0.687245	-0.845866
C142	C	1.258181	-0.635115	-0.906236
H143	H	1.326963	-0.456553	-0.804602
H144	H	1.417537	-0.547273	-0.699542
H145	H	1.406909	-0.693777	-0.725747
H146	H	1.305705	-0.749566	-0.857015
H147	H	1.215131	-0.658847	-0.962075
C148	C	0.641673	-0.492264	-0.561466
C149	C	0.690719	-0.505007	-0.464533
C150	C	0.719078	-0.583157	-0.438932
C151	C	0.698390	-0.648565	-0.510263
C152	C	0.649342	-0.635825	-0.607202
C153	C	0.620983	-0.557674	-0.632803
H154	H	0.706036	-0.456586	-0.411724
H155	H	0.755387	-0.592589	-0.367171
H156	H	0.719383	-0.706417	-0.491312
H157	H	0.634025	-0.684245	-0.660011
H158	H	0.584673	-0.548243	-0.704564
H159	H	0.507644	-0.334769	-0.334547
H160	H	1.026130	-0.792594	-0.669253
H161	H	0.955463	-0.920865	-0.568869
H162	H	0.507074	-0.472332	-0.567990
H163	H	0.992390	-0.791996	-0.370813
H164	H	1.167873	-0.920498	-0.613715
H165	H	0.889768	-0.175941	-1.106120
C166	C	1.206067	-0.926321	-0.454267
C167	C	1.182068	-0.977134	-0.363593
C168	C	1.239520	-1.004504	-0.283503
C169	C	1.320972	-0.981062	-0.294087
C170	C	1.344975	-0.930246	-0.384765
C171	C	1.287523	-0.902876	-0.464855
H172	H	1.121769	-0.994490	-0.355755
H173	H	1.221751	-1.042121	-0.216377
H174	H	1.363502	-1.001323	-0.234800
H175	H	1.405274	-0.912891	-0.392603
H176	H	1.305292	-0.865259	-0.531981
H177	H	0.506181	-0.401344	-0.668675
H178	H	1.164082	-0.792935	-0.618267
H179	H	1.192928	-0.791899	-0.481814
H180	H	0.633813	-0.400997	-0.669483
H181	H	0.975573	-0.261951	-0.807481
H182	H	0.975645	-0.261873	-1.205609
H183	H	1.164882	-0.451448	-0.807379
