data_functionalizedCrystal
_audit_creation_method	'MofGen! by Chris Wilmer'
_symmetry_space_group_name_H-M	'P1'
_symmetry_Int_Tables_number	1
_symmetry_cell_setting	triclinic
loop_
_symmetry_equiv_pos_as_xyz
  x,y,z
_cell_length_a	16.120444
_cell_length_b	16.120530
_cell_length_c	16.120297
_cell_angle_alpha	90.128140
_cell_angle_beta	84.384883
_cell_angle_gamma	89.831599
loop_
_atom_site_label
_atom_site_type_symbol
_atom_site_fract_x
_atom_site_fract_y
_atom_site_fract_z
Zn1	Zn	-0.422266	-1.224979	0.554818
Zn2	Zn	-0.554951	-1.224872	0.422125
Zn3	Zn	-0.408182	-1.093719	0.408061
Zn4	Zn	-0.554183	-1.078869	0.554057
O5	O	-0.484895	-1.155610	0.484765
O6	O	-0.446082	-1.341001	0.543421
O7	O	-0.529908	-1.213644	0.303627
O8	O	-0.293419	-1.117390	0.421961
O9	O	-0.543565	-1.340922	0.445931
O10	O	-0.303767	-1.213826	0.529783
O11	O	-0.422078	-1.117286	0.293294
O12	O	-0.421333	-0.975713	0.421223
O13	O	-0.542257	-1.092082	0.670791
O14	O	-0.528600	-0.964804	0.528486
O15	O	-0.445338	-1.199428	0.671350
O16	O	-0.671480	-1.199245	0.445193
O17	O	-0.670916	-1.091978	0.542124
C18	C	-0.473356	-0.940172	0.473247
C19	C	-0.468440	-0.848004	0.468340
C20	C	-0.701441	-1.144010	0.495121
C21	C	-0.794086	-1.139122	0.499584
C22	C	-1.005244	-1.181160	0.461807
C23	C	-0.963704	-1.130213	0.507740
C24	C	-0.869320	-1.135171	0.503201
C25	C	-1.099637	-1.176203	0.466346
C26	C	-0.495283	-1.144110	0.702158
C27	C	-0.499710	-1.139210	0.794797
C28	C	-0.267506	-1.167277	0.474388
C29	C	-0.174868	-1.172248	0.469966
C30	C	-0.496481	-1.371889	0.496330
C31	C	-0.501417	-1.464055	0.501258
C32	C	-0.459446	-0.679253	0.459387
C33	C	-0.510409	-0.632801	0.510208
C34	C	-0.505404	-0.538902	0.505226
C35	C	-0.464449	-0.773160	0.464367
C36	C	-0.474490	-1.167116	0.268218
C37	C	-0.469838	-1.172189	0.175577
C38	C	-0.507771	-1.130233	0.964409
C39	C	-0.461778	-1.181163	1.005971
C40	C	-0.466264	-1.176169	1.100348
C41	C	-0.503287	-1.135227	0.870023
H42	H	-0.999026	-1.082871	0.550474
H43	H	-0.969926	-1.228498	0.419075
N44	N	-0.396696	-0.638528	0.396782
H45	H	-0.401984	-0.576250	0.402047
H46	H	-0.407543	-0.656067	0.338644
N47	N	-0.573187	-0.673535	0.572787
H48	H	-0.631307	-0.656011	0.561803
H49	H	-0.562334	-0.656059	0.630942
N50	N	-0.564378	-1.067508	1.011168
H51	H	-0.606485	-1.097261	1.050946
H52	H	-0.594397	-1.034221	0.970237
N53	N	-0.405156	-1.243891	0.959224
H54	H	-0.409938	-1.238614	0.897453
H55	H	-0.422012	-1.301626	0.978185
