data_functionalizedCrystal
_audit_creation_method	'MofGen! by Chris Wilmer'
_symmetry_space_group_name_H-M	'P1'
_symmetry_Int_Tables_number	1
_symmetry_cell_setting	triclinic
loop_
_symmetry_equiv_pos_as_xyz
  x,y,z
_cell_length_a	19.188930
_cell_length_b	10.654550
_cell_length_c	9.130313
_cell_angle_alpha	90.004369
_cell_angle_beta	89.982598
_cell_angle_gamma	96.185145
loop_
_atom_site_label
_atom_site_type_symbol
_atom_site_fract_x
_atom_site_fract_y
_atom_site_fract_z
O1	O	0.927169	-0.156780	-0.122270
O2	O	0.723996	-0.177885	-0.122170
O3	O	0.830254	0.015506	-0.122213
O4	O	0.820911	-0.350170	-0.122227
O5	O	0.830247	0.015511	0.121386
O6	O	0.723989	-0.177879	0.121429
O7	O	0.927162	-0.156774	0.121329
Cu8	Cu	0.825575	-0.167326	0.143621
Cu9	Cu	0.825583	-0.167333	-0.144463
O10	O	0.820904	-0.350165	0.121372
C11	C	0.697977	-0.177199	-0.000358
C12	C	0.620459	-0.175147	-0.000319
C13	C	0.829564	0.062292	-0.000414
C14	C	0.827512	0.201692	-0.000415
N15	N	0.825574	-0.167321	0.346244
C16	C	0.576277	-0.288622	-0.000346
C17	C	0.503441	-0.286695	-0.000362
C18	C	0.474789	-0.171286	-0.000381
C19	C	0.518981	-0.057795	-0.000345
C20	C	0.591816	-0.059726	-0.000314
N21	N	0.366235	-0.083071	-0.083343
N22	N	0.297044	-0.081245	-0.083376
C23	C	0.255343	-0.165461	-0.000470
N24	N	0.285444	-0.251592	0.082451
N25	N	0.354641	-0.253423	0.082477
C26	C	0.395813	-0.169179	-0.000413
C27	C	0.132183	-0.276855	-0.000512
C28	C	0.059345	-0.274922	-0.000519
C29	C	0.074887	-0.046020	-0.000517
C30	C	0.147723	-0.047955	-0.000495
C31	C	0.176366	-0.163376	-0.000500
C32	C	0.953181	-0.157460	-0.000487
C33	C	1.030699	-0.159512	-0.000535
C34	C	0.821594	-0.396951	-0.000430
C35	C	0.823646	-0.536351	-0.000439
C36	C	0.890075	0.282501	-0.000447
C37	C	0.888142	0.413481	-0.000464
C38	C	0.761078	0.382829	-0.000412
C39	C	0.763011	0.251852	-0.000405
N40	N	0.825590	-0.167328	-0.347085
C41	C	0.872641	-0.081723	0.422877
C42	C	0.872647	-0.081723	0.576213
C43	C	0.778518	-0.252930	0.576271
C44	C	0.778508	-0.252923	0.422937
H45	H	0.599593	-0.382607	-0.000353
C46	C	0.690134	0.438011	-0.000380
H47	H	0.697941	0.527590	-0.000372
H48	H	0.664347	0.410243	-0.085313
H49	H	0.664347	0.410254	0.084594
H50	H	0.712062	0.186053	-0.000384
H51	H	0.467461	-0.379103	-0.000380
H52	H	0.740177	-0.322628	0.360539
H53	H	0.910963	-0.012019	0.360436
C54	C	0.924424	0.012429	0.660503
H55	H	0.952454	0.063402	0.592862
H56	H	0.899066	0.064598	0.720350
H57	H	0.953707	-0.032631	0.720284
C58	C	0.726733	-0.347059	0.660632
H59	H	0.698690	-0.398018	0.593027
H60	H	0.752080	-0.399243	0.720438
H61	H	0.697464	-0.301970	0.720458
C62	C	0.487471	0.069155	-0.000368
H63	H	0.524219	0.136463	-0.000337
H64	H	0.459402	0.074666	-0.085329
H65	H	0.459360	0.074665	0.084579
C66	C	0.640418	0.065102	-0.000302
H67	H	0.612925	0.134115	-0.000323
H68	H	0.669138	0.069112	0.084652
H69	H	0.669168	0.069099	-0.085256
C70	C	0.196325	0.076869	-0.000488
H71	H	0.168832	0.145881	-0.000513
H72	H	0.225043	0.080880	0.084469
H73	H	0.225078	0.080867	-0.085438
H74	H	0.939088	0.479272	-0.000493
C75	C	0.961020	0.227322	-0.000470
H76	H	0.953213	0.137742	-0.000447
H77	H	0.986811	0.255075	-0.085430
H78	H	0.986801	0.255095	0.084477
C79	C	0.163694	-0.403809	-0.000503
H80	H	0.126946	-0.471118	-0.000500
H81	H	0.191801	-0.409324	-0.085443
H82	H	0.191765	-0.409316	0.084465
H83	H	0.023373	-0.367332	-0.000533
C84	C	0.043379	0.080929	-0.000546
H85	H	-0.006327	0.065828	-0.000578
H86	H	0.058488	0.127646	0.084403
H87	H	0.058529	0.127625	-0.085504
