data_functionalizedCrystal
_audit_creation_method	'MofGen! by Chris Wilmer'
_symmetry_space_group_name_H-M	'P1'
_symmetry_Int_Tables_number	1
_symmetry_cell_setting	triclinic
loop_
_symmetry_equiv_pos_as_xyz
  x,y,z
_cell_length_a	11.169417
_cell_length_b	11.169416
_cell_length_c	12.759393
_cell_angle_alpha	89.972430
_cell_angle_beta	89.980914
_cell_angle_gamma	90.011589
loop_
_atom_site_label
_atom_site_type_symbol
_atom_site_fract_x
_atom_site_fract_y
_atom_site_fract_z
Zn1	Zn	1.834957	-0.477709	-0.593990
Zn2	Zn	2.168291	-0.144376	-0.260656
Zn3	Zn	2.501624	0.188958	0.072677
Zn4	Zn	1.834848	-0.678438	-0.418319
Zn5	Zn	2.168181	-0.345105	-0.084985
Zn6	Zn	2.501515	-0.011771	0.248348
Zn7	Zn	1.634245	-0.477772	-0.418330
Zn8	Zn	1.967578	-0.144439	-0.084997
Zn9	Zn	2.300911	0.188895	0.248336
Zn10	Zn	1.634251	-0.678353	-0.593962
Zn11	Zn	1.967584	-0.345020	-0.260628
Zn12	Zn	2.300917	-0.011687	0.072705
O13	O	1.734575	-0.578068	-0.506150
O14	O	2.067908	-0.244735	-0.172817
O15	O	2.401242	0.088599	0.160517
O16	O	2.002892	-0.504345	-0.570693
O17	O	2.336226	-0.171012	-0.237360
O18	O	2.669559	0.162321	0.095973
O19	O	1.808189	-0.651881	-0.271299
O20	O	2.141523	-0.318548	0.062034
O21	O	2.474856	0.014786	0.395368
O22	O	1.660913	-0.309814	-0.441649
O23	O	1.994246	0.023519	-0.108315
O24	O	2.327579	0.356853	0.225018
O25	O	2.002812	-0.651820	-0.441629
O26	O	2.336146	-0.318487	-0.108295
O27	O	2.669479	0.014847	0.225038
O28	O	1.808375	-0.309768	-0.570705
O29	O	2.141709	0.023566	-0.237371
O30	O	2.475042	0.356899	0.095962
O31	O	1.660807	-0.504453	-0.271308
O32	O	1.994140	-0.171119	0.062026
O33	O	2.327474	0.162214	0.395359
O34	O	1.466296	-0.504370	-0.441621
O35	O	1.799629	-0.171037	-0.108288
O36	O	2.132962	0.162296	0.225045
O37	O	1.660923	-0.651676	-0.740986
O38	O	1.994256	-0.318342	-0.407653
O39	O	2.327590	0.014991	-0.074320
O40	O	1.466300	-0.651736	-0.570657
O41	O	1.799633	-0.318403	-0.237324
O42	O	2.132967	0.014930	0.096010
O43	O	1.808381	-0.504263	-0.741007
O44	O	2.141715	-0.170930	-0.407674
O45	O	2.475048	0.162404	-0.074340
O46	O	1.808195	-0.846376	-0.441601
O47	O	2.141529	-0.513043	-0.108268
O48	O	2.474862	-0.179710	0.225065
O49	O	1.660817	-0.846314	-0.570645
O50	O	1.994150	-0.512981	-0.237312
O51	O	2.327484	-0.179647	0.096021
C52	C	1.422750	-0.578052	-0.506138
C53	C	1.756084	-0.244719	-0.172805
C54	C	2.089417	0.088615	0.160529
C55	C	1.289350	-0.578074	-0.506158
C56	C	1.622684	-0.244741	-0.172824
C57	C	1.956017	0.088593	0.160509
C58	C	1.734528	-0.889893	-0.506142
C59	C	2.067861	-0.556559	-0.172809
C60	C	2.401194	-0.223226	0.160525
C61	C	1.734617	-1.023293	-0.506174
C62	C	2.067950	-0.689959	-0.172840
C63	C	2.401284	-0.356626	0.160493
C64	C	2.047617	-0.578085	-0.506163
C65	C	2.380951	-0.244752	-0.172829
C66	C	2.714284	0.088581	0.160504
C67	C	2.181017	-0.578092	-0.506168
C68	C	2.514351	-0.244759	-0.172835
C69	C	2.847684	0.088574	0.160499
C70	C	1.734665	-0.577953	-0.780183
C71	C	2.067998	-0.244620	-0.446850
C72	C	2.401332	0.088714	-0.113517
C73	C	1.734703	-0.577904	-0.896960
C74	C	2.068037	-0.244570	-0.563627
C75	C	2.401370	0.088763	-0.230294
C76	C	1.734656	-0.265026	-0.506181
C77	C	2.067989	0.068308	-0.172848
C78	C	2.401322	0.401641	0.160486
C79	C	1.734690	-0.131626	-0.506194
C80	C	2.068023	0.201708	-0.172861
C81	C	2.401357	0.535041	0.160472
C82	C	1.811490	-0.501134	-0.951835
C83	C	2.144824	-0.167801	-0.618501
C84	C	2.478157	0.165533	-0.285168
C85	C	1.811511	-0.501082	-1.061559
C86	C	2.144844	-0.167749	-0.728225
C87	C	2.478177	0.165585	-0.394892
C88	C	1.657953	-0.654581	-1.061524
C89	C	1.991287	-0.321247	-0.728191
C90	C	2.324620	0.012086	-0.394858
C91	C	1.657928	-0.654625	-0.951802
C92	C	1.991261	-0.321292	-0.618469
C93	C	2.324594	0.012041	-0.285136
C94	C	1.734555	-0.578096	-0.233183
C95	C	2.067888	-0.244763	0.100151
C96	C	2.401221	0.088570	0.433484
C97	C	1.734749	-0.577807	-0.116407
C98	C	2.068082	-0.244474	0.216927
C99	C	2.401416	0.088859	0.550260
H100	H	1.874003	-0.438659	-0.907185
H101	H	2.207336	-0.105326	-0.573852
H102	H	2.540669	0.228008	-0.240519
F103	F	1.893246	-0.419381	-1.119955
F104	F	2.226580	-0.086047	-0.786622
F105	F	2.559913	0.247286	-0.453289
H106	H	1.595390	-0.717140	-0.907122
H107	H	1.928723	-0.383806	-0.573789
H108	H	2.262057	-0.050473	-0.240456
F109	F	1.576252	-0.736233	-1.119900
F110	F	1.909586	-0.402899	-0.786567
F111	F	2.242919	-0.069566	-0.453234
