data_functionalizedCrystal
_audit_creation_method	'MofGen! by Chris Wilmer'
_symmetry_space_group_name_H-M	'P1'
_symmetry_Int_Tables_number	1
_symmetry_cell_setting	triclinic
loop_
_symmetry_equiv_pos_as_xyz
  x,y,z
_cell_length_a	29.917948
_cell_length_b	29.917021
_cell_length_c	29.913391
_cell_angle_alpha	60.005297
_cell_angle_beta	60.010472
_cell_angle_gamma	59.993667
loop_
_atom_site_label
_atom_site_type_symbol
_atom_site_fract_x
_atom_site_fract_y
_atom_site_fract_z
O1	O	0.061938	-0.653075	0.546110
O2	O	0.023328	-0.508466	0.440017
O3	O	0.114898	-0.599963	0.439941
O4	O	-0.029633	-0.561578	0.546186
O5	O	0.145278	-0.569587	0.470242
O6	O	0.053708	-0.478090	0.470318
O7	O	0.092318	-0.622699	0.576411
Zn8	Zn	0.077836	-0.545572	0.528175
Zn9	Zn	0.037809	-0.585593	0.488253
O10	O	0.000747	-0.531202	0.576487
N11	N	0.105154	-0.518262	0.555424
N12	N	0.010496	-0.612908	0.461004
C13	C	0.164136	-0.309209	0.614352
C14	C	0.164251	-0.459335	0.764424
C15	C	0.164150	-0.459313	0.614341
C16	C	0.314282	-0.459305	0.614278
C17	C	0.180666	-0.358742	0.630849
C18	C	0.180732	-0.442815	0.714891
C19	C	0.264747	-0.442797	0.630809
C20	C	0.180676	-0.442802	0.630843
C21	C	0.143097	-0.246161	0.593354
C22	C	0.143120	-0.480326	0.593337
C23	C	0.201706	-0.421790	0.651848
C24	C	0.405963	-0.443499	0.565998
C25	C	0.463273	-0.462598	0.546874
C26	C	0.463297	-0.555329	0.582235
C27	C	0.405988	-0.536228	0.601360
C28	C	0.156905	-0.217495	0.537012
C29	C	0.137776	-0.160180	0.517926
C30	C	0.091035	-0.160201	0.611524
C31	C	0.110164	-0.217516	0.630611
C32	C	0.086772	-0.466488	0.607209
C33	C	0.067659	-0.485590	0.588108
C34	C	0.161236	-0.532368	0.541277
C35	C	0.180352	-0.513266	0.560371
C36	C	0.086942	-0.466529	0.856152
C37	C	0.067877	-0.485647	0.913465
C38	C	0.161489	-0.532436	0.913415
C39	C	0.180552	-0.513318	0.856101
C40	C	0.143277	-0.480363	0.827471
C41	C	0.377323	-0.480313	0.593239
C42	C	-0.111377	-0.650681	0.422736
C43	C	-0.027364	-0.650787	0.422929
C44	C	-0.048335	-0.671770	0.401835
C45	C	-0.064214	-0.763416	0.450041
C46	C	-0.045160	-0.820731	0.469172
C47	C	0.047573	-0.820841	0.433980
C48	C	0.028517	-0.763527	0.414847
C49	C	-0.140115	-0.664483	0.479060
C50	C	-0.197425	-0.645309	0.498058
C51	C	-0.197256	-0.598535	0.404405
C52	C	-0.139946	-0.617709	0.385407
C53	C	-0.041168	-0.594444	0.409067
C54	C	-0.022104	-0.575374	0.428250
C55	C	0.024568	-0.668986	0.475143
C56	C	0.005504	-0.688059	0.455967
C57	C	-0.041000	-0.594453	0.310105
C58	C	-0.021803	-0.575386	0.252792
C59	C	0.024951	-0.669004	0.252854
C60	C	0.005755	-0.688070	0.310168
C61	C	-0.027222	-0.650793	0.338792
C62	C	-0.027377	-0.734817	0.422881
N63	N	0.491125	-0.518235	0.555255
O64	O	0.678406	-0.527360	0.420422
O65	O	0.678588	-0.633782	0.564887
O66	O	0.678516	-0.633539	0.473265
O67	O	0.678478	-0.527602	0.512044
O68	O	0.587469	-0.603251	0.503685
O69	O	0.587541	-0.603493	0.595307
O70	O	0.587359	-0.497071	0.450842
Zn71	Zn	0.572994	-0.545473	0.527905
Zn72	Zn	0.692953	-0.585380	0.487825
O73	O	0.587431	-0.497313	0.542465
N74	N	0.774821	-0.612618	0.460470
N75	N	0.105125	-0.132348	0.555445
O76	O	-0.029633	0.055031	0.546198
O77	O	0.114837	0.055047	0.439777
O78	O	0.023189	0.055024	0.440050
O79	O	0.062016	0.055054	0.545925
O80	O	0.053572	-0.036031	0.470398
O81	O	0.145220	-0.036008	0.470125
O82	O	0.000750	-0.036024	0.576546
Zn83	Zn	0.077809	-0.050473	0.528154
Zn84	Zn	0.037778	0.069496	0.488169
O85	O	0.092399	-0.036001	0.576273
N86	N	0.010456	0.151371	0.460879
N87	N	0.105414	-0.518315	0.941279
O88	O	0.096182	-0.653057	1.128644
O89	O	-0.010215	-0.508539	1.128670
O90	O	-0.009968	-0.600172	1.128636
O91	O	0.095935	-0.561424	1.128678
O92	O	0.020367	-0.569808	1.037586
O93	O	0.020121	-0.478175	1.037620
O94	O	0.126517	-0.622693	1.037594
Zn95	Zn	0.078135	-0.545613	1.023151
Zn96	Zn	0.038167	-0.585619	1.143113
O97	O	0.126270	-0.531061	1.037628
N98	N	0.010887	-0.612923	1.224985
C99	C	0.034899	-0.475056	0.440551
C100	C	0.148298	-0.588365	0.440456
C101	C	0.080746	-0.656109	0.575876
C102	C	-0.032653	-0.542801	0.575971
C103	C	0.633086	-0.633292	0.598298
C104	C	0.632998	-0.632993	0.484834
C105	C	0.632857	-0.497559	0.417433
C106	C	0.632949	-0.497860	0.530895
C107	C	0.148191	0.009634	0.440259
C108	C	0.034733	0.009493	0.440634
C109	C	-0.032641	0.009502	0.576027
C110	C	0.080854	0.009529	0.575690
C111	C	-0.009699	-0.475150	1.083148
C112	C	-0.009388	-0.588620	1.083088
C113	C	0.126001	-0.656082	1.083116
C114	C	0.125697	-0.542605	1.083155
H115	H	0.022003	-0.474373	0.936811
H116	H	0.159407	-0.697586	1.083101
H117	H	0.088995	-0.697649	0.609197
H118	H	0.633014	-0.666272	0.476534
O119	O	-0.049500	-0.425613	1.083180
C120	C	-0.029790	-0.391543	1.083183
H121	H	0.005356	-0.417872	1.100423
H122	H	-0.014595	-0.363893	1.039506
C123	C	-0.119428	-0.323772	1.097723
C124	C	-0.076265	-0.356110	1.118902
H125	H	-0.148096	-0.301914	1.119754
H126	H	-0.132707	-0.346725	1.097719
H127	H	-0.106759	-0.300736	1.061326
H128	H	-0.088933	-0.379151	1.155296
H129	H	-0.062989	-0.333161	1.118913
H130	H	-0.074166	-0.534620	0.609333
H131	H	-0.042644	-0.596897	1.083039
O132	O	0.633008	-0.458224	0.540832
C133	C	0.680195	-0.477054	0.553666
H134	H	0.695958	-0.523723	0.569367
H135	H	0.713176	-0.461425	0.515399
C136	C	0.646537	-0.398372	0.578883
C137	C	0.665894	-0.455691	0.598172
H138	H	0.637716	-0.385193	0.606334
H139	H	0.614746	-0.385684	0.570234
H140	H	0.674024	-0.385356	0.546994
H141	H	0.638404	-0.468707	0.630056
H142	H	0.697679	-0.468380	0.606827
O143	O	0.165339	-0.532621	1.083138
C144	C	0.145394	-0.478807	1.083165
H145	H	0.110246	-0.452899	1.065929
H146	H	0.130132	-0.479616	1.126851
C147	C	0.234871	-0.485750	1.068635
C148	C	0.191705	-0.453928	1.047461
H149	H	0.263438	-0.470404	1.046613
H150	H	0.248308	-0.522006	1.068619
H151	H	0.222145	-0.486421	1.105039
H152	H	0.204429	-0.453263	1.011060
H153	H	0.178270	-0.417672	1.047470
H154	H	0.189596	0.009891	0.406765
H155	H	0.633132	-0.666701	0.639790
H156	H	0.026418	0.009490	0.407371
H157	H	0.632798	-0.464146	0.375944
O158	O	0.019170	-0.742821	0.337949
C159	C	0.052399	-0.771630	0.300392
H160	H	0.045163	-0.744297	0.259497
H161	H	0.097275	-0.784042	0.294389
C162	C	0.046739	-0.856828	0.372948
C163	C	0.037848	-0.823259	0.322721
H164	H	0.037765	-0.888677	0.386722
H165	H	0.024354	-0.837419	0.398251
H166	H	0.084135	-0.867166	0.367939
H167	H	0.000451	-0.812916	0.327732
H168	H	0.060227	-0.842667	0.297419
H169	H	0.382671	-0.566208	0.623544
O170	O	-0.082179	0.009531	0.615816
C171	C	-0.116260	0.009509	0.596128
H172	H	-0.101449	0.026736	0.549494
H173	H	-0.114781	-0.034176	0.610058
C174	C	-0.193687	0.024068	0.676074
C175	C	-0.175498	0.045230	0.618798
H176	H	-0.230229	0.046100	0.690060
H177	H	-0.170726	0.024081	0.689340
H178	H	-0.192450	-0.012335	0.687675
H179	H	-0.176730	0.081630	0.607198
H180	H	-0.198461	0.045225	0.605531
O181	O	0.090826	0.009433	0.615393
C182	C	0.135180	-0.037715	0.627944
H183	H	0.139488	-0.070675	0.615918
H184	H	0.174426	-0.027048	0.604317
C185	C	0.119507	-0.018622	0.704587
C186	C	0.124795	-0.059106	0.689821
H187	H	0.113103	-0.031816	0.742755
H188	H	0.089626	0.013143	0.696130
H189	H	0.152214	-0.009736	0.684893
H190	H	0.092086	-0.067986	0.709509
H191	H	0.154671	-0.090874	0.698282
H192	H	0.183721	-0.240813	0.506671
H193	H	0.191844	-0.559260	0.936723
O194	O	0.050708	-0.434595	0.828368
C195	C	0.017568	-0.463531	0.842397
H196	H	0.039715	-0.509386	0.858134
H197	H	-0.022681	-0.451337	0.875682
C198	C	-0.021383	-0.393351	0.772173
C199	C	0.005821	-0.449671	0.791497
H200	H	-0.028632	-0.384799	0.740777
H201	H	0.000942	-0.373854	0.762723
H202	H	-0.054921	-0.383196	0.799916
H203	H	0.039360	-0.459823	0.763757
H204	H	-0.016500	-0.469168	0.800941
O205	O	0.235293	-0.526854	0.828302
C206	C	0.259111	-0.584259	0.842279
H207	H	0.231961	-0.604325	0.883897
H208	H	0.263358	-0.597220	0.810024
C209	C	0.349414	-0.577708	0.793786
C210	C	0.316070	-0.602353	0.844904
H211	H	0.384549	-0.588870	0.795403
H212	H	0.333367	-0.539033	0.784368
H213	H	0.352947	-0.588511	0.766912
H214	H	0.312532	-0.591545	0.871775
H215	H	0.332117	-0.641027	0.854327
O216	O	0.050530	-0.434472	0.639201
C217	C	-0.003302	-0.426364	0.647353
H218	H	-0.003221	-0.432761	0.612803
H219	H	-0.019698	-0.456874	0.688181
C220	C	-0.040166	-0.359791	0.690212
C221	C	-0.040067	-0.367644	0.647775
H222	H	-0.062846	-0.323571	0.690474
H223	H	-0.003899	-0.365255	0.684722
H224	H	-0.053828	-0.385220	0.724230
H225	H	-0.026399	-0.342220	0.613757
H226	H	-0.076333	-0.362174	0.653259
H227	H	0.191560	-0.559196	0.514439
O228	O	0.235106	-0.526769	0.546859
C229	C	0.263869	-0.559923	0.513652
H230	H	0.236542	-0.580770	0.520981
H231	H	0.276182	-0.533467	0.468763
C232	C	0.349131	-0.578111	0.519114
C233	C	0.315569	-0.603719	0.528118
H234	H	0.381023	-0.605125	0.528035
H235	H	0.329754	-0.555773	0.541484
H236	H	0.359386	-0.556065	0.481706
H237	H	0.305308	-0.625759	0.565526
H238	H	0.334945	-0.626062	0.505754
O239	O	0.012927	-0.472086	0.601487
C240	C	-0.000961	-0.443233	0.553349
H241	H	0.031328	-0.423829	0.518911
H242	H	-0.002871	-0.472698	0.541283
C243	C	-0.096828	-0.421957	0.605880
C244	C	-0.057172	-0.398120	0.563584
H245	H	-0.131502	-0.394130	0.612193
H246	H	-0.087472	-0.441397	0.638312
H247	H	-0.098413	-0.446510	0.595820
H248	H	-0.055583	-0.373572	0.573647
H249	H	-0.066529	-0.378674	0.531154
H250	H	0.486634	-0.600858	0.588843
O251	O	0.197777	-0.598127	0.400601
C252	C	0.190576	-0.591980	0.354475
H253	H	0.150472	-0.597998	0.367660
H254	H	0.189363	-0.549184	0.323523
C255	C	0.287781	-0.627557	0.311893
C256	C	0.238526	-0.634952	0.328089
H257	H	0.317359	-0.654062	0.295615
H258	H	0.292633	-0.631697	0.342968
H259	H	0.286762	-0.591892	0.286103
H260	H	0.239542	-0.670614	0.353884
H261	H	0.233675	-0.630819	0.297017
H262	H	0.486593	-0.432619	0.524694
H263	H	0.149018	-0.136838	0.472047
O264	O	0.378201	-0.389167	0.558087
C265	C	0.415773	-0.360770	0.529930
H266	H	0.456637	-0.390186	0.536529
H267	H	0.421843	-0.342956	0.484335
C268	C	0.343224	-0.277951	0.543748
C269	C	0.393413	-0.314079	0.551856
H270	H	0.329432	-0.249148	0.557271
H271	H	0.317911	-0.297081	0.562716
H272	H	0.348289	-0.263111	0.505751
H273	H	0.388347	-0.328923	0.589853
H274	H	0.418726	-0.294950	0.532895
H275	H	0.098918	-0.240852	0.676488
O276	O	0.059035	-0.132457	0.647789
C277	C	0.050969	-0.170051	0.701612
H278	H	0.057377	-0.210907	0.701508
H279	H	0.081493	-0.176143	0.718010
C280	C	-0.015601	-0.097518	0.738525
C281	C	-0.007735	-0.147697	0.738397
H282	H	-0.051812	-0.083729	0.761216
H283	H	-0.010166	-0.072190	0.702263
H284	H	0.009839	-0.102602	0.752188
H285	H	-0.033171	-0.142611	0.724727
H286	H	-0.013177	-0.173024	0.774657
H287	H	-0.033030	-0.529506	0.229442
H288	H	-0.067855	-0.564093	0.333408
H289	H	0.051792	-0.699362	0.229554
H290	H	-0.067926	-0.564092	0.382165
O291	O	0.064374	-0.735829	0.388496
C292	C	0.117794	-0.773463	0.385501
H293	H	0.115556	-0.814299	0.419355
H294	H	0.139725	-0.779586	0.343973
C295	C	0.152296	-0.700984	0.351017
C296	C	0.149547	-0.751137	0.392599
H297	H	0.171884	-0.687212	0.355393
H298	H	0.116306	-0.675629	0.353033
H299	H	0.170570	-0.706093	0.316415
H300	H	0.131267	-0.746026	0.427200
H301	H	0.185534	-0.776491	0.390590
O302	O	0.025162	-0.425524	0.400744
C303	C	0.072193	-0.425400	0.353529
H304	H	0.109805	-0.457777	0.365539
H305	H	0.067774	-0.434932	0.323781
C306	C	0.032534	-0.328883	0.311165
C307	C	0.078730	-0.368647	0.325916
H308	H	0.036566	-0.293875	0.294130
H309	H	0.000847	-0.328967	0.342973
H310	H	0.028856	-0.336834	0.286377
H311	H	0.082403	-0.360700	0.350708
H312	H	0.110417	-0.368561	0.294111
O313	O	-0.035431	-0.520637	0.414687
C314	C	-0.015738	-0.496883	0.357285
H315	H	0.019607	-0.529559	0.338867
H316	H	-0.050068	-0.478741	0.340219
C317	C	-0.039008	-0.411166	0.365139
C318	C	0.004407	-0.451299	0.342518
H319	H	-0.026584	-0.383046	0.356029
H320	H	-0.052278	-0.427169	0.403812
H321	H	-0.067612	-0.396055	0.350914
H322	H	0.033007	-0.466414	0.356748
H323	H	0.017682	-0.435297	0.303847
O324	O	0.056472	-0.705267	0.507245
C325	C	0.064578	-0.759085	0.515349
H326	H	0.030056	-0.758939	0.508858
H327	H	0.105433	-0.775551	0.484899
C328	C	0.107281	-0.796010	0.582071
C329	C	0.064877	-0.795830	0.574104
H330	H	0.107467	-0.818677	0.618313
H331	H	0.101822	-0.759752	0.576611
H332	H	0.141322	-0.809730	0.556693
H333	H	0.030836	-0.782104	0.599477
H334	H	0.070330	-0.832087	0.579570
H335	H	0.016742	-0.733938	0.467255
H336	H	0.093086	-0.844219	0.427442
H337	H	-0.075156	-0.844016	0.491279
H338	H	-0.109727	-0.740044	0.456586
H339	H	-0.220824	-0.656545	0.543924
O340	O	-0.112421	-0.696565	0.515370
C341	C	-0.126475	-0.744602	0.548474
H342	H	-0.168065	-0.736865	0.548950
H343	H	-0.094215	-0.779103	0.531277
C344	C	-0.078140	-0.770423	0.606639
C345	C	-0.129225	-0.760919	0.607227
H346	H	-0.079834	-0.780491	0.642880
H347	H	-0.068670	-0.738061	0.584335
H348	H	-0.051263	-0.799173	0.592305
H349	H	-0.156100	-0.732165	0.621554
H350	H	-0.138699	-0.793277	0.629535
O351	O	-0.224926	-0.566498	0.368072
C352	C	-0.187272	-0.558449	0.314283
H353	H	-0.146440	-0.564901	0.314469
H354	H	-0.181163	-0.588956	0.297854
C355	C	-0.259703	-0.491809	0.277237
C356	C	-0.209553	-0.499728	0.277465
H357	H	-0.273448	-0.455587	0.254525
H358	H	-0.285072	-0.497232	0.313476
H359	H	-0.254605	-0.517235	0.263548
H360	H	-0.214653	-0.474306	0.291161
H361	H	-0.184186	-0.494298	0.241228
H362	H	-0.116547	-0.606465	0.339541
