data_functionalizedCrystal
_audit_creation_method	'MofGen! by Chris Wilmer'
_symmetry_space_group_name_H-M	'P1'
_symmetry_Int_Tables_number	1
_symmetry_cell_setting	triclinic
loop_
_symmetry_equiv_pos_as_xyz
  x,y,z
_cell_length_a	15.995350
_cell_length_b	17.666332
_cell_length_c	15.995350
_cell_angle_alpha	89.995759
_cell_angle_beta	96.507625
_cell_angle_gamma	90.005705
loop_
_atom_site_label
_atom_site_type_symbol
_atom_site_fract_x
_atom_site_fract_y
_atom_site_fract_z
O1	O	1.110991	0.062880	-0.107928
O2	O	1.610991	0.562880	0.392072
O3	O	0.867216	0.062896	-0.121256
O4	O	1.367216	0.562896	0.378744
O5	O	0.995767	0.062887	0.007296
O6	O	1.495767	0.562887	0.507296
O7	O	0.982440	0.062889	-0.236479
O8	O	1.482440	0.562889	0.263521
O9	O	0.995745	-0.063010	0.007303
O10	O	1.495745	0.436990	0.507303
O11	O	0.867193	-0.063001	-0.121249
O12	O	1.367193	0.436999	0.378751
O13	O	1.110969	-0.063016	-0.107921
O14	O	1.610969	0.436984	0.392079
Cu15	Cu	0.989079	-0.074504	-0.114584
Cu16	Cu	1.489079	0.425496	0.385416
Cu17	Cu	0.989106	0.074383	-0.114592
Cu18	Cu	1.489106	0.574383	0.385408
O19	O	0.982417	-0.063008	-0.236473
O20	O	1.482417	0.436992	0.263527
C21	C	0.836010	-0.000051	-0.120701
C22	C	1.336010	0.499949	0.379299
C23	C	0.743060	-0.000045	-0.119049
C24	C	1.243060	0.499955	0.380951
C25	C	0.405312	-0.000061	-0.113117
C26	C	0.905312	0.499939	0.386883
C27	C	0.452746	-0.000342	-0.021565
C28	C	0.952746	0.499658	0.478435
C29	C	0.549436	-0.000053	-0.023217
C30	C	1.049436	0.499947	0.476783
C31	C	0.572873	-0.000053	-0.116060
C32	C	1.072873	0.499947	0.383940
C33	C	0.531798	0.071837	-0.161220
C34	C	1.031798	0.571837	0.338780
C35	C	0.435163	0.071892	-0.158920
C36	C	0.935163	0.571892	0.341080
C37	C	0.434798	-0.071276	-0.160804
C38	C	0.934798	0.428724	0.339196
C39	C	0.531743	-0.072221	-0.160782
C40	C	1.031743	0.427779	0.339218
C41	C	0.667570	-0.000047	-0.117727
C42	C	1.167570	0.499953	0.382273
C43	C	0.310614	-0.000062	-0.111452
C44	C	0.810614	0.499938	0.388548
N45	N	0.989066	-0.179224	-0.114578
N46	N	1.489066	0.320776	0.385422
C47	C	1.046007	-0.218837	-0.057683
C48	C	1.546007	0.281163	0.442317
C49	C	1.046012	-0.298085	-0.057679
C50	C	1.546012	0.201915	0.442321
C51	C	0.989084	-0.337716	-0.114584
C52	C	1.489084	0.162284	0.385416
C53	C	0.932132	-0.298093	-0.171483
C54	C	1.432132	0.201907	0.328517
C55	C	0.932124	-0.218847	-0.171480
C56	C	1.432124	0.281153	0.328520
N57	N	0.978426	-0.462133	-0.188673
N58	N	1.478426	0.037867	0.311327
N59	N	0.978439	-0.537414	-0.188673
N60	N	1.478439	-0.037414	0.311327
C61	C	0.989106	-0.576480	-0.114596
C62	C	1.489106	-0.076480	0.385404
N63	N	0.999776	-0.537421	-0.040516
N64	N	1.499776	-0.037421	0.459484
N65	N	0.999766	-0.462134	-0.040517
N66	N	1.499766	0.037866	0.459483
C67	C	0.989087	-0.423645	-0.114594
C68	C	1.489087	0.076355	0.385406
C69	C	1.046056	-0.702023	-0.057692
C70	C	1.546056	-0.202023	0.442308
C71	C	1.046055	-0.781272	-0.057687
C72	C	1.546055	-0.281272	0.442313
C73	C	0.932179	-0.781278	-0.171499
C74	C	1.432179	-0.281278	0.328501
C75	C	0.932176	-0.702030	-0.171497
C76	C	1.432176	-0.202030	0.328503
C77	C	0.989119	-0.662408	-0.114594
C78	C	1.489119	-0.162408	0.385406
C79	C	1.142175	-0.000068	-0.108476
C80	C	1.642175	0.499932	0.391524
C81	C	1.235125	-0.000069	-0.110127
C82	C	1.735125	0.499931	0.389873
N83	N	0.989125	0.179103	-0.114592
N84	N	1.489125	0.679103	0.385408
C85	C	0.995205	-0.000060	0.038494
C86	C	1.495205	0.499940	0.538494
C87	C	0.993553	-0.000056	0.131444
C88	C	1.493553	0.499944	0.631444
C89	C	0.982980	-0.000059	-0.267671
C90	C	1.482980	0.499941	0.232329
C91	C	0.984631	-0.000059	-0.360621
C92	C	1.484631	0.499941	0.139379
C93	C	0.987621	-0.000058	0.469192
C94	C	1.487621	0.499942	0.969192
C95	C	0.896069	0.000230	0.421758
C96	C	1.396069	0.500230	0.921758
C97	C	0.897721	-0.000054	0.325068
C98	C	1.397721	0.499946	0.825068
C99	C	0.990564	-0.000056	0.301631
C100	C	1.490564	0.499944	0.801631
C101	C	1.035707	-0.071951	0.342713
C102	C	1.535707	0.428049	0.842713
C103	C	1.033408	-0.072011	0.439349
C104	C	1.533408	0.427989	0.939349
C105	C	1.035324	0.071157	0.439699
C106	C	1.535324	0.571157	0.939699
C107	C	1.035303	0.072107	0.342753
C108	C	1.535303	0.572107	0.842753
C109	C	0.992231	-0.000058	0.206934
C110	C	1.492231	0.499942	0.706934
C111	C	0.985956	-0.000061	0.563890
C112	C	1.485956	0.499939	1.063890
H113	H	0.577856	-0.051588	0.012281
H114	H	1.077856	0.448412	0.512281
H115	H	0.859486	0.051787	0.440287
H116	H	1.359486	0.551787	0.940287
C117	C	1.124202	-0.076440	0.482921
C118	C	1.624202	0.423560	0.982921
H119	H	1.123413	-0.076505	0.542221
H120	H	1.623413	0.423495	1.042221
H121	H	1.149987	-0.121613	0.466324
H122	H	1.649987	0.378387	0.966324
H123	H	1.155217	-0.033928	0.467106
H124	H	1.655217	0.466072	0.967106
H125	H	1.092420	-0.669760	-0.011357
H126	H	1.592420	-0.169760	0.488643
H127	H	1.004334	-0.125451	0.314334
H128	H	1.504334	0.374549	0.814334
C129	C	0.869516	-0.341683	-0.234080
C130	C	1.369516	0.158317	0.265920
H131	H	0.877682	-0.394553	-0.225939
H132	H	1.377682	0.105447	0.274061
H133	H	0.813636	-0.328710	-0.224954
H134	H	1.313636	0.171290	0.275046
H135	H	0.878609	-0.328686	-0.289969
H136	H	1.378609	0.171314	0.210031
C137	C	0.550886	0.075464	-0.253360
C138	C	1.050886	0.575464	0.246640
H139	H	0.525466	0.119354	-0.279478
H140	H	1.025466	0.619354	0.220522
H141	H	0.610025	0.077623	-0.254952
H142	H	1.110025	0.577623	0.245048
H143	H	0.528930	0.031654	-0.282500
H144	H	1.028930	0.531654	0.217500
C145	C	0.568612	-0.144072	-0.116242
C146	C	1.068612	0.355928	0.383758
H147	H	0.543479	-0.187536	-0.143582
H148	H	1.043479	0.312464	0.356418
H149	H	0.627685	-0.145401	-0.118484
H150	H	1.127685	0.354599	0.381516
H151	H	0.557402	-0.143613	-0.059176
H152	H	1.057402	0.356387	0.440824
C153	C	0.391594	0.076320	-0.249717
C154	C	0.891594	0.576320	0.250283
H155	H	0.432979	0.078082	-0.287844
H156	H	0.932979	0.578082	0.212156
H157	H	0.357071	0.032971	-0.261273
H158	H	0.857071	0.532971	0.238727
H159	H	0.357867	0.120657	-0.256052
H160	H	0.857867	0.620657	0.243948
C161	C	0.990781	0.143960	0.305869
C162	C	1.490781	0.643960	0.805869
H163	H	0.945121	0.130048	0.265572
H164	H	1.445121	0.630048	0.765572
H165	H	0.970220	0.172191	0.349767
H166	H	1.470220	0.672191	0.849767
H167	H	1.029538	0.173966	0.279491
H168	H	1.529538	0.673966	0.779491
H169	H	1.103008	0.076446	0.327391
H170	H	1.603008	0.576446	0.827391
H171	H	0.859630	-0.051035	0.441355
H172	H	1.359630	0.448965	0.941355
C173	C	0.994900	0.144771	0.467434
C174	C	1.494900	0.644771	0.967434
H175	H	0.948546	0.132760	0.497263
H176	H	1.448546	0.632760	0.997263
H177	H	1.035302	0.172842	0.502907
H178	H	1.535302	0.672842	1.002907
H179	H	0.975891	0.174119	0.419234
H180	H	1.475891	0.674119	0.919234
C181	C	0.849438	-0.069787	0.287419
C182	C	1.349438	0.430213	0.787419
H183	H	0.850276	-0.070194	0.228127
H184	H	1.350276	0.429806	0.728127
H185	H	0.875394	-0.114510	0.310902
H186	H	1.375394	0.385490	0.810902
H187	H	0.792846	-0.067669	0.299990
H188	H	1.292846	0.432331	0.799990
C189	C	1.108695	-0.824847	0.004899
C190	C	1.608695	-0.324847	0.504899
H191	H	1.142609	-0.789896	0.038779
H192	H	1.642609	-0.289896	0.538779
H193	H	1.078588	-0.855770	0.039776
H194	H	1.578588	-0.355770	0.539776
H195	H	1.143547	-0.855751	-0.025254
H196	H	1.643547	-0.355751	0.474746
C197	C	0.570132	0.144116	-0.118853
C198	C	1.070132	0.644116	0.381147
H199	H	0.611156	0.130636	-0.073650
H200	H	1.111156	0.630636	0.426350
H201	H	0.595871	0.173204	-0.158845
H202	H	1.095871	0.673204	0.341155
H203	H	0.527011	0.173094	-0.097908
H204	H	1.027011	0.673094	0.402092
H205	H	1.103916	-0.074627	0.328587
H206	H	1.603916	0.425373	0.828587
H207	H	1.000470	-0.125751	0.457653
H208	H	1.500470	0.374249	0.957653
H209	H	0.434215	-0.051898	0.015033
H210	H	0.934215	0.448102	0.515033
H211	H	0.885824	-0.813545	-0.217829
H212	H	1.385824	-0.313545	0.282171
C213	C	0.869492	-0.175270	-0.234073
C214	C	1.369492	0.324730	0.265927
H215	H	0.835589	-0.210219	-0.267967
H216	H	1.335589	0.289781	0.232033
H217	H	0.834640	-0.144361	-0.203934
H218	H	1.334640	0.355639	0.296066
H219	H	0.899614	-0.144352	-0.268948
H220	H	1.399614	0.355648	0.231052
H221	H	1.102825	0.071638	0.471460
H222	H	1.602825	0.571638	0.971460
H223	H	0.433162	0.050928	0.014859
H224	H	0.933162	0.550928	0.514859
H225	H	0.577303	0.051570	0.012515
H226	H	1.077303	0.551570	0.512515
C227	C	0.849785	0.069566	0.286660
C228	C	1.349785	0.569566	0.786660
H229	H	0.850738	0.069488	0.227381
H230	H	1.350738	0.569488	0.727381
H231	H	0.793157	0.067793	0.299151
H232	H	1.293157	0.567793	0.799151
H233	H	0.875901	0.114374	0.309748
H234	H	1.375901	0.614374	0.809748
H235	H	0.885812	-0.669775	-0.217829
H236	H	1.385812	-0.169775	0.282171
H237	H	0.416864	0.125632	-0.125993
H238	H	0.916864	0.625632	0.374007
H239	H	0.547108	-0.076563	-0.228485
H240	H	1.047108	0.423437	0.271515
C241	C	0.407046	-0.144890	-0.120370
C242	C	0.907046	0.355110	0.379630
H243	H	0.377215	-0.132878	-0.074020
H244	H	0.877215	0.367122	0.425980
H245	H	0.371569	-0.172958	-0.160771
H246	H	0.871569	0.327042	0.339229
H247	H	0.455237	-0.174241	-0.101352
H248	H	0.955237	0.325759	0.398648
C249	C	0.391897	-0.071934	-0.251991
C250	C	0.891897	0.428066	0.248009
H251	H	0.356183	-0.029046	-0.260991
H252	H	0.856183	0.470954	0.239009
H253	H	0.433566	-0.070353	-0.289811
H254	H	0.933566	0.429647	0.210189
H255	H	0.359457	-0.116803	-0.261419
H256	H	0.859457	0.383197	0.238581
H257	H	1.092372	-0.186578	-0.011348
H258	H	1.592372	0.313422	0.488652
H259	H	1.092382	-0.330344	-0.011347
H260	H	1.592382	0.169656	0.488653
