data_functionalizedCrystal
_audit_creation_method	'MofGen! by Chris Wilmer'
_symmetry_space_group_name_H-M	'P1'
_symmetry_Int_Tables_number	1
_symmetry_cell_setting	triclinic
loop_
_symmetry_equiv_pos_as_xyz
  x,y,z
_cell_length_a	18.215405
_cell_length_b	13.897449
_cell_length_c	18.215399
_cell_angle_alpha	89.979342
_cell_angle_beta	90.027541
_cell_angle_gamma	89.977435
loop_
_atom_site_label
_atom_site_type_symbol
_atom_site_fract_x
_atom_site_fract_y
_atom_site_fract_z
Zn1	Zn	-0.292995	-1.474648	0.416134
Zn2	Zn	-0.416066	-1.474534	0.293069
Zn3	Zn	-0.293018	-1.313343	0.293080
Zn4	Zn	-0.416024	-1.313305	0.416092
O5	O	-0.354526	-1.393957	0.354594
O6	O	-0.309329	-1.609614	0.399822
O7	O	-0.399771	-1.453120	0.190086
O8	O	-0.190031	-1.334804	0.309425
O9	O	-0.399749	-1.609531	0.309407
O10	O	-0.190014	-1.453314	0.399833
O11	O	-0.309368	-1.334694	0.190094
O12	O	-0.309327	-1.178356	0.309384
O13	O	-0.399677	-1.334739	0.519082
O14	O	-0.399699	-1.178328	0.399761
O15	O	-0.309288	-1.453277	0.519113
O16	O	-0.519045	-1.453083	0.309366
O17	O	-0.519014	-1.334628	0.399750
C18	C	-0.354511	-1.143343	0.354570
C19	C	-0.354523	-1.036129	0.354577
C20	C	-0.354521	-0.839834	0.354591
C21	C	-0.354520	-0.949066	0.354581
C22	C	-0.545732	-1.393865	0.354568
C23	C	-0.627531	-1.393914	0.354582
C24	C	-0.815655	-1.455651	0.401721
C25	C	-0.892514	-1.455686	0.401735
C26	C	-0.892644	-1.332383	0.307512
C27	C	-0.815787	-1.332344	0.307502
C28	C	-0.777294	-1.393983	0.354606
C29	C	-0.931011	-1.394057	0.354629
C30	C	-1.014344	-1.394095	0.354644
C31	C	-0.693956	-1.393945	0.354592
C32	C	-0.162573	-1.394076	0.354635
C33	C	-0.080774	-1.394127	0.354653
C34	C	-0.354475	-1.394016	0.546547
C35	C	-0.354453	-1.394041	0.628346
C36	C	-0.354536	-0.645550	0.354611
C37	C	-0.354528	-0.752764	0.354600
C38	C	-0.354523	-1.393954	0.163387
C39	C	-0.354338	-1.394116	0.081589
C40	C	-0.307344	-1.455786	0.816557
C41	C	-0.307323	-1.455798	0.893416
C42	C	-0.401449	-1.332364	0.893372
C43	C	-0.401466	-1.332349	0.816515
C44	C	-0.354415	-1.394065	0.778109
C45	C	-0.354376	-1.394092	0.931825
C46	C	-0.354353	-1.394104	1.015159
C47	C	-0.354437	-1.394052	0.694770
H48	H	-0.923744	-1.505900	0.440102
C49	C	-0.452508	-1.265472	0.935204
C50	C	-0.442434	-1.278713	1.010742
C51	C	-0.489465	-1.217117	1.049299
H52	H	-0.441785	-1.200626	0.922691
H53	H	-0.501974	-1.279567	0.922639
H54	H	-0.392979	-1.264611	1.023302
H55	H	-0.453162	-1.343546	1.023278
H56	H	-0.538931	-1.231213	1.036734
H57	H	-0.478738	-1.152275	1.036779
H58	H	-0.482642	-1.226100	1.100555
C59	C	-0.934571	-1.265577	0.256395
C60	C	-1.010090	-1.278829	0.266470
C61	C	-1.048734	-1.217315	0.219383
H62	H	-0.922098	-1.200711	0.267066
H63	H	-0.922037	-1.279740	0.206942
H64	H	-1.022620	-1.264659	0.315912
H65	H	-1.022585	-1.343682	0.255793
H66	H	-1.036200	-1.231478	0.169930
H67	H	-1.036255	-1.152453	0.230059
H68	H	-1.099977	-1.226304	0.226208
C69	C	-0.774265	-1.265349	0.256265
C70	C	-0.824424	-1.211400	0.214998
C71	C	-0.786201	-1.149685	0.167788
H72	H	-0.744289	-1.223200	0.284302
H73	H	-0.744295	-1.302238	0.224185
H74	H	-0.854381	-1.174514	0.247074
H75	H	-0.854401	-1.253524	0.186946
H76	H	-0.756231	-1.186574	0.135708
H77	H	-0.756226	-1.107542	0.195831
H78	H	-0.820227	-1.113079	0.139778
H79	H	-0.439797	-1.282081	0.785210
H80	H	-0.269030	-1.506037	0.785289
H81	H	-0.268992	-1.506056	0.924717
H82	H	-0.784316	-1.505840	0.440077
