data_functionalizedCrystal
_audit_creation_method	'MofGen! by Chris Wilmer'
_symmetry_space_group_name_H-M	'P1'
_symmetry_Int_Tables_number	1
_symmetry_cell_setting	triclinic
loop_
_symmetry_equiv_pos_as_xyz
  x,y,z
_cell_length_a	16.974800
_cell_length_b	14.044190
_cell_length_c	15.455313
_cell_angle_alpha	92.904485
_cell_angle_beta	90.973911
_cell_angle_gamma	88.281173
loop_
_atom_site_label
_atom_site_type_symbol
_atom_site_fract_x
_atom_site_fract_y
_atom_site_fract_z
O1	O	1.057573	0.120854	0.002126
O2	O	0.829158	0.135332	-0.013917
O3	O	0.939933	-0.009900	-0.006120
O4	O	0.946798	0.266086	-0.005672
O5	O	0.933596	-0.001629	0.137696
O6	O	0.822821	0.143603	0.129899
O7	O	1.051236	0.129125	0.145942
Cu8	Cu	0.936450	0.137119	0.151052
Cu9	Cu	0.943944	0.127338	-0.019027
O10	O	0.940461	0.274357	0.138144
C11	C	0.796581	0.138766	0.055925
C12	C	0.708952	0.136662	0.049771
C13	C	0.664333	0.140180	0.125276
C14	C	0.581996	0.138188	0.119496
C15	C	0.544279	0.132685	0.038211
C16	C	0.588904	0.129164	-0.037300
C17	C	0.671239	0.131149	-0.031519
C18	C	0.298403	0.126259	0.012516
C19	C	0.216061	0.124277	0.006740
C20	C	0.209160	0.133299	0.163537
C21	C	0.291497	0.135289	0.169311
C22	C	0.336114	0.131763	0.093800
N23	N	0.460118	0.130652	0.032301
N24	N	0.420275	0.133789	0.099711
C25	C	0.933763	-0.041087	0.065580
C26	C	0.924807	-0.146336	0.064958
C27	C	0.971949	-0.396499	0.068236
C28	C	0.908449	-0.339039	0.063782
C29	C	0.917553	-0.231809	0.064436
C30	C	0.962847	-0.503738	0.067581
C31	C	1.083813	0.125692	0.076097
C32	C	1.171443	0.127795	0.082245
C33	C	0.946632	0.305544	0.066443
C34	C	0.955588	0.410793	0.067058
N35	N	0.931185	0.143998	0.270677
N36	N	0.949215	0.120452	-0.138652
C37	C	0.978265	0.082321	0.319385
C38	C	0.974291	0.087532	0.409913
C39	C	0.923240	0.154425	0.451732
C40	C	0.876154	0.216105	0.403017
C41	C	0.880125	0.210889	0.312490
C42	C	0.906100	0.176915	0.722107
C43	C	0.902135	0.182129	0.812640
C44	C	1.000271	0.053554	0.819530
C45	C	1.004241	0.048347	0.729001
C46	C	0.957152	0.110024	0.680294
N47	N	0.919178	0.159755	0.544266
N48	N	0.961210	0.104688	0.587761
H49	H	0.322201	0.139766	0.235502
H50	H	1.012627	0.037309	0.449571
H51	H	0.860561	0.236605	0.846684
H52	H	1.045810	-0.006122	0.694955
H53	H	0.545672	0.141037	0.180981
H54	H	1.033146	-0.365161	0.072543
O55	O	0.165791	0.136544	0.236859
C56	C	0.121106	0.053644	0.238428
H57	H	0.150087	-0.005650	0.195841
H58	H	0.058917	0.069474	0.212935
C59	C	0.081558	0.094625	0.384411
C60	C	0.117156	0.021797	0.332111
H61	H	0.079118	0.074981	0.442199
H62	H	0.111660	0.150478	0.383354
H63	H	0.029737	0.107810	0.363157
H64	H	0.168979	0.008621	0.353358
H65	H	0.087062	-0.034060	0.333174
O66	O	0.835376	-0.376262	0.058612
C67	C	0.778121	-0.301716	0.054627
H68	H	0.806041	-0.235981	0.029280
H69	H	0.754132	-0.283874	0.122156
C70	C	0.675977	-0.413918	0.024426
C71	C	0.710268	-0.333184	-0.006713
H72	H	0.634120	-0.433330	-0.013408
H73	H	0.714550	-0.464142	0.027114
H74	H	0.655993	-0.399040	0.080700
H75	H	0.730260	-0.348067	-0.062981
H76	H	0.671697	-0.282963	-0.009411
O77	O	0.179548	0.118894	-0.072294
C78	C	0.236582	0.116236	-0.137703
H79	H	0.295416	0.088973	-0.110523
H80	H	0.243479	0.191050	-0.161404
C81	C	0.137830	0.082582	-0.247237
C82	C	0.210090	0.049090	-0.213855
H83	H	0.121488	0.041167	-0.294214
H84	H	0.099405	0.084376	-0.203171
H85	H	0.143587	0.144927	-0.266981
H86	H	0.204330	-0.013249	-0.194102
H87	H	0.248514	0.047283	-0.257921
H88	H	1.019840	0.027854	0.285343
H89	H	0.334721	0.123385	-0.048971
H90	H	0.558188	0.124677	-0.103484
O91	O	0.714464	0.127774	-0.104951
C92	C	0.663521	0.122470	-0.177936
H93	H	0.602661	0.152363	-0.159158
H94	H	0.658755	0.044885	-0.202442
C95	C	0.771273	0.144388	-0.272985
C96	C	0.696525	0.181110	-0.249924
H97	H	0.791632	0.180556	-0.317392
H98	H	0.805595	0.147957	-0.223814
H99	H	0.767292	0.079735	-0.293402
H100	H	0.700509	0.245758	-0.229497
H101	H	0.662204	0.177553	-0.299093
O102	O	1.045963	-0.006498	0.866748
C103	C	1.027503	-0.101662	0.843301
H104	H	1.000015	-0.105428	0.775446
H105	H	0.983968	-0.128172	0.891364
C106	C	1.137038	-0.160090	0.927766
C107	C	1.103283	-0.164717	0.844422
H108	H	1.183781	-0.198988	0.928461
H109	H	1.149473	-0.095977	0.943566
H110	H	1.100751	-0.182180	0.967810
H111	H	1.139565	-0.142617	0.804382
H112	H	1.090855	-0.228829	0.828615
H113	H	0.867760	0.227136	0.682456
O114	O	0.826630	0.281058	0.443776
C115	C	0.833207	0.272424	0.534121
H116	H	0.892840	0.237914	0.550704
H117	H	0.784127	0.226205	0.556468
C118	C	0.752898	0.414433	0.559856
C119	C	0.826142	0.372054	0.580224
H120	H	0.748536	0.475888	0.588296
H121	H	0.748464	0.420248	0.498989
H122	H	0.712005	0.375907	0.578479
H123	H	0.867033	0.410573	0.561591
H124	H	0.830583	0.366247	0.641089
O125	O	0.834478	0.270937	0.265217
C126	C	0.852902	0.366107	0.288688
H127	H	0.914948	0.368219	0.317992
H128	H	0.808866	0.396834	0.338309
C129	C	0.772490	0.423111	0.171724
C130	C	0.848699	0.425705	0.207708
H131	H	0.769894	0.459876	0.121773
H132	H	0.760075	0.358994	0.155912
H133	H	0.735802	0.448715	0.213082
H134	H	0.885384	0.400091	0.166353
H135	H	0.861120	0.489820	0.223511
O136	O	0.700845	0.145483	0.204307
C137	C	0.643802	0.148182	0.269709
H138	H	0.587279	0.115460	0.242688
H139	H	0.631055	0.225345	0.292987
C140	C	0.744488	0.131287	0.379396
C141	C	0.675067	0.091090	0.346209
H142	H	0.763774	0.096074	0.426587
H143	H	0.782919	0.129472	0.335334
H144	H	0.733856	0.195588	0.398787
H145	H	0.685702	0.026795	0.326809
H146	H	0.636638	0.092893	0.390270
