data_functionalizedCrystal
_audit_creation_method	'MofGen! by Chris Wilmer'
_symmetry_space_group_name_H-M	'P1'
_symmetry_Int_Tables_number	1
_symmetry_cell_setting	triclinic
loop_
_symmetry_equiv_pos_as_xyz
  x,y,z
_cell_length_a	6.817900
_cell_length_b	15.185311
_cell_length_c	15.185107
_cell_angle_alpha	94.893704
_cell_angle_beta	104.257894
_cell_angle_gamma	104.261569
loop_
_atom_site_label
_atom_site_type_symbol
_atom_site_fract_x
_atom_site_fract_y
_atom_site_fract_z
V1	V	-4.039246	-0.126388	-0.283664
V2	V	-3.539246	0.373612	0.216336
O3	O	-4.022509	0.005423	-0.277990
O4	O	-3.522509	0.505423	0.222010
O5	O	-3.994537	-0.249981	-0.281988
O6	O	-3.494537	0.250019	0.218012
O7	O	-3.994530	-0.124729	-0.407260
O8	O	-3.494530	0.375271	0.092740
O9	O	-4.022516	-0.120695	-0.151851
O10	O	-3.522516	0.379305	0.348149
V11	V	-4.521918	-0.110588	-0.267866
V12	V	-4.021918	0.389412	0.232134
O13	O	-4.302370	-0.161046	-0.318318
O14	O	-3.802370	0.338954	0.181682
O15	O	-4.708991	-0.075930	-0.233212
O16	O	-4.208991	0.424070	0.266788
O17	O	-4.343421	0.013005	-0.269542
O18	O	-3.843421	0.513005	0.230458
O19	O	-4.656052	-0.242399	-0.273540
O20	O	-4.156052	0.257601	0.226460
O21	O	-4.656045	-0.116281	-0.399679
O22	O	-4.156045	0.383719	0.100321
O23	O	-4.343428	-0.112247	-0.144271
O24	O	-3.843428	0.387753	0.355729
C25	C	-3.840316	-0.280101	-0.277581
C26	C	-3.340316	0.219899	0.222419
C27	C	-3.885073	-0.381142	-0.277035
C28	C	-3.385073	0.118858	0.222965
C29	C	-4.031258	-0.795211	-0.191484
C30	C	-3.531258	-0.295211	0.308516
C31	C	-4.117595	-0.821526	-0.358021
C32	C	-3.617595	-0.321526	0.141979
C33	C	-4.075516	-0.726592	-0.358529
C34	C	-3.575516	-0.226592	0.141471
C35	C	-4.011308	-0.665962	-0.275514
C36	C	-3.511308	-0.165962	0.224486
C37	C	-3.989180	-0.700267	-0.191990
C38	C	-3.489180	-0.200267	0.308010
C39	C	-4.097661	-0.692280	-0.442052
C40	C	-3.597661	-0.192280	0.057948
C41	C	-4.055583	-0.597341	-0.442564
C42	C	-3.555583	-0.097341	0.057436
C43	C	-3.991360	-0.536709	-0.359547
C44	C	-3.491360	-0.036709	0.140453
C45	C	-3.969230	-0.571019	-0.276020
C46	C	-3.469230	-0.071019	0.223980
C47	C	-3.905023	-0.510390	-0.193005
C48	C	-3.405023	-0.010390	0.306995
C49	C	-3.882877	-0.544698	-0.109476
C50	C	-3.382877	-0.044698	0.390524
C51	C	-3.924957	-0.639636	-0.108974
C52	C	-3.424957	-0.139636	0.391026
C53	C	-3.949280	-0.441771	-0.360050
C54	C	-3.449280	0.058229	0.139950
C55	C	-3.862944	-0.415446	-0.193511
C56	C	-3.362944	0.084554	0.306489
C57	C	-3.840306	-0.120329	-0.437376
C58	C	-3.340306	0.379671	0.062624
C59	C	-3.885053	-0.119790	-0.538418
C60	C	-3.385053	0.380210	-0.038418
C61	C	-4.117628	-0.200713	-0.978812
C62	C	-3.617628	0.299287	-0.478812
C63	C	-4.031257	-0.034177	-0.952461
C64	C	-3.531257	0.465823	-0.452461
C65	C	-3.989169	-0.034696	-0.857528
C66	C	-3.489169	0.465304	-0.357528
C67	C	-4.011312	-0.118226	-0.823233
C68	C	-3.511312	0.381774	-0.323233
C69	C	-4.075543	-0.201236	-0.883871
C70	C	-3.575543	0.298764	-0.383871
C71	C	-3.924956	0.048311	-0.796883
C72	C	-3.424956	0.548311	-0.296883
C73	C	-3.882866	0.047795	-0.701944
C74	C	-3.382866	0.547795	-0.201944
C75	C	-3.904994	-0.035735	-0.667647
C76	C	-3.404994	0.464265	-0.167647
C77	C	-3.969227	-0.118748	-0.728292
C78	C	-3.469227	0.381252	-0.228292
C79	C	-3.991369	-0.202278	-0.693997
C80	C	-3.491369	0.297722	-0.193997
C81	C	-4.055588	-0.285292	-0.754640
C82	C	-3.555588	0.214708	-0.254640
C83	C	-4.097671	-0.284766	-0.849574
C84	C	-3.597671	0.215234	-0.349574
C85	C	-3.862911	-0.036261	-0.572713
C86	C	-3.362911	0.463739	-0.072713
C87	C	-3.949284	-0.202800	-0.599056
C88	C	-3.449284	0.297200	-0.099056
C89	C	-4.160984	0.043120	-0.273947
C90	C	-3.660984	0.543120	0.226053
C91	C	-4.095466	0.144160	-0.274499
C92	C	-3.595466	0.644160	0.225501
C93	C	-4.160994	-0.116650	-0.114149
C94	C	-3.660994	0.383350	0.385851
C95	C	-4.095485	-0.117184	-0.013107
C96	C	-3.595485	0.382816	0.486893
H97	H	-4.149963	-0.741652	-0.509639
H98	H	-3.649963	-0.241652	-0.009639
F99	F	-4.007683	-0.831723	-0.102591
F100	F	-3.507683	-0.331723	0.397409
H101	H	-3.967347	-0.413842	-0.428058
H102	H	-3.467347	0.086158	0.071942
F103	F	-4.185945	-0.886054	-0.446366
F104	F	-3.685945	-0.386054	0.053634
F105	F	-3.901398	0.137203	-0.833387
F106	F	-3.401398	0.637203	-0.333387
F107	F	-3.794595	-0.350926	-0.105152
F108	F	-3.294595	0.149074	0.394848
H109	H	-4.013247	0.033829	-0.980390
H110	H	-3.513247	0.533829	-0.480390
F111	F	-4.079146	-0.560836	-0.531460
F112	F	-3.579146	-0.060836	-0.031460
F113	F	-3.814466	0.136146	-0.637411
F114	F	-3.314466	0.636146	-0.137411
F115	F	-3.794629	0.052080	-0.508179
F116	F	-3.294629	0.552080	-0.008179
F117	F	-3.972843	-0.291706	-0.562565
F118	F	-3.472843	0.208294	-0.062565
H119	H	-4.073623	-0.353302	-0.726705
H120	H	-3.573623	0.146698	-0.226705
F121	F	-4.166100	-0.373109	-0.914121
F122	F	-3.666100	0.126891	-0.414121
H123	H	-3.906937	-0.667578	-0.040970
H124	H	-3.406937	-0.167578	0.459030
F125	F	-3.814579	-0.480162	-0.021130
F126	F	-3.314579	0.019838	0.478870
F127	F	-4.186004	-0.289059	-1.043351
F128	F	-3.686004	0.210941	-0.543351
