data_functionalizedCrystal
_audit_creation_method	'MofGen! by Chris Wilmer'
_symmetry_space_group_name_H-M	'P1'
_symmetry_Int_Tables_number	1
_symmetry_cell_setting	triclinic
loop_
_symmetry_equiv_pos_as_xyz
  x,y,z
_cell_length_a	15.944551
_cell_length_b	11.792254
_cell_length_c	10.268362
_cell_angle_alpha	89.994545
_cell_angle_beta	89.999906
_cell_angle_gamma	83.848668
loop_
_atom_site_label
_atom_site_type_symbol
_atom_site_fract_x
_atom_site_fract_y
_atom_site_fract_z
O1	O	1.115190	0.146380	-0.108165
O2	O	0.870722	0.164427	-0.108197
O3	O	0.998883	-0.009815	-0.108171
O4	O	0.987029	0.320622	-0.108191
O5	O	0.998872	-0.009822	0.108429
O6	O	0.870711	0.164420	0.108403
O7	O	1.115178	0.146373	0.108436
Cu8	Cu	0.992944	0.155395	0.128197
Cu9	Cu	0.992957	0.155404	-0.127959
O10	O	0.987018	0.320615	0.108409
C11	C	0.998131	-0.052103	0.000129
C12	C	0.995895	-0.178098	0.000127
C13	C	0.839419	0.163674	0.000099
C14	C	0.746163	0.161428	0.000087
C15	C	0.994079	-0.280420	0.000122
C16	C	0.991809	-0.408787	0.000110
C17	C	0.530791	0.048056	0.000119
C18	C	0.470015	0.100705	-0.106680
C19	C	0.575418	0.157364	0.000102
C20	C	0.470027	0.100724	0.106871
C21	C	0.410488	0.153431	0.000123
C22	C	0.515872	0.210044	-0.106785
C23	C	0.515889	0.210048	0.106863
C24	C	0.455132	0.262777	0.000038
C25	C	0.670431	0.159627	0.000089
C26	C	0.315477	0.151177	0.000127
C27	C	1.146481	0.147125	0.000137
C28	C	1.239738	0.149371	0.000140
C29	C	0.987770	0.362903	0.000107
C30	C	0.990005	0.488897	0.000100
N31	N	0.992940	0.155389	0.308363
N32	N	0.992967	0.155402	-0.308124
C33	C	0.992953	0.155402	0.574033
C34	C	0.992943	0.155398	0.426195
H35	H	0.563711	-0.042661	-0.000008
H36	H	0.536074	0.256246	-0.197173
H37	H	0.422386	0.353588	-0.000027
H38	H	0.449700	0.054475	-0.196965
H39	H	0.536226	0.256240	0.197152
H40	H	0.449726	0.054468	0.197158
