data_functionalizedCrystal
_audit_creation_method	'MofGen! by Chris Wilmer'
_symmetry_space_group_name_H-M	'P1'
_symmetry_Int_Tables_number	1
_symmetry_cell_setting	triclinic
loop_
_symmetry_equiv_pos_as_xyz
  x,y,z
_cell_length_a	15.625136
_cell_length_b	13.596369
_cell_length_c	15.538191
_cell_angle_alpha	89.996877
_cell_angle_beta	66.739147
_cell_angle_gamma	71.909920
loop_
_atom_site_label
_atom_site_type_symbol
_atom_site_fract_x
_atom_site_fract_y
_atom_site_fract_z
O1	O	-1.156053	0.494196	-0.122930
O2	O	-0.888769	0.398845	-0.137576
O3	O	-1.074441	0.465086	0.006809
O4	O	-0.970382	0.427955	-0.267315
O5	O	-1.074429	0.301499	0.006816
O6	O	-0.888758	0.235258	-0.137568
O7	O	-1.156042	0.330609	-0.122922
Zn8	Zn	-1.022398	0.256960	-0.130244
Zn9	Zn	-1.022413	0.472493	-0.130254
O10	O	-0.970371	0.264368	-0.267307
C11	C	-0.855391	0.305146	-0.136909
C12	C	-0.755955	0.269674	-0.134921
C13	C	-0.615797	0.130512	-0.132114
C14	C	-0.709232	0.163854	-0.133982
C15	C	-0.709256	0.342194	-0.133987
C16	C	-0.615821	0.308867	-0.132113
C17	C	-0.569098	0.203025	-0.131178
C18	C	-0.569122	0.381381	-0.131178
C19	C	-0.475693	0.348056	-0.129310
C20	C	-0.428962	0.242218	-0.128378
C21	C	-0.475669	0.169700	-0.129310
C22	C	-0.615843	0.487221	-0.132120
C23	C	-0.569144	0.559735	-0.131185
C24	C	-0.475716	0.526411	-0.129310
C25	C	-0.428986	0.420573	-0.128378
C26	C	-0.429009	0.598929	-0.128377
C27	C	-0.335580	0.565604	-0.126510
C28	C	-0.335557	0.387248	-0.126510
N29	N	-1.022395	0.109867	-0.130237
C30	C	-1.022412	-0.291418	-0.130255
C31	C	-1.022403	-0.179769	-0.130253
C32	C	-1.022404	-0.090779	-0.130247
C33	C	-1.022395	0.020877	-0.130243
C34	C	-0.189421	0.424303	-0.123589
C35	C	-0.288858	0.459761	-0.125574
C36	C	-1.085322	0.387179	0.041894
C37	C	-1.117752	0.398758	0.146425
N38	N	-1.022426	0.619589	-0.130254
C39	C	-0.959490	0.342276	-0.302392
C40	C	-0.927060	0.330704	-0.406924
C41	C	-0.795574	0.283803	0.434636
C42	C	-0.826069	0.294680	0.532862
C43	C	-0.997597	0.355871	0.555081
C44	C	-0.967116	0.345004	0.456855
C45	C	-0.866103	0.308969	0.396639
C46	C	-1.037645	0.370170	0.418859
C47	C	-1.007167	0.359299	0.320641
C48	C	-0.906158	0.323262	0.260420
C49	C	-0.835624	0.298098	0.298422
C50	C	-1.138658	0.406198	0.479076
C51	C	-1.209187	0.431364	0.441080
C52	C	-1.178709	0.420500	0.342861
C53	C	-1.077701	0.384463	0.282639
C54	C	-1.249243	0.445665	0.304858
C55	C	-1.218764	0.434793	0.206641
C56	C	-1.047222	0.373592	0.184421
H57	H	-0.577748	0.044323	-0.131364
H58	H	-0.297507	0.301059	-0.125760
H59	H	-0.881344	0.314406	0.180445
H60	H	-0.768627	0.274170	0.563793
H61	H	-1.331487	0.474995	0.353900
F62	F	-1.293830	0.461563	0.166200
F63	F	-0.758991	0.454836	-0.134981
F64	F	-0.329523	0.206749	-0.126395
H65	H	-0.691916	0.514350	-0.133648
H66	H	-0.964967	0.344256	0.135390
F67	F	-1.316689	0.469707	0.505175
F68	F	-0.478742	0.711568	-0.129382
H69	H	-0.437620	0.083511	-0.128561
H70	H	-0.747248	0.104796	-0.134750
F71	F	-0.618879	0.672377	-0.132179
H72	H	-0.297556	0.624651	-0.125750
F73	F	-0.728114	0.259754	0.234330
F74	F	-0.688064	0.245459	0.370544
F75	F	-1.105098	0.394214	0.619176
F76	F	-1.171094	0.417761	0.583609
