data_functionalizedCrystal
_audit_creation_method	'MofGen! by Chris Wilmer'
_symmetry_space_group_name_H-M	'P1'
_symmetry_Int_Tables_number	1
_symmetry_cell_setting	triclinic
loop_
_symmetry_equiv_pos_as_xyz
  x,y,z
_cell_length_a	12.837932
_cell_length_b	15.944551
_cell_length_c	11.295483
_cell_angle_alpha	94.094426
_cell_angle_beta	85.460332
_cell_angle_gamma	89.164220
loop_
_atom_site_label
_atom_site_type_symbol
_atom_site_fract_x
_atom_site_fract_y
_atom_site_fract_z
O1	O	1.382453	0.213272	-0.099033
O2	O	1.882453	0.713272	0.400967
O3	O	1.080646	0.202483	-0.099034
O4	O	1.580646	0.702483	0.400966
O5	O	1.239790	0.086263	-0.099023
O6	O	1.739790	0.586263	0.400977
O7	O	1.223309	0.329492	-0.099045
O8	O	1.723309	0.829492	0.400955
O9	O	1.225812	0.096453	0.099027
O10	O	1.725812	0.596453	0.599027
O11	O	1.066668	0.212674	0.099015
O12	O	1.566668	0.712674	0.599015
O13	O	1.368475	0.223462	0.099017
O14	O	1.868475	0.723462	0.599017
Cu15	Cu	1.216295	0.218998	0.117100
Cu16	Cu	1.716295	0.718998	0.617100
Cu17	Cu	1.232826	0.206947	-0.117117
Cu18	Cu	1.732826	0.706947	0.382883
O19	O	1.209331	0.339683	0.099005
O20	O	1.709331	0.839683	0.599005
C21	C	1.035036	0.203934	-0.000010
C22	C	1.535036	0.703934	0.499990
C23	C	0.919958	0.193066	-0.000010
C24	C	1.419958	0.693066	0.499990
C25	C	1.232117	0.060009	0.000002
C26	C	1.732117	0.560009	0.500002
C27	C	1.230066	-0.033401	0.000003
C28	C	1.730066	0.466599	0.500003
C29	C	0.770109	0.102226	0.000000
C30	C	1.270109	0.602226	0.500000
C31	C	0.878236	0.112432	-0.000001
C32	C	1.378236	0.612432	0.499999
C33	C	0.853546	0.263498	-0.000014
C34	C	1.353546	0.763498	0.499986
C35	C	0.745419	0.253292	-0.000012
C36	C	1.245419	0.753292	0.499988
C37	C	0.703705	0.172653	-0.000007
C38	C	1.203705	0.672653	0.499993
C39	C	0.595576	0.162447	-0.000014
C40	C	1.095576	0.662447	0.499986
C41	C	0.570888	0.313513	-0.000019
C42	C	1.070888	0.813513	0.499981
C43	C	0.679014	0.323719	-0.000020
C44	C	1.179014	0.823719	0.499980
C45	C	1.126518	-0.256543	-0.000014
C46	C	1.626518	0.243457	0.499986
C47	C	1.167710	-0.308688	0.097637
C48	C	1.667710	0.191312	0.597637
C49	C	1.226355	-0.204424	-0.000006
C50	C	1.726355	0.295576	0.499994
C51	C	1.181515	-0.318717	-0.097625
C52	C	1.681515	0.181283	0.402375
C53	C	1.222764	-0.369625	-0.000020
C54	C	1.722764	0.130375	0.499980
C55	C	1.267569	-0.255336	0.097725
C56	C	1.767569	0.244664	0.597725
C57	C	1.281366	-0.265364	-0.097624
C58	C	1.781366	0.234636	0.402376
C59	C	1.322630	-0.317485	0.000050
C60	C	1.822630	0.182515	0.500050
C61	C	1.228421	-0.109256	0.000003
C62	C	1.728421	0.390744	0.500003
C63	C	1.220705	-0.464791	-0.000021
C64	C	1.720705	0.035209	0.499979
C65	C	1.414085	0.222011	-0.000011
C66	C	1.914085	0.722011	0.499989
C67	C	1.529163	0.232879	-0.000018
C68	C	2.029163	0.732879	0.499982
C69	C	1.217004	0.365936	-0.000022
C70	C	1.717004	0.865936	0.499978
C71	C	1.219056	0.459346	-0.000031
C72	C	1.719056	0.959346	0.499969
N73	N	1.204676	0.227475	0.281835
N74	N	1.704676	0.727475	0.781835
N75	N	1.244453	0.198465	-0.281853
N76	N	1.744453	0.698465	0.218147
C77	C	1.328094	0.137400	0.531133
C78	C	1.828094	0.637400	1.031133
C79	C	1.319321	0.143812	0.655796
C80	C	1.819321	0.643812	1.155796
C81	C	1.178352	0.246707	0.655826
C82	C	1.678352	0.746707	1.155826
C83	C	1.187125	0.240294	0.531163
C84	C	1.687125	0.740294	1.031163
C85	C	1.262000	0.185640	0.468821
C86	C	1.762000	0.685640	0.968821
C87	C	1.270777	0.179233	0.344156
C88	C	1.770777	0.679233	0.844156
C89	C	1.129804	0.282122	0.344188
C90	C	1.629804	0.782122	0.844188
C91	C	1.121031	0.288535	0.468851
C92	C	1.621031	0.788535	0.968851
H93	H	0.561615	0.096786	-0.000015
H94	H	1.061615	0.596786	0.499985
H95	H	1.329384	-0.246106	-0.180184
H96	H	1.829384	0.253894	0.319816
H97	H	0.887528	0.329152	-0.000007
H98	H	1.387528	0.829152	0.499993
Cl99	Cl	0.731466	0.425088	-0.000029
Cl100	Cl	1.231466	0.925088	0.499971
H101	H	0.516809	0.370860	-0.000025
H102	H	1.016809	0.870860	0.499975
H103	H	1.405568	-0.344005	0.000106
H104	H	1.905568	0.155995	0.500106
Cl105	Cl	0.717664	0.000854	0.000000
Cl106	Cl	1.217664	0.500854	0.500000
Cl107	Cl	0.998565	-0.215346	0.000128
Cl108	Cl	1.498565	0.284654	0.500128
Cl109	Cl	1.125288	-0.361511	-0.225075
Cl110	Cl	1.625288	0.138489	0.274925
H111	H	1.373140	0.104529	0.706528
H112	H	1.873140	0.604529	1.206528
H113	H	1.119656	-0.327927	0.180192
H114	H	1.619656	0.172073	0.680192
Cl115	Cl	1.364907	0.110527	0.265785
Cl116	Cl	1.864907	0.610527	0.765785
Cl117	Cl	1.323708	-0.212701	0.225325
Cl118	Cl	1.823708	0.287299	0.725325
Cl119	Cl	1.026904	0.357238	0.547232
Cl120	Cl	1.526904	0.857238	1.047232
Cl121	Cl	0.961712	0.023891	0.000012
Cl122	Cl	1.461712	0.523891	0.500012
Cl123	Cl	1.422231	0.068703	0.452759
Cl124	Cl	1.922231	0.568703	0.952759
Cl125	Cl	1.084218	0.315401	0.734211
Cl126	Cl	1.584218	0.815401	1.234211
H127	H	1.075988	0.321406	0.293439
H128	H	1.575988	0.821406	0.793439
