data_functionalizedCrystal
_audit_creation_method	'MofGen! by Chris Wilmer'
_symmetry_space_group_name_H-M	'P1'
_symmetry_Int_Tables_number	1
_symmetry_cell_setting	triclinic
loop_
_symmetry_equiv_pos_as_xyz
  x,y,z
_cell_length_a	10.654542
_cell_length_b	12.811424
_cell_length_c	11.295657
_cell_angle_alpha	89.156939
_cell_angle_beta	94.551691
_cell_angle_gamma	84.262831
loop_
_atom_site_label
_atom_site_type_symbol
_atom_site_fract_x
_atom_site_fract_y
_atom_site_fract_z
O1	O	-1.658343	-0.140078	0.114177
O2	O	-1.292676	-0.154029	0.115679
O3	O	-1.485959	0.004619	0.098543
O4	O	-1.465060	-0.298726	0.131313
O5	O	-1.500990	-0.008020	-0.098136
O6	O	-1.307707	-0.166668	-0.081000
O7	O	-1.673374	-0.152717	-0.082502
Cu8	Cu	-1.491913	-0.160846	-0.099710
Cu9	Cu	-1.474137	-0.145899	0.132886
O10	O	-1.480092	-0.311365	-0.065367
C11	C	-1.253408	-0.159325	0.017228
C12	C	-1.114006	-0.156261	0.016896
C13	C	-0.835675	-0.136706	0.230712
C14	C	-0.892980	-0.131258	0.338078
C15	C	-1.023959	-0.134144	0.338387
C16	C	-1.097637	-0.142477	0.231319
C17	C	-1.040332	-0.147926	0.123952
C18	C	-0.909348	-0.145042	0.123655
C19	C	-1.056700	-0.161710	-0.090470
C20	C	-0.925720	-0.158831	-0.090782
C21	C	-1.130378	-0.170043	-0.197539
C22	C	-1.073072	-0.175499	-0.304907
C23	C	-0.942085	-0.172613	-0.305212
C24	C	-0.868415	-0.164279	-0.198148
C25	C	-1.492764	0.037142	-0.003990
C26	C	-1.490633	0.152879	-0.016485
C27	C	-0.712642	-0.147424	0.015950
C28	C	-0.852042	-0.150498	0.016287
C29	C	-1.470216	0.384131	0.174479
C30	C	-1.468213	0.492877	0.162745
C31	C	-1.484615	0.479118	-0.051688
C32	C	-1.486618	0.370372	-0.039953
C33	C	-1.479420	0.322883	0.073134
C34	C	-1.481432	0.214136	0.084868
C35	C	-1.497824	0.200378	-0.129564
C36	C	-1.495821	0.309124	-0.141299
C37	C	-1.473285	0.656113	0.037167
C38	C	-1.475414	0.540375	0.049665
N39	N	-1.504425	-0.171358	-0.263305
C40	C	-1.371438	-0.059649	-0.524717
C41	C	-1.380921	-0.067599	-0.648518
C42	C	-1.532868	-0.195215	-0.634710
C43	C	-1.523384	-0.187264	-0.510909
C44	C	-1.442668	-0.119478	-0.455917
C45	C	-1.433192	-0.111522	-0.332114
C46	C	-1.585131	-0.239143	-0.318308
C47	C	-1.594615	-0.247094	-0.442109
N48	N	-1.461635	-0.135379	0.296481
H49	H	-0.832978	-0.124469	0.425250
H50	H	-1.490464	0.517802	-0.143758
Cl51	Cl	-1.096005	-0.127287	0.473362
H52	H	-1.505323	0.150498	-0.212087
H53	H	-1.367471	-0.056326	-0.287342
H54	H	-1.501676	0.347805	-0.233371
Cl55	Cl	-0.703752	-0.160657	-0.198521
Cl56	Cl	-1.456639	0.569872	0.290156
H57	H	-1.322916	-0.018882	-0.704530
Cl58	Cl	-1.262300	-0.146088	0.231709
H59	H	-0.729022	-0.134369	0.230472
H60	H	-1.305722	-0.004449	-0.479942
H61	H	-1.133072	-0.182277	-0.392074
Cl62	Cl	-1.472388	0.154436	0.227033
Cl63	Cl	-1.634304	-0.280447	-0.703861
Cl64	Cl	-1.295040	-0.173667	-0.197151
Cl65	Cl	-1.696073	-0.332312	-0.511253
Cl66	Cl	-0.870057	-0.179453	-0.440196
Cl67	Cl	-1.674692	-0.314354	-0.231811
H68	H	-1.464367	0.345466	0.266560
