data_functionalizedCrystal
_audit_creation_method	'MofGen! by Chris Wilmer'
_symmetry_space_group_name_H-M	'P1'
_symmetry_Int_Tables_number	1
_symmetry_cell_setting	triclinic
loop_
_symmetry_equiv_pos_as_xyz
  x,y,z
_cell_length_a	12.759395
_cell_length_b	12.759394
_cell_length_c	12.759387
_cell_angle_alpha	90.029697
_cell_angle_beta	90.019431
_cell_angle_gamma	90.014487
loop_
_atom_site_label
_atom_site_type_symbol
_atom_site_fract_x
_atom_site_fract_y
_atom_site_fract_z
Zn1	Zn	1.606269	-0.418215	0.593983
Zn2	Zn	1.606160	-0.593932	0.418307
Zn3	Zn	1.430567	-0.418268	0.418323
Zn4	Zn	1.430560	-0.593853	0.593949
O5	O	1.518389	-0.506067	0.506140
O6	O	1.753276	-0.441536	0.570686
O7	O	1.582825	-0.570685	0.271288
O8	O	1.453923	-0.271240	0.441646
O9	O	1.753195	-0.570635	0.441618
O10	O	1.583011	-0.271201	0.570702
O11	O	1.453817	-0.441625	0.271300
O12	O	1.283545	-0.441548	0.441613
O13	O	1.453911	-0.570499	0.740975
O14	O	1.283540	-0.570549	0.570645
O15	O	1.583003	-0.441459	0.741000
O16	O	1.582817	-0.740943	0.441585
O17	O	1.453805	-0.740884	0.570629
C18	C	1.245422	-0.506046	0.506128
C19	C	1.128645	-0.506063	0.506147
C20	C	1.128709	-0.371849	0.640763
C21	C	1.073880	-0.304756	0.708080
C22	C	0.964159	-0.304774	0.708093
C23	C	0.909263	-0.371892	0.640780
C24	C	0.964092	-0.438986	0.573463
C25	C	1.073816	-0.438962	0.573460
C26	C	0.964028	-0.573192	0.438843
C27	C	1.073749	-0.573180	0.438834
C28	C	0.909132	-0.640309	0.371530
C29	C	0.963961	-0.707410	0.304218
C30	C	1.073689	-0.707389	0.304208
C31	C	1.128578	-0.640274	0.371517
C32	C	1.518327	-0.779035	0.506124
C33	C	1.518396	-0.895811	0.506153
C34	C	1.652960	-1.115242	0.371924
C35	C	1.720156	-1.060374	0.304780
C36	C	1.720101	-0.950653	0.304759
C37	C	1.652842	-0.895797	0.371887
C38	C	1.585646	-0.950665	0.439030
C39	C	1.585710	-1.060389	0.439046
C40	C	1.451201	-0.950679	0.573296
C41	C	1.451259	-1.060401	0.573324
C42	C	1.383942	-0.895823	0.640424
C43	C	1.316750	-0.950691	0.707574
C44	C	1.316808	-1.060419	0.707593
C45	C	1.384064	-1.115269	0.640467
C46	C	1.792422	-0.506089	0.506154
C47	C	1.909199	-0.506098	0.506160
C48	C	1.518468	-0.505964	0.780174
C49	C	1.518502	-0.505920	0.896951
C50	C	1.518480	-0.232034	0.506180
C51	C	1.518519	-0.115257	0.506196
C52	C	1.518370	-0.506094	0.233173
C53	C	1.518540	-0.505842	0.116397
C54	C	1.652936	-0.371560	0.896996
C55	C	1.720167	-0.304364	0.951880
C56	C	1.720193	-0.304326	1.061602
C57	C	1.652977	-0.371488	1.116442
C58	C	1.585746	-0.438684	1.061559
C59	C	1.585730	-0.438717	0.951835
C60	C	1.451309	-0.573038	1.061513
C61	C	1.451287	-0.573083	0.951791
C62	C	1.384093	-0.640200	1.116354
C63	C	1.316866	-0.707403	1.061470
C64	C	1.316844	-0.707439	0.951742
C65	C	1.384055	-0.640279	0.896908
H66	H	0.819791	-0.640317	0.371543
C67	C	1.653034	-1.235939	0.371947
N68	N	1.653090	-1.326849	0.371963
H69	H	1.262084	-0.762147	0.907062
C70	C	0.903570	-0.781229	0.230180
N71	N	0.858078	-0.836832	0.174415
C72	C	1.134273	-0.230928	0.782119
N73	N	1.179759	-0.175320	0.837883
C74	C	1.249406	-0.371830	0.640762
N75	N	1.340316	-0.371813	0.640763
C76	C	1.133992	-0.781199	0.230152
N77	N	1.179408	-0.836795	0.174373
H78	H	0.919517	-0.250135	0.762902
H79	H	1.652995	-0.371442	1.205784
H80	H	0.819922	-0.371892	0.640788
H81	H	1.774932	-0.249602	1.106288
C82	C	1.249275	-0.640243	0.371511
N83	N	1.340185	-0.640212	0.371506
C84	C	1.794132	-1.120724	0.230938
N85	N	1.849849	-1.166177	0.175317
C86	C	1.652796	-0.775100	0.371870
N87	N	1.652768	-0.684190	0.371865
C88	C	1.383903	-0.775126	0.640418
N89	N	1.383882	-0.684216	0.640425
C90	C	1.242773	-0.890343	0.781406
N91	N	1.187054	-0.844884	0.837019
H92	H	1.774813	-0.905979	0.250082
C93	C	1.652921	-0.371603	0.776300
N94	N	1.652911	-0.371633	0.685389
C95	C	1.794099	-0.230487	0.891548
N96	N	1.849784	-0.174842	0.846108
H97	H	1.384049	-0.640306	0.807567
H98	H	1.262090	-1.105086	0.762270
H99	H	1.384122	-1.204610	0.640480
H100	H	1.384115	-0.640160	1.205695
H101	H	1.262139	-0.762076	1.106130
