data_functionalizedCrystal
_audit_creation_method	'MofGen! by Chris Wilmer'
_symmetry_space_group_name_H-M	'P1'
_symmetry_Int_Tables_number	1
_symmetry_cell_setting	triclinic
loop_
_symmetry_equiv_pos_as_xyz
  x,y,z
_cell_length_a	23.204063
_cell_length_b	23.204065
_cell_length_c	23.204116
_cell_angle_alpha	59.997987
_cell_angle_beta	89.998953
_cell_angle_gamma	60.000253
loop_
_atom_site_label
_atom_site_type_symbol
_atom_site_fract_x
_atom_site_fract_y
_atom_site_fract_z
O1	O	-0.491197	-0.412484	0.017135
O2	O	-0.407392	-0.294473	-0.017070
O3	O	-0.407389	-0.412483	0.100940
O4	O	-0.491200	-0.294474	-0.100875
O5	O	-0.311538	-0.508333	0.100940
O6	O	-0.311541	-0.390323	-0.017071
O7	O	-0.395346	-0.508335	0.017135
Zn8	Zn	-0.338225	-0.464547	0.000032
Zn9	Zn	-0.464513	-0.338260	0.000033
O10	O	-0.395349	-0.390324	-0.100876
C11	C	-0.310652	-0.181456	-0.024838
C12	C	-0.346214	-0.110333	-0.019942
C13	C	-0.241294	-0.215971	-0.025323
C14	C	-0.310655	-0.285810	-0.024846
C15	C	-0.346219	-0.326263	-0.019957
C16	C	-0.241297	-0.320167	-0.025331
C17	C	-0.206293	-0.285815	-0.024838
C18	C	-0.130274	-0.326273	-0.019941
C19	C	-0.345497	-0.215967	-0.025331
C20	C	-0.658540	-0.590043	0.035860
C21	C	-0.734559	-0.549588	0.030967
C22	C	-0.623539	-0.659889	0.036349
C23	C	-0.554183	-0.590040	0.035855
C24	C	-0.518621	-0.549582	0.030958
C25	C	-0.519339	-0.659886	0.036344
C26	C	-0.554182	-0.694402	0.035859
C27	C	-0.518619	-0.765527	0.030967
C28	C	-0.623539	-0.555686	0.036345
C29	C	-0.489889	-0.822989	0.027012
C30	C	-0.795974	-0.516903	0.027013
C31	C	-0.489891	-0.516895	0.027000
C32	C	-0.453845	-0.895077	0.022052
C33	C	-0.873022	-0.475899	0.022054
C34	C	-0.453848	-0.475888	0.022036
C35	C	-0.554187	-0.212776	-0.445775
C36	C	-0.518624	-0.253233	-0.481336
C37	C	-0.623545	-0.142931	-0.480619
C38	C	-0.554188	-0.212775	-0.341416
C39	C	-0.518626	-0.253231	-0.265397
C40	C	-0.623546	-0.142930	-0.376419
C41	C	-0.658547	-0.108416	-0.445777
C42	C	-0.734566	-0.037291	-0.481340
C43	C	-0.519344	-0.247131	-0.376417
C44	C	-0.795982	0.020169	-0.510072
C45	C	-0.489893	-0.285920	-0.510065
C46	C	-0.489896	-0.285917	-0.203980
C47	C	-0.873032	0.092257	-0.546117
C48	C	-0.453848	-0.326925	-0.546108
C49	C	-0.453852	-0.326922	-0.126930
O50	O	0.100922	-0.508345	0.017151
O51	O	-0.100892	-0.390333	-0.017055
O52	O	0.017109	-0.508348	0.100956
O53	O	-0.017080	-0.390330	-0.100860
O54	O	0.017112	-0.412502	0.100963
O55	O	-0.100890	-0.294486	-0.017048
O56	O	0.100924	-0.412499	0.017158
Zn57	Zn	0.000018	-0.338275	0.000056
Zn58	Zn	0.000014	-0.464556	0.000047
O59	O	-0.017077	-0.294483	-0.100853
O60	O	-0.395342	0.083766	0.017156
O61	O	-0.311534	-0.083842	-0.017048
O62	O	-0.311538	-0.083852	0.100962
O63	O	-0.395338	0.083777	-0.100854
O64	O	-0.407391	-0.083849	0.100954
O65	O	-0.407387	-0.083839	-0.017056
O66	O	-0.491195	0.083770	0.017149
Zn67	Zn	-0.464510	-0.000034	0.000045
Zn68	Zn	-0.338219	-0.000039	0.000055
O69	O	-0.491191	0.083780	-0.100861
O70	O	-1.100901	0.281028	-0.592582
O71	O	-0.899087	0.113413	-0.508770
O72	O	-1.017091	0.113409	-0.508767
O73	O	-0.982897	0.281032	-0.592584
O74	O	-1.017088	0.113407	-0.604617
O75	O	-0.899085	0.113411	-0.604619
O76	O	-1.100898	0.281026	-0.688432
Zn77	Zn	-0.999991	0.197218	-0.661744
Zn78	Zn	-0.999994	0.197221	-0.535458
O79	O	-0.982895	0.281030	-0.688434
O80	O	-0.407389	-0.412483	-0.688416
O81	O	-0.491197	-0.294477	-0.604610
O82	O	-0.491195	-0.412486	-0.604605
O83	O	-0.407390	-0.294474	-0.688421
O84	O	-0.395343	-0.508338	-0.508754
O85	O	-0.395345	-0.390329	-0.508759
O86	O	-0.311537	-0.508334	-0.592565
Zn87	Zn	-0.338222	-0.464550	-0.535443
Zn88	Zn	-0.464511	-0.338262	-0.661732
O89	O	-0.311539	-0.390326	-0.592570
C90	C	-0.206294	-0.621360	0.310702
C91	C	-0.130275	-0.692485	0.346265
C92	C	-0.241296	-0.586846	0.345545
C93	C	-0.310654	-0.517001	0.206342
C94	C	-0.346216	-0.476544	0.130323
C95	C	-0.345497	-0.482645	0.241343
C96	C	-0.310653	-0.517001	0.310701
C97	C	-0.346216	-0.476544	0.346263
C98	C	-0.241296	-0.586846	0.241345
C99	C	0.024887	-0.517030	0.310724
C100	C	0.019993	-0.476577	0.346290
C101	C	0.025371	-0.586874	0.345565
C102	C	0.024889	-0.517022	0.206362
C103	C	0.019998	-0.476562	0.130342
C104	C	0.025374	-0.586867	0.241361
C105	C	0.024884	-0.621384	0.310718
C106	C	0.019987	-0.692509	0.346278
C107	C	0.025377	-0.482671	0.241366
C108	C	-0.310656	-0.285855	0.310709
C109	C	-0.346220	-0.326314	0.346266
C110	C	-0.241298	-0.320218	0.345555
C111	C	-0.310655	-0.181484	0.206357
C112	C	-0.346217	-0.110348	0.130340
C113	C	-0.241296	-0.216005	0.241362
C114	C	-0.206295	-0.285860	0.310717
C115	C	-0.130275	-0.326323	0.346282
C116	C	-0.345499	-0.216001	0.241354
C117	C	-0.035774	-0.108410	-0.445754
C118	C	-0.030877	-0.037285	-0.481314
C119	C	-0.036262	-0.142920	-0.480600
C120	C	-0.035780	-0.212771	-0.341397
C121	C	-0.030889	-0.253231	-0.265377
C122	C	-0.036268	-0.247124	-0.376401
C123	C	-0.035777	-0.212765	-0.445759
C124	C	-0.030883	-0.253218	-0.481324
C125	C	-0.036265	-0.142927	-0.376396
C126	C	-0.026928	-0.285901	-0.510056
C127	C	-0.026920	0.020175	-0.510042
C128	C	-0.026936	-0.285920	-0.203961
C129	C	-0.021967	-0.326903	-0.546103
C130	C	-0.021955	0.092262	-0.546083
C131	C	-0.021978	-0.326928	-0.126911
O132	O	-0.017120	-0.390358	0.491266
O133	O	0.017098	-0.508368	0.407461
O134	O	-0.100916	-0.390357	0.407446
O135	O	0.100893	-0.508369	0.491281
O136	O	-0.100904	-0.294507	0.311599
O137	O	0.017110	-0.412518	0.311614
O138	O	-0.017109	-0.294509	0.395420
Zn139	Zn	0.000002	-0.338295	0.338299
Zn140	Zn	-0.000013	-0.464581	0.464581
O141	O	0.100905	-0.412519	0.395435
C142	C	-0.658539	0.410016	-0.445751
C143	C	-0.734559	0.450479	-0.481316
C144	C	-0.623536	0.444375	-0.480590
C145	C	-0.554179	0.305641	-0.341392
C146	C	-0.518616	0.234505	-0.265374
C147	C	-0.519335	0.340158	-0.376388
C148	C	-0.554178	0.410013	-0.445743
C149	C	-0.518614	0.450471	-0.481300
C150	C	-0.623537	0.340162	-0.376396
C151	C	-0.489883	0.483159	-0.510025
C152	C	-0.795975	0.483170	-0.510049
C153	C	-0.489886	0.177036	-0.203959
C154	C	-0.453838	0.524167	-0.546063
C155	C	-0.873025	0.524182	-0.546095
C156	C	-0.453842	0.104937	-0.126912
H157	H	-0.462354	-0.688766	0.037124
C158	C	-0.203738	-0.395201	-0.026236
C159	C	-0.143353	-0.459045	0.033842
C160	C	-0.108740	-0.528178	0.033036
H161	H	-0.190464	-0.383128	-0.067345
H162	H	-0.234494	-0.410872	-0.026415
H163	H	-0.112602	-0.443376	0.034013
H164	H	-0.156607	-0.471143	0.074960
H165	H	-0.139497	-0.543849	0.032857
H166	H	-0.095471	-0.516096	-0.008076
H167	H	-0.067769	-0.571506	0.073800
C168	C	-0.203714	-0.625318	0.203882
C169	C	-0.143339	-0.625603	0.200435
C170	C	-0.108702	-0.661019	0.165921
H171	H	-0.234440	-0.594766	0.157455
H172	H	-0.190434	-0.679712	0.229246
H173	H	-0.156620	-0.571218	0.175070
H174	H	-0.112596	-0.656159	0.246852
H175	H	-0.095423	-0.715414	0.191285
H176	H	-0.139434	-0.630464	0.119497
H177	H	-0.067731	-0.661224	0.163584
H178	H	0.026144	-0.615754	0.402549
C179	C	-0.037433	-0.321983	-0.339071
C180	C	-0.098140	-0.303797	-0.376648
C181	C	-0.099235	-0.372736	-0.342294
H182	H	-0.037686	-0.337672	-0.292663
H183	H	0.003257	-0.365394	-0.336697
H184	H	-0.138819	-0.260401	-0.379014
H185	H	-0.097900	-0.288118	-0.423055
H186	H	-0.058546	-0.416147	-0.339921
H187	H	-0.099486	-0.388420	-0.295887
H188	H	-0.140421	-0.360409	-0.367789
H189	H	-0.651642	-0.688773	0.037135
C190	C	-0.037182	-0.104592	-0.556546
C191	C	0.022884	-0.161257	-0.560281
C192	C	0.022062	-0.125998	-0.630227
H193	H	-0.037354	-0.057983	-0.572469
H194	H	-0.078311	-0.088859	-0.585536
H195	H	0.064003	-0.176979	-0.531302
H196	H	0.023069	-0.207869	-0.544372
H197	H	-0.019067	-0.110265	-0.659217
H198	H	0.021888	-0.079389	-0.646144
H199	H	0.062813	-0.164442	-0.632772
C200	C	-0.421532	-0.177409	0.203957
C201	C	-0.464081	-0.154247	0.241504
C202	C	-0.534124	-0.118683	0.207068
H203	H	-0.424325	-0.215646	0.201521
H204	H	-0.437392	-0.130745	0.157563
H205	H	-0.448226	-0.200905	0.287886
H206	H	-0.461309	-0.116002	0.243941
H207	H	-0.549984	-0.072019	0.160673
H208	H	-0.536910	-0.156924	0.204634
H209	H	-0.563004	-0.102956	0.232534
C210	C	-0.660869	0.519299	-0.556584
C211	C	-0.615332	0.542114	-0.579737
C212	C	-0.649692	0.611121	-0.649739
H213	H	-0.701864	0.562781	-0.559359
H214	H	-0.674062	0.507144	-0.585594
H215	H	-0.602149	0.554273	-0.550736
H216	H	-0.574336	0.498652	-0.576979
H217	H	-0.662884	0.598965	-0.678748
H218	H	-0.690686	0.654596	-0.652507
H219	H	-0.618798	0.626605	-0.665459
C220	C	0.026313	-0.407655	0.203940
C221	C	-0.033756	-0.343816	0.200494
C222	C	-0.032915	-0.274705	0.166028
H223	H	0.026502	-0.391942	0.157514
H224	H	0.067440	-0.419791	0.229335
H225	H	-0.074872	-0.331682	0.175098
H226	H	-0.033958	-0.359503	0.246910
H227	H	0.008212	-0.286841	0.191424
H228	H	-0.032724	-0.259000	0.119604
H229	H	-0.073667	-0.231385	0.163692
C230	C	-0.661117	-0.480764	0.037415
C231	C	-0.729475	-0.457927	0.037740
C232	C	-0.764108	-0.388919	0.038731
H233	H	-0.663590	-0.437290	-0.003290
H234	H	-0.635769	-0.492925	0.078584
H235	H	-0.754818	-0.445761	-0.003425
H236	H	-0.727023	-0.501380	0.078443
H237	H	-0.738759	-0.401080	0.079900
H238	H	-0.766576	-0.345451	-0.001976
H239	H	-0.810490	-0.373419	0.038958
C240	C	-0.203946	-0.395089	0.421575
C241	C	-0.241509	-0.376940	0.464120
C242	C	-0.207126	-0.445890	0.534149
H243	H	-0.157544	-0.410754	0.437500
H244	H	-0.201555	-0.438508	0.424295
H245	H	-0.243892	-0.333535	0.461403
H246	H	-0.287909	-0.361285	0.448218
H247	H	-0.204735	-0.489308	0.536869
H248	H	-0.160726	-0.461549	0.550066
H249	H	-0.232611	-0.433587	0.563023
H250	H	-0.462356	-0.303332	-0.348318
C251	C	-0.660886	-0.104506	-0.338846
C252	C	-0.615364	-0.149701	-0.270488
C253	C	-0.649734	-0.114323	-0.235862
H254	H	-0.701889	-0.104205	-0.336370
H255	H	-0.674069	-0.050151	-0.364202
H256	H	-0.602192	-0.204042	-0.245139
H257	H	-0.574361	-0.150005	-0.272944
H258	H	-0.662917	-0.059968	-0.261218
H259	H	-0.690736	-0.114023	-0.233391
H260	H	-0.618851	-0.144977	-0.189480
C261	C	-0.037355	-0.104269	-0.339056
C262	C	-0.037684	-0.035580	-0.384578
C263	C	-0.038701	0.000057	-0.350209
H264	H	0.003341	-0.142492	-0.298049
H265	H	-0.078531	-0.088450	-0.325880
H266	H	0.003488	-0.051401	-0.397744
H267	H	-0.078377	0.002661	-0.425585
H268	H	-0.079877	0.015876	-0.337033
H269	H	0.001996	-0.038172	-0.309203
H270	H	-0.038931	0.046670	-0.381092
C271	C	-0.660886	-0.104512	-0.556615
C272	C	-0.615364	-0.149709	-0.579775
C273	C	-0.649732	-0.114329	-0.649782
H274	H	-0.674066	-0.050167	-0.585628
H275	H	-0.701896	-0.104211	-0.559376
H276	H	-0.574367	-0.150001	-0.577019
H277	H	-0.602182	-0.204053	-0.550782
H278	H	-0.690742	-0.114028	-0.652543
H279	H	-0.662911	-0.059984	-0.678788
H280	H	-0.618853	-0.144994	-0.665503
C281	C	-0.421438	-0.407613	0.203759
C282	C	-0.425186	-0.343783	0.143373
C283	C	-0.495126	-0.274648	0.108732
H284	H	-0.437323	-0.391907	0.234479
H285	H	-0.450453	-0.419718	0.190489
H286	H	-0.396182	-0.331677	0.156643
H287	H	-0.409315	-0.359461	0.112635
H288	H	-0.524141	-0.286754	0.095463
H289	H	-0.511005	-0.258951	0.139458
H290	H	-0.497679	-0.231334	0.067753
H291	H	0.026169	-0.615754	0.213258
C292	C	-0.203758	-0.625292	0.421486
C293	C	-0.143381	-0.625588	0.425267
C294	C	-0.108798	-0.660982	0.495208
H295	H	-0.190479	-0.679677	0.450532
H296	H	-0.234535	-0.594703	0.437318
H297	H	-0.112610	-0.656178	0.409444
H298	H	-0.156640	-0.571213	0.396237
H299	H	-0.139574	-0.630393	0.511039
H300	H	-0.095523	-0.715364	0.524248
H301	H	-0.067831	-0.661180	0.497781
H302	H	-0.462348	0.311266	-0.348281
C303	C	-0.203905	-0.177360	0.203921
C304	C	-0.241449	-0.097271	0.184555
C305	C	-0.207020	-0.061653	0.150077
H306	H	-0.201478	-0.176983	0.162881
H307	H	-0.157508	-0.207898	0.234719
H308	H	-0.287833	-0.066741	0.153758
H309	H	-0.243878	-0.097625	0.225582
H310	H	-0.160623	-0.092191	0.180875
H311	H	-0.204594	-0.061282	0.109040
H312	H	-0.232485	-0.007312	0.136939
H313	H	-0.651648	0.311288	-0.348296
H314	H	-0.402486	-0.187075	-0.026121
C315	C	-0.203932	-0.177290	-0.026552
C316	C	-0.241517	-0.097202	-0.087283
C317	C	-0.207121	-0.061537	-0.088468
H318	H	-0.157545	-0.207782	-0.026834
H319	H	-0.201503	-0.176920	0.014122
H320	H	-0.243937	-0.097577	-0.127946
H321	H	-0.287902	-0.066689	-0.087013
H322	H	-0.204692	-0.061166	-0.047794
H323	H	-0.160735	-0.092035	-0.088748
H324	H	-0.232620	-0.007191	-0.129670
