data_functionalizedCrystal
_audit_creation_method	'MofGen! by Chris Wilmer'
_symmetry_space_group_name_H-M	'P1'
_symmetry_Int_Tables_number	1
_symmetry_cell_setting	triclinic
loop_
_symmetry_equiv_pos_as_xyz
  x,y,z
_cell_length_a	10.540510
_cell_length_b	15.455446
_cell_length_c	16.992695
_cell_angle_alpha	87.143805
_cell_angle_beta	92.409233
_cell_angle_gamma	87.308943
loop_
_atom_site_label
_atom_site_type_symbol
_atom_site_fract_x
_atom_site_fract_y
_atom_site_fract_z
O1	O	1.690288	0.072136	-0.113850
O2	O	1.321777	0.072137	-0.124292
O3	O	1.504556	0.072130	-0.004920
O4	O	1.507509	0.072143	-0.233222
O5	O	1.514948	-0.072130	0.001882
O6	O	1.332169	-0.072123	-0.117490
O7	O	1.700681	-0.072123	-0.107048
Cu8	Cu	1.517374	-0.085295	-0.111648
Cu9	Cu	1.505084	0.085309	-0.119692
O10	O	1.517901	-0.072116	-0.226420
C11	C	1.279601	0.000007	-0.120113
C12	C	1.138450	0.000007	-0.117785
N13	N	1.526027	-0.205288	-0.105990
C14	C	1.574108	-0.749284	-0.074651
C15	C	1.567535	-0.658478	-0.078939
C16	C	1.483288	-0.613087	-0.133918
C17	C	1.405617	-0.658507	-0.184616
C18	C	1.412196	-0.749312	-0.180331
C19	C	1.454935	-0.341513	-0.152403
C20	C	1.448359	-0.250702	-0.156683
C21	C	1.610280	-0.250679	-0.051006
C22	C	1.616846	-0.341485	-0.046723
C23	C	1.539180	-0.386897	-0.097424
N24	N	1.476565	-0.520269	-0.138301
N25	N	1.545910	-0.479714	-0.093044
C26	C	0.928166	0.000344	-0.200728
C27	C	1.075001	0.000013	-0.203195
C28	C	1.095830	-0.082373	-0.070179
C29	C	0.948911	-0.082436	-0.068297
C30	C	0.937133	0.081613	-0.074254
C31	C	1.083747	0.082697	-0.078356
C32	C	1.742855	0.000008	-0.111227
C33	C	1.884007	0.000014	-0.113556
C34	C	1.505951	0.000000	0.027715
C35	C	1.494610	0.000000	0.114822
N36	N	1.496440	0.205302	-0.125344
C37	C	1.516506	0.000016	-0.259055
C38	C	1.527846	0.000021	-0.346162
C39	C	1.604031	-0.000001	0.164457
C40	C	1.593367	0.000007	0.246302
C41	C	1.473282	0.000011	0.278511
C42	C	1.363853	0.000014	0.228869
C43	C	1.374517	0.000012	0.147025
C44	C	1.429081	0.000023	0.522353
C45	C	1.418425	0.000022	0.604203
C46	C	1.647941	0.000017	0.621630
C47	C	1.658595	0.000010	0.539784
C48	C	1.549166	0.000018	0.490149
N49	N	1.462379	0.000016	0.362170
N50	N	1.560069	0.000018	0.406492
H51	H	1.642705	-0.786236	-0.029878
H52	H	1.701818	-0.000009	0.138239
H53	H	1.379749	-0.213749	-0.201456
H54	H	1.391694	-0.378480	-0.193685
H55	H	1.348953	-0.786287	-0.221612
H56	H	1.110652	-0.059135	-0.234818
Cl57	Cl	0.897665	-0.177503	-0.109951
H58	H	1.110736	0.143641	-0.113041
H59	H	1.337025	-0.621545	-0.229385
H60	H	1.266076	0.000022	0.255100
Cl61	Cl	0.905263	-0.088271	0.030600
Cl62	Cl	1.665178	-0.601385	-0.015210
Cl63	Cl	1.154346	-0.177023	-0.112594
Cl64	Cl	1.722757	-0.398548	0.022395
Cl65	Cl	1.291511	0.000035	0.459965
H66	H	1.137985	-0.085440	-0.007157
Cl67	Cl	0.871960	-0.090345	-0.247534
H68	H	0.892424	0.144053	-0.104132
Cl69	Cl	1.150584	0.090370	0.017560
Cl70	Cl	1.118328	0.091187	-0.260309
H71	H	0.909374	0.082167	-0.010154
Cl72	Cl	1.730933	0.000003	0.308697
H73	H	1.756381	0.000007	0.513566
Cl74	Cl	1.785500	0.000009	0.684031
Cl75	Cl	1.707917	-0.193586	0.012726
Cl76	Cl	1.236953	0.000017	0.084626
Cl77	Cl	1.267450	0.000021	0.644693
H78	H	0.884844	0.059423	-0.236788
