data_functionalizedCrystal
_audit_creation_method	'MofGen! by Chris Wilmer'
_symmetry_space_group_name_H-M	'P1'
_symmetry_Int_Tables_number	1
_symmetry_cell_setting	triclinic
loop_
_symmetry_equiv_pos_as_xyz
  x,y,z
_cell_length_a	19.805407
_cell_length_b	12.645330
_cell_length_c	19.805399
_cell_angle_alpha	90.021721
_cell_angle_beta	90.019573
_cell_angle_gamma	90.017692
loop_
_atom_site_label
_atom_site_type_symbol
_atom_site_fract_x
_atom_site_fract_y
_atom_site_fract_z
Zn1	Zn	1.034777	-0.422064	0.382747
Zn2	Zn	1.034709	-0.599342	0.269571
Zn3	Zn	0.921591	-0.422093	0.269572
Zn4	Zn	0.921572	-0.599286	0.382717
O5	O	0.978162	-0.510696	0.326152
O6	O	1.129484	-0.445592	0.367746
O7	O	1.019683	-0.575865	0.174854
O8	O	0.936642	-0.273742	0.284598
O9	O	1.129434	-0.575837	0.284596
O10	O	1.019799	-0.273721	0.367747
O11	O	0.936576	-0.445641	0.174855
O12	O	0.826872	-0.445587	0.284569
O13	O	0.936609	-0.575741	0.477438
O14	O	0.826858	-0.575769	0.367696
O15	O	1.019780	-0.445537	0.477460
O16	O	1.019664	-0.747682	0.284567
O17	O	0.936543	-0.747641	0.367695
C18	C	0.802306	-0.510676	0.326130
C19	C	0.727074	-0.510693	0.326137
C20	C	0.978113	-0.786126	0.326142
C21	C	0.978154	-0.903956	0.326161
C22	C	0.691740	-0.578581	0.369351
C23	C	0.621052	-0.578583	0.369361
C24	C	0.585699	-0.510701	0.326152
C25	C	0.621037	-0.442805	0.282935
C26	C	0.691725	-0.442799	0.282930
C27	C	0.335964	-0.442829	0.282958
C28	C	0.265272	-0.442843	0.282965
C29	C	0.265292	-0.578613	0.369388
C30	C	0.335979	-0.578606	0.369383
C31	C	0.371311	-0.510707	0.326169
C32	C	0.447960	-0.510705	0.326160
C33	C	0.509051	-0.510708	0.326157
C34	C	0.926078	-1.071538	0.378618
C35	C	0.925811	-0.948979	0.378450
C36	C	0.958847	-0.948544	0.254828
C37	C	0.958530	-1.071142	0.255147
C38	C	1.049854	-1.071047	0.344457
C39	C	1.049415	-0.948440	0.346017
C40	C	1.154705	-0.510717	0.326174
C41	C	1.229937	-0.510726	0.326184
C42	C	0.978200	-0.510629	0.502695
C43	C	0.978216	-0.510601	0.577927
C44	C	0.978230	-0.234191	0.326176
C45	C	0.978259	-0.116361	0.326186
C46	C	0.978163	-0.510686	0.150296
C47	C	0.978278	-0.510416	0.075064
C48	C	1.021524	-0.442800	0.613283
C49	C	1.021531	-0.442770	0.683972
C50	C	0.978233	-0.510546	0.719302
C51	C	0.934920	-0.578349	0.683941
C52	C	0.934910	-0.578374	0.613253
C53	C	0.934958	-0.578250	0.969014
C54	C	0.934973	-0.578223	1.039706
C55	C	1.021579	-0.442646	1.039732
C56	C	1.021570	-0.442671	0.969045
C57	C	0.978255	-0.510470	0.933690
C58	C	0.978247	-0.510501	0.857041
C59	C	0.978244	-0.510521	0.795949
H60	H	0.720520	-0.633862	0.404534
Cl61	Cl	1.015664	-0.903524	0.192862
Cl62	Cl	0.880485	-0.663550	0.728356
Cl63	Cl	1.077046	-1.118671	0.423401
H64	H	1.063974	-0.919294	0.398514
Cl65	Cl	0.576635	-0.663932	0.423690
H66	H	0.236515	-0.633895	0.404578
Cl67	Cl	0.880462	-0.663609	0.568805
H68	H	0.364760	-0.633886	0.404566
H69	H	0.236489	-0.387559	0.247779
Cl70	Cl	1.014654	-1.116931	0.192771
Cl71	Cl	0.380373	-0.357467	0.228634
Cl72	Cl	0.878884	-0.901290	0.230499
Cl73	Cl	0.576593	-0.357461	0.228620
Cl74	Cl	1.076008	-0.357577	0.728417
H75	H	1.090340	-0.917787	0.310610
H76	H	0.720492	-0.387512	0.247744
Cl77	Cl	0.880536	-0.663433	1.084121
H78	H	1.056830	-0.387484	0.940283
Cl79	Cl	0.880505	-0.663485	0.924576
H80	H	0.937890	-0.918829	0.431342
Cl81	Cl	1.109880	-1.115819	0.285509
H82	H	0.938046	-1.100955	0.431684
Cl83	Cl	1.076031	-0.357407	1.084184
H84	H	0.872734	-0.919743	0.366345
Cl85	Cl	0.844644	-1.119267	0.360183
H86	H	0.906193	-1.099832	0.239669
H87	H	1.056785	-0.387612	0.584522
