data_functionalizedCrystal
_audit_creation_method	'MofGen! by Chris Wilmer'
_symmetry_space_group_name_H-M	'P1'
_symmetry_Int_Tables_number	1
_symmetry_cell_setting	triclinic
loop_
_symmetry_equiv_pos_as_xyz
  x,y,z
_cell_length_a	18.101398
_cell_length_b	18.101397
_cell_length_c	12.759393
_cell_angle_alpha	90.037652
_cell_angle_beta	90.017030
_cell_angle_gamma	90.018618
loop_
_atom_site_label
_atom_site_type_symbol
_atom_site_fract_x
_atom_site_fract_y
_atom_site_fract_z
Zn1	Zn	1.132195	-0.294822	0.593896
Zn2	Zn	1.465529	0.038511	0.927229
Zn3	Zn	1.798862	0.371844	1.260562
Zn4	Zn	1.132108	-0.418684	0.418197
Zn5	Zn	1.465442	-0.085351	0.751531
Zn6	Zn	1.798775	0.247983	1.084864
Zn7	Zn	1.008348	-0.294857	0.418240
Zn8	Zn	1.341682	0.038476	0.751573
Zn9	Zn	1.675015	0.371810	1.084906
Zn10	Zn	1.008328	-0.418623	0.593843
Zn11	Zn	1.341661	-0.085289	0.927177
Zn12	Zn	1.674995	0.248044	1.260510
O13	O	1.070245	-0.356747	0.506044
O14	O	1.403578	-0.023413	0.839377
O15	O	1.736912	0.309920	1.172711
O16	O	1.235817	-0.311264	0.570593
O17	O	1.569150	0.022069	0.903927
O18	O	1.902483	0.355402	1.237260
O19	O	1.115664	-0.402298	0.271182
O20	O	1.448997	-0.068965	0.604515
O21	O	1.782330	0.264368	0.937848
O22	O	1.024822	-0.191219	0.441581
O23	O	1.358155	0.142114	0.774914
O24	O	1.691489	0.475447	1.108247
O25	O	1.235753	-0.402265	0.441508
O26	O	1.569086	-0.068931	0.774842
O27	O	1.902419	0.264402	1.108175
O28	O	1.115812	-0.191194	0.570634
O29	O	1.449145	0.142139	0.903968
O30	O	1.782478	0.475473	1.237301
O31	O	1.024738	-0.311323	0.271213
O32	O	1.358071	0.022010	0.604546
O33	O	1.691404	0.355344	0.937880
O34	O	0.904713	-0.311263	0.441530
O35	O	1.238046	0.022070	0.774863
O36	O	1.571380	0.355403	1.108196
O37	O	1.024787	-0.402160	0.740871
O38	O	1.358120	-0.068827	1.074205
O39	O	1.691454	0.264506	1.407538
O40	O	0.904698	-0.402194	0.570545
O41	O	1.238031	-0.068860	0.903878
O42	O	1.571365	0.264473	1.237211
O43	O	1.115792	-0.311205	0.740910
O44	O	1.449125	0.022129	1.074243
O45	O	1.782459	0.355462	1.407577
O46	O	1.115644	-0.522309	0.441457
O47	O	1.448977	-0.188975	0.774791
O48	O	1.782310	0.144358	1.108124
O49	O	1.024703	-0.522264	0.570504
O50	O	1.358036	-0.188930	0.903837
O51	O	1.691369	0.144403	1.237170
C52	C	0.877835	-0.356726	0.506037
C53	C	1.211168	-0.023393	0.839370
C54	C	1.544501	0.309941	1.172703
C55	C	0.795520	-0.356735	0.506059
C56	C	1.128854	-0.023402	0.839392
C57	C	1.462187	0.309931	1.172725
C58	C	0.644812	-0.356749	0.506057
C59	C	0.978145	-0.023416	0.839390
C60	C	1.311479	0.309918	1.172723
C61	C	0.613474	-0.414048	0.587104
C62	C	0.946807	-0.080715	0.920437
C63	C	1.280140	0.252619	1.253771
C64	C	0.527855	-0.414280	0.586864
C65	C	0.861189	-0.080947	0.920197
C66	C	1.194522	0.252387	1.253530
C67	C	0.496429	-0.356763	0.506057
C68	C	0.829763	-0.023429	0.839390
C69	C	1.163096	0.309904	1.172724
C70	C	0.527482	-0.377598	0.395198
C71	C	0.860816	-0.044265	0.728531
C72	C	1.194149	0.289068	1.061865
C73	C	0.613127	-0.378006	0.395667
C74	C	0.946461	-0.044673	0.729000
C75	C	1.279794	0.288660	1.062333
C76	C	0.613277	-0.278472	0.534901
C77	C	0.946611	0.054861	0.868234
C78	C	1.279944	0.388194	1.201567
C79	C	0.527627	-0.278901	0.537342
C80	C	0.860960	0.054432	0.870676
C81	C	1.194294	0.387766	1.204009
C82	C	0.412570	-0.356769	0.506050
C83	C	0.745903	-0.023436	0.839384
C84	C	1.079237	0.309898	1.172717
C85	C	0.728671	-0.356744	0.506056
C86	C	1.062005	-0.023411	0.839389
C87	C	1.395338	0.309922	1.172723
C88	C	1.070182	-0.549157	0.505993
C89	C	1.403515	-0.215824	0.839326
C90	C	1.736848	0.117510	1.172660
C91	C	1.070222	-0.631471	0.506006
C92	C	1.403556	-0.298138	0.839340
C93	C	1.736889	0.035196	1.172673
C94	C	1.070317	-0.930562	0.506102
C95	C	1.403650	-0.597229	0.839436
C96	C	1.736984	-0.263895	1.172769
C97	C	1.127375	-0.899234	0.424692
C98	C	1.460708	-0.565901	0.758026
C99	C	1.794041	-0.232568	1.091359
C100	C	1.127573	-0.813616	0.424903
C101	C	1.460906	-0.480283	0.758237
C102	C	1.794239	-0.146949	1.091570
C103	C	1.070270	-0.782180	0.506054
C104	C	1.403603	-0.448846	0.839387
C105	C	1.736937	-0.115513	1.172720
C106	C	1.091430	-0.813178	0.616794
C107	C	1.424763	-0.479845	0.950127
C108	C	1.758096	-0.146511	1.283460
C109	C	1.091871	-0.898823	0.616350
C110	C	1.425204	-0.565490	0.949684
C111	C	1.758538	-0.232156	1.283017
C112	C	0.991947	-0.899071	0.477731
C113	C	1.325280	-0.565738	0.811064
C114	C	1.658614	-0.232404	1.144397
C115	C	0.992334	-0.813422	0.475259
C116	C	1.325667	-0.480088	0.808592
C117	C	1.659001	-0.146755	1.141925
C118	C	1.070242	-0.698320	0.506033
C119	C	1.403576	-0.364987	0.839367
C120	C	1.736909	-0.031653	1.172700
C121	C	1.070346	-1.014422	0.506130
C122	C	1.403680	-0.681088	0.839464
C123	C	1.737013	-0.347755	1.172797
C124	C	1.263407	-0.356768	0.506052
C125	C	1.596740	-0.023434	0.839385
C126	C	1.930074	0.309899	1.172719
C127	C	1.345721	-0.356776	0.506055
C128	C	1.679054	-0.023443	0.839389
C129	C	2.012388	0.309890	1.172722
C130	C	1.070297	-0.356672	0.780077
C131	C	1.403630	-0.023338	1.113411
C132	C	1.736964	0.309995	1.446744
C133	C	1.070319	-0.356640	0.896854
C134	C	1.403652	-0.023307	1.230188
C135	C	1.736986	0.310027	1.563521
C136	C	1.070329	-0.163585	0.506118
C137	C	1.403662	0.169749	0.839451
C138	C	1.736996	0.503082	1.172785
C139	C	1.070365	-0.081270	0.506150
C140	C	1.403698	0.252063	0.839483
C141	C	1.737031	0.585396	1.172816
C142	C	1.070236	-0.356767	0.233077
C143	C	1.403569	-0.023434	0.566410
C144	C	1.736903	0.309899	0.899743
C145	C	1.070357	-0.356591	0.116300
C146	C	1.403691	-0.023257	0.449634
C147	C	1.737024	0.310076	0.782967
C148	C	1.117712	-0.309275	0.951738
C149	C	1.451045	0.024058	1.285071
C150	C	1.784378	0.357392	1.618405
C151	C	1.117729	-0.309248	1.061462
C152	C	1.451063	0.024085	1.394796
C153	C	1.784396	0.357419	1.728129
C154	C	1.022959	-0.403958	1.061409
C155	C	1.356293	-0.070625	1.394742
C156	C	1.689626	0.262709	1.728076
C157	C	1.022939	-0.403980	0.951687
C158	C	1.356272	-0.070647	1.285020
C159	C	1.689605	0.262686	1.618353
C160	C	1.172429	-0.254597	0.951770
C161	C	1.505762	0.078736	1.285103
C162	C	1.839095	0.412069	1.618436
C163	C	1.172446	-0.254570	1.061494
C164	C	1.505780	0.078763	1.394827
C165	C	1.839113	0.412096	1.728160
H166	H	0.633079	-0.435216	0.371289
H167	H	0.966413	-0.101882	0.704622
H168	H	1.299746	0.231451	1.037955
Br169	Br	1.223606	-0.935012	0.455614
Br170	Br	1.556939	-0.601679	0.788947
Br171	Br	1.890272	-0.268346	1.122281
H172	H	1.226894	-0.275160	0.917729
H173	H	1.560228	0.058174	1.251062
H174	H	1.893561	0.391507	1.584395
H175	H	0.633857	-0.338056	0.333208
H176	H	0.967191	-0.004723	0.666541
H177	H	1.300524	0.328610	0.999875
H178	H	0.507334	-0.263183	0.618929
H179	H	0.840668	0.070150	0.952262
H180	H	1.174001	0.403483	1.285595
H181	H	1.151930	-0.200076	1.095551
H182	H	1.485263	0.133258	1.428884
H183	H	1.818597	0.466591	1.762217
Br184	Br	1.268041	-0.280162	1.111129
Br185	Br	1.601375	0.053171	1.444463
Br186	Br	1.934708	0.386505	1.777796
H187	H	1.052133	-0.919543	0.679097
H188	H	1.385467	-0.586209	1.012430
H189	H	1.718800	-0.252876	1.345764
H190	H	1.148073	-0.791670	0.641234
H191	H	1.481406	-0.458337	0.974568
H192	H	1.814740	-0.125003	1.307901
Br193	Br	0.491695	-0.471908	0.353864
Br194	Br	0.825028	-0.138575	0.687197
Br195	Br	1.158361	0.194758	1.020531
H196	H	0.506236	-0.233956	0.482663
H197	H	0.839570	0.099378	0.815996
H198	H	1.172903	0.432711	1.149330
H199	H	1.185624	-0.793073	0.443674
H200	H	1.518958	-0.459739	0.777008
H201	H	1.852291	-0.126406	1.110341
Br202	Br	0.492859	-0.392617	0.723847
Br203	Br	0.826192	-0.059283	1.057181
Br204	Br	1.159525	0.274050	1.390514
Br205	Br	0.649319	-0.246746	0.667368
Br206	Br	0.982652	0.086587	1.000701
Br207	Br	1.315986	0.419921	1.334034
H208	H	0.634094	-0.401200	0.669546
H209	H	0.967428	-0.067867	1.002879
H210	H	1.300761	0.265466	1.336213
H211	H	1.149156	-0.918742	0.640384
H212	H	1.482489	-0.585408	0.973718
H213	H	1.815823	-0.252075	1.307051
H214	H	0.633544	-0.235785	0.475876
H215	H	0.966878	0.097548	0.809210
H216	H	1.300211	0.430881	1.142543
H217	H	1.114334	-0.792661	0.342791
H218	H	1.447667	-0.459328	0.676124
H219	H	1.781001	-0.125994	1.009457
H220	H	1.114296	-0.919884	0.342334
H221	H	1.447630	-0.586551	0.675667
H222	H	1.780963	-0.253218	1.009001
H223	H	1.051142	-0.792812	0.679081
H224	H	1.384475	-0.459479	1.012415
H225	H	1.717809	-0.126145	1.345748
H226	H	0.634972	-0.471722	0.568199
H227	H	0.968305	-0.138388	0.901532
H228	H	1.301638	0.194945	1.234865
Br229	Br	0.959862	-0.935185	0.345475
Br230	Br	1.293195	-0.601851	0.678809
Br231	Br	1.626528	-0.268518	1.012142
H232	H	0.976379	-0.793170	0.393763
H233	H	1.309713	-0.459836	0.727096
H234	H	1.643046	-0.126503	1.060430
H235	H	0.947535	-0.792030	0.530212
H236	H	1.280868	-0.458697	0.863545
H237	H	1.614201	-0.125363	1.196879
H238	H	0.507343	-0.472287	0.567727
H239	H	0.840677	-0.138953	0.901060
H240	H	1.174010	0.194380	1.234394
Br241	Br	0.921089	-0.932837	0.576555
Br242	Br	1.254423	-0.599504	0.909889
Br243	Br	1.587756	-0.266170	1.243222
Br244	Br	0.958659	-0.468201	1.135831
Br245	Br	1.291992	-0.134867	1.469164
Br246	Br	1.625326	0.198466	1.802498
Br247	Br	0.493559	-0.310174	0.291779
Br248	Br	0.826892	0.023159	0.625112
Br249	Br	1.160225	0.356493	0.958446
Br250	Br	0.958603	-0.468249	0.877204
Br251	Br	1.291936	-0.134916	1.210537
Br252	Br	1.625269	0.198418	1.543870
Br253	Br	1.146865	-0.159009	0.902179
Br254	Br	1.480199	0.174325	1.235512
Br255	Br	1.813532	0.507658	1.568846
