data_functionalizedCrystal
_audit_creation_method	'MofGen! by Chris Wilmer'
_symmetry_space_group_name_H-M	'P1'
_symmetry_Int_Tables_number	1
_symmetry_cell_setting	triclinic
loop_
_symmetry_equiv_pos_as_xyz
  x,y,z
_cell_length_a	27.732048
_cell_length_b	14.519731
_cell_length_c	26.210047
_cell_angle_alpha	89.979052
_cell_angle_beta	89.975290
_cell_angle_gamma	83.165754
loop_
_atom_site_label
_atom_site_type_symbol
_atom_site_fract_x
_atom_site_fract_y
_atom_site_fract_z
O1	O	0.063420	1.222772	-0.042436
O2	O	0.070870	0.954168	-0.042437
O3	O	-0.003211	1.096812	-0.042427
O4	O	0.137502	1.080128	-0.042446
O5	O	-0.003232	1.096761	0.042431
O6	O	0.070850	0.954116	0.042421
O7	O	0.063399	1.222720	0.042422
Cu8	Cu	0.067122	1.088414	0.050170
Cu9	Cu	0.067147	1.088475	-0.050185
O10	O	0.137481	1.080076	0.042412
C11	C	0.070511	0.919789	-0.000008
C12	C	0.069465	0.817427	-0.000008
C13	C	0.068615	0.734297	-0.000010
C14	C	0.067553	0.630007	-0.000010
C15	C	0.066710	0.546883	-0.000010
C16	C	0.065647	0.442586	-0.000011
C17	C	-0.021231	1.096436	0.000004
C18	C	-0.074890	1.095382	0.000008
C19	C	-0.413331	1.173036	-0.000018
C20	C	-0.615010	1.169123	-0.000025
O21	O	-0.645923	1.240132	-0.000047
N22	N	-0.634541	1.084541	-0.000025
C23	C	-0.603649	1.000931	-0.000027
O24	O	-0.624890	0.928899	-0.000032
C25	C	-0.401972	1.004845	-0.000023
C26	C	-0.382444	1.089432	-0.000018
C27	C	-0.393802	1.257616	-0.000013
C28	C	-0.343386	1.258594	-0.000009
C29	C	-0.312498	1.174990	-0.000009
C30	C	-0.332027	1.090410	-0.000013
C31	C	-0.371081	0.921236	-0.000028
C32	C	-0.320659	0.922222	-0.000029
C33	C	-0.301131	1.006809	-0.000024
C34	C	-0.250723	1.007784	-0.000009
N35	N	-0.231191	1.092366	-0.000009
C36	C	-0.262079	1.175969	-0.000009
C37	C	-0.709533	0.998882	-0.000027
C38	C	-0.759953	0.997903	-0.000027
C39	C	-0.771309	1.166096	-0.000027
C40	C	-0.720889	1.167073	-0.000023
C41	C	-0.690002	1.083464	-0.000027
C42	C	-0.156200	1.178015	0.000001
C43	C	-0.105778	1.178985	0.000008
C44	C	-0.094426	1.010793	0.000005
C45	C	-0.144843	1.009823	0.000001
C46	C	-0.175729	1.093441	-0.000003
O47	O	-0.219781	0.936812	0.000007
O48	O	-0.240829	1.247991	-0.000015
C49	C	-0.463748	1.172058	-0.000023
C50	C	-0.483277	1.087478	-0.000027
C51	C	-0.452389	1.003874	-0.000027
C52	C	-0.533696	1.086499	-0.000027
C53	C	-0.564584	1.170102	-0.000027
C54	C	-0.545052	1.254685	-0.000027
C55	C	-0.494636	1.255662	-0.000023
C56	C	-0.471921	0.919292	-0.000027
C57	C	-0.522338	0.918322	-0.000031
C58	C	-0.553225	1.001925	-0.000031
C59	C	0.155500	1.080452	-0.000020
C60	C	0.209160	1.081507	-0.000027
C61	C	0.063758	1.257099	-0.000008
C62	C	0.064804	1.359462	-0.000011
N63	N	0.067105	1.088377	0.120754
N64	N	0.067161	1.088518	-0.120769
C65	C	0.037741	1.032951	0.526735
C66	C	0.037729	1.032910	0.313076
O67	O	0.012724	0.985727	0.285470
N68	N	0.067111	1.088412	0.286337
C69	C	0.096497	1.143933	0.313016
O70	O	0.121484	1.191147	0.285370
C71	C	0.096506	1.143978	0.526674
C72	C	0.067125	1.088465	0.553410
C73	C	0.008362	0.977443	0.553471
C74	C	0.008367	0.977450	0.606883
C75	C	0.037752	1.032964	0.633558
C76	C	0.067131	1.088472	0.606822
C77	C	0.125889	1.199503	0.553352
C78	C	0.125887	1.199512	0.606769
C79	C	0.096507	1.143999	0.633506
C80	C	0.096520	1.143994	0.686908
N81	N	0.067138	1.088491	0.713647
C82	C	0.037753	1.032977	0.686972
C83	C	0.096490	1.143904	0.200843
C84	C	0.096489	1.143892	0.147429
C85	C	0.037720	1.032870	0.147493
C86	C	0.037725	1.032878	0.200908
C87	C	0.067108	1.088402	0.227582
C88	C	0.037767	1.032995	0.799140
C89	C	0.037777	1.033004	0.852556
C90	C	0.096543	1.144029	0.852488
C91	C	0.096536	1.144017	0.799076
C92	C	0.067144	1.088497	0.772404
O93	O	0.121508	1.191159	0.714548
O94	O	0.012761	0.985785	0.714627
C95	C	0.037736	1.032944	0.473324
C96	C	0.067115	1.088451	0.446587
C97	C	0.096499	1.143966	0.473262
C98	C	0.067113	1.088439	0.393173
C99	C	0.037729	1.032924	0.366498
C100	C	0.008346	0.977422	0.393237
C101	C	0.008351	0.977429	0.446649
C102	C	0.125881	1.199468	0.446523
C103	C	0.125874	1.199456	0.393112
C104	C	0.096490	1.143941	0.366437
H105	H	-0.089881	1.247869	0.000013
Cl106	Cl	0.162838	1.269275	0.519753
H107	H	0.149809	1.244677	0.468237
Cl108	Cl	0.162828	1.269320	0.640299
Cl109	Cl	-0.784496	0.891560	-0.000024
Cl110	Cl	0.000839	0.963209	0.886164
Cl111	Cl	0.000815	0.963200	0.765617
H112	H	-0.015569	0.932236	0.531758
Cl113	Cl	0.133466	1.213818	0.765464
Cl114	Cl	-0.318844	1.364938	-0.000017
H115	H	-0.478741	1.324542	-0.000018
H116	H	0.120468	1.189226	0.874216
Cl117	Cl	-0.028587	0.907638	0.480252
H118	H	0.149804	1.244659	0.371348
Cl119	Cl	-0.195021	1.283137	-0.000002
Cl120	Cl	-0.432625	1.362733	-0.000012
Cl121	Cl	-0.583892	1.359785	-0.000025
Cl122	Cl	-0.028573	0.907663	0.640486
H123	H	0.120420	1.189085	0.125664
H124	H	-0.704993	1.235952	-0.000019
H125	H	-0.796467	1.234169	-0.000027
Cl126	Cl	-0.670710	0.893762	-0.000032
Cl127	Cl	0.000786	0.963090	0.234514
H128	H	0.013796	0.987665	0.125765
Cl129	Cl	-0.281832	0.817106	-0.000035
Cl130	Cl	-0.395618	0.814890	-0.000038
H131	H	-0.160744	0.940945	0.000011
H132	H	0.120419	1.189121	0.222556
H133	H	-0.015578	0.932216	0.371509
Cl134	Cl	-0.546881	0.811972	-0.000035
Cl135	Cl	-0.055587	0.905698	0.000003
Cl136	Cl	-0.433097	0.814179	-0.000028
