data_functionalizedCrystal
_audit_creation_method	'MofGen! by Chris Wilmer'
_symmetry_space_group_name_H-M	'P1'
_symmetry_Int_Tables_number	1
_symmetry_cell_setting	triclinic
loop_
_symmetry_equiv_pos_as_xyz
  x,y,z
_cell_length_a	18.050589
_cell_length_b	17.077404
_cell_length_c	17.077395
_cell_angle_alpha	89.985498
_cell_angle_beta	89.976617
_cell_angle_gamma	90.026191
loop_
_atom_site_label
_atom_site_type_symbol
_atom_site_fract_x
_atom_site_fract_y
_atom_site_fract_z
Zn1	Zn	-0.295709	1.199996	-0.443840
Zn2	Zn	0.204291	1.699996	0.056160
Zn3	Zn	-0.419903	1.199899	-0.312583
Zn4	Zn	0.080097	1.699899	0.187417
Zn5	Zn	-0.295727	1.068736	-0.312590
Zn6	Zn	0.204273	1.568736	0.187410
Zn7	Zn	-0.419857	1.068683	-0.443809
Zn8	Zn	0.080143	1.568683	0.056191
O9	O	-0.357799	1.134329	-0.378205
O10	O	0.142201	1.634329	0.121795
O11	O	-0.312195	1.309830	-0.426438
O12	O	0.187805	1.809830	0.073562
O13	O	-0.403458	1.182482	-0.202737
O14	O	0.096542	1.682482	0.297263
O15	O	-0.191800	1.086211	-0.330017
O16	O	0.308200	1.586211	0.169983
O17	O	-0.403440	1.309759	-0.330004
O18	O	0.096560	1.809759	0.169996
O19	O	-0.191787	1.182646	-0.426445
O20	O	0.308213	1.682646	0.073555
O21	O	-0.312227	1.086117	-0.202742
O22	O	0.187773	1.586117	0.297258
O23	O	-0.312182	0.958882	-0.329987
O24	O	0.187818	1.458882	0.170013
O25	O	-0.403362	1.086120	-0.553660
O26	O	0.096638	1.586120	-0.053660
O27	O	-0.403379	0.958843	-0.426393
O28	O	0.096621	1.458843	0.073607
O29	O	-0.312150	1.182595	-0.553683
O30	O	0.187850	1.682595	-0.053683
O31	O	-0.523822	1.182431	-0.329974
O32	O	-0.023822	1.682431	0.170026
O33	O	-0.523788	1.086027	-0.426385
O34	O	-0.023788	1.586027	0.073615
C35	C	-0.357778	0.930381	-0.378188
C36	C	0.142222	1.430381	0.121812
C37	C	-0.357787	0.843131	-0.378199
C38	C	0.142213	1.343131	0.121801
C39	C	-0.310360	0.802178	-0.428489
C40	C	0.189640	1.302178	0.071511
C41	C	-0.310365	0.720198	-0.428492
C42	C	0.189635	1.220198	0.071508
C43	C	-0.357801	0.679172	-0.378209
C44	C	0.142199	1.179172	0.121791
C45	C	-0.405230	0.720130	-0.327914
C46	C	0.094770	1.220130	0.172086
C47	C	-0.405221	0.802109	-0.327907
C48	C	0.094779	1.302109	0.172093
C49	C	-0.405247	0.549260	-0.327933
C50	C	0.094753	1.049260	0.172067
C51	C	-0.405257	0.467275	-0.327941
C52	C	0.094743	0.967275	0.172059
C53	C	-0.310391	0.467349	-0.428519
C54	C	0.189609	0.967349	0.071481
C55	C	-0.310382	0.549328	-0.428512
C56	C	0.189618	1.049328	0.071488
C57	C	-0.357812	0.590281	-0.378217
C58	C	0.142188	1.090281	0.121783
C59	C	-0.550751	1.134234	-0.378192
C60	C	-0.050751	1.634234	0.121808
C61	C	-0.633297	1.134265	-0.378213
C62	C	-0.133297	1.634265	0.121787
C63	C	-0.832756	1.081892	-0.430623
C64	C	-0.332756	1.581892	0.069377
C65	C	-0.882196	1.062762	-0.358994
C66	C	-0.382196	1.562762	0.141006
C67	C	-0.784427	1.134342	-0.378223
C68	C	-0.284427	1.634342	0.121777
C69	C	-0.882070	1.153511	-0.449860
C70	C	-0.382070	1.653511	0.050140
C71	C	-0.930413	1.134415	-0.378239
C72	C	-0.430413	1.634415	0.121761
C73	C	-0.832780	1.115174	-0.306557
C74	C	-0.332780	1.615174	0.193443
C75	C	-0.832649	1.205957	-0.397471
C76	C	-0.332649	1.705957	0.102529
C77	C	-0.882066	1.186854	-0.325793
C78	C	-0.382066	1.686854	0.174207
C79	C	-0.700329	1.134298	-0.378215
C80	C	-0.200329	1.634298	0.121785
C81	C	-1.014509	1.134459	-0.378240
C82	C	-0.514509	1.634459	0.121760
C83	C	-0.164094	1.134445	-0.378236
C84	C	0.335906	1.634445	0.121764
C85	C	-0.081548	1.134495	-0.378249
C86	C	0.418452	1.634495	0.121751
C87	C	-0.357749	1.134362	-0.582950
C88	C	0.142251	1.634362	-0.082950
C89	C	-0.357727	1.134377	-0.670200
C90	C	0.142273	1.634377	-0.170200
C91	C	-0.357821	1.339073	-0.378223
C92	C	0.142179	1.839073	0.121777
C93	C	-0.357830	1.426323	-0.378231
C94	C	0.142170	1.926323	0.121769
C95	C	-0.310133	1.184698	-1.046027
C96	C	0.189867	1.684698	-0.546027
C97	C	-0.310159	1.184682	-0.964047
C98	C	0.189841	1.684682	-0.464047
C99	C	-0.357657	1.134441	-0.923049
C100	C	0.142343	1.634441	-0.423049
C101	C	-0.405138	1.084219	-0.964035
C102	C	0.094862	1.584219	-0.464035
C103	C	-0.405115	1.084240	-1.046014
C104	C	0.094885	1.584240	-0.546014
C105	C	-0.405181	1.084178	-0.793165
C106	C	0.094819	1.584178	-0.293165
C107	C	-0.405203	1.084157	-0.711180
C108	C	0.094797	1.584157	-0.211180
C109	C	-0.310225	1.184621	-0.711198
C110	C	0.189775	1.684621	-0.211198
C111	C	-0.310202	1.184641	-0.793177
C112	C	0.189798	1.684641	-0.293177
C113	C	-0.357682	1.134418	-0.834158
C114	C	0.142318	1.634418	-0.334158
C115	C	-0.357796	1.134340	-0.174258
C116	C	0.142204	1.634340	0.325742
C117	C	-0.357608	1.134478	-0.087008
C118	C	0.142392	1.634478	0.412992
H119	H	-0.271760	0.582729	-0.469461
H120	H	0.228240	1.082729	0.030539
H121	H	-0.443863	1.043228	-0.677802
H122	H	0.056137	1.543228	-0.177802
H123	H	-0.271770	0.434001	-0.469469
H124	H	0.228230	0.934001	0.030531
H125	H	-0.903721	1.169695	-0.510436
H126	H	-0.403721	1.669695	-0.010436
N127	N	-0.456377	0.846277	-0.273664
N128	N	0.043623	1.346277	0.226336
H129	H	-0.490828	0.880291	-0.305497
H130	H	0.009172	1.380291	0.194503
H131	H	-0.426093	0.880241	-0.237349
H132	H	0.073907	1.380241	0.262651
N133	N	-0.456393	1.030013	-0.837369
N134	N	0.043607	1.530013	-0.337369
H135	H	-0.486485	0.998181	-0.798958
H136	H	0.013515	1.498181	-0.298958
H137	H	-0.426147	0.993716	-0.871386
H138	H	0.073853	1.493716	-0.371386
H139	H	-0.811104	1.037472	-0.474873
H140	H	-0.311104	1.537472	0.025127
N141	N	-0.456363	1.030025	-0.919817
N142	N	0.043637	1.530025	-0.419817
H143	H	-0.486436	0.998214	-0.958221
H144	H	0.013564	1.498214	-0.458221
H145	H	-0.490745	1.061944	-0.885797
H146	H	0.009255	1.561944	-0.385797
H147	H	-0.271563	1.225513	-0.677827
H148	H	0.228437	1.725513	-0.177827
N149	N	-0.911015	0.982580	-0.337431
N150	N	-0.411015	1.482580	0.162569
H151	H	-0.942593	0.961625	-0.381518
H152	H	-0.442593	1.461625	0.118482
H153	H	-0.941788	0.986433	-0.288178
H154	H	-0.441788	1.486433	0.211822
H155	H	-0.811218	1.098920	-0.245964
H156	H	-0.311218	1.598920	0.254036
H157	H	-0.810872	1.266471	-0.413770
H158	H	-0.310872	1.766471	0.086230
H159	H	-0.903581	1.231240	-0.281435
H160	H	-0.403581	1.731240	0.218565
H161	H	-0.443850	0.686720	-0.286969
H162	H	0.056150	1.186720	0.213031
N163	N	-0.259202	0.846423	-0.482731
N164	N	0.240798	1.346423	0.017269
H165	H	-0.266396	0.904571	-0.475102
H166	H	0.233604	1.404571	0.024898
H167	H	-0.270841	0.832100	-0.538769
H168	H	0.229159	1.332100	-0.038769
H169	H	-0.271449	1.225605	-1.079402
H170	H	0.228551	1.725605	-0.579402
N171	N	-0.456323	1.030077	-1.090219
N172	N	0.043677	1.530077	-0.590219
H173	H	-0.486416	0.998246	-1.051809
H174	H	0.013584	1.498246	-0.551809
H175	H	-0.426081	0.993778	-1.124239
H176	H	0.073919	1.493778	-0.624239
N177	N	-0.258956	1.238850	-0.919845
N178	N	0.241044	1.738850	-0.419845
H179	H	-0.228860	1.270677	-0.958257
H180	H	0.271140	1.770677	-0.458257
H181	H	-0.224594	1.206912	-0.885833
H182	H	0.275406	1.706912	-0.385833
N183	N	-0.456404	0.423025	-0.273692
N184	N	0.043596	0.923025	0.226308
H185	H	-0.449211	0.364878	-0.281331
H186	H	0.050789	0.864878	0.218669
H187	H	-0.509462	0.437334	-0.285797
H188	H	-0.009462	0.937334	0.214203
N189	N	-0.259198	0.676027	-0.482718
N190	N	0.240802	1.176027	0.017282
H191	H	-0.229145	0.714456	-0.514569
H192	H	0.270855	1.214456	-0.014569
H193	H	-0.289463	0.642004	-0.518996
H194	H	0.210537	1.142004	-0.018996
H195	H	-0.271521	1.225549	-0.826555
H196	H	0.228479	1.725549	-0.326555
H197	H	-0.443868	0.582601	-0.286976
H198	H	0.056132	1.082601	0.213024
