data_functionalizedCrystal
_audit_creation_method	'MofGen! by Chris Wilmer'
_symmetry_space_group_name_H-M	'P1'
_symmetry_Int_Tables_number	1
_symmetry_cell_setting	triclinic
loop_
_symmetry_equiv_pos_as_xyz
  x,y,z
_cell_length_a	14.853566
_cell_length_b	19.188924
_cell_length_c	13.930277
_cell_angle_alpha	89.993371
_cell_angle_beta	89.995631
_cell_angle_gamma	83.388189
loop_
_atom_site_label
_atom_site_type_symbol
_atom_site_fract_x
_atom_site_fract_y
_atom_site_fract_z
O1	O	1.195859	0.091151	-0.079772
O2	O	0.933339	0.102011	-0.079788
O3	O	1.072178	-0.005050	-0.079768
O4	O	1.057020	0.198212	-0.079792
O5	O	1.072159	-0.005052	0.079893
O6	O	0.933320	0.102009	0.079873
O7	O	1.195840	0.091149	0.079890
Zn8	Zn	1.064577	0.096578	0.105231
Zn9	Zn	1.064602	0.096581	-0.105130
O10	O	1.057001	0.198209	0.079870
C11	C	0.899743	0.101518	0.000041
C12	C	0.799668	0.100044	0.000035
C13	C	0.376528	0.093810	-0.086979
C14	C	0.376529	0.093808	0.087090
C15	C	0.470555	0.095192	0.087087
C16	C	0.517572	0.095887	0.000049
C17	C	0.470563	0.095197	-0.086985
C18	C	0.517570	0.095890	0.174120
C19	C	0.611602	0.097275	0.174120
C20	C	0.658622	0.097964	0.087082
C21	C	0.611607	0.097273	0.000044
C22	C	0.658624	0.097967	-0.086994
C23	C	0.611612	0.097272	-0.174033
C24	C	0.517583	0.095886	-0.174024
C25	C	0.752651	0.099350	0.087072
C26	C	0.752659	0.099354	-0.087000
C27	C	1.071679	-0.031064	0.000063
C28	C	1.070208	-0.108573	0.000066
C29	C	1.069533	-0.144973	-0.086966
C30	C	1.068138	-0.217801	-0.086973
C31	C	1.067438	-0.254227	0.000056
C32	C	1.068109	-0.217818	0.087099
C33	C	1.069494	-0.144991	0.087104
N34	N	1.116558	-0.373727	0.064833
N35	N	1.115244	-0.442910	0.064823
C36	C	1.063262	-0.473650	0.000047
N37	N	1.012655	-0.432595	-0.064733
N38	N	1.013973	-0.363406	-0.064725
C39	C	1.065935	-0.333195	0.000060
C40	C	1.061073	-0.589018	-0.086999
C41	C	1.059673	-0.661846	-0.087003
C42	C	1.059652	-0.661862	0.087072
C43	C	1.061043	-0.589035	0.087074
C44	C	1.061758	-0.552617	0.000035
C45	C	1.229436	0.091642	0.000059
C46	C	1.329511	0.093116	0.000058
C47	C	1.057500	0.224223	0.000036
C48	C	1.058971	0.301733	0.000027
N49	N	1.064566	0.096576	0.248798
N50	N	1.064620	0.096578	-0.248696
C51	C	1.003122	0.143969	0.701058
C52	C	1.126107	0.049188	0.701045
C53	C	1.126097	0.049186	0.600549
C54	C	1.064599	0.096577	0.550303
C55	C	1.003111	0.143970	0.600553
C56	C	1.187589	0.001799	0.550292
C57	C	1.187581	0.001795	0.449790
C58	C	1.126078	0.049183	0.399542
C59	C	1.064588	0.096577	0.449798
C60	C	1.003090	0.143968	0.399552
C61	C	0.941594	0.191360	0.449806
C62	C	0.941608	0.191358	0.550305
C63	C	1.126064	0.049185	0.299044
C64	C	1.003079	0.143969	0.299047
H65	H	0.479281	0.095329	0.244981
H66	H	0.338247	0.093241	-0.157844
O67	O	1.253894	-0.049324	0.395588
H68	H	1.296653	-0.082281	0.447413
H69	H	0.338241	0.093248	0.157952
H70	H	1.067582	-0.247443	-0.157848
O71	O	1.058909	-0.701108	-0.180877
H72	H	1.059634	-0.663546	-0.241395
H73	H	1.176137	0.010603	0.258131
O74	O	1.070240	-0.105730	0.180981
H75	H	1.008541	-0.113547	0.222719
O76	O	1.061831	-0.549732	-0.180872
H77	H	1.001035	-0.510382	-0.185030
H78	H	1.176182	0.010607	0.741959
O79	O	0.466879	0.095136	-0.267896
H80	H	0.476710	0.142948	-0.309642
H81	H	1.059075	-0.691519	0.157933
H82	H	0.649872	0.097840	0.244993
H83	H	1.061601	-0.559398	0.157945
O84	O	0.803359	0.100105	0.180936
H85	H	0.754868	0.099390	0.241459
O86	O	0.936738	0.195074	0.244850
H87	H	0.974536	0.229062	0.199040
H88	H	1.067536	-0.247481	0.157960
H89	H	1.070112	-0.115326	-0.157840
O90	O	0.875249	0.242463	0.395611
H91	H	0.885572	0.234493	0.317286
H92	H	0.891541	0.229943	0.591228
O93	O	0.936800	0.195088	0.755249
H94	H	0.947138	0.187132	0.833575
O95	O	1.253919	-0.049313	0.604480
H96	H	1.243586	-0.041356	0.682806
H97	H	0.790934	0.099917	-0.157877
H98	H	0.649905	0.097842	-0.244899
