data_functionalizedCrystal
_audit_creation_method	'MofGen! by Chris Wilmer'
_symmetry_space_group_name_H-M	'P1'
_symmetry_Int_Tables_number	1
_symmetry_cell_setting	triclinic
loop_
_symmetry_equiv_pos_as_xyz
  x,y,z
_cell_length_a	16.959455
_cell_length_b	16.120531
_cell_length_c	16.959447
_cell_angle_alpha	87.136958
_cell_angle_beta	89.985678
_cell_angle_gamma	87.070795
loop_
_atom_site_label
_atom_site_type_symbol
_atom_site_fract_x
_atom_site_fract_y
_atom_site_fract_z
Zn1	Zn	1.192357	0.331957	-0.462832
Zn2	Zn	1.692357	0.831957	0.037168
Zn3	Zn	1.185548	0.471386	-0.337341
Zn4	Zn	1.685548	0.971386	0.162659
Zn5	Zn	1.060184	0.331984	-0.330671
Zn6	Zn	1.560184	0.831984	0.169329
Zn7	Zn	1.053421	0.471323	-0.469477
Zn8	Zn	1.553421	0.971323	0.030523
O9	O	1.122877	0.401662	-0.400080
O10	O	1.622877	0.901662	0.099920
O11	O	1.302064	0.350468	-0.446196
O12	O	1.802064	0.850468	0.053804
O13	O	1.168898	0.452931	-0.225847
O14	O	1.668898	0.952931	0.274153
O15	O	1.083397	0.215315	-0.342629
O16	O	1.583397	0.715315	0.157371
O17	O	1.297061	0.452905	-0.353999
O18	O	1.797061	0.952905	0.146001
O19	O	1.180504	0.215296	-0.439728
O20	O	1.680504	0.715296	0.060272
O21	O	1.076794	0.350513	-0.220946
O22	O	1.576794	0.850513	0.279054
O23	O	0.948677	0.350452	-0.349073
O24	O	1.448677	0.850452	0.150927
O25	O	1.071871	0.452799	-0.579205
O26	O	1.571871	0.952799	-0.079205
O27	O	0.943708	0.452824	-0.451053
O28	O	1.443708	0.952824	0.048947
O29	O	1.173946	0.350408	-0.574323
O30	O	1.673946	0.850408	-0.074323
O31	O	1.162341	0.588043	-0.360442
O32	O	1.662341	1.088043	0.139558
O33	O	1.065268	0.587997	-0.457522
O34	O	1.565268	1.087997	0.042478
C35	C	0.917512	0.401635	-0.400061
C36	C	1.417512	0.901635	0.099939
C37	C	0.829655	0.401643	-0.400072
C38	C	1.329655	0.901643	0.099928
C39	C	1.112353	0.618270	-0.410444
C40	C	1.612353	1.118270	0.089556
C41	C	1.107923	0.710935	-0.414904
C42	C	1.607923	1.210935	0.085096
C43	C	0.460744	0.348314	-0.347082
C44	C	0.960744	0.848314	0.152918
C45	C	0.455611	0.455080	-0.453126
C46	C	0.955611	0.955080	0.046874
C47	C	0.538157	0.455068	-0.453121
C48	C	1.038157	0.955068	0.046879
C49	C	0.582001	0.401679	-0.400095
C50	C	1.082001	0.901679	0.099905
C51	C	0.543298	0.348302	-0.347074
C52	C	1.043298	0.848302	0.152926
C53	C	0.576866	0.508450	-0.506136
C54	C	1.076866	1.008450	-0.006136
C55	C	0.659417	0.508441	-0.506132
C56	C	1.159417	1.008441	-0.006132
C57	C	0.703263	0.455047	-0.453109
C58	C	1.203263	0.955047	0.046891
C59	C	0.664555	0.401667	-0.400086
C60	C	1.164555	0.901667	0.099914
C61	C	0.708398	0.348278	-0.347060
C62	C	1.208398	0.848278	0.152940
C63	C	0.669692	0.294893	-0.294041
C64	C	1.169692	0.794893	0.205959
C65	C	0.587143	0.294908	-0.294051
C66	C	1.087143	0.794908	0.205949
C67	C	0.785812	0.455032	-0.453098
C68	C	1.285812	0.955032	0.046902
C69	C	0.790952	0.348266	-0.347051
C70	C	1.290952	0.848266	0.152949
C71	C	1.099840	0.880596	-0.423063
C72	C	1.599840	1.380596	0.076937
C73	C	1.145945	0.921888	-0.377052
C74	C	1.645945	1.421888	0.122948
C75	C	1.141447	1.016294	-0.381592
C76	C	1.641447	1.516294	0.118408
C77	C	1.104336	0.786182	-0.418525
C78	C	1.604336	1.286182	0.081475
C79	C	1.329044	0.401691	-0.400100
C80	C	1.829044	0.901691	0.099900
C81	C	1.416900	0.401703	-0.400109
C82	C	1.916900	0.901703	0.099891
C83	C	1.122914	0.401593	-0.606245
C84	C	1.622914	0.901593	-0.106245
C85	C	1.122929	0.401564	-0.694100
C86	C	1.622929	0.901564	-0.194100
C87	C	1.133436	1.184209	-0.389679
C88	C	1.633436	1.684209	0.110321
C89	C	1.137864	1.091544	-0.385209
C90	C	1.637864	1.591544	0.114791
C91	C	1.069882	0.454787	-1.068116
C92	C	1.569882	0.954787	-0.568116
C93	C	1.176174	0.348166	-1.063028
C94	C	1.676174	0.848166	-0.563028
C95	C	1.176152	0.348183	-0.980483
C96	C	1.676152	0.848183	-0.480483
C97	C	1.122995	0.401504	-0.941751
C98	C	1.622995	0.901504	-0.441751
C99	C	1.069860	0.454808	-0.985564
C100	C	1.569860	0.954808	-0.485564
C101	C	1.229291	0.294887	-0.936664
C102	C	1.729291	0.794887	-0.436664
C103	C	1.229272	0.294903	-0.854113
C104	C	1.729272	0.794903	-0.354113
C105	C	1.176111	0.348221	-0.815380
C106	C	1.676111	0.848221	-0.315380
C107	C	1.122973	0.401525	-0.859198
C108	C	1.622973	0.901525	-0.359198
C109	C	1.069816	0.454846	-0.820466
C110	C	1.569816	0.954846	-0.320466
C111	C	1.016674	0.508148	-0.864283
C112	C	1.516674	1.008148	-0.364283
C113	C	1.016698	0.508125	-0.946830
C114	C	1.516698	1.008125	-0.446830
C115	C	1.176086	0.348243	-0.732832
C116	C	1.676086	0.848243	-0.232832
C117	C	1.069794	0.454867	-0.737914
C118	C	1.569794	0.954867	-0.237914
C119	C	1.122890	0.401671	-0.194714
C120	C	1.622890	0.901671	0.305286
C121	C	1.123039	0.401466	-0.106848
C122	C	1.623039	0.901466	0.393152
H123	H	0.826645	0.304784	-0.303875
H124	H	1.326645	0.804784	0.196125
Br125	Br	1.248208	0.275920	-0.673371
Br126	Br	1.748208	0.775920	-0.173371
Br127	Br	0.997642	0.527229	-0.685355
Br128	Br	1.497642	1.027229	-0.185355
H129	H	1.219456	0.304759	-1.094569
H130	H	1.719456	0.804759	-0.594569
H131	H	1.188793	0.886339	-0.334251
H132	H	1.688793	1.386339	0.165749
Br133	Br	1.028425	0.939844	-0.494397
Br134	Br	1.528425	1.439844	0.005603
Br135	Br	0.944541	0.580516	-0.811709
Br136	Br	1.444541	1.080516	-0.311709
Br137	Br	0.997759	0.527116	-1.127577
Br138	Br	1.497759	1.027116	-0.627577
H139	H	0.705400	0.251427	-0.250863
H140	H	1.205400	0.751427	0.249137
H141	H	0.817323	0.498500	-0.496264
H142	H	1.317323	0.998500	0.003736
Br143	Br	1.301390	0.222566	-0.794655
Br144	Br	1.801390	0.722566	-0.294655
Br145	Br	0.534609	0.222463	-0.222104
Br146	Br	1.034609	0.722463	0.277896
Br147	Br	0.408218	0.275859	-0.275137
Br148	Br	0.908218	0.775859	0.224863
H149	H	1.272573	0.251481	-0.968206
H150	H	1.772573	0.751481	-0.468206
H151	H	0.419908	0.498552	-0.496294
H152	H	0.919908	0.998552	0.003706
H153	H	0.541162	0.551923	-0.549301
H154	H	1.041162	1.051923	-0.049301
Br155	Br	0.944586	0.580459	-1.006299
Br156	Br	1.444586	1.080459	-0.506299
Br157	Br	0.711940	0.580889	-0.578085
Br158	Br	1.211940	1.080889	-0.078085
