data_functionalizedCrystal
_audit_creation_method	'MofGen! by Chris Wilmer'
_symmetry_space_group_name_H-M	'P1'
_symmetry_Int_Tables_number	1
_symmetry_cell_setting	triclinic
loop_
_symmetry_equiv_pos_as_xyz
  x,y,z
_cell_length_a	10.723024
_cell_length_b	10.723024
_cell_length_c	9.798715
_cell_angle_alpha	90.001978
_cell_angle_beta	90.003391
_cell_angle_gamma	84.467869
loop_
_atom_site_label
_atom_site_type_symbol
_atom_site_fract_x
_atom_site_fract_y
_atom_site_fract_z
O1	O	-1.657187	-0.175024	-0.113478
O2	O	-1.294035	-0.191778	-0.113483
O3	O	-1.483988	-0.001825	-0.113475
O4	O	-1.467234	-0.364977	-0.113486
O5	O	-1.483974	-0.001824	0.113507
O6	O	-1.294021	-0.191777	0.113499
O7	O	-1.657173	-0.175024	0.113504
Zn8	Zn	-1.475595	-0.183401	0.149540
Zn9	Zn	-1.475613	-0.183401	-0.149519
O10	O	-1.467220	-0.364977	0.113496
C11	C	-1.247528	-0.190558	0.000008
C12	C	-1.108974	-0.186911	0.000006
C13	C	-1.482762	0.044675	0.000014
C14	C	-1.479114	0.183229	0.000009
C15	C	-1.703680	-0.176243	0.000010
C16	C	-1.842234	-0.179891	0.000003
C17	C	-1.468447	-0.411477	0.000004
C18	C	-1.472094	-0.550031	-0.000000
C19	C	-1.033991	-0.293198	0.000002
C20	C	-0.890788	-0.289431	0.000001
N21	N	-1.475591	-0.183399	0.353640
C22	C	-1.585401	0.258212	0.000009
C23	C	-1.581634	0.401415	0.000004
N24	N	-1.475627	-0.183393	-0.353619
C25	C	-1.555347	-0.103292	0.421420
C26	C	-1.555367	-0.103288	0.578582
H27	H	-0.826355	-0.380421	-0.000008
O28	O	-1.059153	-0.074988	0.000248
C29	C	-1.099356	-0.006681	0.117786
H30	H	-1.127097	-0.074019	0.199953
H31	H	-1.019965	0.046973	0.157245
H32	H	-1.183512	0.062236	0.091208
O33	O	-0.919212	-0.071412	-0.000176
C34	C	-0.995327	-0.066681	-0.117751
H35	H	-1.002634	-0.165810	-0.156946
H36	H	-1.092801	-0.021148	-0.091312
H37	H	-0.952097	-0.009259	-0.200065
H38	H	-1.385328	0.225051	-0.000001
H39	H	-1.623611	-0.034707	0.363100
H40	H	-1.407319	-0.251975	0.411961
H41	H	-1.679187	0.216390	0.000018
O42	O	-1.636774	-0.021291	0.647961
C43	C	-1.615085	0.102365	0.613179
H44	H	-1.567052	0.102603	0.509407
H45	H	-1.708216	0.163218	0.608421
H46	H	-1.552453	0.141266	0.693582
H47	H	-1.407345	-0.251984	0.588102
H48	H	-1.672624	0.465848	0.000009
O49	O	-1.363414	0.373298	0.000058
C50	C	-1.260834	0.446258	0.000015
H51	H	-1.291558	0.543163	0.042986
H52	H	-1.182447	0.398831	0.065911
H53	H	-1.225548	0.455777	-0.108882
O54	O	-1.084078	-0.404983	-0.000055
C55	C	-1.215910	-0.383859	-0.000012
H56	H	-1.245519	-0.286710	-0.042985
H57	H	-1.256617	-0.457625	-0.065906
H58	H	-1.252195	-0.390161	0.108886
