data_functionalizedCrystal
_audit_creation_method	'MofGen! by Chris Wilmer'
_symmetry_space_group_name_H-M	'P1'
_symmetry_Int_Tables_number	1
_symmetry_cell_setting	triclinic
loop_
_symmetry_equiv_pos_as_xyz
  x,y,z
_cell_length_a	17.077404
_cell_length_b	17.077402
_cell_length_c	17.077396
_cell_angle_alpha	90.027528
_cell_angle_beta	90.018362
_cell_angle_gamma	90.021463
loop_
_atom_site_label
_atom_site_type_symbol
_atom_site_fract_x
_atom_site_fract_y
_atom_site_fract_z
Zn1	Zn	1.200051	-0.312551	0.443824
Zn2	Zn	1.533385	0.020783	0.777157
Zn3	Zn	1.866718	0.354116	1.110491
Zn4	Zn	1.199957	-0.443826	0.312560
Zn5	Zn	1.533290	-0.110492	0.645894
Zn6	Zn	1.866624	0.222841	0.979227
Zn7	Zn	1.068783	-0.312573	0.312575
Zn8	Zn	1.402116	0.020760	0.645908
Zn9	Zn	1.735450	0.354094	0.979241
Zn10	Zn	1.068750	-0.443774	0.443786
Zn11	Zn	1.402083	-0.110440	0.777120
Zn12	Zn	1.735416	0.222893	1.110453
O13	O	1.134385	-0.378181	0.378186
O14	O	1.467719	-0.044847	0.711520
O15	O	1.801052	0.288486	1.044853
O16	O	1.309886	-0.329977	0.426421
O17	O	1.643219	0.003356	0.759755
O18	O	1.976552	0.336690	1.093088
O19	O	1.182531	-0.426446	0.202715
O20	O	1.515864	-0.093112	0.536048
O21	O	1.849198	0.240221	0.869382
O22	O	1.086250	-0.202723	0.330007
O23	O	1.419583	0.130610	0.663340
O24	O	1.752916	0.463944	0.996674
O25	O	1.309816	-0.426424	0.329982
O26	O	1.643150	-0.093091	0.663316
O27	O	1.976483	0.240243	0.996649
O28	O	1.182692	-0.202707	0.426435
O29	O	1.516025	0.130627	0.759769
O30	O	1.849358	0.463960	1.093102
O31	O	1.086158	-0.330015	0.202726
O32	O	1.419491	0.003318	0.536059
O33	O	1.752825	0.336652	0.869392
O34	O	0.958932	-0.329965	0.329970
O35	O	1.292265	0.003369	0.663304
O36	O	1.625598	0.336702	0.996637
O37	O	1.086193	-0.426336	0.553638
O38	O	1.419526	-0.093002	0.886972
O39	O	1.752859	0.240331	1.220305
O40	O	0.958907	-0.426357	0.426371
O41	O	1.292241	-0.093024	0.759704
O42	O	1.625574	0.240309	1.093038
O43	O	1.182659	-0.329927	0.553666
O44	O	1.515993	0.003407	0.886999
O45	O	1.849326	0.336740	1.220333
O46	O	1.182499	-0.553666	0.329946
O47	O	1.515832	-0.220332	0.663279
O48	O	1.849165	0.113001	0.996613
O49	O	1.086101	-0.553628	0.426357
O50	O	1.419435	-0.220294	0.759691
O51	O	1.752768	0.113039	1.093024
C52	C	0.930437	-0.378158	0.378169
C53	C	1.263771	-0.044825	0.711502
C54	C	1.597104	0.288508	1.044835
C55	C	0.843188	-0.378168	0.378180
C56	C	1.176521	-0.044835	0.711513
C57	C	1.509854	0.288499	1.044846
C58	C	0.802234	-0.328037	0.428472
C59	C	1.135568	0.005296	0.761806
C60	C	1.468901	0.338629	1.095139
C61	C	0.720254	-0.328042	0.428476
C62	C	1.053587	0.005291	0.761809
C63	C	1.386921	0.338624	1.095143
C64	C	0.679228	-0.378183	0.378190
C65	C	1.012562	-0.044849	0.711524
C66	C	1.345895	0.288484	1.044857
C67	C	0.720187	-0.428315	0.327892
C68	C	1.053521	-0.094982	0.661226
C69	C	1.386854	0.238351	0.994559
C70	C	0.802166	-0.428306	0.327885
C71	C	1.135500	-0.094973	0.661219
C72	C	1.468833	0.238361	0.994552
C73	C	0.549317	-0.428333	0.327912
C74	C	0.882651	-0.095000	0.661245
C75	C	1.215984	0.238333	0.994579
C76	C	0.467333	-0.428344	0.327920
C77	C	0.800666	-0.095011	0.661253
C78	C	1.133999	0.238323	0.994586
C79	C	0.467405	-0.328070	0.428502
C80	C	0.800738	0.005264	0.761836
C81	C	1.134072	0.338597	1.095169
C82	C	0.549384	-0.328060	0.428495
C83	C	0.882717	0.005273	0.761829
C84	C	1.216050	0.338607	1.095162
C85	C	0.590337	-0.378194	0.378198
C86	C	0.923671	-0.044861	0.711532
C87	C	1.257004	0.288472	1.044865
C88	C	1.134307	-0.582129	0.378163
C89	C	1.467641	-0.248795	0.711496
C90	C	1.800974	0.084538	1.044830
C91	C	1.134346	-0.669378	0.378179
C92	C	1.467679	-0.336045	0.711513
C93	C	1.801012	-0.002712	1.044846
C94	C	1.184536	-0.710292	0.428430
C95	C	1.517869	-0.376959	0.761763
C96	C	1.851203	-0.043626	1.095097
C97	C	1.184569	-0.792273	0.428447
C98	C	1.517902	-0.458940	0.761780
C99	C	1.851235	-0.125606	1.095113
C100	C	1.134415	-0.833338	0.378208
C101	C	1.467748	-0.500004	0.711541
C102	C	1.801082	-0.166671	1.044875
C103	C	1.084220	-0.792418	0.327955
C104	C	1.417553	-0.459085	0.661289
C105	C	1.750886	-0.125751	0.994622
C106	C	1.084183	-0.710439	0.327943
C107	C	1.417517	-0.377106	0.661276
C108	C	1.750850	-0.043772	0.994610
C109	C	1.084300	-0.963288	0.327983
C110	C	1.417633	-0.629955	0.661316
C111	C	1.750967	-0.296621	0.994649
C112	C	1.084337	-1.045273	0.327994
C113	C	1.417671	-0.711939	0.661327
C114	C	1.751004	-0.378606	0.994660
C115	C	1.184686	-1.045122	0.428486
C116	C	1.518019	-0.711788	0.761820
C117	C	1.851352	-0.378455	1.095153
C118	C	1.184649	-0.963143	0.428474
C119	C	1.517983	-0.629810	0.761807
C120	C	1.851316	-0.296476	1.095141
C121	C	1.134455	-0.922229	0.378220
C122	C	1.467788	-0.588895	0.711553
C123	C	1.801121	-0.255562	1.044887
C124	C	1.339130	-0.378204	0.378204
C125	C	1.672463	-0.044870	0.711538
C126	C	2.005796	0.288463	1.044871
C127	C	1.426379	-0.378213	0.378212
C128	C	1.759713	-0.044880	0.711546
C129	C	2.093046	0.288453	1.044879
C130	C	1.134433	-0.378123	0.582931
C131	C	1.467766	-0.044790	0.916264
C132	C	1.801099	0.288544	1.249597
C133	C	1.134453	-0.378098	0.670181
C134	C	1.467786	-0.044765	1.003514
C135	C	1.801120	0.288568	1.336847
C136	C	1.134485	-0.173436	0.378227
C137	C	1.467818	0.159897	0.711560
C138	C	1.801152	0.493230	1.044894
C139	C	1.134527	-0.086187	0.378244
C140	C	1.467861	0.247147	0.711578
C141	C	1.801194	0.580480	1.044911
C142	C	1.134383	-0.378182	0.174238
C143	C	1.467716	-0.044848	0.507572
C144	C	1.801050	0.288485	0.840905
C145	C	1.134515	-0.377985	0.086989
C146	C	1.467848	-0.044652	0.420322
C147	C	1.801182	0.288681	0.753656
C148	C	1.184685	-0.327894	0.711186
C149	C	1.518018	0.005439	1.044520
C150	C	1.851352	0.338773	1.377853
C151	C	1.184694	-0.327868	0.793167
C152	C	1.518028	0.005466	1.126500
C153	C	1.851361	0.338799	1.459834
C154	C	1.134475	-0.378051	0.834140
C155	C	1.467809	-0.044717	1.167473
C156	C	1.801142	0.288616	1.500807
C157	C	1.084238	-0.428257	0.793128
C158	C	1.417571	-0.094924	1.126462
C159	C	1.750904	0.238410	1.459795
C160	C	1.084225	-0.428279	0.711149
C161	C	1.417558	-0.094945	1.044483
C162	C	1.750892	0.238388	1.377816
C163	C	1.084269	-0.428210	0.963999
C164	C	1.417603	-0.094877	1.297332
C165	C	1.750936	0.238457	1.630665
C166	C	1.084283	-0.428190	1.045983
C167	C	1.417616	-0.094856	1.379317
C168	C	1.750950	0.238477	1.712650
C169	C	1.184739	-0.327799	1.046016
C170	C	1.518072	0.005534	1.379349
C171	C	1.851406	0.338868	1.712683
C172	C	1.184726	-0.327821	0.964037
C173	C	1.518059	0.005513	1.297370
C174	C	1.851393	0.338846	1.630704
C175	C	1.134489	-0.378028	0.923031
C176	C	1.467823	-0.044695	1.256364
C177	C	1.801156	0.288638	1.589698
H178	H	0.686913	-0.287222	0.469431
H179	H	1.020247	0.046111	0.802764
H180	H	1.353580	0.379444	1.136097
Cl181	Cl	1.247594	-0.658676	0.491587
Cl182	Cl	1.580928	-0.325343	0.824920
Cl183	Cl	1.914261	0.007991	1.158253
H184	H	1.225556	-1.078438	0.469406
H185	H	1.558889	-0.745105	0.802739
H186	H	1.892222	-0.411771	1.136072
H187	H	1.225642	-0.286917	1.079407
H188	H	1.558976	0.046417	1.412740
H189	H	1.892309	0.379750	1.746074
H190	H	1.225445	-0.825581	0.469360
H191	H	1.558778	-0.492248	0.802693
H192	H	1.892111	-0.158915	1.136026
H193	H	0.582659	-0.469156	0.286953
H194	H	0.915992	-0.135823	0.620286
H195	H	1.249326	0.197511	0.953619
H196	H	1.225600	-0.286988	0.826550
H197	H	1.558934	0.046345	1.159884
H198	H	1.892267	0.379678	1.493217
Cl199	Cl	0.853801	-0.265003	0.491696
Cl200	Cl	1.187135	0.068330	0.825029
Cl201	Cl	1.520468	0.401663	1.158362
Cl202	Cl	1.247705	-0.911519	0.491628
Cl203	Cl	1.581038	-0.578186	0.824961
Cl204	Cl	1.914372	-0.244853	1.158295
H205	H	0.433932	-0.469173	0.286973
H206	H	0.767265	-0.135840	0.620307
H207	H	1.100598	0.197493	0.953640
Cl208	Cl	0.600958	-0.265032	0.491719
Cl209	Cl	0.934291	0.068301	0.825052
Cl210	Cl	1.267625	0.401635	1.158385
Cl211	Cl	0.668612	-0.491345	0.264672
Cl212	Cl	1.001945	-0.158012	0.598005
Cl213	Cl	1.335279	0.175321	0.931338
Cl214	Cl	1.021071	-0.491393	0.659599
Cl215	Cl	1.354404	-0.158060	0.992932
Cl216	Cl	1.687738	0.175274	1.326266
Cl217	Cl	0.853651	-0.491331	0.264659
Cl218	Cl	1.186984	-0.157997	0.597992
Cl219	Cl	1.520317	0.175336	0.931325
Cl220	Cl	0.415921	-0.265042	0.491731
Cl221	Cl	0.749255	0.068292	0.825064
Cl222	Cl	1.082588	0.401625	1.158398
Cl223	Cl	1.021286	-1.096896	0.264836
Cl224	Cl	1.354619	-0.763563	0.598169
Cl225	Cl	1.687953	-0.430230	0.931502
Cl226	Cl	1.021199	-0.911854	0.264803
Cl227	Cl	1.354532	-0.578521	0.598136
Cl228	Cl	1.687866	-0.245188	0.931470
Cl229	Cl	1.247864	-0.264737	0.912529
Cl230	Cl	1.581198	0.068596	1.245862
Cl231	Cl	1.914531	0.401929	1.579195
H232	H	1.043380	-0.825860	0.287053
H233	H	1.376714	-0.492526	0.620387
H234	H	1.710047	-0.159193	0.953720
Cl235	Cl	1.021083	-0.659004	0.264769
Cl236	Cl	1.354417	-0.325671	0.598102
Cl237	Cl	1.687750	0.007663	0.931436
H238	H	1.043388	-0.469051	1.079341
H239	H	1.376722	-0.135718	1.412675
H240	H	1.710055	0.197616	1.746008
Cl241	Cl	1.247826	-0.264807	0.659685
Cl242	Cl	1.581159	0.068526	0.993019
Cl243	Cl	1.914492	0.401860	1.326352
H244	H	1.043349	-0.469082	0.930614
H245	H	1.376682	-0.135749	1.263947
H246	H	1.710016	0.197584	1.597281
H247	H	1.043345	-0.469114	0.826495
H248	H	1.376679	-0.135781	1.159829
H249	H	1.710012	0.197553	1.493162
