data_functionalizedCrystal
_audit_creation_method	'MofGen! by Chris Wilmer'
_symmetry_space_group_name_H-M	'P1'
_symmetry_Int_Tables_number	1
_symmetry_cell_setting	triclinic
loop_
_symmetry_equiv_pos_as_xyz
  x,y,z
_cell_length_a	21.395362
_cell_length_b	19.805405
_cell_length_c	21.395355
_cell_angle_alpha	89.982777
_cell_angle_beta	89.956060
_cell_angle_gamma	90.042604
loop_
_atom_site_label
_atom_site_type_symbol
_atom_site_fract_x
_atom_site_fract_y
_atom_site_fract_z
Zn1	Zn	0.957877	-0.269255	-0.354591
Zn2	Zn	1.291210	0.064079	-0.021258
Zn3	Zn	1.624543	0.397412	0.312075
Zn4	Zn	0.957787	-0.382425	-0.249816
Zn5	Zn	1.291120	-0.049091	0.083517
Zn6	Zn	1.624453	0.284242	0.416851
Zn7	Zn	0.853092	-0.269286	-0.249793
Zn8	Zn	1.186425	0.064047	0.083541
Zn9	Zn	1.519758	0.397380	0.416874
Zn10	Zn	0.853068	-0.382438	-0.354521
Zn11	Zn	1.186402	-0.049105	-0.021187
Zn12	Zn	1.519735	0.284228	0.312146
O13	O	0.905456	-0.325851	-0.302180
O14	O	1.238789	0.007482	0.031153
O15	O	1.572123	0.340816	0.364486
O16	O	1.045543	-0.284248	-0.340732
O17	O	1.378876	0.049085	-0.007399
O18	O	1.712209	0.382419	0.325935
O19	O	0.943871	-0.367424	-0.162135
O20	O	1.277204	-0.034091	0.171198
O21	O	1.610537	0.299243	0.504532
O22	O	0.867039	-0.174565	-0.263714
O23	O	1.200373	0.158768	0.069619
O24	O	1.533706	0.492101	0.402953
O25	O	1.045476	-0.367393	-0.263754
O26	O	1.378810	-0.034060	0.069579
O27	O	1.712143	0.299273	0.402913
O28	O	0.944024	-0.174542	-0.340709
O29	O	1.277358	0.158791	-0.007376
O30	O	1.610691	0.492124	0.325958
O31	O	0.866952	-0.284302	-0.162118
O32	O	1.200285	0.049032	0.171216
O33	O	1.533619	0.382365	0.504549
O34	O	0.765411	-0.284315	-0.263646
O35	O	1.098744	0.049018	0.069688
O36	O	1.432077	0.382352	0.403021
O37	O	0.866999	-0.367417	-0.442208
O38	O	1.200333	-0.034084	-0.108875
O39	O	1.533666	0.299250	0.224459
O40	O	0.765393	-0.367448	-0.340589
O41	O	1.098727	-0.034114	-0.007256
O42	O	1.432060	0.299219	0.326078
O43	O	0.944002	-0.284261	-0.442260
O44	O	1.277335	0.049072	-0.108926
O45	O	1.610668	0.382405	0.224407
O46	O	0.943848	-0.477143	-0.263686
O47	O	1.277181	-0.143810	0.069648
O48	O	1.610515	0.189524	0.402981
O49	O	0.866912	-0.477153	-0.340612
O50	O	1.200245	-0.143820	-0.007279
O51	O	1.533578	0.189513	0.326055
C52	C	0.742668	-0.325887	-0.302107
C53	C	1.076002	0.007447	0.031226
C54	C	1.409335	0.340780	0.364559
C55	C	0.673027	-0.325918	-0.302091
C56	C	1.006360	0.007415	0.031242
C57	C	1.339694	0.340748	0.364575
C58	C	0.640321	-0.369263	-0.342096
C59	C	0.973654	-0.035930	-0.008762
C60	C	1.306988	0.297404	0.324571
C61	C	0.574886	-0.369246	-0.342124
C62	C	0.908219	-0.035913	-0.008790
C63	C	1.241552	0.297420	0.324543
C64	C	0.542159	-0.325892	-0.302136
C65	C	0.875492	0.007441	0.031197
C66	C	1.208825	0.340774	0.364531
C67	C	0.574872	-0.282539	-0.262129
C68	C	0.908206	0.050794	0.071205
C69	C	1.241539	0.384127	0.404538
C70	C	0.640306	-0.282553	-0.262106
C71	C	0.973640	0.050781	0.071227
C72	C	1.306973	0.384114	0.404560
C73	C	0.438434	-0.320440	-0.245731
C74	C	0.771767	0.012894	0.087603
C75	C	1.105100	0.346227	0.420936
C76	C	0.373001	-0.320431	-0.245752
C77	C	0.706334	0.012902	0.087582
C78	C	1.039667	0.346235	0.420915
C79	C	0.340338	-0.325848	-0.302205
C80	C	0.673671	0.007485	0.031128
C81	C	1.007005	0.340818	0.364462
C82	C	0.373116	-0.331287	-0.358639
C83	C	0.706450	0.002046	-0.025305
C84	C	1.039783	0.335379	0.308028
C85	C	0.438550	-0.331301	-0.358616
C86	C	0.771884	0.002033	-0.025283
C87	C	1.105217	0.335366	0.308050
C88	C	0.471206	-0.325873	-0.302156
C89	C	0.804540	0.007460	0.031177
C90	C	1.137873	0.340794	0.364511
C91	C	0.236680	-0.369177	-0.342243
C92	C	0.570013	-0.035844	-0.008910
C93	C	0.903346	0.297490	0.324423
C94	C	0.171243	-0.369156	-0.342272
C95	C	0.504576	-0.035822	-0.008939
C96	C	0.837910	0.297511	0.324395
C97	C	0.171231	-0.282452	-0.262272
C98	C	0.504564	0.050881	0.071062
C99	C	0.837897	0.384214	0.404395
C100	C	0.236666	-0.282470	-0.262248
C101	C	0.569999	0.050863	0.071085
C102	C	0.903333	0.384197	0.404418
C103	C	0.269387	-0.325836	-0.302233
C104	C	0.602720	0.007497	0.031100
C105	C	0.936053	0.340831	0.364434
C106	C	0.905384	-0.501707	-0.302157
C107	C	1.238718	-0.168374	0.031176
C108	C	1.572051	0.164960	0.364509
C109	C	0.905411	-0.576939	-0.302169
C110	C	1.238745	-0.243606	0.031165
C111	C	1.572078	0.089728	0.364498
C112	C	0.945474	-0.612213	-0.342292
C113	C	1.278807	-0.278880	-0.008958
C114	C	1.612140	0.054454	0.324375
C115	C	0.945496	-0.682901	-0.342303
C116	C	1.278830	-0.349568	-0.008970
C117	C	1.612163	-0.016235	0.324363
C118	C	0.905459	-0.718315	-0.302188
C119	C	1.238792	-0.384981	0.031145
C120	C	1.572126	-0.051648	0.364478
C121	C	0.865392	-0.683036	-0.262064
C122	C	1.198726	-0.349702	0.071269
C123	C	1.532059	-0.016369	0.404603
C124	C	0.865367	-0.612349	-0.262056
C125	C	1.198700	-0.279015	0.071278
C126	C	1.532034	0.054318	0.404611
C127	C	0.865493	-0.968109	-0.262096
C128	C	1.198826	-0.634776	0.071237
C129	C	1.532160	-0.301442	0.404571
C130	C	0.865523	-1.038801	-0.262106
C131	C	1.198856	-0.705468	0.071228
C132	C	1.532189	-0.372134	0.404561
C133	C	0.945622	-1.038662	-0.342343
C134	C	1.278956	-0.705328	-0.009010
C135	C	1.612289	-0.371995	0.324323
C136	C	0.945597	-0.967975	-0.342335
C137	C	1.278930	-0.634641	-0.009002
C138	C	1.612264	-0.301308	0.324331
C139	C	0.905528	-0.932702	-0.302213
C140	C	1.238861	-0.599369	0.031120
C141	C	1.572195	-0.266035	0.364453
C142	C	0.905503	-0.856053	-0.302202
C143	C	1.238836	-0.522720	0.031131
C144	C	1.572170	-0.189387	0.364465
C145	C	0.905487	-0.794962	-0.302196
C146	C	1.238820	-0.461628	0.031137
C147	C	1.572153	-0.128295	0.364471
C148	C	1.068879	-0.325816	-0.302253
C149	C	1.402213	0.007518	0.031080
C150	C	1.735546	0.340851	0.364413
C151	C	1.138520	-0.325800	-0.302285
C152	C	1.471854	0.007533	0.031049
C153	C	1.805187	0.340866	0.364382
C154	C	0.905508	-0.325837	-0.465604
C155	C	1.238841	0.007496	-0.132270
C156	C	1.572175	0.340829	0.201063
C157	C	0.905530	-0.325831	-0.535245
C158	C	1.238863	0.007502	-0.201911
C159	C	1.572197	0.340835	0.131422
C160	C	0.905545	-0.149308	-0.302217
C161	C	1.238878	0.184025	0.031117
C162	C	1.572211	0.517358	0.364450
C163	C	0.905582	-0.074076	-0.302232
C164	C	1.238916	0.259257	0.031101
C165	C	1.572249	0.592590	0.364434
C166	C	0.945623	-0.282530	-0.567986
C167	C	1.278957	0.050803	-0.234653
C168	C	1.612290	0.384136	0.098681
C169	C	0.945623	-0.282501	-0.633421
C170	C	1.278956	0.050832	-0.300088
C171	C	1.612289	0.384165	0.033245
C172	C	0.905535	-0.325785	-0.666113
C173	C	1.238868	0.007548	-0.332780
C174	C	1.572202	0.340881	0.000553
C175	C	0.865434	-0.369089	-0.633364
C176	C	1.198767	-0.035756	-0.300031
C177	C	1.532100	0.297577	0.033302
C178	C	0.865431	-0.369112	-0.567930
C179	C	1.198765	-0.035779	-0.234597
C180	C	1.532098	0.297554	0.098737
C181	C	0.900563	-0.386731	-0.769778
C182	C	1.233896	-0.053398	-0.436445
C183	C	1.567230	0.279936	-0.103112
C184	C	0.900570	-0.386709	-0.835211
C185	C	1.233903	-0.053376	-0.501878
C186	C	1.567236	0.279958	-0.168545
C187	C	0.905539	-0.325714	-0.867934
C188	C	1.238872	0.007620	-0.534601
C189	C	1.572205	0.340953	-0.201267
C190	C	0.910514	-0.264738	-0.835216
C191	C	1.243848	0.068595	-0.501882
C192	C	1.577181	0.401928	-0.168549
C193	C	0.910512	-0.264762	-0.769782
C194	C	1.243845	0.068572	-0.436448
C195	C	1.577178	0.401905	-0.103115
C196	C	0.905533	-0.325765	-0.737066
C197	C	1.238866	0.007569	-0.403732
C198	C	1.572199	0.340902	-0.070399
C199	C	0.945633	-0.282378	-0.971628
C200	C	1.278967	0.050956	-0.638294
C201	C	1.612300	0.384289	-0.304961
C202	C	0.945628	-0.282347	-1.037064
C203	C	1.278962	0.050986	-0.703731
C204	C	1.612295	0.384319	-0.370398
C205	C	0.865443	-0.368941	-1.037006
C206	C	1.198776	-0.035608	-0.703673
C207	C	1.532109	0.297725	-0.370339
C208	C	0.865445	-0.368966	-0.971571
C209	C	1.198778	-0.035632	-0.638237
C210	C	1.532111	0.297701	-0.304904
C211	C	0.905543	-0.325685	-0.938885
C212	C	1.238877	0.007649	-0.605552
C213	C	1.572210	0.340982	-0.272219
C214	C	0.905440	-0.325816	-0.139393
C215	C	1.238773	0.007518	0.193941
C216	C	1.572107	0.340851	0.527274
C217	C	0.905539	-0.325631	-0.069752
C218	C	1.238873	0.007702	0.263582
C219	C	1.572206	0.341036	0.596915
H220	H	0.144615	-0.404451	-0.374852
H221	H	0.477949	-0.071117	-0.041519
H222	H	0.811282	0.262216	0.291814
H223	H	0.666958	-0.404574	-0.374656
H224	H	1.000292	-0.071240	-0.041322
H225	H	1.333625	0.262093	0.292011
H226	H	0.832869	-0.939395	-0.229426
H227	H	1.166202	-0.606062	0.103907
H228	H	1.499535	-0.272729	0.437241
H229	H	0.666935	-0.247254	-0.229530
H230	H	1.000268	0.086079	0.103804
H231	H	1.333602	0.419412	0.437137
Cl232	Cl	0.331800	-0.313593	-0.174808
Cl233	Cl	0.665134	0.019741	0.158526
Cl234	Cl	0.998467	0.353074	0.491859
Cl235	Cl	0.996039	-0.227965	-0.930535
Cl236	Cl	1.329372	0.105368	-0.597201
Cl237	Cl	1.662705	0.438702	-0.263868
Cl238	Cl	0.815024	-0.423553	-0.526768
Cl239	Cl	1.148358	-0.090220	-0.193434
Cl240	Cl	1.481691	0.243114	0.139899
Cl241	Cl	0.894334	-0.463420	-0.728648
Cl242	Cl	1.227668	-0.130087	-0.395315
Cl243	Cl	1.561001	0.203246	-0.061981
H244	H	0.548252	-0.404542	-0.374702
H245	H	0.881585	-0.071209	-0.041369
H246	H	1.214918	0.262124	0.291964
Cl247	Cl	0.533731	-0.228034	-0.211861
Cl248	Cl	0.867064	0.105299	0.121472
Cl249	Cl	1.200397	0.438633	0.454805
Cl250	Cl	0.815040	-0.423350	-1.078098
Cl251	Cl	1.148373	-0.090017	-0.744765
Cl252	Cl	1.481707	0.243317	-0.411432
H253	H	0.832800	-0.404230	-0.944913
H254	H	1.166133	-0.070897	-0.611579
H255	H	1.499466	0.262437	-0.278246
H256	H	0.978274	-0.247287	-0.541378
H257	H	1.311608	0.086046	-0.208044
H258	H	1.644941	0.419380	0.125289
Cl259	Cl	0.815053	-0.727555	-0.211640
Cl260	Cl	1.148387	-0.394222	0.121694
Cl261	Cl	1.481720	-0.060889	0.455027
H262	H	0.832792	-0.404329	-0.659986
H263	H	1.166125	-0.070996	-0.326653
H264	H	1.499459	0.262337	0.006681
Cl265	Cl	0.996046	-0.227917	-1.078225
Cl266	Cl	1.329379	0.105416	-0.744892
Cl267	Cl	1.662713	0.438749	-0.411559
H268	H	0.144585	-0.247150	-0.229716
H269	H	0.477918	0.086184	0.103618
H270	H	0.811252	0.419517	0.436951
Cl271	Cl	0.479755	-0.338134	-0.429558
Cl272	Cl	0.813089	-0.004800	-0.096225
Cl273	Cl	1.146422	0.328533	0.237108
Cl274	Cl	0.332062	-0.338094	-0.429614
Cl275	Cl	0.665396	-0.004760	-0.096281
Cl276	Cl	0.998729	0.328573	0.237052
Cl277	Cl	0.894321	-0.463363	-0.876336
Cl278	Cl	1.227654	-0.130030	-0.543003
Cl279	Cl	1.560988	0.203304	-0.209670
H280	H	0.263322	-0.404485	-0.374805
H281	H	0.596655	-0.071151	-0.041471
H282	H	0.929989	0.262182	0.291862
Cl283	Cl	0.996017	-0.228048	-0.674590
Cl284	Cl	1.329350	0.105285	-0.341257
Cl285	Cl	1.662684	0.438619	-0.007924
H286	H	0.465022	-0.316026	-0.199756
H287	H	0.798355	0.017308	0.133577
H288	H	1.131689	0.350641	0.466910
Cl289	Cl	0.277784	-0.227979	-0.211952
Cl290	Cl	0.611118	0.105355	0.121381
Cl291	Cl	0.944451	0.438688	0.454715
H292	H	0.978079	-0.583384	-0.374955
H293	H	1.311413	-0.250051	-0.041621
H294	H	1.644746	0.083283	0.291712
Cl295	Cl	0.995855	-0.727243	-0.392754
Cl296	Cl	1.329188	-0.393909	-0.059421
Cl297	Cl	1.662521	-0.060576	0.273913
Cl298	Cl	0.995933	-0.923459	-0.392766
Cl299	Cl	1.329266	-0.590126	-0.059432
Cl300	Cl	1.662600	-0.256792	0.273901
Cl301	Cl	0.815000	-0.568004	-0.211614
Cl302	Cl	1.148333	-0.234671	0.121719
Cl303	Cl	1.481666	0.098663	0.455052
Cl304	Cl	0.995993	-1.083009	-0.392786
Cl305	Cl	1.329326	-0.749675	-0.059453
Cl306	Cl	1.662660	-0.416342	0.273881
H307	H	0.914561	-0.215070	-0.861857
H308	H	1.247895	0.118263	-0.528524
H309	H	1.581228	0.451596	-0.195190
Cl310	Cl	0.916761	-0.188111	-0.728652
Cl311	Cl	1.250095	0.145223	-0.395319
Cl312	Cl	1.583428	0.478556	-0.061985
H313	H	0.832917	-1.067633	-0.229439
H314	H	1.166250	-0.734299	0.103895
H315	H	1.499583	-0.400966	0.437228
