data_functionalizedCrystal
_audit_creation_method	'MofGen! by Chris Wilmer'
_symmetry_space_group_name_H-M	'P1'
_symmetry_Int_Tables_number	1
_symmetry_cell_setting	triclinic
loop_
_symmetry_equiv_pos_as_xyz
  x,y,z
_cell_length_a	15.538191
_cell_length_b	16.098538
_cell_length_c	15.625429
_cell_angle_alpha	105.324175
_cell_angle_beta	66.736792
_cell_angle_gamma	91.654063
loop_
_atom_site_label
_atom_site_type_symbol
_atom_site_fract_x
_atom_site_fract_y
_atom_site_fract_z
O1	O	1.248397	-0.018670	-0.291223
O2	O	0.976139	0.012025	-0.189567
O3	O	1.117194	-0.042750	-0.370951
O4	O	1.107342	0.036104	-0.109840
O5	O	1.108954	-0.178072	-0.360386
O6	O	0.967899	-0.123298	-0.179003
O7	O	1.240156	-0.153993	-0.280658
Zn8	Zn	1.102719	-0.160131	-0.228153
Zn9	Zn	1.113576	0.018163	-0.242072
O10	O	1.099101	-0.099218	-0.099275
C11	C	0.937133	-0.052425	-0.173649
C12	C	0.833183	-0.042860	-0.141969
N13	N	1.095316	-0.281812	-0.218656
C14	C	0.539196	-0.137896	-0.456707
C15	C	0.441517	-0.128898	-0.426916
C16	C	0.422373	-0.078295	-0.259350
C17	C	0.520052	-0.087292	-0.289126
C18	C	0.578456	-0.117092	-0.387806
C19	C	0.559313	-0.066487	-0.220225
C20	C	0.656984	-0.075479	-0.250000
C21	C	0.715394	-0.105276	-0.348676
C22	C	0.676127	-0.126084	-0.417581
C23	C	0.500908	-0.036682	-0.121546
C24	C	0.540169	-0.015878	-0.052645
C25	C	0.637841	-0.024875	-0.082419
C26	C	0.696251	-0.054672	-0.181095
C27	C	0.677108	-0.004067	-0.013514
C28	C	0.774779	-0.013060	-0.043289
C29	C	0.793922	-0.063664	-0.210870
C30	C	1.155209	-0.348642	-0.295629
C31	C	1.150039	-0.433823	-0.288980
C32	C	1.084981	-0.452172	-0.205355
C33	C	1.025082	-0.385335	-0.128377
C34	C	1.030248	-0.300156	-0.135030
C35	C	1.066254	-0.708144	-0.181254
C36	C	1.061094	-0.793329	-0.174606
C37	C	1.186050	-0.841812	-0.335210
C38	C	1.191214	-0.756629	-0.341853
C39	C	1.131312	-0.689800	-0.264878
C40	C	1.079697	-0.539239	-0.198555
C41	C	1.136592	-0.602735	-0.271681
C42	C	1.279163	-0.089541	-0.296576
C43	C	1.383113	-0.099102	-0.328257
C44	C	1.111812	-0.120255	-0.398270
C45	C	1.108042	-0.149586	-0.495410
N46	N	1.120986	0.139841	-0.251579
C47	C	1.118071	0.122744	-0.843675
C48	C	1.114522	0.095159	-0.934949
C49	C	1.105539	-0.052360	-0.923419
C50	C	1.109092	-0.024788	-0.832144
C51	C	1.115357	0.062765	-0.792279
C52	C	1.106378	-0.084767	-0.780748
C53	C	1.109925	-0.057196	-0.689479
C54	C	1.116187	0.030354	-0.649606
C55	C	1.118904	0.090337	-0.701010
C56	C	1.100106	-0.172319	-0.820612
C57	C	1.097392	-0.232298	-0.769216
C58	C	1.100946	-0.204728	-0.677948
C59	C	1.107208	-0.117178	-0.638075
C60	C	1.098229	-0.264710	-0.626544
C61	C	1.101777	-0.237139	-0.535275
C62	C	1.110756	-0.089607	-0.546806
C63	C	1.104483	-0.021711	-0.071955
C64	C	1.108254	0.007624	0.025184
H65	H	0.841478	-0.087935	-0.291224
Br66	Br	1.267340	-0.932510	-0.439673
Br67	Br	1.126592	0.241566	-0.789573
Br68	Br	0.948956	-0.209459	-0.030565
Br69	Br	0.847951	-0.117472	-0.389089
H70	H	1.116724	0.144009	-0.976790
Br71	Br	1.098096	-0.318539	-0.465518
H72	H	0.586752	-0.162167	-0.537061
H73	H	1.092288	-0.303584	-0.801685
Br74	Br	1.089704	-0.383525	-0.680647
Br75	Br	0.972797	-0.818222	-0.061101
Br76	Br	1.097025	-0.171177	-0.977524
Br77	Br	0.984963	-0.617453	-0.076789
Br78	Br	0.597836	0.036392	0.120402
H79	H	0.972106	-0.400279	-0.060289
H80	H	0.492603	0.008389	0.027700
H81	H	0.723684	-0.150355	-0.497935
Br82	Br	0.828068	0.015180	0.050219
Br83	Br	1.121003	0.067776	-0.525740
Br84	Br	1.127425	0.209158	-0.646908
H85	H	1.097208	-0.194763	-0.894925
H86	H	0.409556	-0.145841	-0.483031
H87	H	1.198807	-0.488237	-0.351658
H88	H	1.189559	-0.587794	-0.339771
H89	H	0.374808	-0.054028	-0.179005
H90	H	1.115866	-0.018313	-0.514350
Br91	Br	0.368352	-0.024475	-0.081137
Br92	Br	1.243513	-0.323749	-0.409123
H93	H	1.026727	-0.554185	-0.130464
H94	H	1.244189	-0.741693	-0.409948
