data_functionalizedCrystal
_audit_creation_method	'MofGen! by Chris Wilmer'
_symmetry_space_group_name_H-M	'P1'
_symmetry_Int_Tables_number	1
_symmetry_cell_setting	triclinic
loop_
_symmetry_equiv_pos_as_xyz
  x,y,z
_cell_length_a	27.731994
_cell_length_b	27.732064
_cell_length_c	26.809956
_cell_angle_alpha	90.008400
_cell_angle_beta	89.997334
_cell_angle_gamma	82.634978
loop_
_atom_site_label
_atom_site_type_symbol
_atom_site_fract_x
_atom_site_fract_y
_atom_site_fract_z
O1	O	0.640952	0.057385	-0.041404
O2	O	0.890952	0.307385	0.208596
O3	O	1.140952	0.557385	0.458596
O4	O	1.390952	0.807385	0.708596
O5	O	0.500155	0.066158	-0.041420
O6	O	0.750155	0.316158	0.208580
O7	O	1.000155	0.566158	0.458580
O8	O	1.250155	0.816158	0.708580
O9	O	0.574922	-0.008626	-0.041414
O10	O	0.824922	0.241374	0.208586
O11	O	1.074922	0.491374	0.458586
O12	O	1.324922	0.741374	0.708586
O13	O	0.566185	0.132168	-0.041411
O14	O	0.816185	0.382168	0.208589
O15	O	1.066185	0.632168	0.458589
O16	O	1.316185	0.882168	0.708589
O17	O	0.574908	-0.008614	0.041545
O18	O	0.824908	0.241386	0.291545
O19	O	1.074908	0.491386	0.541545
O20	O	1.324908	0.741386	0.791545
O21	O	0.500141	0.066169	0.041539
O22	O	0.750141	0.316169	0.291539
O23	O	1.000141	0.566169	0.541539
O24	O	1.250141	0.816169	0.791539
O25	O	0.640938	0.057396	0.041555
O26	O	0.890938	0.307396	0.291555
O27	O	1.140938	0.557396	0.541555
O28	O	1.390938	0.807396	0.791555
Zn29	Zn	0.570537	0.061785	0.054718
Zn30	Zn	0.820537	0.311785	0.304718
Zn31	Zn	1.070537	0.561785	0.554718
Zn32	Zn	1.320537	0.811785	0.804718
Zn33	Zn	0.570556	0.061770	-0.054584
Zn34	Zn	0.820556	0.311770	0.195416
Zn35	Zn	1.070556	0.561770	0.445416
Zn36	Zn	1.320556	0.811770	0.695416
O37	O	0.566171	0.132180	0.041548
O38	O	0.816171	0.382180	0.291548
O39	O	1.066171	0.632180	0.541548
O40	O	1.316171	0.882180	0.791548
C41	C	0.482140	0.065983	0.000057
C42	C	0.732140	0.315983	0.250057
C43	C	0.982140	0.565983	0.500057
C44	C	1.232140	0.815983	0.750057
C45	C	0.428484	0.065441	0.000051
C46	C	0.678484	0.315441	0.250051
C47	C	0.928484	0.565441	0.500051
C48	C	1.178484	0.815441	0.750051
C49	C	0.095758	0.062032	0.045291
C50	C	0.345758	0.312032	0.295291
C51	C	0.595758	0.562032	0.545291
C52	C	0.845758	0.812032	0.795291
C53	C	-0.105900	0.059970	0.045297
C54	C	0.144100	0.309970	0.295297
C55	C	0.394100	0.559970	0.545297
C56	C	0.644100	0.809970	0.795297
O57	O	-0.131980	0.059688	0.083755
O58	O	0.118020	0.309688	0.333755
O59	O	0.368020	0.559688	0.583755
O60	O	0.618020	0.809688	0.833755
N61	N	-0.131108	0.059708	0.000076
N62	N	0.118892	0.309708	0.250076
N63	N	0.368892	0.559708	0.500076
N64	N	0.618892	0.809708	0.750076
C65	C	-0.105897	0.059958	-0.045150
C66	C	0.144103	0.309958	0.204850
C67	C	0.394103	0.559958	0.454850
C68	C	0.644103	0.809958	0.704850
O69	O	-0.131963	0.059682	-0.083613
O70	O	0.118037	0.309682	0.166387
O71	O	0.368037	0.559682	0.416387
O72	O	0.618037	0.809682	0.666387
C73	C	0.095761	0.062016	-0.045155
C74	C	0.345761	0.312016	0.204845
C75	C	0.595761	0.562016	0.454845
C76	C	0.845761	0.812016	0.704845
C77	C	0.120965	0.062283	0.000069
C78	C	0.370965	0.312283	0.250069
C79	C	0.620965	0.562283	0.500069
C80	C	0.870965	0.812283	0.750069
C81	C	0.120962	0.062298	0.090511
C82	C	0.370962	0.312298	0.340511
C83	C	0.620962	0.562298	0.590511
C84	C	0.870962	0.812298	0.840511
C85	C	0.171373	0.062816	0.090510
C86	C	0.421373	0.312816	0.340510
C87	C	0.671373	0.562816	0.590510
C88	C	0.921373	0.812816	0.840510
C89	C	0.196580	0.063068	0.045287
C90	C	0.446580	0.313068	0.295287
C91	C	0.696580	0.563068	0.545287
C92	C	0.946580	0.813068	0.795287
C93	C	0.171376	0.062801	0.000067
C94	C	0.421376	0.312801	0.250067
C95	C	0.671376	0.562801	0.500067
C96	C	0.921376	0.812801	0.750067
C97	C	0.120972	0.062262	-0.090380
C98	C	0.370972	0.312262	0.159620
C99	C	0.620972	0.562262	0.409620
C100	C	0.870972	0.812262	0.659620
C101	C	0.171389	0.062776	-0.090377
C102	C	0.421389	0.312776	0.159623
C103	C	0.671389	0.562776	0.409623
C104	C	0.921389	0.812776	0.659623
C105	C	0.196593	0.063043	-0.045153
C106	C	0.446593	0.313043	0.204847
C107	C	0.696593	0.563043	0.454847
C108	C	0.946593	0.813043	0.704847
C109	C	0.246995	0.063570	-0.045157
C110	C	0.496995	0.313570	0.204843
C111	C	0.746995	0.563570	0.454843
C112	C	0.996995	0.813570	0.704843
N113	N	0.272202	0.063833	0.000064
N114	N	0.522202	0.313833	0.250064
N115	N	0.772202	0.563833	0.500064
N116	N	1.022202	0.813833	0.750064
C117	C	0.246994	0.063581	0.045286
C118	C	0.496994	0.313581	0.295286
C119	C	0.746994	0.563581	0.545286
C120	C	0.996994	0.813581	0.795286
C121	C	-0.211770	0.058878	-0.045144
C122	C	0.038230	0.308878	0.204856
C123	C	0.288230	0.558878	0.454856
C124	C	0.538230	0.808878	0.704856
C125	C	-0.262184	0.058364	-0.045143
C126	C	-0.012184	0.308364	0.204857
C127	C	0.237816	0.558364	0.454857
C128	C	0.487816	0.808364	0.704857
C129	C	-0.262185	0.058376	0.045304
C130	C	-0.012185	0.308376	0.295304
C131	C	0.237815	0.558376	0.545304
C132	C	0.487815	0.808376	0.795304
C133	C	-0.211770	0.058893	0.045302
C134	C	0.038230	0.308893	0.295302
C135	C	0.288230	0.558893	0.545302
C136	C	0.538230	0.808893	0.795302
C137	C	-0.186563	0.059140	0.000077
C138	C	0.063437	0.309140	0.250077
C139	C	0.313437	0.559140	0.500077
C140	C	0.563437	0.809140	0.750077
C141	C	0.352862	0.064670	0.045279
C142	C	0.602862	0.314670	0.295279
C143	C	0.852862	0.564670	0.545279
C144	C	1.102862	0.814670	0.795279
C145	C	0.403277	0.065190	0.045273
C146	C	0.653277	0.315190	0.295273
C147	C	0.903277	0.565190	0.545273
C148	C	1.153277	0.815190	0.795273
C149	C	0.403273	0.065176	-0.045174
C150	C	0.653273	0.315176	0.204826
C151	C	0.903273	0.565176	0.454826
C152	C	1.153273	0.815176	0.704826
C153	C	0.352862	0.064658	-0.045168
C154	C	0.602862	0.314658	0.204832
C155	C	0.852862	0.564658	0.454832
C156	C	1.102862	0.814658	0.704832
C157	C	0.327657	0.064403	0.000062
C158	C	0.577657	0.314403	0.250062
C159	C	0.827657	0.564403	0.500062
C160	C	1.077657	0.814403	0.750062
O161	O	0.273105	0.063847	-0.083595
O162	O	0.523105	0.313847	0.166405
O163	O	0.773105	0.563847	0.416405
O164	O	1.023105	0.813847	0.666405
O165	O	0.273071	0.063846	0.083744
O166	O	0.523071	0.313846	0.333744
O167	O	0.773071	0.563846	0.583744
O168	O	1.023071	0.813846	0.833744
C169	C	0.045347	0.061514	0.045293
C170	C	0.295347	0.311514	0.295293
C171	C	0.545347	0.561514	0.545293
C172	C	0.795347	0.811514	0.795293
C173	C	0.020143	0.061247	0.000073
C174	C	0.270143	0.311247	0.250073
C175	C	0.520143	0.561247	0.500073
C176	C	0.770143	0.811247	0.750073
C177	C	0.045350	0.061498	-0.045150
C178	C	0.295350	0.311498	0.204850
C179	C	0.545350	0.561498	0.454850
C180	C	0.795350	0.811498	0.704850
C181	C	-0.030272	0.060733	0.000074
C182	C	0.219728	0.310733	0.250074
C183	C	0.469728	0.560733	0.500074
C184	C	0.719728	0.810733	0.750074
C185	C	-0.055479	0.060482	0.045296
C186	C	0.194521	0.310482	0.295296
C187	C	0.444521	0.560482	0.545296
C188	C	0.694521	0.810482	0.795296
C189	C	-0.030272	0.060744	0.090517
C190	C	0.219728	0.310744	0.340517
C191	C	0.469728	0.560744	0.590517
C192	C	0.719728	0.810744	0.840517
C193	C	0.020139	0.061262	0.090515
C194	C	0.270139	0.311262	0.340515
C195	C	0.520139	0.561262	0.590515
C196	C	0.770139	0.811262	0.840515
C197	C	0.020143	0.061236	-0.090371
C198	C	0.270143	0.311236	0.159629
C199	C	0.520143	0.561236	0.409629
C200	C	0.770143	0.811236	0.659629
C201	C	-0.030269	0.060719	-0.090365
C202	C	0.219731	0.310719	0.159635
C203	C	0.469731	0.560719	0.409635
C204	C	0.719731	0.810719	0.659635
C205	C	-0.055476	0.060467	-0.045143
C206	C	0.194524	0.310467	0.204857
C207	C	0.444524	0.560467	0.454857
C208	C	0.694524	0.810467	0.704857
C209	C	0.574730	-0.026627	0.000064
C210	C	0.824730	0.223373	0.250064
C211	C	1.074730	0.473373	0.500064
C212	C	1.324730	0.723373	0.750064
C213	C	0.574174	-0.080281	0.000060
C214	C	0.824174	0.169719	0.250060
C215	C	1.074174	0.419719	0.500060
C216	C	1.324174	0.669719	0.750060
C217	C	0.526206	-0.457344	0.000052
C218	C	0.776206	-0.207344	0.250052
C219	C	1.026206	0.042656	0.500052
C220	C	1.276206	0.292656	0.750052
C221	C	0.528252	-0.255685	0.000052
C222	C	0.778252	-0.005685	0.250052
C223	C	1.028252	0.244315	0.500052
C224	C	1.278252	0.494315	0.750052
O225	O	0.491030	-0.224425	0.000028
O226	O	0.741030	0.025575	0.250028
O227	O	0.991030	0.275575	0.500028
O228	O	1.241030	0.525575	0.750028
N229	N	0.572588	-0.236566	0.000057
N230	N	0.822588	0.013434	0.250057
N231	N	1.072588	0.263434	0.500057
N232	N	1.322588	0.513434	0.750057
C233	C	0.616415	-0.267865	0.000058
C234	C	0.866415	-0.017865	0.250058
C235	C	1.116415	0.232135	0.500058
C236	C	1.366415	0.482135	0.750058
O237	O	0.654172	-0.246976	0.000058
O238	O	0.904172	0.003024	0.250058
O239	O	1.154172	0.253024	0.500058
O240	O	1.404172	0.503024	0.750058
C241	C	0.614368	-0.469524	0.000055
C242	C	0.864368	-0.219524	0.250055
C243	C	1.114368	0.030476	0.500055
C244	C	1.364368	0.280476	0.750055
C245	C	0.570029	-0.488640	0.000055
C246	C	0.820029	-0.238640	0.250055
C247	C	1.070029	0.011360	0.500055
C248	C	1.320029	0.261360	0.750055
C249	C	0.481871	-0.476461	0.000052
C250	C	0.731871	-0.226461	0.250052
C251	C	0.981871	0.023539	0.500052
C252	C	1.231871	0.273539	0.750052
C253	C	0.481360	-0.526873	0.000054
C254	C	0.731360	-0.276873	0.250054
C255	C	0.981360	-0.026873	0.500054
C256	C	1.231360	0.223127	0.750054
C257	C	0.525184	-0.558168	0.000058
C258	C	0.775184	-0.308168	0.250058
C259	C	1.025184	-0.058168	0.500058
C260	C	1.275184	0.191832	0.750058
C261	C	0.569518	-0.539052	0.000058
C262	C	0.819518	-0.289052	0.250058
C263	C	1.069518	-0.039052	0.500058
C264	C	1.319518	0.210948	0.750058
C265	C	0.658194	-0.500823	0.000054
C266	C	0.908194	-0.250823	0.250054
C267	C	1.158194	-0.000823	0.500054
C268	C	1.408194	0.249177	0.750054
C269	C	0.657679	-0.551240	0.000051
C270	C	0.907679	-0.301240	0.250051
C271	C	1.157679	-0.051240	0.500051
C272	C	1.407679	0.198760	0.750051
C273	C	0.613340	-0.570356	0.000052
C274	C	0.863340	-0.320356	0.250052
C275	C	1.113340	-0.070356	0.500052
C276	C	1.363340	0.179644	0.750052
C277	C	0.612831	-0.620760	0.000064
C278	C	0.862831	-0.370760	0.250064
C279	C	1.112831	-0.120760	0.500064
C280	C	1.362831	0.129240	0.750064
N281	N	0.568495	-0.639879	0.000059
N282	N	0.818495	-0.389879	0.250059
N283	N	1.068495	-0.139879	0.500059
N284	N	1.318495	0.110121	0.750059
C285	C	0.524672	-0.608583	0.000056
C286	C	0.774672	-0.358583	0.250056
C287	C	1.024672	-0.108583	0.500056
C288	C	1.274672	0.141417	0.750056
C289	C	0.617486	-0.161991	0.000061
C290	C	0.867486	0.088009	0.250061
C291	C	1.117486	0.338009	0.500061
C292	C	1.367486	0.588009	0.750061
C293	C	0.617998	-0.111577	0.000063
C294	C	0.867998	0.138423	0.250063
C295	C	1.117998	0.388423	0.500063
C296	C	1.367998	0.638423	0.750063
C297	C	0.529835	-0.099399	0.000055
C298	C	0.779835	0.150601	0.250055
C299	C	1.029835	0.400601	0.500055
C300	C	1.279835	0.650601	0.750055
C301	C	0.529324	-0.149815	0.000057
C302	C	0.779324	0.100185	0.250057
C303	C	1.029324	0.350185	0.500057
C304	C	1.279324	0.600185	0.750057
C305	C	0.573151	-0.181110	0.000056
C306	C	0.823151	0.068890	0.250056
C307	C	1.073151	0.318890	0.500056
C308	C	1.323151	0.568890	0.750056
C309	C	0.523602	-0.714452	0.000062
C310	C	0.773602	-0.464452	0.250062
C311	C	1.023602	-0.214452	0.500062
C312	C	1.273602	0.035548	0.750062
C313	C	0.523095	-0.764869	0.000067
C314	C	0.773095	-0.514869	0.250067
C315	C	1.023095	-0.264869	0.500067
C316	C	1.273095	-0.014869	0.750067
C317	C	0.611257	-0.777042	0.000072
C318	C	0.861257	-0.527042	0.250072
C319	C	1.111257	-0.277042	0.500072
C320	C	1.361257	-0.027042	0.750072
C321	C	0.611764	-0.726630	0.000070
C322	C	0.861764	-0.476630	0.250070
C323	C	1.111764	-0.226630	0.500070
C324	C	1.361764	0.023370	0.750070
C325	C	0.567933	-0.695335	0.000063
C326	C	0.817933	-0.445335	0.250063
C327	C	1.067933	-0.195335	0.500063
C328	C	1.317933	0.054665	0.750063
O329	O	0.650033	-0.652048	0.000083
O330	O	0.900033	-0.402048	0.250083
O331	O	1.150033	-0.152048	0.500083
O332	O	1.400033	0.097952	0.750083
O333	O	0.486920	-0.629481	0.000046
O334	O	0.736920	-0.379481	0.250046
O335	O	0.986920	-0.129481	0.500046
O336	O	1.236920	0.120519	0.750046
C337	C	0.526717	-0.406932	0.000049
C338	C	0.776717	-0.156932	0.250049
C339	C	1.026717	0.093068	0.500049
C340	C	1.276717	0.343068	0.750049
C341	C	0.571052	-0.387816	0.000050
C342	C	0.821052	-0.137816	0.250050
C343	C	1.071052	0.112184	0.500050
C344	C	1.321052	0.362184	0.750050
C345	C	0.614875	-0.419112	0.000053
C346	C	0.864875	-0.169112	0.250053
C347	C	1.114875	0.080888	0.500053
C348	C	1.364875	0.330888	0.750053
C349	C	0.571563	-0.337402	0.000051
C350	C	0.821563	-0.087402	0.250051
C351	C	1.071563	0.162598	0.500051
C352	C	1.321563	0.412598	0.750051
C353	C	0.527740	-0.306106	0.000048
C354	C	0.777740	-0.056106	0.250048
C355	C	1.027740	0.193894	0.500048
C356	C	1.277740	0.443894	0.750048
C357	C	0.483404	-0.325225	0.000043
C358	C	0.733404	-0.075225	0.250043
C359	C	0.983404	0.174775	0.500043
C360	C	1.233404	0.424775	0.750043
C361	C	0.482893	-0.375637	0.000046
C362	C	0.732893	-0.125637	0.250046
C363	C	0.982893	0.124363	0.500046
C364	C	1.232893	0.374363	0.750046
C365	C	0.659211	-0.399993	0.000058
C366	C	0.909211	-0.149993	0.250058
C367	C	1.159211	0.100007	0.500058
C368	C	1.409211	0.350007	0.750058
C369	C	0.659718	-0.349580	0.000056
C370	C	0.909718	-0.099580	0.250056
C371	C	1.159718	0.150420	0.500056
C372	C	1.409718	0.400420	0.750056
C373	C	0.615895	-0.318285	0.000052
C374	C	0.865895	-0.068285	0.250052
C375	C	1.115895	0.181715	0.500052
C376	C	1.365895	0.431715	0.750052
C377	C	0.658952	0.057571	0.000076
C378	C	0.908952	0.307571	0.250076
C379	C	1.158952	0.557571	0.500076
C380	C	1.408952	0.807571	0.750076
C381	C	0.712608	0.058113	0.000079
C382	C	0.962608	0.308113	0.250079
C383	C	1.212608	0.558113	0.500079
C384	C	1.462608	0.808113	0.750079
C385	C	0.566362	0.150181	0.000069
C386	C	0.816362	0.400181	0.250069
C387	C	1.066362	0.650181	0.500069
C388	C	1.316362	0.900181	0.750069
C389	C	0.566918	0.203835	0.000071
C390	C	0.816918	0.453835	0.250071
C391	C	1.066918	0.703835	0.500071
C392	C	1.316918	0.953835	0.750071
N393	N	0.570528	0.061795	0.129314
N394	N	0.820528	0.311795	0.379314
N395	N	1.070528	0.561795	0.629314
N396	N	1.320528	0.811795	0.879314
N397	N	0.570569	0.061756	-0.129180
N398	N	0.820569	0.311756	0.120820
N399	N	1.070569	0.561756	0.370820
N400	N	1.320569	0.811756	0.620820
C401	C	0.603658	0.028664	0.473943
C402	C	0.853658	0.278664	0.723943
C403	C	1.103658	0.528664	0.973943
C404	C	1.353658	0.778664	1.223943
C405	C	0.603670	0.028656	0.682821
C406	C	0.853670	0.278656	0.932821
C407	C	1.103670	0.528656	1.182821
C408	C	1.353670	0.778656	1.432821
O409	O	0.631818	0.000490	0.709827
O410	O	0.881818	0.250490	0.959827
O411	O	1.131818	0.500490	1.209827
O412	O	1.381818	0.750490	1.459827
N413	N	0.570558	0.061759	0.708942
N414	N	0.820558	0.311759	0.958942
N415	N	1.070558	0.561759	1.208942
N416	N	1.320558	0.811759	1.458942
C417	C	0.537439	0.094864	0.682839
C418	C	0.787439	0.344864	0.932839
C419	C	1.037439	0.594864	1.182839
C420	C	1.287439	0.844864	1.432839
O421	O	0.509273	0.123016	0.709849
O422	O	0.759273	0.373016	0.959849
O423	O	1.009273	0.623016	1.209849
O424	O	1.259273	0.873016	1.459849
C425	C	0.537426	0.094868	0.473963
C426	C	0.787426	0.344868	0.723963
C427	C	1.037426	0.594868	0.973963
C428	C	1.287426	0.844868	1.223963
C429	C	0.570543	0.061767	0.447845
C430	C	0.820543	0.311767	0.697845
C431	C	1.070543	0.561767	0.947845
C432	C	1.320543	0.811767	1.197845
C433	C	0.636772	-0.004436	0.447826
C434	C	0.886772	0.245564	0.697826
C435	C	1.136772	0.495564	0.947826
C436	C	1.386772	0.745564	1.197826
C437	C	0.636770	-0.004432	0.395609
C438	C	0.886770	0.245568	0.645609
C439	C	1.136770	0.495568	0.895609
C440	C	1.386770	0.745568	1.145609
C441	C	0.603655	0.028671	0.369511
C442	C	0.853655	0.278671	0.619511
C443	C	1.103655	0.528671	0.869511
C444	C	1.353655	0.778671	1.119511
C445	C	0.570541	0.061771	0.395629
C446	C	0.820541	0.311771	0.645629
C447	C	1.070541	0.561771	0.895629
C448	C	1.320541	0.811771	1.145629
C449	C	0.504305	0.127971	0.447861
C450	C	0.754305	0.377971	0.697861
C451	C	1.004305	0.627971	0.947861
C452	C	1.254305	0.877971	1.197861
C453	C	0.504304	0.127968	0.395639
C454	C	0.754304	0.377968	0.645639
C455	C	1.004304	0.627968	0.895639
C456	C	1.254304	0.877968	1.145639
C457	C	0.537421	0.094866	0.369521
C458	C	0.787421	0.344866	0.619521
C459	C	1.037421	0.594866	0.869521
C460	C	1.287421	0.844866	1.119521
C461	C	0.537425	0.094878	0.317314
C462	C	0.787425	0.344878	0.567314
C463	C	1.037425	0.594878	0.817314
C464	C	1.287425	0.844878	1.067314
N465	N	0.570536	0.061775	0.291193
N466	N	0.820536	0.311775	0.541193
N467	N	1.070536	0.561775	0.791193
N468	N	1.320536	0.811775	1.041193
C469	C	0.603651	0.028672	0.317292
C470	C	0.853651	0.278672	0.567292
C471	C	1.103651	0.528672	0.817292
C472	C	1.353651	0.778672	1.067292
C473	C	0.537449	0.094859	0.792503
C474	C	0.787449	0.344859	1.042503
C475	C	1.037449	0.594859	1.292503
C476	C	1.287449	0.844859	1.542503
C477	C	0.537453	0.094859	0.844722
C478	C	0.787453	0.344859	1.094722
C479	C	1.037453	0.594859	1.344722
C480	C	1.287453	0.844859	1.594722
C481	C	0.603683	0.028651	0.844700
C482	C	0.853683	0.278651	1.094700
C483	C	1.103683	0.528651	1.344700
C484	C	1.353683	0.778651	1.594700
C485	C	0.603681	0.028654	0.792480
C486	C	0.853681	0.278654	1.042480
C487	C	1.103681	0.528654	1.292480
C488	C	1.353681	0.778654	1.542480
C489	C	0.570561	0.061757	0.766382
C490	C	0.820561	0.311757	1.016382
C491	C	1.070561	0.561757	1.266382
C492	C	1.320561	0.811757	1.516382
C493	C	0.603646	0.028683	0.207634
C494	C	0.853646	0.278683	0.457634
C495	C	1.103646	0.528683	0.707634
C496	C	1.353646	0.778683	0.957634
C497	C	0.603643	0.028691	0.155413
C498	C	0.853643	0.278691	0.405413
C499	C	1.103643	0.528691	0.655413
C500	C	1.353643	0.778691	0.905413
C501	C	0.537412	0.094898	0.155439
C502	C	0.787412	0.344898	0.405439
C503	C	1.037412	0.594898	0.655439
C504	C	1.287412	0.844898	0.905439
C505	C	0.537416	0.094891	0.207656
C506	C	0.787416	0.344891	0.457656
C507	C	1.037416	0.594891	0.707656
C508	C	1.287416	0.844891	0.957656
C509	C	0.570535	0.061780	0.233752
C510	C	0.820535	0.311780	0.483752
C511	C	1.070535	0.561780	0.733752
C512	C	1.320535	0.811780	0.983752
O513	O	0.509287	0.123026	0.290275
O514	O	0.759287	0.373026	0.540275
O515	O	1.009287	0.623026	0.790275
O516	O	1.259287	0.873026	1.040275
O517	O	0.631806	0.000517	0.290273
O518	O	0.881806	0.250517	0.540273
O519	O	1.131806	0.500517	0.790273
O520	O	1.381806	0.750517	1.040273
C521	C	0.603660	0.028660	0.526160
C522	C	0.853660	0.278660	0.776160
C523	C	1.103660	0.528660	1.026160
C524	C	1.353660	0.778660	1.276160
C525	C	0.570546	0.061759	0.552277
C526	C	0.820546	0.311759	0.802277
C527	C	1.070546	0.561759	1.052277
C528	C	1.320546	0.811759	1.302277
C529	C	0.537431	0.094862	0.526179
C530	C	0.787431	0.344862	0.776179
C531	C	1.037431	0.594862	1.026179
C532	C	1.287431	0.844862	1.276179
C533	C	0.570550	0.061758	0.604496
C534	C	0.820550	0.311758	0.854496
C535	C	1.070550	0.561758	1.104496
C536	C	1.320550	0.811758	1.354496
C537	C	0.603665	0.028655	0.630595
C538	C	0.853665	0.278655	0.880595
C539	C	1.103665	0.528655	1.130595
C540	C	1.353665	0.778655	1.380595
C541	C	0.636776	-0.004448	0.604474
C542	C	0.886776	0.245552	0.854474
C543	C	1.136776	0.495552	1.104474
C544	C	1.386776	0.745552	1.354474
C545	C	0.636775	-0.004444	0.552258
C546	C	0.886775	0.245556	0.802258
C547	C	1.136775	0.495556	1.052258
C548	C	1.386775	0.745556	1.302258
C549	C	0.504319	0.127965	0.552299
C550	C	0.754319	0.377965	0.802299
C551	C	1.004319	0.627965	1.052299
C552	C	1.254319	0.877965	1.302299
C553	C	0.504324	0.127959	0.604516
C554	C	0.754324	0.377959	0.854516
C555	C	1.004324	0.627959	1.104516
C556	C	1.254324	0.877959	1.354516
C557	C	0.537439	0.094855	0.630614
C558	C	0.787439	0.344855	0.880614
C559	C	1.037439	0.594855	1.130614
C560	C	1.287439	0.844855	1.380614
H561	H	0.191890	0.063031	0.127336
H562	H	0.441890	0.313031	0.377336
H563	H	0.691890	0.563031	0.627336
H564	H	0.941890	0.813031	0.877336
O565	O	0.476327	-0.680705	0.000064
O566	O	0.726327	-0.430705	0.250064
O567	O	0.976327	-0.180705	0.500064
O568	O	1.226327	0.069295	0.750064
H569	H	0.455090	-0.687471	-0.033745
H570	H	0.705090	-0.437471	0.216255
H571	H	0.955090	-0.187471	0.466255
H572	H	1.205090	0.062529	0.716255
O573	O	0.665821	-0.090964	0.000062
O574	O	0.915821	0.159036	0.250062
O575	O	1.165821	0.409036	0.500062
O576	O	1.415821	0.659036	0.750062
H577	H	0.686860	-0.103561	0.033872
H578	H	0.936860	0.146439	0.283872
H579	H	1.186860	0.396439	0.533872
H580	H	1.436860	0.646439	0.783872
O581	O	0.501739	0.130568	0.872886
O582	O	0.751739	0.380568	1.122886
O583	O	1.001739	0.630568	1.372886
O584	O	1.251739	0.880568	1.622886
H585	H	0.507303	0.125013	0.913583
H586	H	0.757303	0.375013	1.163583
H587	H	1.007303	0.625013	1.413583
H588	H	1.257303	0.875013	1.663583
H589	H	0.423806	0.065382	-0.081992
H590	H	0.673806	0.315382	0.168008
H591	H	0.923806	0.565382	0.418008
H592	H	1.173806	0.815382	0.668008
H593	H	-0.191252	0.059111	0.082128
H594	H	0.058748	0.309111	0.332128
H595	H	0.308748	0.559111	0.582128
H596	H	0.558748	0.809111	0.832128
H597	H	0.477332	0.154924	0.374393
H598	H	0.727332	0.404924	0.624393
H599	H	0.977332	0.654924	0.874393
H600	H	1.227332	0.904924	1.124393
O601	O	0.468607	0.163665	0.632688
O602	O	0.718607	0.413665	0.882688
O603	O	0.968607	0.663665	1.132688
O604	O	1.218607	0.913665	1.382688
H605	H	0.488783	0.187014	0.656479
H606	H	0.738783	0.437014	0.906479
H607	H	0.988783	0.687014	1.156479
H608	H	1.238783	0.937014	1.406479
H609	H	0.477352	0.154921	0.531054
H610	H	0.727352	0.404921	0.781054
H611	H	0.977352	0.654921	1.031054
H612	H	1.227352	0.904921	1.281054
H613	H	0.646937	-0.802532	0.000077
H614	H	0.896937	-0.552532	0.250077
H615	H	1.146937	-0.302532	0.500077
H616	H	1.396937	-0.052532	0.750077
H617	H	0.663736	-0.031387	0.374347
H618	H	0.913736	0.218613	0.624347
H619	H	1.163736	0.468613	0.874347
H620	H	1.413736	0.718613	1.124347
H621	H	0.423795	0.065409	0.082102
H622	H	0.673795	0.315409	0.332102
H623	H	0.923795	0.565409	0.582102
H624	H	1.173795	0.815409	0.832102
H625	H	0.510478	0.121817	0.771257
H626	H	0.760478	0.371817	1.021257
H627	H	1.010478	0.621817	1.271257
H628	H	1.260478	0.871817	1.521257
O629	O	0.047315	0.061553	0.139296
O630	O	0.297315	0.311553	0.389296
O631	O	0.547315	0.561553	0.639296
O632	O	0.797315	0.811553	0.889296
H633	H	0.074843	0.028833	0.141467
H634	H	0.324843	0.278833	0.391467
H635	H	0.574843	0.528833	0.641467
H636	H	0.824843	0.778833	0.891467
O637	O	0.093777	0.062032	0.139291
O638	O	0.343777	0.312032	0.389291
O639	O	0.593777	0.562032	0.639291
O640	O	0.843777	0.812032	0.889291
H641	H	0.119780	0.062308	0.170730
H642	H	0.369780	0.312308	0.420730
H643	H	0.619780	0.562308	0.670730
H644	H	0.869780	0.812308	0.920730
O645	O	0.664760	-0.195743	0.000063
O646	O	0.914760	0.054257	0.250063
O647	O	1.164760	0.304257	0.500063
O648	O	1.414760	0.554257	0.750063
H649	H	0.666630	-0.219000	0.033874
H650	H	0.916630	0.031000	0.283874
H651	H	1.166630	0.281000	0.533874
H652	H	1.416630	0.531000	0.783874
H653	H	0.332346	0.064467	0.082110
H654	H	0.582346	0.314467	0.332110
H655	H	0.832346	0.564467	0.582110
H656	H	1.082346	0.814467	0.832110
H657	H	0.647868	-0.711065	0.000077
H658	H	0.897868	-0.461065	0.250077
H659	H	1.147868	-0.211065	0.500077
H660	H	1.397868	0.038935	0.750077
H661	H	0.446788	-0.391196	0.000046
H662	H	0.696788	-0.141196	0.250046
H663	H	0.946788	0.108804	0.500046
H664	H	1.196788	0.358804	0.750046
O665	O	0.706017	-0.480212	0.000041
O666	O	0.956017	-0.230212	0.250041
O667	O	1.206017	0.019788	0.500041
O668	O	1.456017	0.269788	0.750041
H669	H	0.736399	-0.510451	0.000033
H670	H	0.986399	-0.260451	0.250033
H671	H	1.236399	-0.010451	0.500033
H672	H	1.486399	0.239549	0.750033
O673	O	0.475271	-0.785488	0.000069
O674	O	0.725271	-0.535488	0.250069
O675	O	0.975271	-0.285488	0.500069
O676	O	1.225271	-0.035488	0.750069
H677	H	0.454238	-0.772902	-0.033748
H678	H	0.704238	-0.522902	0.216252
H679	H	0.954238	-0.272902	0.466252
H680	H	1.204238	-0.022902	0.716252
H681	H	0.191910	0.062977	-0.127206
H682	H	0.441910	0.312977	0.122794
H683	H	0.691910	0.562977	0.372794
H684	H	0.941910	0.812977	0.622794
O685	O	0.436135	-0.291466	0.000039
O686	O	0.686135	-0.041466	0.250039
O687	O	0.936135	0.208534	0.500039
O688	O	1.186135	0.458534	0.750039
H689	H	0.443945	-0.253200	0.000033
H690	H	0.693945	-0.003200	0.250033
H691	H	0.943945	0.246800	0.500033
H692	H	1.193945	0.496800	0.750033
O693	O	0.704950	-0.584996	0.000056
O694	O	0.954950	-0.334996	0.250056
O695	O	1.204950	-0.084996	0.500056
O696	O	1.454950	0.165004	0.750056
H697	H	0.735863	-0.563229	0.000061
H698	H	0.985863	-0.313229	0.250061
H699	H	1.235863	-0.063229	0.500061
H700	H	1.485863	0.186771	0.750061
H701	H	0.494152	-0.073910	0.000055
H702	H	0.744152	0.176090	0.250055
H703	H	0.994152	0.426090	0.500055
H704	H	1.244152	0.676090	0.750055
H705	H	-0.282717	0.058172	0.082126
H706	H	-0.032717	0.308172	0.332126
H707	H	0.217283	0.558172	0.582126
H708	H	0.467283	0.808172	0.832126
O709	O	0.433536	-0.547485	0.000052
O710	O	0.683536	-0.297485	0.250052
O711	O	0.933536	-0.047485	0.500052
O712	O	1.183536	0.202515	0.750052
H713	H	0.431197	-0.570170	-0.033759
H714	H	0.681197	-0.320170	0.216241
H715	H	0.931197	-0.070170	0.466241
H716	H	1.181197	0.179830	0.716241
H717	H	0.477339	0.154925	0.469119
H718	H	0.727339	0.404925	0.719119
H719	H	0.977339	0.654925	0.969119
H720	H	1.227339	0.904925	1.219119
O721	O	0.672498	-0.040136	0.475971
O722	O	0.922498	0.209864	0.725971
O723	O	1.172498	0.459864	0.975971
O724	O	1.422498	0.709864	1.225971
H725	H	0.695524	-0.063144	0.449029
H726	H	0.945524	0.186856	0.699029
H727	H	1.195524	0.436856	0.949029
H728	H	1.445524	0.686856	1.199029
H729	H	0.510454	0.121850	0.228921
H730	H	0.760454	0.371850	0.478921
H731	H	1.010454	0.621850	0.728921
H732	H	1.260454	0.871850	0.978921
O733	O	0.707543	-0.328964	0.000050
O734	O	0.957543	-0.078964	0.250050
O735	O	1.207543	0.171036	0.500050
O736	O	1.457543	0.421036	0.750050
H737	H	0.737928	-0.359201	0.000045
H738	H	0.987928	-0.109201	0.250045
H739	H	1.237928	0.140799	0.500045
H740	H	1.487928	0.390799	0.750045
H741	H	0.630647	0.001700	0.771218
H742	H	0.880647	0.251700	1.021218
H743	H	1.130647	0.501700	1.271218
H744	H	1.380647	0.751700	1.521218
O745	O	0.706480	-0.433745	0.000070
O746	O	0.956480	-0.183745	0.250070
O747	O	1.206480	0.066255	0.500070
O748	O	1.456480	0.316255	0.750070
H749	H	0.737391	-0.411976	0.000078
H750	H	0.987391	-0.161976	0.250078
H751	H	1.237391	0.088024	0.500078
H752	H	1.487391	0.338024	0.750078
H753	H	-0.191251	0.059079	-0.081974
H754	H	0.058749	0.309079	0.168026
H755	H	0.308749	0.559079	0.418026
H756	H	0.558749	0.809079	0.668026
H757	H	0.630612	0.001736	0.134149
H758	H	0.880612	0.251736	0.384149
H759	H	1.130612	0.501736	0.634149
H760	H	1.380612	0.751736	0.884149
O761	O	0.639372	-0.007027	0.235772
O762	O	0.889372	0.242973	0.485772
O763	O	1.139372	0.492973	0.735772
O764	O	1.389372	0.742973	0.985772
H765	H	0.619209	-0.030388	0.259557
H766	H	0.869209	0.219612	0.509557
H767	H	1.119209	0.469612	0.759557
H768	H	1.369209	0.719612	1.009557
H769	H	0.332339	0.064449	-0.081993
H770	H	0.582339	0.314449	0.168007
H771	H	0.832339	0.564449	0.418007
H772	H	1.082339	0.814449	0.668007
H773	H	0.630647	0.001697	0.865958
H774	H	0.880647	0.251697	1.115958
H775	H	1.130647	0.501697	1.365958
H776	H	1.380647	0.751697	1.615958
H777	H	0.446182	-0.450984	0.000047
H778	H	0.696182	-0.200984	0.250047
H779	H	0.946182	0.049016	0.500047
H780	H	1.196182	0.299016	0.750047
O781	O	0.501683	0.130590	0.127286
O782	O	0.751683	0.380590	0.377286
O783	O	1.001683	0.630590	0.627286
O784	O	1.251683	0.880590	0.877286
H785	H	0.507242	0.125020	0.086588
H786	H	0.757242	0.375020	0.336588
H787	H	1.007242	0.625020	0.586588
H788	H	1.257242	0.875020	0.836588
H789	H	0.663741	-0.031398	0.530997
H790	H	0.913741	0.218602	0.780997
H791	H	1.163741	0.468602	1.030997
H792	H	1.413741	0.718602	1.280997
O793	O	0.672493	-0.040155	0.632628
O794	O	0.922493	0.209845	0.882628
O795	O	1.172493	0.459845	1.132628
O796	O	1.422493	0.709845	1.382628
H797	H	0.666924	-0.034594	0.673326
H798	H	0.916924	0.215406	0.923326
H799	H	1.166924	0.465406	1.173326
H800	H	1.416924	0.715406	1.423326
O801	O	-0.289364	0.058084	-0.093922
O802	O	-0.039364	0.308084	0.156078
O803	O	0.210636	0.558084	0.406078
O804	O	0.460636	0.808084	0.656078
H805	H	-0.328657	0.057689	-0.086330
H806	H	-0.078657	0.307689	0.163670
H807	H	0.171343	0.557689	0.413670
H808	H	0.421343	0.807689	0.663670
O809	O	0.093798	0.061949	-0.139158
O810	O	0.343798	0.311949	0.110842
O811	O	0.593798	0.561949	0.360842
O812	O	0.843798	0.811949	0.610842
H813	H	0.119805	0.062195	-0.170599
H814	H	0.369805	0.312195	0.079401
H815	H	0.619805	0.562195	0.329401
H816	H	0.869805	0.812195	0.579401
H817	H	-0.050805	0.060542	0.127339
H818	H	0.199195	0.310542	0.377339
H819	H	0.449195	0.560542	0.627339
H820	H	0.699195	0.810542	0.877339
O821	O	0.481503	-0.170432	0.000052
O822	O	0.731503	0.079568	0.250052
O823	O	0.981503	0.329568	0.500052
O824	O	1.231503	0.579568	0.750052
H825	H	0.451118	-0.140196	0.000048
H826	H	0.701118	0.109804	0.250048
H827	H	0.951118	0.359804	0.500048
H828	H	1.201118	0.609804	0.750048
H829	H	-0.050786	0.060505	-0.127195
H830	H	0.199214	0.310505	0.122805
H831	H	0.449214	0.560505	0.372805
H832	H	0.699214	0.810505	0.622805
H833	H	0.040661	0.061439	-0.127197
H834	H	0.290661	0.311439	0.122803
H835	H	0.540661	0.561439	0.372803
H836	H	0.790661	0.811439	0.622803
