data_functionalizedCrystal
_audit_creation_method	'MofGen! by Chris Wilmer'
_symmetry_space_group_name_H-M	'P1'
_symmetry_Int_Tables_number	1
_symmetry_cell_setting	triclinic
loop_
_symmetry_equiv_pos_as_xyz
  x,y,z
_cell_length_a	14.908979
_cell_length_b	14.908178
_cell_length_c	19.076919
_cell_angle_alpha	91.159747
_cell_angle_beta	84.563697
_cell_angle_gamma	96.795332
loop_
_atom_site_label
_atom_site_type_symbol
_atom_site_fract_x
_atom_site_fract_y
_atom_site_fract_z
Zn1	Zn	1.345286	-0.298183	0.324028
Zn2	Zn	1.343246	-0.442785	0.199913
Zn3	Zn	1.200007	-0.300869	0.212759
Zn4	Zn	1.185168	-0.458258	0.323979
O5	O	1.268427	-0.375024	0.265170
O6	O	1.471971	-0.309765	0.302208
O7	O	1.329602	-0.418609	0.103128
O8	O	1.226342	-0.174129	0.232915
O9	O	1.470473	-0.416004	0.211021
O10	O	1.333078	-0.172155	0.314665
O11	O	1.224364	-0.314344	0.112566
O12	O	1.071082	-0.329347	0.232868
O13	O	1.201051	-0.442374	0.422474
O14	O	1.060180	-0.444980	0.314581
O15	O	1.318689	-0.324768	0.422511
O16	O	1.315213	-0.571222	0.210974
O17	O	1.199074	-0.582590	0.302125
C18	C	1.032712	-0.389135	0.275113
C19	C	0.931871	-0.395194	0.279383
C20	C	0.784086	-0.464022	0.327860
C21	C	0.878836	-0.458329	0.323854
C22	C	0.890150	-0.337749	0.238913
C23	C	0.795401	-0.343442	0.242919
C24	C	0.742372	-0.406579	0.287395
C25	C	0.647621	-0.412267	0.291404
C26	C	0.658937	-0.291692	0.206459
C27	C	0.753687	-0.286000	0.202453
C28	C	1.255336	-0.609676	0.255164
C29	C	1.249817	-0.710057	0.250904
C30	C	1.350498	-0.896489	0.328124
C31	C	1.345316	-0.990806	0.324123
C32	C	1.234266	-0.993010	0.238906
C33	C	1.239448	-0.898693	0.242907
C34	C	1.297567	-0.850436	0.287516
C35	C	1.302754	-0.756116	0.291513
C36	C	1.191700	-0.758323	0.206300
C37	C	1.186518	-0.852640	0.202299
C38	C	1.505061	-0.360859	0.255187
C39	C	1.605901	-0.354822	0.250934
C40	C	1.258442	-0.384997	0.448744
C41	C	1.254188	-0.389247	0.526972
C42	C	1.281592	-0.139455	0.275229
C43	C	1.287203	-0.039070	0.279515
C44	C	1.278428	-0.365021	0.082310
C45	C	1.282872	-0.360506	0.004086
C46	C	1.313434	-0.330015	0.563744
C47	C	1.309425	-0.334006	0.637248
C48	C	1.246174	-0.397234	0.673979
C49	C	1.186922	-0.456468	0.637202
C50	C	1.190927	-0.452473	0.563700
C51	C	1.227625	-0.415745	0.893807
C52	C	1.223626	-0.419738	0.967314
C53	C	1.346129	-0.297274	0.967355
C54	C	1.350131	-0.293288	0.893851
C55	C	1.290876	-0.352519	0.857081
N56	N	1.242077	-0.401316	0.749112
N57	N	1.294970	-0.348432	0.781949
H58	H	0.912795	-0.505105	0.356805
N59	N	1.155373	-0.487923	1.006919
H60	H	1.113729	-0.455377	1.040749
H61	H	1.188281	-0.529229	1.034037
H62	H	0.933342	-0.286353	0.202698
H63	H	1.397827	-0.857196	0.364442
N64	N	1.118707	-0.524669	0.676817
H65	H	1.081782	-0.561586	0.642367
H66	H	1.077116	-0.492080	0.710655
H67	H	1.388413	-1.028299	0.357194
H68	H	1.142674	-0.500697	0.533762
H69	H	1.364942	-0.278531	0.533842
N70	N	1.163689	-0.479600	0.854155
H71	H	1.123007	-0.520251	0.888580
H72	H	1.199909	-0.517541	0.820303
H73	H	0.796875	-0.234598	0.166241
H74	H	0.624964	-0.244915	0.173512
N75	N	1.373309	-0.270104	0.676911
H76	H	1.413984	-0.229442	0.642489
H77	H	1.411580	-0.305996	0.704079
H78	H	1.394370	-0.249050	0.997301
H79	H	1.139197	-0.891944	0.165981
H80	H	1.148603	-0.720815	0.173232
H81	H	0.604446	-0.463673	0.327621
N82	N	0.726887	-0.532118	0.375825
H83	H	0.660534	-0.527009	0.372221
H84	H	0.741498	-0.519895	0.426003
N85	N	1.418355	-0.225095	0.854235
H86	H	1.455280	-0.188176	0.888684
H87	H	1.385424	-0.183852	0.827077
N88	N	1.171592	-1.045069	0.190792
H89	H	1.125813	-1.088299	0.219478
H90	H	1.208198	-1.080147	0.155000
N91	N	1.365438	-0.704063	0.339623
H92	H	1.398180	-0.747554	0.364742
H93	H	1.328850	-0.668929	0.375386
