data_functionalizedCrystal
_audit_creation_method	'MofGen! by Chris Wilmer'
_symmetry_space_group_name_H-M	'P1'
_symmetry_Int_Tables_number	1
_symmetry_cell_setting	triclinic
loop_
_symmetry_equiv_pos_as_xyz
  x,y,z
_cell_length_a	16.959455
_cell_length_b	11.169416
_cell_length_c	11.169409
_cell_angle_alpha	90.030874
_cell_angle_beta	90.028099
_cell_angle_gamma	90.007361
loop_
_atom_site_label
_atom_site_type_symbol
_atom_site_fract_x
_atom_site_fract_y
_atom_site_fract_z
Zn1	Zn	1.208498	-0.477805	0.678820
Zn2	Zn	1.708498	0.022195	1.178820
Zn3	Zn	1.208425	-0.678546	0.478142
Zn4	Zn	1.708425	-0.178546	0.978142
Zn5	Zn	1.076308	-0.477865	0.478125
Zn6	Zn	1.576308	0.022135	0.978125
Zn7	Zn	1.076313	-0.678435	0.678758
Zn8	Zn	1.576313	-0.178435	1.178758
O9	O	1.142386	-0.578163	0.578461
O10	O	1.642386	-0.078163	1.078461
O11	O	1.319099	-0.504455	0.652232
O12	O	1.819099	-0.004455	1.152232
O13	O	1.190867	-0.651996	0.310190
O14	O	1.690867	-0.151996	0.810190
O15	O	1.093872	-0.309907	0.504767
O16	O	1.593872	0.190093	1.004767
O17	O	1.319045	-0.651939	0.504795
O18	O	1.819045	-0.151939	1.004795
O19	O	1.190991	-0.309863	0.652216
O20	O	1.690991	0.190137	1.152216
O21	O	1.093801	-0.504557	0.310178
O22	O	1.593801	-0.004557	0.810178
O23	O	0.965698	-0.504449	0.504707
O24	O	1.465698	-0.004449	1.004707
O25	O	1.093880	-0.651749	0.846716
O26	O	1.593880	-0.151749	1.346716
O27	O	0.965702	-0.651807	0.652111
O28	O	1.465702	-0.151807	1.152111
O29	O	1.190996	-0.504348	0.846761
O30	O	1.690996	-0.004348	1.346761
O31	O	1.190871	-0.846481	0.504735
O32	O	1.690871	-0.346481	1.004735
O33	O	1.093810	-0.846399	0.652127
O34	O	1.593810	-0.346399	1.152127
C35	C	1.142355	-0.889987	0.578452
C36	C	1.642355	-0.389987	1.078452
C37	C	1.142414	-1.023387	0.578488
C38	C	1.642414	-0.523387	1.078488
C39	C	0.937020	-0.578123	0.578401
C40	C	1.437020	-0.078123	1.078401
C41	C	0.849163	-0.578136	0.578403
C42	C	1.349163	-0.078136	1.078403
C43	C	0.477649	-0.654881	0.501651
C44	C	0.977649	-0.154881	1.001651
C45	C	0.477726	-0.501544	0.655417
C46	C	0.977726	-0.001544	1.155417
C47	C	0.560272	-0.501524	0.655388
C48	C	1.060272	-0.001524	1.155388
C49	C	0.601510	-0.578185	0.578491
C50	C	1.101510	-0.078185	1.078491
C51	C	0.560202	-0.654866	0.501622
C52	C	1.060202	-0.154866	1.001622
C53	C	0.601586	-0.424853	0.732263
C54	C	1.101586	0.075147	1.232263
C55	C	0.684137	-0.424831	0.732238
C56	C	1.184137	0.075169	1.232238
C57	C	0.725376	-0.501487	0.655334
C58	C	1.225376	-0.001487	1.155334
C59	C	0.684064	-0.578170	0.578462
C60	C	1.184064	-0.078170	1.078462
C61	C	0.725302	-0.654831	0.501564
C62	C	1.225302	-0.154831	1.001564
C63	C	0.683991	-0.731509	0.424685
C64	C	1.183991	-0.231509	0.924685
C65	C	0.601442	-0.731522	0.424718
C66	C	1.101442	-0.231522	0.924718
C67	C	0.807925	-0.501474	0.655301
C68	C	1.307925	-0.001474	1.155301
C69	C	0.807855	-0.654817	0.501535
C70	C	1.307855	-0.154817	1.001535
C71	C	1.348554	-0.578203	0.578523
C72	C	1.848554	-0.078203	1.078523
C73	C	1.436411	-0.578220	0.578549
C74	C	1.936411	-0.078220	1.078549
C75	C	1.142447	-0.578029	0.891504
C76	C	1.642447	-0.078029	1.391504
C77	C	1.142472	-0.577973	1.024904
C78	C	1.642472	-0.077973	1.524904
C79	C	1.142439	-0.265120	0.578497
C80	C	1.642439	0.234880	1.078497
C81	C	1.142461	-0.131720	0.578512
C82	C	1.642461	0.368280	1.078512
C83	C	1.142371	-0.578209	0.266636
C84	C	1.642371	-0.078209	0.766636
C85	C	1.142498	-0.577927	0.133237
C86	C	1.642498	-0.077927	0.633237
H87	H	0.841426	-0.717240	0.438911
H88	H	1.341426	-0.217240	0.938911
F89	F	0.727889	-0.813102	0.342855
F90	F	1.227889	-0.313102	0.842855
H91	H	0.444145	-0.439137	0.718030
H92	H	0.944145	0.060863	1.218030
F93	F	0.557693	-0.343285	0.814110
F94	F	1.057693	0.156715	1.314110
F95	F	0.557471	-0.813123	0.342907
F96	F	1.057471	-0.313123	0.842907
H97	H	0.444010	-0.717307	0.439055
H98	H	0.944010	-0.217307	0.939055
H99	H	0.717765	-0.362395	0.794837
H100	H	1.217765	0.137605	1.294837
F101	F	0.851888	-0.419880	0.737120
F102	F	1.351888	0.080120	1.237120
