data_functionalizedCrystal
_audit_creation_method	'MofGen! by Chris Wilmer'
_symmetry_space_group_name_H-M	'P1'
_symmetry_Int_Tables_number	1
_symmetry_cell_setting	triclinic
loop_
_symmetry_equiv_pos_as_xyz
  x,y,z
_cell_length_a	16.109302
_cell_length_b	10.967829
_cell_length_c	15.186229
_cell_angle_alpha	77.868373
_cell_angle_beta	89.994701
_cell_angle_gamma	84.099565
loop_
_atom_site_label
_atom_site_type_symbol
_atom_site_fract_x
_atom_site_fract_y
_atom_site_fract_z
O1	O	1.104075	0.160397	-0.097606
O2	O	0.862131	0.180356	-0.100628
O3	O	0.988683	-0.011276	-0.071548
O4	O	0.977523	0.352029	-0.126685
O5	O	0.988674	-0.011278	0.074910
O6	O	0.862122	0.180354	0.045830
O7	O	1.104067	0.160394	0.048852
Zn8	Zn	0.983093	0.170374	0.070594
Zn9	Zn	0.983104	0.170377	-0.122370
O10	O	0.977515	0.352026	0.019772
C11	C	0.831147	0.179546	-0.027275
C12	C	0.738837	0.177122	-0.026905
C13	C	0.526459	0.171515	0.053772
C14	C	0.439725	0.169223	0.054116
C15	C	0.439745	0.169232	-0.105561
C16	C	0.526478	0.171515	-0.105903
C17	C	0.569832	0.172662	-0.026235
C18	C	0.396366	0.168088	-0.025548
C19	C	0.302325	0.165604	-0.025175
C20	C	0.663878	0.175144	-0.026608
C21	C	0.987866	-0.057766	0.008734
C22	C	0.985434	-0.196290	0.029752
C23	C	0.984355	-0.258041	-0.036748
C24	C	0.981842	-0.401212	-0.015026
C25	C	1.135051	0.161204	-0.024503
C26	C	1.227360	0.163629	-0.024879
C27	C	0.978332	0.398517	-0.060512
C28	C	0.980763	0.537041	-0.081536
N29	N	0.983092	0.170370	0.202287
N30	N	0.983113	0.170370	-0.254062
C31	C	1.039148	0.085544	0.440882
C32	C	1.039151	0.085541	0.533072
C33	C	0.927050	0.255201	0.507336
C34	C	0.927044	0.255197	0.415149
C35	C	0.983098	0.170370	0.381924
C36	C	0.983106	0.170371	0.566302
C37	C	0.983109	0.170368	0.666258
C38	C	0.983095	0.170370	0.281961
H39	H	0.561755	0.172449	0.118642
H40	H	0.980901	-0.454333	0.057992
Br41	Br	1.115219	-0.029580	0.395795
Br42	Br	0.850982	0.370321	0.552430
H43	H	0.981689	-0.409837	-0.154555
H44	H	0.561793	0.172446	-0.171058
H45	H	0.984493	-0.249416	0.102766
Br46	Br	0.850964	0.370315	0.335127
H47	H	1.084791	0.016467	0.581075
H48	H	0.404415	0.168289	0.119266
Br49	Br	0.380905	0.167638	-0.213671
Br50	Br	0.985934	-0.169509	-0.158447
