data_functionalizedCrystal
_audit_creation_method	'MofGen! by Chris Wilmer'
_symmetry_space_group_name_H-M	'P1'
_symmetry_Int_Tables_number	1
_symmetry_cell_setting	triclinic
loop_
_symmetry_equiv_pos_as_xyz
  x,y,z
_cell_length_a	6.817900
_cell_length_b	16.015202
_cell_length_c	16.015572
_cell_angle_alpha	60.347627
_cell_angle_beta	104.485554
_cell_angle_gamma	104.489019
loop_
_atom_site_label
_atom_site_type_symbol
_atom_site_fract_x
_atom_site_fract_y
_atom_site_fract_z
V1	V	-3.988171	-0.038675	-0.257231
V2	V	-3.488171	0.461325	0.242769
O3	O	-3.988553	0.098577	-0.295264
O4	O	-3.488553	0.598577	0.204736
O5	O	-3.928282	-0.169707	-0.214184
O6	O	-3.428282	0.330293	0.285816
O7	O	-3.928264	0.004358	-0.388255
O8	O	-3.428264	0.504358	0.111745
O9	O	-3.988571	-0.076693	-0.119988
O10	O	-3.488571	0.423307	0.380012
V11	V	-4.474779	-0.027273	-0.245831
V12	V	-3.974779	0.472727	0.254169
O13	O	-4.242663	-0.063688	-0.282237
O14	O	-3.742663	0.436312	0.217763
O15	O	-4.670485	-0.002260	-0.220825
O16	O	-4.170485	0.497740	0.279175
O17	O	-4.311462	0.103759	-0.288878
O18	O	-3.811462	0.603759	0.211122
O19	O	-4.591794	-0.164525	-0.207799
O20	O	-4.091794	0.335475	0.292201
O21	O	-4.591776	0.010745	-0.383075
O22	O	-4.091776	0.510745	0.116925
O23	O	-4.311480	-0.070306	-0.114807
O24	O	-3.811480	0.429694	0.385193
C25	C	-3.770861	-0.202975	-0.199472
C26	C	-3.270861	0.297025	0.300528
C27	C	-3.803104	-0.309822	-0.165150
C28	C	-3.303104	0.190178	0.334850
C29	C	-4.064930	-0.591624	-0.469790
C30	C	-3.564930	-0.091624	0.030210
C31	C	-4.095227	-0.692026	-0.437524
C32	C	-3.595227	-0.192026	0.062476
C33	C	-4.032914	-0.719852	-0.270531
C34	C	-3.532914	-0.219852	0.229469
C35	C	-4.002620	-0.619451	-0.302783
C36	C	-3.502620	-0.119451	0.197217
C37	C	-4.018629	-0.555345	-0.402414
C38	C	-3.518629	-0.055345	0.097586
C39	C	-3.956319	-0.583172	-0.235407
C40	C	-3.456319	-0.083172	0.264593
C41	C	-3.926017	-0.482780	-0.267657
C42	C	-3.426017	0.017220	0.232343
C43	C	-3.942016	-0.418667	-0.367283
C44	C	-3.442016	0.081333	0.132717
C45	C	-3.988327	-0.454952	-0.434664
C46	C	-3.488327	0.045048	0.065336
C47	C	-3.940296	-0.647280	-0.135776
C48	C	-3.440296	-0.147280	0.364224
C49	C	-3.893996	-0.611000	-0.068400
C50	C	-3.393996	-0.111000	0.431600
C51	C	-3.863708	-0.510607	-0.100650
C52	C	-3.363708	-0.010607	0.399350
C53	C	-3.879706	-0.446494	-0.200276
C54	C	-3.379706	0.053506	0.299724
C55	C	-3.817397	-0.474321	-0.033269
C56	C	-3.317397	0.025679	0.466731
C57	C	-3.787095	-0.373929	-0.065519
C58	C	-3.287095	0.126071	0.434481
C59	C	-3.849405	-0.346102	-0.232526
C60	C	-3.349405	0.153898	0.267474
C61	C	-3.770837	0.019062	-0.421516
C62	C	-3.270837	0.519062	0.078484
C63	C	-3.803064	0.053380	-0.528358
C64	C	-3.303064	0.553380	-0.028358
C65	C	-4.064990	-0.251222	-0.810205
C66	C	-3.564990	0.248778	-0.310205
C67	C	-4.095279	-0.218944	-0.910605
C68	C	-3.595279	0.281056	-0.410605
C69	C	-4.032934	-0.051950	-0.938411
C70	C	-3.532934	0.448050	-0.438411
C71	C	-4.002628	-0.084214	-0.838012
C72	C	-3.502628	0.415786	-0.338012
C73	C	-4.018663	-0.183851	-0.773916
C74	C	-3.518663	0.316149	-0.273916
C75	C	-3.956301	-0.016843	-0.801723
C76	C	-3.456301	0.483157	-0.301723
C77	C	-3.926009	-0.049105	-0.701332
C78	C	-3.426009	0.450895	-0.201332
C79	C	-3.942045	-0.148737	-0.637231
C80	C	-3.442045	0.351263	-0.137231
C81	C	-3.988371	-0.216112	-0.673526
C82	C	-3.488371	0.283888	-0.173526
C83	C	-3.940282	0.082793	-0.865820
C84	C	-3.440282	0.582793	-0.365820
C85	C	-3.893954	0.150164	-0.829531
C86	C	-3.393954	0.650164	-0.329531
C87	C	-3.863647	0.117903	-0.729139
C88	C	-3.363647	0.617903	-0.229139
C89	C	-3.879683	0.018271	-0.665037
C90	C	-3.379683	0.518271	-0.165037
C91	C	-3.817321	0.185278	-0.692844
C92	C	-3.317321	0.685278	-0.192844
C93	C	-3.787030	0.153017	-0.592454
C94	C	-3.287030	0.653017	-0.092454
C95	C	-3.849391	-0.013991	-0.564647
C96	C	-3.349391	0.486009	-0.064647
C97	C	-4.132225	0.137022	-0.303586
C98	C	-3.632225	0.637022	0.196414
C99	C	-4.079219	0.243869	-0.337914
C100	C	-3.579219	0.743869	0.162086
C101	C	-4.132249	-0.085015	-0.081540
C102	C	-3.632249	0.414985	0.418460
C103	C	-4.079261	-0.119328	0.025301
C104	C	-3.579261	0.380672	0.525301
H105	H	-3.804349	-0.526531	0.047851
H106	H	-3.304349	-0.026531	0.547851
F107	F	-3.866475	-0.277869	-0.338566
F108	F	-3.366475	0.222131	0.161434
F109	F	-4.015876	0.054087	-1.006635
F110	F	-3.515876	0.554087	-0.506635
F111	F	-3.737809	-0.335315	0.006190
F112	F	-3.237809	0.164685	0.506190
H113	H	-3.964918	0.109058	-0.947563
H114	H	-3.464918	0.609058	-0.447563
F115	F	-4.082000	-0.523392	-0.575830
F116	F	-3.582000	-0.023392	-0.075830
H117	H	-3.964956	-0.729025	-0.109521
H118	H	-3.464956	-0.229025	0.390479
F119	F	-4.144601	-0.730634	-0.509245
F120	F	-3.644601	-0.230634	-0.009245
F121	F	-4.005396	-0.322157	-0.605304
F122	F	-3.505396	0.177843	-0.105304
H123	H	-3.917384	-0.175003	-0.555487
H124	H	-3.417384	0.324997	-0.055487
F125	F	-3.866417	-0.120036	-0.496425
F126	F	-3.366417	0.379964	0.003575
H127	H	-3.880960	-0.663209	0.012720
H128	H	-3.380960	-0.163209	0.512720
F129	F	-4.015876	-0.788088	-0.164500
F130	F	-3.515876	-0.288088	0.335500
F131	F	-4.082016	-0.357266	-0.741983
F132	F	-3.582016	0.142734	-0.241983
H133	H	-4.001417	-0.402753	-0.515794
H134	H	-3.501417	0.097247	-0.015794
F135	F	-4.144593	-0.290658	-0.949221
F136	F	-3.644593	0.209342	-0.449221
F137	F	-3.876897	0.256202	-0.897756
F138	F	-3.376897	0.756202	-0.397756
H139	H	-3.804292	0.266402	-0.745045
H140	H	-3.304292	0.766402	-0.245045
F141	F	-3.737791	0.224719	-0.553831
F142	F	-3.237791	0.724719	-0.053831
H143	H	-3.917302	-0.336921	-0.393539
H144	H	-3.417302	0.163079	0.106461
