data_functionalizedCrystal
_audit_creation_method	'MofGen! by Chris Wilmer'
_symmetry_space_group_name_H-M	'P1'
_symmetry_Int_Tables_number	1
_symmetry_cell_setting	triclinic
loop_
_symmetry_equiv_pos_as_xyz
  x,y,z
_cell_length_a	15.995350
_cell_length_b	8.559649
_cell_length_c	7.088929
_cell_angle_alpha	84.674985
_cell_angle_beta	83.778427
_cell_angle_gamma	103.364480
loop_
_atom_site_label
_atom_site_type_symbol
_atom_site_fract_x
_atom_site_fract_y
_atom_site_fract_z
O1	O	-0.018745	-2.103728	-0.158958
O2	O	0.024497	-1.638524	-0.158965
O3	O	-0.119829	-1.883843	-0.158960
O4	O	0.125582	-1.858409	-0.158964
O5	O	-0.139156	-1.916627	0.159016
O6	O	0.005171	-1.671308	0.159011
O7	O	-0.038072	-2.136513	0.159018
Cu8	Cu	-0.018215	-1.906904	0.188048
Cu9	Cu	0.004641	-1.868132	-0.187995
O10	O	0.106255	-1.891194	0.159012
C11	C	0.018111	-1.595386	0.000022
C12	C	0.027866	-1.418005	0.000019
C13	C	-0.160619	-1.899183	0.000025
C14	C	-0.253367	-1.896030	0.000014
C15	C	-0.031685	-2.179650	0.000027
C16	C	-0.041439	-2.357029	0.000017
C17	C	-0.590386	-1.884710	0.000020
C18	C	-0.531674	-1.709925	-0.000696
C19	C	-0.435230	-1.713152	0.000021
C20	C	-0.423187	-1.890325	0.000016
C21	C	-0.480842	-1.995220	0.181594
C22	C	-0.577205	-1.990847	0.181746
C23	C	-0.555817	-1.957174	-0.179852
C24	C	-0.458723	-1.956885	-0.182252
C25	C	-0.328694	-1.893508	0.000020
C26	C	-0.684880	-1.881533	0.000029
C27	C	0.147046	-1.875853	0.000024
C28	C	0.239793	-1.879005	0.000022
N29	N	-0.034292	-1.934185	0.452537
N30	N	0.020710	-1.840864	-0.452484
H31	H	-0.537801	-1.626669	-0.130908
H32	H	-0.108235	-1.440525	0.000009
N33	N	0.092224	-1.719526	0.445133
N34	N	0.168111	-1.724191	0.467344
H35	H	0.218620	-1.638494	0.395028
N36	N	-0.404711	-1.644511	0.163606
N37	N	-0.376793	-1.727325	0.285299
H38	H	-0.355239	-1.678849	0.400842
N39	N	-0.105813	-2.055509	0.554951
N40	N	-0.181697	-2.050828	0.532738
H41	H	-0.232211	-2.136509	0.605066
H42	H	0.094668	-1.334498	0.000007
H43	H	-0.394541	-1.631993	-0.130141
H44	H	-0.554668	-1.653755	0.128790
H45	H	-0.599715	-1.942003	0.317481
H46	H	-0.618201	-2.119966	0.189981
H47	H	-0.475496	-2.126081	0.188343
H48	H	-0.564318	-1.885862	-0.317478
N49	N	-0.450720	-1.937584	0.351101
N50	N	-0.449280	-1.795575	0.381748
H51	H	-0.428007	-1.754857	0.501459
H52	H	-0.419258	-1.880031	-0.316578
H53	H	-0.595786	-2.085861	-0.181076
N54	N	-0.449017	-2.117537	-0.196019
N55	N	-0.415608	-2.185900	-0.071154
H56	H	-0.408750	-2.299365	-0.080868
