data_functionalizedCrystal
_audit_creation_method	'MofGen! by Chris Wilmer'
_symmetry_space_group_name_H-M	'P1'
_symmetry_Int_Tables_number	1
_symmetry_cell_setting	triclinic
loop_
_symmetry_equiv_pos_as_xyz
  x,y,z
_cell_length_a	19.188905
_cell_length_b	19.188930
_cell_length_c	16.776229
_cell_angle_alpha	89.988225
_cell_angle_beta	89.985731
_cell_angle_gamma	83.139668
loop_
_atom_site_label
_atom_site_type_symbol
_atom_site_fract_x
_atom_site_fract_y
_atom_site_fract_z
O1	O	0.926158	0.087086	-0.066428
O2	O	1.259492	0.420419	0.266905
O3	O	1.592825	0.753753	0.600238
O4	O	0.722845	0.098839	-0.066402
O5	O	1.056178	0.432172	0.266931
O6	O	1.389511	0.765505	0.600264
O7	O	0.830369	-0.008694	-0.066401
O8	O	1.163702	0.324639	0.266933
O9	O	1.497035	0.657973	0.600266
O10	O	0.818634	0.194618	-0.066430
O11	O	1.151968	0.527952	0.266903
O12	O	1.485301	0.861285	0.600236
O13	O	0.830355	-0.008700	0.066176
O14	O	1.163688	0.324633	0.399509
O15	O	1.497021	0.657966	0.732843
O16	O	0.722830	0.098832	0.066174
O17	O	1.056164	0.432165	0.399507
O18	O	1.389497	0.765499	0.732841
O19	O	0.926144	0.087079	0.066148
O20	O	1.259478	0.420413	0.399481
O21	O	1.592811	0.753746	0.732815
Zn22	Zn	0.824485	0.092955	0.087210
Zn23	Zn	1.157818	0.426288	0.420544
Zn24	Zn	1.491152	0.759621	0.753877
Zn25	Zn	0.824504	0.092963	-0.087465
Zn26	Zn	1.157837	0.426297	0.245869
Zn27	Zn	1.491170	0.759630	0.579202
O28	O	0.818620	0.194612	0.066146
O29	O	1.151953	0.527945	0.399480
O30	O	1.485287	0.861279	0.732813
C31	C	0.696826	0.098458	-0.000111
C32	C	1.030160	0.431791	0.333223
C33	C	1.363493	0.765124	0.666556
C34	C	0.619321	0.097324	-0.000100
C35	C	0.952654	0.430657	0.333233
C36	C	1.285987	0.763991	0.666567
C37	C	0.582937	0.096783	-0.072369
C38	C	0.916270	0.430116	0.260964
C39	C	1.249603	0.763450	0.594297
C40	C	0.510113	0.095710	-0.072379
C41	C	0.843446	0.429043	0.260954
C42	C	1.176780	0.762377	0.594287
C43	C	0.473678	0.095164	-0.000115
C44	C	0.807012	0.428497	0.333218
C45	C	1.140345	0.761830	0.666551
C46	C	0.510071	0.095709	0.072164
C47	C	0.843404	0.429042	0.405497
C48	C	1.176737	0.762376	0.738830
C49	C	0.582892	0.096789	0.072171
C50	C	0.916225	0.430122	0.405505
C51	C	1.249558	0.763456	0.738838
N52	N	0.364652	0.053733	0.053670
N53	N	0.697986	0.387066	0.387003
N54	N	1.031319	0.720399	0.720336
N55	N	0.295475	0.052705	0.053657
N56	N	0.628809	0.386038	0.386991
N57	N	0.962142	0.719372	0.720324
C58	C	0.254272	0.091911	-0.000134
C59	C	0.587605	0.425245	0.333199
C60	C	0.920938	0.758578	0.666533
N61	N	0.284859	0.132175	-0.053925
N62	N	0.618193	0.465508	0.279408
N63	N	0.951526	0.798842	0.612742
N64	N	0.354043	0.133199	-0.053915
N65	N	0.687377	0.466533	0.279418
N66	N	1.020710	0.799866	0.612751
C67	C	0.394716	0.093993	-0.000116
C68	C	0.728049	0.427326	0.333218
C69	C	1.061382	0.760660	0.666551
C70	C	0.138924	0.090208	-0.072419
C71	C	0.472257	0.423541	0.260914
C72	C	0.805590	0.756874	0.594247
C73	C	0.066098	0.089139	-0.072426
C74	C	0.399431	0.422472	0.260907
C75	C	0.732765	0.755806	0.594241
C76	C	0.066058	0.089131	0.072119
C77	C	0.399391	0.422464	0.405452
C78	C	0.732725	0.755798	0.738786
C79	C	0.138881	0.090207	0.072124
C80	C	0.472214	0.423540	0.405457
C81	C	0.805548	0.756873	0.738790
C82	C	0.175310	0.090742	-0.000148
C83	C	0.508643	0.424075	0.333186
C84	C	0.841977	0.757408	0.666519
C85	C	0.829982	-0.034708	-0.000110
C86	C	1.163315	0.298625	0.333223
C87	C	1.496648	0.631959	0.666557
C88	C	0.828841	-0.112213	-0.000103
C89	C	1.162174	0.221121	0.333230
C90	C	1.495508	0.554454	0.666564
C91	C	0.891933	-0.157142	-0.000107
C92	C	1.225266	0.176191	0.333226
C93	C	1.558599	0.509525	0.666559
C94	C	0.890861	-0.229966	-0.000120
C95	C	1.224194	0.103367	0.333213
C96	C	1.557528	0.436701	0.666547
C97	C	0.826694	-0.257857	-0.000112
C98	C	1.160027	0.075477	0.333221
C99	C	1.493361	0.408810	0.666554
C100	C	0.763594	-0.212917	-0.000112
C101	C	1.096927	0.120416	0.333221
C102	C	1.430261	0.453749	0.666554
C103	C	0.764668	-0.140095	-0.000108
C104	C	1.098001	0.193238	0.333225
C105	C	1.431334	0.526572	0.666559
N106	N	0.777641	-0.365859	0.045012
N107	N	1.110975	-0.032526	0.378346
N108	N	1.444308	0.300807	0.711679
N109	N	0.776626	-0.435038	0.045010
N110	N	1.109959	-0.101705	0.378343
N111	N	1.443292	0.231629	0.711676
C112	C	0.823456	-0.477265	-0.000128
C113	C	1.156789	-0.143932	0.333205
C114	C	1.490122	0.189402	0.666539
N115	N	0.871350	-0.447702	-0.045253
N116	N	1.204684	-0.114368	0.288081
N117	N	1.538017	0.218965	0.621414
N118	N	0.872368	-0.378517	-0.045246
N119	N	1.205701	-0.045184	0.288087
N120	N	1.539035	0.288150	0.621420
C121	C	0.825523	-0.336819	-0.000118
C122	C	1.158856	-0.003486	0.333216
C123	C	1.492190	0.329848	0.666549
C124	C	0.885390	-0.601159	-0.000147
C125	C	1.218723	-0.267826	0.333186
C126	C	1.552056	0.065508	0.666520
C127	C	0.884315	-0.673984	-0.000165
C128	C	1.217649	-0.340650	0.333169
C129	C	1.550982	-0.007317	0.666502
C130	C	0.757047	-0.656933	-0.000149
C131	C	1.090380	-0.323600	0.333184
C132	C	1.423714	0.009733	0.666517
C133	C	0.758123	-0.584110	-0.000140
C134	C	1.091456	-0.250777	0.333194
C135	C	1.424790	0.082556	0.666527
C136	C	0.822296	-0.556228	-0.000135
C137	C	1.155630	-0.222894	0.333199
C138	C	1.488963	0.110439	0.666532
C139	C	0.952163	0.087460	-0.000145
C140	C	1.285496	0.420794	0.333188
C141	C	1.618829	0.754127	0.666521
C142	C	1.029668	0.088594	-0.000161
C143	C	1.363001	0.421927	0.333172
C144	C	1.696335	0.755261	0.666505
C145	C	0.819007	0.220626	-0.000146
C146	C	1.152341	0.553959	0.333187
C147	C	1.485674	0.887293	0.666521
C148	C	0.820148	0.298131	-0.000158
C149	C	1.153481	0.631464	0.333175
C150	C	1.486815	0.964797	0.666508
N151	N	0.824477	0.092948	0.206422
N152	N	1.157811	0.426282	0.539755
N153	N	1.491144	0.759615	0.873088
N154	N	0.824517	0.092964	-0.206676
N155	N	1.157850	0.426297	0.126657
N156	N	1.491184	0.759631	0.459991
C157	C	0.872103	0.045352	0.248140
C158	C	1.205437	0.378686	0.581473
C159	C	1.538770	0.712019	0.914806
C160	C	0.872107	0.045352	0.331592
C161	C	1.205441	0.378685	0.664925
C162	C	1.538774	0.712018	0.998258
C163	C	0.824488	0.092951	0.373325
C164	C	1.157821	0.426284	0.706658
C165	C	1.491155	0.759618	1.039991
C166	C	0.776857	0.140549	0.331601
C167	C	1.110190	0.473883	0.664934
C168	C	1.443523	0.807216	0.998268
C169	C	0.776850	0.140546	0.248150
C170	C	1.110183	0.473879	0.581484
C171	C	1.443517	0.807213	0.914817
C172	C	0.776882	0.140563	0.668148
C173	C	1.110215	0.473896	1.001481
C174	C	1.443549	0.807230	1.334815
C175	C	0.776894	0.140564	0.751605
C176	C	1.110227	0.473897	1.084938
C177	C	1.443560	0.807231	1.418271
C178	C	0.872139	0.045369	0.751590
C179	C	1.205473	0.378702	1.084923
C180	C	1.538806	0.712035	1.418256
C181	C	0.872133	0.045366	0.668139
C182	C	1.205466	0.378699	1.001472
C183	C	1.538799	0.712032	1.334806
C184	C	0.824499	0.092961	0.626423
C185	C	1.157833	0.426294	0.959756
C186	C	1.491166	0.759628	1.293089
C187	C	0.824495	0.092960	0.535934
C188	C	1.157828	0.426293	0.869268
C189	C	1.491161	0.759627	1.202601
C190	C	0.824495	0.092956	0.463811
C191	C	1.157829	0.426289	0.797145
C192	C	1.491162	0.759622	1.130478
H193	H	0.168585	0.090651	-0.131267
H194	H	0.501918	0.423984	0.202067
H195	H	0.835251	0.757317	0.535400
H196	H	0.168506	0.090643	0.130973
H197	H	0.501839	0.423976	0.464307
H198	H	0.835173	0.757309	0.797640
H199	H	0.480483	0.095270	-0.131232
H200	H	0.813817	0.428604	0.202102
H201	H	1.147150	0.761937	0.535435
Br202	Br	0.936764	-0.019231	0.611504
Br203	Br	1.270098	0.314102	0.944837
Br204	Br	1.603431	0.647435	1.278171
H205	H	0.612593	0.097219	-0.131218
H206	H	0.945926	0.430552	0.202115
H207	H	1.279259	0.763885	0.535448
H208	H	0.706747	-0.547527	-0.000132
H209	H	1.040080	-0.214194	0.333202
H210	H	1.373413	0.119139	0.666535
H211	H	0.738067	0.179302	0.214184
H212	H	1.071401	0.512636	0.547518
H213	H	1.404734	0.845969	0.880851
H214	H	0.480400	0.095266	0.131001
H215	H	0.813734	0.428599	0.464335
H216	H	1.147067	0.761933	0.797668
H217	H	0.612515	0.097230	0.131024
H218	H	0.945849	0.430563	0.464357
H219	H	1.279182	0.763897	0.797690
H220	H	0.910884	0.006595	0.214166
H221	H	1.244217	0.339928	0.547500
H222	H	1.577550	0.673261	0.880833
H223	H	0.944187	-0.134445	-0.000106
H224	H	1.277521	0.198888	0.333227
H225	H	1.610854	0.532221	0.666561
Br226	Br	0.016717	0.088414	-0.170515
Br227	Br	0.350050	0.421747	0.162818
Br228	Br	0.683383	0.755080	0.496152
H229	H	0.036393	0.088691	0.130958
H230	H	0.369726	0.422024	0.464291
H231	H	0.703059	0.755357	0.797624
H232	H	0.910923	0.006612	0.785564
H233	H	1.244256	0.339945	1.118897
H234	H	1.577590	0.673278	1.452231
Br235	Br	0.976491	-0.290954	-0.000129
Br236	Br	1.309824	0.042380	0.333204
Br237	Br	1.643158	0.375713	0.666537
Br238	Br	0.676510	-0.250767	-0.000112
Br239	Br	1.009843	0.082567	0.333221
Br240	Br	1.343176	0.415900	0.666554
Br241	Br	0.679036	-0.079115	-0.000104
Br242	Br	1.012370	0.254219	0.333229
Br243	Br	1.345703	0.587552	0.666562
Br244	Br	0.972480	-0.563314	-0.000132
Br245	Br	1.305813	-0.229980	0.333201
Br246	Br	1.639146	0.103353	0.666534
Br247	Br	0.969948	-0.734962	-0.000179
Br248	Br	1.303281	-0.401629	0.333154
Br249	Br	1.636614	-0.068296	0.666488
Br250	Br	0.712264	0.205168	0.808242
Br251	Br	1.045597	0.538501	1.141576
Br252	Br	1.378930	0.871835	1.474909
H253	H	0.704801	-0.679641	-0.000147
H254	H	1.038134	-0.346308	0.333186
H255	H	1.371468	-0.012975	0.666520
H256	H	0.910888	0.006595	0.365558
H257	H	1.244221	0.339929	0.698891
H258	H	1.577554	0.673262	1.032225
H259	H	0.738099	0.179318	0.634189
H260	H	1.071432	0.512651	0.967522
H261	H	1.404765	0.845985	1.300856
H262	H	0.738081	0.179303	0.365585
H263	H	1.071414	0.512636	0.698918
H264	H	1.404747	0.845970	1.032251
