data_functionalizedCrystal
_audit_creation_method	'MofGen! by Chris Wilmer'
_symmetry_space_group_name_H-M	'P1'
_symmetry_Int_Tables_number	1
_symmetry_cell_setting	triclinic
loop_
_symmetry_equiv_pos_as_xyz
  x,y,z
_cell_length_a	21.395364
_cell_length_b	12.645330
_cell_length_c	21.395356
_cell_angle_alpha	89.978499
_cell_angle_beta	89.976411
_cell_angle_gamma	90.032643
loop_
_atom_site_label
_atom_site_type_symbol
_atom_site_fract_x
_atom_site_fract_y
_atom_site_fract_z
Zn1	Zn	0.957910	-0.421643	-0.354288
Zn2	Zn	1.457910	0.078357	0.145712
Zn3	Zn	0.957838	-0.598921	-0.249522
Zn4	Zn	1.457838	-0.098921	0.250478
Zn5	Zn	0.853127	-0.421718	-0.249525
Zn6	Zn	1.353127	0.078282	0.250475
Zn7	Zn	0.853118	-0.598911	-0.354262
Zn8	Zn	1.353118	-0.098911	0.145738
O9	O	0.905498	-0.510298	-0.301900
O10	O	1.405498	-0.010298	0.198100
O11	O	1.045578	-0.445132	-0.340401
O12	O	1.545578	0.054868	0.159599
O13	O	0.943921	-0.575450	-0.161845
O14	O	1.443921	-0.075450	0.338155
O15	O	0.867060	-0.273361	-0.263434
O16	O	1.367060	0.226639	0.236566
O17	O	1.045525	-0.575377	-0.263429
O18	O	1.545525	-0.075377	0.236571
O19	O	0.944044	-0.273306	-0.340403
O20	O	1.444044	0.226694	0.159597
O21	O	0.866990	-0.445260	-0.161847
O22	O	1.366990	0.054740	0.338153
O23	O	0.765448	-0.445251	-0.263409
O24	O	1.265448	0.054749	0.236591
O25	O	0.867045	-0.575361	-0.441944
O26	O	1.367045	-0.075361	0.058056
O27	O	0.765441	-0.575434	-0.340359
O28	O	1.265441	-0.075434	0.159641
O29	O	0.944035	-0.445123	-0.441963
O30	O	1.444035	0.054877	0.058037
O31	O	0.943913	-0.747267	-0.263404
O32	O	1.443913	-0.247267	0.236596
O33	O	0.866975	-0.747260	-0.340356
O34	O	1.366975	-0.247260	0.159644
C35	C	0.742710	-0.510350	-0.301882
C36	C	1.242710	-0.010350	0.198118
C37	C	0.673069	-0.510398	-0.301889
C38	C	1.173069	-0.010398	0.198111
C39	C	0.640406	-0.442690	-0.342030
C40	C	1.140406	0.057310	0.157970
C41	C	0.574971	-0.442662	-0.342033
C42	C	1.074971	0.057338	0.157967
C43	C	0.542201	-0.510360	-0.301901
C44	C	1.042201	-0.010360	0.198099
C45	C	0.574872	-0.578072	-0.261752
C46	C	1.074872	-0.078072	0.238248
C47	C	0.640306	-0.578091	-0.261746
C48	C	1.140306	-0.078091	0.238254
C49	C	0.438489	-0.605830	-0.296869
C50	C	0.938489	-0.105830	0.203131
C51	C	0.373057	-0.605813	-0.296879
C52	C	0.873057	-0.105813	0.203121
C53	C	0.340380	-0.510302	-0.301915
C54	C	0.840380	-0.010302	0.198085
C55	C	0.373145	-0.414805	-0.306953
C56	C	0.873145	0.085195	0.193047
C57	C	0.438579	-0.414824	-0.306947
C58	C	0.938579	0.085176	0.193053
C59	C	0.471249	-0.510347	-0.301902
C60	C	0.971249	-0.010347	0.198098
C61	C	0.236764	-0.442558	-0.342060
C62	C	0.736764	0.057442	0.157940
C63	C	0.171328	-0.442528	-0.342058
C64	C	0.671328	0.057472	0.157942
C65	C	0.171231	-0.577948	-0.261781
C66	C	0.671231	-0.077948	0.238219
C67	C	0.236666	-0.577969	-0.261780
C68	C	0.736666	-0.077969	0.238220
C69	C	0.269429	-0.510275	-0.301923
C70	C	0.769429	-0.010275	0.198077
C71	C	0.905452	-0.785728	-0.301891
C72	C	1.405452	-0.285728	0.198109
C73	C	0.905490	-0.903558	-0.301908
C74	C	1.405490	-0.403558	0.198092
C75	C	0.857288	-1.071162	-0.350468
C76	C	1.357288	-0.571162	0.149532
C77	C	0.857042	-0.948603	-0.350312
C78	C	1.357042	-0.448603	0.149688
C79	C	0.887613	-0.948154	-0.235877
C80	C	1.387613	-0.448154	0.264123
C81	C	0.887319	-1.070752	-0.236172
C82	C	1.387319	-0.570752	0.263828
C83	C	0.971864	-1.070620	-0.318844
C84	C	1.471864	-0.570620	0.181156
C85	C	0.971457	-0.948013	-0.320288
C86	C	1.471457	-0.448013	0.179712
C87	C	1.068921	-0.510247	-0.301918
C88	C	1.568921	-0.010247	0.198082
C89	C	1.138563	-0.510226	-0.301925
C90	C	1.638563	-0.010226	0.198075
C91	C	0.905547	-0.510233	-0.465323
C92	C	1.405547	-0.010233	0.034677
C93	C	0.905568	-0.510205	-0.534964
C94	C	1.405568	-0.010205	-0.034964
C95	C	0.905561	-0.233793	-0.301922
C96	C	1.405561	0.266207	0.198078
C97	C	0.905588	-0.115963	-0.301932
C98	C	1.405588	0.384037	0.198068
C99	C	0.865521	-0.442407	-0.567669
C100	C	1.365521	0.057593	-0.067669
C101	C	0.865519	-0.442387	-0.633104
C102	C	1.365519	0.057613	-0.133104
C103	C	0.905575	-0.510154	-0.665833
C104	C	1.405575	-0.010154	-0.165833
C105	C	0.945625	-0.577965	-0.633120
C106	C	1.445625	-0.077965	-0.133120
C107	C	0.945622	-0.577990	-0.567686
C108	C	1.445622	-0.077990	-0.067686
C109	C	0.962028	-0.518464	-0.769519
C110	C	1.462028	-0.018464	-0.269519
C111	C	0.962033	-0.518431	-0.834952
C112	C	1.462033	-0.018431	-0.334952
C113	C	0.905586	-0.510083	-0.867653
C114	C	1.405586	-0.010083	-0.367653
C115	C	0.849132	-0.501745	-0.834913
C116	C	1.349132	-0.001745	-0.334913
C117	C	0.849129	-0.501770	-0.769479
C118	C	1.349129	-0.001770	-0.269479
C119	C	0.905583	-0.510135	-0.736785
C120	C	1.405583	-0.010135	-0.236785
C121	C	0.865533	-0.442260	-0.971310
C122	C	1.365533	0.057740	-0.471310
C123	C	0.865530	-0.442248	-1.036747
C124	C	1.365530	0.057752	-0.536747
C125	C	0.945641	-0.577820	-1.036762
C126	C	1.445641	-0.077820	-0.536762
C127	C	0.945639	-0.577838	-0.971327
C128	C	1.445639	-0.077838	-0.471327
C129	C	0.905586	-0.510052	-0.938605
C130	C	1.405586	-0.010052	-0.438605
C131	C	0.905485	-0.510287	-0.139112
C132	C	1.405485	-0.010287	0.360888
C133	C	0.905585	-0.510017	-0.069471
C134	C	1.405585	-0.010017	0.430529
H135	H	0.144550	-0.633069	-0.229105
H136	H	0.644550	-0.133069	0.270895
H137	H	0.666900	-0.633229	-0.229058
H138	H	1.166900	-0.133229	0.270942
H139	H	0.838870	-1.099463	-0.221845
H140	H	1.338870	-0.599463	0.278155
H141	H	0.263442	-0.387431	-0.374743
H142	H	0.763442	0.112569	0.125257
H143	H	0.978251	-0.633043	-0.944698
H144	H	1.478251	-0.133043	-0.444698
H145	H	0.868227	-0.918448	-0.399273
H146	H	1.368227	-0.418448	0.100727
H147	H	0.832914	-0.387042	-1.063374
H148	H	1.332914	0.112958	-0.563374
H149	H	0.868371	-1.100574	-0.399590
H150	H	1.368371	-0.600574	0.100410
H151	H	0.920971	-1.100391	-0.198775
H152	H	1.420971	-0.600391	0.301225
H153	H	0.807908	-0.919388	-0.339107
H154	H	1.307908	-0.419388	0.160893
H155	H	0.832918	-0.387066	-0.944667
H156	H	1.332918	0.112934	-0.444667
H157	H	0.346385	-0.683572	-0.292780
H158	H	0.846385	-0.183572	0.207220
H159	H	0.832909	-0.387173	-0.659737
H160	H	1.332909	0.112827	-0.159737
H161	H	0.832904	-0.387215	-0.541030
H162	H	1.332904	0.112785	-0.041030
H163	H	0.465089	-0.683612	-0.292768
H164	H	0.965089	-0.183612	0.207232
H165	H	0.144735	-0.387386	-0.374745
H166	H	0.644735	0.112614	0.125255
H167	H	0.263261	-0.633108	-0.229095
H168	H	0.763261	-0.133108	0.270905
H169	H	1.009338	-0.917343	-0.287511
H170	H	1.509338	-0.417343	0.212489
H171	H	0.839670	-0.917562	-0.221291
H172	H	1.339670	-0.417562	0.278709
H173	H	0.988171	-1.101461	-0.366175
H174	H	1.488171	-0.601461	0.133825
H175	H	0.548187	-0.633192	-0.229076
H176	H	1.048187	-0.133192	0.270924
H177	H	0.667078	-0.387568	-0.374717
H178	H	1.167078	0.112432	0.125283
H179	H	0.548371	-0.387521	-0.374719
H180	H	1.048371	0.112479	0.125281
H181	H	1.008001	-0.525215	-0.861604
H182	H	1.508001	-0.025215	-0.361604
H183	H	0.978257	-0.632995	-1.063409
H184	H	1.478257	-0.132995	-0.563409
H185	H	0.984939	-0.918862	-0.368883
H186	H	1.484939	-0.418862	0.131117
H187	H	0.465253	-0.337067	-0.311048
H188	H	0.965253	0.162933	0.188952
H189	H	0.808462	-1.102083	-0.339407
H190	H	1.308462	-0.602083	0.160593
H191	H	0.346541	-0.337031	-0.311053
H192	H	0.846541	0.162969	0.188947
H193	H	0.921677	-0.918976	-0.198725
H194	H	1.421677	-0.418976	0.301275
H195	H	1.007848	-1.099588	-0.283493
H196	H	1.507848	-0.599588	0.216507
H197	H	0.803162	-0.494983	-0.742825
H198	H	1.303162	0.005017	-0.242825
H199	H	0.803168	-0.494939	-0.861537
H200	H	1.303168	0.005061	-0.361537
H201	H	1.007998	-0.525253	-0.742900
H202	H	1.507998	-0.025253	-0.242900
H203	H	0.978239	-0.633141	-0.659772
H204	H	1.478239	-0.133141	-0.159772
H205	H	0.978236	-0.633198	-0.541059
H206	H	1.478236	-0.133198	-0.041059
