data_functionalizedCrystal
_audit_creation_method	'MofGen! by Chris Wilmer'
_symmetry_space_group_name_H-M	'P1'
_symmetry_Int_Tables_number	1
_symmetry_cell_setting	triclinic
loop_
_symmetry_equiv_pos_as_xyz
  x,y,z
_cell_length_a	19.188930
_cell_length_b	14.971486
_cell_length_c	14.048226
_cell_angle_alpha	90.006640
_cell_angle_beta	90.020343
_cell_angle_gamma	83.379454
loop_
_atom_site_label
_atom_site_type_symbol
_atom_site_fract_x
_atom_site_fract_y
_atom_site_fract_z
O1	O	-0.926506	-0.111670	-0.079467
O2	O	-0.723243	-0.126703	-0.079402
O3	O	-0.830323	0.011042	-0.079430
O4	O	-0.819427	-0.249416	-0.079440
O5	O	-0.830310	0.011050	0.078892
O6	O	-0.723230	-0.126695	0.078919
O7	O	-0.926493	-0.111662	0.078854
Zn8	Zn	-0.824860	-0.119177	0.104024
Zn9	Zn	-0.824877	-0.119188	-0.104572
O10	O	-0.819414	-0.249408	0.078882
C11	C	-0.829829	0.044368	-0.000269
C12	C	-0.828369	0.143658	-0.000269
C13	C	-0.697224	-0.126212	-0.000233
C14	C	-0.619715	-0.124751	-0.000208
C15	C	-0.952512	-0.112153	-0.000317
C16	C	-1.030021	-0.113615	-0.000348
C17	C	-0.575051	-0.205575	-0.000226
C18	C	-0.502223	-0.204202	-0.000236
C19	C	-0.474062	-0.122000	-0.000248
C20	C	-0.518735	-0.041166	-0.000224
C21	C	-0.591562	-0.042541	-0.000204
N22	N	-0.365884	-0.059170	-0.054167
N23	N	-0.296701	-0.057869	-0.054188
C24	C	-0.254640	-0.117852	-0.000306
N25	N	-0.284374	-0.179199	0.053586
N26	N	-0.353562	-0.180502	0.053603
C27	C	-0.395094	-0.120500	-0.000269
C28	C	-0.131007	-0.197193	-0.000334
C29	C	-0.058178	-0.195817	-0.000338
C30	C	-0.074692	-0.032778	-0.000336
C31	C	-0.147519	-0.034157	-0.000322
C32	C	-0.175672	-0.116367	-0.000325
C33	C	-0.819907	-0.282734	-0.000281
C34	C	-0.821368	-0.382023	-0.000287
N35	N	-0.824853	-0.119170	0.246384
C36	C	-0.891275	0.201215	-0.000289
C37	C	-0.889899	0.294507	-0.000298
C38	C	-0.825615	0.330240	-0.000281
C39	C	-0.762704	0.272675	-0.000264
C40	C	-0.764081	0.179385	-0.000262
C41	C	-0.759839	0.467123	-0.000267
C42	C	-0.758461	0.560419	-0.000267
C43	C	-0.885656	0.582245	-0.000303
C44	C	-0.887033	0.488955	-0.000301
C45	C	-0.824122	0.431396	-0.000282
N46	N	-0.824889	-0.119189	-0.246932
C47	C	-0.872283	-0.058201	0.296190
C48	C	-0.872288	-0.058201	0.395848
C49	C	-0.824865	-0.119174	0.445698
C50	C	-0.777431	-0.180145	0.395885
C51	C	-0.777423	-0.180140	0.296229
C52	C	-0.777451	-0.180151	0.603599
C53	C	-0.777459	-0.180157	0.703262
C54	C	-0.872315	-0.058211	0.703218
C55	C	-0.872308	-0.058207	0.603562
C56	C	-0.824874	-0.119180	0.553756
H57	H	-0.597968	-0.272517	-0.000231
F58	F	-0.726956	-0.245034	0.448940
H59	H	-0.465851	-0.270021	-0.000248
F60	F	-0.488763	0.046319	-0.000232
F61	F	-0.690044	0.598447	-0.000248
H62	H	-0.943622	0.172130	-0.000297
H63	H	-0.710364	0.301776	-0.000256
F64	F	-0.639099	0.043488	-0.000185
H65	H	-0.910902	-0.008554	0.255609
H66	H	-0.738842	-0.229807	0.743845
H67	H	-0.910926	-0.008563	0.562974
H68	H	-0.708609	0.420260	-0.000254
F69	F	-0.922767	0.006690	0.448855
F70	F	-0.922798	0.006679	0.756229
H71	H	-0.712856	0.132522	-0.000246
F72	F	-0.160972	-0.284687	-0.000330
H73	H	-0.939378	0.459865	-0.000308
F74	F	-0.010642	-0.281846	-0.000353
H75	H	-0.051764	0.034152	-0.000404
F76	F	-0.726963	-0.245044	0.550596
H77	H	-0.183886	0.031659	-0.000312
F78	F	-0.726940	-0.245029	0.243223
H79	H	-0.941123	0.341368	-0.000312
H80	H	-0.936881	0.629114	-0.000321
