data_functionalizedCrystal
_audit_creation_method	'MofGen! by Chris Wilmer'
_symmetry_space_group_name_H-M	'P1'
_symmetry_Int_Tables_number	1
_symmetry_cell_setting	triclinic
loop_
_symmetry_equiv_pos_as_xyz
  x,y,z
_cell_length_a	11.792254
_cell_length_b	14.044209
_cell_length_c	10.268362
_cell_angle_alpha	89.991300
_cell_angle_beta	90.000669
_cell_angle_gamma	91.306725
loop_
_atom_site_label
_atom_site_type_symbol
_atom_site_fract_x
_atom_site_fract_y
_atom_site_fract_z
O1	O	1.519101	-0.130046	0.108308
O2	O	2.019101	0.369954	0.608308
O3	O	1.190018	-0.143430	0.108312
O4	O	1.690018	0.356570	0.608312
O5	O	1.349621	0.001272	0.108292
O6	O	1.849621	0.501272	0.608292
O7	O	1.359498	-0.274748	0.108329
O8	O	1.859498	0.225252	0.608329
O9	O	1.349618	0.001281	-0.108309
O10	O	1.849618	0.501281	0.391691
O11	O	1.190015	-0.143422	-0.108288
O12	O	1.690015	0.356578	0.391712
O13	O	1.519098	-0.130038	-0.108292
O14	O	2.019098	0.369962	0.391708
Cu15	Cu	1.354556	-0.136729	-0.128068
Cu16	Cu	1.854556	0.363271	0.371932
Cu17	Cu	1.354560	-0.136739	0.128088
Cu18	Cu	1.854560	0.363261	0.628088
O19	O	1.359495	-0.274740	-0.108272
O20	O	1.859495	0.225260	0.391728
C21	C	1.147647	-0.142583	0.000012
C22	C	1.647647	0.357417	0.500012
C23	C	1.021397	-0.140059	0.000013
C24	C	1.521397	0.359941	0.500013
C25	C	0.918868	-0.138009	0.000018
C26	C	1.418868	0.361991	0.500018
C27	C	0.790240	-0.135445	0.000019
C28	C	1.290240	0.364555	0.500019
C29	C	1.345296	0.036613	-0.000010
C30	C	1.845296	0.536613	0.499990
C31	C	1.332398	0.141906	-0.000016
C32	C	1.832398	0.641906	0.499984
C33	C	1.308818	0.334690	-0.000005
C34	C	1.808818	0.834690	0.499995
C35	C	1.400303	0.391849	-0.000004
C36	C	1.900303	0.891849	0.499996
C37	C	1.387182	0.499121	0.000002
C38	C	1.887182	0.999121	0.500002
C39	C	1.321936	0.227408	-0.000011
C40	C	1.821936	0.727408	0.499989
C41	C	1.561469	-0.130885	0.000011
C42	C	2.061469	0.369115	0.500011
C43	C	1.687719	-0.133409	0.000019
C44	C	2.187719	0.366591	0.500019
C45	C	1.363823	0.689919	0.000023
C46	C	1.863823	1.189919	0.500023
C47	C	1.376728	0.584627	0.000007
C48	C	1.876728	1.084627	0.500007
N49	N	1.354562	-0.136739	0.308254
N50	N	1.854562	0.363261	0.808254
N51	N	1.354562	-0.136721	-0.308234
N52	N	1.854562	0.363279	0.191766
C53	C	1.354559	-0.136733	0.573924
C54	C	1.854559	0.363267	1.073924
C55	C	1.354557	-0.136740	0.426086
C56	C	1.854557	0.363260	0.926086
H57	H	1.488479	0.360222	0.000083
H58	H	1.988479	0.860222	0.500083
H59	H	1.220648	0.366315	-0.000002
H60	H	1.720648	0.866315	0.499998
