data_functionalizedCrystal
_audit_creation_method	'MofGen! by Chris Wilmer'
_symmetry_space_group_name_H-M	'P1'
_symmetry_Int_Tables_number	1
_symmetry_cell_setting	triclinic
loop_
_symmetry_equiv_pos_as_xyz
  x,y,z
_cell_length_a	8.597340
_cell_length_b	10.723023
_cell_length_c	7.681481
_cell_angle_alpha	84.204195
_cell_angle_beta	103.474906
_cell_angle_gamma	84.901714
loop_
_atom_site_label
_atom_site_type_symbol
_atom_site_fract_x
_atom_site_fract_y
_atom_site_fract_z
O1	O	2.101733	0.172565	0.172446
O2	O	1.637889	0.192447	0.102069
O3	O	1.880512	0.000857	0.138888
O4	O	1.859111	0.364155	0.135627
O5	O	1.910374	-0.022778	0.436278
O6	O	1.667752	0.168812	0.399459
O7	O	2.131595	0.148930	0.469835
Zn8	Zn	1.904415	0.155118	0.481864
Zn9	Zn	1.865070	0.186258	0.090040
O10	O	1.888973	0.340520	0.433016
C11	C	1.593428	0.179811	0.241753
C12	C	1.416457	0.177357	0.214902
C13	C	1.893886	-0.057450	0.287345
C14	C	1.889227	-0.195972	0.286632
C15	C	1.871680	-0.245480	0.132258
C16	C	1.866864	-0.388650	0.131518
C17	C	2.176056	0.161566	0.330148
C18	C	2.353026	0.164021	0.356987
C19	C	1.875599	0.398827	0.284556
C20	C	1.880256	0.537350	0.285256
N21	N	1.931278	0.133865	0.749275
N22	N	1.838219	0.207502	-0.177369
H23	H	1.335365	0.186898	0.072698
C24	C	1.461352	0.151111	0.546499
C25	C	1.574540	0.044419	0.572855
C26	C	1.674379	0.032495	0.747405
H27	H	1.398039	0.142343	0.632216
H28	H	1.515638	0.224163	0.561296
H29	H	1.520258	-0.028616	0.558075
H30	H	1.637890	0.053162	0.487180
H31	H	1.728666	0.105547	0.762202
H32	H	1.611053	0.023731	0.833107
H33	H	1.751198	-0.039888	0.765304
C34	C	1.846544	-0.445281	-0.044890
C35	C	1.700900	-0.391859	-0.163357
C36	C	1.682127	-0.443989	-0.325892
H37	H	1.845859	-0.533944	-0.022218
H38	H	1.933288	-0.428197	-0.097475
H39	H	1.614179	-0.408953	-0.110783
H40	H	1.701552	-0.303201	-0.186080
H41	H	1.768871	-0.426905	-0.378477
H42	H	1.681448	-0.532651	-0.303202
H43	H	1.583315	-0.407742	-0.406298
H44	H	1.900673	-0.259578	0.418248
C45	C	1.856640	-0.160865	-0.043355
C46	C	1.982625	-0.198733	-0.120615
C47	C	1.968814	-0.120834	-0.282411
H48	H	1.861965	-0.075875	-0.019789
H49	H	1.756486	-0.167346	-0.124285
H50	H	2.082754	-0.192240	-0.039704
H51	H	1.977325	-0.283710	-0.144224
H52	H	1.868660	-0.127315	-0.363340
H53	H	1.974136	-0.035849	-0.258828
H54	H	2.054282	-0.146523	-0.334861
H55	H	1.895295	-0.420037	0.417431
H56	H	1.743225	0.282662	0.733019
H57	H	2.026290	0.058709	0.838899
