data_functionalizedCrystal
_audit_creation_method	'MofGen! by Chris Wilmer'
_symmetry_space_group_name_H-M	'P1'
_symmetry_Int_Tables_number	1
_symmetry_cell_setting	triclinic
loop_
_symmetry_equiv_pos_as_xyz
  x,y,z
_cell_length_a	8.497365
_cell_length_b	19.077105
_cell_length_c	19.077068
_cell_angle_alpha	89.884684
_cell_angle_beta	87.757695
_cell_angle_gamma	87.667444
loop_
_atom_site_label
_atom_site_type_symbol
_atom_site_fract_x
_atom_site_fract_y
_atom_site_fract_z
Zn1	Zn	-1.016643	1.063117	0.322780
Zn2	Zn	-0.762966	1.058273	0.440339
Zn3	Zn	-0.741872	0.945575	0.318128
Zn4	Zn	-1.015696	0.940852	0.435521
O5	O	-0.884294	1.001954	0.379192
O6	O	-0.992217	1.160807	0.342337
O7	O	-0.539407	1.043272	0.424197
O8	O	-0.769889	0.965172	0.220417
O9	O	-0.805842	1.157248	0.428707
O10	O	-0.971763	1.051529	0.223834
O11	O	-0.523909	0.960474	0.334409
O12	O	-0.768970	0.846616	0.329738
O13	O	-1.236582	0.957122	0.420496
O14	O	-0.970148	0.843146	0.415986
O15	O	-1.237279	1.046950	0.337665
O16	O	-0.804923	1.038692	0.538028
O17	O	-0.990602	0.952424	0.534489
C18	C	-0.867168	0.819385	0.371835
C19	C	-0.859880	0.741280	0.368705
C20	C	-0.899985	0.994539	0.561754
C21	C	-0.906756	0.991431	0.639858
C22	C	-0.961046	0.702795	0.412207
C23	C	-0.954205	0.629408	0.409256
C24	C	-0.846189	0.594506	0.362807
C25	C	-0.745019	0.632996	0.319300
C26	C	-0.751869	0.706383	0.322248
C27	C	-0.814495	0.375217	0.349166
C28	C	-0.807650	0.301826	0.346223
C29	C	-1.016838	0.298242	0.436179
C30	C	-1.023672	0.371630	0.439125
C31	C	-0.922508	0.410114	0.395616
N32	N	-0.839191	0.519493	0.359792
N33	N	-0.929515	0.485126	0.398628
C34	C	-0.474416	1.001901	0.379266
C35	C	-0.295770	1.002007	0.379126
C36	C	-0.901489	1.185237	0.386578
C37	C	-0.908816	1.263341	0.389725
C38	C	-0.868579	1.009418	0.195917
C39	C	-0.861882	1.012598	0.117817
C40	C	-0.813351	1.034921	0.678372
C41	C	-0.819730	1.032002	0.751758
C42	C	-0.919506	0.985589	0.786630
C43	C	-1.012922	0.942097	0.748110
C44	C	-1.006550	0.945020	0.674725
C45	C	-0.948926	0.972030	1.005912
C46	C	-0.955287	0.969108	1.079303
C47	C	-0.762096	1.059014	1.082946
C48	C	-0.755727	1.061930	1.009559
C49	C	-0.849148	1.018441	0.971046
N50	N	-0.926025	0.982602	0.861642
N51	N	-0.842637	1.021432	0.896035
H52	H	-1.048999	0.731206	0.450033
H53	H	-0.719700	0.273412	0.308390
N54	N	-1.125951	0.256730	0.483096
H55	H	-1.238968	0.269979	0.472738
H56	H	-1.106638	0.267472	0.533787
N57	N	-1.049670	0.925117	0.964382
H58	H	-0.979805	0.893775	0.932684
H59	H	-1.122854	0.954924	0.935065
N60	N	-1.120545	0.892039	0.785718
H61	H	-1.110405	0.896783	0.838051
H62	H	-1.090081	0.842366	0.770923
H63	H	-0.732109	0.406542	0.313743
N64	N	-1.140181	0.409263	0.489228
H65	H	-1.250814	0.396967	0.477845
H66	H	-1.129039	0.461582	0.484478
N67	N	-1.063297	0.587898	0.456186
H68	H	-1.132748	0.621143	0.486065
H69	H	-0.998882	0.556115	0.487450
N70	N	-0.642751	0.747898	0.275334
H71	H	-0.707036	0.779685	0.244019
H72	H	-0.573300	0.714611	0.245506
H73	H	-0.732096	1.072712	0.649985
H74	H	-0.686040	1.094422	1.114311
H75	H	-0.657078	0.604574	0.281477
N76	N	-0.718986	1.078908	0.793299
H77	H	-0.654804	1.108751	0.760073
H78	H	-0.645900	1.049098	0.822660
H79	H	-0.674481	1.099724	0.981168
H80	H	-1.082613	0.909607	0.643368
N81	N	-1.062906	0.919046	1.116916
H82	H	-1.121125	0.891940	1.081384
H83	H	-1.141274	0.946432	1.148456
