data_functionalizedCrystal
_audit_creation_method	'MofGen! by Chris Wilmer'
_symmetry_space_group_name_H-M	'P1'
_symmetry_Int_Tables_number	1
_symmetry_cell_setting	triclinic
loop_
_symmetry_equiv_pos_as_xyz
  x,y,z
_cell_length_a	12.759401
_cell_length_b	18.050589
_cell_length_c	12.759393
_cell_angle_alpha	89.970454
_cell_angle_beta	89.979062
_cell_angle_gamma	90.029746
loop_
_atom_site_label
_atom_site_type_symbol
_atom_site_fract_x
_atom_site_fract_y
_atom_site_fract_z
Zn1	Zn	1.606168	-0.295593	-0.594027
Zn2	Zn	2.106168	0.204407	-0.094027
Zn3	Zn	1.606017	-0.419801	-0.418350
Zn4	Zn	2.106017	0.080199	0.081650
Zn5	Zn	1.430466	-0.295633	-0.418362
Zn6	Zn	1.930466	0.204367	0.081638
Zn7	Zn	1.430417	-0.419749	-0.593987
Zn8	Zn	1.930417	0.080251	-0.093987
O9	O	1.518267	-0.357694	-0.506182
O10	O	2.018267	0.142306	-0.006182
O11	O	1.753169	-0.312075	-0.570735
O12	O	2.253169	0.187925	-0.070735
O13	O	1.582688	-0.403368	-0.271331
O14	O	2.082688	0.096632	0.228669
O15	O	1.453857	-0.191703	-0.441686
O16	O	1.953857	0.308297	0.058314
O17	O	1.753058	-0.403330	-0.441666
O18	O	2.253058	0.096670	0.058334
O19	O	1.582944	-0.191674	-0.570746
O20	O	2.082944	0.308326	-0.070746
O21	O	1.453711	-0.312142	-0.271339
O22	O	1.953711	0.187858	0.228661
O23	O	1.283439	-0.312092	-0.441648
O24	O	1.783439	0.187908	0.058352
O25	O	1.453773	-0.403241	-0.741014
O26	O	1.953773	0.096759	-0.241014
O27	O	1.283402	-0.403280	-0.570679
O28	O	1.783402	0.096720	-0.070679
O29	O	1.582896	-0.312025	-0.741043
O30	O	2.082896	0.187975	-0.241043
O31	O	1.582640	-0.523719	-0.441627
O32	O	2.082640	-0.023719	0.058373
O33	O	1.453627	-0.523681	-0.570667
O34	O	1.953627	-0.023681	-0.070667
C35	C	1.245300	-0.357685	-0.506161
C36	C	1.745300	0.142315	-0.006161
C37	C	1.128523	-0.357699	-0.506177
C38	C	1.628523	0.142301	-0.006177
C39	C	1.073670	-0.405253	-0.573257
C40	C	1.573670	0.094747	-0.073257
C41	C	0.963946	-0.405256	-0.573278
C42	C	1.463946	0.094744	-0.073278
C43	C	0.963938	-0.310149	-0.439129
C44	C	1.463938	0.189851	0.060871
C45	C	1.073660	-0.310143	-0.439114
C46	C	1.573660	0.189857	0.060886
C47	C	1.518140	-0.550646	-0.506164
C48	C	2.018140	-0.050646	-0.006164
C49	C	1.518182	-0.633192	-0.506192
C50	C	2.018182	-0.133192	-0.006192
C51	C	1.448094	-0.832649	-0.576339
C52	C	1.948094	-0.332649	-0.076339
C53	C	1.422478	-0.882097	-0.480470
C54	C	1.922478	-0.382097	0.019530
C55	C	1.518285	-0.784322	-0.506206
C56	C	2.018285	-0.284322	-0.006206
C57	C	1.543953	-0.881956	-0.602085
C58	C	2.043953	-0.381956	-0.102085
C59	C	1.518383	-0.930307	-0.506227
C60	C	2.018383	-0.430307	-0.006227
C61	C	1.492619	-0.832683	-0.410286
C62	C	1.992619	-0.332683	0.089714
C63	C	1.614139	-0.832538	-0.531966
C64	C	2.114139	-0.332538	-0.031966
C65	C	1.588559	-0.881964	-0.436031
C66	C	2.088559	-0.381964	0.063969
C67	C	1.518226	-0.700224	-0.506194
C68	C	2.018226	-0.200224	-0.006194
C69	C	1.518442	-1.014404	-0.506228
C70	C	2.018442	-0.514404	-0.006228
C71	C	1.792300	-0.357704	-0.506203
C72	C	2.292300	0.142296	-0.006203
C73	C	1.909077	-0.357708	-0.506212
C74	C	2.409077	0.142292	-0.006212
C75	C	1.518346	-0.357623	-0.780215
C76	C	2.018346	0.142377	-0.280215
C77	C	1.518379	-0.357592	-0.896992
C78	C	2.018379	0.142408	-0.396992
C79	C	1.518423	-0.163989	-0.506222
C80	C	2.018423	0.336011	-0.006222
C81	C	1.518489	-0.081443	-0.506239
C82	C	2.018489	0.418557	-0.006239
C83	C	1.585619	-0.310088	-0.951871
C84	C	2.085619	0.189912	-0.451871
C85	C	1.585637	-0.310056	-1.061595
C86	C	2.085637	0.189944	-0.561595
C87	C	1.451172	-0.405039	-1.061552
C88	C	1.951172	0.094961	-0.561552
C89	C	1.451150	-0.405067	-0.951829
C90	C	1.951150	0.094933	-0.451829
C91	C	1.518249	-0.357712	-0.233214
C92	C	2.018249	0.142288	0.266786
C93	C	1.518419	-0.357533	-0.116438
C94	C	2.018419	0.142467	0.383562
H95	H	1.118336	-0.443974	-0.627867
H96	H	1.618336	0.056026	-0.127867
H97	H	1.341464	-0.903882	-0.458702
H98	H	1.841464	-0.403882	0.041298
Br99	Br	0.889505	-0.469792	-0.664325
Br100	Br	1.389505	0.030208	-0.164325
Br101	Br	1.456348	-0.796763	-0.275113
Br102	Br	1.956348	-0.296763	0.224887
Br103	Br	0.889475	-0.245612	-0.348119
Br104	Br	1.389475	0.254388	0.151881
Br105	Br	1.148111	-0.245594	-0.348079
Br106	Br	1.648111	0.254406	0.151921
Br107	Br	1.687570	-0.917827	-0.337086
Br108	Br	2.187570	-0.417827	0.162914
H109	H	1.640358	-0.271430	-0.907225
H110	H	2.140358	0.228570	-0.407225
Br111	Br	1.349021	-0.796555	-0.675057
Br112	Br	1.849021	-0.296555	-0.175057
H113	H	1.695134	-0.810755	-0.553780
H114	H	2.195134	-0.310755	-0.053780
Br115	Br	1.359941	-0.469468	-1.135980
Br116	Br	1.859941	0.030532	-0.635980
Br117	Br	1.580070	-0.918037	-0.737213
Br118	Br	2.080070	-0.418037	-0.237213
H119	H	1.640388	-0.271372	-1.106272
H120	H	2.140388	0.228628	-0.606272
Br121	Br	1.359880	-0.469535	-0.877344
Br122	Br	1.859880	0.030465	-0.377344
