data_functionalizedCrystal
_audit_creation_method	'MofGen! by Chris Wilmer'
_symmetry_space_group_name_H-M	'P1'
_symmetry_Int_Tables_number	1
_symmetry_cell_setting	triclinic
loop_
_symmetry_equiv_pos_as_xyz
  x,y,z
_cell_length_a	8.497374
_cell_length_b	13.033748
_cell_length_c	13.033615
_cell_angle_alpha	105.186600
_cell_angle_beta	97.184998
_cell_angle_gamma	82.830727
loop_
_atom_site_label
_atom_site_type_symbol
_atom_site_fract_x
_atom_site_fract_y
_atom_site_fract_z
Zn1	Zn	0.549906	1.570024	-0.216455
Zn2	Zn	0.883239	1.903357	0.116878
Zn3	Zn	1.216573	2.236691	0.450211
Zn4	Zn	0.256401	1.547453	-0.394033
Zn5	Zn	0.589735	1.880786	-0.060700
Zn6	Zn	0.923068	2.214119	0.272634
Zn7	Zn	0.315801	1.392458	-0.239029
Zn8	Zn	0.649135	1.725791	0.094304
Zn9	Zn	0.982468	2.059125	0.427638
Zn10	Zn	0.549802	1.369869	-0.416618
Zn11	Zn	0.883136	1.703202	-0.083284
Zn12	Zn	1.216469	2.036535	0.250049
O13	O	0.417978	1.469951	-0.316534
O14	O	0.751311	1.803284	0.016800
O15	O	1.084644	2.136618	0.350133
O16	O	0.486156	1.715661	-0.221112
O17	O	0.819489	2.048995	0.112221
O18	O	1.152823	2.382328	0.445554
O19	O	0.043518	1.526900	-0.373467
O20	O	0.376851	1.860233	-0.040133
O21	O	0.710185	2.193567	0.293200
O22	O	0.371758	1.434912	-0.087396
O23	O	0.705092	1.768246	0.245937
O24	O	1.038425	2.101579	0.579270
O25	O	0.270519	1.699078	-0.351578
O26	O	0.603853	2.032412	-0.018244
O27	O	0.937186	2.365745	0.315089
O28	O	0.543754	1.565369	-0.070811
O29	O	0.877087	1.898703	0.262522
O30	O	1.210421	2.232036	0.595855
O31	O	0.087159	1.413026	-0.259586
O32	O	0.420492	1.746359	0.073747
O33	O	0.753826	2.079693	0.407080
O34	O	0.371658	1.240830	-0.281486
O35	O	0.704991	1.574163	0.051848
O36	O	1.038325	1.907497	0.385181
O37	O	0.770579	1.396412	-0.390070
O38	O	1.103912	1.729746	-0.056737
O39	O	1.437246	2.063079	0.276597
O40	O	0.543577	1.224234	-0.411959
O41	O	0.876911	1.557567	-0.078626
O42	O	1.210244	1.890901	0.254708
O43	O	0.770655	1.543465	-0.243012
O44	O	1.103988	1.876799	0.090322
O45	O	1.437322	2.210132	0.423655
O46	O	0.270419	1.504996	-0.545667
O47	O	0.603752	1.838329	-0.212334
O48	O	0.937086	2.171663	0.121000
O49	O	0.485979	1.374526	-0.562260
O50	O	0.819313	1.707859	-0.228927
O51	O	1.152646	2.041192	0.104407
C52	C	0.464053	1.193993	-0.351623
C53	C	0.797386	1.527327	-0.018290
C54	C	1.130720	1.860660	0.315043
C55	C	0.483797	1.075934	-0.366661
C56	C	0.817131	1.409268	-0.033327
C57	C	1.150464	1.742601	0.300006
C58	C	0.407708	1.031496	-0.308712
C59	C	0.741041	1.364829	0.024621
C60	C	1.074374	1.698163	0.357954
C61	C	0.428113	0.909476	-0.324253
C62	C	0.761446	1.242809	0.009081
C63	C	1.094779	1.576143	0.342414
C64	C	0.464394	1.505178	-0.039486
C65	C	0.797727	1.838512	0.293847
C66	C	1.131060	2.171845	0.627181
C67	C	0.484173	1.520190	0.078575
C68	C	0.817507	1.853524	0.411909
C69	C	1.150840	2.186857	0.745242
C70	C	0.829459	1.469943	-0.316536
C71	C	1.162792	1.803276	0.016797
C72	C	1.496126	2.136609	0.350130
C73	C	1.008101	1.469944	-0.316547
C74	C	1.341434	1.803277	0.016786
C75	C	1.674768	2.136610	0.350119
C76	C	0.371772	1.434889	-0.592500
C77	C	0.705105	1.768223	-0.259167
C78	C	1.038438	2.101556	0.074167
C79	C	0.352041	1.419987	-0.710547
C80	C	0.685375	1.753320	-0.377214
C81	C	1.018708	2.086654	-0.043881
C82	C	0.371723	1.746986	-0.281308
C83	C	0.705057	2.080319	0.052026
C84	C	1.038390	2.413652	0.385359
C85	C	0.352013	1.865042	-0.266296
C86	C	0.685346	2.198375	0.067037
C87	C	1.018679	2.531708	0.400370
C88	C	0.407892	1.462336	0.123005
C89	C	0.741225	1.795669	0.456338
C90	C	1.074559	2.129002	0.789671
C91	C	0.428333	1.477850	0.245027
C92	C	0.761667	1.811183	0.578360
C93	C	1.095000	2.144516	0.911694
H94	H	0.508362	0.857189	-0.385376
H95	H	0.841696	1.190523	-0.052043
H96	H	1.175029	1.523856	0.281290
H97	H	0.327452	1.083785	-0.247600
H98	H	0.660785	1.417119	0.085733
H99	H	0.994118	1.750452	0.419066
F100	F	0.246892	1.340225	0.221105
F101	F	0.580225	1.673559	0.554438
F102	F	0.913558	2.006892	0.887772
H103	H	0.327457	1.401315	0.070705
H104	H	0.660791	1.734648	0.404039
H105	H	0.994124	2.067982	0.737372
H106	H	0.271752	0.917326	-0.205179
H107	H	0.605085	1.250659	0.128154
H108	H	0.938418	1.583993	0.461488
H109	H	0.564041	1.023644	-0.427780
H110	H	0.897375	1.356978	-0.094447
H111	H	1.230708	1.690311	0.238887
F112	F	0.533493	1.557604	0.313376
F113	F	0.866826	1.890938	0.646709
F114	F	1.200159	2.224271	0.980043
F115	F	0.589327	1.599941	0.146928
F116	F	0.922660	1.933274	0.480261
F117	F	1.255994	2.266607	0.813594
