data_functionalizedCrystal
_audit_creation_method	'MofGen! by Chris Wilmer'
_symmetry_space_group_name_H-M	'P1'
_symmetry_Int_Tables_number	1
_symmetry_cell_setting	triclinic
loop_
_symmetry_equiv_pos_as_xyz
  x,y,z
_cell_length_a	20.919309
_cell_length_b	14.446369
_cell_length_c	14.446369
_cell_angle_alpha	60.000250
_cell_angle_beta	90.000599
_cell_angle_gamma	57.442498
loop_
_atom_site_label
_atom_site_type_symbol
_atom_site_fract_x
_atom_site_fract_y
_atom_site_fract_z
Zr1	Zr	0.641770	0.940909	-0.085371
O2	O	0.535401	1.146008	-0.239172
O3	O	0.674378	0.744118	-0.038216
O4	O	0.674379	0.937226	-0.231335
O5	O	0.535399	0.952908	0.106276
O6	O	0.784009	0.924871	-0.225160
O7	O	0.535399	0.952899	-0.046053
O8	O	0.784006	0.579435	0.120295
O9	O	0.535402	1.298343	-0.239179
O10	O	0.770101	0.812764	-0.013504
O11	O	0.688285	0.821990	0.095569
O12	O	0.688287	1.049350	-0.131804
O13	O	0.606471	1.058577	-0.022731
Zr14	Zr	0.816617	0.921217	0.167425
Zr15	Zr	0.816617	0.921204	-0.075522
Zr16	Zr	0.641770	0.940922	0.157576
Zr17	Zr	0.641772	1.183867	-0.085382
Zr18	Zr	0.816615	0.678260	0.167436
O19	O	0.784009	1.118009	0.120270
O20	O	0.784010	1.117990	-0.225169
O21	O	0.535400	1.146027	0.106267
O22	O	0.922986	0.716119	0.321227
O23	O	0.922987	0.716100	-0.024213
O24	O	0.674377	0.744137	0.307223
O25	O	0.922988	0.909219	-0.024221
O26	O	0.784008	0.924901	0.313389
O27	O	0.674378	0.937256	0.307214
O28	O	0.922988	0.909227	0.128107
O29	O	0.674381	1.282681	-0.231351
O30	O	0.784006	0.579446	0.313405
O31	O	0.922985	0.563783	0.321233
O32	O	0.922986	0.563773	0.128123
O33	O	0.535401	1.298354	-0.046069
O34	O	0.674381	1.282691	-0.038241
O35	O	0.770100	0.812776	0.213858
O36	O	0.851916	0.803549	0.104786
O37	O	0.770102	1.040136	-0.013514
O38	O	0.688287	1.049363	0.095558
C39	C	0.729192	0.627160	0.041041
C40	C	0.729191	0.524018	0.041046
C41	C	0.677837	0.382800	0.110180
C42	C	0.677558	0.490451	0.109873
C43	C	0.691549	0.577250	-0.084610
C44	C	0.691163	0.470060	-0.084257
C45	C	0.818223	0.280529	0.096505
C46	C	0.818092	0.386695	0.099019
C47	C	0.510487	0.955711	0.028708
C48	C	0.436260	0.964076	0.024527
C49	C	0.444092	0.844513	0.084308
C50	C	0.374345	0.852382	0.080377
C51	C	0.296767	0.979814	0.016657
C52	C	0.288937	1.099385	-0.043126
C53	C	0.358683	1.091516	-0.039187
C54	C	0.084043	1.009753	0.001683
C55	C	0.014295	1.017613	-0.002254
C56	C	0.099708	0.770608	0.121251
C57	C	0.169452	0.762750	0.125178
C58	C	0.161616	0.882322	0.065400
C59	C	0.225474	0.987859	0.012635
C60	C	0.232908	0.874275	0.069430
C61	C	0.947900	0.906415	0.053346
C62	C	1.022127	0.898050	0.057527
C63	C	0.729194	0.931047	-0.262862
C64	C	0.729194	0.931041	-0.366000
C65	C	0.729195	1.234966	0.041013
C66	C	0.729196	1.338108	0.041009
C67	C	0.781051	0.781812	-0.438054
C68	C	0.780826	0.781740	-0.330738
C69	C	0.640296	1.012287	-0.445570
C70	C	0.640580	1.011345	-0.552413
C71	C	0.765517	1.000218	-0.546949
C72	C	0.767316	0.997313	-0.438176
C73	C	0.729193	0.931080	0.344917
C74	C	0.729193	0.931086	0.448054
C75	C	0.947898	0.602512	0.053360
C76	C	1.022124	0.491005	0.057546
C77	C	0.729191	0.627177	0.344930
C78	C	0.729190	0.524041	0.448072
C79	C	0.947898	0.602529	0.357250
C80	C	1.022124	0.491028	0.464572
C81	C	0.510489	1.259597	-0.275195
C82	C	0.436263	1.371099	-0.382518
C83	C	0.510489	1.259614	0.028694
C84	C	0.436263	1.371121	0.024508
C85	C	0.729196	1.234950	-0.262876
C86	C	0.729197	1.338086	-0.366018
C87	C	1.014275	0.443450	-0.002245
C88	C	1.084012	0.338691	0.001665
C89	C	1.161597	0.281483	0.065373
C90	C	1.169445	0.329048	0.125165
C91	C	1.099709	0.433812	0.121248
C92	C	1.099695	0.433848	0.458038
C93	C	1.169445	0.329094	0.558870
C94	C	1.161622	0.281513	0.666236
C95	C	1.084042	0.338703	0.672768
C96	C	1.014294	0.443463	0.571937
C97	C	0.358692	1.428290	-0.375984
C98	C	0.288942	1.533075	-0.476816
C99	C	0.296765	1.580660	-0.584182
C100	C	0.374345	1.523464	-0.590714
C101	C	0.444093	1.418688	-0.489882
C102	C	0.444112	1.418687	0.084289
C103	C	0.374375	1.523472	0.080352
C104	C	0.296790	1.580684	0.016641
C105	C	0.288943	1.533114	-0.043146
C106	C	0.358678	1.428337	-0.039216
C107	C	0.677339	0.383570	0.520141
C108	C	0.677559	0.490466	0.412820
C109	C	0.818090	0.387169	0.527639
C110	C	0.817811	0.279825	0.634487
C111	C	0.692875	0.468878	0.629028
C112	C	0.691072	0.577551	0.520250
H113	H	0.612555	0.425918	0.071798
H114	H	0.106079	0.673260	0.169919
H115	H	0.849673	0.183243	0.187843
C116	C	0.721608	1.143869	-0.475221
H117	H	0.745941	1.181341	-0.518634
H118	H	0.666082	1.198124	-0.520960
H119	H	0.724616	1.142550	-0.408908
H120	H	0.702756	0.450157	0.360455
C121	C	0.529419	1.355737	-0.497078
H122	H	0.569845	1.286513	-0.421656
H123	H	0.535499	1.317263	-0.537008
H124	H	0.535557	1.424599	-0.537003
C125	C	0.529447	1.355771	0.154377
H126	H	0.524122	1.399128	0.189402
H127	H	0.558428	1.261015	0.212173
H128	H	0.558430	1.368388	0.104783
C129	C	0.855790	0.917191	-0.363729
H130	H	0.869446	0.843661	-0.288968
H131	H	0.891689	0.882429	-0.397924
H132	H	0.860814	0.976053	-0.358344
C133	C	0.350074	1.375966	-0.257892
H134	H	0.402719	1.305365	-0.198766
H135	H	0.321102	1.448805	-0.251028
H136	H	0.321090	1.341429	-0.251026
C137	C	0.585535	1.159699	-0.661675
H138	H	0.563094	1.220276	-0.640629
H139	H	0.616888	1.175060	-0.705892
H140	H	0.542646	1.175290	-0.705901
H141	H	0.296075	0.770520	0.121315
C142	C	0.602664	0.534997	-0.143822
H143	H	0.567286	0.626506	-0.168002
H144	H	0.598635	0.533989	-0.208761
H145	H	0.587468	0.484566	-0.091434
H146	H	1.232608	0.282540	0.553532
H147	H	0.856669	0.250219	0.046432
C148	C	0.601289	0.947408	-0.554273
H149	H	0.585309	0.922244	-0.489848
H150	H	0.554724	1.011787	-0.623081
H151	H	0.639600	0.868728	-0.551014
C152	C	0.856079	0.328900	0.224112
H153	H	0.817929	0.388207	0.240946
H154	H	0.869858	0.241253	0.274746
H155	H	0.903880	0.321609	0.233811
H156	H	0.599980	1.122328	-0.475076
C157	C	0.857086	0.152801	0.636335
H158	H	0.873058	0.167161	0.571904
H159	H	0.903653	0.075786	0.705137
H160	H	0.818765	0.137110	0.633077
H161	H	0.239965	1.665976	-0.666276
H162	H	0.225780	1.579627	-0.471475
C163	C	-0.071042	1.157794	-0.072335
H164	H	-0.065720	1.227881	-0.107363
H165	H	-0.100028	1.166006	-0.130130
H166	H	-0.100019	1.165981	-0.022733
H167	H	0.507256	0.740744	0.136201
H168	H	0.077652	1.107116	-0.047013
C169	C	0.382963	0.720862	0.146126
H170	H	0.439154	0.643842	0.184625
H171	H	0.357532	0.718787	0.200850
H172	H	0.357530	0.718806	0.093456
C173	C	0.254783	0.622575	0.195270
H174	H	0.249458	0.552492	0.230318
H175	H	0.283766	0.614373	0.145683
H176	H	0.283765	0.614372	0.253067
C177	C	0.872561	0.411069	0.567496
H178	H	0.926026	0.327007	0.615499
H179	H	0.874769	0.473878	0.502346
H180	H	0.850497	0.447051	0.609254
H181	H	0.611889	0.586651	0.071177
H182	H	0.225767	1.203143	-0.095001
H183	H	0.727912	1.110127	-0.627271
H184	H	1.077606	0.299978	-0.047025
C185	C	0.711655	0.437039	0.234679
H186	H	0.725799	0.349203	0.286026
H187	H	0.758757	0.431189	0.246285
H188	H	0.671429	0.497766	0.248732
C189	C	0.350068	1.223035	-0.104951
H190	H	0.293877	1.300056	-0.143473
H191	H	0.375499	1.225103	-0.052296
H192	H	0.375503	1.225094	-0.159675
H193	H	0.846682	0.718122	-0.432016
C194	C	0.874144	0.409411	0.038644
H195	H	0.843925	0.503360	-0.022990
H196	H	0.918200	0.381842	0.092138
H197	H	0.894874	0.357063	0.009506
H198	H	0.611010	0.966115	-0.395615
H199	H	1.218374	0.196178	0.068554
C200	C	0.140140	1.128030	-0.057457
H201	H	0.145460	1.198119	-0.092496
H202	H	0.111157	1.136227	-0.115242
H203	H	0.111162	1.136227	-0.007858
C204	C	1.254790	0.266099	0.195248
H205	H	1.295192	0.196886	0.189022
H206	H	1.260926	0.334959	0.166304
H207	H	1.260911	0.227584	0.273673
H208	H	0.829991	0.947053	-0.547432
H209	H	0.951107	0.490028	-0.054136
C210	C	1.108353	0.486096	0.187037
H211	H	1.164549	0.437003	0.225546
H212	H	1.082926	0.580454	0.134402
H213	H	1.082930	0.473054	0.241775
H214	H	0.755634	0.728331	-0.278369
C215	C	0.872848	0.233148	0.743745
H216	H	0.895284	0.279804	0.722693
H217	H	0.841488	0.253166	0.787953
H218	H	0.915741	0.137669	0.787982
H219	H	1.106081	0.472572	0.370625
C220	C	1.238350	0.166270	0.777141
H221	H	1.285667	0.139027	0.757862
H222	H	1.238366	0.198020	0.820990
H223	H	1.238360	0.090645	0.820981
H224	H	0.352276	1.389613	-0.087894
H225	H	0.702953	0.291106	0.202788
H226	H	0.380705	1.562221	-0.678143
C227	C	0.928970	0.506335	0.579139
H228	H	0.934308	0.462976	0.657526
H229	H	0.899972	0.601096	0.542170
H230	H	0.899995	0.493689	0.542183
H231	H	0.726155	0.444145	-0.138897
H232	H	0.625579	0.675424	0.465137
C233	C	0.383018	1.575784	0.146120
H234	H	0.330378	1.646394	0.134647
H235	H	0.411993	1.502949	0.225825
H236	H	0.412006	1.610310	0.118439
C237	C	0.736799	0.615785	0.557318
H238	H	0.779932	0.599531	0.529141
H239	H	0.700090	0.709549	0.526831
H240	H	0.758604	0.561826	0.638864
H241	H	0.727159	0.602019	-0.138619
C242	C	0.603905	0.711846	-0.144533
H243	H	0.590120	0.735788	-0.093174
H244	H	0.600420	0.782066	-0.210971
H245	H	0.567103	0.700712	-0.166405
C246	C	0.857650	0.330605	0.460165
H247	H	0.820130	0.390185	0.383529
H248	H	0.905334	0.323941	0.459251
H249	H	0.871878	0.242792	0.496080
C250	C	0.220088	1.695931	0.012331
H251	H	0.235882	1.716049	0.057070
H252	H	0.188533	1.775104	-0.065050
H253	H	0.188536	1.667721	0.042340
H254	H	1.077685	0.299948	0.760199
H255	H	0.846288	0.718479	-0.272775
H256	H	0.225763	1.579712	-0.095019
C257	C	0.589126	0.621123	0.334503
H258	H	0.552742	0.609197	0.368141
H259	H	0.582681	0.695718	0.325713
H260	H	0.577391	0.639040	0.261336
C261	C	0.605777	0.532158	0.629678
H262	H	0.590751	0.479426	0.633004
H263	H	0.603989	0.533276	0.694840
H264	H	0.568852	0.622808	0.561567
C265	C	0.743653	0.429676	0.737551
H266	H	0.786775	0.334129	0.785700
H267	H	0.765761	0.476853	0.715979
H268	H	0.709749	0.453832	0.777940
H269	H	0.756087	0.728611	-0.438424
H270	H	0.611709	0.428205	0.514107
H271	H	0.702301	0.291090	0.520515
