data_functionalizedCrystal
_audit_creation_method	'MofGen! by Chris Wilmer'
_symmetry_space_group_name_H-M	'P1'
_symmetry_Int_Tables_number	1
_symmetry_cell_setting	triclinic
loop_
_symmetry_equiv_pos_as_xyz
  x,y,z
_cell_length_a	10.654550
_cell_length_b	14.519731
_cell_length_c	9.730223
_cell_angle_alpha	89.997677
_cell_angle_beta	89.996251
_cell_angle_gamma	84.086878
loop_
_atom_site_label
_atom_site_type_symbol
_atom_site_fract_x
_atom_site_fract_y
_atom_site_fract_z
O1	O	1.666602	0.129527	-0.114406
O2	O	1.301006	0.141868	-0.114385
O3	O	1.493483	0.001510	-0.114384
O4	O	1.474125	0.269884	-0.114407
O5	O	1.493481	0.001514	0.114196
O6	O	1.301004	0.141871	0.114195
O7	O	1.666600	0.129531	0.114174
Zn8	Zn	1.483802	0.135702	0.150476
Zn9	Zn	1.483804	0.135697	-0.150687
O10	O	1.474123	0.269888	0.114173
C11	C	1.254216	0.140964	-0.000092
C12	C	1.114798	0.138253	-0.000083
C13	C	1.034527	0.220893	-0.000110
C14	C	0.903530	0.218340	-0.000134
C15	C	0.933090	0.050499	-0.000108
C16	C	1.064084	0.053053	-0.000075
C17	C	1.017459	0.317794	-0.000131
C18	C	0.886463	0.315241	-0.000155
C19	C	1.492575	-0.032852	-0.000093
C20	C	1.489857	-0.135246	-0.000092
C21	C	1.487649	-0.218402	-0.000095
C22	C	1.484889	-0.322725	-0.000106
C23	C	1.482699	-0.405875	-0.000114
C24	C	1.479939	-0.510205	-0.000122
C25	C	1.713390	0.130435	-0.000122
C26	C	1.852808	0.133146	-0.000140
C27	C	1.475031	0.304250	-0.000121
C28	C	1.477749	0.406645	-0.000131
N29	N	1.483809	0.135704	0.356013
N30	N	1.483807	0.135687	-0.356224
C31	C	1.569059	0.073575	0.427939
C32	C	1.569056	0.073564	0.571822
C33	C	1.398547	0.197819	0.571840
C34	C	1.398546	0.197825	0.427959
C35	C	1.667505	0.001840	0.427931
C36	C	1.667502	0.001829	0.571814
H37	H	1.046429	0.355694	0.095531
O38	O	1.782352	0.020792	0.618565
C39	C	1.768113	0.101959	0.699013
H40	H	1.667463	0.113284	0.739980
H41	H	1.837094	0.094486	0.788846
H42	H	1.788271	0.163742	0.633269
O43	O	0.836040	0.358790	-0.114189
C44	C	0.704133	0.356117	-0.114012
H45	H	0.670296	0.346429	-0.004309
H46	H	0.656384	0.423836	-0.157256
H47	H	0.679057	0.295927	-0.180327
O48	O	1.315557	0.258068	0.641671
C49	C	1.191216	0.242239	0.606490
H50	H	1.190442	0.168400	0.566927
H51	H	1.128214	0.252406	0.701115
H52	H	1.154445	0.293111	0.522981
O53	O	1.315901	0.258216	0.357943
C54	C	1.383274	0.315598	0.274744
H55	H	1.481457	0.279544	0.253173
H56	H	1.330886	0.329837	0.173574
H57	H	1.391956	0.383813	0.330203
H58	H	0.891782	-0.018867	-0.000123
O59	O	1.642554	-0.082643	0.381179
C60	C	1.531908	-0.072799	0.300758
H61	H	1.515718	0.001029	0.259800
H62	H	1.542590	-0.123396	0.210920
H63	H	1.447945	-0.088071	0.366522
O64	O	1.775907	0.028812	0.374629
C65	C	1.747396	0.108513	0.293124
H66	H	1.652993	0.145795	0.326750
H67	H	1.824535	0.156705	0.306119
H68	H	1.741608	0.087489	0.180599
O69	O	1.142006	-0.027249	-0.000278
C70	C	1.118999	-0.078949	-0.118636
H71	H	1.074371	-0.030558	-0.201406
H72	H	1.211861	-0.115344	-0.158337
H73	H	1.052166	-0.132752	-0.091876
O74	O	1.059568	0.354762	-0.117784
C75	C	1.002450	0.446165	-0.133256
H76	H	0.970355	0.474907	-0.028555
H77	H	1.073398	0.491104	-0.179316
H78	H	0.917411	0.446394	-0.204407
O79	O	0.831806	0.350085	0.117707
C80	C	0.881971	0.297793	0.230728
H81	H	0.978639	0.261743	0.202419
H82	H	0.891762	0.345671	0.322101
H83	H	0.816080	0.243684	0.259055
O84	O	1.631715	-0.078087	0.624883
C85	C	1.508599	-0.090015	0.580041
H86	H	1.487507	-0.049178	0.481199
H87	H	1.500970	-0.166599	0.560050
H88	H	1.437766	-0.063912	0.662610
