data_functionalizedCrystal
_audit_creation_method	'MofGen! by Chris Wilmer'
_symmetry_space_group_name_H-M	'P1'
_symmetry_Int_Tables_number	1
_symmetry_cell_setting	triclinic
loop_
_symmetry_equiv_pos_as_xyz
  x,y,z
_cell_length_a	16.959455
_cell_length_b	16.959454
_cell_length_c	16.959447
_cell_angle_alpha	89.974537
_cell_angle_beta	89.982031
_cell_angle_gamma	90.017022
loop_
_atom_site_label
_atom_site_type_symbol
_atom_site_fract_x
_atom_site_fract_y
_atom_site_fract_z
Zn1	Zn	1.208412	-0.314740	-0.446928
Zn2	Zn	1.208326	-0.446930	-0.314758
Zn3	Zn	1.076232	-0.314762	-0.314766
Zn4	Zn	1.076205	-0.446874	-0.446897
O5	O	1.142294	-0.380826	-0.380837
O6	O	1.319012	-0.332290	-0.429406
O7	O	1.190779	-0.429430	-0.204148
O8	O	1.093813	-0.204148	-0.332314
O9	O	1.318949	-0.429409	-0.332301
O10	O	1.190925	-0.204132	-0.429413
O11	O	1.093730	-0.332327	-0.204154
O12	O	0.965618	-0.332273	-0.332283
O13	O	1.093768	-0.429313	-0.557512
O14	O	0.965598	-0.429334	-0.429359
O15	O	1.190899	-0.332235	-0.557535
O16	O	1.190753	-0.557533	-0.332270
O17	O	1.093684	-0.557492	-0.429352
C18	C	0.936928	-0.380800	-0.380819
C19	C	0.849071	-0.380808	-0.380830
C20	C	0.477581	-0.330245	-0.330395
C21	C	0.477610	-0.431473	-0.431324
C22	C	0.560156	-0.431462	-0.431320
C23	C	0.601418	-0.380842	-0.380851
C24	C	0.560135	-0.330234	-0.330387
C25	C	0.601445	-0.482075	-0.481777
C26	C	0.683996	-0.482066	-0.481773
C27	C	0.725260	-0.431442	-0.431308
C28	C	0.683972	-0.380831	-0.380843
C29	C	0.725234	-0.330211	-0.330374
C30	C	0.683948	-0.279596	-0.279913
C31	C	0.601399	-0.279610	-0.279922
C32	C	0.807809	-0.431428	-0.431299
C33	C	0.807788	-0.330200	-0.330366
C34	C	1.142228	-0.586193	-0.380824
C35	C	1.142272	-0.674049	-0.380844
C36	C	1.091824	-1.045533	-0.431382
C37	C	1.192985	-1.045516	-0.330373
C38	C	1.192957	-0.962970	-0.330365
C39	C	1.142361	-0.921702	-0.380867
C40	C	1.091793	-0.962980	-0.431375
C41	C	1.243519	-0.921687	-0.279852
C42	C	1.243492	-0.839136	-0.279842
C43	C	1.192900	-0.797866	-0.330348
C44	C	1.142330	-0.839149	-0.380859
C45	C	1.091734	-0.797880	-0.431360
C46	C	1.041168	-0.839162	-0.481876
C47	C	1.041200	-0.921710	-0.481881
C48	C	1.192868	-0.715318	-0.330343
C49	C	1.091704	-0.715327	-0.431353
C50	C	1.348462	-0.380853	-0.380856
C51	C	1.436319	-0.380865	-0.380864
C52	C	1.142340	-0.380766	-0.587006
C53	C	1.142360	-0.380740	-0.674862
C54	C	1.142382	-0.174658	-0.380868
C55	C	1.142420	-0.086802	-0.380881
C56	C	1.192899	-0.431283	-0.716135
C57	C	1.091834	-0.330176	-0.716143
C58	C	1.091848	-0.330153	-0.798689
C59	C	1.142387	-0.380696	-0.839962
C60	C	1.192912	-0.431263	-0.798688
C61	C	1.041318	-0.279592	-0.839969
C62	C	1.041329	-0.279568	-0.922520
C63	C	1.091872	-0.330108	-0.963794
C64	C	1.142400	-0.380676	-0.922515
C65	C	1.192939	-0.431220	-0.963788
C66	C	1.243472	-0.481785	-0.922511
C67	C	1.243456	-0.481804	-0.839963
C68	C	1.091888	-0.330089	-1.046342
C69	C	1.192953	-0.431200	-1.046342
C70	C	1.142294	-0.380830	-0.175471
C71	C	1.142427	-0.380633	-0.087615
H72	H	0.443962	-0.289033	-0.289313
C73	C	0.556504	-0.536945	-0.536536
C74	C	0.475375	-0.526103	-0.525759
C75	C	0.433948	-0.576630	-0.576199
H76	H	0.569920	-0.590071	-0.524925
H77	H	0.570011	-0.525437	-0.589681
H78	H	0.461874	-0.537616	-0.472626
H79	H	0.461936	-0.472988	-0.537376
H80	H	0.447455	-0.565122	-0.629344
H81	H	0.447370	-0.629752	-0.564584
H82	H	0.378898	-0.569275	-0.568899
C83	C	0.986597	-0.224628	-0.967436
C84	C	1.031375	-0.173968	-1.014860
C85	C	0.980983	-0.123356	-1.056259
H86	H	0.956474	-0.194454	-0.931127
H87	H	0.952168	-0.254838	-0.999673
H88	H	1.065790	-0.143762	-0.982625
H89	H	1.061496	-0.204120	-1.051184
H90	H	0.946554	-0.153566	-1.088496
H91	H	0.950863	-0.093188	-1.019944
H92	H	1.011357	-0.088983	-1.088446
C93	C	0.852544	-0.275339	-0.275437
C94	C	0.832440	-0.292468	-0.197203
C95	C	0.873661	-0.241955	-0.146580
H96	H	0.839066	-0.222218	-0.286992
H97	H	0.907628	-0.282589	-0.282602
H98	H	0.777368	-0.285211	-0.190041
H99	H	0.845919	-0.345580	-0.185623
H100	H	0.928745	-0.249205	-0.153745
H101	H	0.860180	-0.188836	-0.158142
H102	H	0.860031	-0.253574	-0.093492
H103	H	1.234034	-0.681710	-0.289211
H104	H	1.234173	-1.079122	-0.289252
C105	C	1.036920	-0.275433	-0.671232
C106	C	0.986247	-0.320199	-0.623812
C107	C	0.935655	-0.269794	-0.582417
H108	H	1.006755	-0.245294	-0.707544
H109	H	1.067144	-0.241019	-0.638993
H110	H	0.956026	-0.354599	-0.656049
H111	H	1.016390	-0.350336	-0.587485
H112	H	0.965879	-0.235380	-0.550177
H113	H	0.905495	-0.239658	-0.618734
H114	H	0.901272	-0.300160	-0.550232
H115	H	1.234111	-0.472357	-1.079940
C116	C	0.728712	-0.224741	-0.224984
C117	C	0.708612	-0.241868	-0.146750
C118	C	0.749845	-0.191363	-0.096128
H119	H	0.715241	-0.171617	-0.236537
H120	H	0.783794	-0.231998	-0.232155
H121	H	0.653542	-0.234604	-0.139583
H122	H	0.722085	-0.294983	-0.135172
H123	H	0.804928	-0.198621	-0.103299
H124	H	0.736371	-0.138242	-0.107688
H125	H	0.736219	-0.202982	-0.043040
H126	H	1.284618	-0.522941	-0.956126
C127	C	0.728675	-0.537042	-0.536649
C128	C	0.674870	-0.581361	-0.580861
C129	C	0.716000	-0.632003	-0.631430
H130	H	0.760866	-0.571510	-0.506443
H131	H	0.760876	-0.506859	-0.571181
H132	H	0.642682	-0.611541	-0.546333
H133	H	0.642677	-0.546914	-0.611084
H134	H	0.748201	-0.601820	-0.665962
H135	H	0.748190	-0.666465	-0.601217
H136	H	0.679500	-0.662074	-0.661439
C137	C	1.298440	-0.794218	-0.225133
C138	C	1.349046	-0.746758	-0.269932
C139	C	1.399669	-0.705359	-0.219563
H140	H	1.328652	-0.830527	-0.195039
H141	H	1.268235	-0.762005	-0.190676
H142	H	1.379248	-0.778967	-0.304376
H143	H	1.318856	-0.710433	-0.300025
H144	H	1.369464	-0.673146	-0.185106
H145	H	1.429875	-0.741674	-0.189472
H146	H	1.434006	-0.673147	-0.249952
H147	H	1.050744	-0.288921	-1.079946
H148	H	0.999969	-0.805551	-0.522991
H149	H	1.050656	-1.079148	-0.472513
C150	C	0.986427	-0.966633	-0.536761
C151	C	1.031167	-1.013988	-0.587451
C152	C	0.980735	-1.055394	-0.638007
H153	H	0.956270	-0.930327	-0.566915
H154	H	0.952031	-0.998917	-0.506511
H155	H	1.065548	-0.981707	-0.617698
H156	H	1.061322	-1.050309	-0.557319
H157	H	0.946340	-1.087678	-0.607757
H158	H	0.950581	-1.019082	-0.668155
H159	H	1.011083	-1.087534	-0.672401
C160	C	0.986405	-0.224851	-0.795054
C161	C	0.935741	-0.269618	-0.747626
C162	C	0.885151	-0.219215	-0.706226
H163	H	0.956233	-0.194715	-0.831363
H164	H	1.016631	-0.190434	-0.762820
H165	H	0.905517	-0.304021	-0.779858
H166	H	0.965890	-0.299752	-0.711302
H167	H	0.915377	-0.184798	-0.673992
H168	H	0.854985	-0.189082	-0.742541
H169	H	0.850774	-0.249582	-0.674036
C170	C	1.298258	-0.536836	-0.795245
C171	C	1.281027	-0.615033	-0.815325
C172	C	1.331496	-0.665752	-0.774150
H173	H	1.291054	-0.529717	-0.740160
H174	H	1.351390	-0.525323	-0.808791
H175	H	1.227908	-0.626542	-0.801773
H176	H	1.288236	-0.622177	-0.870403
H177	H	1.384628	-0.654239	-0.787697
H178	H	1.324288	-0.658626	-0.719067
H179	H	1.319817	-0.718814	-0.787774
C180	C	0.852777	-0.486346	-0.485992
C181	C	0.933901	-0.475515	-0.475173
C182	C	0.975349	-0.526101	-0.525538
H183	H	0.839366	-0.474902	-0.539154
H184	H	0.839282	-0.539458	-0.474322
H185	H	0.947390	-0.422414	-0.486849
H186	H	0.947335	-0.486964	-0.422021
H187	H	0.961854	-0.579214	-0.513868
H188	H	0.961932	-0.514653	-0.578698
H189	H	1.030396	-0.518764	-0.518199
C190	C	0.556431	-0.224741	-0.225175
C191	C	0.475307	-0.235600	-0.235972
C192	C	0.433855	-0.185075	-0.185549
H193	H	0.569878	-0.171615	-0.236789
H194	H	0.569886	-0.236239	-0.172025
H195	H	0.461857	-0.224096	-0.289110
H196	H	0.461836	-0.288716	-0.224352
H197	H	0.447310	-0.196573	-0.132399
H198	H	0.447309	-0.131952	-0.197167
H199	H	0.378809	-0.192441	-0.192863
C200	C	1.036685	-0.670667	-0.486217
C201	C	0.992400	-0.724489	-0.530441
C202	C	0.941703	-0.683378	-0.580983
H203	H	1.066803	-0.638421	-0.520749
H204	H	1.002205	-0.638522	-0.455966
H205	H	1.026876	-0.756620	-0.560690
H206	H	0.962266	-0.756737	-0.495930
H207	H	0.907223	-0.651233	-0.550732
H208	H	0.971827	-0.651134	-0.615510
H209	H	0.911645	-0.719890	-0.610990
H210	H	0.444009	-0.472690	-0.472409
C211	C	1.298336	-0.966634	-0.225030
C212	C	1.287519	-1.047761	-0.235831
C213	C	1.337977	-1.089195	-0.185312
H214	H	1.286765	-0.953198	-0.171905
H215	H	1.351478	-0.953152	-0.236572
H216	H	1.234389	-1.061238	-0.224284
H217	H	1.299096	-1.061221	-0.288946
H218	H	1.391120	-1.075713	-0.196854
H219	H	1.326402	-1.075752	-0.132190
H220	H	1.330650	-1.144244	-0.192639
C221	C	1.247673	-0.486152	-0.671183
C222	C	1.236838	-0.475367	-0.590056
C223	C	1.287275	-0.525906	-0.548622
H224	H	1.300820	-0.474634	-0.684631
H225	H	1.236079	-0.539274	-0.684653
H226	H	1.248438	-0.422258	-0.576591
H227	H	1.183702	-0.486891	-0.576585
H228	H	1.275681	-0.579028	-0.562091
H229	H	1.340418	-0.514384	-0.562075
H230	H	1.279925	-0.518601	-0.493573
