data_functionalizedCrystal
_audit_creation_method	'MofGen! by Chris Wilmer'
_symmetry_space_group_name_H-M	'P1'
_symmetry_Int_Tables_number	1
_symmetry_cell_setting	triclinic
loop_
_symmetry_equiv_pos_as_xyz
  x,y,z
_cell_length_a	14.971486
_cell_length_b	11.792241
_cell_length_c	14.048226
_cell_angle_alpha	89.993434
_cell_angle_beta	89.998499
_cell_angle_gamma	83.903772
loop_
_atom_site_label
_atom_site_type_symbol
_atom_site_fract_x
_atom_site_fract_y
_atom_site_fract_z
O1	O	1.187540	0.147909	-0.079051
O2	O	0.927210	0.165622	-0.079077
O3	O	1.063692	-0.008446	-0.079057
O4	O	1.051058	0.321977	-0.079072
O5	O	1.063676	-0.008456	0.079264
O6	O	0.927194	0.165611	0.079244
O7	O	1.187523	0.147899	0.079270
Zn8	Zn	1.057356	0.156753	0.104394
Zn9	Zn	1.057378	0.156767	-0.104201
O10	O	1.051041	0.321966	0.079250
C11	C	0.893874	0.164824	0.000080
C12	C	0.794568	0.162451	0.000070
C13	C	1.062891	-0.050737	0.000103
C14	C	1.060515	-0.176735	0.000102
C15	C	0.737752	0.264710	0.000067
C16	C	0.644444	0.262473	0.000081
C17	C	0.607953	0.157975	0.000092
C18	C	0.664776	0.055707	0.000098
C19	C	0.758082	0.057946	0.000091
C20	C	0.470294	0.051049	0.000111
C21	C	0.376981	0.048810	0.000117
C22	C	0.356656	0.255577	0.000102
C23	C	0.449963	0.257815	0.000095
C24	C	0.506779	0.155547	0.000099
C25	C	1.056147	-0.407419	0.000086
C26	C	1.058574	-0.279050	0.000095
C27	C	1.220859	0.148696	0.000110
C28	C	1.320166	0.151070	0.000114
C29	C	1.051843	0.364257	0.000087
C30	C	1.054218	0.490256	0.000082
N31	N	1.057347	0.156744	0.246754
N32	N	1.057393	0.156768	-0.246562
C33	C	1.117801	0.079698	0.296582
C34	C	1.117807	0.079698	0.396239
C35	C	1.057363	0.156749	0.446068
C36	C	0.996903	0.233797	0.396234
C37	C	0.996894	0.233792	0.296578
C38	C	0.996929	0.233806	0.603948
C39	C	0.996940	0.233813	0.703611
C40	C	1.117843	0.079712	0.703609
C41	C	1.117833	0.079706	0.603953
C42	C	1.057374	0.156757	0.554126
H43	H	0.767455	0.349805	0.000058
N44	N	0.931716	0.316910	0.449976
H45	H	0.893416	0.365716	0.403286
H46	H	0.891970	0.273380	0.491339
H47	H	0.598187	0.345744	0.000078
H48	H	0.635057	-0.029377	0.000120
H49	H	0.479670	0.342907	0.000077
N50	N	0.531580	-0.059250	0.000111
H51	H	0.570749	-0.062936	0.058798
H52	H	0.494245	-0.125727	0.000079
H53	H	0.347274	-0.036282	0.000127
N54	N	0.295382	0.365883	0.000094
H55	H	0.230735	0.348613	0.000105
H56	H	0.307257	0.411422	0.058778
H57	H	0.947719	0.296555	0.744177
N58	N	0.819367	-0.052348	0.000101
H59	H	0.782093	-0.118888	0.000108
H60	H	0.858524	-0.055924	-0.058591
H61	H	1.167025	0.016959	0.256017
H62	H	1.167032	0.016961	0.436808
H63	H	1.167055	0.016971	0.563383
N64	N	1.183056	-0.003393	0.757344
H65	H	1.173890	0.008296	0.828036
H66	H	1.172341	-0.083934	0.739935
H67	H	0.947694	0.296545	0.563382
H68	H	0.947665	0.296528	0.256010
