data_functionalizedCrystal
_audit_creation_method	'MofGen! by Chris Wilmer'
_symmetry_space_group_name_H-M	'P1'
_symmetry_Int_Tables_number	1
_symmetry_cell_setting	triclinic
loop_
_symmetry_equiv_pos_as_xyz
  x,y,z
_cell_length_a	29.917948
_cell_length_b	29.917021
_cell_length_c	29.913391
_cell_angle_alpha	60.005297
_cell_angle_beta	60.010472
_cell_angle_gamma	59.993667
loop_
_atom_site_label
_atom_site_type_symbol
_atom_site_fract_x
_atom_site_fract_y
_atom_site_fract_z
O1	O	0.061938	-0.653075	0.546110
O2	O	0.023328	-0.508466	0.440017
O3	O	0.114898	-0.599963	0.439941
O4	O	-0.029633	-0.561578	0.546186
O5	O	0.145278	-0.569587	0.470242
O6	O	0.053708	-0.478090	0.470318
O7	O	0.092318	-0.622699	0.576411
Zn8	Zn	0.077836	-0.545572	0.528175
Zn9	Zn	0.037809	-0.585593	0.488253
O10	O	0.000747	-0.531202	0.576487
N11	N	0.105154	-0.518262	0.555424
N12	N	0.010496	-0.612908	0.461004
C13	C	0.164136	-0.309209	0.614352
C14	C	0.164251	-0.459335	0.764424
C15	C	0.164150	-0.459313	0.614341
C16	C	0.314282	-0.459305	0.614278
C17	C	0.180666	-0.358742	0.630849
C18	C	0.180732	-0.442815	0.714891
C19	C	0.264747	-0.442797	0.630809
C20	C	0.180676	-0.442802	0.630843
C21	C	0.143097	-0.246161	0.593354
C22	C	0.143120	-0.480326	0.593337
C23	C	0.201706	-0.421790	0.651848
C24	C	0.405963	-0.443499	0.565998
C25	C	0.463273	-0.462598	0.546874
C26	C	0.463297	-0.555329	0.582235
C27	C	0.405988	-0.536228	0.601360
C28	C	0.156905	-0.217495	0.537012
C29	C	0.137776	-0.160180	0.517926
C30	C	0.091035	-0.160201	0.611524
C31	C	0.110164	-0.217516	0.630611
C32	C	0.086772	-0.466488	0.607209
C33	C	0.067659	-0.485590	0.588108
C34	C	0.161236	-0.532368	0.541277
C35	C	0.180352	-0.513266	0.560371
C36	C	0.086942	-0.466529	0.856152
C37	C	0.067877	-0.485647	0.913465
C38	C	0.161489	-0.532436	0.913415
C39	C	0.180552	-0.513318	0.856101
C40	C	0.143277	-0.480363	0.827471
C41	C	0.377323	-0.480313	0.593239
C42	C	-0.111377	-0.650681	0.422736
C43	C	-0.027364	-0.650787	0.422929
C44	C	-0.048335	-0.671770	0.401835
C45	C	-0.064214	-0.763416	0.450041
C46	C	-0.045160	-0.820731	0.469172
C47	C	0.047573	-0.820841	0.433980
C48	C	0.028517	-0.763527	0.414847
C49	C	-0.140115	-0.664483	0.479060
C50	C	-0.197425	-0.645309	0.498058
C51	C	-0.197256	-0.598535	0.404405
C52	C	-0.139946	-0.617709	0.385407
C53	C	-0.041168	-0.594444	0.409067
C54	C	-0.022104	-0.575374	0.428250
C55	C	0.024568	-0.668986	0.475143
C56	C	0.005504	-0.688059	0.455967
C57	C	-0.041000	-0.594453	0.310105
C58	C	-0.021803	-0.575386	0.252792
C59	C	0.024951	-0.669004	0.252854
C60	C	0.005755	-0.688070	0.310168
C61	C	-0.027222	-0.650793	0.338792
C62	C	-0.027377	-0.734817	0.422881
N63	N	0.491125	-0.518235	0.555255
O64	O	0.678406	-0.527360	0.420422
O65	O	0.678588	-0.633782	0.564887
O66	O	0.678516	-0.633539	0.473265
O67	O	0.678478	-0.527602	0.512044
O68	O	0.587469	-0.603251	0.503685
O69	O	0.587541	-0.603493	0.595307
O70	O	0.587359	-0.497071	0.450842
Zn71	Zn	0.572994	-0.545473	0.527905
Zn72	Zn	0.692953	-0.585380	0.487825
O73	O	0.587431	-0.497313	0.542465
N74	N	0.774821	-0.612618	0.460470
N75	N	0.105125	-0.132348	0.555445
O76	O	-0.029633	0.055031	0.546198
O77	O	0.114837	0.055047	0.439777
O78	O	0.023189	0.055024	0.440050
O79	O	0.062016	0.055054	0.545925
O80	O	0.053572	-0.036031	0.470398
O81	O	0.145220	-0.036008	0.470125
O82	O	0.000750	-0.036024	0.576546
Zn83	Zn	0.077809	-0.050473	0.528154
Zn84	Zn	0.037778	0.069496	0.488169
O85	O	0.092399	-0.036001	0.576273
N86	N	0.010456	0.151371	0.460879
N87	N	0.105414	-0.518315	0.941279
O88	O	0.096182	-0.653057	1.128644
O89	O	-0.010215	-0.508539	1.128670
O90	O	-0.009968	-0.600172	1.128636
O91	O	0.095935	-0.561424	1.128678
O92	O	0.020367	-0.569808	1.037586
O93	O	0.020121	-0.478175	1.037620
O94	O	0.126517	-0.622693	1.037594
Zn95	Zn	0.078135	-0.545613	1.023151
Zn96	Zn	0.038167	-0.585619	1.143113
O97	O	0.126270	-0.531061	1.037628
N98	N	0.010887	-0.612923	1.224985
C99	C	0.034899	-0.475056	0.440551
C100	C	0.148298	-0.588365	0.440456
C101	C	0.080746	-0.656109	0.575876
C102	C	-0.032653	-0.542801	0.575971
C103	C	0.633086	-0.633292	0.598298
C104	C	0.632998	-0.632993	0.484834
C105	C	0.632857	-0.497559	0.417433
C106	C	0.632949	-0.497860	0.530895
C107	C	0.148191	0.009634	0.440259
C108	C	0.034733	0.009493	0.440634
C109	C	-0.032641	0.009502	0.576027
C110	C	0.080854	0.009529	0.575690
C111	C	-0.009699	-0.475150	1.083148
C112	C	-0.009388	-0.588620	1.083088
C113	C	0.126001	-0.656082	1.083116
C114	C	0.125697	-0.542605	1.083155
H115	H	0.022003	-0.474373	0.936811
C116	C	0.091820	0.009564	0.620106
C117	C	0.045123	0.009573	0.666998
C118	C	0.055201	0.009612	0.707922
H119	H	0.121668	-0.022176	0.628686
H120	H	0.100477	0.041334	0.607479
H121	H	0.036473	-0.022194	0.679622
H122	H	0.015269	0.041310	0.658436
H123	H	0.063859	0.041382	0.695296
H124	H	0.085050	-0.022128	0.716497
H125	H	0.023518	0.009623	0.739741
H126	H	0.191560	-0.559196	0.514439
H127	H	0.159407	-0.697586	1.083101
C128	C	0.203650	-0.599166	0.395944
C129	C	0.227706	-0.561801	0.381334
C130	C	0.278693	-0.571730	0.340326
H131	H	0.226684	-0.635379	0.409161
H132	H	0.198882	-0.595024	0.364814
H133	H	0.232477	-0.565948	0.412458
H134	H	0.204688	-0.525585	0.368108
H135	H	0.273925	-0.567588	0.309196
H136	H	0.301722	-0.607943	0.353547
H137	H	0.295019	-0.546377	0.330405
H138	H	-0.074131	0.009496	0.609437
C139	C	0.632903	-0.677312	0.473781
C140	C	0.586030	-0.658567	0.461040
C141	C	0.585919	-0.699382	0.450862
H142	H	0.664599	-0.685840	0.443890
H143	H	0.632918	-0.709186	0.505418
H144	H	0.586020	-0.626703	0.429407
H145	H	0.554326	-0.650043	0.490925
H146	H	0.585934	-0.731255	0.482499
H147	H	0.617617	-0.707907	0.420972
H148	H	0.554114	-0.686671	0.442222
C149	C	-0.053792	-0.599657	1.083133
C150	C	-0.099621	-0.593617	1.129967
C151	C	-0.140534	-0.603788	1.130032
H152	H	-0.063812	-0.574403	1.051408
H153	H	-0.040438	-0.635915	1.083142
H154	H	-0.112974	-0.557365	1.129953
H155	H	-0.089619	-0.618870	1.161700
H156	H	-0.127180	-0.640046	1.130041
H157	H	-0.150549	-0.578532	1.098304
H158	H	-0.171632	-0.599696	1.161810
H159	H	0.026418	0.009490	0.407371
C160	C	-0.054181	-0.419782	1.083185
C161	C	-0.034570	-0.385999	1.083215
C162	C	-0.075533	-0.334992	1.083257
H163	H	-0.064161	-0.403328	1.051440
H164	H	-0.085291	-0.424553	1.114946
H165	H	-0.003469	-0.381226	1.051457
H166	H	-0.024593	-0.402435	1.114958
H167	H	-0.106643	-0.339763	1.115018
H168	H	-0.085510	-0.318543	1.051511
H169	H	-0.062234	-0.312066	1.083282
H170	H	0.158967	-0.534314	1.083161
H171	H	0.191844	-0.559260	0.936723
C172	C	0.046382	-0.430775	0.825169
C173	C	-0.007035	-0.422762	0.862556
C174	C	-0.044411	-0.389838	0.834034
H175	H	0.051799	-0.396390	0.802813
H176	H	0.051841	-0.448269	0.802823
H177	H	-0.012491	-0.405267	0.884893
H178	H	-0.012469	-0.457138	0.884913
H179	H	-0.038953	-0.407332	0.811688
H180	H	-0.038989	-0.355455	0.811679
H181	H	-0.080658	-0.384401	0.859397
C182	C	0.632905	-0.453544	0.542070
C183	C	0.632948	-0.473395	0.595512
C184	C	0.632900	-0.432584	0.605828
H185	H	0.664622	-0.443520	0.516848
H186	H	0.601117	-0.422420	0.538048
H187	H	0.664732	-0.504509	0.599529
H188	H	0.601233	-0.483415	0.620745
H189	H	0.601112	-0.401460	0.601805
H190	H	0.664617	-0.422563	0.580602
H191	H	0.632924	-0.446045	0.642090
C192	C	0.203375	0.009940	0.395538
C193	C	0.203257	0.010016	0.348753
C194	C	0.254087	0.010285	0.307549
H195	H	0.209934	0.041755	0.386943
H196	H	0.231377	-0.021754	0.407917
H197	H	0.175262	0.041707	0.336375
H198	H	0.196707	-0.021797	0.357329
H199	H	0.282089	-0.021409	0.319929
H200	H	0.260642	0.042100	0.298960
H201	H	0.254015	0.010331	0.275803
C202	C	0.241742	-0.528376	0.825061
C203	C	0.270302	-0.561312	0.862404
C204	C	0.326669	-0.575186	0.833832
H205	H	0.251203	-0.547846	0.802698
H206	H	0.251144	-0.495972	0.802718
H207	H	0.260903	-0.593710	0.884738
H208	H	0.260856	-0.541853	0.884768
H209	H	0.336071	-0.542782	0.811488
H210	H	0.336125	-0.594654	0.811470
H211	H	0.346054	-0.597530	0.859164
H212	H	0.088995	-0.697649	0.609197
C213	C	0.632755	-0.452925	0.362158
C214	C	0.632710	-0.406142	0.362237
C215	C	0.632608	-0.365012	0.311331
H216	H	0.664483	-0.465380	0.334238
H217	H	0.600978	-0.444298	0.355499
H218	H	0.664484	-0.414769	0.368890
H219	H	0.600985	-0.393671	0.390147
H220	H	0.600832	-0.356385	0.304671
H221	H	0.664337	-0.377472	0.283414
H222	H	0.632573	-0.333264	0.311379
C223	C	0.046261	-0.430704	0.642966
C224	C	-0.007176	-0.422659	0.651007
C225	C	-0.044509	-0.389692	0.683939
H226	H	0.051717	-0.448164	0.677340
H227	H	0.051724	-0.396330	0.625468
H228	H	-0.012637	-0.457027	0.668506
H229	H	-0.012650	-0.405194	0.616643
H230	H	-0.039046	-0.355318	0.666441
H231	H	-0.039048	-0.407155	0.718311
H232	H	-0.080771	-0.384225	0.689395
H233	H	0.226235	-0.524529	0.549071
C234	C	0.006496	-0.470684	0.603190
C235	C	-0.007174	-0.518544	0.631814
C236	C	-0.063509	-0.504835	0.645710
H237	H	-0.013009	-0.448356	0.625586
H238	H	-0.002940	-0.451254	0.570799
H239	H	0.002256	-0.537965	0.664201
H240	H	0.012317	-0.540878	0.609429
H241	H	-0.072944	-0.485405	0.613318
H242	H	-0.083009	-0.482506	0.668104
H243	H	-0.072790	-0.537305	0.665128
H244	H	0.486634	-0.600858	0.588843
C245	C	0.374994	-0.576284	0.630900
C246	C	0.412369	-0.629336	0.633901
C247	C	0.383838	-0.666251	0.661103
H248	H	0.352654	-0.574897	0.666830
H249	H	0.352632	-0.566726	0.611380
H250	H	0.434722	-0.638891	0.653422
H251	H	0.434711	-0.630740	0.597980
H252	H	0.361476	-0.656693	0.641582
H253	H	0.361499	-0.664859	0.697030
H254	H	0.409193	-0.702250	0.663137
C255	C	0.633180	-0.677783	0.653647
C256	C	0.633206	-0.658163	0.687433
C257	C	0.633300	-0.699135	0.738422
H258	H	0.601456	-0.687783	0.670110
H259	H	0.664960	-0.708885	0.648851
H260	H	0.601429	-0.627072	0.692230
H261	H	0.664928	-0.648167	0.670987
H262	H	0.665080	-0.730237	0.733626
H263	H	0.601575	-0.709132	0.754880
H264	H	0.633322	-0.685831	0.761350
H265	H	0.382624	-0.397967	0.559385
C266	C	0.494344	-0.422588	0.517198
C267	C	0.480379	-0.383985	0.470292
C268	C	0.508996	-0.347125	0.442933
H269	H	0.484992	-0.404411	0.540712
H270	H	0.532586	-0.441950	0.506934
H271	H	0.442145	-0.364625	0.480556
H272	H	0.489733	-0.402146	0.446764
H273	H	0.547239	-0.366486	0.432670
H274	H	0.499642	-0.328951	0.466452
H275	H	0.499529	-0.320931	0.411102
C276	C	0.192564	-0.248564	0.496535
C277	C	0.163749	-0.234633	0.463688
C278	C	0.196578	-0.263250	0.426400
H279	H	0.224968	-0.239186	0.474109
H280	H	0.201969	-0.286810	0.515951
H281	H	0.154352	-0.196395	0.444272
H282	H	0.131347	-0.244012	0.486098
H283	H	0.205982	-0.301496	0.445816
H284	H	0.228980	-0.253870	0.403978
H285	H	0.177029	-0.253806	0.404112
C286	C	0.055268	-0.129197	0.652061
C287	C	0.047266	-0.166571	0.705490
C288	C	0.014314	-0.138032	0.742847
H289	H	0.072720	-0.106831	0.646617
H290	H	0.020884	-0.106855	0.646608
H291	H	0.081644	-0.188902	0.710940
H292	H	0.029808	-0.188937	0.710951
H293	H	-0.020070	-0.115690	0.737394
H294	H	0.031769	-0.115667	0.737398
H295	H	0.008876	-0.163385	0.779102
C296	C	0.152655	-0.129021	0.456759
C297	C	0.104786	-0.096133	0.443082
C298	C	0.118471	-0.067430	0.386739
H299	H	0.172071	-0.106613	0.447291
H300	H	0.174988	-0.154272	0.437282
H301	H	0.082463	-0.070885	0.462553
H302	H	0.085364	-0.118528	0.452536
H303	H	0.140803	-0.092680	0.367263
H304	H	0.137887	-0.045024	0.377277
H305	H	0.085995	-0.045116	0.377452
H306	H	-0.067926	-0.564092	0.382165
C307	C	0.095303	-0.248690	0.691772
C308	C	0.143184	-0.281580	0.705425
C309	C	0.129522	-0.310304	0.761763
H310	H	0.072981	-0.223468	0.711273
H311	H	0.075884	-0.271096	0.701225
H312	H	0.162595	-0.259176	0.695978
H313	H	0.165512	-0.306812	0.685938
H314	H	0.110103	-0.332710	0.771216
H315	H	0.107200	-0.285078	0.781260
H316	H	0.162007	-0.332627	0.771033
C317	C	-0.036884	-0.514205	0.221681
C318	C	-0.093883	-0.490568	0.235511
C319	C	-0.107795	-0.434212	0.206857
H320	H	-0.023781	-0.498055	0.231097
H321	H	-0.020765	-0.508160	0.183443
H322	H	-0.109995	-0.496609	0.273741
H323	H	-0.106998	-0.506702	0.226093
H324	H	-0.091676	-0.428167	0.168618
H325	H	-0.094690	-0.418068	0.216275
H326	H	-0.146470	-0.418168	0.216232
C327	C	0.060670	-0.709541	0.221851
C328	C	0.031875	-0.742375	0.235738
C329	C	0.064765	-0.779730	0.207196
H330	H	0.070148	-0.690191	0.183601
H331	H	0.093035	-0.731965	0.231330
H332	H	-0.000480	-0.719953	0.226256
H333	H	0.022398	-0.761737	0.273983
H334	H	0.097131	-0.802155	0.216674
H335	H	0.074241	-0.760376	0.168947
H336	H	0.045235	-0.802016	0.216617
C337	C	-0.037109	-0.514179	0.413105
C338	C	-0.069952	-0.485618	0.380046
C339	C	-0.083772	-0.429246	0.366072
H340	H	-0.056625	-0.504670	0.445450
H341	H	-0.004684	-0.504820	0.393695
H342	H	-0.102372	-0.494973	0.399456
H343	H	-0.050447	-0.495110	0.347694
H344	H	-0.051348	-0.419888	0.346662
H345	H	-0.103286	-0.419743	0.398419
H346	H	-0.106054	-0.409861	0.343636
H347	H	-0.067855	-0.564093	0.333408
H348	H	0.026652	-0.433515	0.407232
H349	H	0.016979	-0.733950	0.333522
H350	H	-0.074166	-0.534620	0.609333
H351	H	0.016742	-0.733938	0.467255
C352	C	0.060320	-0.709516	0.510934
C353	C	0.108046	-0.742452	0.482222
C354	C	0.140991	-0.779801	0.515179
H355	H	0.069761	-0.690162	0.520390
H356	H	0.040853	-0.731873	0.543310
H357	H	0.127510	-0.720098	0.449856
H358	H	0.098622	-0.761819	0.472766
H359	H	0.121523	-0.802158	0.547555
H360	H	0.150427	-0.760442	0.524634
H361	H	0.173374	-0.802155	0.495705
C362	C	0.068587	-0.732544	0.385294
C363	C	0.107260	-0.746541	0.338426
C364	C	0.144184	-0.718016	0.311190
H365	H	0.049307	-0.694289	0.374993
H366	H	0.086688	-0.741965	0.408912
H367	H	0.089160	-0.737116	0.314812
H368	H	0.126553	-0.784791	0.348711
H369	H	0.162286	-0.727437	0.334808
H370	H	0.124900	-0.679763	0.300893
H371	H	0.170432	-0.727512	0.279390
C372	C	-0.085255	-0.851685	0.498749
C373	C	-0.138291	-0.814274	0.501736
C374	C	-0.175247	-0.842770	0.529019
H375	H	-0.075764	-0.874081	0.479301
H376	H	-0.083846	-0.873992	0.534685
H377	H	-0.139698	-0.791977	0.465806
H378	H	-0.147799	-0.791876	0.521188
H379	H	-0.173838	-0.865076	0.564956
H380	H	-0.165751	-0.865165	0.509568
H381	H	-0.211237	-0.817390	0.531054
C382	C	-0.124871	-0.732168	0.458639
C383	C	-0.132450	-0.699261	0.407764
C384	C	-0.188319	-0.670458	0.415660
H385	H	-0.144147	-0.757342	0.477525
H386	H	-0.138349	-0.709767	0.479614
H387	H	-0.118979	-0.721661	0.386798
H388	H	-0.113187	-0.674077	0.388871
H389	H	-0.201797	-0.648056	0.436634
H390	H	-0.207591	-0.695636	0.434546
H391	H	-0.193468	-0.648124	0.381143
C392	C	0.108239	-0.852045	0.425377
C393	C	0.115833	-0.884934	0.476247
C394	C	0.171710	-0.913680	0.468342
H395	H	0.121764	-0.874457	0.404404
H396	H	0.127466	-0.826820	0.406486
H397	H	0.096613	-0.910157	0.495129
H398	H	0.102320	-0.862536	0.497227
H399	H	0.190937	-0.888454	0.449451
H400	H	0.185231	-0.936088	0.447368
H401	H	0.176871	-0.935994	0.502856
H402	H	-0.116855	-0.691337	0.509456
H403	H	-0.220824	-0.656545	0.543924
H404	H	-0.220518	-0.571693	0.374008
H405	H	-0.116547	-0.606465	0.339541
