data_functionalizedCrystal
_audit_creation_method	'MofGen! by Chris Wilmer'
_symmetry_space_group_name_H-M	'P1'
_symmetry_Int_Tables_number	1
_symmetry_cell_setting	triclinic
loop_
_symmetry_equiv_pos_as_xyz
  x,y,z
_cell_length_a	6.817900
_cell_length_b	9.582889
_cell_length_c	16.418042
_cell_angle_alpha	93.121935
_cell_angle_beta	103.389568
_cell_angle_gamma	111.207298
loop_
_atom_site_label
_atom_site_type_symbol
_atom_site_fract_x
_atom_site_fract_y
_atom_site_fract_z
V1	V	-4.065737	-0.208271	-0.260999
V2	V	-3.732403	0.125062	0.072334
V3	V	-3.399070	0.458395	0.405667
O4	O	-4.011405	0.008757	-0.256189
O5	O	-3.678072	0.342090	0.077144
O6	O	-3.344738	0.675423	0.410478
O7	O	-4.056518	-0.411763	-0.259063
O8	O	-3.723185	-0.078430	0.074271
O9	O	-3.389852	0.254903	0.407604
O10	O	-4.016299	-0.205617	-0.374900
O11	O	-3.682966	0.127716	-0.041566
O12	O	-3.349632	0.461050	0.291767
O13	O	-4.051903	-0.198817	-0.139550
O14	O	-3.718570	0.134516	0.193783
O15	O	-3.385236	0.467850	0.527117
V16	V	-4.544422	-0.182247	-0.246492
V17	V	-4.211089	0.151086	0.086842
V18	V	-3.877755	0.484419	0.420175
O19	O	-4.337607	-0.265357	-0.292824
O20	O	-4.004274	0.067976	0.040510
O21	O	-3.670940	0.401310	0.373843
O22	O	-4.722749	-0.125162	-0.214667
O23	O	-4.389416	0.208172	0.118666
O24	O	-4.056082	0.541505	0.451999
O25	O	-4.330434	0.021245	-0.248428
O26	O	-3.997100	0.354578	0.084905
O27	O	-3.663767	0.687911	0.418238
O28	O	-4.716150	-0.399275	-0.251302
O29	O	-4.382817	-0.065942	0.082031
O30	O	-4.049484	0.267391	0.415365
O31	O	-4.675653	-0.191702	-0.367941
O32	O	-4.342319	0.141631	-0.034608
O33	O	-4.008986	0.474965	0.298726
O34	O	-4.370653	-0.184902	-0.132591
O35	O	-4.037320	0.148431	0.200742
O36	O	-3.703986	0.481765	0.534075
C37	C	-3.911085	-0.461353	-0.254906
C38	C	-3.577751	-0.128020	0.078427
C39	C	-3.244418	0.205313	0.411761
C40	C	-3.984827	-0.627714	-0.254082
C41	C	-3.651494	-0.294381	0.079252
C42	C	-3.318161	0.038953	0.412585
C43	C	-3.859780	-0.198391	-0.402666
C44	C	-3.526446	0.134942	-0.069333
C45	C	-3.193113	0.468276	0.264000
C46	C	-3.900902	-0.197567	-0.495779
C47	C	-3.567568	0.135766	-0.162446
C48	C	-3.234235	0.469099	0.170887
C49	C	-4.178996	-0.203134	-0.714261
C50	C	-3.845663	0.130199	-0.380928
C51	C	-3.512329	0.463533	-0.047595
C52	C	-4.217613	-0.202347	-0.801749
C53	C	-3.884280	0.130986	-0.468416
C54	C	-3.550946	0.464320	-0.135083
C55	C	-3.850517	-0.187377	-0.793218
C56	C	-3.517184	0.145956	-0.459884
C57	C	-3.183850	0.479290	-0.126551
C58	C	-3.811898	-0.188153	-0.705730
C59	C	-3.478564	0.145180	-0.372397
C60	C	-3.145231	0.478513	-0.039064
C61	C	-3.976148	-0.196040	-0.666255
C62	C	-3.642815	0.137294	-0.332922
C63	C	-3.309481	0.470627	0.000411
C64	C	-4.053384	-0.194476	-0.841231
C65	C	-3.720051	0.138857	-0.507897
C66	C	-3.386718	0.472190	-0.174564
C67	C	-4.095253	-0.193623	-0.936089
C68	C	-3.761920	0.139710	-0.602756
C69	C	-3.428586	0.473044	-0.269422
C70	C	-3.934276	-0.196890	-0.571390
C71	C	-3.600943	0.136443	-0.238057
C72	C	-3.267609	0.469776	0.095276
C73	C	-4.139211	0.070826	-0.252583
C74	C	-3.805878	0.404160	0.080751
C75	C	-3.472544	0.737493	0.414084
C76	C	-4.044707	0.237186	-0.253412
C77	C	-3.711373	0.570519	0.079921
C78	C	-3.378040	0.903852	0.413254
C79	C	-4.190516	-0.192133	-0.104820
C80	C	-3.857182	0.141201	0.228513
C81	C	-3.523849	0.474534	0.561847
C82	C	-4.128631	-0.192949	-0.011706
C83	C	-3.795297	0.140384	0.321627
C84	C	-3.461964	0.473718	0.654960
H85	H	-4.312741	-0.209553	-0.682123
H86	H	-3.979407	0.123780	-0.348790
H87	H	-3.646074	0.457113	-0.015457
H88	H	-4.382788	-0.208122	-0.840832
H89	H	-4.049455	0.125211	-0.507499
H90	H	-3.716121	0.458545	-0.174166
H91	H	-3.716798	-0.180960	-0.825369
H92	H	-3.383464	0.152374	-0.492036
H93	H	-3.050131	0.485707	-0.158703
H94	H	-3.646702	-0.182364	-0.666641
H95	H	-3.313368	0.150969	-0.333308
H96	H	-2.980035	0.484302	0.000026
