data_functionalizedCrystal
_audit_creation_method	'MofGen! by Chris Wilmer'
_symmetry_space_group_name_H-M	'P1'
_symmetry_Int_Tables_number	1
_symmetry_cell_setting	triclinic
loop_
_symmetry_equiv_pos_as_xyz
  x,y,z
_cell_length_a	12.759399
_cell_length_b	19.077241
_cell_length_c	19.076919
_cell_angle_alpha	90.113904
_cell_angle_beta	92.274423
_cell_angle_gamma	87.692875
loop_
_atom_site_label
_atom_site_type_symbol
_atom_site_fract_x
_atom_site_fract_y
_atom_site_fract_z
Zn1	Zn	-0.381402	-1.058332	-0.440578
Zn2	Zn	-0.549770	-1.062990	-0.323077
Zn3	Zn	-0.380848	-0.945547	-0.318355
Zn4	Zn	-0.563783	-0.940811	-0.435813
O5	O	-0.468951	-1.001920	-0.379456
O6	O	-0.398103	-1.157283	-0.428961
O7	O	-0.521266	-1.051342	-0.224120
O8	O	-0.233900	-0.960541	-0.334587
O9	O	-0.521803	-1.160705	-0.342634
O10	O	-0.234306	-1.043403	-0.424383
O11	O	-0.397160	-0.965058	-0.220651
O12	O	-0.410748	-0.846586	-0.329966
O13	O	-0.545686	-0.952468	-0.534776
O14	O	-0.545150	-0.843106	-0.416262
O15	O	-0.411691	-1.038810	-0.538277
O16	O	-0.698651	-1.046750	-0.338013
O17	O	-0.708946	-0.956985	-0.420840
C18	C	-0.479410	-0.819349	-0.372085
C19	C	-0.483911	-0.741244	-0.368948
C20	C	-0.421733	-0.702766	-0.412489
C21	C	-0.425956	-0.629378	-0.409536
C22	C	-0.492364	-0.594470	-0.363045
C23	C	-0.554545	-0.632953	-0.319499
C24	C	-0.550315	-0.706339	-0.322449
C25	C	-0.511904	-0.375179	-0.349391
C26	C	-0.516131	-0.301787	-0.346446
C27	C	-0.387540	-0.298217	-0.436483
C28	C	-0.383321	-0.371605	-0.439432
C29	C	-0.445498	-0.410082	-0.395883
N30	N	-0.496686	-0.519455	-0.360027
N31	N	-0.441170	-0.485095	-0.398898
C32	C	-0.741920	-1.001877	-0.379438
C33	C	-0.858695	-1.001923	-0.379456
C34	C	-0.908161	-1.048712	-0.336382
C35	C	-1.017884	-1.048756	-0.336407
C36	C	-1.028665	-0.955215	-0.422584
C37	C	-0.918944	-0.955175	-0.422561
C38	C	-1.161437	-1.132705	-0.314744
C39	C	-1.210907	-1.179489	-0.271658
C40	C	-1.170457	-1.193060	-0.203534
C41	C	-1.080538	-1.159838	-0.178480
C42	C	-1.031074	-1.113049	-0.221562
C43	C	-1.071523	-1.099491	-0.289697
C44	C	-0.775388	-0.871226	-0.444217
C45	C	-0.725922	-0.824433	-0.487296
C46	C	-0.766371	-0.810854	-0.555422
C47	C	-0.856294	-0.844064	-0.580472
C48	C	-0.905760	-0.890857	-0.537393
C49	C	-0.865303	-0.904437	-0.469268
C50	C	-0.194916	-1.001981	-0.379490
C51	C	-0.078139	-1.002007	-0.379504
C52	C	-0.480314	-0.994591	-0.562735
C53	C	-0.485156	-0.991469	-0.640838
C54	C	-0.458445	-0.185203	-0.386850
C55	C	-0.453953	-0.263309	-0.389987
C56	C	-0.417670	-1.034953	-0.679355
C57	C	-0.422216	-1.032010	-0.752740
C58	C	-0.494254	-0.985586	-0.787608
C59	C	-0.561743	-0.942097	-0.749086
C60	C	-0.557191	-0.945037	-0.675702
C61	C	-0.515345	-0.971970	-1.006888
C62	C	-0.519894	-0.969035	-1.080277
C63	C	-0.380365	-1.058947	-1.083926
C64	C	-0.375823	-1.061886	-1.010541
C65	C	-0.443309	-1.018394	-0.972025
N66	N	-0.498905	-0.982578	-0.862620
N67	N	-0.438652	-1.021399	-0.897014
C68	C	-0.457554	-1.009260	-0.196891
C69	C	-0.452408	-1.012519	-0.118794
H70	H	-0.329249	-0.400023	-0.477292
H71	H	-0.359012	-1.072759	-0.650971
O72	O	-0.356807	-1.074276	-0.790238
C73	C	-0.416648	-1.117956	-0.834510
H74	H	-0.498372	-1.092718	-0.844488
H75	H	-0.376512	-1.125303	-0.886502
H76	H	-0.423448	-1.171166	-0.808343
O77	O	-0.572406	-0.412441	-0.307065
C78	C	-0.631906	-0.365890	-0.265389
H79	H	-0.640411	-0.312435	-0.292069
H80	H	-0.712974	-0.387389	-0.258645
H81	H	-0.590450	-0.360206	-0.211754
H82	H	-1.077733	-0.917154	-0.457677
O83	O	-0.895445	-0.830950	-0.646698
C84	C	-0.818916	-0.850092	-0.695290
H85	H	-0.760622	-0.890519	-0.670469
H86	H	-0.858619	-0.873561	-0.743994
H87	H	-0.775625	-0.801676	-0.710699
O88	O	-0.580747	-0.929656	-0.969439
C89	C	-0.520888	-0.885999	-0.925153
H90	H	-0.439765	-0.880792	-0.947110
H91	H	-0.561930	-0.831945	-0.922123
H92	H	-0.512566	-0.909956	-0.870417
H93	H	-0.620395	-0.904295	-0.777481
H94	H	-0.367659	-0.731183	-0.450350
H95	H	-0.375326	-0.598053	-0.444993
O96	O	-0.622790	-0.902902	-0.638207
C97	C	-0.685736	-0.944598	-0.597381
H98	H	-0.644947	-0.998300	-0.588552
H99	H	-0.698248	-0.918045	-0.544614
H100	H	-0.764909	-0.951168	-0.625961
H101	H	-0.578559	-0.931229	-1.108664
O102	O	-0.327293	-0.260761	-0.478809
C103	C	-0.392467	-0.216515	-0.522433
H104	H	-0.471122	-0.206504	-0.497118
H105	H	-0.353253	-0.164537	-0.529824
H106	H	-0.405726	-0.242725	-0.575630
O107	O	-0.638584	-0.792091	-0.463064
C108	C	-0.603585	-0.747894	-0.515701
H109	H	-0.671795	-0.733252	-0.553981
H110	H	-0.572183	-0.698263	-0.490612
H111	H	-0.538477	-0.776427	-0.545072
H112	H	-0.570214	-0.273366	-0.308587
O113	O	-0.993033	-0.923238	-0.561678
C114	C	-0.973718	-0.996525	-0.560448
H115	H	-0.907254	-1.010219	-0.520510
H116	H	-1.047738	-1.023324	-0.545170
H117	H	-0.950547	-1.015293	-0.614666
H118	H	-0.726087	-0.772749	-0.590495
H119	H	-0.859108	-1.086778	-0.301284
H120	H	-0.608611	-0.604524	-0.281641
H121	H	-0.317165	-1.099691	-0.982157
H122	H	-0.600947	-0.737667	-0.286993
O123	O	-0.943715	-1.080862	-0.197136
C124	C	-0.918636	-1.102853	-0.127757
H125	H	-0.954069	-1.155765	-0.118332
H126	H	-0.829710	-1.108048	-0.119327
H127	H	-0.951846	-1.062530	-0.089512
H128	H	-1.047616	-1.170886	-0.123004
O129	O	-0.735986	-0.884312	-0.378043
C130	C	-0.646005	-0.844972	-0.365174
H131	H	-0.648792	-0.797816	-0.401907
H132	H	-0.643760	-0.826041	-0.308437
H133	H	-0.572704	-0.879247	-0.374772
H134	H	-0.325421	-1.094355	-1.115294
O135	O	-1.218610	-1.238549	-0.161782
C136	C	-1.306661	-1.264943	-0.198493
H137	H	-1.296125	-1.260226	-0.257335
H138	H	-1.314672	-1.322423	-0.184206
H139	H	-1.380386	-1.233525	-0.183625
H140	H	-1.284119	-1.206538	-0.292063
H141	H	-1.194373	-1.121666	-0.370219
