data_functionalizedCrystal
_audit_creation_method	'MofGen! by Chris Wilmer'
_symmetry_space_group_name_H-M	'P1'
_symmetry_Int_Tables_number	1
_symmetry_cell_setting	triclinic
loop_
_symmetry_equiv_pos_as_xyz
  x,y,z
_cell_length_a	16.120484
_cell_length_b	16.120530
_cell_length_c	16.120297
_cell_angle_alpha	89.871860
_cell_angle_beta	95.614431
_cell_angle_gamma	89.832673
loop_
_atom_site_label
_atom_site_type_symbol
_atom_site_fract_x
_atom_site_fract_y
_atom_site_fract_z
Zn1	Zn	-0.422264	-1.224987	-0.554813
Zn2	Zn	-0.554948	-1.224883	-0.422118
Zn3	Zn	-0.408180	-1.093726	-0.408056
Zn4	Zn	-0.554181	-1.078880	-0.554051
O5	O	-0.484893	-1.155619	-0.484760
O6	O	-0.446081	-1.341009	-0.543415
O7	O	-0.529906	-1.213654	-0.303620
O8	O	-0.293418	-1.117395	-0.421958
O9	O	-0.543563	-1.340932	-0.445925
O10	O	-0.303765	-1.213832	-0.529780
O11	O	-0.422076	-1.117294	-0.293289
O12	O	-0.421332	-0.975721	-0.421218
O13	O	-0.542255	-1.092092	-0.670785
O14	O	-0.528598	-0.964814	-0.528480
O15	O	-0.445336	-1.199436	-0.671345
O16	O	-0.671477	-1.199258	-0.445185
O17	O	-0.670913	-1.091990	-0.542116
C18	C	-0.701438	-1.144023	-0.495113
C19	C	-0.794083	-1.139137	-0.499574
C20	C	-0.473354	-0.940181	-0.473241
C21	C	-0.468438	-0.848013	-0.468334
C22	C	-0.495281	-1.144119	-0.702152
C23	C	-0.499708	-1.139219	-0.794791
C24	C	-0.963706	-1.130220	-0.507736
C25	C	-1.005249	-1.181166	-0.461804
C26	C	-1.099633	-1.176204	-0.466346
C27	C	-0.869313	-1.135180	-0.503196
C28	C	-0.267505	-1.167282	-0.474385
C29	C	-0.174867	-1.172251	-0.469964
C30	C	-0.496479	-1.371899	-0.496324
C31	C	-0.501416	-1.464064	-0.501252
C32	C	-0.459445	-0.679262	-0.459381
C33	C	-0.510407	-0.632810	-0.510202
C34	C	-0.505403	-0.538911	-0.505220
C35	C	-0.464448	-0.773169	-0.464361
C36	C	-0.507770	-1.130243	-0.964403
C37	C	-0.461776	-1.181172	-1.005965
C38	C	-0.466262	-1.176177	-1.100342
C39	C	-0.503285	-1.135236	-0.870017
C40	C	-0.474489	-1.167125	-0.268213
C41	C	-0.469836	-1.172198	-0.175571
H42	H	-0.969931	-1.228508	-0.419069
O43	O	-1.005705	-1.073715	-0.558784
C44	C	-0.996227	-0.963257	-0.658341
C45	C	-0.948548	-1.027222	-0.600584
H46	H	-0.950035	-0.925638	-0.692139
H47	H	-1.041030	-0.996843	-0.705959
H48	H	-1.032918	-0.919894	-0.619631
H49	H	-0.911808	-1.070602	-0.639226
H50	H	-0.903794	-0.993582	-0.552963
O51	O	-0.566921	-0.669624	-0.566497
C52	C	-0.623441	-0.798142	-0.622904
C53	C	-0.559415	-0.756554	-0.559103
H54	H	-0.617382	-0.868430	-0.616959
H55	H	-0.689052	-0.778412	-0.610486
H56	H	-0.611246	-0.778362	-0.688547
H57	H	-0.571532	-0.776313	-0.493435
H58	H	-0.493825	-0.776283	-0.571593
H59	H	-0.412060	-0.648511	-0.412135
O60	O	-0.410721	-1.237555	-0.963770
C61	C	-0.294157	-1.259842	-0.860628
C62	C	-0.351932	-1.195907	-0.908340
H63	H	-0.246601	-1.226193	-0.815814
H64	H	-0.332784	-1.303260	-0.823963
H65	H	-0.260277	-1.297410	-0.906838
H66	H	-0.385824	-1.158281	-0.862188
H67	H	-0.313260	-1.152545	-0.945018
H68	H	-0.550512	-1.082894	-0.999698
