data_functionalizedCrystal
_audit_creation_method	'MofGen! by Chris Wilmer'
_symmetry_space_group_name_H-M	'P1'
_symmetry_Int_Tables_number	1
_symmetry_cell_setting	triclinic
loop_
_symmetry_equiv_pos_as_xyz
  x,y,z
_cell_length_a	14.446369
_cell_length_b	14.446369
_cell_length_c	20.016444
_cell_angle_alpha	90.002197
_cell_angle_beta	59.998577
_cell_angle_gamma	60.000221
loop_
_atom_site_label
_atom_site_type_symbol
_atom_site_fract_x
_atom_site_fract_y
_atom_site_fract_z
Zr1	Zr	1.013166	0.891798	-0.087655
O2	O	1.206294	0.743987	-0.194337
O3	O	0.820048	0.937105	-0.054951
O4	O	1.013170	0.937102	-0.194331
O5	O	1.013164	0.743999	0.054989
O6	O	1.013162	1.089439	-0.194327
O7	O	1.013172	0.743991	-0.054957
O8	O	0.667702	1.089445	0.054999
O9	O	1.358625	0.743992	-0.194338
O10	O	0.899470	1.070121	-0.041000
O11	O	0.899471	0.956440	0.041047
O12	O	1.126847	0.956435	-0.123055
O13	O	1.126848	0.842754	-0.041007
Zr14	Zr	1.013141	1.134771	0.087701
Zr15	Zr	1.013152	1.134758	-0.087649
Zr16	Zr	1.013154	0.891811	0.087695
Zr17	Zr	1.256116	0.891806	-0.087656
Zr18	Zr	0.770191	1.134763	0.087702
O19	O	1.206258	1.089463	0.054997
O20	O	1.206275	1.089445	-0.194328
O21	O	1.206277	0.744005	0.054988
O22	O	0.820013	1.282582	0.194383
O23	O	0.820029	1.282563	-0.054942
O24	O	0.820032	0.937124	0.194374
O25	O	1.013142	1.282570	-0.054942
O26	O	1.013136	1.089467	0.194377
O27	O	1.013145	0.937130	0.194373
O28	O	1.013135	1.282578	0.055003
O29	O	1.358614	0.937113	-0.194332
O30	O	0.667693	1.089456	0.194379
O31	O	0.667682	1.282577	0.194384
O32	O	0.667691	1.282566	0.055004
O33	O	1.358615	0.744002	-0.054958
O34	O	1.358605	0.937123	-0.054953
O35	O	0.899459	1.070133	0.123101
O36	O	0.899458	1.183815	0.041054
O37	O	1.126836	1.070129	-0.041001
O38	O	1.126836	0.956447	0.041047
C39	C	0.709260	1.013274	0.000024
C40	C	0.606121	1.013271	0.000025
C41	C	0.566833	0.941567	0.051779
C42	C	0.459198	0.941896	0.052054
C43	C	0.371395	1.136862	0.037500
C44	C	0.478640	1.136453	0.037893
C45	C	0.653850	0.962412	-0.089238
C46	C	0.547677	0.959932	-0.089105
C47	C	1.013170	0.709378	0.000015
C48	C	1.013176	0.606235	0.000012
C49	C	1.156567	0.387867	-0.051479
C50	C	1.156664	0.495099	-0.051768
C51	C	0.941949	0.602907	-0.037734
C52	C	0.942859	0.495138	-0.038112
C53	C	0.939897	0.496511	0.089316
C54	C	0.942600	0.602480	0.089175
C55	C	1.317047	1.013294	0.000022
C56	C	1.420185	1.013298	0.000022
C57	C	1.013168	1.013268	-0.219313
C58	C	1.013173	1.013263	-0.293753
C59	C	1.013137	1.317190	0.000031
C60	C	1.013131	1.420333	0.000034
C61	C	1.131846	0.953940	-0.507841
C62	C	1.131841	0.953949	-0.577782
C63	C	0.894451	1.072636	-0.492104
C64	C	0.894458	1.072633	-0.422165
C65	C	1.013159	1.013278	-0.430037
C66	C	1.013147	1.013291	-0.569917
C67	C	1.013140	1.013301	-0.645750
C68	C	1.013167	1.013269	-0.354199
C69	C	1.013139	1.013300	0.219359
C70	C	1.013134	1.013306	0.293800
C71	C	0.709243	1.317180	0.000032
C72	C	0.606099	1.420320	0.000035
C73	C	0.709245	1.013290	0.219360
C74	C	0.606102	1.013292	0.293801
C75	C	0.709229	1.317196	0.219368
C76	C	0.606079	1.420341	0.293812
C77	C	1.317078	0.709372	-0.219322
C78	C	1.420227	0.606227	-0.293766
C79	C	1.317063	0.709388	0.000014
C80	C	1.420208	0.606249	0.000011
C81	C	1.317061	1.013278	-0.219314
C82	C	1.420205	1.013276	-0.293755
C83	C	0.557658	1.072640	0.371598
C84	C	0.460758	1.072638	0.441550
C85	C	0.412295	1.013294	0.433703
C86	C	0.460748	0.953938	0.355898
C87	C	0.557654	0.953935	0.285948
C88	C	0.557639	1.528130	0.285943
C89	C	0.460733	1.625055	0.355884
C90	C	0.412262	1.614189	0.433693
C91	C	0.460712	1.506389	0.441560
C92	C	0.557623	1.409466	0.371620
C93	C	1.468679	0.498439	-0.285897
C94	C	1.565616	0.401514	-0.355838
C95	C	1.614091	0.412380	-0.433647
C96	C	1.565635	0.520180	-0.441514
C97	C	1.468707	0.617102	-0.371574
C98	C	1.468636	1.072632	-0.285882
C99	C	1.565538	1.072652	-0.355820
C100	C	1.614013	1.013309	-0.433631
C101	C	1.565572	0.953952	-0.441502
C102	C	1.468665	0.953939	-0.371565
C103	C	0.459775	1.638688	0.051521
C104	C	0.566700	1.531459	0.051814
C105	C	0.479241	1.423647	0.037781
C106	C	0.371862	1.531412	0.038155
C107	C	0.546844	1.530035	-0.089273
C108	C	0.655318	1.424070	-0.089129
H109	H	0.530958	0.976537	0.117235
H110	H	0.586414	1.580052	-0.120805
H111	H	1.605052	0.313748	-0.349417
H112	H	0.597051	1.321703	0.378038
O113	O	0.685060	1.533587	0.018285
H114	H	0.666265	1.611393	0.001718
O115	O	1.259850	0.889951	-0.661703
H116	H	1.316767	0.798738	-0.668831
H117	H	1.429216	0.489569	-0.222547
H118	H	0.745805	1.424592	-0.117325
O119	O	0.341339	0.988707	0.139268
H120	H	0.361085	1.011204	0.181413
O121	O	0.408462	0.889941	0.347447
H122	H	0.458426	0.848659	0.281598
H123	H	1.605055	0.905636	-0.504865
O124	O	0.609912	1.136656	0.380075
H125	H	0.716822	1.076746	0.350245
H126	H	0.797809	1.120960	-0.485705
O127	O	0.307761	1.013323	0.509160
H128	H	0.344947	0.924963	0.509131
O129	O	0.517074	1.534694	0.139052
H130	H	0.416515	1.612937	0.181194
H131	H	1.692920	1.013329	-0.490572
O132	O	0.248954	1.191156	0.123660
H133	H	0.270463	1.140364	0.161933
H134	H	1.228501	0.905609	-0.514255
H135	H	0.836446	0.681174	-0.002021
O136	O	0.609719	0.890104	0.202038
H137	H	0.559660	0.848916	0.208342
H138	H	0.797803	1.120959	-0.358808
H139	H	0.421318	1.120976	0.504895
H140	H	1.429243	0.905599	-0.377986
O141	O	0.428118	1.420872	0.123995
H142	H	0.492828	1.417125	0.140114
O143	O	1.718650	0.307838	-0.509081
H144	H	1.744188	0.231064	-0.490529
H145	H	1.605117	0.529014	-0.504874
O146	O	0.509096	1.710168	0.018165
H147	H	0.505915	1.723325	-0.035482
H148	H	0.597089	1.536999	0.222594
H149	H	0.994534	0.601965	0.117374
H150	H	0.421233	1.497558	0.504921
O151	O	0.341008	1.711514	0.138239
H152	H	0.253905	1.724680	0.144810
O153	O	0.251625	1.598108	0.125175
H154	H	0.270574	1.553243	0.166595
O155	O	0.698251	1.318954	-0.144194
H156	H	0.614534	1.312462	-0.119633
H157	H	1.604968	1.120986	-0.349395
H158	H	0.522059	1.502583	-0.127834
O159	O	0.688641	1.031250	-0.140552
H160	H	0.722230	0.994825	-0.203472
O161	O	0.507594	0.821392	0.018787
H162	H	0.608264	0.762355	0.002361
H163	H	0.341913	1.504755	0.003057
O164	O	1.009936	0.428433	-0.125139
H165	H	1.011250	0.350955	-0.126272
H166	H	0.501493	1.345377	0.002070
O167	O	1.000681	0.430272	0.131092
H168	H	1.104903	0.399673	0.095719
O169	O	1.231137	0.316400	-0.018113
H170	H	1.331959	0.294612	-0.055445
H171	H	1.429258	0.704866	-0.377990
O172	O	1.416348	1.136656	-0.201961
H173	H	1.466304	1.177942	-0.208250
O174	O	1.231160	0.491858	-0.139007
H175	H	1.315509	0.492323	-0.152867
O176	O	1.230684	0.492973	-0.018232
H177	H	1.332986	0.416052	-0.057028
H178	H	0.655548	0.850348	0.026799
H179	H	0.437818	1.177140	0.103569
H180	H	0.342888	1.192637	0.001597
H181	H	0.747441	0.872767	-0.120572
O182	O	0.508112	1.211117	-0.008823
H183	H	0.445764	1.247362	-0.031590
O184	O	0.803470	0.530426	0.008359
H185	H	0.747798	0.584007	0.072298
O186	O	0.599913	0.839357	-0.126203
H187	H	0.623089	0.788740	-0.088291
O188	O	0.519599	1.021942	-0.144442
H189	H	0.413864	1.092076	-0.109128
O190	O	1.230774	0.315073	-0.138205
H191	H	1.165941	0.301915	-0.144779
H192	H	0.333351	1.693119	0.490636
O193	O	1.007487	0.605714	-0.123939
H194	H	1.090776	0.609475	-0.140055
O195	O	0.803923	0.707320	0.144298
H196	H	0.783040	0.763990	0.108845
H197	H	0.421295	1.712822	0.349464
O198	O	0.799933	0.532866	0.140403
H199	H	0.782548	0.496886	0.102442
