data_functionalizedCrystal
_audit_creation_method	'MofGen! by Chris Wilmer'
_symmetry_space_group_name_H-M	'P1'
_symmetry_Int_Tables_number	1
_symmetry_cell_setting	triclinic
loop_
_symmetry_equiv_pos_as_xyz
  x,y,z
_cell_length_a	16.959455
_cell_length_b	16.959453
_cell_length_c	16.959447
_cell_angle_alpha	90.031064
_cell_angle_beta	90.016723
_cell_angle_gamma	90.018936
loop_
_atom_site_label
_atom_site_type_symbol
_atom_site_fract_x
_atom_site_fract_y
_atom_site_fract_z
Zn1	Zn	1.208384	-0.314688	0.446955
Zn2	Zn	1.708384	0.185312	0.946955
Zn3	Zn	1.208307	-0.446881	0.314775
Zn4	Zn	1.708307	0.053119	0.814775
Zn5	Zn	1.076213	-0.314718	0.314787
Zn6	Zn	1.576213	0.185282	0.814787
Zn7	Zn	1.076178	-0.446826	0.446908
Zn8	Zn	1.576178	0.053174	0.946908
O9	O	1.142270	-0.380778	0.380856
O10	O	1.642270	0.119222	0.880856
O11	O	1.318985	-0.332234	0.429436
O12	O	1.818985	0.167766	0.929436
O13	O	1.190767	-0.429384	0.204166
O14	O	1.690767	0.070616	0.704166
O15	O	1.093793	-0.204103	0.332344
O16	O	1.593793	0.295897	0.832344
O17	O	1.318928	-0.429355	0.332324
O18	O	1.818928	0.070645	0.832324
O19	O	1.190898	-0.204081	0.429448
O20	O	1.690898	0.295919	0.929448
O21	O	1.093718	-0.332284	0.204175
O22	O	1.593718	0.167716	0.704175
O23	O	0.965597	-0.332232	0.332299
O24	O	1.465597	0.167768	0.832299
O25	O	1.093733	-0.429263	0.557525
O26	O	1.593733	0.070737	1.057525
O27	O	0.965571	-0.429291	0.429367
O28	O	1.465571	0.070709	0.929367
O29	O	1.190864	-0.332181	0.557560
O30	O	1.690864	0.167819	1.057560
O31	O	1.190733	-0.557484	0.332278
O32	O	1.690733	-0.057484	0.832278
O33	O	1.093658	-0.557444	0.429355
O34	O	1.593658	-0.057444	0.929355
C35	C	0.936904	-0.380759	0.380830
C36	C	1.436904	0.119241	0.880830
C37	C	0.849048	-0.380770	0.380837
C38	C	1.349048	0.119230	0.880837
C39	C	0.807764	-0.330164	0.330379
C40	C	1.307764	0.169836	0.830379
C41	C	0.807778	-0.431383	0.431307
C42	C	1.307778	0.068617	0.931307
C43	C	0.725232	-0.431392	0.431318
C44	C	1.225232	0.068608	0.931318
C45	C	0.683948	-0.380785	0.380860
C46	C	1.183948	0.119215	0.880860
C47	C	0.725210	-0.330169	0.330391
C48	C	1.225210	0.169831	0.830391
C49	C	0.683964	-0.482001	0.481793
C50	C	1.183964	0.017999	0.981793
C51	C	0.601413	-0.482011	0.481807
C52	C	1.101413	0.017989	0.981807
C53	C	0.560128	-0.431408	0.431344
C54	C	1.060128	0.068592	0.931344
C55	C	0.601395	-0.380791	0.380872
C56	C	1.101395	0.119209	0.880872
C57	C	0.560111	-0.330184	0.330414
C58	C	1.060111	0.169816	0.830414
C59	C	0.601376	-0.279571	0.279937
C60	C	1.101376	0.220429	0.779937
C61	C	0.683924	-0.279566	0.279928
C62	C	1.183924	0.220434	0.779928
C63	C	0.477579	-0.431413	0.431353
C64	C	0.977579	0.068587	0.931353
C65	C	0.477557	-0.330190	0.330426
C66	C	0.977557	0.169810	0.830426
C67	C	1.142204	-0.586144	0.380827
C68	C	1.642204	-0.086144	0.880827
C69	C	1.142249	-0.674001	0.380841
C70	C	1.642249	-0.174001	0.880841
C71	C	1.192898	-1.045407	0.431513
C72	C	1.692898	-0.545407	0.931513
C73	C	1.091863	-1.045546	0.330317
C74	C	1.591863	-0.545546	0.830317
C75	C	1.091834	-0.963000	0.330298
C76	C	1.591834	-0.463000	0.830298
C77	C	1.142337	-0.921654	0.380889
C78	C	1.642337	-0.421654	0.880889
C79	C	1.192869	-0.962853	0.431499
C80	C	1.692869	-0.462853	0.931499
C81	C	1.041297	-0.921795	0.279696
C82	C	1.541297	-0.421795	0.779696
C83	C	1.041265	-0.839244	0.279676
C84	C	1.541265	-0.339244	0.779676
C85	C	1.091773	-0.797896	0.330264
C86	C	1.591773	-0.297896	0.830264
C87	C	1.142307	-0.839100	0.380875
C88	C	1.642307	-0.339100	0.880875
C89	C	1.192810	-0.797754	0.431465
C90	C	1.692810	-0.297754	0.931465
C91	C	1.243349	-0.838957	0.482073
C92	C	1.743349	-0.338957	0.982073
C93	C	1.243376	-0.921505	0.482086
C94	C	1.743376	-0.421505	0.982086
C95	C	1.091746	-0.715347	0.330250
C96	C	1.591746	-0.215347	0.830250
C97	C	1.192781	-0.715200	0.431451
C98	C	1.692781	-0.215200	0.931451
C99	C	1.348439	-0.380798	0.380884
C100	C	1.848439	0.119202	0.880884
C101	C	1.436295	-0.380806	0.380895
C102	C	1.936295	0.119194	0.880895
C103	C	1.142303	-0.380713	0.587025
C104	C	1.642303	0.119287	1.087025
C105	C	1.142317	-0.380685	0.674881
C106	C	1.642317	0.119315	1.174881
C107	C	1.142358	-0.174610	0.380903
C108	C	1.642358	0.325390	0.880903
C109	C	1.142395	-0.086753	0.380923
C110	C	1.642395	0.413247	0.880923
C111	C	1.142283	-0.380786	0.175490
C112	C	1.642283	0.119214	0.675490
C113	C	1.142422	-0.380591	0.087634
C114	C	1.642422	0.119409	0.587634
C115	C	1.091840	-0.431147	1.046342
C116	C	1.591840	0.068853	1.546342
C117	C	1.192984	-0.330056	1.046373
C118	C	1.692984	0.169944	1.546373
C119	C	1.192963	-0.330072	0.963827
C120	C	1.692963	0.169928	1.463827
C121	C	1.142380	-0.380628	0.922534
C122	C	1.642380	0.119372	1.422534
C123	C	1.091819	-0.431167	0.963788
C124	C	1.591819	0.068833	1.463788
C125	C	1.243529	-0.279540	0.922567
C126	C	1.743529	0.220460	1.422567
C127	C	1.243511	-0.279555	0.840016
C128	C	1.743511	0.220445	1.340016
C129	C	1.192923	-0.330108	0.798722
C130	C	1.692923	0.169892	1.298722
C131	C	1.142359	-0.380648	0.839981
C132	C	1.642359	0.119352	1.339981
C133	C	1.091777	-0.431204	0.798688
C134	C	1.591777	0.068796	1.298688
C135	C	1.041208	-0.481741	0.839946
C136	C	1.541208	0.018259	1.339946
C137	C	1.041232	-0.481719	0.922494
C138	C	1.541232	0.018281	1.422494
C139	C	1.192900	-0.330129	0.716174
C140	C	1.692900	0.169871	1.216174
C141	C	1.091756	-0.431224	0.716135
C142	C	1.591756	0.068776	1.216135
H143	H	0.443985	-0.472616	0.472456
H144	H	0.943985	0.027384	0.972456
N145	N	0.986679	-0.536208	0.966991
N146	N	1.486679	-0.036208	1.466991
H147	H	0.994366	-0.528520	1.025551
H148	H	1.494366	-0.028520	1.525551
H149	H	0.998937	-0.592670	0.952553
H150	H	1.498937	-0.092670	1.452553
H151	H	1.284465	-0.805283	0.523268
H152	H	1.784465	-0.305283	1.023268
H153	H	1.284686	-0.238405	0.806432
H154	H	1.784686	0.261595	1.306432
H155	H	1.000179	-0.955465	0.238510
H156	H	1.500179	-0.455465	0.738510
H157	H	0.567752	-0.238363	0.238857
H158	H	1.067752	0.261637	0.738857
N159	N	0.728489	-0.536585	0.536208
N160	N	1.228489	-0.036585	1.036208
H161	H	0.787044	-0.528906	0.528534
H162	H	1.287044	-0.028906	1.028534
H163	H	0.714033	-0.593020	0.523805
H164	H	1.214033	-0.093020	1.023805
N165	N	0.556911	-0.536610	0.536237
N166	N	1.056911	-0.036610	1.036237
H167	H	0.498352	-0.528940	0.528587
H168	H	0.998352	-0.028940	1.028587
H169	H	0.571364	-0.524375	0.592709
H170	H	1.071364	-0.024375	1.092709
H171	H	1.050666	-0.472291	1.079937
H172	H	1.550666	0.027709	1.579937
H173	H	1.234170	-0.288900	1.079998
H174	H	1.734170	0.211100	1.579998
H175	H	0.717530	-0.238359	0.238833
H176	H	1.217530	0.261641	0.738833
H177	H	1.000027	-0.522907	0.806315
H178	H	1.500027	-0.022907	1.306315
N179	N	1.247247	-0.670610	0.486025
N180	N	1.747247	-0.170610	0.986025
H181	H	1.239559	-0.612063	0.478341
H182	H	1.739559	-0.112063	0.978341
H183	H	1.303713	-0.685005	0.473779
H184	H	1.803713	-0.185005	0.973779
H185	H	0.841365	-0.288957	0.289279
H186	H	1.341365	0.211043	0.789279
N187	N	1.247440	-0.275635	0.671674
N188	N	1.747440	0.224365	1.171674
H189	H	1.279490	-0.243609	0.710359
H190	H	1.779490	0.256391	1.210359
H191	H	1.215275	-0.239057	0.637435
H192	H	1.715275	0.260943	1.137435
H193	H	0.443949	-0.288981	0.289335
H194	H	0.943949	0.211019	0.789335
H195	H	1.234048	-1.078958	0.472714
H196	H	1.734048	-0.578958	0.972714
N197	N	0.852301	-0.485964	0.485726
N198	N	1.352301	0.014036	0.985726
H199	H	0.910857	-0.478280	0.478060
H200	H	1.410857	0.021720	0.978060
H201	H	0.837852	-0.542401	0.473321
H202	H	1.337852	-0.042401	0.973321
N203	N	0.986763	-0.794806	0.225092
N204	N	1.486763	-0.294806	0.725092
H205	H	0.954776	-0.833526	0.193046
H206	H	1.454776	-0.333526	0.693046
H207	H	1.018956	-0.760566	0.188537
H208	H	1.518956	-0.260566	0.688537
H209	H	1.284522	-0.955060	0.523288
H210	H	1.784522	-0.455060	1.023288
H211	H	1.284715	-0.238385	0.956193
H212	H	1.784715	0.261615	1.456193
H213	H	1.050594	-0.681804	0.289051
H214	H	1.550594	-0.181804	0.789051
N215	N	1.037397	-1.090136	0.275751
N216	N	1.537397	-0.590136	0.775751
H217	H	1.045085	-1.148683	0.283439
H218	H	1.545085	-0.648683	0.783439
H219	H	1.049741	-1.075739	0.219310
H220	H	1.549741	-0.575739	0.719310
H221	H	1.050558	-0.472386	0.682520
H222	H	1.550558	0.027614	1.182520
