data_functionalizedCrystal
_audit_creation_method	'MofGen! by Chris Wilmer'
_symmetry_space_group_name_H-M	'P1'
_symmetry_Int_Tables_number	1
_symmetry_cell_setting	triclinic
loop_
_symmetry_equiv_pos_as_xyz
  x,y,z
_cell_length_a	12.837943
_cell_length_b	14.519709
_cell_length_c	11.295483
_cell_angle_alpha	94.101713
_cell_angle_beta	85.461227
_cell_angle_gamma	89.254542
loop_
_atom_site_label
_atom_site_type_symbol
_atom_site_fract_x
_atom_site_fract_y
_atom_site_fract_z
O1	O	1.382869	0.234188	-0.099009
O2	O	1.081042	0.222343	-0.099016
O3	O	1.239958	0.094719	-0.099002
O4	O	1.223954	0.361812	-0.099023
O5	O	1.226000	0.105910	0.099048
O6	O	1.067084	0.233533	0.099034
O7	O	1.368911	0.245379	0.099040
Cu8	Cu	1.216723	0.240478	0.117121
Cu9	Cu	1.233230	0.227244	-0.117096
O10	O	1.209996	0.373002	0.099026
C11	C	1.035435	0.223937	0.000008
C12	C	0.920336	0.212002	0.000006
C13	C	0.679643	0.355473	0.000011
C14	C	0.571497	0.344264	0.000010
C15	C	0.595894	0.178377	0.000011
C16	C	0.704041	0.189586	0.000012
C17	C	0.745911	0.278137	0.000011
C18	C	0.854060	0.289344	0.000003
C19	C	0.878455	0.123458	0.000013
C20	C	0.770308	0.112249	0.000011
C21	C	1.232233	0.065890	0.000023
C22	C	1.229997	-0.036684	0.000024
C23	C	1.221771	-0.412293	-0.000007
C24	C	1.224055	-0.307787	0.000002
C25	C	1.225884	-0.224492	0.000010
C26	C	1.228169	-0.119979	0.000016
C27	C	1.414518	0.243785	0.000014
C28	C	1.529618	0.255719	0.000008
C29	C	1.217721	0.401831	-0.000001
C30	C	1.219957	0.504405	-0.000010
N31	N	1.205121	0.249786	0.281856
N32	N	1.244841	0.217929	-0.281831
C33	C	1.328362	0.150873	0.531156
C34	C	1.319601	0.157915	0.655819
C35	C	1.178834	0.270905	0.655847
C36	C	1.187595	0.263863	0.531184
C37	C	1.262362	0.203847	0.468843
C38	C	1.271127	0.196811	0.344178
C39	C	1.130356	0.309795	0.344208
C40	C	1.121596	0.316837	0.468871
H41	H	0.517545	0.407240	0.000014
H42	H	0.888149	0.361447	0.000004
C43	C	1.040320	0.382011	0.536345
C44	C	0.984378	0.426879	0.455086
C45	C	0.909489	0.486916	0.517197
H46	H	1.074144	0.426525	0.584975
H47	H	0.993626	0.347778	0.584958
H48	H	1.031065	0.461110	0.406495
H49	H	0.950532	0.382388	0.406454
H50	H	0.862795	0.452683	0.565809
H51	H	0.943321	0.531424	0.565824
H52	H	0.871517	0.517360	0.462073
H53	H	1.076618	0.352933	0.293458
H54	H	0.713735	0.427575	0.000008
C55	C	0.950538	0.039555	-0.000176
C56	C	1.020528	0.035405	-0.102058
C57	C	1.086955	-0.041865	-0.102272
H58	H	0.910241	-0.014852	-0.000239
H59	H	0.988436	0.044370	0.068849
H60	H	0.982635	0.030582	-0.171065
H61	H	1.060849	0.089793	-0.102017
H62	H	1.124852	-0.037050	-0.033246
H63	H	1.046649	-0.096266	-0.102331
H64	H	1.134457	-0.044686	-0.171391
C65	C	0.550225	0.082316	-0.000033
C66	C	0.441332	0.089058	-0.000052
C67	C	0.399228	0.000585	-0.000104
H68	H	0.567983	0.053895	0.069015
H69	H	0.577760	0.046151	-0.069122
H70	H	0.413807	0.125208	0.069031
H71	H	0.423545	0.117462	-0.069095
H72	H	0.426763	-0.035580	-0.069194
H73	H	0.416994	-0.027829	0.068945
H74	H	0.325341	0.005146	-0.000128
H75	H	1.389247	0.102012	0.480398
C76	C	1.352329	0.131563	0.276705
C77	C	1.408231	0.086659	0.357966
C78	C	1.483032	0.026534	0.295858
H79	H	1.399068	0.165706	0.228057
H80	H	1.318401	0.087079	0.228111
H81	H	1.442157	0.131137	0.406539
H82	H	1.361521	0.052498	0.406616
H83	H	1.449105	-0.017950	0.247264
H84	H	1.529763	0.060684	0.247212
H85	H	1.520964	-0.003947	0.350983
H86	H	0.736201	0.040154	0.000026
H87	H	1.373343	0.114777	0.706551
H88	H	1.117954	0.319762	0.706621
