data_functionalizedCrystal
_audit_creation_method	'MofGen! by Chris Wilmer'
_symmetry_space_group_name_H-M	'P1'
_symmetry_Int_Tables_number	1
_symmetry_cell_setting	triclinic
loop_
_symmetry_equiv_pos_as_xyz
  x,y,z
_cell_length_a	16.120490
_cell_length_b	16.120531
_cell_length_c	16.120297
_cell_angle_alpha	84.389419
_cell_angle_beta	90.129683
_cell_angle_gamma	89.829344
loop_
_atom_site_label
_atom_site_type_symbol
_atom_site_fract_x
_atom_site_fract_y
_atom_site_fract_z
Zn1	Zn	1.224942	0.422327	-0.554758
Zn2	Zn	1.224822	0.555010	-0.422054
Zn3	Zn	1.093682	0.408236	-0.408005
Zn4	Zn	1.078819	0.554234	-0.553990
O5	O	1.155566	0.484952	-0.484702
O6	O	1.340961	0.446149	-0.543356
O7	O	1.213596	0.529967	-0.303558
O8	O	1.117365	0.293476	-0.421914
O9	O	1.340873	0.543631	-0.445859
O10	O	1.213800	0.303828	-0.529733
O11	O	1.117249	0.422133	-0.293236
O12	O	0.975675	0.421381	-0.421169
O13	O	1.092032	0.542309	-0.670724
O14	O	0.964755	0.528645	-0.528424
O15	O	1.199388	0.445397	-0.671289
O16	O	1.199184	0.671536	-0.445114
O17	O	1.091916	0.670966	-0.542047
C18	C	0.940129	0.473401	-0.473189
C19	C	0.847961	0.468480	-0.468284
C20	C	0.632762	0.510469	-0.510144
C21	C	0.679215	0.459504	-0.459329
C22	C	0.773114	0.464500	-0.464313
C23	C	0.538854	0.505474	-0.505161
C24	C	1.143946	0.701494	-0.495041
C25	C	1.139049	0.794137	-0.499496
C26	C	1.130113	0.963758	-0.507647
C27	C	1.181054	1.005304	-0.461711
C28	C	1.176082	1.099687	-0.466246
C29	C	1.135084	0.869367	-0.503113
C30	C	1.371845	0.496548	-0.496261
C31	C	1.464010	0.501490	-0.501186
C32	C	1.144066	0.495339	-0.702094
C33	C	1.139165	0.499765	-0.794733
C34	C	1.167225	1.267564	-0.474325
C35	C	1.172120	1.174920	-0.469860
C36	C	1.130187	0.507826	-0.964344
C37	C	1.181122	0.461836	-1.005908
C38	C	1.176127	0.466321	-1.100286
C39	C	1.135181	0.503342	-0.869958
C40	C	1.167073	0.474547	-0.268156
C41	C	1.172147	0.469895	-0.175514
H42	H	0.648464	0.412119	-0.412080
H43	H	0.663511	0.557851	-0.557388
H44	H	1.082769	0.999071	-0.550376
F45	F	1.242938	0.959147	-0.405853
F46	F	1.243036	0.405984	-0.959779
H47	H	1.082834	0.550565	-0.999637
