data_functionalizedCrystal
_audit_creation_method	'MofGen! by Chris Wilmer'
_symmetry_space_group_name_H-M	'P1'
_symmetry_Int_Tables_number	1
_symmetry_cell_setting	triclinic
loop_
_symmetry_equiv_pos_as_xyz
  x,y,z
_cell_length_a	19.188900
_cell_length_b	17.666332
_cell_length_c	19.188930
_cell_angle_alpha	90.006765
_cell_angle_beta	96.861366
_cell_angle_gamma	89.985047
loop_
_atom_site_label
_atom_site_type_symbol
_atom_site_fract_x
_atom_site_fract_y
_atom_site_fract_z
O1	O	-0.926161	0.063104	0.087064
O2	O	-0.426161	0.563104	0.587064
O3	O	-0.722846	0.063074	0.098820
O4	O	-0.222846	0.563074	0.598820
O5	O	-0.830371	0.063075	-0.008714
O6	O	-0.330371	0.563075	0.491286
O7	O	-0.818636	0.063103	0.194599
O8	O	-0.318636	0.563103	0.694599
O9	O	-0.830357	-0.062822	-0.008710
O10	O	-0.330357	0.437178	0.491290
O11	O	-0.722832	-0.062823	0.098824
O12	O	-0.222832	0.437177	0.598824
O13	O	-0.926146	-0.062793	0.087068
O14	O	-0.426146	0.437207	0.587068
Cu15	Cu	-0.824488	-0.074303	0.092946
Cu16	Cu	-0.324488	0.425697	0.592946
Cu17	Cu	-0.824505	0.074584	0.092942
Cu18	Cu	-0.324505	0.574584	0.592942
O19	O	-0.818622	-0.062794	0.194602
O20	O	-0.318622	0.437206	0.694602
C21	C	-0.696828	0.000122	0.098445
C22	C	-0.196828	0.500122	0.598445
C23	C	-0.619322	0.000110	0.097313
C24	C	-0.119322	0.500110	0.597313
N25	N	-0.824481	-0.179023	0.092949
N26	N	-0.324481	0.320977	0.592949
C27	C	-0.582938	0.068737	0.096767
C28	C	-0.082938	0.568737	0.596767
C29	C	-0.510114	0.068745	0.095695
C30	C	-0.010114	0.568745	0.595695
C31	C	-0.473679	0.000121	0.095155
C32	C	0.026321	0.500121	0.595155
C33	C	-0.510072	-0.068516	0.095705
C34	C	-0.010072	0.431484	0.595705
C35	C	-0.582893	-0.068521	0.096784
C36	C	-0.082893	0.431479	0.596784
N37	N	-0.364653	-0.050957	0.053730
N38	N	0.135347	0.449043	0.553730
N39	N	-0.295476	-0.050947	0.052704
N40	N	0.204524	0.449053	0.552704
C41	C	-0.254272	0.000133	0.091907
C42	C	0.245728	0.500133	0.591907
N43	N	-0.284860	0.051215	0.132166
N44	N	0.215140	0.551215	0.632166
N45	N	-0.354044	0.051207	0.133189
N46	N	0.145956	0.551207	0.633189
C47	C	-0.394717	0.000119	0.093986
C48	C	0.105283	0.500119	0.593986
C49	C	-0.138924	0.068774	0.090200
C50	C	0.361076	0.568774	0.590200
C51	C	-0.066098	0.068778	0.089132
C52	C	0.433902	0.568778	0.589132
C53	C	-0.066058	-0.068484	0.089135
C54	C	0.433942	0.431516	0.589135
C55	C	-0.138881	-0.068486	0.090210
C56	C	0.361119	0.431514	0.590210
C57	C	-0.175310	0.000144	0.090738
C58	C	0.324690	0.500144	0.590738
C59	C	-0.866732	-0.781059	0.135165
C60	C	-0.366732	-0.281059	0.635165
C61	C	-0.866725	-0.701812	0.135172
C62	C	-0.366725	-0.201812	0.635172
C63	C	-0.824511	-0.662204	0.092935
C64	C	-0.324511	-0.162204	0.592935
C65	C	-0.782288	-0.701851	0.050701
C66	C	-0.282288	-0.201851	0.550701
C67	C	-0.782291	-0.781097	0.050701
C68	C	-0.282291	-0.281097	0.550701
N69	N	-0.822821	-0.537789	0.031774
N70	N	-0.322821	-0.037789	0.531774
N71	N	-0.822822	-0.462508	0.031777
N72	N	-0.322822	0.037492	0.531777
C73	C	-0.824499	-0.423440	0.092935
C74	C	-0.324499	0.076560	0.592935
N75	N	-0.826188	-0.462496	0.154091
N76	N	-0.326188	0.037504	0.654091
N77	N	-0.826191	-0.537784	0.154088
N78	N	-0.326191	-0.037784	0.654088
C79	C	-0.824503	-0.576275	0.092931
C80	C	-0.324503	-0.076275	0.592931
C81	C	-0.866708	-0.297874	0.135177
C82	C	-0.366708	0.202126	0.635177
C83	C	-0.866696	-0.218625	0.135185
C84	C	-0.366696	0.281375	0.635185
C85	C	-0.782263	-0.218665	0.050708
C86	C	-0.282263	0.281335	0.550708
C87	C	-0.782271	-0.297913	0.050706
C88	C	-0.282271	0.202087	0.550706
C89	C	-0.824497	-0.337512	0.092939
C90	C	-0.324497	0.162488	0.592939
C91	C	0.047836	0.000155	0.087448
C92	C	0.547836	0.500155	0.587448
C93	C	-0.029668	0.000154	0.088594
C94	C	0.470332	0.500154	0.588594
C95	C	-0.829984	0.000124	-0.034723
C96	C	-0.329984	0.500124	0.465277
C97	C	-0.828843	0.000118	-0.112228
C98	C	-0.328843	0.500118	0.387772
N99	N	-0.824517	0.179304	0.092934
N100	N	-0.324517	0.679304	0.592934
C101	C	-0.891935	0.000123	-0.157158
C102	C	-0.391935	0.500123	0.342842
C103	C	-0.890863	0.000135	-0.229982
C104	C	-0.390863	0.500135	0.270018
C105	C	-0.826696	0.000126	-0.257872
C106	C	-0.326696	0.500126	0.242128
C107	C	-0.763596	0.000125	-0.212931
C108	C	-0.263596	0.500125	0.287069
C109	C	-0.764669	0.000121	-0.140109
C110	C	-0.264669	0.500121	0.359891
N111	N	-0.777643	-0.042726	-0.365870
N112	N	-0.277643	0.457274	0.134130
N113	N	-0.776628	-0.042723	-0.435049
N114	N	-0.276628	0.457277	0.064951
C115	C	-0.823458	0.000141	-0.477280
C116	C	-0.323458	0.500141	0.022720
N117	N	-0.871352	0.042994	-0.447721
N118	N	-0.371352	0.542994	0.052279
N119	N	-0.872370	0.042988	-0.378536
N120	N	-0.372370	0.542988	0.121464
C121	C	-0.825525	0.000132	-0.336834
C122	C	-0.325525	0.500132	0.163166
C123	C	-0.885392	0.000161	-0.601175
C124	C	-0.385392	0.500161	-0.101175
C125	C	-0.884318	0.000177	-0.674000
C126	C	-0.384318	0.500177	-0.174000
C127	C	-0.757049	0.000160	-0.656947
C128	C	-0.257049	0.500160	-0.156947
C129	C	-0.758125	0.000151	-0.584124
C130	C	-0.258125	0.500151	-0.084124
C131	C	-0.822298	0.000148	-0.556243
C132	C	-0.322298	0.500148	-0.056243
C133	C	-0.819009	0.000158	0.220611
C134	C	-0.319009	0.500158	0.720611
C135	C	-0.820150	0.000170	0.298116
C136	C	-0.320150	0.500170	0.798116
H137	H	-0.480485	0.124631	0.095252
H138	H	0.019515	0.624631	0.595252
H139	H	-0.036393	-0.124359	0.088700
H140	H	0.463607	0.375641	0.588700
H141	H	-0.937646	0.000162	-0.578473
H142	H	-0.437646	0.500162	-0.078473
O143	O	-0.736746	-0.340654	0.005137
O144	O	-0.236746	0.159346	0.505137
H145	H	-0.699110	-0.376764	0.038696
H146	H	-0.199110	0.123236	0.538696
O147	O	-0.961147	0.000141	-0.127084
O148	O	-0.461147	0.500141	0.372916
H149	H	-1.004839	0.000158	-0.170567
H150	H	-0.504839	0.500158	0.329433
O151	O	-0.958914	0.000131	-0.278457
O152	O	-0.458914	0.500131	0.221543
H153	H	-1.003717	0.000122	-0.246835
H154	H	-0.503717	0.500122	0.253165
H155	H	-0.901101	-0.669533	0.169564
H156	H	-0.401101	-0.169533	0.669564
H157	H	-0.901115	-0.813296	0.169556
H158	H	-0.401115	-0.313296	0.669556
H159	H	-0.711351	0.000120	-0.235643
H160	H	-0.211351	0.500120	0.264357
O161	O	-0.952372	0.000176	-0.722463
O162	O	-0.452372	0.500176	-0.222463
H163	H	-0.983107	0.051484	-0.712561
H164	H	-0.483107	0.551484	-0.212561
O165	O	-0.696618	0.000102	-0.091640
O166	O	-0.196618	0.500102	0.408360
H167	H	-0.651817	0.000092	-0.123265
H168	H	-0.151817	0.500092	0.376735
H169	H	-0.704803	0.000156	-0.679654
H170	H	-0.204803	0.500156	-0.179654
O171	O	-0.690076	0.000126	-0.535655
O172	O	-0.190076	0.500126	-0.035655
H173	H	-0.645275	0.000113	-0.567281
H174	H	-0.145275	0.500113	-0.067281
H175	H	-0.612594	0.124622	0.097197
H176	H	-0.112594	0.624622	0.597197
O177	O	-0.470620	-0.142454	0.095378
O178	O	0.029380	0.357546	0.595378
H179	H	-0.443692	-0.145860	0.047396
H180	H	0.056308	0.354140	0.547396
O181	O	-0.622142	-0.142543	0.097382
O182	O	-0.122142	0.357457	0.597382
H183	H	-0.584575	-0.190263	0.096829
H184	H	-0.084575	0.309737	0.596829
H185	H	-0.036475	0.124665	0.088692
H186	H	0.463525	0.624665	0.588692
O187	O	-0.178222	0.142791	0.090782
O188	O	0.321778	0.642791	0.590782
H189	H	-0.140682	0.190516	0.090236
H190	H	0.359318	0.690516	0.590236
H191	H	-0.747913	-0.813369	0.016310
H192	H	-0.247913	-0.313369	0.516310
O193	O	-0.912240	-0.340594	0.180734
O194	O	-0.412240	0.159406	0.680734
H195	H	-0.941585	-0.299715	0.210112
H196	H	-0.441585	0.200285	0.710112
H197	H	-0.168506	-0.124370	0.090650
H198	H	0.331494	0.375630	0.590650
O199	O	-0.736790	-0.659138	0.005109
O200	O	-0.236790	-0.159138	0.505109
H201	H	-0.743898	-0.597374	0.012186
H202	H	-0.243898	-0.097374	0.512186
H203	H	-0.901071	-0.186354	0.169579
H204	H	-0.401071	0.313646	0.669579
H205	H	-0.747888	-0.186418	0.016322
H206	H	-0.247888	0.313582	0.516322
