data_functionalizedCrystal
_audit_creation_method	'MofGen! by Chris Wilmer'
_symmetry_space_group_name_H-M	'P1'
_symmetry_Int_Tables_number	1
_symmetry_cell_setting	triclinic
loop_
_symmetry_equiv_pos_as_xyz
  x,y,z
_cell_length_a	18.215405
_cell_length_b	18.215407
_cell_length_c	18.215399
_cell_angle_alpha	90.013852
_cell_angle_beta	89.967040
_cell_angle_gamma	89.978982
loop_
_atom_site_label
_atom_site_type_symbol
_atom_site_fract_x
_atom_site_fract_y
_atom_site_fract_z
Zn1	Zn	-0.293050	-1.125050	-0.416044
Zn2	Zn	-0.416127	-1.124965	-0.292972
Zn3	Zn	-0.293070	-1.001989	-0.292998
Zn4	Zn	-0.416071	-1.001949	-0.416004
O5	O	-0.354580	-1.063488	-0.354504
O6	O	-0.309391	-1.228023	-0.399725
O7	O	-0.399835	-1.108633	-0.189991
O8	O	-0.190083	-1.018366	-0.309348
O9	O	-0.399815	-1.227960	-0.309304
O10	O	-0.190069	-1.108778	-0.399750
O11	O	-0.309426	-1.018283	-0.190010
O12	O	-0.309372	-0.898999	-0.309309
O13	O	-0.399721	-1.018297	-0.518993
O14	O	-0.399740	-0.898970	-0.399680
O15	O	-0.309338	-1.108739	-0.519023
O16	O	-0.519104	-1.108594	-0.309265
O17	O	-0.519063	-1.018214	-0.399656
C18	C	-0.354553	-0.872282	-0.354493
C19	C	-0.354559	-0.790483	-0.354506
C20	C	-0.401699	-0.525429	-0.401497
C21	C	-0.401695	-0.602288	-0.401493
C22	C	-0.307453	-0.602288	-0.307526
C23	C	-0.307462	-0.525431	-0.307526
C24	C	-0.354584	-0.487003	-0.354516
C25	C	-0.354571	-0.640720	-0.354512
C26	C	-0.354566	-0.724053	-0.354508
C27	C	-0.354590	-0.403664	-0.354519
C28	C	-0.545786	-1.063410	-0.354469
C29	C	-0.627585	-1.063445	-0.354479
C30	C	-0.815775	-1.110616	-0.307499
C31	C	-0.892634	-1.110649	-0.307517
C32	C	-0.892632	-1.016455	-0.401563
C33	C	-0.815774	-1.016426	-0.401548
C34	C	-0.777348	-1.063505	-0.354512
C35	C	-0.931064	-1.063567	-0.354545
C36	C	-1.014398	-1.063602	-0.354564
C37	C	-0.694009	-1.063471	-0.354493
C38	C	-0.162627	-1.063586	-0.354556
C39	C	-0.080828	-1.063628	-0.354578
C40	C	-0.354521	-1.063523	-0.546457
C41	C	-0.354496	-1.063538	-0.628256
C42	C	-0.354601	-0.255441	-0.354516
C43	C	-0.354596	-0.337240	-0.354522
C44	C	-0.307388	-1.016532	-0.816461
C45	C	-0.307373	-1.016545	-0.893320
C46	C	-0.401516	-1.110631	-0.893290
C47	C	-0.401534	-1.110614	-0.816432
C48	C	-0.354466	-1.063566	-0.778020
C49	C	-0.354433	-1.063596	-0.931736
C50	C	-0.354417	-1.063610	-1.015070
C51	C	-0.354482	-1.063550	-0.694681
C52	C	-0.354585	-1.063496	-0.163298
C53	C	-0.354403	-1.063624	-0.081500
H54	H	-0.440069	-0.494144	-0.439759
C55	C	-0.773502	-0.964614	-0.453284
N56	N	-0.741662	-0.925597	-0.492257
H57	H	-0.923928	-0.978123	-0.439857
C58	C	-0.773509	-1.162408	-0.255762
N59	N	-0.741677	-1.201422	-0.216793
H60	H	-0.269039	-0.978245	-0.924615
C61	C	-0.934901	-1.162471	-0.255795
N62	N	-0.966735	-1.201505	-0.216836
H63	H	-0.269062	-0.978222	-0.785188
H64	H	-0.440062	-0.633571	-0.439749
H65	H	-0.269094	-0.494144	-0.269265
C66	C	-0.255611	-0.644566	-0.255851
N67	N	-0.216558	-0.676409	-0.216933
H68	H	-0.439836	-1.148937	-0.924574
C69	C	-0.453312	-1.162371	-0.774144
N70	N	-0.492306	-1.201356	-0.742293
