data_functionalizedCrystal
_audit_creation_method	'MofGen! by Chris Wilmer'
_symmetry_space_group_name_H-M	'P1'
_symmetry_Int_Tables_number	1
_symmetry_cell_setting	triclinic
loop_
_symmetry_equiv_pos_as_xyz
  x,y,z
_cell_length_a	16.625548
_cell_length_b	29.839131
_cell_length_c	16.625539
_cell_angle_alpha	89.967906
_cell_angle_beta	89.979432
_cell_angle_gamma	90.042488
loop_
_atom_site_label
_atom_site_type_symbol
_atom_site_fract_x
_atom_site_fract_y
_atom_site_fract_z
Zn1	Zn	1.232574	-0.178840	-0.455888
Zn2	Zn	1.232433	-0.253971	-0.321046
Zn3	Zn	1.097736	-0.178857	-0.321069
Zn4	Zn	1.097662	-0.253945	-0.455836
O5	O	1.165101	-0.216403	-0.388460
O6	O	1.345388	-0.188810	-0.438013
O7	O	1.214537	-0.244025	-0.208217
O8	O	1.115713	-0.115987	-0.338984
O9	O	1.345284	-0.244008	-0.338946
O10	O	1.214778	-0.115975	-0.438035
O11	O	1.115576	-0.188839	-0.208233
O12	O	0.984894	-0.188814	-0.338933
O13	O	1.115586	-0.243964	-0.568676
O14	O	0.984839	-0.243981	-0.437947
O15	O	1.214706	-0.188785	-0.568714
O16	O	1.214465	-0.316834	-0.338896
O17	O	1.115449	-0.316815	-0.437925
C18	C	0.955610	-0.216397	-0.388437
C19	C	0.865989	-0.216405	-0.388447
C20	C	0.537814	-0.216408	-0.388481
C21	C	0.629122	-0.216406	-0.388469
C22	C	0.701899	-0.216406	-0.388463
C23	C	0.793213	-0.216404	-0.388452
C24	C	1.164956	-0.333126	-0.388420
C25	C	1.164967	-0.383060	-0.388430
C26	C	1.216752	-0.692701	-0.336971
C27	C	1.216852	-0.880374	-0.337002
O28	O	1.260766	-0.904636	-0.293219
N29	N	1.165268	-0.903845	-0.388521
C30	C	1.113660	-0.880395	-0.440039
O31	O	1.069793	-0.904665	-0.483866
C32	C	1.113565	-0.692723	-0.440011
C33	C	1.165146	-0.669254	-0.388483
C34	C	1.268330	-0.669232	-0.285447
C35	C	1.268302	-0.622316	-0.285437
C36	C	1.216695	-0.598870	-0.336950
C37	C	1.165118	-0.622339	-0.388473
C38	C	1.061962	-0.669274	-0.491533
C39	C	1.061944	-0.622353	-0.491523
C40	C	1.113525	-0.598884	-0.439995
C41	C	1.113483	-0.551977	-0.439975
N42	N	1.165067	-0.528505	-0.388456
C43	C	1.216673	-0.551952	-0.336944
C44	C	1.113712	-0.978926	-0.440049
C45	C	1.113735	-1.025844	-0.440055
C46	C	1.216928	-1.025819	-0.337019
C47	C	1.216901	-0.978900	-0.337009
C48	C	1.165296	-0.955455	-0.388530
C49	C	1.216609	-0.453426	-0.336925
C50	C	1.216573	-0.406506	-0.336917
C51	C	1.113383	-0.406535	-0.439956
C52	C	1.113416	-0.453451	-0.439962
C53	C	1.165035	-0.476895	-0.388443
O54	O	1.069599	-0.527685	-0.483742
O55	O	1.260546	-0.527674	-0.293136
C56	C	1.216781	-0.739616	-0.336981
C57	C	1.165203	-0.763085	-0.388504
C58	C	1.113597	-0.739639	-0.440017
C59	C	1.165226	-0.810003	-0.388510
C60	C	1.216832	-0.833449	-0.336997
C61	C	1.268416	-0.809978	-0.285479
C62	C	1.268387	-0.763062	-0.285468
C63	C	1.062014	-0.763110	-0.491536
C64	C	1.062046	-0.810026	-0.491541
C65	C	1.113652	-0.833472	-0.440028
C66	C	1.375410	-0.216410	-0.388483
C67	C	1.465031	-0.216413	-0.388493
C68	C	1.165154	-0.216370	-0.598769
C69	C	1.165176	-0.216355	-0.688390
C70	C	1.165269	-0.099225	-0.388518
C71	C	1.165341	-0.049290	-0.388542
C72	C	1.165213	-0.216305	-1.016566
C73	C	1.165201	-0.216320	-0.925257
C74	C	1.165195	-0.216330	-0.852481
C75	C	1.165182	-0.216345	-0.761167
C76	C	1.165095	-0.216404	-0.178969
C77	C	1.165229	-0.216292	-0.089348
H78	H	1.258577	-0.387399	-0.294954
H79	H	1.019922	-0.603266	-0.533480
H80	H	1.258948	-1.044917	-0.295075
C81	C	1.056622	-0.380737	-0.496619
C82	C	0.993327	-0.348528	-0.461618
C83	C	0.936570	-0.322728	-0.518286
C84	C	0.943109	-0.329137	-0.609956
C85	C	1.006407	-0.361347	-0.644962
C86	C	1.063163	-0.387148	-0.588294
H87	H	0.988484	-0.343783	-0.393754
H88	H	0.889713	-0.298884	-0.492371
H89	H	0.901094	-0.310038	-0.651905
H90	H	1.011249	-0.366093	-0.712826
H91	H	1.110020	-0.410992	-0.614209
H92	H	1.071725	-1.044948	-0.482007
C93	C	1.325048	-0.596506	-0.228758
C94	C	1.290140	-0.564298	-0.165405
C95	C	1.346892	-0.538492	-0.108723
C96	C	1.438552	-0.544895	-0.115394
C97	C	1.473465	-0.577105	-0.178749
C98	C	1.416713	-0.602911	-0.235431
H99	H	1.222284	-0.559557	-0.160465
H100	H	1.321047	-0.514648	-0.061823
H101	H	1.480563	-0.525793	-0.073434
H102	H	1.541321	-0.581847	-0.183689
H103	H	1.442558	-0.626755	-0.282331
C104	C	1.005240	-0.737325	-0.548203
C105	C	0.913588	-0.743839	-0.541534
C106	C	0.856807	-0.718057	-0.598203
C107	C	0.891678	-0.685760	-0.661542
C108	C	0.983336	-0.679243	-0.668214
C109	C	1.040117	-0.705026	-0.611545
H110	H	0.887769	-0.767749	-0.494644
H111	H	0.788956	-0.722881	-0.593264
H112	H	0.849646	-0.666674	-0.703492
H113	H	1.009154	-0.655333	-0.715104
H114	H	1.107968	-0.700202	-0.616484
H115	H	1.310358	-0.688317	-0.243499
C116	C	1.056938	-0.953141	-0.496725
C117	C	0.965285	-0.959652	-0.490056
C118	C	0.908508	-0.933870	-0.546730
C119	C	0.943384	-0.901577	-0.610074
C120	C	1.035042	-0.895064	-0.616745
C121	C	1.091819	-0.920846	-0.560071
H122	H	0.939463	-0.983559	-0.443163
H123	H	0.840656	-0.938692	-0.541791
H124	H	0.901354	-0.882492	-0.652027
H125	H	1.060864	-0.871158	-0.663638
H126	H	1.159671	-0.916025	-0.565010
C127	C	1.056675	-0.479272	-0.496636
C128	C	0.965011	-0.472883	-0.489974
C129	C	0.908277	-0.498701	-0.546655
C130	C	0.943206	-0.530908	-0.609998
C131	C	1.034874	-0.537298	-0.616663
C132	C	1.091609	-0.511480	-0.559982
H133	H	0.939150	-0.449040	-0.443081
H134	H	0.840418	-0.493970	-0.541721
H135	H	0.901208	-0.550020	-0.651957
H136	H	1.060735	-0.561141	-0.663555
H137	H	1.159468	-0.516211	-0.564916
H138	H	1.258644	-0.472509	-0.294976
H139	H	1.258903	-0.959794	-0.295051
C140	C	1.325133	-0.737251	-0.228790
C141	C	1.318611	-0.743746	-0.137124
C142	C	1.375361	-0.717939	-0.080444
C143	C	1.438634	-0.685637	-0.115429
C144	C	1.445159	-0.679140	-0.207100
C145	C	1.388408	-0.704947	-0.263780
H146	H	1.271770	-0.767660	-0.111222
H147	H	1.370531	-0.722748	-0.012583
H148	H	1.480645	-0.666533	-0.073471
H149	H	1.492000	-0.655227	-0.233002
H150	H	1.393239	-0.700138	-0.331641
C151	C	1.325184	-0.835775	-0.228815
C152	C	1.318658	-0.829370	-0.137143
C153	C	1.375427	-0.855169	-0.080487
C154	C	1.438722	-0.887374	-0.115502
C155	C	1.445250	-0.893781	-0.207178
C156	C	1.388482	-0.867981	-0.263835
H157	H	1.271802	-0.805528	-0.111219
H158	H	1.370594	-0.850427	-0.012622
H159	H	1.480746	-0.906473	-0.073561
H160	H	1.492107	-0.917622	-0.233103
H161	H	1.393315	-0.872724	-0.331700
H162	H	1.019955	-0.688375	-0.533489
H163	H	1.020035	-0.829130	-0.533501
