data_functionalizedCrystal
_audit_creation_method	'MofGen! by Chris Wilmer'
_symmetry_space_group_name_H-M	'P1'
_symmetry_Int_Tables_number	1
_symmetry_cell_setting	triclinic
loop_
_symmetry_equiv_pos_as_xyz
  x,y,z
_cell_length_a	19.077105
_cell_length_b	25.639239
_cell_length_c	19.076919
_cell_angle_alpha	92.268407
_cell_angle_beta	90.076224
_cell_angle_gamma	87.734929
loop_
_atom_site_label
_atom_site_type_symbol
_atom_site_fract_x
_atom_site_fract_y
_atom_site_fract_z
Zn1	Zn	1.058187	-0.252939	-0.440398
Zn2	Zn	1.558187	0.247061	0.059602
Zn3	Zn	1.062799	-0.337004	-0.322884
Zn4	Zn	1.562799	0.162996	0.177116
Zn5	Zn	0.945407	-0.245935	-0.318192
Zn6	Zn	1.445407	0.254065	0.181808
Zn7	Zn	0.940620	-0.336689	-0.435637
Zn8	Zn	1.440620	0.163311	0.064363
O9	O	1.001753	-0.293142	-0.379278
O10	O	1.501753	0.206858	0.120722
O11	O	1.157129	-0.267153	-0.428766
O12	O	1.657129	0.232847	0.071234
O13	O	1.051160	-0.322124	-0.223931
O14	O	1.551160	0.177876	0.276069
O15	O	0.960440	-0.173702	-0.334431
O16	O	1.460440	0.326298	0.165569
O17	O	1.160518	-0.328916	-0.342429
O18	O	1.660518	0.171084	0.157571
O19	O	1.043299	-0.178848	-0.424215
O20	O	1.543299	0.321152	0.075785
O21	O	0.964912	-0.255216	-0.220483
O22	O	1.464912	0.244784	0.279517
O23	O	0.846441	-0.254910	-0.329815
O24	O	1.346441	0.245090	0.170185
O25	O	0.952283	-0.328378	-0.534600
O26	O	1.452283	0.171622	-0.034600
O27	O	0.842925	-0.321587	-0.416101
O28	O	1.342925	0.178413	0.083899
O29	O	1.038658	-0.266848	-0.538097
O30	O	1.538658	0.233152	-0.038097
O31	O	1.046519	-0.410124	-0.337813
O32	O	1.546519	0.089876	0.162187
O33	O	0.956755	-0.409893	-0.420652
O34	O	1.456755	0.090107	0.079348
C35	C	0.819187	-0.287455	-0.371933
C36	C	1.319187	0.212545	0.128067
C37	C	0.741083	-0.285035	-0.368807
C38	C	1.241083	0.214965	0.131193
C39	C	0.702581	-0.318661	-0.412193
C40	C	1.202581	0.181339	0.087807
C41	C	0.629194	-0.316381	-0.409259
C42	C	1.129194	0.183619	0.090741
C43	C	0.594312	-0.280476	-0.362936
C44	C	1.094312	0.219524	0.137064
C45	C	0.632820	-0.246846	-0.319549
C46	C	1.132820	0.253154	0.180451
C47	C	0.706205	-0.249125	-0.322486
C48	C	1.206205	0.250875	0.177514
C49	C	0.375028	-0.269932	-0.349344
C50	C	0.875028	0.230068	0.150656
C51	C	0.301638	-0.267658	-0.346409
C52	C	0.801638	0.232342	0.153591
C53	C	0.298017	-0.337192	-0.436121
C54	C	0.798017	0.162808	0.063879
C55	C	0.371404	-0.339469	-0.439051
C56	C	0.871404	0.160531	0.060949
C57	C	0.409905	-0.305837	-0.395666
C58	C	0.909905	0.194163	0.104334
N59	N	0.519299	-0.278146	-0.359935
N60	N	1.019299	0.221854	0.140065
N61	N	0.484917	-0.308166	-0.398671
N62	N	0.984917	0.191834	0.101329
C63	C	1.001636	-0.428980	-0.379241
C64	C	1.501636	0.071020	0.120759
C65	C	1.001650	-0.487094	-0.379251
C66	C	1.501650	0.012906	0.120749
C67	C	1.048607	-0.847575	-0.336225
C68	C	1.548607	-0.347575	0.163775
C69	C	1.048634	-0.902180	-0.336235
C70	C	1.548634	-0.402180	0.163765
O71	O	1.088438	-0.930513	-0.299613
O72	O	1.588438	-0.430513	0.200387
N73	N	1.001875	-0.929386	-0.379329
N74	N	1.501875	-0.429386	0.120671
C75	C	0.955090	-0.901983	-0.422421
C76	C	1.455090	-0.401983	0.077579
O77	O	0.915321	-0.930137	-0.459077
O78	O	1.415321	-0.430137	0.040923
C79	C	0.955067	-0.847379	-0.422413
C80	C	1.455067	-0.347379	0.077587
C81	C	1.001825	-0.820176	-0.379311
C82	C	1.501825	-0.320176	0.120689
C83	C	1.095362	-0.820372	-0.293127
C84	C	1.595362	-0.320372	0.206873
C85	C	1.095334	-0.765771	-0.293116
C86	C	1.595334	-0.265771	0.206884
C87	C	1.048551	-0.738372	-0.336202
C88	C	1.548551	-0.238372	0.163798
C89	C	1.001797	-0.765574	-0.379300
C90	C	1.501797	-0.265574	0.120700
C91	C	0.908287	-0.819977	-0.465508
C92	C	1.408287	-0.319977	0.034492
C93	C	0.908268	-0.765369	-0.465497
C94	C	1.408268	-0.265369	0.034503
C95	C	0.955026	-0.738167	-0.422395
C96	C	1.455026	-0.238167	0.077605
C97	C	0.954987	-0.683574	-0.422375
C98	C	1.454987	-0.183574	0.077625
N99	N	1.001746	-0.656368	-0.379282
N100	N	1.501746	-0.156368	0.120718
C101	C	1.048528	-0.683767	-0.336195
C102	C	1.548528	-0.183767	0.163805
C103	C	0.955143	-1.016656	-0.422434
C104	C	1.455143	-0.516656	0.077566
C105	C	0.955162	-1.071259	-0.422438
C106	C	1.455162	-0.571259	0.077562
C107	C	1.048707	-1.071452	-0.336253
C108	C	1.548707	-0.571452	0.163747
C109	C	1.048684	-1.016848	-0.336246
C110	C	1.548684	-0.516848	0.163754
C111	C	1.001902	-0.989450	-0.379340
C112	C	1.501902	-0.489450	0.120660
C113	C	1.048466	-0.569100	-0.336174
C114	C	1.548466	-0.069100	0.163826
C115	C	1.048432	-0.514493	-0.336164
C116	C	1.548432	-0.014493	0.163836
C117	C	0.954890	-0.514304	-0.422351
C118	C	1.454890	-0.014304	0.077649
C119	C	0.954921	-0.568906	-0.422359
C120	C	1.454921	-0.068906	0.077641
C121	C	1.001715	-0.596303	-0.379268
C122	C	1.501715	-0.096303	0.120732
O123	O	0.915205	-0.655207	-0.458982
O124	O	1.415205	-0.155207	0.041018
O125	O	1.088298	-0.655607	-0.299552
O126	O	1.588298	-0.155607	0.200448
C127	C	1.185032	-0.298851	-0.386652
C128	C	1.685032	0.201149	0.113348
C129	C	1.263135	-0.301284	-0.389794
C130	C	1.763135	0.198716	0.110206
C131	C	0.994422	-0.298359	-0.562557
C132	C	1.494422	0.201641	-0.062557
C133	C	0.991298	-0.300582	-0.640660
C134	C	1.491298	0.199418	-0.140660
C135	C	1.001889	-0.156774	-0.379331
C136	C	1.501889	0.343226	0.120669
C137	C	1.001947	-0.098662	-0.379354
C138	C	1.501947	0.401338	0.120646
C139	C	1.034799	-0.269593	-0.679175
C140	C	1.534799	0.230407	-0.179175
C141	C	1.031855	-0.271680	-0.752561
C142	C	1.531855	0.228320	-0.252561
C143	C	0.985413	-0.304759	-0.787430
C144	C	1.485413	0.195241	-0.287430
C145	C	0.941907	-0.335750	-0.748910
C146	C	1.441907	0.164250	-0.248910
C147	C	0.944848	-0.333660	-0.675526
C148	C	1.444848	0.166340	-0.175526
C149	C	0.971792	-0.314442	-1.006711
C150	C	1.471792	0.185558	-0.506711
C151	C	0.968856	-0.316531	-1.080100
C152	C	1.468856	0.183469	-0.580100
C153	C	1.058803	-0.252460	-1.083746
C154	C	1.558803	0.247540	-0.583746
C155	C	1.061742	-0.250375	-1.010361
C156	C	1.561742	0.249625	-0.510361
C157	C	1.018234	-0.281364	-0.971846
C158	C	1.518234	0.218636	-0.471846
N159	N	0.982404	-0.306894	-0.862442
N160	N	1.482404	0.193106	-0.362442
N161	N	1.021240	-0.279226	-0.896836
N162	N	1.521240	0.220774	-0.396836
C163	C	1.009096	-0.287908	-0.196713
C164	C	1.509096	0.212092	0.303287
C165	C	1.012356	-0.285541	-0.118616
C166	C	1.512356	0.214459	0.381384
H167	H	0.399800	-0.368707	-0.476771
H168	H	0.899800	0.131293	0.023229
C169	C	1.148004	-0.188919	-1.079978
C170	C	1.648004	0.311081	-0.579978
C171	C	1.106621	-0.218394	-1.126082
C172	C	1.606621	0.281606	-0.626082
H173	H	1.177528	-0.167889	-1.106115
H174	H	1.677528	0.332111	-0.606115
H175	H	1.118555	-0.167154	-1.050131
H176	H	1.618555	0.332846	-0.550131
H177	H	1.176006	-0.211726	-1.052428
H178	H	1.676006	0.288274	-0.552428
H179	H	1.078615	-0.195587	-1.153628
H180	H	1.578615	0.304413	-0.653628
H181	H	1.136074	-0.240161	-1.155941
H182	H	1.636074	0.259839	-0.655941
H183	H	0.936374	-0.339684	-0.975362
H184	H	1.436374	0.160316	-0.475362
H185	H	0.917081	-1.093402	-0.457529
H186	H	1.417081	-0.593402	0.042471
H187	H	0.931035	-0.343470	-1.108489
H188	H	1.431035	0.156530	-0.608489
C189	C	0.546220	-0.384424	-0.415532
C190	C	1.046220	0.115576	0.084468
C191	C	0.586865	-0.353344	-0.456944
C192	C	1.086865	0.146656	0.043056
H193	H	0.520084	-0.407242	-0.444973
H194	H	1.020084	0.092758	0.055027
H195	H	0.576051	-0.404402	-0.386019
H196	H	1.076051	0.095598	0.113981
H197	H	0.514950	-0.362706	-0.387527
H198	H	1.014950	0.137294	0.112473
H199	H	0.618139	-0.375063	-0.484945
H200	H	1.118139	0.124937	0.015055
H201	H	0.557031	-0.333365	-0.486469
H202	H	1.057031	0.166635	0.013531
C203	C	0.820309	-0.221741	-0.287159
C204	C	1.320309	0.278259	0.212841
C205	C	0.748531	-0.212162	-0.274795
C206	C	1.248531	0.287838	0.225205
H207	H	0.846437	-0.198917	-0.257720
H208	H	1.346437	0.301083	0.242280
H209	H	0.832716	-0.256931	-0.277266
H210	H	1.332716	0.243069	0.222734
H211	H	0.830453	-0.215862	-0.334874
H212	H	1.330453	0.284138	0.165126
H213	H	0.738386	-0.218044	-0.227081
H214	H	1.238386	0.281956	0.272919
H215	H	0.736119	-0.176964	-0.284683
H216	H	1.236119	0.323036	0.215317
C217	C	0.273997	-0.426029	-0.469235
C218	C	0.773997	0.073971	0.030765
C219	C	0.255696	-0.374153	-0.483816
C220	C	0.755696	0.125847	0.016184
H221	H	0.247867	-0.448846	-0.498683
H222	H	0.747867	0.051154	0.001317
H223	H	0.322689	-0.432519	-0.477613
H224	H	0.822689	0.067481	0.022387
H225	H	0.263835	-0.431905	-0.421523
H226	H	0.763835	0.068095	0.078477
H227	H	0.265863	-0.368276	-0.531528
H228	H	0.765863	0.131724	-0.031528
H229	H	0.206993	-0.367660	-0.475444
H230	H	0.706993	0.132340	0.024556
H231	H	0.273239	-0.238414	-0.308691
H232	H	0.773239	0.261586	0.191309
H233	H	0.406367	-0.242551	-0.314012
H234	H	0.906367	0.257449	0.185988
H235	H	0.604413	-0.217610	-0.281834
H236	H	1.104413	0.282390	0.218166
C237	C	1.140904	-0.520178	-0.250976
C238	C	1.640904	-0.020178	0.249024
C239	C	1.099834	-0.484593	-0.288787
C240	C	1.599834	0.015407	0.211213
H241	H	1.172640	-0.501719	-0.221732
H242	H	1.672640	-0.001719	0.278268
H243	H	1.111397	-0.539789	-0.222848
H244	H	1.611397	-0.039789	0.277152
H245	H	1.166538	-0.543154	-0.282707
H246	H	1.666538	-0.043154	0.217293
H247	H	1.074196	-0.461619	-0.257055
H248	H	1.574196	0.038381	0.242945
H249	H	1.129345	-0.464973	-0.316917
H250	H	1.629345	0.035027	0.183083
H251	H	1.086571	-0.591400	-0.301087
H252	H	1.586571	-0.091400	0.198913
C253	C	1.141176	-1.066173	-0.251060
C254	C	1.641176	-0.566173	0.248940
C255	C	1.100136	-1.101576	-0.288893
C256	C	1.600136	-0.601576	0.211107
H257	H	1.172920	-1.084772	-0.221821
H258	H	1.672920	-0.584772	0.278179
H259	H	1.166794	-1.046554	-0.282772
H260	H	1.666794	-0.546554	0.217228
H261	H	1.111645	-1.043187	-0.222918
H262	H	1.611645	-0.543187	0.277082
H263	H	1.129666	-1.124559	-0.317039
H264	H	1.629666	-0.624559	0.182961
H265	H	1.074517	-1.121204	-0.257177
H266	H	1.574517	-0.621204	0.242823
C267	C	0.909416	-0.358903	-0.561411
C268	C	1.409416	0.141097	-0.061411
C269	C	0.897031	-0.367725	-0.633186
C270	C	1.397031	0.132275	-0.133186
H271	H	0.879889	-0.379930	-0.535274
H272	H	1.379889	0.120070	-0.035274
H273	H	0.957096	-0.367685	-0.551287
H274	H	1.457096	0.132315	-0.051287
H275	H	0.899649	-0.323110	-0.548994
H276	H	1.399649	0.176890	-0.048994
H277	H	0.906802	-0.403517	-0.645604
H278	H	1.406802	0.096483	-0.145604
H279	H	0.849340	-0.358946	-0.643314
H280	H	1.349340	0.141054	-0.143314
C281	C	0.815813	-0.770668	-0.550699
C282	C	1.315813	-0.270668	-0.050699
C283	C	0.856843	-0.735255	-0.512870
C284	C	1.356843	-0.235255	-0.012870
H285	H	0.784064	-0.752075	-0.579940
H286	H	1.284064	-0.252075	-0.079940
H287	H	0.845345	-0.793650	-0.578830
H288	H	1.345345	-0.293650	-0.078830
H289	H	0.790195	-0.790288	-0.518978
H290	H	1.290195	-0.290288	-0.018978
H291	H	0.882465	-0.715637	-0.544590
H292	H	1.382465	-0.215637	-0.044590
H293	H	0.827308	-0.712263	-0.484736
H294	H	1.327308	-0.212263	0.015264
H295	H	1.133410	-0.743625	-0.258020
H296	H	1.633410	-0.243625	0.241980
C297	C	1.187812	-0.815064	-0.207931
C298	C	1.687812	-0.315064	0.292069
C299	C	1.146787	-0.850483	-0.245756
C300	C	1.646787	-0.350483	0.254244
H301	H	1.219555	-0.833651	-0.178678
H302	H	1.719555	-0.333651	0.321322
H303	H	1.213430	-0.795450	-0.239648
H304	H	1.713430	-0.295450	0.260352
H305	H	1.158271	-0.792076	-0.179804
H306	H	1.658271	-0.292076	0.320196
H307	H	1.176327	-0.873469	-0.273886
H308	H	1.676327	-0.373469	0.226114
H309	H	1.121167	-0.870106	-0.214034
H310	H	1.621167	-0.370106	0.285966
C311	C	0.941332	-0.632680	-0.516484
C312	C	1.441332	-0.132680	-0.016484
C313	C	0.903522	-0.598814	-0.469729
C314	C	1.403522	-0.098814	0.030271
H315	H	0.909602	-0.651143	-0.545728
H316	H	1.409602	-0.151143	-0.045728
H317	H	0.970829	-0.613060	-0.544611
H318	H	1.470829	-0.113060	-0.044611
H319	H	0.969198	-0.656811	-0.490818
H320	H	1.469198	-0.156811	0.009182
H321	H	0.875660	-0.574681	-0.495395
H322	H	1.375660	-0.074681	0.004605
H323	H	0.874013	-0.618435	-0.441600
H324	H	1.374013	-0.118435	0.058400
H325	H	1.086758	-0.994703	-0.301149
H326	H	1.586758	-0.494703	0.198851
C327	C	0.913332	-0.430509	-0.460602
C328	C	1.413332	0.069491	0.039398
C329	C	0.903471	-0.484180	-0.469715
C330	C	1.403471	0.015820	0.030285
H331	H	0.881593	-0.411912	-0.489849
H332	H	1.381593	0.088088	0.010151
H333	H	0.904964	-0.419923	-0.412974
H334	H	1.404964	0.080077	0.087026
H335	H	0.960124	-0.423293	-0.472816
H336	H	1.460124	0.076707	0.027184
H337	H	0.856680	-0.491398	-0.457495
H338	H	1.356680	0.008602	0.042505
H339	H	0.911834	-0.494770	-0.517354
H340	H	1.411834	0.005230	-0.017354
C341	C	0.862673	-1.021957	-0.507618
C342	C	1.362673	-0.521957	-0.007618
C343	C	0.903707	-0.986542	-0.469798
C344	C	1.403707	-0.486542	0.030202
H345	H	0.830917	-1.003367	-0.536855
H346	H	1.330917	-0.503367	-0.036855
H347	H	0.892201	-1.044940	-0.535753
H348	H	1.392201	-0.544940	-0.035753
H349	H	0.837061	-1.041577	-0.475891
H350	H	1.337061	-0.541577	0.024109
H351	H	0.929322	-0.966925	-0.501524
H352	H	1.429322	-0.466925	-0.001524
H353	H	0.874175	-0.963550	-0.441661
H354	H	1.374175	-0.463550	0.058339
C355	C	0.894703	-0.883737	-0.559648
C356	C	1.394703	-0.383737	-0.059648
C357	C	0.856894	-0.849869	-0.512895
C358	C	1.356894	-0.349869	-0.012895
H359	H	0.862974	-0.902191	-0.588903
H360	H	1.362974	-0.402191	-0.088903
H361	H	0.924213	-0.864119	-0.587765
H362	H	1.424213	-0.364119	-0.087765
H363	H	0.922557	-0.907875	-0.533982
H364	H	1.422557	-0.407875	-0.033982
H365	H	0.829045	-0.825728	-0.538561
H366	H	1.329045	-0.325728	-0.038561
H367	H	0.827372	-0.869488	-0.484776
H368	H	1.327372	-0.369488	0.015224
C369	C	0.897463	-0.367406	-0.859783
C370	C	1.397463	0.132594	-0.359783
C371	C	0.890857	-0.372112	-0.787237
C372	C	1.390857	0.127888	-0.287237
H373	H	0.865950	-0.389858	-0.883442
H374	H	1.365950	0.110142	-0.383442
H375	H	0.886732	-0.332304	-0.871406
H376	H	1.386732	0.167696	-0.371406
H377	H	0.944189	-0.376872	-0.873701
H378	H	1.444189	0.123128	-0.373701
H379	H	0.844132	-0.362642	-0.773318
H380	H	1.344132	0.137358	-0.273318
H381	H	0.901583	-0.407222	-0.775608
H382	H	1.401583	0.092778	-0.275608
C383	C	1.123405	-0.206467	-0.690158
C384	C	1.623405	0.293533	-0.190158
C385	C	1.085848	-0.233229	-0.640851
C386	C	1.585848	0.266771	-0.140851
H387	H	1.154917	-0.184014	-0.666497
H388	H	1.654917	0.315986	-0.166497
H389	H	1.149113	-0.230898	-0.719852
H390	H	1.649113	0.269102	-0.219852
H391	H	1.091653	-0.186332	-0.717556
H392	H	1.591653	0.313668	-0.217556
H393	H	1.117600	-0.253367	-0.613455
H394	H	1.617600	0.246633	-0.113455
H395	H	1.060139	-0.208794	-0.611144
H396	H	1.560139	0.291206	-0.111144
H397	H	1.067280	-0.246446	-0.783917
H398	H	1.567280	0.253554	-0.283917
C399	C	1.106142	-0.218688	-0.899486
C400	C	1.606142	0.281312	-0.399486
C401	C	1.112759	-0.213987	-0.972032
C402	C	1.612759	0.286013	-0.472032
H403	H	1.137634	-0.196219	-0.875825
H404	H	1.637634	0.303781	-0.375825
H405	H	1.059413	-0.209245	-0.885581
H406	H	1.559413	0.290755	-0.385581
H407	H	1.116904	-0.253789	-0.887853
H408	H	1.616904	0.246211	-0.387853
H409	H	1.101993	-0.178887	-0.983666
H410	H	1.601993	0.321113	-0.483666
H411	H	1.159499	-0.223428	-0.985943
H412	H	1.659499	0.276572	-0.485943
C413	C	0.691623	-0.387158	-0.500580
C414	C	1.191623	0.112842	-0.000580
C415	C	0.740920	-0.358128	-0.463116
C416	C	1.240920	0.141872	0.036884
H417	H	0.715292	-0.411520	-0.532023
H418	H	1.215292	0.088480	-0.032023
H419	H	0.664206	-0.405360	-0.468770
H420	H	1.164206	0.094640	0.031230
H421	H	0.661945	-0.364281	-0.526365
H422	H	1.161945	0.135719	-0.026365
H423	H	0.770594	-0.381005	-0.437327
H424	H	1.270594	0.118995	0.062673
H425	H	0.768348	-0.339924	-0.494930
H426	H	1.268348	0.160076	0.005070
