data_functionalizedCrystal
_audit_creation_method	'MofGen! by Chris Wilmer'
_symmetry_space_group_name_H-M	'P1'
_symmetry_Int_Tables_number	1
_symmetry_cell_setting	triclinic
loop_
_symmetry_equiv_pos_as_xyz
  x,y,z
_cell_length_a	15.944551
_cell_length_b	15.944551
_cell_length_c	15.021413
_cell_angle_alpha	89.996935
_cell_angle_beta	89.997174
_cell_angle_gamma	96.501262
loop_
_atom_site_label
_atom_site_type_symbol
_atom_site_fract_x
_atom_site_fract_y
_atom_site_fract_z
O1	O	1.114529	-0.108321	-0.073941
O2	O	1.364529	0.141679	0.176059
O3	O	1.614529	0.391679	0.426059
O4	O	1.864529	0.641679	0.676059
O5	O	0.869979	-0.121677	-0.073964
O6	O	1.119979	0.128323	0.176036
O7	O	1.369979	0.378323	0.426036
O8	O	1.619979	0.628323	0.676036
O9	O	0.998932	0.007276	-0.073944
O10	O	1.248932	0.257276	0.176056
O11	O	1.498932	0.507276	0.426056
O12	O	1.748932	0.757276	0.676056
O13	O	0.985576	-0.237274	-0.073961
O14	O	1.235576	0.012726	0.176039
O15	O	1.485576	0.262726	0.426039
O16	O	1.735576	0.512726	0.676039
O17	O	0.998912	0.007257	0.074121
O18	O	1.248912	0.257257	0.324121
O19	O	1.498912	0.507257	0.574121
O20	O	1.748912	0.757257	0.824121
O21	O	0.869959	-0.121695	0.074101
O22	O	1.119959	0.128305	0.324101
O23	O	1.369959	0.378305	0.574101
O24	O	1.619959	0.628305	0.824101
O25	O	1.114508	-0.108339	0.074123
O26	O	1.364508	0.141661	0.324123
O27	O	1.614508	0.391661	0.574123
O28	O	1.864508	0.641661	0.824123
Zn29	Zn	0.992230	-0.115020	0.097620
Zn30	Zn	1.242230	0.134980	0.347620
Zn31	Zn	1.492230	0.384980	0.597620
Zn32	Zn	1.742230	0.634980	0.847620
Zn33	Zn	0.992257	-0.114996	-0.097461
Zn34	Zn	1.242257	0.135004	0.152539
Zn35	Zn	1.492257	0.385004	0.402539
Zn36	Zn	1.742257	0.635004	0.652539
O37	O	0.985555	-0.237292	0.074103
O38	O	1.235555	0.012708	0.324103
O39	O	1.485555	0.262708	0.574103
O40	O	1.735555	0.512708	0.824103
C41	C	0.838675	-0.121132	0.000066
C42	C	1.088675	0.128868	0.250066
C43	C	1.338675	0.378868	0.500066
C44	C	1.588675	0.628868	0.750066
C45	C	0.745429	-0.119470	0.000057
C46	C	0.995429	0.130530	0.250057
C47	C	1.245429	0.380530	0.500057
C48	C	1.495429	0.630530	0.750057
C49	C	0.530572	-0.035565	0.000081
C50	C	0.780572	0.214435	0.250081
C51	C	1.030572	0.464435	0.500081
C52	C	1.280572	0.714435	0.750081
C53	C	0.469562	-0.074518	-0.072926
C54	C	0.719562	0.175482	0.177074
C55	C	0.969562	0.425482	0.427074
C56	C	1.219562	0.675482	0.677074
C57	C	0.574703	-0.116462	0.000068
C58	C	0.824703	0.133538	0.250068
C59	C	1.074703	0.383538	0.500068
C60	C	1.324703	0.633538	0.750068
C61	C	0.469564	-0.074556	0.073054
C62	C	0.719564	0.175444	0.323054
C63	C	0.969564	0.425444	0.573054
C64	C	1.219564	0.675444	0.823054
C65	C	0.409790	-0.113551	0.000083
C66	C	0.659790	0.136449	0.250083
C67	C	0.909790	0.386449	0.500083
C68	C	1.159790	0.636449	0.750083
C69	C	0.514921	-0.155438	-0.072998
C70	C	0.764921	0.094562	0.177002
C71	C	1.014921	0.344562	0.427002
C72	C	1.264921	0.594562	0.677002
C73	C	0.514930	-0.155464	0.073047
C74	C	0.764930	0.094536	0.323047
C75	C	1.014930	0.344536	0.573047
C76	C	1.264930	0.594536	0.823047
C77	C	0.453937	-0.194476	0.000023
C78	C	0.703937	0.055524	0.250023
C79	C	0.953937	0.305524	0.500023
C80	C	1.203937	0.555524	0.750023
C81	C	0.669705	-0.118137	0.000059
C82	C	0.919705	0.131863	0.250059
C83	C	1.169705	0.381863	0.500059
C84	C	1.419705	0.631863	0.750059
C85	C	0.314789	-0.111883	0.000085
C86	C	0.564789	0.138117	0.250085
C87	C	0.814789	0.388117	0.500085
C88	C	1.064789	0.638117	0.750085
C89	C	0.998367	0.038561	0.000089
C90	C	1.248367	0.288561	0.250089
C91	C	1.498367	0.538561	0.500089
C92	C	1.748367	0.788561	0.750089
C93	C	0.996705	0.131807	0.000089
C94	C	1.246705	0.381807	0.250089
C95	C	1.496705	0.631807	0.500089
C96	C	1.746705	0.881807	0.750089
C97	C	1.145813	-0.108885	0.000092
C98	C	1.395813	0.141115	0.250092
C99	C	1.645813	0.391115	0.500092
C100	C	1.895813	0.641115	0.750092
C101	C	1.239059	-0.110547	0.000094
C102	C	1.489059	0.139453	0.250094
C103	C	1.739059	0.389453	0.500094
C104	C	1.989059	0.639453	0.750094
C105	C	0.986120	-0.268577	0.000069
C106	C	1.236120	-0.018577	0.250069
C107	C	1.486120	0.231423	0.500069
C108	C	1.736120	0.481423	0.750069
C109	C	0.987782	-0.361823	0.000063
C110	C	1.237782	-0.111823	0.250063
C111	C	1.487782	0.138177	0.500063
C112	C	1.737782	0.388177	0.750063
N113	N	0.992218	-0.115036	0.230758
N114	N	1.242218	0.134964	0.480758
N115	N	1.492218	0.384964	0.730758
N116	N	1.742218	0.634964	0.980758
C117	C	0.912801	0.346663	0.000069
C118	C	1.162801	0.596663	0.250069
C119	C	1.412801	0.846663	0.500069
C120	C	1.662801	1.096663	0.750069
C121	C	0.951753	0.407672	0.073077
C122	C	1.201753	0.657672	0.323077
C123	C	1.451753	0.907672	0.573077
C124	C	1.701753	1.157672	0.823077
C125	C	0.993698	0.302533	0.000082
C126	C	1.243698	0.552533	0.250082
C127	C	1.493698	0.802533	0.500082
C128	C	1.743698	1.052533	0.750082
C129	C	0.951792	0.407673	-0.072903
C130	C	1.201792	0.657673	0.177097
C131	C	1.451792	0.907673	0.427097
C132	C	1.701792	1.157673	0.677097
C133	C	0.990787	0.467445	0.000071
C134	C	1.240787	0.717445	0.250071
C135	C	1.490787	0.967445	0.500071
C136	C	1.740787	1.217445	0.750071
C137	C	1.032672	0.362313	0.073150
C138	C	1.282672	0.612313	0.323150
C139	C	1.532672	0.862313	0.573150
C140	C	1.782672	1.112313	0.823150
C141	C	1.032700	0.362308	-0.072895
C142	C	1.282700	0.612308	0.177105
C143	C	1.532700	0.862308	0.427105
C144	C	1.782700	1.112308	0.677105
C145	C	1.071711	0.423298	0.000131
C146	C	1.321711	0.673298	0.250131
C147	C	1.571711	0.923298	0.500131
C148	C	1.821711	1.173298	0.750131
C149	C	0.995372	0.207530	0.000089
C150	C	1.245372	0.457530	0.250089
C151	C	1.495372	0.707530	0.500089
C152	C	1.745372	0.957530	0.750089
C153	C	0.989119	0.562446	0.000070
C154	C	1.239119	0.812446	0.250070
C155	C	1.489119	1.062446	0.500070
C156	C	1.739119	1.312446	0.750070
N157	N	0.992276	-0.114973	-0.230598
N158	N	1.242276	0.135027	0.019402
N159	N	1.492276	0.385027	0.269402
N160	N	1.742276	0.635027	0.519402
C161	C	0.932581	-0.174636	0.470432
C162	C	1.182581	0.075364	0.720432
C163	C	1.432581	0.325364	0.970432
C164	C	1.682581	0.575364	1.220432
C165	C	1.008481	-0.190943	0.529772
C166	C	1.258481	0.059057	0.779772
C167	C	1.508481	0.309057	1.029772
C168	C	1.758481	0.559057	1.279772
C169	C	0.992239	-0.115015	0.412365
C170	C	1.242239	0.134985	0.662365
C171	C	1.492239	0.384985	0.912365
C172	C	1.742239	0.634985	1.162365
C173	C	0.916360	-0.098727	0.529766
C174	C	1.166360	0.151273	0.779766
C175	C	1.416360	0.401273	1.029766
C176	C	1.666360	0.651273	1.279766
C177	C	0.992253	-0.114997	0.587789
C178	C	1.242253	0.135003	0.837789
C179	C	1.492253	0.385003	1.087789
C180	C	1.742253	0.635003	1.337789
C181	C	1.068178	-0.131360	0.470398
C182	C	1.318178	0.118640	0.720398
C183	C	1.568178	0.368640	0.970398
C184	C	1.818178	0.618640	1.220398
C185	C	0.976006	-0.039111	0.470387
C186	C	1.226006	0.210889	0.720387
C187	C	1.476006	0.460889	0.970387
C188	C	1.726006	0.710889	1.220387
C189	C	1.051962	-0.055386	0.529701
C190	C	1.301962	0.194614	0.779701
C191	C	1.551962	0.444614	1.029701
C192	C	1.801962	0.694614	1.279701
C193	C	0.992230	-0.115028	0.311307
C194	C	1.242230	0.134972	0.561307
C195	C	1.492230	0.384972	0.811307
C196	C	1.742230	0.634972	1.061307
C197	C	0.992271	-0.114984	0.688844
C198	C	1.242271	0.135016	0.938844
C199	C	1.492271	0.385016	1.188844
C200	C	1.742271	0.635016	1.438844
H201	H	0.420779	-0.261683	-0.000023
H202	H	0.670779	-0.011683	0.249977
H203	H	0.920779	0.238317	0.499977
H204	H	1.170779	0.488317	0.749977
C205	C	1.078844	0.335298	0.156629
C206	C	1.328844	0.585298	0.406629
C207	C	1.578844	0.835298	0.656629
C208	C	1.828844	1.085298	0.906629
N209	N	1.113615	0.314949	0.219507
N210	N	1.363615	0.564949	0.469507
N211	N	1.613615	0.814949	0.719507
N212	N	1.863615	1.064949	0.969507
H213	H	0.882181	-0.225096	0.444409
H214	H	1.132181	0.024904	0.694409
H215	H	1.382181	0.274904	0.944409
H216	H	1.632181	0.524904	1.194409
C217	C	1.120201	0.012736	0.564652
C218	C	1.370201	0.262736	0.814652
C219	C	1.620201	0.512736	1.064652
C220	C	1.870201	0.762736	1.314652
N221	N	1.171602	0.064039	0.590984
N222	N	1.421602	0.314039	0.840984
N223	N	1.671602	0.564039	1.090984
N224	N	1.921602	0.814039	1.340984
H225	H	0.535052	-0.189659	0.134767
H226	H	0.785052	0.060341	0.384767
H227	H	1.035052	0.310341	0.634767
H228	H	1.285052	0.560341	0.884767
C229	C	0.442419	-0.028323	0.156435
C230	C	0.692419	0.221677	0.406435
C231	C	0.942419	0.471677	0.656435
C232	C	1.192419	0.721677	0.906435
N233	N	0.421976	0.006505	0.219234
N234	N	0.671976	0.256505	0.469234
N235	N	0.921976	0.506505	0.719234
N236	N	1.171976	0.756505	0.969234
H237	H	0.534918	-0.189621	-0.134787
H238	H	0.784918	0.060379	0.115213
H239	H	1.034918	0.310379	0.365213
H240	H	1.284918	0.560379	0.615213
C241	C	1.162502	0.468103	0.000197
C242	C	1.412502	0.718103	0.250197
C243	C	1.662502	0.968103	0.500197
C244	C	1.912502	1.218103	0.750197
N245	N	1.230884	0.501853	0.000252
N246	N	1.480884	0.751853	0.250252
N247	N	1.730884	1.001853	0.500252
N248	N	1.980884	1.251853	0.750252
H249	H	1.132368	-0.145206	0.444430
H250	H	1.382368	0.104794	0.694430
H251	H	1.632368	0.354794	0.944430
H252	H	1.882368	0.604794	1.194430
H253	H	0.962240	0.025051	0.444283
H254	H	1.212240	0.275051	0.694283
H255	H	1.462240	0.525051	0.944283
H256	H	1.712240	0.775051	1.194283
H257	H	1.022224	-0.255126	0.555856
H258	H	1.272224	-0.005126	0.805856
H259	H	1.522224	0.244874	1.055856
H260	H	1.772224	0.494874	1.305856
H261	H	1.066896	0.342185	-0.134615
H262	H	1.316896	0.592185	0.115385
H263	H	1.566896	0.842185	0.365385
H264	H	1.816896	1.092185	0.615385
H265	H	0.845652	0.313356	0.000136
H266	H	1.095652	0.563356	0.250136
H267	H	1.345652	0.813356	0.500136
H268	H	1.595652	1.063356	0.750136
H269	H	0.917528	0.427772	0.134794
H270	H	1.167528	0.677772	0.384794
H271	H	1.417528	0.927772	0.634794
H272	H	1.667528	1.177772	0.884794
H273	H	0.917574	0.427758	-0.134630
H274	H	1.167574	0.677758	0.115370
H275	H	1.417574	0.927758	0.365370
H276	H	1.667574	1.177758	0.615370
H277	H	0.852184	-0.084959	0.555847
H278	H	1.102184	0.165041	0.805847
H279	H	1.352184	0.415041	1.055847
H280	H	1.602184	0.665041	1.305847
H281	H	0.449461	-0.040295	-0.134642
H282	H	0.699461	0.209705	0.115358
H283	H	0.949461	0.459705	0.365358
H284	H	1.199461	0.709705	0.615358
C285	C	0.575572	0.055148	-0.000010
C286	C	0.825572	0.305148	0.249990
C287	C	1.075572	0.555148	0.499990
C288	C	1.325572	0.805148	0.749990
N289	N	0.609467	0.123471	-0.000083
N290	N	0.859467	0.373471	0.249917
N291	N	1.109467	0.623471	0.499917
N292	N	1.359467	0.873471	0.749917
