data_functionalizedCrystal
_audit_creation_method	'MofGen! by Chris Wilmer'
_symmetry_space_group_name_H-M	'P1'
_symmetry_Int_Tables_number	1
_symmetry_cell_setting	triclinic
loop_
_symmetry_equiv_pos_as_xyz
  x,y,z
_cell_length_a	15.944493
_cell_length_b	9.730223
_cell_length_c	10.654550
_cell_angle_alpha	89.997037
_cell_angle_beta	96.020027
_cell_angle_gamma	90.001253
loop_
_atom_site_label
_atom_site_type_symbol
_atom_site_fract_x
_atom_site_fract_y
_atom_site_fract_z
O1	O	1.115487	0.114268	-0.161619
O2	O	0.871046	0.114274	-0.181663
O3	O	0.998887	0.114266	0.011173
O4	O	0.987646	0.114277	-0.354455
O5	O	0.998882	-0.114314	0.011177
O6	O	0.871042	-0.114305	-0.181659
O7	O	1.115482	-0.114312	-0.161614
Zn8	Zn	0.993261	-0.150601	-0.171635
Zn9	Zn	0.993267	0.150563	-0.171642
O10	O	0.987642	-0.114303	-0.354450
C11	C	0.839745	-0.000015	-0.180842
C12	C	0.746482	-0.000012	-0.178386
N13	N	0.993263	-0.356137	-0.171630
C14	C	0.941885	-0.428086	-0.095428
C15	C	0.941887	-0.571969	-0.095434
C16	C	1.044652	-0.571941	-0.247848
C17	C	1.044645	-0.428061	-0.247848
C18	C	0.890503	-0.356162	-0.019210
C19	C	0.839121	-0.428111	0.057000
C20	C	0.839123	-0.571994	0.056994
C21	C	0.890507	-0.643928	-0.019222
C22	C	0.511379	-0.000008	-0.291893
C23	C	0.460464	-0.112718	-0.230681
C24	C	0.575734	-0.000015	-0.173834
C25	C	0.460473	0.112644	-0.230657
C26	C	0.410799	-0.000012	-0.169447
C27	C	0.526048	-0.112818	-0.112654
C28	C	0.526060	0.112646	-0.112648
C29	C	0.475178	-0.000092	-0.051348
C30	C	0.670749	-0.000018	-0.176365
C31	C	0.315788	-0.000019	-0.166907
C32	C	1.146784	-0.000020	-0.162435
C33	C	1.240047	-0.000013	-0.164892
C34	C	0.998059	-0.000022	0.057962
C35	C	0.995590	-0.000017	0.197373
N36	N	0.993272	0.356100	-0.171637
C37	C	0.988469	-0.000012	-0.401239
C38	C	0.990939	-0.000008	-0.540650
C39	C	1.070860	-0.000023	0.277856
C40	C	1.068535	-0.000014	0.408846
C41	C	0.915663	0.000002	0.378857
C42	C	0.917989	0.000002	0.247869
C43	C	1.148461	-0.000043	0.227359
C44	C	1.223738	-0.000051	0.307843
C45	C	1.221413	-0.000041	0.438833
C46	C	1.143811	-0.000024	0.489339
H47	H	0.890497	-0.239006	-0.019194
C48	C	0.782598	-0.651134	0.140817
N49	N	0.740023	-0.710740	0.203959
C50	C	0.533295	-0.000154	-0.429271
N51	N	0.549805	-0.000272	-0.532741
H52	H	0.459123	-0.000159	0.050423
H53	H	0.890500	-0.761087	-0.019228
C54	C	1.309095	-0.000069	0.252284
N55	N	1.373388	-0.000084	0.210438
H56	H	1.086487	-0.630521	-0.309899
C57	C	0.421749	-0.241433	-0.298036
N58	N	0.392588	-0.338374	-0.348777
C59	C	0.564597	-0.241684	-0.045349
N60	N	0.593633	-0.338748	0.005338
H61	H	0.554720	0.207933	-0.062829
H62	H	1.282706	-0.000033	0.504361
C63	C	1.141258	-0.000006	0.633434
N64	N	1.139336	0.000002	0.741964
H65	H	0.852483	0.000014	0.419990
C66	C	0.421779	0.241363	-0.298043
N67	N	0.392638	0.338310	-0.348806
C68	C	1.151026	-0.000054	0.083269
N69	N	1.152957	-0.000064	-0.025260
C70	C	0.782670	-0.348982	0.140934
N71	N	0.740175	-0.289383	0.204193
H72	H	1.086479	-0.369479	-0.309904
C73	C	0.835187	-0.000001	0.159333
N74	N	0.772819	-0.000003	0.092647
