data_functionalizedCrystal
_audit_creation_method	'MofGen! by Chris Wilmer'
_symmetry_space_group_name_H-M	'P1'
_symmetry_Int_Tables_number	1
_symmetry_cell_setting	triclinic
loop_
_symmetry_equiv_pos_as_xyz
  x,y,z
_cell_length_a	19.121063
_cell_length_b	12.759401
_cell_length_c	12.759393
_cell_angle_alpha	89.979105
_cell_angle_beta	87.597083
_cell_angle_gamma	87.532418
loop_
_atom_site_label
_atom_site_type_symbol
_atom_site_fract_x
_atom_site_fract_y
_atom_site_fract_z
Zn1	Zn	-0.279597	-1.588319	0.611840
Zn2	Zn	-0.397065	-1.580678	0.443634
Zn3	Zn	-0.279630	-1.412619	0.436174
Zn4	Zn	-0.397008	-1.405078	0.619265
O5	O	-0.338325	-1.496674	0.527728
O6	O	-0.295189	-1.734326	0.589542
O7	O	-0.381525	-1.558343	0.295626
O8	O	-0.181342	-1.442280	0.453247
O9	O	-0.381493	-1.728712	0.465962
O10	O	-0.181317	-1.571366	0.582307
O11	O	-0.295246	-1.434871	0.290145
O12	O	-0.295191	-1.264599	0.460446
O13	O	-0.381395	-1.429427	0.765299
O14	O	-0.381428	-1.259058	0.594963
O15	O	-0.295134	-1.564054	0.759843
O16	O	-0.495342	-1.551031	0.473162
O17	O	-0.495300	-1.422018	0.602197
C18	C	-0.338307	-1.223708	0.527701
C19	C	-0.338317	-1.106930	0.527716
C20	C	-0.383199	-0.939425	0.463289
C21	C	-0.383186	-1.049150	0.463273
C22	C	-0.293452	-1.054980	0.592172
C23	C	-0.293462	-0.945258	0.592182
C24	C	-0.428076	-0.881651	0.398849
C25	C	-0.472939	-0.933593	0.334391
C26	C	-0.472926	-1.043318	0.334375
C27	C	-0.428050	-1.101100	0.398817
C28	C	-0.520805	-1.484905	0.539318
C29	C	-0.598870	-1.479967	0.544311
C30	C	-0.635544	-1.544869	0.479531
C31	C	-0.708895	-1.540231	0.484233
C32	C	-0.745571	-1.470684	0.553711
C33	C	-0.708892	-1.405780	0.618498
C34	C	-0.635542	-1.410424	0.613800
C35	C	-0.967039	-1.453303	0.571258
C36	C	-1.040394	-1.448661	0.575948
C37	C	-1.040392	-1.583115	0.441684
C38	C	-0.967041	-1.587748	0.436988
C39	C	-0.930368	-1.522848	0.501779
C40	C	-0.820547	-1.465939	0.558517
C41	C	-0.855393	-1.527599	0.496978
C42	C	-0.155133	-1.508517	0.516116
C43	C	-0.077067	-1.513563	0.511168
C44	C	-0.338254	-1.496752	0.801757
C45	C	-0.338224	-1.496785	0.918532
C46	C	-0.338340	-0.770706	0.527749
C47	C	-0.338339	-0.887483	0.527742
C48	C	-0.338345	-1.496660	0.254762
C49	C	-0.338177	-1.496843	0.137975
C50	C	-0.293303	-1.566895	0.970555
C51	C	-0.293278	-1.566921	1.080277
C52	C	-0.383100	-1.426726	1.085945
C53	C	-0.383121	-1.426695	0.976224
C54	C	-0.248406	-1.636985	0.912863
C55	C	-0.203482	-1.707101	0.964886
C56	C	-0.203457	-1.707128	1.074608
C57	C	-0.248355	-1.637039	1.132308
H58	H	-0.256917	-1.102035	0.644638
H59	H	-0.256931	-0.902965	0.644660
F60	F	-0.596518	-1.618884	0.405576
H61	H	-0.738752	-1.593080	0.431481
F62	F	-1.079427	-1.652186	0.372739
H63	H	-0.825530	-1.584228	0.440413
F64	F	-0.928013	-1.661781	0.363052
F65	F	-1.079425	-1.374626	0.649889
F66	F	-0.520691	-0.872097	0.265803
F67	F	-0.430930	-1.352075	0.920854
H68	H	-0.428038	-1.190446	0.398790
H69	H	-0.419654	-1.369662	1.132933
F70	F	-0.928018	-1.384228	0.640214
F71	F	-0.747926	-1.331769	0.692448
H72	H	-0.605683	-1.357575	0.666552
H73	H	-0.850416	-1.409312	0.615083
F74	F	-0.520664	-1.098597	0.265762
F75	F	-0.248431	-1.636966	0.796087
F76	F	-0.155692	-1.781678	0.903476
H77	H	-0.166873	-1.764212	1.116962
F78	F	-0.428097	-0.764872	0.398866
F79	F	-0.248317	-1.637058	1.249085
