data_functionalizedCrystal
_audit_creation_method	'MofGen! by Chris Wilmer'
_symmetry_space_group_name_H-M	'P1'
_symmetry_Int_Tables_number	1
_symmetry_cell_setting	triclinic
loop_
_symmetry_equiv_pos_as_xyz
  x,y,z
_cell_length_a	16.625546
_cell_length_b	12.759401
_cell_length_c	12.759393
_cell_angle_alpha	90.021157
_cell_angle_beta	89.964881
_cell_angle_gamma	89.981929
loop_
_atom_site_label
_atom_site_type_symbol
_atom_site_fract_x
_atom_site_fract_y
_atom_site_fract_z
Zn1	Zn	-0.321057	-1.606210	-0.593992
Zn2	Zn	0.178943	-1.106210	-0.093992
Zn3	Zn	-0.455911	-1.606077	-0.418298
Zn4	Zn	0.044089	-1.106077	0.081702
Zn5	Zn	-0.321086	-1.430508	-0.418327
Zn6	Zn	0.178914	-0.930508	0.081673
Zn7	Zn	-0.455841	-1.430476	-0.593935
Zn8	Zn	0.044159	-0.930476	-0.093935
O9	O	-0.388474	-1.518318	-0.506138
O10	O	0.111526	-1.018318	-0.006138
O11	O	-0.338963	-1.753213	-0.570698
O12	O	0.161037	-1.253213	-0.070698
O13	O	-0.438068	-1.582745	-0.271281
O14	O	0.061932	-1.082745	0.228719
O15	O	-0.208250	-1.453884	-0.441665
O16	O	0.291750	-0.953884	0.058335
O17	O	-0.438040	-1.753115	-0.441617
O18	O	0.061960	-1.253115	0.058383
O19	O	-0.208229	-1.582971	-0.570726
O20	O	0.291771	-1.082971	-0.070726
O21	O	-0.339013	-1.453756	-0.271302
O22	O	0.160987	-0.953756	0.228698
O23	O	-0.338944	-1.283483	-0.441610
O24	O	0.161056	-0.783483	0.058390
O25	O	-0.437920	-1.453830	-0.740964
O26	O	0.062080	-0.953830	-0.240964
O27	O	-0.437948	-1.283460	-0.570628
O28	O	0.062052	-0.783460	-0.070628
O29	O	-0.338895	-1.582940	-0.741006
O30	O	0.161105	-1.082940	-0.241006
O31	O	-0.568735	-1.582714	-0.441561
O32	O	-0.068735	-1.082714	0.058439
O33	O	-0.568683	-1.453701	-0.570600
O34	O	-0.068683	-0.953701	-0.070600
C35	C	-0.388443	-1.245350	-0.506116
C36	C	0.111557	-0.745350	-0.006116
C37	C	-0.388448	-1.128574	-0.506132
C38	C	0.111552	-0.628574	-0.006132
C39	C	-0.336963	-0.964026	-0.573452
C40	C	0.163037	-0.464026	-0.073452
C41	C	-0.336953	-1.073750	-0.573447
C42	C	0.163047	-0.573750	-0.073447
C43	C	-0.439964	-1.073668	-0.438824
C44	C	0.060036	-0.573668	0.061176
C45	C	-0.439978	-0.963946	-0.438834
C46	C	0.060022	-0.463946	0.061166
C47	C	-0.597965	-1.518218	-0.506094
C48	C	-0.097965	-1.018218	-0.006094
C49	C	-0.687586	-1.518272	-0.506110
C50	C	-0.187586	-1.018272	-0.006110
C51	C	-1.015762	-1.518455	-0.506220
C52	C	-0.515762	-1.018455	-0.006220
C53	C	-0.924453	-1.518401	-0.506192
C54	C	-0.424453	-1.018401	-0.006192
C55	C	-0.851677	-1.518363	-0.506165
C56	C	-0.351677	-1.018363	-0.006165
C57	C	-0.760362	-1.518310	-0.506138
C58	C	-0.260362	-1.018310	-0.006138
C59	C	-0.178165	-1.518446	-0.506205
C60	C	0.321835	-1.018446	-0.006205
C61	C	-0.088544	-1.518501	-0.506234
C62	C	0.411456	-1.018501	-0.006234
C63	C	-0.388397	-1.518396	-0.780172
C64	C	0.111603	-1.018396	-0.280172
C65	C	-0.388364	-1.518430	-0.896948
C66	C	0.111636	-1.018430	-0.396948
C67	C	-0.388495	-0.792351	-0.506155
C68	C	0.111505	-0.292351	-0.006155
C69	C	-0.388473	-0.909128	-0.506147
C70	C	0.111527	-0.409128	-0.006147
C71	C	-0.336793	-1.585663	-0.951834
C72	C	0.163207	-1.085663	-0.451834
C73	C	-0.336758	-1.585681	-1.061558
C74	C	0.163242	-1.085681	-0.561558
C75	C	-0.439872	-1.451230	-1.061501
C76	C	0.060128	-0.951230	-0.561501
C77	C	-0.439902	-1.451208	-0.951779
C78	C	0.060098	-0.951208	-0.451779
C79	C	-0.388493	-1.518300	-0.233171
C80	C	0.111507	-1.018300	0.266829
C81	C	-0.388299	-1.518470	-0.116395
C82	C	0.111701	-1.018470	0.383605
H83	H	-0.294825	-1.640397	-0.907194
H84	H	0.205175	-1.140397	-0.407194
O85	O	-0.281141	-1.658201	-1.120761
O86	O	0.218859	-1.158201	-0.620761
H87	H	-0.245315	-1.704944	-1.064196
H88	H	0.254685	-1.204944	-0.564196
O89	O	-0.281413	-0.904904	-0.646054
O90	O	0.218587	-0.404904	-0.146054
H91	H	-0.290068	-0.819384	-0.634747
H92	H	0.209932	-0.319384	-0.134747
H93	H	-0.481896	-1.396451	-0.907090
H94	H	0.018104	-0.896451	-0.407090
O95	O	-0.281385	-1.132959	-0.646031
O96	O	0.218615	-0.632959	-0.146031
H97	H	-0.295280	-1.111926	-0.728458
H98	H	0.204720	-0.611926	-0.228458
H99	H	-0.481896	-1.118314	-0.384018
H100	H	0.018104	-0.618314	0.115982
H101	H	-0.481928	-0.919246	-0.384026
H102	H	0.018072	-0.419246	0.115974
H103	H	-0.481834	-1.396502	-1.106158
H104	H	0.018166	-0.896502	-0.606158
