data_functionalizedCrystal
_audit_creation_method	'MofGen! by Chris Wilmer'
_symmetry_space_group_name_H-M	'P1'
_symmetry_Int_Tables_number	1
_symmetry_cell_setting	triclinic
loop_
_symmetry_equiv_pos_as_xyz
  x,y,z
_cell_length_a	8.559649
_cell_length_b	19.188930
_cell_length_c	7.681481
_cell_angle_alpha	84.272277
_cell_angle_beta	94.913240
_cell_angle_gamma	76.461723
loop_
_atom_site_label
_atom_site_type_symbol
_atom_site_fract_x
_atom_site_fract_y
_atom_site_fract_z
O1	O	2.105137	-0.016273	-0.146396
O2	O	1.639679	0.019799	-0.146415
O3	O	1.885844	-0.100597	-0.146371
O4	O	1.858973	0.104122	-0.146440
O5	O	1.916143	-0.115446	0.146493
O6	O	1.669978	0.004950	0.146449
O7	O	2.135436	-0.031122	0.146467
Zn8	Zn	1.907518	-0.015443	0.192956
Zn9	Zn	1.867598	0.004120	-0.192904
O10	O	1.889272	0.089274	0.146423
C11	C	1.595280	0.015108	0.000015
C12	C	1.417842	0.023245	0.000010
C13	C	1.900124	-0.133987	0.000066
C14	C	1.897514	-0.211356	0.000081
C15	C	2.041954	-0.263833	0.000095
C16	C	2.039498	-0.336527	0.000067
C17	C	1.892597	-0.356742	0.000060
C18	C	1.748137	-0.304254	0.000036
C19	C	1.750595	-0.231561	0.000047
N20	N	1.790620	-0.463929	0.099722
N21	N	1.788294	-0.532986	0.099716
C22	C	1.885180	-0.575761	0.000024
N23	N	1.984505	-0.546875	-0.099639
N24	N	1.986836	-0.477813	-0.099625
C25	C	1.889914	-0.435564	0.000047
C26	C	2.026966	-0.707062	0.000005
C27	C	2.024502	-0.779757	-0.000034
C28	C	1.733139	-0.747483	-0.000048
C29	C	1.735605	-0.674790	-0.000026
C30	C	1.882524	-0.654585	0.000008
C31	C	2.179835	-0.026431	0.000033
C32	C	2.357272	-0.034568	0.000027
C33	C	1.874991	0.122664	-0.000018
C34	C	1.877600	0.200033	-0.000044
N35	N	1.934774	-0.028796	0.456295
N36	N	1.840354	0.017467	-0.456243
H37	H	1.333944	0.078971	-0.000019
C38	C	2.329705	-0.303041	0.000115
C39	C	2.203443	-0.241623	0.000114
H40	H	2.429398	-0.289327	0.000114
H41	H	2.333247	-0.335905	0.102233
H42	H	2.312109	-0.325538	-0.102023
H43	H	2.221034	-0.219129	0.102259
H44	H	2.199904	-0.208747	-0.102015
C45	C	2.214356	-0.651689	0.150584
C46	C	2.188455	-0.684849	0.000020
H47	H	2.314059	-0.637983	0.150593
H48	H	2.128698	-0.610032	0.150579
H49	H	2.217905	-0.684571	0.252691
H50	H	2.184895	-0.651965	-0.102088
H51	H	2.274136	-0.726512	0.000008
H52	H	2.157121	-0.379261	0.000071
H53	H	1.743971	0.064688	0.468543
C54	C	2.034992	-0.157616	0.513418
C55	C	2.064905	-0.092548	0.557827
H56	H	2.115334	-0.196972	0.576094
H57	H	1.931441	-0.160951	0.543576
H58	H	2.037944	-0.159059	0.390464
H59	H	2.061941	-0.091103	0.680780
H60	H	2.168482	-0.089212	0.527681
C61	C	1.462351	-0.206963	0.000033
C62	C	1.591817	-0.173873	0.000049
H63	H	1.364331	-0.171348	0.000048
H64	H	1.456883	-0.230797	-0.102097
H65	H	1.478029	-0.241179	0.102159
H66	H	1.576145	-0.139661	-0.102085
H67	H	1.597283	-0.150028	0.102190
C68	C	1.630263	-0.103566	0.000064
C69	C	1.470509	-0.109794	0.000059
H70	H	1.700176	-0.150009	0.000094
H71	H	1.638920	-0.073063	-0.102067
H72	H	1.660042	-0.083412	0.102190
H73	H	1.440725	-0.129943	-0.102074
H74	H	1.461845	-0.140307	0.102200
C75	C	2.312750	-0.804353	0.000029
C76	C	2.183285	-0.837444	-0.000014
H77	H	2.410776	-0.839970	0.000053
H78	H	2.297098	-0.770146	-0.102087
H79	H	2.318192	-0.780513	0.102170
H80	H	2.177836	-0.861280	-0.102163
H81	H	2.198941	-0.871664	0.102112
C82	C	1.545779	-0.802861	-0.150621
C83	C	1.571659	-0.769694	-0.000062
H84	H	1.446088	-0.816578	-0.150627
H85	H	1.542228	-0.769986	-0.252721
H86	H	1.631462	-0.844520	-0.150602
H87	H	1.485982	-0.728032	-0.000088
H88	H	1.575198	-0.802571	0.102064
C89	C	1.615004	-0.401360	0.000041
C90	C	1.586660	-0.326472	0.000036
H91	H	1.515310	-0.415074	0.000046
H92	H	1.663881	-0.414714	-0.102077
H93	H	1.685025	-0.425080	0.102180
H94	H	1.516649	-0.302752	-0.102110
H95	H	1.537759	-0.313111	0.102164
C96	C	1.447371	-0.650195	-0.000015
C97	C	1.576833	-0.617103	-0.000010
H98	H	1.349349	-0.614580	0.000003
H99	H	1.441900	-0.674029	-0.102143
H100	H	1.463054	-0.684410	0.102113
H101	H	1.561155	-0.582892	-0.102146
H102	H	1.582302	-0.593257	0.102128
