data_functionalizedCrystal
_audit_creation_method	'MofGen! by Chris Wilmer'
_symmetry_space_group_name_H-M	'P1'
_symmetry_Int_Tables_number	1
_symmetry_cell_setting	triclinic
loop_
_symmetry_equiv_pos_as_xyz
  x,y,z
_cell_length_a	16.625548
_cell_length_b	29.839131
_cell_length_c	29.839126
_cell_angle_alpha	90.021998
_cell_angle_beta	90.025994
_cell_angle_gamma	90.042488
loop_
_atom_site_label
_atom_site_type_symbol
_atom_site_fract_x
_atom_site_fract_y
_atom_site_fract_z
Zn1	Zn	1.232617	-0.178884	0.254008
Zn2	Zn	1.732617	0.321116	0.754008
Zn3	Zn	1.232463	-0.254002	0.178878
Zn4	Zn	1.732463	0.245998	0.678878
Zn5	Zn	1.097766	-0.178888	0.178891
Zn6	Zn	1.597766	0.321112	0.678891
Zn7	Zn	1.097705	-0.253990	0.253979
Zn8	Zn	1.597705	0.246010	0.753979
O9	O	1.165138	-0.216441	0.216439
O10	O	1.665138	0.283559	0.716439
O11	O	1.345429	-0.188853	0.244049
O12	O	1.845429	0.311147	0.744049
O13	O	1.214557	-0.244045	0.116013
O14	O	1.714557	0.255955	0.616013
O15	O	1.115745	-0.116021	0.188872
O16	O	1.615745	0.383979	0.688872
O17	O	1.345316	-0.244041	0.188851
O18	O	1.845316	0.255959	0.688851
O19	O	1.214819	-0.116018	0.244061
O20	O	1.714819	0.383982	0.744061
O21	O	1.115595	-0.188859	0.116022
O22	O	1.615595	0.311141	0.616022
O23	O	0.984926	-0.188847	0.188844
O24	O	1.484926	0.311153	0.688844
O25	O	1.115640	-0.244020	0.316850
O26	O	1.615640	0.255980	0.816850
O27	O	0.984881	-0.244024	0.244012
O28	O	1.484881	0.255976	0.744012
O29	O	1.214760	-0.188840	0.316872
O30	O	1.714760	0.311160	0.816872
O31	O	1.214497	-0.316868	0.188823
O32	O	1.714497	0.183132	0.688823
O33	O	1.115491	-0.316858	0.244000
O34	O	1.615491	0.183142	0.744000
C35	C	0.955647	-0.216435	0.216427
C36	C	1.455647	0.283565	0.716427
C37	C	0.866026	-0.216443	0.216432
C38	C	1.366026	0.283557	0.716432
C39	C	0.537850	-0.216446	0.216451
C40	C	1.037850	0.283554	0.716451
C41	C	0.629159	-0.216444	0.216444
C42	C	1.129159	0.283556	0.716444
C43	C	0.701935	-0.216445	0.216441
C44	C	1.201935	0.283555	0.716441
C45	C	0.793250	-0.216442	0.216435
C46	C	1.293250	0.283558	0.716435
C47	C	1.164992	-0.333164	0.216417
C48	C	1.664992	0.166836	0.716417
C49	C	1.165004	-0.383098	0.216422
C50	C	1.665004	0.116902	0.716422
C51	C	1.216784	-0.692734	0.187751
C52	C	1.716784	-0.192734	0.687751
C53	C	1.216884	-0.880407	0.187768
C54	C	1.716884	-0.380407	0.687768
O55	O	1.260794	-0.904665	0.163373
O56	O	1.760794	-0.404665	0.663373
N57	N	1.165305	-0.903883	0.216473
N58	N	1.665305	-0.403883	0.716473
C59	C	1.113702	-0.880438	0.245178
C60	C	1.613702	-0.380438	0.745178
O61	O	1.069839	-0.904713	0.269597
O62	O	1.569839	-0.404713	0.769597
C63	C	1.113607	-0.692766	0.245162
C64	C	1.613607	-0.192766	0.745162
C65	C	1.165183	-0.669292	0.216452
C66	C	1.665183	-0.169292	0.716452
C67	C	1.268357	-0.669260	0.159043
C68	C	1.768357	-0.169260	0.659043
C69	C	1.268329	-0.622344	0.159038
C70	C	1.768329	-0.122344	0.659038
C71	C	1.216727	-0.598903	0.187739
C72	C	1.716727	-0.098903	0.687739
C73	C	1.165155	-0.622377	0.216446
C74	C	1.665155	-0.122377	0.716446
C75	C	1.062008	-0.669323	0.273869
C76	C	1.562008	-0.169323	0.773869
C77	C	1.061990	-0.622401	0.273863
C78	C	1.561990	-0.122401	0.773863
C79	C	1.113567	-0.598927	0.245153
C80	C	1.613567	-0.098927	0.745153
C81	C	1.113525	-0.552020	0.245142
C82	C	1.613525	-0.052020	0.745142
N83	N	1.165104	-0.528544	0.216437
N84	N	1.665104	-0.028544	0.716437
C85	C	1.216705	-0.551985	0.187736
C86	C	1.716705	-0.051985	0.687736
C87	C	1.113754	-0.978969	0.245183
C88	C	1.613754	-0.478969	0.745183
C89	C	1.113777	-1.025887	0.245187
C90	C	1.613777	-0.525887	0.745187
C91	C	1.216960	-1.025852	0.187777
C92	C	1.716960	-0.525852	0.687777
C93	C	1.216933	-0.978933	0.187772
C94	C	1.716933	-0.478933	0.687772
C95	C	1.165333	-0.955493	0.216478
C96	C	1.665333	-0.455493	0.716478
C97	C	1.216641	-0.453459	0.187725
C98	C	1.716641	0.046541	0.687725
C99	C	1.216605	-0.406540	0.187721
C100	C	1.716605	0.093460	0.687721
C101	C	1.113425	-0.406579	0.245131
C102	C	1.613425	0.093421	0.745131
C103	C	1.113457	-0.453494	0.245134
C104	C	1.613457	0.046506	0.745134
C105	C	1.165071	-0.476933	0.216430
C106	C	1.665071	0.023067	0.716430
O107	O	1.069644	-0.527733	0.269528
O108	O	1.569644	-0.027733	0.769528
O109	O	1.260574	-0.527702	0.163327
O110	O	1.760574	-0.027702	0.663327
C111	C	1.216813	-0.739649	0.187756
C112	C	1.716813	-0.239649	0.687756
C113	C	1.165240	-0.763123	0.216464
C114	C	1.665240	-0.263123	0.716464
C115	C	1.113639	-0.739682	0.245165
C116	C	1.613639	-0.239682	0.745165
C117	C	1.165263	-0.810041	0.216467
C118	C	1.665263	-0.310041	0.716467
C119	C	1.216864	-0.833482	0.187766
C120	C	1.716864	-0.333482	0.687766
C121	C	1.268443	-0.810006	0.159061
C122	C	1.768443	-0.310006	0.659061
C123	C	1.268414	-0.763090	0.159055
C124	C	1.768414	-0.263090	0.659055
C125	C	1.062060	-0.763158	0.273870
C126	C	1.562060	-0.263158	0.773870
C127	C	1.062092	-0.810074	0.273873
C128	C	1.562092	-0.310074	0.773873
C129	C	1.113694	-0.833515	0.245172
C130	C	1.613694	-0.333515	0.745172
C131	C	1.375447	-0.216448	0.216452
C132	C	1.875447	0.283552	0.716452
C133	C	1.465068	-0.216451	0.216457
C134	C	1.965068	0.283549	0.716457
C135	C	1.165210	-0.216428	0.333617
C136	C	1.665210	0.283572	0.833617
C137	C	1.165241	-0.216423	0.383552
C138	C	1.665241	0.283577	0.883552
C139	C	1.165306	-0.099263	0.216471
C140	C	1.665306	0.400737	0.716471
C141	C	1.165378	-0.049328	0.216485
C142	C	1.665378	0.450672	0.716485
C143	C	1.165112	-0.216422	0.099717
C144	C	1.665112	0.283578	0.599717
C145	C	1.165238	-0.216300	0.049782
C146	C	1.665238	0.283700	0.549782
C147	C	1.216759	-0.245098	0.740138
C148	C	1.716759	0.254902	1.240138
C149	C	1.216761	-0.245129	0.552464
C150	C	1.716761	0.254871	1.052464
O151	O	1.260555	-0.269581	0.528198
O152	O	1.760555	0.230419	1.028198
N153	N	1.165238	-0.216401	0.528997
N154	N	1.665238	0.283599	1.028997
C155	C	1.113707	-0.187665	0.552451
C156	C	1.613707	0.312335	1.052451
O157	O	1.069877	-0.163234	0.528184
O158	O	1.569877	0.336766	1.028184
C159	C	1.113702	-0.187636	0.740123
C160	C	1.613702	0.312364	1.240123
C161	C	1.165234	-0.216363	0.763588
C162	C	1.665234	0.283637	1.263588
C163	C	1.268287	-0.273823	0.763602
C164	C	1.768287	0.226177	1.263602
C165	C	1.268289	-0.273813	0.810518
C166	C	1.768289	0.226187	1.310518
C167	C	1.216764	-0.245079	0.833968
C168	C	1.716764	0.254921	1.333968
C169	C	1.165236	-0.216354	0.810504
C170	C	1.665236	0.283646	1.310504
C171	C	1.062167	-0.158903	0.763576
C172	C	1.562167	0.341097	1.263576
C173	C	1.062169	-0.158899	0.810497
C174	C	1.562169	0.341101	1.310497
C175	C	1.113702	-0.187626	0.833962
C176	C	1.613702	0.312374	1.333962
C177	C	1.113713	-0.187609	0.880870
C178	C	1.613713	0.312391	1.380870
N179	N	1.165237	-0.216337	0.904337
N180	N	1.665237	0.283663	1.404337
C181	C	1.216762	-0.245072	0.880886
C182	C	1.716762	0.254928	1.380886
C183	C	1.113714	-0.187682	0.453920
C184	C	1.613714	0.312318	0.953920
C185	C	1.113716	-0.187688	0.407003
C186	C	1.613716	0.312312	0.907003
C187	C	1.216769	-0.245153	0.407019
C188	C	1.716769	0.254847	0.907019
C189	C	1.216771	-0.245144	0.453938
C190	C	1.716771	0.254856	0.953938
C191	C	1.165237	-0.216410	0.477388
C192	C	1.665237	0.283590	0.977388
C193	C	1.216763	-0.245049	0.979412
C194	C	1.716763	0.254951	1.479412
C195	C	1.216763	-0.245035	1.026332
C196	C	1.716763	0.254965	1.526332
C197	C	1.113707	-0.187572	1.026311
C198	C	1.613707	0.312428	1.526311
C199	C	1.113710	-0.187584	0.979396
C200	C	1.613710	0.312416	1.479396
C201	C	1.165240	-0.216326	0.955947
C202	C	1.665240	0.283674	1.455947
O203	O	1.069935	-0.163174	0.905165
O204	O	1.569935	0.336826	1.405165
O205	O	1.260572	-0.269507	0.905161
O206	O	1.760572	0.230493	1.405161
C207	C	1.216757	-0.245108	0.693222
C208	C	1.716757	0.254892	1.193222
C209	C	1.165230	-0.216383	0.669757
C210	C	1.665230	0.283617	1.169757
C211	C	1.113704	-0.187648	0.693208
C212	C	1.613704	0.312352	1.193208
C213	C	1.165232	-0.216390	0.622839
C214	C	1.665232	0.283610	1.122839
C215	C	1.216757	-0.245124	0.599389
C216	C	1.716757	0.254876	1.099389
C217	C	1.268280	-0.273853	0.622856
C218	C	1.768280	0.226147	1.122856
C219	C	1.268282	-0.273843	0.669771
C220	C	1.768282	0.226157	1.169771
C221	C	1.062181	-0.158920	0.669741
C222	C	1.562181	0.341080	1.169741
C223	C	1.062184	-0.158932	0.622825
C224	C	1.562184	0.341068	1.122825
C225	C	1.113709	-0.187667	0.599374
C226	C	1.613709	0.312333	1.099374
H227	H	1.258605	-0.387428	0.164340
H228	H	1.758605	0.112572	0.664340
O229	O	1.272347	-0.276134	0.479240
O230	O	1.772347	0.223866	0.979240
H231	H	1.313406	-0.256029	0.500630
H232	H	1.813406	0.243971	1.000630
H233	H	1.258724	-0.268549	0.387918
H234	H	1.758724	0.231451	0.887918
O235	O	1.006382	-0.694631	0.304839
O236	O	1.506382	-0.194631	0.804839
H237	H	0.965373	-0.716038	0.284720
H238	H	1.465373	-0.216038	0.784720
O239	O	1.006382	-0.737883	0.304822
O240	O	1.506382	-0.237883	0.804822
H241	H	1.020170	-0.746866	0.340090
H242	H	1.520170	-0.246866	0.840090
O243	O	1.058140	-1.051205	0.276146
O244	O	1.558140	-0.551205	0.776146
H245	H	1.071940	-1.042178	0.311411
H246	H	1.571940	-0.542178	0.811411
O247	O	1.006600	-0.127942	0.597522
O248	O	1.506600	0.372058	1.097522
H249	H	1.015251	-0.132771	0.560956
H250	H	1.515251	0.367229	1.060956
O251	O	1.006322	-0.597122	0.304821
O252	O	1.506322	-0.097122	0.804821
H253	H	1.020121	-0.606105	0.340088
H254	H	1.520121	-0.106105	0.840088
O255	O	1.272572	-0.953614	0.156815
O256	O	1.772572	-0.453614	0.656815
H257	H	1.258787	-0.962643	0.121548
H258	H	1.758787	-0.462643	0.621548
O259	O	1.272302	-0.478737	0.156763
O260	O	1.772302	0.021263	0.656763
H261	H	1.308148	-0.454526	0.136799
H262	H	1.808148	0.045474	0.636799
O263	O	1.323969	-0.597028	0.128079
O264	O	1.823969	-0.097028	0.628079
H265	H	1.359858	-0.621217	0.108129
H266	H	1.859858	-0.121217	0.608129
H267	H	1.020203	-0.135511	0.744479
H268	H	1.520203	0.364489	1.244479
O269	O	1.058077	-0.953689	0.276136
O270	O	1.558077	-0.453689	0.776136
H271	H	1.022210	-0.977900	0.296088
H272	H	1.522210	-0.477900	0.796088
H273	H	1.310456	-0.829100	0.135690
H274	H	1.810456	-0.329100	0.635690
O275	O	1.324012	-0.694540	0.128081
O276	O	1.824012	-0.194540	0.628081
H277	H	1.359859	-0.670327	0.108120
H278	H	1.859859	-0.170327	0.608120
O279	O	1.323859	-0.304842	0.597555
O280	O	1.823859	0.195158	1.097555
H281	H	1.359699	-0.324816	0.621750
H282	H	1.859699	0.175184	1.121750
H283	H	1.020086	-0.829182	0.297252
H284	H	1.520086	-0.329182	0.797252
O285	O	1.272354	-0.276043	0.954128
O286	O	1.772354	0.223957	1.454128
H287	H	1.258489	-0.311301	0.963128
H288	H	1.758489	0.188699	1.463128
O289	O	1.323864	-0.304807	0.835816
O290	O	1.823864	0.195193	1.335816
H291	H	1.364931	-0.284706	0.857206
H292	H	1.864931	0.215294	1.357206
O293	O	1.323860	-0.304834	0.695071
O294	O	1.823860	0.195166	1.195071
H295	H	1.364925	-0.284730	0.716459
H296	H	1.864925	0.215270	1.216459
O297	O	1.272633	-1.051138	0.156828
O298	O	1.772633	-0.551138	0.656828
H299	H	1.263987	-1.087706	0.161661
H300	H	1.763987	-0.587706	0.661661
H301	H	1.020204	-0.135500	0.829588
H302	H	1.520204	0.364500	1.329588
O303	O	1.272348	-0.276022	1.051638
O304	O	1.772348	0.223978	1.551638
H305	H	1.263704	-0.271187	1.088203
H306	H	1.763704	0.228813	1.588203
H307	H	1.071759	-0.164186	0.960290
H308	H	1.571759	0.335814	1.460290
H309	H	1.310246	-0.297224	0.744514
H310	H	1.810246	0.202776	1.244514
H311	H	1.071762	-0.164291	0.387901
H312	H	1.571762	0.335709	0.887901
H313	H	1.071759	-0.164176	1.045413
H314	H	1.571759	0.335824	1.545413
O315	O	1.057829	-0.478817	0.276098
O316	O	1.557829	0.021183	0.776098
H317	H	1.021946	-0.454633	0.296056
H318	H	1.521946	0.045367	0.796056
H319	H	1.071409	-0.387485	0.268498
H320	H	1.571409	0.112515	0.768498
O321	O	1.058138	-0.156683	0.479211
O322	O	1.558138	0.343317	0.979211
H323	H	1.022323	-0.136706	0.455006
H324	H	1.522323	0.363294	0.955006
H325	H	1.020221	-0.135521	0.688829
H326	H	1.520221	0.364479	1.188829
H327	H	1.310412	-0.743981	0.135677
H328	H	1.810412	-0.243981	0.635677
