data_functionalizedCrystal
_audit_creation_method	'MofGen! by Chris Wilmer'
_symmetry_space_group_name_H-M	'P1'
_symmetry_Int_Tables_number	1
_symmetry_cell_setting	triclinic
loop_
_symmetry_equiv_pos_as_xyz
  x,y,z
_cell_length_a	18.050591
_cell_length_b	18.050590
_cell_length_c	18.050582
_cell_angle_alpha	90.013008
_cell_angle_beta	90.020922
_cell_angle_gamma	90.004047
loop_
_atom_site_label
_atom_site_type_symbol
_atom_site_fract_x
_atom_site_fract_y
_atom_site_fract_z
Zn1	Zn	1.135397	-0.295786	0.420081
Zn2	Zn	1.135351	-0.419969	0.295912
Zn3	Zn	1.011216	-0.295789	0.295892
Zn4	Zn	1.011208	-0.419930	0.420047
O5	O	1.073293	-0.357868	0.357983
O6	O	1.239315	-0.312274	0.403632
O7	O	1.118869	-0.403514	0.191984
O8	O	1.027711	-0.191864	0.312372
O9	O	1.239282	-0.403511	0.312405
O10	O	1.118946	-0.191861	0.403613
O11	O	1.027667	-0.312279	0.191970
O12	O	0.907290	-0.312241	0.312339
O13	O	1.027697	-0.403444	0.523976
O14	O	0.907284	-0.403447	0.403555
O15	O	1.118938	-0.312236	0.524001
O16	O	1.118861	-0.523888	0.312372
O17	O	1.027653	-0.523859	0.403574
C18	C	0.880341	-0.357841	0.357942
C19	C	0.797795	-0.357847	0.357942
C20	C	1.073271	-0.550820	0.357988
C21	C	1.073330	-0.633366	0.358015
C22	C	1.073322	-0.357835	0.551689
C23	C	1.073334	-0.357821	0.634234
C24	C	0.598326	-0.308191	0.308453
C25	C	0.548930	-0.375927	0.290188
C26	C	0.646665	-0.357869	0.357975
C27	C	0.548979	-0.290157	0.376238
C28	C	0.500679	-0.357885	0.358006
C29	C	0.598356	-0.425641	0.339675
C30	C	0.598409	-0.339825	0.425757
C31	C	0.549035	-0.407607	0.407518
C32	C	0.730763	-0.357859	0.357956
C33	C	0.416583	-0.357903	0.358026
C34	C	1.266998	-0.357897	0.358024
C35	C	1.349544	-0.357909	0.358042
C36	C	1.073335	-0.164163	0.357994
C37	C	1.073353	-0.081617	0.357999
C38	C	1.122964	0.117835	0.407631
C39	C	1.141118	0.167214	0.339883
C40	C	1.073345	0.069513	0.358003
C41	C	1.055218	0.167216	0.425753
C42	C	1.073340	0.215499	0.358012
C43	C	1.091535	0.117805	0.290218
C44	C	1.005604	0.117803	0.376135
C45	C	1.023732	0.167160	0.308339
C46	C	1.073351	-0.014585	0.357998
C47	C	1.073334	0.299595	0.358009
C48	C	1.073307	-0.357847	0.165031
C49	C	1.073438	-0.357652	0.082485
C50	C	1.023755	-0.407352	0.833672
C51	C	1.091517	-0.425511	0.883073
C52	C	1.073371	-0.357765	0.785365
C53	C	1.005647	-0.339586	0.883045
C54	C	1.073400	-0.357711	0.931350
C55	C	1.141168	-0.375958	0.833679
C56	C	1.055252	-0.290002	0.833647
C57	C	1.123060	-0.308134	0.883026
C58	C	1.073353	-0.357797	0.701266
C59	C	1.073426	-0.357679	1.015447
H60	H	0.619969	-0.266226	0.266528
Cl61	Cl	0.631989	-0.316212	0.514213
Cl62	Cl	0.631698	-0.514087	0.315743
Cl63	Cl	0.958952	0.200403	0.243475
Cl64	Cl	1.031533	-0.201586	0.800099
Cl65	Cl	0.515374	-0.399510	0.201710
H66	H	0.948334	0.096085	0.391491
Cl67	Cl	1.187797	0.084391	0.472340
Cl68	Cl	1.229560	0.200725	0.316202
H69	H	0.948361	-0.324232	0.904730
Cl70	Cl	0.515827	-0.472551	0.472199
H71	H	0.527251	-0.232894	0.391646
Cl72	Cl	1.115207	-0.513949	0.916594
H73	H	1.039890	0.188921	0.483045
Cl74	Cl	1.115295	0.084441	0.201735
H75	H	0.981836	-0.449342	0.812002
H76	H	1.198471	-0.391377	0.812085
Cl77	Cl	1.187932	-0.243356	0.916279
