data_functionalizedCrystal
_audit_creation_method	'MofGen! by Chris Wilmer'
_symmetry_space_group_name_H-M	'P1'
_symmetry_Int_Tables_number	1
_symmetry_cell_setting	triclinic
loop_
_symmetry_equiv_pos_as_xyz
  x,y,z
_cell_length_a	14.446369
_cell_length_b	20.016444
_cell_length_c	14.446369
_cell_angle_alpha	60.000070
_cell_angle_beta	59.999699
_cell_angle_gamma	90.002120
loop_
_atom_site_label
_atom_site_type_symbol
_atom_site_fract_x
_atom_site_fract_y
_atom_site_fract_z
Zr1	Zr	0.891779	-0.087681	1.013187
O2	O	0.743971	-0.194363	1.206307
O3	O	0.937089	-0.054972	0.820068
O4	O	0.937090	-0.194352	1.013177
O5	O	0.743971	0.054956	1.013205
O6	O	1.089427	-0.194348	1.013169
O7	O	0.743970	-0.054984	1.013197
O8	O	1.089426	0.054977	0.667731
O9	O	0.743973	-0.194368	1.358643
O10	O	1.070102	-0.041025	0.899494
O11	O	0.956415	0.041019	0.899506
O12	O	0.956417	-0.123082	1.126868
O13	O	0.842729	-0.041038	1.126879
Zr14	Zr	1.134740	0.087667	1.013185
Zr15	Zr	1.134739	-0.087674	1.013174
Zr16	Zr	0.891780	0.087661	1.013199
Zr17	Zr	0.891782	-0.087689	1.256145
Zr18	Zr	1.134738	0.087675	0.770227
O19	O	1.089430	0.054959	1.206305
O20	O	1.089429	-0.194354	1.206288
O21	O	0.743972	0.054950	1.206324
O22	O	1.282549	0.194350	0.820065
O23	O	1.282547	-0.054963	0.820049
O24	O	0.937091	0.194341	0.820084
O25	O	1.282549	-0.054969	1.013168
O26	O	1.089429	0.194338	1.013195
O27	O	0.937092	0.194334	1.013203
O28	O	1.282550	0.054970	1.013175
O29	O	0.937093	-0.194363	1.358632
O30	O	1.089426	0.194350	0.667740
O31	O	1.282547	0.194355	0.667729
O32	O	1.282547	0.054982	0.667720
O33	O	0.743973	-0.054995	1.358652
O34	O	0.937094	-0.054990	1.358642
O35	O	1.070103	0.123069	0.899505
O36	O	1.183790	0.041025	0.899493
O37	O	1.070104	-0.041032	1.126867
O38	O	0.956417	0.041012	1.126878
C39	C	0.709354	-0.000015	1.013203
C40	C	0.606211	-0.000017	1.013208
C41	C	1.013257	0.000003	0.709283
C42	C	1.013256	0.000007	0.606141
C43	C	1.013261	0.219319	1.013201
C44	C	1.013261	0.293756	1.013206
C45	C	0.387843	-0.051510	1.156598
C46	C	0.495075	-0.051800	1.156695
C47	C	0.602886	-0.037760	0.941974
C48	C	0.495118	-0.038138	0.942884
C49	C	0.496482	0.089284	0.939940
C50	C	0.602451	0.089143	0.942642
C51	C	1.317166	0.000001	1.013169
C52	C	1.420309	0.000004	1.013164
C53	C	1.013259	-0.219332	1.013172
C54	C	1.013258	-0.293769	1.013167
C55	C	0.953914	0.422190	1.131877
C56	C	0.953911	0.492135	1.131872
C57	C	1.072607	0.577795	0.894486
C58	C	1.072603	0.507851	0.894493
C59	C	1.013260	0.430049	1.013192
C60	C	1.013260	0.569938	1.013180
C61	C	1.013257	0.645776	1.013173
C62	C	1.013261	0.354206	1.013200
C63	C	0.941897	0.051989	0.459138
C64	C	0.941509	0.051779	0.566758
C65	C	0.960949	-0.089153	0.655134
C66	C	0.960413	-0.088883	0.547901
C67	C	1.136973	0.036418	0.372678
C68	C	1.136791	0.038237	0.478829
C69	C	1.013263	-0.000017	1.317089
C70	C	1.013264	-0.000020	1.420231
C71	C	1.317163	0.000011	0.709266
C72	C	1.420305	0.000018	0.606118
C73	C	1.013258	0.219329	0.709297
C74	C	1.013258	0.293769	0.606160
C75	C	1.317164	0.219337	0.709281
C76	C	1.420307	0.293780	0.606138
C77	C	0.709355	-0.219350	1.317092
C78	C	0.606213	-0.293793	1.420234
C79	C	0.709357	-0.000025	1.317106
C80	C	0.606215	-0.000031	1.420254
C81	C	1.013261	-0.219342	1.317075
C82	C	1.013262	-0.293783	1.420212
C83	C	1.072601	0.371564	0.557726
C84	C	1.072597	0.441515	0.460831
C85	C	1.013254	0.433670	0.412366
C86	C	0.953903	0.355867	0.460810
C87	C	0.953902	0.285918	0.557710
C88	C	1.528097	0.285913	0.557695
C89	C	1.625020	0.355854	0.460795
C90	C	1.614149	0.433660	0.412333
C91	C	1.506348	0.441526	0.460785
C92	C	1.409428	0.371586	0.557690
C93	C	0.498423	-0.285927	1.468689
C94	C	0.401500	-0.355867	1.565619
C95	C	0.412370	-0.433674	1.614086
C96	C	0.520172	-0.441539	1.565628
C97	C	0.617092	-0.371599	1.468706
C98	C	1.072616	-0.285911	1.468646
C99	C	1.072639	-0.355849	1.565542
C100	C	1.013300	-0.433658	1.614008
C101	C	0.953944	-0.441527	1.565564
C102	C	0.953929	-0.371590	1.468664
C103	C	1.638673	0.051505	0.459797
C104	C	1.531442	0.051795	0.566725
C105	C	1.423633	0.037766	0.479262
C106	C	1.531401	0.038142	0.371879
C107	C	1.530028	-0.089285	0.546850
C108	C	1.424060	-0.089144	0.655327
H109	H	0.333888	-0.026322	1.212894
H110	H	0.489550	-0.222579	1.429233
O111	O	1.136627	0.661724	0.766491
H112	H	1.102350	0.668870	0.709551
H113	H	1.536970	0.222566	0.597138
O114	O	1.494630	0.525448	0.408505
H115	H	1.447577	0.532563	0.364352
H116	H	1.120929	0.514256	0.797839
H117	H	1.345365	0.002055	0.501510
O118	O	1.194847	0.122065	0.248549
H119	H	1.136075	0.139619	0.219362
O120	O	1.598085	0.125164	0.251656
H121	H	1.622500	0.163068	0.276662
O122	O	0.987966	0.138743	0.518159
H123	H	1.010909	0.181328	0.417400
H124	H	1.580046	-0.120817	0.586417
H125	H	1.010433	-0.129579	0.683914
O126	O	1.534688	0.139034	0.517097
H127	H	1.534226	0.152897	0.582702
H128	H	0.313733	-0.349447	1.605058
O129	O	0.988113	0.139170	0.341422
H130	H	1.077378	0.167119	0.300469
H131	H	0.850258	0.026518	0.655562
O132	O	0.889975	-0.525462	1.617846
H133	H	0.924285	-0.532580	1.536499
H134	H	0.493316	-0.026680	1.212869
O135	O	0.307821	-0.509100	1.718630
H136	H	0.307860	-0.546043	1.681457
O137	O	0.733360	-0.380076	1.416456
H138	H	0.780369	-0.350256	1.309549
O139	O	0.889965	0.201985	0.609959
H140	H	0.949948	0.168124	0.591320
O141	O	1.136659	-0.347345	1.617778
H142	H	1.126722	-0.409044	1.693290
H143	H	0.851184	0.026939	0.494904
O144	O	0.531891	-0.525461	1.617898
H145	H	0.446381	-0.572765	1.693420
H146	H	1.504746	0.003047	0.341924
O147	O	1.741284	0.347362	0.408530
H148	H	1.732550	0.281507	0.458495
H149	H	1.120937	-0.222562	1.429200
H150	H	0.601933	0.117339	0.994581
H151	H	1.013321	-0.490598	1.692910
O152	O	0.491842	-0.139035	1.231186
H153	H	0.413599	-0.181179	1.267268
O154	O	1.013281	0.509126	0.307839
H155	H	0.924920	0.509096	0.345026
O156	O	0.841291	-0.127899	0.776986
H157	H	0.818889	-0.083840	0.802917
H158	H	1.194444	0.004296	0.500326
O159	O	1.420853	0.123976	0.428148
H160	H	1.417103	0.140093	0.492862
H161	H	1.120925	0.377967	0.597175
H162	H	1.321663	0.378002	0.597120
O163	O	0.889892	-0.380084	1.416443
H164	H	0.848626	-0.445940	1.466442
O165	O	0.889936	0.347410	0.408497
H166	H	0.899938	0.409125	0.332959
H167	H	1.693077	0.490603	0.333427
H168	H	1.175868	0.103922	0.439230
O169	O	0.889908	0.338272	1.259892
H170	H	0.798697	0.331152	1.316800
H171	H	1.533056	0.026478	0.656074
O172	O	0.839834	-0.127515	0.601795
H173	H	0.782454	-0.146210	0.704050
O174	O	1.024799	-0.143010	0.518798
H175	H	1.056172	-0.169267	0.581314
O176	O	0.315053	-0.138234	1.230796
H177	H	0.301897	-0.144807	1.165960
H178	H	1.692630	0.026315	0.497033
O179	O	0.428411	-0.125160	1.009947
H180	H	0.473276	-0.166577	1.041429
O181	O	1.207750	-0.013511	0.338250
H182	H	1.155146	-0.064027	0.354886
H183	H	1.120931	0.504859	0.421399
O184	O	1.711496	0.138222	0.341037
H185	H	1.724664	0.144796	0.253933
H186	H	1.424582	-0.117342	0.745814
O187	O	1.318971	-0.144360	0.698456
H188	H	1.262210	-0.108943	0.685337
O189	O	1.493678	-0.140371	0.514023
H190	H	1.529659	-0.102410	0.408060
H191	H	0.521771	-0.003043	0.837649
H192	H	0.681154	-0.002046	0.836473
H193	H	0.446459	0.120814	0.985836
O194	O	0.605698	-0.123963	1.007503
H195	H	0.609459	-0.140080	1.090792
H196	H	0.681609	0.130754	0.837960
H197	H	0.523920	0.127848	0.834279
H198	H	0.905584	0.485729	1.228517
