data_functionalizedCrystal
_audit_creation_method	'MofGen! by Chris Wilmer'
_symmetry_space_group_name_H-M	'P1'
_symmetry_Int_Tables_number	1
_symmetry_cell_setting	triclinic
loop_
_symmetry_equiv_pos_as_xyz
  x,y,z
_cell_length_a	14.971482
_cell_length_b	14.586319
_cell_length_c	14.971486
_cell_angle_alpha	89.995999
_cell_angle_beta	96.386632
_cell_angle_gamma	90.002951
loop_
_atom_site_label
_atom_site_type_symbol
_atom_site_fract_x
_atom_site_fract_y
_atom_site_fract_z
O1	O	1.186946	0.076229	-0.116546
O2	O	1.686946	0.576229	0.383454
O3	O	0.926545	0.076233	-0.130508
O4	O	1.426545	0.576233	0.369492
O5	O	1.063725	0.076225	0.006673
O6	O	1.563725	0.576225	0.506673
O7	O	1.049766	0.076238	-0.253727
O8	O	1.549766	0.576238	0.246273
O9	O	1.063715	-0.076256	0.006675
O10	O	1.563715	0.423744	0.506675
O11	O	0.926535	-0.076247	-0.130506
O12	O	1.426535	0.423753	0.369494
O13	O	1.186936	-0.076252	-0.116544
O14	O	1.686936	0.423748	0.383456
Cu15	Cu	1.056735	-0.090172	-0.123525
Cu16	Cu	1.556735	0.409828	0.376475
Cu17	Cu	1.056746	0.090154	-0.123527
Cu18	Cu	1.556746	0.590154	0.376473
O19	O	1.049756	-0.076243	-0.253725
O20	O	1.549756	0.423757	0.246275
C21	C	0.893215	-0.000006	-0.129883
C22	C	1.393215	0.499994	0.370117
C23	C	0.793918	-0.000005	-0.128014
C24	C	1.293918	0.499995	0.371986
C25	C	0.747268	-0.083123	-0.127132
C26	C	1.247268	0.416877	0.372868
C27	C	0.653970	-0.083124	-0.125361
C28	C	1.153970	0.416876	0.374639
C29	C	0.607322	-0.000006	-0.124479
C30	C	1.107322	0.499994	0.375521
C31	C	0.653979	0.083119	-0.125358
C32	C	1.153979	0.583119	0.374642
C33	C	0.747276	0.083119	-0.127122
C34	C	1.247276	0.583119	0.372878
C35	C	0.459517	0.083113	-0.121682
C36	C	0.959517	0.583113	0.378318
C37	C	0.366213	0.083113	-0.119919
C38	C	0.866213	0.583113	0.380081
C39	C	0.366210	-0.083130	-0.119922
C40	C	0.866210	0.416870	0.380078
C41	C	0.459508	-0.083130	-0.121686
C42	C	0.959508	0.416870	0.378314
C43	C	0.506158	-0.000005	-0.122567
C44	C	1.006158	0.499995	0.377433
N45	N	1.056733	-0.217004	-0.123522
N46	N	1.556733	0.282996	0.376478
C47	C	1.117497	-0.452014	-0.062799
C48	C	1.617497	0.047986	0.437201
C49	C	1.117499	-0.547996	-0.062797
C50	C	1.617499	-0.047996	0.437203
C51	C	0.995985	-0.547997	-0.184249
C52	C	1.495985	-0.047997	0.315751
C53	C	0.995979	-0.452018	-0.184246
C54	C	1.495979	0.047982	0.315754
C55	C	1.056740	-0.404029	-0.123522
C56	C	1.556740	0.095971	0.376478
C57	C	1.056748	-0.595990	-0.123523
C58	C	1.556748	-0.095990	0.376477
C59	C	1.056751	-0.700057	-0.123521
C60	C	1.556751	-0.200057	0.376479
C61	C	1.056736	-0.299955	-0.123522
C62	C	1.556736	0.200045	0.376478
C63	C	1.220266	-0.000010	-0.117168
C64	C	1.720266	0.499990	0.382832
C65	C	1.319563	-0.000006	-0.119038
C66	C	1.819563	0.499994	0.380962
C67	C	1.063096	-0.000016	0.039999
C68	C	1.563096	0.499984	0.539999
C69	C	1.061225	-0.000015	0.139296
C70	C	1.561225	0.499985	0.639296
N71	N	1.056755	0.216986	-0.123522
N72	N	1.556755	0.716986	0.376478
C73	C	1.050385	-0.000001	-0.287051
C74	C	1.550385	0.499999	0.212949
C75	C	1.052256	0.000004	-0.386348
C76	C	1.552256	0.500004	0.113652
C77	C	1.141814	-0.000017	0.196522
C78	C	1.641814	0.499983	0.696522
C79	C	1.140051	-0.000008	0.289822
C80	C	1.640051	0.499992	0.789822
C81	C	1.057698	-0.000003	0.325893
C82	C	1.557698	0.499997	0.825893
C83	C	0.977102	0.000002	0.268659
C84	C	1.477102	0.500002	0.768659
C85	C	0.978866	-0.000001	0.175362
C86	C	1.478866	0.499999	0.675362
C87	C	0.973431	0.000005	0.463122
C88	C	1.473431	0.500005	0.963122
C89	C	0.971667	0.000006	0.556426
C90	C	1.471667	0.500006	1.056426
C91	C	1.134616	-0.000001	0.577582
C92	C	1.634616	0.499999	1.077582
C93	C	1.136380	-0.000004	0.484284
C94	C	1.636380	0.499996	0.984284
C95	C	1.055784	-0.000001	0.427057
C96	C	1.555784	0.499999	0.927057
H97	H	0.328234	0.150795	-0.119201
H98	H	0.828234	0.650795	0.380799
C99	C	0.554468	0.179552	-0.200499
C100	C	1.054468	0.679552	0.299501
C101	C	0.510802	0.174481	-0.122654
C102	C	1.010802	0.674481	0.377346
H103	H	0.586134	0.235955	-0.201098
H104	H	1.086134	0.735955	0.298902
H105	H	0.511302	0.176103	-0.251920
H106	H	1.011302	0.676103	0.248080
H107	H	0.595595	0.130042	-0.201265
H108	H	1.095595	0.630042	0.298735
H109	H	0.469669	0.223988	-0.121892
H110	H	0.969669	0.723988	0.378108
H111	H	0.553973	0.177939	-0.071220
H112	H	1.053973	0.677939	0.428780
H113	H	1.166971	-0.412944	-0.013353
H114	H	1.666971	0.087056	0.486647
H115	H	1.205675	-0.000011	0.336413
H116	H	1.705675	0.499989	0.836413
H117	H	0.328223	-0.150814	-0.119205
H118	H	0.828223	0.349186	0.380795
C119	C	0.737911	0.247442	-0.126960
C120	C	1.237911	0.747442	0.373040
C121	C	0.798556	0.174485	-0.128101
C122	C	1.298556	0.674485	0.371899
H123	H	0.769570	0.303848	-0.127569
H124	H	1.269570	0.803848	0.372431
H125	H	0.708294	0.243985	-0.074155
H126	H	1.208294	0.743985	0.425845
H127	H	0.694749	0.243978	-0.178395
H128	H	1.194749	0.743978	0.321605
H129	H	0.841715	0.177946	-0.076663
H130	H	1.341715	0.677946	0.423337
H131	H	0.828188	0.177944	-0.180912
H132	H	1.328188	0.677944	0.319088
C133	C	1.237617	-0.538347	0.057243
C134	C	1.737617	-0.038347	0.557243
C135	C	1.184289	-0.600741	0.003948
C136	C	1.684289	-0.100741	0.503948
H137	H	1.278855	-0.570912	0.098446
H138	H	1.778855	-0.070912	0.598446
H139	H	1.200353	-0.500920	0.089478
H140	H	1.700353	-0.000920	0.589478
H141	H	1.269822	-0.500903	0.019946
H142	H	1.769822	-0.000903	0.519946
H143	H	1.152079	-0.638181	0.041245
H144	H	1.652079	-0.138181	0.541245
H145	H	1.221559	-0.638184	-0.028289
H146	H	1.721559	-0.138184	0.471711
C147	C	0.890282	-0.156942	-0.129843
C148	C	1.390282	0.343058	0.370157
C149	C	0.798540	-0.174490	-0.128104
C150	C	1.298540	0.325510	0.371896
H151	H	0.921931	-0.213351	-0.130446
H152	H	1.421931	0.286649	0.369554
H153	H	0.912339	-0.122799	-0.078016
H154	H	1.412339	0.377201	0.421984
H155	H	0.898796	-0.122787	-0.182256
H156	H	1.398796	0.377213	0.317744
H157	H	0.790026	-0.208640	-0.075687
H158	H	1.290026	0.291360	0.424313
H159	H	0.776477	-0.208648	-0.179936
H160	H	1.276477	0.291352	0.320064
C161	C	0.663336	-0.247445	-0.125560
C162	C	1.163336	0.252555	0.374440
C163	C	0.602691	-0.174491	-0.124401
C164	C	1.102691	0.325509	0.375599
H165	H	0.631677	-0.303853	-0.124973
H166	H	1.131677	0.196147	0.375027
H167	H	0.706493	-0.243996	-0.074132
H168	H	1.206493	0.256004	0.425868
H169	H	0.692958	-0.243971	-0.178372
H170	H	1.192958	0.256029	0.321628
H171	H	0.573075	-0.177962	-0.071586
H172	H	1.073075	0.322038	0.428414
H173	H	0.559519	-0.177942	-0.175835
H174	H	1.059519	0.322058	0.324165
H175	H	1.203439	-0.000015	0.454919
H176	H	1.703439	0.499985	0.954919
H177	H	1.208876	-0.000026	0.167161
H178	H	1.708876	0.499974	0.667161
H179	H	0.904607	-0.000004	0.585792
H180	H	1.404607	0.499996	1.085792
H181	H	0.946516	-0.587079	-0.233690
H182	H	1.446516	-0.087079	0.266310
H183	H	0.946499	-0.412945	-0.233694
H184	H	1.446499	0.087055	0.266306
H185	H	1.200240	-0.000001	0.624181
H186	H	1.700240	0.499999	1.124181
H187	H	0.907801	0.000010	0.416529
H188	H	1.407801	0.500010	0.916529
C189	C	0.880597	0.078389	0.361307
C190	C	1.380597	0.578389	0.861307
C191	C	0.886579	0.000007	0.308310
C192	C	1.386579	0.500007	0.808310
H193	H	0.824712	0.078385	0.385788
H194	H	1.324712	0.578385	0.885788
H195	H	0.884670	0.131553	0.325346
H196	H	1.384670	0.631553	0.825346
H197	H	0.928347	0.078378	0.408739
H198	H	1.428347	0.578378	0.908739
H199	H	0.838832	0.000022	0.260874
H200	H	1.338832	0.500022	0.760874
H201	H	0.882497	-0.053170	0.344273
H202	H	1.382497	0.446830	0.844273
C203	C	0.817622	0.000000	0.163815
C204	C	1.317622	0.500000	0.663815
C205	C	0.890280	-0.000001	0.112455
C206	C	1.390280	0.499999	0.612455
H207	H	0.762932	-0.000002	0.124978
H208	H	1.262932	0.499998	0.624978
H209	H	0.820328	0.053170	0.200640
H210	H	1.320328	0.553170	0.700640
H211	H	0.820324	-0.053177	0.200650
H212	H	1.320324	0.446823	0.700650
H213	H	0.887582	0.053181	0.075624
H214	H	1.387582	0.553181	0.575624
H215	H	0.887572	-0.053176	0.075614
H216	H	1.387572	0.446824	0.575614
H217	H	0.615992	0.150795	-0.124632
H218	H	1.115992	0.650795	0.375368
H219	H	0.497485	-0.150813	-0.122410
H220	H	0.997485	0.349187	0.377590
