data_functionalizedCrystal
_audit_creation_method	'MofGen! by Chris Wilmer'
_symmetry_space_group_name_H-M	'P1'
_symmetry_Int_Tables_number	1
_symmetry_cell_setting	triclinic
loop_
_symmetry_equiv_pos_as_xyz
  x,y,z
_cell_length_a	29.839131
_cell_length_b	12.645331
_cell_length_c	29.839135
_cell_angle_alpha	89.988044
_cell_angle_beta	90.000668
_cell_angle_gamma	89.964326
loop_
_atom_site_label
_atom_site_type_symbol
_atom_site_fract_x
_atom_site_fract_y
_atom_site_fract_z
Zn1	Zn	-0.179061	-1.620405	0.254055
Zn2	Zn	-0.254150	-1.620258	0.178925
Zn3	Zn	-0.179028	-1.443165	0.178932
Zn4	Zn	-0.254157	-1.443028	0.254021
O5	O	-0.216599	-1.531714	0.216483
O6	O	-0.189033	-1.768733	0.244100
O7	O	-0.244169	-1.596762	0.116059
O8	O	-0.116165	-1.466794	0.188915
O9	O	-0.244201	-1.768625	0.188902
O10	O	-0.116189	-1.597012	0.244107
O11	O	-0.188976	-1.466652	0.116064
O12	O	-0.188983	-1.294799	0.188882
O13	O	-0.244212	-1.466562	0.316893
O14	O	-0.244180	-1.294699	0.244049
O15	O	-0.189039	-1.596880	0.316918
O16	O	-0.317018	-1.596630	0.188869
O17	O	-0.317023	-1.466420	0.244042
C18	C	-0.216579	-1.256284	0.216463
C19	C	-0.216581	-1.138454	0.216465
C20	C	-0.333322	-1.531523	0.216461
C21	C	-0.383256	-1.531538	0.216467
C22	C	-0.181691	-0.970918	0.181946
C23	C	-0.181785	-1.093478	0.181797
C24	C	-0.263898	-1.093895	0.203525
C25	C	-0.263703	-0.971297	0.203286
C26	C	-0.204591	-0.971288	0.264046
C27	C	-0.203538	-1.093895	0.263785
C28	C	-0.692884	-1.599638	0.187797
C29	C	-0.880557	-1.599769	0.187814
O30	O	-0.904809	-1.657518	0.163421
N31	N	-0.904041	-1.531934	0.216517
C32	C	-0.880604	-1.464067	0.245220
O33	O	-0.904884	-1.406380	0.269637
C34	C	-0.692931	-1.463942	0.245204
C35	C	-0.669450	-1.531773	0.216496
C36	C	-0.669403	-1.667465	0.159092
C37	C	-0.622487	-1.667427	0.159086
C38	C	-0.599053	-1.599563	0.187785
C39	C	-0.622535	-1.531736	0.216491
C40	C	-0.669495	-1.396081	0.273909
C41	C	-0.622574	-1.396057	0.273903
C42	C	-0.599093	-1.463889	0.245195
C43	C	-0.552185	-1.463834	0.245184
N44	N	-0.528701	-1.531669	0.216481
C45	C	-0.552135	-1.599533	0.187782
C46	C	-0.979134	-1.464135	0.245225
C47	C	-1.026052	-1.464165	0.245229
C48	C	-1.026002	-1.599869	0.187824
C49	C	-0.979084	-1.599833	0.187818
C50	C	-0.955650	-1.531970	0.216522
C51	C	-0.453610	-1.599449	0.187772
C52	C	-0.406690	-1.599402	0.187767
C53	C	-0.406744	-1.463703	0.245174
C54	C	-0.453659	-1.463745	0.245177
C55	C	-0.477091	-1.531626	0.216474
O56	O	-0.527904	-1.406124	0.269568
O57	O	-0.527847	-1.657228	0.163375
C58	C	-0.739800	-1.599675	0.187803
C59	C	-0.763281	-1.531848	0.216508
C60	C	-0.739847	-1.463984	0.245207
C61	C	-0.810199	-1.531878	0.216511
C62	C	-0.833633	-1.599742	0.187812
C63	C	-0.810149	-1.667577	0.159109
C64	C	-0.763234	-1.667539	0.159103
C65	C	-0.763331	-1.396149	0.273910
C66	C	-0.810246	-1.396191	0.273913
C67	C	-0.833680	-1.464056	0.245214
C68	C	-0.099421	-1.531935	0.216516
C69	C	-0.049486	-1.532029	0.216529
C70	C	-0.216630	-1.531722	0.333662
C71	C	-0.216643	-1.531726	0.383596
C72	C	-0.216611	-0.808219	0.216497
C73	C	-0.216594	-0.926049	0.216486
C74	C	-0.245336	-1.463857	0.740170
C75	C	-0.245352	-1.463864	0.552497
O76	O	-0.269771	-1.406134	0.528222
N77	N	-0.216629	-1.531715	0.529041
C78	C	-0.187898	-1.599563	0.552506
O79	O	-0.163464	-1.657266	0.528249
C80	C	-0.187880	-1.599550	0.740179
C81	C	-0.216608	-1.531702	0.763632
C82	C	-0.274062	-1.396014	0.763624
C83	C	-0.274060	-1.396017	0.810539
C84	C	-0.245331	-1.463863	0.834001
C85	C	-0.216606	-1.531705	0.810548
C86	C	-0.159146	-1.667392	0.763643
C87	C	-0.159144	-1.667381	0.810564
C88	C	-0.187872	-1.599534	0.834017
C89	C	-0.187875	-1.599554	0.880925
N90	N	-0.216598	-1.531704	0.904381
C91	C	-0.245326	-1.463858	0.880919
C92	C	-0.187910	-1.599567	0.453976
C93	C	-0.187915	-1.599572	0.407058
C94	C	-0.245369	-1.463871	0.407052
C95	C	-0.245366	-1.463872	0.453971
C96	C	-0.216633	-1.531716	0.477432
C97	C	-0.245319	-1.463870	0.979445
C98	C	-0.245315	-1.463882	1.026364
C99	C	-0.187860	-1.599578	1.026366
C100	C	-0.187865	-1.599571	0.979451
C101	C	-0.216596	-1.531708	0.955991
O102	O	-0.163466	-1.657245	0.905229
O103	O	-0.269750	-1.406147	0.905184
C104	C	-0.245339	-1.463854	0.693255
C105	C	-0.216613	-1.531697	0.669801
C106	C	-0.187885	-1.599542	0.693263
C107	C	-0.216618	-1.531701	0.622883
C108	C	-0.245346	-1.463856	0.599422
C109	C	-0.274070	-1.396006	0.622878
C110	C	-0.274067	-1.396008	0.669793
C111	C	-0.159162	-1.667392	0.669807
C112	C	-0.159167	-1.667385	0.622892
C113	C	-0.187895	-1.599539	0.599430
C114	C	-0.216584	-1.531706	1.099761
C115	C	-0.216587	-1.531728	1.049826
H116	H	-0.146495	-0.941483	0.189968
O117	O	-0.191174	-1.128487	0.139746
C118	C	-0.155205	-1.190423	0.123904
H119	H	-0.123313	-1.168194	0.142699
H120	H	-0.162901	-1.277673	0.129656
C121	C	-0.187771	-1.197550	0.050353
C122	C	-0.148600	-1.170241	0.073436
H123	H	-0.183697	-1.185106	0.019222
H124	H	-0.212005	-1.155826	0.061027
H125	H	-0.194180	-1.270257	0.055151
H126	H	-0.142194	-1.097533	0.068642
H127	H	-0.124364	-1.211953	0.062760
H128	H	-0.472779	-1.408514	0.268554
H129	H	-0.230013	-0.942269	0.289781
H130	H	-0.290599	-1.123024	0.227894
O131	O	-1.048701	-1.665832	0.159904
C132	C	-1.017920	-1.725731	0.134576
H133	H	-0.984490	-1.682298	0.132992
H134	H	-1.012898	-1.806205	0.151067
C135	C	-1.077294	-1.794472	0.088720
C136	C	-1.036237	-1.741122	0.086771
H137	H	-1.088594	-1.803971	0.059231
H138	H	-1.098033	-1.754120	0.105784
H139	H	-1.073104	-1.861527	0.102463
H140	H	-1.040429	-1.674064	0.073032
H141	H	-1.015499	-1.781463	0.069703
H142	H	-0.189534	-0.940083	0.146909
H143	H	-0.387573	-1.654638	0.164388
H144	H	-0.297452	-1.340766	0.829631
O145	O	-0.131319	-1.733397	0.600089
C146	C	-0.156889	-1.801812	0.572940
H147	H	-0.192273	-1.808328	0.587077
H148	H	-0.158436	-1.769022	0.537381
C149	C	-0.091474	-1.904038	0.554862
C150	C	-0.134932	-1.912047	0.572227
H151	H	-0.077930	-1.972034	0.554420
H152	H	-0.074247	-1.857943	0.573151
H153	H	-0.092770	-1.876708	0.525231
H154	H	-0.133636	-1.939364	0.601859
H155	H	-0.152159	-1.958149	0.553943
H156	H	-0.164471	-1.654820	1.045477
O157	O	-0.301986	-1.329996	0.692503
C158	C	-0.327348	-1.270140	0.661726
H159	H	-0.308945	-1.266516	0.628282
H160	H	-0.361470	-1.308900	0.656740
C161	C	-0.356418	-1.161748	0.721097
C162	C	-0.333814	-1.157288	0.680021
H163	H	-0.360409	-1.092137	0.732382
H164	H	-0.339333	-1.202076	0.741832
H165	H	-0.384851	-1.194052	0.716936
H166	H	-0.305379	-1.124997	0.684182
H167	H	-0.350894	-1.116952	0.659286
O168	O	-0.159984	-1.665333	0.384231
C169	C	-0.130958	-1.605024	0.357096
H170	H	-0.146803	-1.524667	0.350054
H171	H	-0.097668	-1.593417	0.375182
C172	C	-0.103355	-1.762071	0.321188
C173	C	-0.122818	-1.663378	0.312535
H174	H	-0.098332	-1.798067	0.293701
H175	H	-0.122909	-1.802704	0.339470
H176	H	-0.075616	-1.752385	0.336260
H177	H	-0.150560	-1.673066	0.297469
H178	H	-0.103269	-1.622748	0.294249
H179	H	-0.273885	-0.942662	0.168518
O180	O	-0.301999	-1.330249	0.600031
C181	C	-0.331024	-1.390562	0.572906
H182	H	-0.315184	-1.470932	0.565892
H183	H	-0.364319	-1.402140	0.590986
C184	C	-0.358604	-1.233525	0.536944
C185	C	-0.339147	-1.332234	0.528326
H186	H	-0.363617	-1.197544	0.509445
H187	H	-0.339050	-1.192890	0.555219
H188	H	-0.386348	-1.243187	0.552011
H189	H	-0.311401	-1.322569	0.513264
H190	H	-0.358696	-1.372865	0.510047
O191	O	-0.295748	-0.935993	0.232044
C192	C	-0.286471	-0.973412	0.275584
H193	H	-0.264664	-1.047279	0.273371
H194	H	-0.268013	-0.909694	0.295308
C195	C	-0.357514	-0.909849	0.302207
C196	C	-0.330733	-1.000580	0.299489
H197	H	-0.384817	-0.926603	0.316954
H198	H	-0.363764	-0.884635	0.272874
H199	H	-0.342127	-0.856759	0.318643
H200	H	-0.346118	-1.053663	0.283049
H201	H	-0.324488	-1.025803	0.328819
O202	O	-0.956324	-1.398151	0.273045
C203	C	-0.929223	-1.329691	0.247437
H204	H	-0.922177	-1.367142	0.213408
H205	H	-0.947338	-1.251157	0.242465
C206	C	-0.893317	-1.264407	0.313942
C207	C	-0.884661	-1.310409	0.272149
H208	H	-0.865830	-1.252508	0.329186
H209	H	-0.911577	-1.310527	0.331195
H210	H	-0.908415	-1.198967	0.309793
H211	H	-0.869569	-1.375853	0.276299
H212	H	-0.866397	-1.264299	0.254897
O213	O	-1.048839	-1.398378	0.273177
C214	C	-1.037348	-1.421444	0.317959
H215	H	-1.024421	-1.506123	0.320259
H216	H	-1.010132	-1.364575	0.329674
C217	C	-1.094903	-1.305070	0.345119
C218	C	-1.079029	-1.409077	0.347945
H219	H	-1.120613	-1.297437	0.363617
H220	H	-1.102643	-1.289526	0.314949
H221	H	-1.072219	-1.257691	0.354881
H222	H	-1.101711	-1.456453	0.338178
H223	H	-1.071293	-1.424628	0.378115
H224	H	-0.227109	-1.124514	0.290898
O225	O	-0.692098	-1.733568	0.131232
C226	C	-0.680577	-1.839178	0.141115
H227	H	-0.646517	-1.841262	0.158401
H228	H	-0.706969	-1.874889	0.164219
C229	C	-0.720182	-1.900928	0.076121
C230	C	-0.678347	-1.903488	0.097348
H231	H	-0.718808	-1.940600	0.049124
H232	H	-0.727945	-1.829777	0.069463
H233	H	-0.742171	-1.930685	0.095379
H234	H	-0.656360	-1.873720	0.078093
H235	H	-0.670580	-1.974636	0.104002
H236	H	-0.744119	-1.722774	0.135727
H237	H	-0.135767	-1.722641	0.688905
O238	O	-0.276181	-1.130526	0.162479
C239	C	-0.242122	-1.196471	0.145370
H240	H	-0.208901	-1.175941	0.162098
H241	H	-0.250789	-1.282622	0.152539
C242	C	-0.278892	-1.205074	0.073858
C243	C	-0.238088	-1.179853	0.094400
H244	H	-0.276404	-1.194828	0.042417
H245	H	-0.301838	-1.160649	0.085384
H246	H	-0.286109	-1.276866	0.079836
H247	H	-0.230873	-1.108060	0.088427
H248	H	-0.215139	-1.224266	0.082872
H249	H	-0.135743	-1.722624	0.829664
O250	O	-0.162002	-1.128779	0.275368
C251	C	-0.144780	-1.193148	0.240840
H252	H	-0.173642	-1.226376	0.220161
H253	H	-0.121972	-1.144053	0.218341
C254	C	-0.082341	-1.244081	0.286853
C255	C	-0.117790	-1.284900	0.261456
H256	H	-0.065690	-1.300676	0.299569
H257	H	-0.093943	-1.200711	0.310114
H258	H	-0.063339	-1.203169	0.268099
H259	H	-0.136794	-1.325800	0.280211
H260	H	-0.106191	-1.328279	0.238198
H261	H	-0.268761	-1.408630	0.387941
H262	H	-0.959968	-1.655068	0.164442
O263	O	-0.476298	-1.665417	0.159846
C264	C	-0.445504	-1.725285	0.134520
H265	H	-0.412078	-1.681832	0.132949
H266	H	-0.440478	-1.805765	0.151003
C267	C	-0.504861	-1.794032	0.088642
C268	C	-0.463808	-1.740658	0.086708
H269	H	-0.516152	-1.803520	0.059150
H270	H	-0.525607	-1.753702	0.105705
H271	H	-0.500667	-1.861093	0.102379
H272	H	-0.468003	-1.673594	0.072976
H273	H	-0.443062	-1.780978	0.069641
H274	H	-0.146697	-1.123608	0.189908
O275	O	-0.692276	-1.330305	0.301864
C276	C	-0.680780	-1.353385	0.346643
H277	H	-0.667854	-1.438066	0.348937
H278	H	-0.653561	-1.296522	0.358357
C279	C	-0.738329	-1.237012	0.373817
C280	C	-0.722456	-1.341022	0.376635
H281	H	-0.764035	-1.229382	0.392318
H282	H	-0.746073	-1.221459	0.343648
H283	H	-0.715642	-1.189638	0.383578
H284	H	-0.745140	-1.388393	0.366869
H285	H	-0.714717	-1.356583	0.406803
O286	O	-0.599790	-1.330284	0.301835
C287	C	-0.572615	-1.390566	0.330865
H288	H	-0.586720	-1.474066	0.333674
H289	H	-0.537057	-1.394212	0.316973
C290	C	-0.554587	-1.236139	0.374096
C291	C	-0.571913	-1.338693	0.377550
H292	H	-0.554152	-1.204139	0.402894
H293	H	-0.572894	-1.195524	0.354537
H294	H	-0.524957	-1.239191	0.362518
H295	H	-0.601545	-1.335638	0.389123
H296	H	-0.553611	-1.379306	0.397112
O297	O	-0.383953	-1.397940	0.273100
C298	C	-0.356780	-1.458243	0.302124
H299	H	-0.370892	-1.541736	0.304932
H300	H	-0.321224	-1.461905	0.288228
C301	C	-0.338732	-1.303834	0.345360
C302	C	-0.356067	-1.406379	0.348811
H303	H	-0.338290	-1.271841	0.374158
H304	H	-0.357038	-1.263206	0.325805
H305	H	-0.309103	-1.306900	0.333777
H306	H	-0.385697	-1.403311	0.360388
H307	H	-0.337766	-1.447006	0.368370
O308	O	-0.832932	-1.733640	0.131300
C309	C	-0.860041	-1.802053	0.156924
H310	H	-0.845890	-1.808485	0.192308
H311	H	-0.895614	-1.769315	0.158460
C312	C	-0.878093	-1.904420	0.091582
C313	C	-0.860711	-1.912326	0.135040
H314	H	-0.878509	-1.972440	0.078083
H315	H	-0.859831	-1.858326	0.074319
H316	H	-0.907737	-1.877134	0.092868
H317	H	-0.831067	-1.939599	0.133753
H318	H	-0.878969	-1.958427	0.152303
O319	O	-0.131167	-1.733181	0.740894
C320	C	-0.086397	-1.710075	0.752378
H321	H	-0.084138	-1.625381	0.765260
H322	H	-0.074660	-1.766908	0.779626
C323	C	-0.059175	-1.826493	0.694890
C324	C	-0.056400	-1.722467	0.710708
H325	H	-0.040670	-1.834141	0.669187
H326	H	-0.089337	-1.842063	0.687154
H327	H	-0.049395	-1.873842	0.717601
H328	H	-0.066185	-1.675121	0.687999
H329	H	-0.026238	-1.706889	0.718440
O330	O	-0.273273	-1.398124	1.049165
C331	C	-0.302285	-1.458427	1.076317
H332	H	-0.305063	-1.541917	1.062187
H333	H	-0.288397	-1.462098	1.111877
C334	C	-0.345576	-1.304015	1.094384
C335	C	-0.348989	-1.406556	1.077027
H336	H	-0.374384	-1.272017	1.094824
H337	H	-0.326028	-1.263386	1.076093
H338	H	-0.334001	-1.307088	1.124016
H339	H	-0.360559	-1.403480	1.047394
H340	H	-0.368540	-1.447183	1.095313
O341	O	-0.740521	-1.330167	0.301726
C342	C	-0.713423	-1.261703	0.276115
H343	H	-0.706379	-1.299154	0.242086
H344	H	-0.731541	-1.183172	0.271145
C345	C	-0.677514	-1.196412	0.342617
C346	C	-0.668860	-1.242414	0.300824
H347	H	-0.650026	-1.184509	0.357859
H348	H	-0.695771	-1.242534	0.359872
H349	H	-0.692613	-1.130975	0.338469
H350	H	-0.653766	-1.307856	0.304973
H351	H	-0.650599	-1.196302	0.283570
O352	O	-0.159919	-1.665516	0.956735
C353	C	-0.134573	-1.725422	0.987506
H354	H	-0.133017	-1.682008	1.020949
H355	H	-0.151029	-1.805906	0.992500
C356	C	-0.088671	-1.794103	0.928125
C357	C	-0.086756	-1.740778	0.969198
H358	H	-0.059176	-1.803580	0.916831
H359	H	-0.105748	-1.753747	0.907393
H360	H	-0.102386	-1.861168	0.932292
H361	H	-0.073046	-1.673710	0.965029
H362	H	-0.069675	-1.781123	0.989929
H363	H	-0.170689	-0.940418	0.275810
H364	H	-0.603372	-1.722664	0.135711
O365	O	-0.273297	-1.398076	0.956678
C366	C	-0.318068	-1.421169	0.968162
H367	H	-0.320331	-1.505855	0.981068
H368	H	-0.329808	-1.364319	0.995393
C369	C	-0.345281	-1.304781	0.910637
C370	C	-0.348060	-1.408797	0.926485
H371	H	-0.363782	-1.297145	0.884930
H372	H	-0.315117	-1.289219	0.902901
H373	H	-0.355063	-1.257417	0.933334
H374	H	-0.338273	-1.456158	0.903790
H375	H	-0.378223	-1.424367	0.934216
H376	H	-0.829361	-1.340946	0.297291
H377	H	-0.297456	-1.340760	0.744526
H378	H	-0.268759	-1.408624	0.473064
H379	H	-0.164511	-1.654818	0.473074
