data_functionalizedCrystal
_audit_creation_method	'MofGen! by Chris Wilmer'
_symmetry_space_group_name_H-M	'P1'
_symmetry_Int_Tables_number	1
_symmetry_cell_setting	triclinic
loop_
_symmetry_equiv_pos_as_xyz
  x,y,z
_cell_length_a	15.297327
_cell_length_b	18.215407
_cell_length_c	18.215399
_cell_angle_alpha	90.019833
_cell_angle_beta	99.648308
_cell_angle_gamma	80.292603
loop_
_atom_site_label
_atom_site_type_symbol
_atom_site_fract_x
_atom_site_fract_y
_atom_site_fract_z
Zn1	Zn	-0.359166	-1.074360	-0.466794
Zn2	Zn	0.140834	-0.574360	0.033206
Zn3	Zn	-0.510038	-1.052966	-0.365016
Zn4	Zn	-0.010038	-0.552966	0.134984
Zn5	Zn	-0.359195	-0.951288	-0.343746
Zn6	Zn	0.140805	-0.451288	0.156254
Zn7	Zn	-0.509988	-0.929963	-0.488034
Zn8	Zn	-0.009988	-0.429963	0.011966
O9	O	-0.434597	-1.002144	-0.415897
O10	O	0.065403	-0.502144	0.084103
O11	O	-0.379188	-1.174505	-0.453306
O12	O	0.120812	-0.674505	0.046694
O13	O	-0.490062	-1.039449	-0.259215
O14	O	0.009938	-0.539449	0.240785
O15	O	-0.232944	-0.985492	-0.342278
O16	O	0.267056	-0.485492	0.157722
O17	O	-0.490033	-1.158787	-0.378530
O18	O	0.009967	-0.658787	0.121470
O19	O	-0.232922	-1.075912	-0.432681
O20	O	0.267078	-0.575912	0.067319
O21	O	-0.379238	-0.964747	-0.243588
O22	O	0.120762	-0.464747	0.256412
O23	O	-0.379190	-0.845476	-0.362873
O24	O	0.120810	-0.345476	0.137127
O25	O	-0.489948	-0.949146	-0.588196
O26	O	0.010052	-0.449146	-0.088196
O27	O	-0.489976	-0.829808	-0.468881
O28	O	0.010024	-0.329808	0.031119
O29	O	-0.379139	-1.055234	-0.572591
O30	O	0.120861	-0.555234	-0.072591
O31	O	-0.636279	-1.018771	-0.399125
O32	O	-0.136279	-0.518771	0.100875
O33	O	-0.636242	-0.928401	-0.489506
O34	O	-0.136242	-0.428401	0.010494
C35	C	-0.434581	-0.810940	-0.415874
C36	C	0.065419	-0.310940	0.084126
C37	C	-0.434597	-0.729139	-0.415885
C38	C	0.065403	-0.229139	0.084115
C39	C	-0.668995	-0.968970	-0.448944
C40	C	-0.168995	-0.468970	0.051056
C41	C	-0.769272	-0.954846	-0.463106
C42	C	-0.269272	-0.454846	0.036894
C43	C	-0.434535	-1.002198	-0.607842
C44	C	0.065465	-0.502198	-0.107842
C45	C	-0.434508	-1.002220	-0.689637
C46	C	0.065492	-0.502220	-0.189637
C47	C	-1.051887	-1.103397	-0.314929
C48	C	-0.551887	-0.603397	0.185071
C49	C	-0.957672	-1.116667	-0.301619
C50	C	-0.457672	-0.616667	0.198381
C51	C	-0.910567	-1.076213	-0.341990
C52	C	-0.410567	-0.576213	0.158010
C53	C	-0.957687	-1.022486	-0.395673
C54	C	-0.457687	-0.522486	0.104327
C55	C	-1.051911	-1.009211	-0.408980
C56	C	-0.551911	-0.509211	0.091020
C57	C	-0.910591	-0.982027	-0.436041
C58	C	-0.410591	-0.482027	0.063959
C59	C	-0.957711	-0.928300	-0.489723
C60	C	-0.457711	-0.428300	0.010277
C61	C	-1.051926	-0.915027	-0.503028
C62	C	-0.551926	-0.415027	-0.003028
C63	C	-1.099031	-0.955481	-0.462658
C64	C	-0.599031	-0.455481	0.037342
C65	C	-0.816367	-0.995303	-0.422734
C66	C	-0.316367	-0.495303	0.077266
C67	C	-0.816392	-0.901116	-0.516784
C68	C	-0.316392	-0.401116	-0.016784
C69	C	-0.910606	-0.887846	-0.530094
C70	C	-0.410606	-0.387846	-0.030094
C71	C	-0.199283	-1.035467	-0.382738
C72	C	0.300717	-0.535467	0.117262
C73	C	-0.099006	-1.049667	-0.368607
C74	C	0.400994	-0.549667	0.131393
C75	C	-0.434613	-1.194095	-0.415921
C76	C	0.065387	-0.694095	0.084079
C77	C	-0.434620	-1.275892	-0.415931
C78	C	0.065380	-0.775892	0.084069
C79	C	-0.492374	-0.532793	-0.471037
C80	C	0.007626	-0.032793	0.028963
C81	C	-0.492377	-0.455934	-0.471046
C82	C	0.007623	0.044066	0.028954
C83	C	-0.376836	-0.472244	-0.360776
C84	C	0.123164	0.027756	0.139224
C85	C	-0.376830	-0.549103	-0.360771
C86	C	0.123170	-0.049103	0.139229
C87	C	-0.434603	-0.579374	-0.415900
C88	C	0.065397	-0.079374	0.084100
C89	C	-0.434613	-0.425657	-0.415916
C90	C	0.065387	0.074343	0.084084
C91	C	-0.434616	-0.342323	-0.415926
C92	C	0.065384	0.157677	0.084074
C93	C	-0.434600	-0.662714	-0.415891
C94	C	0.065400	-0.162714	0.084109
C95	C	-0.376756	-1.057485	-0.869699
C96	C	0.123244	-0.557485	-0.369699
C97	C	-0.376730	-1.057497	-0.946554
C98	C	0.123270	-0.557497	-0.446554
C99	C	-0.492120	-0.947028	-0.962793
C100	C	0.007880	-0.447028	-0.462793
C101	C	-0.492141	-0.947013	-0.885938
C102	C	0.007859	-0.447013	-0.385938
C103	C	-0.434461	-1.002245	-0.839394
C104	C	0.065539	-0.502245	-0.339394
C105	C	-0.434413	-1.002273	-0.993103
C106	C	0.065587	-0.502273	-0.493103
C107	C	-0.434385	-1.002286	-1.076433
C108	C	0.065615	-0.502286	-0.576433
C109	C	-0.434487	-1.002232	-0.756058
C110	C	0.065513	-0.502232	-0.256058
C111	C	-0.434594	-1.002142	-0.224691
C112	C	0.065406	-0.502142	0.275309
C113	C	-0.434366	-1.002298	-0.142860
C114	C	0.065634	-0.502298	0.357140
H115	H	-0.778011	-1.039047	-0.379024
H116	H	-0.278011	-0.539047	0.120976
O117	O	-0.956283	-0.835566	-0.582187
O118	O	-0.456283	-0.335566	-0.082187
C119	C	-0.933369	-0.765453	-0.562792
C120	C	-0.433369	-0.265453	-0.062792
H121	H	-0.864983	-0.773573	-0.524843
H122	H	-0.364983	-0.273573	-0.024843
H123	H	-0.930142	-0.732880	-0.615420
H124	H	-0.430142	-0.232880	-0.115420
H125	H	-0.986453	-0.733210	-0.532430
H126	H	-0.486453	-0.233210	-0.032430
H127	H	-0.329780	-0.587032	-0.315871
H128	H	0.170220	-0.087032	0.184129
O129	O	-0.770604	-0.861928	-0.556079
O130	O	-0.270604	-0.361928	-0.056079
C131	C	-0.716009	-0.911493	-0.595926
C132	C	-0.216009	-0.411493	-0.095926
H133	H	-0.744344	-0.965459	-0.604527
H134	H	-0.244344	-0.465459	-0.104527
H135	H	-0.714920	-0.884997	-0.652384
H136	H	-0.214920	-0.384997	-0.152384
H137	H	-0.644618	-0.924101	-0.563092
H138	H	-0.144618	-0.424101	-0.063092
H139	H	-0.833853	-1.087021	-0.331149
H140	H	-0.333853	-0.587021	0.168851
H141	H	-0.539418	-0.418010	-0.515945
H142	H	-0.039418	0.081990	-0.015945
H143	H	-0.919310	-1.160411	-0.257910
H144	H	-0.419310	-0.660411	0.242090
O145	O	-0.320804	-0.442710	-0.307261
O146	O	0.179196	0.057290	0.192739
C147	C	-0.333180	-0.364887	-0.319098
C148	C	0.166820	0.135113	0.180902
H149	H	-0.402843	-0.344541	-0.352928
H150	H	0.097157	0.155459	0.147072
H151	H	-0.326973	-0.336532	-0.263110
H152	H	0.173027	0.163468	0.236890
H153	H	-0.279732	-0.350656	-0.350828
H154	H	0.220268	0.149344	0.149172
O155	O	-0.320637	-1.111167	-0.824586
O156	O	0.179363	-0.611167	-0.324586
C157	C	-0.269715	-1.159935	-0.867821
C158	C	0.230285	-0.659935	-0.367821
H159	H	-0.266578	-1.130243	-0.922160
H160	H	0.233422	-0.630243	-0.422160
H161	H	-0.198639	-1.177843	-0.835604
H162	H	0.301361	-0.677843	-0.335604
H163	H	-0.302750	-1.211152	-0.880661
H164	H	0.197250	-0.711152	-0.380661
H165	H	-1.090248	-1.136324	-0.282060
H166	H	-0.590248	-0.636324	0.217940
O167	O	-0.320578	-1.111066	-0.976009
O168	O	0.179422	-0.611066	-0.476009
C169	C	-0.262304	-1.077424	-1.012257
C170	C	0.237696	-0.577424	-0.512257
H171	H	-0.256741	-1.020246	-0.988300
H172	H	0.243259	-0.520246	-0.488300
H173	H	-0.192875	-1.113869	-1.003347
H174	H	0.307125	-0.613869	-0.503347
H175	H	-0.290175	-1.070952	-1.074435
H176	H	0.209825	-0.570952	-0.574435
O177	O	-0.548124	-0.893454	-1.008118
O178	O	-0.048124	-0.393454	-0.508118
C179	C	-0.535718	-0.905301	-1.082449
C180	C	-0.035718	-0.405301	-0.582449
H181	H	-0.506172	-0.966280	-1.088794
H182	H	-0.006172	-0.466280	-0.588794
H183	H	-0.603287	-0.890747	-1.121176
H184	H	-0.103287	-0.390747	-0.621176
H185	H	-0.487667	-0.868456	-1.097482
H186	H	0.012333	-0.368456	-0.597482
O187	O	-1.190554	-0.942728	-0.475588
O188	O	-0.690554	-0.442728	0.024412
C189	C	-1.221935	-1.008826	-0.499004
C190	C	-0.721935	-0.508826	0.000996
H191	H	-1.167599	-1.058873	-0.478797
H192	H	-0.667599	-0.558873	0.021203
H193	H	-1.284979	-1.013051	-0.474724
H194	H	-0.784979	-0.513051	0.025276
H195	H	-1.238603	-1.008003	-0.562422
H196	H	-0.738603	-0.508003	-0.062422
H197	H	-1.090288	-0.871270	-0.546732
H198	H	-0.590288	-0.371270	-0.046732
O199	O	-0.548361	-0.562300	-0.524610
O200	O	-0.048361	-0.062300	-0.024610
C201	C	-0.497062	-0.614021	-0.564985
C202	C	0.002938	-0.114021	-0.064985
H203	H	-0.428654	-0.635206	-0.529470
H204	H	0.071346	-0.135206	-0.029470
H205	H	-0.533820	-0.662870	-0.579981
H206	H	-0.033820	-0.162870	-0.079981
H207	H	-0.487232	-0.585813	-0.618150
H208	H	0.012768	-0.085813	-0.118150
H209	H	-0.539131	-0.902025	-0.861264
H210	H	-0.039131	-0.402025	-0.361264
