data_functionalizedCrystal
_audit_creation_method	'MofGen! by Chris Wilmer'
_symmetry_space_group_name_H-M	'P1'
_symmetry_Int_Tables_number	1
_symmetry_cell_setting	triclinic
loop_
_symmetry_equiv_pos_as_xyz
  x,y,z
_cell_length_a	25.639242
_cell_length_b	25.639239
_cell_length_c	18.215399
_cell_angle_alpha	89.967555
_cell_angle_beta	89.982369
_cell_angle_gamma	90.030990
loop_
_atom_site_label
_atom_site_type_symbol
_atom_site_fract_x
_atom_site_fract_y
_atom_site_fract_z
Zn1	Zn	0.799242	-0.208251	-0.416121
Zn2	Zn	1.299242	0.291749	0.083879
Zn3	Zn	0.799160	-0.295691	-0.293050
Zn4	Zn	1.299160	0.204309	0.206950
Zn5	Zn	0.711813	-0.208259	-0.293067
Zn6	Zn	1.211813	0.291741	0.206933
Zn7	Zn	0.711763	-0.295646	-0.416073
Zn8	Zn	1.211763	0.204354	0.083927
O9	O	0.755495	-0.251962	-0.354578
O10	O	1.255495	0.248038	0.145422
O11	O	0.872396	-0.219866	-0.399808
O12	O	1.372396	0.280134	0.100192
O13	O	0.787560	-0.284115	-0.190068
O14	O	1.287560	0.215885	0.309932
O15	O	0.723466	-0.135093	-0.309417
O16	O	1.223466	0.364907	0.190583
O17	O	0.872336	-0.284107	-0.309389
O18	O	1.372336	0.215893	0.190611
O19	O	0.787699	-0.135087	-0.399824
O20	O	1.287699	0.364913	0.100176
O21	O	0.723387	-0.219880	-0.190080
O22	O	1.223387	0.280120	0.309920
O23	O	0.638641	-0.219836	-0.309371
O24	O	1.138641	0.280164	0.190629
O25	O	0.723381	-0.284030	-0.519064
O26	O	1.223381	0.215970	-0.019064
O27	O	0.638605	-0.284038	-0.399743
O28	O	1.138605	0.215962	0.100257
O29	O	0.787651	-0.219822	-0.519099
O30	O	1.287651	0.280178	-0.019099
O31	O	0.787512	-0.368850	-0.309343
O32	O	1.287512	0.131150	0.190657
O33	O	0.723302	-0.368817	-0.399727
O34	O	1.223302	0.131183	0.100273
C35	C	0.619652	-0.251933	-0.354554
C36	C	1.119652	0.248067	0.145446
C37	C	0.561538	-0.251934	-0.354561
C38	C	1.061538	0.248066	0.145439
C39	C	0.310384	-0.218571	-0.401745
C40	C	0.810384	0.281429	0.098255
C41	C	0.364988	-0.218565	-0.401741
C42	C	0.864988	0.281435	0.098259
O43	O	0.393258	-0.190176	-0.441853
O44	O	0.893258	0.309824	0.058147
N45	N	0.392264	-0.251956	-0.354586
N46	N	0.892264	0.248044	0.145414
C47	C	0.364933	-0.285357	-0.307438
C48	C	0.864933	0.214643	0.192562
O49	O	0.393147	-0.313758	-0.267329
O50	O	0.893147	0.186242	0.232671
C51	C	0.310330	-0.285364	-0.307446
C52	C	0.810330	0.214636	0.192554
C53	C	0.283057	-0.251968	-0.354599
C54	C	0.783057	0.248032	0.145401
C55	C	0.283111	-0.185177	-0.448894
C56	C	0.783111	0.314823	0.051106
C57	C	0.228510	-0.185182	-0.448897
C58	C	0.728510	0.314818	0.051103
C59	C	0.201183	-0.218580	-0.401751
C60	C	0.701183	0.281420	0.098249
C61	C	0.228456	-0.251973	-0.354602
C62	C	0.728456	0.248027	0.145398
C63	C	0.283000	-0.318768	-0.260302
C64	C	0.783000	0.181232	0.239698
C65	C	0.228393	-0.318773	-0.260315
C66	C	0.728393	0.181227	0.239685
C67	C	0.201119	-0.285377	-0.307468
C68	C	0.701119	0.214623	0.192532
C69	C	0.146528	-0.285375	-0.307459
C70	C	0.646528	0.214625	0.192541
N71	N	0.119252	-0.251985	-0.354613
N72	N	0.619252	0.248015	0.145387
C73	C	0.146580	-0.218587	-0.401760
C74	C	0.646580	0.281413	0.098240
C75	C	0.479604	-0.285340	-0.307425
C76	C	0.979604	0.214660	0.192575
C77	C	0.534206	-0.285330	-0.307412
C78	C	1.034206	0.214670	0.192588
C79	C	0.534257	-0.218539	-0.401716
C80	C	1.034257	0.281461	0.098284
C81	C	0.479654	-0.218546	-0.401725
C82	C	0.979654	0.281454	0.098275
C83	C	0.452328	-0.251949	-0.354579
C84	C	0.952328	0.248051	0.145421
C85	C	0.031914	-0.218599	-0.401762
C86	C	0.531914	0.281401	0.098238
C87	C	-0.022691	-0.218605	-0.401759
C88	C	0.477309	0.281395	0.098241
C89	C	-0.022738	-0.285398	-0.307458
C90	C	0.477262	0.214602	0.192542
C91	C	0.031863	-0.285390	-0.307458
C92	C	0.531863	0.214610	0.192542
C93	C	0.059188	-0.251989	-0.354616
C94	C	0.559188	0.248011	0.145384
O95	O	0.118224	-0.313752	-0.267369
O96	O	0.618224	0.186248	0.232631
O97	O	0.118359	-0.190196	-0.441868
O98	O	0.618359	0.309804	0.058132
C99	C	0.755407	-0.387804	-0.354544
C100	C	1.255407	0.112196	0.145456
C101	C	0.755417	-0.445918	-0.354554
C102	C	1.255417	0.054082	0.145446
C103	C	0.789016	-0.806286	-0.307595
C104	C	1.289016	-0.306286	0.192405
C105	C	0.789037	-0.860890	-0.307605
C106	C	1.289037	-0.360890	0.192395
O107	O	0.817513	-0.889131	-0.267641
O108	O	1.317513	-0.389131	0.232359
N109	N	0.755587	-0.888201	-0.354627
N110	N	1.255587	-0.388201	0.145373
C111	C	0.722118	-0.860904	-0.401647
C112	C	1.222118	-0.360904	0.098353
O113	O	0.693669	-0.889148	-0.441644
O114	O	1.193669	-0.389148	0.058356
C115	C	0.722101	-0.806301	-0.401640
C116	C	1.222101	-0.306301	0.098360
C117	C	0.755549	-0.778993	-0.354610
C118	C	1.255549	-0.278993	0.145390
C119	C	0.822462	-0.778978	-0.260569
C120	C	1.322462	-0.278978	0.239431
C121	C	0.822441	-0.724378	-0.260558
C122	C	1.322441	-0.224378	0.239442
C123	C	0.788974	-0.697085	-0.307573
C124	C	1.288974	-0.197085	0.192427
C125	C	0.755528	-0.724393	-0.354599
C126	C	1.255528	-0.224393	0.145401
C127	C	0.688635	-0.779005	-0.448664
C128	C	1.188635	-0.279005	0.051336
C129	C	0.688621	-0.724398	-0.448654
C130	C	1.188621	-0.224398	0.051346
C131	C	0.722070	-0.697090	-0.401623
C132	C	1.222070	-0.197090	0.098377
C133	C	0.722040	-0.642499	-0.401604
C134	C	1.222040	-0.142499	0.098396
N135	N	0.755490	-0.615189	-0.354582
N136	N	1.255490	-0.115189	0.145418
C137	C	0.788957	-0.642482	-0.307567
C138	C	1.288957	-0.142482	0.192433
C139	C	0.722157	-0.975575	-0.401658
C140	C	1.222157	-0.475575	0.098342
C141	C	0.722172	-1.030177	-0.401662
C142	C	1.222172	-0.530177	0.098338
C143	C	0.789091	-1.030160	-0.307620
C144	C	1.289091	-0.530160	0.192380
C145	C	0.789074	-0.975556	-0.307613
C146	C	1.289074	-0.475556	0.192387
C147	C	0.755607	-0.948264	-0.354636
C148	C	1.255607	-0.448264	0.145364
C149	C	0.788910	-0.527817	-0.307548
C150	C	1.288910	-0.027817	0.192452
C151	C	0.788884	-0.473211	-0.307539
C152	C	1.288884	0.026789	0.192461
C153	C	0.721967	-0.473233	-0.401583
C154	C	1.221967	0.026767	0.098417
C155	C	0.721990	-0.527834	-0.401589
C156	C	1.221990	-0.027834	0.098411
C157	C	0.755466	-0.555124	-0.354569
C158	C	1.255466	-0.055124	0.145431
O159	O	0.693580	-0.614224	-0.441549
O160	O	1.193580	-0.114224	0.058451
O161	O	0.817406	-0.614231	-0.267583
O162	O	1.317406	-0.114231	0.232417
C163	C	0.891868	-0.251990	-0.354602
C164	C	1.391868	0.248010	0.145398
C165	C	0.949982	-0.252003	-0.354612
C166	C	1.449982	0.247997	0.145388
C167	C	0.755519	-0.251920	-0.546531
C168	C	1.255519	0.248080	-0.046531
C169	C	0.755530	-0.251902	-0.628330
C170	C	1.255530	0.248098	-0.128330
C171	C	0.755597	-0.115589	-0.354628
C172	C	1.255597	0.384411	0.145372
C173	C	0.755641	-0.057475	-0.354649
C174	C	1.255641	0.442525	0.145351
C175	C	0.722143	-0.218432	-0.816531
C176	C	1.222143	0.281568	-0.316531
C177	C	0.722152	-0.218422	-0.893390
C178	C	1.222152	0.281578	-0.393390
C179	C	0.788979	-0.285310	-0.893366
C180	C	1.288979	0.214690	-0.393366
C181	C	0.788967	-0.285323	-0.816509
C182	C	1.288967	0.214677	-0.316509
C183	C	0.755550	-0.251881	-0.778093
C184	C	1.255550	0.248119	-0.278093
C185	C	0.755571	-0.251857	-0.931809
C186	C	1.255571	0.248143	-0.431809
C187	C	0.755581	-0.251846	-1.015143
C188	C	1.255581	0.248154	-0.515143
C189	C	0.755539	-0.251893	-0.694754
C190	C	1.255539	0.248107	-0.194754
C191	C	0.755500	-0.251966	-0.163372
C192	C	1.255500	0.248034	0.336628
C193	C	0.755591	-0.251836	-0.081573
C194	C	1.255591	0.248164	0.418427
H195	H	0.457358	-0.312539	-0.269027
H196	H	0.957358	0.187461	0.230973
N197	N	0.685876	-0.443785	-0.452291
N198	N	1.185876	0.056215	0.047709
H199	H	0.693979	-0.453252	-0.504885
H200	H	1.193979	0.046748	-0.004885
H201	H	0.648540	-0.453332	-0.440758
H202	H	1.148540	0.046668	0.059242
H203	H	0.816122	-0.450979	-0.269239
H204	H	1.316122	0.049021	0.230761
N205	N	0.686120	-0.182343	-0.934843
N206	N	1.186120	0.317657	-0.434843
H207	H	0.707388	-0.158113	-0.966749
H208	H	1.207388	0.341887	-0.466749
H209	H	0.661885	-0.203619	-0.966672
H210	H	1.161885	0.296381	-0.466672
H211	H	0.694930	-1.052406	-0.439952
H212	H	1.194930	-0.552406	0.060048
H213	H	0.849679	-0.702147	-0.222264
H214	H	1.349679	-0.202147	0.277736
N215	N	0.450240	-0.182525	-0.452578
N216	N	0.950240	0.317475	0.047422
H217	H	0.475842	-0.161366	-0.482439
H218	H	0.975842	0.338634	0.017561
H219	H	0.427586	-0.203836	-0.486589
H220	H	0.927586	0.296164	0.013411
H221	H	0.816187	-0.312536	-0.924654
H222	H	1.316187	0.187464	-0.424654
N223	N	0.825191	-1.059607	-0.256917
N224	N	1.325191	-0.559607	0.243083
H225	H	0.862540	-1.050068	-0.268396
H226	H	1.362540	-0.550068	0.231604
H227	H	0.817050	-1.050130	-0.204340
H228	H	1.317050	-0.550130	0.295660
N229	N	0.061280	-0.321405	-0.256594
N230	N	0.561280	0.178595	0.243406
H231	H	0.083930	-0.345661	-0.286438
H232	H	0.583930	0.154339	0.213562
H233	H	0.083908	-0.300088	-0.222554
H234	H	0.583908	0.199912	0.277446
H235	H	0.816173	-0.312562	-0.785212
H236	H	1.316173	0.187438	-0.285212
N237	N	0.686100	-0.182363	-0.775102
N238	N	1.186100	0.317637	-0.275102
H239	H	0.648739	-0.190475	-0.788469
H240	H	1.148739	0.309525	-0.288469
H241	H	0.691204	-0.187459	-0.720592
H242	H	1.191204	0.312541	-0.220592
N243	N	0.652525	-0.694958	-0.499369
N244	N	1.152525	-0.194958	0.000631
H245	H	0.660626	-0.704428	-0.551963
H246	H	1.160626	-0.204428	-0.051963
H247	H	0.615191	-0.704513	-0.487830
H248	H	1.115191	-0.204513	0.012170
N249	N	0.686054	-0.946137	-0.452368
N250	N	1.186054	-0.446137	0.047632
H251	H	0.694151	-0.955610	-0.504962
H252	H	1.194151	-0.455610	-0.004962
H253	H	0.648721	-0.955693	-0.440822
H254	H	1.148721	-0.455693	0.059178
N255	N	-0.052107	-0.182578	-0.452610
N256	N	0.447893	0.317422	0.047390
H257	H	-0.026506	-0.161421	-0.482475
H258	H	0.473494	0.338579	0.017525
H259	H	-0.074766	-0.203888	-0.486618
H260	H	0.425234	0.296112	0.013382
N261	N	0.563742	-0.182522	-0.452573
N262	N	1.063742	0.317478	0.047427
H263	H	0.554251	-0.190693	-0.505135
H264	H	1.054251	0.309307	-0.005135
H265	H	0.554246	-0.145168	-0.441184
H266	H	1.054246	0.354832	0.058816
N267	N	0.061381	-0.182575	-0.452625
N268	N	0.561381	0.317425	0.047375
H269	H	0.035812	-0.161424	-0.482490
H270	H	0.535812	0.338576	0.017510
H271	H	0.084039	-0.158349	-0.422731
H272	H	0.584039	0.341651	0.077269
N273	N	0.563615	-0.321344	-0.256542
N274	N	1.063615	0.178656	0.243458
H275	H	0.554096	-0.358711	-0.267877
H276	H	1.054096	0.141289	0.232123
H277	H	0.602345	-0.316233	-0.263708
H278	H	1.102345	0.183767	0.236292
H279	H	0.849718	-0.801195	-0.222283
H280	H	1.349718	-0.301195	0.277717
H281	H	0.206309	-0.157990	-0.487297
H282	H	0.706309	0.342010	0.012703
H283	H	0.305355	-0.157981	-0.487290
H284	H	0.805355	0.342019	0.012710
H285	H	0.661396	-0.801229	-0.486958
H286	H	1.161396	-0.301229	0.013042
N287	N	0.312407	-0.354787	-0.209442
N288	N	0.812407	0.145213	0.290558
H289	H	0.286802	-0.375944	-0.179583
H290	H	0.786802	0.124056	0.320417
H291	H	0.335059	-0.379009	-0.239332
H292	H	0.835059	0.120991	0.260668
H293	H	-0.044997	-0.312587	-0.269069
H294	H	0.455003	0.187413	0.230931
H295	H	0.694756	-0.550069	-0.439887
H296	H	1.194756	-0.050069	0.060113
H297	H	0.206146	-0.345976	-0.221925
H298	H	0.706146	0.154024	0.278075
H299	H	0.816170	-0.550030	-0.269261
H300	H	1.316170	-0.050030	0.230739
H301	H	0.816310	-0.953326	-0.269318
H302	H	1.316310	-0.453326	0.230682
