data_functionalizedCrystal
_audit_creation_method	'MofGen! by Chris Wilmer'
_symmetry_space_group_name_H-M	'P1'
_symmetry_Int_Tables_number	1
_symmetry_cell_setting	triclinic
loop_
_symmetry_equiv_pos_as_xyz
  x,y,z
_cell_length_a	13.897449
_cell_length_b	21.295417
_cell_length_c	13.897441
_cell_angle_alpha	89.963577
_cell_angle_beta	89.976606
_cell_angle_gamma	90.031333
loop_
_atom_site_label
_atom_site_type_symbol
_atom_site_fract_x
_atom_site_fract_y
_atom_site_fract_z
Zn1	Zn	1.474617	-0.250575	-0.545411
Zn2	Zn	1.474475	-0.355854	-0.384096
Zn3	Zn	1.313306	-0.250604	-0.384121
Zn4	Zn	1.313252	-0.355812	-0.545341
O5	O	1.393912	-0.303211	-0.464742
O6	O	1.609580	-0.264546	-0.524030
O7	O	1.453059	-0.341922	-0.249117
O8	O	1.334786	-0.162511	-0.405557
O9	O	1.609475	-0.341894	-0.405513
O10	O	1.453301	-0.162490	-0.524055
O11	O	1.334649	-0.264596	-0.249136
O12	O	1.178317	-0.264555	-0.405489
O13	O	1.334694	-0.341822	-0.680332
O14	O	1.178277	-0.341851	-0.523936
O15	O	1.453248	-0.264505	-0.680383
O16	O	1.453006	-0.443938	-0.405445
O17	O	1.334556	-0.443907	-0.523911
C18	C	1.143298	-0.303202	-0.464708
C19	C	1.036084	-0.303213	-0.464717
C20	C	1.393786	-0.466763	-0.464689
C21	C	1.393820	-0.536731	-0.464698
C22	C	0.949014	-0.303215	-0.464733
C23	C	0.839782	-0.303219	-0.464762
C24	C	1.455552	-0.569593	-0.403076
C25	C	1.455597	-0.635336	-0.403098
C26	C	1.393893	-0.668214	-0.464731
C27	C	1.332157	-0.635344	-0.526365
C28	C	1.332120	-0.569603	-0.526349
N29	N	1.309512	-0.771480	-0.472074
N30	N	1.309550	-0.833931	-0.472084
C31	C	1.394001	-0.866288	-0.464787
N32	N	1.478416	-0.833835	-0.457460
N33	N	1.478377	-0.771378	-0.457445
C34	C	1.393926	-0.739499	-0.464757
C35	C	1.455787	-0.970436	-0.403185
C36	C	1.455834	-1.036179	-0.403213
C37	C	1.332386	-1.036187	-0.526476
C38	C	1.332347	-0.970444	-0.526453
C39	C	1.394047	-0.937573	-0.464802
C40	C	1.645505	-0.303222	-0.464776
C41	C	1.752719	-0.303226	-0.464791
C42	C	1.393981	-0.303156	-0.716335
C43	C	1.394010	-0.303132	-0.823549
C44	C	1.394065	-0.139021	-0.464817
C45	C	1.394131	-0.069053	-0.464849
C46	C	1.394036	-0.303090	-1.019845
C47	C	1.394018	-0.303115	-0.910612
C48	C	1.393900	-0.303221	-0.214128
C49	C	1.394057	-0.303068	-0.106914
H50	H	1.505793	-0.542831	-0.352879
H51	H	1.505870	-0.662097	-0.352918
Cl52	Cl	1.533350	-0.929109	-0.325682
Cl53	Cl	1.533454	-1.077492	-0.325745
H54	H	1.282149	-1.062955	-0.576664
Cl55	Cl	1.254507	-0.528288	-0.603822
H56	H	1.281919	-0.662117	-0.576550
H57	H	1.282075	-0.943686	-0.576627
