data_functionalizedCrystal
_audit_creation_method	'MofGen! by Chris Wilmer'
_symmetry_space_group_name_H-M	'P1'
_symmetry_Int_Tables_number	1
_symmetry_cell_setting	triclinic
loop_
_symmetry_equiv_pos_as_xyz
  x,y,z
_cell_length_a	13.339070
_cell_length_b	13.930277
_cell_length_c	14.853576
_cell_angle_alpha	89.996507
_cell_angle_beta	80.366111
_cell_angle_gamma	90.007456
loop_
_atom_site_label
_atom_site_type_symbol
_atom_site_fract_x
_atom_site_fract_y
_atom_site_fract_z
O1	O	1.342938	0.079857	-0.452127
O2	O	1.048325	0.079852	-0.392783
O3	O	1.203497	0.079851	-0.293185
O4	O	1.187767	0.079858	-0.551726
O5	O	1.203475	-0.079811	-0.293176
O6	O	1.048304	-0.079809	-0.392775
O7	O	1.342916	-0.079805	-0.452119
Zn8	Zn	1.195607	-0.105157	-0.422446
Zn9	Zn	1.195635	0.105204	-0.422457
O10	O	1.187745	-0.079804	-0.551718
C11	C	1.010611	0.000021	-0.382754
C12	C	0.898266	0.000019	-0.352874
N13	N	1.195595	-0.248723	-0.422439
C14	C	0.533808	0.000041	-0.585208
C15	C	0.639361	0.000046	-0.613285
C16	C	0.704092	0.000039	-0.548185
C17	C	0.663260	0.000028	-0.455003
C18	C	0.557697	0.000031	-0.426923
C19	C	0.727981	0.000028	-0.389899
C20	C	0.687149	0.000017	-0.296717
C21	C	0.581596	0.000019	-0.268642
C22	C	0.516865	0.000026	-0.333743
C23	C	0.833545	0.000025	-0.417979
C24	C	0.857434	0.000015	-0.259694
C25	C	0.751881	0.000010	-0.231617
C26	C	1.126923	-0.700992	-0.466534
C27	C	1.264375	-0.700962	-0.378379
C28	C	1.264363	-0.600467	-0.378373
C29	C	1.195631	-0.550229	-0.422450
C30	C	1.126910	-0.600487	-0.466532
C31	C	1.333089	-0.550201	-0.334300
C32	C	1.333081	-0.449699	-0.334293
C33	C	1.264343	-0.399460	-0.378364
C34	C	1.195619	-0.449724	-0.422447
C35	C	1.126886	-0.399486	-0.466524
C36	C	1.058157	-0.449748	-0.510602
C37	C	1.058172	-0.550247	-0.510603
C38	C	1.264327	-0.298961	-0.378363
C39	C	1.126874	-0.298981	-0.466522
C40	C	1.380631	0.000029	-0.462148
C41	C	1.492976	0.000037	-0.492028
N42	N	1.195655	0.248770	-0.422458
C43	C	1.202771	0.000021	-0.259414
C44	C	1.200631	0.000024	-0.158798
C45	C	1.188470	0.000028	-0.585488
C46	C	1.190611	0.000032	-0.686105
C47	C	1.199635	0.087060	-0.111536
C48	C	1.199624	-0.087009	-0.111517
C49	C	1.197618	-0.087009	-0.016983
C50	C	1.196622	0.000027	0.030278
C51	C	1.197632	0.087063	-0.016994
C52	C	1.196618	-0.174044	0.030295
C53	C	1.194613	-0.174048	0.124834
C54	C	1.193610	-0.087010	0.172098
C55	C	1.194619	0.000029	0.124820
C56	C	1.193624	0.087065	0.172081
C57	C	1.194626	0.174106	0.124806
C58	C	1.196630	0.174100	0.030269
C59	C	1.191606	-0.087004	0.266634
C60	C	1.191621	0.087068	0.266623
H61	H	0.866779	0.000030	-0.493849
H62	H	1.200442	-0.157870	-0.150004
O63	O	0.991378	-0.599180	-0.553288
C64	C	0.928879	-0.657320	-0.489339
H65	H	0.969086	-0.672364	-0.428869
H66	H	0.854071	-0.618616	-0.464466
C67	C	0.857964	-0.734314	-0.609038
C68	C	0.907352	-0.752797	-0.534771
H69	H	0.844681	-0.793207	-0.637062
H70	H	0.900068	-0.695142	-0.652122
H71	H	0.795630	-0.702058	-0.588300
H72	H	0.969690	-0.785041	-0.555511
H73	H	0.865257	-0.791977	-0.491691
H74	H	1.070900	-0.258083	-0.502410
H75	H	0.430913	0.000022	-0.310887
O76	O	1.330983	-0.250168	-0.335412
C77	C	1.314453	-0.274741	-0.242014
H78	H	1.233444	-0.302398	-0.221249
H79	H	1.370526	-0.333054	-0.229589
C80	C	1.429579	-0.151484	-0.210332
C81	C	1.330079	-0.185445	-0.184825
H82	H	1.439222	-0.096404	-0.175055
H83	H	1.440719	-0.134930	-0.273257
H84	H	1.476295	-0.200086	-0.199977
H85	H	1.283365	-0.136848	-0.195192
H86	H	1.318932	-0.201989	-0.121901
O87	O	0.920158	0.000048	-0.196328
C88	C	0.861486	0.000024	-0.108063
H89	H	0.782744	0.030256	-0.111248
H90	H	0.853919	-0.076574	-0.080739
C91	C	1.010698	0.025502	-0.040344
C92	C	0.913988	0.062640	-0.044255
H93	H	1.043084	0.064123	-0.000982
H94	H	1.050228	0.025515	-0.099809
H95	H	1.004378	-0.038330	-0.017576
H96	H	0.920309	0.126466	-0.067033
H97	H	0.874460	0.062640	0.015208
H98	H	1.002198	-0.408833	-0.546494
H99	H	1.070961	-0.741918	-0.502419
O100	O	1.190470	0.171589	0.312599
C101	C	1.101751	0.176771	0.379003
H102	H	1.041144	0.127374	0.358695
H103	H	1.120035	0.153387	0.448004
C104	C	1.136447	0.341417	0.410705
C105	C	1.062006	0.280753	0.385758
H106	H	1.111933	0.405558	0.414876
H107	H	1.196221	0.337926	0.365970
H108	H	1.151678	0.321919	0.468204
H109	H	1.046786	0.300245	0.328256
H110	H	1.002228	0.284250	0.430484
H111	H	1.197436	-0.244904	-0.008193
O112	O	1.197511	0.258574	-0.015755
C113	C	1.111105	0.263805	-0.058748
H114	H	1.082170	0.188244	-0.068981
H115	H	1.049023	0.306793	-0.014156
C116	C	1.175212	0.406325	-0.139555
C117	C	1.139677	0.313519	-0.152131
H118	H	1.192833	0.436994	-0.197156
H119	H	1.233423	0.402803	-0.110587
H120	H	1.123470	0.442136	-0.102392
H121	H	1.191423	0.277706	-0.189283
H122	H	1.081474	0.317036	-0.181107
O123	O	1.331042	-0.749908	-0.335577
C124	C	1.316338	-0.849389	-0.345056
H125	H	1.235934	-0.863132	-0.358599
H126	H	1.373682	-0.877887	-0.404648
C127	C	1.430178	-0.884116	-0.239982
C128	C	1.331422	-0.900996	-0.256608
H129	H	1.439487	-0.915951	-0.185425
H130	H	1.440089	-0.817094	-0.233598
H131	H	1.477954	-0.907864	-0.289648
H132	H	1.283649	-0.877237	-0.206948
H133	H	1.321504	-0.968015	-0.262981
O134	O	1.193590	-0.258680	0.170620
C135	C	1.194926	-0.335498	0.108629
H136	H	1.164349	-0.309985	0.045512
H137	H	1.276259	-0.362256	0.087742
C138	C	1.165374	-0.449066	0.231909
C139	C	1.127812	-0.417732	0.154391
H140	H	1.123980	-0.499793	0.260137
H141	H	1.164478	-0.397313	0.273674
H142	H	1.233152	-0.471357	0.214492
H143	H	1.060040	-0.395430	0.171810
H144	H	1.128695	-0.469483	0.112630
H145	H	0.790038	0.000045	-0.571051
H146	H	1.200447	0.157927	-0.150032
O147	O	1.399706	-0.599051	-0.291363
C148	C	1.345427	-0.657213	-0.222159
H149	H	1.265624	-0.626930	-0.200632
H150	H	1.340154	-0.733376	-0.249060
C151	C	1.499076	-0.695964	-0.165746
C152	C	1.401063	-0.658765	-0.139300
H153	H	1.533396	-0.696926	-0.114635
H154	H	1.535646	-0.656783	-0.212371
H155	H	1.494668	-0.759430	-0.188164
H156	H	1.405473	-0.595297	-0.116894
H157	H	1.364495	-0.697937	-0.092669
H158	H	0.481095	0.000055	-0.638203
O159	O	1.399873	-0.401028	-0.291394
C160	C	1.460558	-0.466921	-0.252513
H161	H	1.419079	-0.538573	-0.241103
H162	H	1.535774	-0.477583	-0.300639
C163	C	1.532215	-0.339703	-0.174460
C164	C	1.481267	-0.427705	-0.160439
H165	H	1.544995	-0.315511	-0.117666
H166	H	1.491334	-0.295308	-0.200657
H167	H	1.594890	-0.348599	-0.214568
H168	H	1.418589	-0.418804	-0.120341
H169	H	1.522138	-0.472097	-0.134233
H170	H	1.190794	-0.157872	0.305121
H171	H	0.548355	0.000021	-0.192767
H172	H	0.672598	0.000062	-0.689154
H173	H	0.718620	0.000009	-0.155746
H174	H	1.193821	0.244971	0.163297
