data_functionalizedCrystal
_audit_creation_method	'MofGen! by Chris Wilmer'
_symmetry_space_group_name_H-M	'P1'
_symmetry_Int_Tables_number	1
_symmetry_cell_setting	triclinic
loop_
_symmetry_equiv_pos_as_xyz
  x,y,z
_cell_length_a	11.169417
_cell_length_b	18.215405
_cell_length_c	11.169409
_cell_angle_alpha	89.960202
_cell_angle_beta	89.980487
_cell_angle_gamma	90.026135
loop_
_atom_site_label
_atom_site_type_symbol
_atom_site_fract_x
_atom_site_fract_y
_atom_site_fract_z
Zn1	Zn	1.834841	-0.292900	-0.678471
Zn2	Zn	1.834679	-0.415991	-0.477761
Zn3	Zn	1.634127	-0.292946	-0.477806
Zn4	Zn	1.634083	-0.415932	-0.678407
O5	O	1.734433	-0.354442	-0.578111
O6	O	2.002769	-0.309234	-0.651854
O7	O	1.808026	-0.399713	-0.309817
O8	O	1.660838	-0.189955	-0.504470
O9	O	2.002651	-0.399669	-0.504394
O10	O	1.808302	-0.189922	-0.651897
O11	O	1.660681	-0.309312	-0.309850
O12	O	1.466171	-0.309255	-0.504408
O13	O	1.660764	-0.399568	-0.846365
O14	O	1.466140	-0.399612	-0.651789
O15	O	1.808260	-0.309177	-0.846412
O16	O	1.807984	-0.518968	-0.504332
O17	O	1.660607	-0.518924	-0.651746
C18	C	1.422608	-0.354432	-0.578098
C19	C	1.289208	-0.354446	-0.578120
C20	C	1.734306	-0.545649	-0.578054
C21	C	1.734362	-0.627448	-0.578069
C22	C	1.811281	-0.815640	-0.501452
C23	C	1.811335	-0.892498	-0.501481
C24	C	1.657738	-0.892493	-0.654857
C25	C	1.657691	-0.815636	-0.654833
C26	C	1.734461	-0.777211	-0.578124
C27	C	1.734561	-0.930927	-0.578177
C28	C	1.734619	-1.014261	-0.578209
C29	C	1.734405	-0.693872	-0.578093
C30	C	2.047475	-0.354453	-0.578126
C31	C	2.180875	-0.354457	-0.578132
C32	C	1.734525	-0.354361	-0.891154
C33	C	1.734564	-0.354326	-1.024554
C34	C	1.734593	-0.162489	-0.578195
C35	C	1.734661	-0.080690	-0.578231
C36	C	1.734410	-0.354471	-0.266287
C37	C	1.734603	-0.354298	-0.132887
H38	H	1.873793	-0.784356	-0.438992
H39	H	1.595135	-0.784345	-0.717274
O40	O	1.885993	-0.929714	-0.426886
C41	C	2.038381	-0.921603	-0.274802
C42	C	1.953866	-0.879366	-0.359202
H43	H	2.093297	-0.880915	-0.220076
H44	H	1.983395	-0.957630	-0.211930
H45	H	2.101081	-0.957541	-0.329990
H46	H	1.891150	-0.843387	-0.304111
H47	H	2.008927	-0.843385	-0.422077
H48	H	1.595233	-0.923788	-0.717309
