data_functionalizedCrystal
_audit_creation_method	'MofGen! by Chris Wilmer'
_symmetry_space_group_name_H-M	'P1'
_symmetry_Int_Tables_number	1
_symmetry_cell_setting	triclinic
loop_
_symmetry_equiv_pos_as_xyz
  x,y,z
_cell_length_a	10.654541
_cell_length_b	10.654562
_cell_length_c	9.130313
_cell_angle_alpha	90.003070
_cell_angle_beta	89.998951
_cell_angle_gamma	95.512984
loop_
_atom_site_label
_atom_site_type_symbol
_atom_site_fract_x
_atom_site_fract_y
_atom_site_fract_z
O1	O	0.176469	-1.667823	-0.121895
O2	O	0.193259	-1.302347	-0.121877
O3	O	0.002125	-1.493490	-0.121877
O4	O	0.367603	-1.476680	-0.121894
O5	O	0.002130	-1.493487	0.121721
O6	O	0.193264	-1.302344	0.121722
O7	O	0.176474	-1.667821	0.121704
Cu8	Cu	0.184870	-1.485082	0.143955
Cu9	Cu	0.184864	-1.485085	-0.144128
O10	O	0.367608	-1.476678	0.121704
C11	C	0.192025	-1.255548	-0.000075
C12	C	0.188327	-1.116105	-0.000068
C13	C	-0.044671	-1.492255	-0.000079
C14	C	-0.184114	-1.488564	-0.000081
C15	C	0.177708	-1.714620	-0.000101
C16	C	0.181406	-1.854062	-0.000118
C17	C	-0.212075	-1.717127	-0.000074
C18	C	-0.291564	-1.829670	-0.000067
C19	C	-0.422582	-1.826194	-0.000072
C20	C	-0.474113	-1.710164	-0.000087
C21	C	-0.394623	-1.597621	-0.000094
C22	C	-0.263604	-1.601109	-0.000085
C23	C	-0.366663	-1.369061	-0.000111
C24	C	-0.235645	-1.372534	-0.000097
C25	C	-0.418194	-1.253031	-0.000127
C26	C	-0.338704	-1.140485	-0.000123
C27	C	-0.207679	-1.143966	-0.000117
C28	C	-0.156156	-1.259991	-0.000103
C29	C	0.414404	-1.477913	-0.000097
C30	C	0.553848	-1.481603	-0.000105
N31	N	0.184873	-1.485090	0.346578
C32	C	0.186605	-1.050573	0.132706
C33	C	0.183140	-0.919551	0.132682
C34	C	0.183125	-0.919604	-0.132903
C35	C	0.186581	-1.050625	-0.132877
C36	C	0.188351	-1.116054	0.265515
C37	C	0.186630	-1.050522	0.398301
C38	C	0.183165	-0.919500	0.398276
C39	C	0.181421	-0.854010	0.265467
N40	N	0.184850	-1.485088	-0.346751
C41	C	0.100268	-1.569750	0.423230
C42	C	0.100253	-1.569746	0.576567
C43	C	0.269459	-1.400419	0.576586
C44	C	0.269467	-1.400417	0.423252
C45	C	0.015674	-1.654422	0.346555
C46	C	-0.068937	-1.739090	0.423207
C47	C	-0.068952	-1.739086	0.576544
C48	C	0.015644	-1.654415	0.653229
H49	H	-0.105394	-1.719969	-0.000051
F50	F	0.188474	-1.120224	0.539637
F51	F	0.181325	-0.849760	0.539595
H52	H	-0.137819	-1.808020	0.360762
H53	H	0.338359	-1.331478	0.360842
H54	H	-0.049475	-1.262836	-0.000089
H55	H	-0.380672	-1.046022	-0.000145
H56	H	0.178597	-0.747323	0.265458
H57	H	0.181708	-0.866271	-0.241030
H58	H	0.187989	-1.103981	-0.240993
F59	F	0.015688	-1.654436	0.183361
F60	F	-0.613555	-1.706471	-0.000172
H61	H	-0.249593	-1.924140	-0.000042
H62	H	-0.487303	-1.917836	-0.000078
H63	H	-0.137853	-1.808018	0.638952
H64	H	0.191176	-1.222738	0.265550
H65	H	-0.524877	-1.250209	-0.000139
F66	F	0.015611	-1.654408	0.816426
F67	F	-0.123089	-1.024179	-0.000134
H68	H	0.338335	-1.331484	0.639033
