data_functionalizedCrystal
_audit_creation_method	'MofGen! by Chris Wilmer'
_symmetry_space_group_name_H-M	'P1'
_symmetry_Int_Tables_number	1
_symmetry_cell_setting	triclinic
loop_
_symmetry_equiv_pos_as_xyz
  x,y,z
_cell_length_a	13.033291
_cell_length_b	12.759400
_cell_length_c	13.032268
_cell_angle_alpha	97.151488
_cell_angle_beta	89.079236
_cell_angle_gamma	97.183336
loop_
_atom_site_label
_atom_site_type_symbol
_atom_site_fract_x
_atom_site_fract_y
_atom_site_fract_z
Zn1	Zn	1.498486	-0.326861	-0.781498
Zn2	Zn	1.520239	-0.477842	-0.609533
Zn3	Zn	1.348346	-0.321313	-0.587673
Zn4	Zn	1.326493	-0.521639	-0.759575
O5	O	1.423391	-0.411914	-0.684570
O6	O	1.645289	-0.330881	-0.777009
O7	O	1.515686	-0.436427	-0.462724
O8	O	1.368303	-0.175026	-0.613411
O9	O	1.661271	-0.441806	-0.650667
O10	O	1.478611	-0.179102	-0.755813
O11	O	1.389397	-0.321426	-0.446664
O12	O	1.201529	-0.363894	-0.592154
O13	O	1.331059	-0.516452	-0.906393
O14	O	1.185474	-0.511073	-0.718449
O15	O	1.457421	-0.373350	-0.922499
O16	O	1.494497	-0.630674	-0.629410
O17	O	1.352153	-0.662852	-0.739645
C18	C	1.156185	-0.441635	-0.650551
C19	C	1.041871	-0.454379	-0.636022
C20	C	0.864837	-0.418452	-0.677145
C21	C	0.982987	-0.405283	-0.692161
C22	C	1.423339	-0.684885	-0.684547
C23	C	1.423407	-0.801657	-0.684583
C24	C	1.480804	-0.858573	-0.758782
C25	C	1.480849	-0.968296	-0.758813
C26	C	1.366097	-0.964175	-0.610438
C27	C	1.366047	-0.854456	-0.610412
C28	C	1.538163	-0.805774	-0.832953
C29	C	1.595566	-0.862691	-0.907156
C30	C	1.595611	-0.972413	-0.907188
C31	C	1.538253	-1.025219	-0.833015
C32	C	1.691640	-0.382077	-0.718722
C33	C	1.805952	-0.369362	-0.733276
C34	C	1.389376	-0.450405	-0.952804
C35	C	1.374881	-0.466808	-1.067109
C36	C	1.423468	-0.137877	-0.684619
C37	C	1.423501	-0.021099	-0.684640
C38	C	1.430940	-0.403317	-1.126039
C39	C	1.415960	-0.420268	-1.244180
C40	C	1.457333	-0.373489	-0.417387
C41	C	1.472027	-0.356768	-0.303108
H42	H	0.843008	-0.317581	-0.792443
C43	C	1.658654	-0.804602	-0.988744
N44	N	1.706174	-0.760851	-1.050196
C45	C	0.991821	-0.524334	-0.556077
N46	N	0.954123	-0.577025	-0.495865
C47	C	1.510760	-0.312923	-1.076044
N48	N	1.570882	-0.244837	-1.038389
H49	H	1.356865	-0.487174	-1.281185
H50	H	1.531110	-0.289851	-1.266102
H51	H	0.827781	-0.470223	-0.617969
C52	C	1.033039	-0.335328	-0.772104
N53	N	1.070740	-0.282640	-0.832318
C54	C	1.658755	-1.035017	-0.988811
N55	N	1.706325	-1.082167	-1.050288
H56	H	1.538280	-1.114566	-0.833057
C57	C	1.303060	-1.022255	-0.528813
N58	N	1.255600	-1.065995	-0.467316
H59	H	1.319308	-0.808115	-0.549994
C60	C	1.538115	-0.685079	-0.832928
N61	N	1.538078	-0.594171	-0.832909
C62	C	1.295054	-0.557196	-1.117103
N63	N	1.234927	-0.625278	-1.154757
