data_functionalizedCrystal
_audit_creation_method	'MofGen! by Chris Wilmer'
_symmetry_space_group_name_H-M	'P1'
_symmetry_Int_Tables_number	1
_symmetry_cell_setting	triclinic
loop_
_symmetry_equiv_pos_as_xyz
  x,y,z
_cell_length_a	13.897449
_cell_length_b	12.645330
_cell_length_c	13.897441
_cell_angle_alpha	89.970564
_cell_angle_beta	89.979267
_cell_angle_gamma	90.013926
loop_
_atom_site_label
_atom_site_type_symbol
_atom_site_fract_x
_atom_site_fract_y
_atom_site_fract_z
Zn1	Zn	1.474736	-0.421969	-0.545389
Zn2	Zn	1.808070	-0.088636	-0.212056
Zn3	Zn	2.141403	0.244697	0.121278
Zn4	Zn	1.474645	-0.599265	-0.384094
Zn5	Zn	1.807978	-0.265931	-0.050760
Zn6	Zn	2.141311	0.067402	0.282573
Zn7	Zn	1.313426	-0.422020	-0.384107
Zn8	Zn	1.646759	-0.088686	-0.050774
Zn9	Zn	1.980092	0.244647	0.282559
Zn10	Zn	1.313421	-0.599195	-0.545346
Zn11	Zn	1.646755	-0.265862	-0.212013
Zn12	Zn	1.980088	0.067472	0.121320
O13	O	1.394057	-0.510612	-0.464734
O14	O	1.727390	-0.177279	-0.131401
O15	O	2.060724	0.156054	0.201933
O16	O	1.609706	-0.445496	-0.524005
O17	O	1.943039	-0.112163	-0.190672
O18	O	2.276373	0.221171	0.142662
O19	O	1.453222	-0.575803	-0.249114
O20	O	1.786555	-0.242470	0.084220
O21	O	2.119889	0.090864	0.417553
O22	O	1.334864	-0.273666	-0.405525
O23	O	1.668197	0.059667	-0.072192
O24	O	2.001531	0.393001	0.261141
O25	O	1.609638	-0.575754	-0.405502
O26	O	1.942972	-0.242421	-0.072169
O27	O	2.276305	0.090912	0.261165
O28	O	1.453378	-0.273629	-0.524018
O29	O	1.786712	0.059705	-0.190685
O30	O	2.120045	0.393038	0.142648
O31	O	1.334775	-0.445582	-0.249124
O32	O	1.668108	-0.112249	0.084210
O33	O	2.001442	0.221085	0.417543
O34	O	1.178443	-0.445514	-0.405484
O35	O	1.511777	-0.112181	-0.072151
O36	O	1.845110	0.221152	0.261183
O37	O	1.334857	-0.575635	-0.680334
O38	O	1.668190	-0.242302	-0.347000
O39	O	2.001524	0.091031	-0.013667
O40	O	1.178440	-0.575684	-0.523945
O41	O	1.511774	-0.242351	-0.190612
O42	O	1.845107	0.090982	0.142721
O43	O	1.453374	-0.445428	-0.680365
O44	O	1.786708	-0.112095	-0.347032
O45	O	2.120041	0.221238	-0.013698
O46	O	1.453218	-0.747603	-0.405461
O47	O	1.786551	-0.414269	-0.072127
O48	O	2.119885	-0.080936	0.261206
O49	O	1.334768	-0.747552	-0.523932
O50	O	1.668101	-0.414218	-0.190599
O51	O	2.001435	-0.080885	0.142735
C52	C	1.143443	-0.510598	-0.464712
C53	C	1.476776	-0.177265	-0.131379
C54	C	1.810109	0.156069	0.201955
C55	C	1.036229	-0.510618	-0.464726
C56	C	1.369562	-0.177284	-0.131392
C57	C	1.702895	0.156049	0.201941
C58	C	1.394009	-0.786042	-0.464711
C59	C	1.727342	-0.452709	-0.131378
C60	C	2.060675	-0.119375	0.201955
C61	C	1.394076	-0.903872	-0.464734
C62	C	1.727410	-0.570539	-0.131400
C63	C	2.060743	-0.237205	0.201933
C64	C	0.839934	-0.510621	-0.464751
C65	C	1.173267	-0.177288	-0.131417
C66	C	1.506600	0.156045	0.201916
C67	C	0.949166	-0.510616	-0.464734
C68	C	1.282499	-0.177283	-0.131401
C69	C	1.615833	0.156051	0.201933
C70	C	1.468474	-1.071424	-0.390052
C71	C	1.801807	-0.738091	-0.056719
C72	C	2.135140	-0.404757	0.276615
C73	C	1.468716	-0.948864	-0.390235
C74	C	1.802049	-0.615530	-0.056902
C75	C	2.135383	-0.282197	0.276432
C76	C	1.421645	-0.948249	-0.566410
C77	C	1.754979	-0.614915	-0.233077
C78	C	2.088312	-0.281582	0.100257
C79	C	1.422236	-1.070847	-0.566014
C80	C	1.755569	-0.737513	-0.232680
C81	C	2.088902	-0.404180	0.100653
C82	C	1.292081	-1.071203	-0.438741
C83	C	1.625414	-0.737870	-0.105408
C84	C	1.958747	-0.404537	0.227925
C85	C	1.292570	-0.948599	-0.436461
C86	C	1.625903	-0.615265	-0.103128
C87	C	1.959236	-0.281932	0.230206
C88	C	1.645650	-0.510627	-0.464757
C89	C	1.978983	-0.177294	-0.131423
C90	C	2.312317	0.156039	0.201910
C91	C	1.752864	-0.510634	-0.464766
C92	C	2.086197	-0.177300	-0.131433
C93	C	2.419531	0.156033	0.201900
C94	C	1.394125	-0.510519	-0.716327
C95	C	1.727459	-0.177185	-0.382994
C96	C	2.060792	0.156148	-0.049661
C97	C	1.394155	-0.510479	-0.823541
C98	C	1.727488	-0.177145	-0.490208
C99	C	2.060821	0.156188	-0.156875
C100	C	1.394132	-0.234107	-0.464778
C101	C	1.727465	0.099226	-0.131445
C102	C	2.060798	0.432560	0.201889
C103	C	1.394164	-0.116277	-0.464797
C104	C	1.727497	0.217056	-0.131464
C105	C	2.060830	0.550390	0.201870
C106	C	1.394181	-0.510407	-1.019836
C107	C	1.727514	-0.177074	-0.686503
C108	C	2.060847	0.156260	-0.353170
C109	C	1.394163	-0.510450	-0.910604
C110	C	1.727497	-0.177116	-0.577271
C111	C	2.060830	0.156217	-0.243937
C112	C	1.394044	-0.510629	-0.214120
C113	C	1.727378	-0.177296	0.119214
C114	C	2.060711	0.156038	0.452547
C115	C	1.394202	-0.510370	-0.106906
C116	C	1.727535	-0.177037	0.226427
C117	C	2.060869	0.156296	0.559760
H118	H	1.451467	-0.918865	-0.314843
H119	H	1.784800	-0.585531	0.018490
H120	H	2.118133	-0.252198	0.351823
H121	H	1.234216	-0.917984	-0.486910
H122	H	1.567549	-0.584650	-0.153576
H123	H	1.900883	-0.251317	0.179757
H124	H	1.370483	-1.100513	-0.623623
H125	H	1.703816	-0.767179	-0.290290
H126	H	2.037149	-0.433846	0.043044
H127	H	1.544325	-0.919453	-0.407469
H128	H	1.877658	-0.586120	-0.074135
H129	H	2.210992	-0.252786	0.259198
F130	F	1.519766	-1.108114	-0.594860
F131	F	1.853099	-0.774781	-0.261527
F132	F	2.186433	-0.441448	0.071807
F133	F	1.265393	-0.910699	-0.338661
F134	F	1.598727	-0.577365	-0.005328
F135	F	1.932060	-0.244032	0.328005
H136	H	1.369169	-0.919102	-0.623593
H137	H	1.702503	-0.585768	-0.290259
H138	H	2.035836	-0.252435	0.043074
F139	F	1.219711	-1.109118	-0.509895
F140	F	1.553044	-0.775785	-0.176562
F141	F	1.886378	-0.442452	0.156772
H142	H	1.451440	-1.100981	-0.314440
H143	H	1.784773	-0.767647	0.018893
H144	H	2.118107	-0.434314	0.352227
F145	F	1.518075	-0.908006	-0.595742
F146	F	1.851408	-0.574673	-0.262408
F147	F	2.184742	-0.241339	0.070925
H148	H	1.267011	-1.102216	-0.365890
H149	H	1.600344	-0.768883	-0.032557
H150	H	1.933677	-0.435550	0.300776
F151	F	1.566772	-1.111582	-0.412325
F152	F	1.900105	-0.778249	-0.078991
F153	F	2.233439	-0.444916	0.254342
