data_functionalizedCrystal
_audit_creation_method	'MofGen! by Chris Wilmer'
_symmetry_space_group_name_H-M	'P1'
_symmetry_Int_Tables_number	1
_symmetry_cell_setting	triclinic
loop_
_symmetry_equiv_pos_as_xyz
  x,y,z
_cell_length_a	14.519731
_cell_length_b	12.996460
_cell_length_c	16.109304
_cell_angle_alpha	90.003335
_cell_angle_beta	83.575745
_cell_angle_gamma	90.005673
loop_
_atom_site_label
_atom_site_type_symbol
_atom_site_fract_x
_atom_site_fract_y
_atom_site_fract_z
O1	O	1.223626	0.085562	0.109071
O2	O	1.723626	0.585562	0.609071
O3	O	0.955124	0.085563	0.121887
O4	O	1.455124	0.585563	0.621887
O5	O	1.096749	0.085563	-0.005538
O6	O	1.596749	0.585563	0.494462
O7	O	1.082000	0.085562	0.236497
O8	O	1.582000	0.585562	0.736497
O9	O	1.096735	-0.085570	-0.005545
O10	O	1.596735	0.414430	0.494455
O11	O	0.955109	-0.085571	0.121880
O12	O	1.455109	0.414429	0.621880
O13	O	1.223611	-0.085571	0.109064
O14	O	1.723611	0.414429	0.609064
Cu15	Cu	1.089359	-0.101197	0.115471
Cu16	Cu	1.589359	0.398803	0.615471
Cu17	Cu	1.089376	0.101189	0.115480
Cu18	Cu	1.589376	0.601189	0.615480
O19	O	1.081986	-0.085572	0.236490
O20	O	1.581986	0.414428	0.736490
C21	C	0.920759	-0.000003	0.121283
C22	C	1.420759	0.499997	0.621283
C23	C	0.818382	-0.000003	0.119484
C24	C	1.318382	0.499997	0.619484
N25	N	1.089353	-0.243544	0.115465
N26	N	1.589353	0.256456	0.615465
C27	C	0.735241	0.000001	0.118022
C28	C	1.235241	0.500001	0.618022
C29	C	0.630936	0.000002	0.116194
C30	C	1.130936	0.500002	0.616194
C31	C	0.547800	0.000002	0.114744
C32	C	1.047800	0.500002	0.614744
C33	C	0.443489	0.000004	0.112918
C34	C	0.943489	0.500004	0.612918
C35	C	1.089375	-0.663358	0.115481
C36	C	1.589375	-0.163358	0.615481
C37	C	1.089366	-0.546553	0.115479
C38	C	1.589366	-0.046553	0.615479
C39	C	1.089365	-0.453455	0.115474
C40	C	1.589365	0.046545	0.615474
C41	C	1.089355	-0.336642	0.115471
C42	C	1.589355	0.163358	0.615471
C43	C	1.257976	-0.000002	0.109668
C44	C	1.757976	0.499998	0.609668
C45	C	1.360353	0.000004	0.111468
C46	C	1.860353	0.500004	0.611468
C47	C	1.096144	-0.000001	-0.036518
C48	C	1.596144	0.499999	0.463482
C49	C	1.094352	0.000006	-0.128816
C50	C	1.594352	0.500006	0.371184
N51	N	1.089389	0.243536	0.115480
N52	N	1.589389	0.743536	0.615480
C53	C	1.090218	0.093287	-0.341157
C54	C	1.590218	0.593287	0.158843
C55	C	1.088525	0.093286	-0.427880
C56	C	1.588525	0.593286	0.072120
C57	C	1.088514	-0.093293	-0.427885
C58	C	1.588514	0.406707	0.072115
C59	C	1.090200	-0.093291	-0.341163
C60	C	1.590200	0.406709	0.158837
C61	C	1.091057	0.000002	-0.297802
C62	C	1.591057	0.500002	0.202198
C63	C	1.087678	-0.000001	-0.471247
C64	C	1.587678	0.499999	0.028753
C65	C	1.085843	-0.000003	-0.565276
C66	C	1.585843	0.499997	-0.065276
C67	C	1.092891	0.000004	-0.203766
C68	C	1.592891	0.500004	0.296234
C69	C	1.082591	-0.000005	0.267469
C70	C	1.582591	0.499995	0.767469
C71	C	1.084383	-0.000005	0.359768
C72	C	1.584383	0.499995	0.859768
H73	H	1.090913	0.169252	-0.305855
H74	H	1.590913	0.669252	0.194145
C75	C	1.087578	-0.195910	-0.475582
C76	C	1.587578	0.304090	0.024418
H77	H	1.088310	-0.251467	-0.437337
H78	H	1.588310	0.248533	0.062663
H79	H	1.140666	-0.199790	-0.515670
H80	H	1.640666	0.300210	-0.015670
H81	H	1.033166	-0.199789	-0.503153
H82	H	1.533166	0.300211	-0.003153
C83	C	1.091118	-0.195907	-0.293464
C84	C	1.591118	0.304093	0.206536
H85	H	1.092233	-0.182542	-0.235604
H86	H	1.592233	0.317458	0.264396
H87	H	1.144584	-0.234244	-0.313929
H88	H	1.644584	0.265756	0.186071
H89	H	1.037084	-0.234234	-0.301420
H90	H	1.537084	0.265766	0.198580
H91	H	1.087841	0.169248	-0.463176
H92	H	1.587841	0.669248	0.036824
