data_functionalizedCrystal
_audit_creation_method	'MofGen! by Chris Wilmer'
_symmetry_space_group_name_H-M	'P1'
_symmetry_Int_Tables_number	1
_symmetry_cell_setting	triclinic
loop_
_symmetry_equiv_pos_as_xyz
  x,y,z
_cell_length_a	19.077105
_cell_length_b	25.639239
_cell_length_c	19.076919
_cell_angle_alpha	87.731593
_cell_angle_beta	89.923776
_cell_angle_gamma	87.734929
loop_
_atom_site_label
_atom_site_type_symbol
_atom_site_fract_x
_atom_site_fract_y
_atom_site_fract_z
Zn1	Zn	1.058187	-0.252939	0.440398
Zn2	Zn	1.558187	0.247061	0.940398
Zn3	Zn	1.062799	-0.337004	0.322884
Zn4	Zn	1.562799	0.162996	0.822884
Zn5	Zn	0.945407	-0.245935	0.318192
Zn6	Zn	1.445407	0.254065	0.818192
Zn7	Zn	0.940620	-0.336689	0.435637
Zn8	Zn	1.440620	0.163311	0.935637
O9	O	1.001753	-0.293142	0.379278
O10	O	1.501753	0.206858	0.879278
O11	O	1.157129	-0.267153	0.428766
O12	O	1.657129	0.232847	0.928766
O13	O	1.051160	-0.322124	0.223931
O14	O	1.551160	0.177876	0.723931
O15	O	0.960440	-0.173702	0.334431
O16	O	1.460440	0.326298	0.834431
O17	O	1.160518	-0.328916	0.342429
O18	O	1.660518	0.171084	0.842429
O19	O	1.043299	-0.178848	0.424215
O20	O	1.543299	0.321152	0.924215
O21	O	0.964912	-0.255216	0.220483
O22	O	1.464912	0.244784	0.720483
O23	O	0.846441	-0.254910	0.329815
O24	O	1.346441	0.245090	0.829815
O25	O	0.952283	-0.328378	0.534600
O26	O	1.452283	0.171622	1.034600
O27	O	0.842925	-0.321587	0.416101
O28	O	1.342925	0.178413	0.916101
O29	O	1.038658	-0.266848	0.538097
O30	O	1.538658	0.233152	1.038097
O31	O	1.046519	-0.410124	0.337813
O32	O	1.546519	0.089876	0.837813
O33	O	0.956755	-0.409893	0.420652
O34	O	1.456755	0.090107	0.920652
C35	C	0.819187	-0.287455	0.371933
C36	C	1.319187	0.212545	0.871933
C37	C	0.741083	-0.285035	0.368807
C38	C	1.241083	0.214965	0.868807
C39	C	1.001636	-0.428980	0.379241
C40	C	1.501636	0.071020	0.879241
C41	C	1.001650	-0.487094	0.379251
C42	C	1.501650	0.012906	0.879251
C43	C	0.702581	-0.318661	0.412193
C44	C	1.202581	0.181339	0.912193
C45	C	0.629194	-0.316381	0.409259
C46	C	1.129194	0.183619	0.909259
C47	C	0.594312	-0.280476	0.362936
C48	C	1.094312	0.219524	0.862936
C49	C	0.632820	-0.246846	0.319549
C50	C	1.132820	0.253154	0.819549
C51	C	0.706205	-0.249125	0.322486
C52	C	1.206205	0.250875	0.822486
C53	C	0.375028	-0.269932	0.349344
C54	C	0.875028	0.230068	0.849344
C55	C	0.301638	-0.267658	0.346409
C56	C	0.801638	0.232342	0.846409
C57	C	0.298017	-0.337192	0.436121
C58	C	0.798017	0.162808	0.936121
C59	C	0.371404	-0.339469	0.439051
C60	C	0.871404	0.160531	0.939051
C61	C	0.409905	-0.305837	0.395666
C62	C	0.909905	0.194163	0.895666
N63	N	0.519299	-0.278146	0.359935
N64	N	1.019299	0.221854	0.859935
N65	N	0.484917	-0.308166	0.398671
N66	N	0.984917	0.191834	0.898671
C67	C	1.048607	-0.847575	0.336225
C68	C	1.548607	-0.347575	0.836225
C69	C	1.048634	-0.902180	0.336235
C70	C	1.548634	-0.402180	0.836235
O71	O	1.088438	-0.930513	0.299613
O72	O	1.588438	-0.430513	0.799613
N73	N	1.001875	-0.929386	0.379329
N74	N	1.501875	-0.429386	0.879329
C75	C	0.955090	-0.901983	0.422421
C76	C	1.455090	-0.401983	0.922421
O77	O	0.915321	-0.930137	0.459077
O78	O	1.415321	-0.430137	0.959077
C79	C	0.955067	-0.847379	0.422413
C80	C	1.455067	-0.347379	0.922413
C81	C	1.001825	-0.820176	0.379311
C82	C	1.501825	-0.320176	0.879311
C83	C	1.095362	-0.820372	0.293127
C84	C	1.595362	-0.320372	0.793127
C85	C	1.095334	-0.765771	0.293116
C86	C	1.595334	-0.265771	0.793116
C87	C	1.048551	-0.738372	0.336202
C88	C	1.548551	-0.238372	0.836202
C89	C	1.001797	-0.765574	0.379300
C90	C	1.501797	-0.265574	0.879300
C91	C	0.908287	-0.819977	0.465508
C92	C	1.408287	-0.319977	0.965508
C93	C	0.908268	-0.765369	0.465497
C94	C	1.408268	-0.265369	0.965497
C95	C	0.955026	-0.738167	0.422395
C96	C	1.455026	-0.238167	0.922395
C97	C	0.954987	-0.683574	0.422375
C98	C	1.454987	-0.183574	0.922375
N99	N	1.001746	-0.656368	0.379282
N100	N	1.501746	-0.156368	0.879282
C101	C	1.048528	-0.683767	0.336195
C102	C	1.548528	-0.183767	0.836195
C103	C	0.955143	-1.016656	0.422434
C104	C	1.455143	-0.516656	0.922434
C105	C	0.955162	-1.071259	0.422438
C106	C	1.455162	-0.571259	0.922438
C107	C	1.048707	-1.071452	0.336253
C108	C	1.548707	-0.571452	0.836253
C109	C	1.048684	-1.016848	0.336246
C110	C	1.548684	-0.516848	0.836246
C111	C	1.001902	-0.989450	0.379340
C112	C	1.501902	-0.489450	0.879340
C113	C	1.048466	-0.569100	0.336174
C114	C	1.548466	-0.069100	0.836174
C115	C	1.048432	-0.514493	0.336164
C116	C	1.548432	-0.014493	0.836164
C117	C	0.954890	-0.514304	0.422351
C118	C	1.454890	-0.014304	0.922351
C119	C	0.954921	-0.568906	0.422359
C120	C	1.454921	-0.068906	0.922359
C121	C	1.001715	-0.596303	0.379268
C122	C	1.501715	-0.096303	0.879268
O123	O	0.915205	-0.655207	0.458982
O124	O	1.415205	-0.155207	0.958982
O125	O	1.088298	-0.655607	0.299552
O126	O	1.588298	-0.155607	0.799552
C127	C	1.185032	-0.298851	0.386652
C128	C	1.685032	0.201149	0.886652
C129	C	1.263135	-0.301284	0.389794
C130	C	1.763135	0.198716	0.889794
C131	C	0.994422	-0.298359	0.562557
C132	C	1.494422	0.201641	1.062557
C133	C	0.991298	-0.300582	0.640660
C134	C	1.491298	0.199418	1.140660
C135	C	1.001889	-0.156774	0.379331
C136	C	1.501889	0.343226	0.879331
C137	C	1.001947	-0.098662	0.379354
C138	C	1.501947	0.401338	0.879354
C139	C	1.009096	-0.287908	0.196713
C140	C	1.509096	0.212092	0.696713
C141	C	1.012356	-0.285541	0.118616
C142	C	1.512356	0.214459	0.618616
C143	C	1.034799	-0.269593	0.679175
C144	C	1.534799	0.230407	1.179175
C145	C	1.031855	-0.271680	0.752561
C146	C	1.531855	0.228320	1.252561
C147	C	0.985413	-0.304759	0.787430
C148	C	1.485413	0.195241	1.287430
C149	C	0.941907	-0.335750	0.748910
C150	C	1.441907	0.164250	1.248910
C151	C	0.944848	-0.333660	0.675526
C152	C	1.444848	0.166340	1.175526
C153	C	0.971792	-0.314442	1.006711
C154	C	1.471792	0.185558	1.506711
C155	C	0.968856	-0.316531	1.080100
C156	C	1.468856	0.183469	1.580100
C157	C	1.058803	-0.252460	1.083746
C158	C	1.558803	0.247540	1.583746
C159	C	1.061742	-0.250375	1.010361
C160	C	1.561742	0.249625	1.510361
C161	C	1.018234	-0.281364	0.971846
C162	C	1.518234	0.218636	1.471846
N163	N	0.982404	-0.306894	0.862442
N164	N	1.482404	0.193106	1.362442
N165	N	1.021240	-0.279226	0.896836
N166	N	1.521240	0.220774	1.396836
H167	H	0.730976	-0.347900	0.449912
H168	H	1.230976	0.152100	0.949912
H169	H	0.904091	-0.362682	0.777306
H170	H	1.404091	0.137318	1.277306
H171	H	0.909418	-0.358890	0.644167
H172	H	1.409418	0.141110	1.144167
O173	O	0.909516	-0.487604	0.464185
O174	O	1.409516	0.012396	0.964185
C175	C	0.868008	-0.403389	0.502333
C176	C	1.368008	0.096611	1.002333
C177	C	0.919437	-0.433564	0.454929
C178	C	1.419437	0.066436	0.954929
H179	H	0.876001	-0.359691	0.494855
H180	H	1.376001	0.140309	0.994855
H181	H	0.878045	-0.416055	0.559515
H182	H	1.378045	0.083945	1.059515
H183	H	0.811862	-0.412086	0.487685
H184	H	1.311862	0.087914	0.987685
H185	H	0.975602	-0.424882	0.469514
H186	H	1.475602	0.075118	0.969514
H187	H	0.909339	-0.420894	0.397759
H188	H	1.409339	0.079106	0.897759
O189	O	0.412391	-0.237315	0.307097
O190	O	0.912391	0.262685	0.807097
C191	C	0.439574	-0.209063	0.188532
C192	C	0.939574	0.290937	0.688532
C193	C	0.397231	-0.246042	0.236297
C194	C	0.897231	0.253958	0.736297
H195	H	0.427321	-0.216098	0.131280
H196	H	0.927321	0.283902	0.631280
H197	H	0.498029	-0.216851	0.198523
H198	H	0.998029	0.283149	0.698523
H199	H	0.424683	-0.166832	0.200438
H200	H	0.924683	0.333168	0.700438
H201	H	0.412062	-0.288286	0.224418
H202	H	0.912062	0.211714	0.724418
H203	H	0.338787	-0.238209	0.226297
H204	H	0.838787	0.261791	0.726297
O205	O	1.106809	-0.218264	0.976380
O206	O	1.606809	0.281736	1.476380
C207	C	1.151108	-0.186578	0.864940
C208	C	1.651108	0.313422	1.364940
C209	C	1.100065	-0.222987	0.903335
C210	C	1.600065	0.277013	1.403335
H211	H	1.145663	-0.190377	0.805877
H212	H	1.645663	0.309623	1.305877
H213	H	1.207213	-0.197908	0.881576
H214	H	1.707213	0.302092	1.381576
H215	H	1.138202	-0.144464	0.878949
H216	H	1.638202	0.355536	1.378949
H217	H	1.112908	-0.265113	0.889345
H218	H	1.612908	0.234887	1.389345
H219	H	1.043976	-0.211614	0.886696
H220	H	1.543976	0.288386	1.386696
H221	H	0.604413	-0.217610	0.281834
H222	H	1.104413	0.282390	0.781834
O223	O	0.743503	-0.216441	0.280266
O224	O	1.243503	0.283559	0.780266
C225	C	0.739353	-0.147215	0.190999
C226	C	1.239353	0.352785	0.690999
C227	C	0.697029	-0.184209	0.238761
C228	C	1.197029	0.315791	0.738761
H229	H	0.701796	-0.121139	0.157440
H230	H	1.201796	0.378861	0.657440
H231	H	0.775136	-0.171170	0.155526
H232	H	1.275136	0.328830	0.655526
H233	H	0.772466	-0.121925	0.224713
H234	H	1.272466	0.378075	0.724713
H235	H	0.663876	-0.209508	0.205102
H236	H	1.163876	0.290492	0.705102
H237	H	0.661290	-0.160224	0.274238
H238	H	1.161290	0.339776	0.774238
H239	H	0.597848	-0.343764	0.444588
H240	H	1.097848	0.156236	0.944588
O241	O	0.909833	-1.097741	0.464341
O242	O	1.409833	-0.597741	0.964341
C243	C	0.896534	-1.161743	0.558870
C244	C	1.396534	-0.661743	1.058870
C245	C	0.947943	-1.131800	0.511445
C246	C	1.447943	-0.631800	1.011445
H247	H	0.927326	-1.189278	0.596975
H248	H	1.427326	-0.689278	1.096975
H249	H	0.861128	-1.185321	0.525151
H250	H	1.361128	-0.685321	1.025151
H251	H	0.863082	-1.132763	0.589627
H252	H	1.363082	-0.632763	1.089627
H253	H	0.981442	-1.160743	0.480680
H254	H	1.481442	-0.660743	0.980680
H255	H	0.983301	-1.108213	0.545203
H256	H	1.483301	-0.608213	1.045203
O257	O	1.093923	-0.488151	0.294274
O258	O	1.593923	0.011849	0.794274
C259	C	1.186679	-0.494115	0.208761
C260	C	1.686679	0.005885	0.708761
C261	C	1.135211	-0.524010	0.256175
C262	C	1.635211	-0.024010	0.756175
H263	H	1.220064	-0.523092	0.177934
H264	H	1.720064	-0.023092	0.677934
H265	H	1.222140	-0.470588	0.242490
H266	H	1.722140	0.029412	0.742490
H267	H	1.155895	-0.466524	0.170718
H268	H	1.655895	0.033476	0.670718
H269	H	1.165938	-0.551627	0.294225
H270	H	1.665938	-0.051627	0.794225
H271	H	1.099750	-0.547503	0.222402
H272	H	1.599750	-0.047503	0.722402
H273	H	0.399800	-0.368707	0.476771
H274	H	0.899800	0.131293	0.976771
O275	O	1.100988	-0.222373	1.121265
O276	O	1.600988	0.277627	1.621265
C277	C	1.136351	-0.197215	1.235934
C278	C	1.636351	0.302785	1.735934
C279	C	1.088525	-0.231310	1.193531
C280	C	1.588525	0.268690	1.693531
H281	H	1.126302	-0.204436	1.294370
H282	H	1.626302	0.295564	1.794370
H283	H	1.124626	-0.154253	1.221076
H284	H	1.624626	0.345747	1.721076
H285	H	1.193574	-0.207741	1.223743
H286	H	1.693574	0.292259	1.723743
H287	H	1.031286	-0.220829	1.205701
H288	H	1.531286	0.279171	1.705701
H289	H	1.100311	-0.274263	1.208396
H290	H	1.600311	0.225737	1.708396
O291	O	1.093999	-0.595732	0.294423
O292	O	1.593999	-0.095732	0.794423
C293	C	1.189281	-0.659995	0.288875
C294	C	1.689281	-0.159995	0.788875
C295	C	1.137765	-0.629865	0.336239
C296	C	1.637765	-0.129865	0.836239
H297	H	1.224669	-0.687606	0.322662
H298	H	1.724669	-0.187606	0.822662
H299	H	1.222738	-0.631186	0.258095
H300	H	1.722738	-0.131186	0.758095
H301	H	1.158535	-0.683525	0.250791
H302	H	1.658535	-0.183525	0.750791
H303	H	1.168454	-0.606333	0.374363
H304	H	1.668454	-0.106333	0.874363
H305	H	1.104308	-0.658701	0.366970
H306	H	1.604308	-0.158701	0.866970
O307	O	0.923676	-0.348677	1.113862
O308	O	1.423676	0.151323	1.613862
C309	C	0.834798	-0.412028	1.102508
C310	C	1.334798	0.087972	1.602508
C311	C	0.885914	-0.375638	1.064183
C312	C	1.385914	0.124362	1.564183
H313	H	0.804264	-0.433844	1.062359
H314	H	1.304264	0.066156	1.562359
H315	H	0.796662	-0.387880	1.135376
H316	H	1.296662	0.112120	1.635376
H317	H	0.865668	-0.441328	1.138170
H318	H	1.365668	0.058672	1.638170
H319	H	0.855102	-0.346331	1.028485
H320	H	1.355102	0.153669	1.528485
H321	H	0.924050	-0.399820	1.031359
H322	H	1.424050	0.100180	1.531359
H323	H	1.067280	-0.246446	0.783917
H324	H	1.567280	0.253554	1.283917
O325	O	0.260509	-0.369803	0.478239
O326	O	0.760509	0.130197	0.978239
C327	C	0.145852	-0.397132	0.513450
C328	C	0.645852	0.102868	1.013450
C329	C	0.188242	-0.360161	0.465718
C330	C	0.688242	0.139839	0.965718
H331	H	0.087417	-0.389357	0.503333
H332	H	0.587417	0.110643	1.003333
H333	H	0.157981	-0.390074	0.570723
H334	H	0.657981	0.109926	1.070723
H335	H	0.160783	-0.439365	0.501595
H336	H	0.660783	0.060635	1.001595
H337	H	0.173335	-0.317914	0.477511
H338	H	0.673335	0.182086	0.977511
H339	H	0.176109	-0.367264	0.408460
H340	H	0.676109	0.132736	0.908460
H341	H	0.936374	-0.339684	0.975362
H342	H	1.436374	0.160316	1.475362
O343	O	1.140829	-0.739432	0.251234
O344	O	1.640829	-0.239432	0.751234
C345	C	1.233595	-0.745407	0.165732
C346	C	1.733595	-0.245407	0.665732
C347	C	1.182114	-0.775295	0.213139
C348	C	1.682114	-0.275295	0.713139
H349	H	1.266978	-0.774388	0.134910
H350	H	1.766978	-0.274388	0.634910
H351	H	1.269058	-0.721885	0.199467
H352	H	1.769058	-0.221885	0.699467
H353	H	1.202822	-0.717812	0.127686
H354	H	1.702822	-0.217812	0.627686
H355	H	1.212830	-0.802917	0.251193
H356	H	1.712830	-0.302917	0.751193
H357	H	1.146651	-0.798783	0.179361
H358	H	1.646651	-0.298783	0.679361
H359	H	0.273239	-0.238414	0.308691
H360	H	0.773239	0.261586	0.808691
O361	O	0.909475	-0.595254	0.464290
O362	O	1.409475	-0.095254	0.964290
C363	C	0.816666	-0.589291	0.549748
C364	C	1.316666	-0.089291	1.049748
C365	C	0.868101	-0.559393	0.502299
C366	C	1.368101	-0.059393	1.002299
H367	H	0.783193	-0.560309	0.580480
H368	H	1.283193	-0.060309	1.080480
H369	H	0.847408	-0.616850	0.587866
H370	H	1.347408	-0.116850	1.087866
H371	H	0.781286	-0.612853	0.515981
H372	H	1.281286	-0.112853	1.015981
H373	H	0.903494	-0.535801	0.536009
H374	H	1.403494	-0.035801	1.036009
H375	H	0.837316	-0.531866	0.464177
H376	H	1.337316	-0.031866	0.964177
H377	H	1.133461	-0.842675	0.258040
H378	H	1.633461	-0.342675	0.758040
O379	O	1.079817	-0.237426	0.645227
O380	O	1.579817	0.262574	1.145227
C381	C	1.092653	-0.164749	0.562822
C382	C	1.592653	0.335251	1.062822
C383	C	1.041595	-0.201153	0.601206
C384	C	1.541595	0.298847	1.101206
H385	H	1.061769	-0.135406	0.527234
H386	H	1.561769	0.364594	1.027234
H387	H	1.130741	-0.188885	0.529888
H388	H	1.630741	0.311115	1.029888
H389	H	1.123250	-0.142983	0.602974
H390	H	1.623250	0.357017	1.102974
H391	H	1.010950	-0.222927	0.561103
H392	H	1.510950	0.277073	1.061103
H393	H	1.003552	-0.176989	0.634153
H394	H	1.503552	0.323011	1.134153
H395	H	1.086758	-0.994703	0.301149
H396	H	1.586758	-0.494703	0.801149
O397	O	1.094275	-1.098002	0.294443
O398	O	1.594275	-0.598002	0.794443
C399	C	1.215221	-1.117354	0.265315
C400	C	1.715221	-0.617354	0.765315
C401	C	1.163683	-1.087259	0.312695
C402	C	1.663683	-0.587259	0.812695
H403	H	1.271349	-1.108688	0.280065
H404	H	1.771349	-0.608688	0.780065
H405	H	1.205262	-1.104635	0.208138
H406	H	1.705262	-0.604635	0.708138
H407	H	1.207200	-1.161055	0.272696
H408	H	1.707200	-0.661055	0.772696
H409	H	1.171674	-1.043553	0.305375
H410	H	1.671674	-0.543553	0.805375
H411	H	1.173655	-1.100021	0.369855
H412	H	1.673655	-0.600021	0.869855
H413	H	0.870208	-0.842116	0.500603
H414	H	1.370208	-0.342116	1.000603
O415	O	0.909622	-0.990122	0.464311
O416	O	1.409622	-0.490122	0.964311
C417	C	0.816869	-0.995706	0.549824
C418	C	1.316869	-0.495706	1.049824
C419	C	0.868370	-1.025815	0.502419
C420	C	1.368370	-0.525815	1.002419
H421	H	0.783513	-1.024551	0.580658
H422	H	1.283513	-0.524551	1.080658
H423	H	0.781383	-0.968131	0.516086
H424	H	1.281383	-0.468131	1.016086
H425	H	0.847626	-0.972143	0.587860
H426	H	1.347626	-0.472143	1.087860
H427	H	0.837670	-1.049409	0.464376
H428	H	1.337670	-0.549409	0.964376
H429	H	0.903856	-1.053358	0.536201
H430	H	1.403856	-0.553358	1.036201
O431	O	0.862758	-0.738836	0.507382
O432	O	1.362758	-0.238836	1.007382
C433	C	0.770019	-0.744414	0.592911
C434	C	1.270019	-0.244414	1.092911
C435	C	0.821509	-0.774526	0.545500
C436	C	1.321509	-0.274526	1.045500
H437	H	0.736666	-0.773257	0.623752
H438	H	1.236666	-0.273257	1.123752
H439	H	0.734528	-0.716839	0.559177
H440	H	1.234528	-0.216839	1.059177
H441	H	0.800783	-0.720850	0.630940
H442	H	1.300783	-0.220850	1.130940
H443	H	0.790801	-0.798120	0.507463
H444	H	1.290801	-0.298120	1.007463
H445	H	0.857000	-0.802069	0.579277
H446	H	1.357000	-0.302069	1.079277
