data_functionalizedCrystal
_audit_creation_method	'MofGen! by Chris Wilmer'
_symmetry_space_group_name_H-M	'P1'
_symmetry_Int_Tables_number	1
_symmetry_cell_setting	triclinic
loop_
_symmetry_equiv_pos_as_xyz
  x,y,z
_cell_length_a	18.101398
_cell_length_b	25.639240
_cell_length_c	18.101389
_cell_angle_alpha	90.027631
_cell_angle_beta	90.009745
_cell_angle_gamma	90.028316
loop_
_atom_site_label
_atom_site_type_symbol
_atom_site_fract_x
_atom_site_fract_y
_atom_site_fract_z
Zn1	Zn	1.132112	-0.208268	0.418503
Zn2	Zn	1.632112	0.291732	0.918503
Zn3	Zn	1.132005	-0.295689	0.294642
Zn4	Zn	1.632005	0.204311	0.794642
Zn5	Zn	1.008271	-0.208263	0.294696
Zn6	Zn	1.508271	0.291737	0.794696
Zn7	Zn	1.008218	-0.295667	0.418462
Zn8	Zn	1.508218	0.204333	0.918462
O9	O	1.070152	-0.251972	0.356576
O10	O	1.570152	0.248028	0.856576
O11	O	1.235731	-0.219876	0.402067
O12	O	1.735731	0.280124	0.902067
O13	O	1.115568	-0.284099	0.191016
O14	O	1.615568	0.215901	0.691016
O15	O	1.024766	-0.135098	0.311159
O16	O	1.524766	0.364902	0.811159
O17	O	1.235652	-0.284104	0.311067
O18	O	1.735652	0.215896	0.811067
O19	O	1.115752	-0.135102	0.402120
O20	O	1.615752	0.364898	0.902120
O21	O	1.024662	-0.219867	0.191056
O22	O	1.524662	0.280133	0.691056
O23	O	0.904631	-0.219846	0.311119
O24	O	1.404631	0.280154	0.811119
O25	O	1.024676	-0.284066	0.522100
O26	O	1.524676	0.215934	1.022100
O27	O	0.904593	-0.284061	0.402049
O28	O	1.404593	0.215939	0.902049
O29	O	1.115701	-0.219854	0.522131
O30	O	1.615701	0.280146	1.022131
O31	O	1.115517	-0.368851	0.311027
O32	O	1.615517	0.131149	0.811027
O33	O	1.024572	-0.368835	0.401997
O34	O	1.524572	0.131165	0.901997
C35	C	0.877741	-0.251951	0.356586
C36	C	1.377741	0.248049	0.856586
C37	C	0.795427	-0.251955	0.356608
C38	C	1.295427	0.248045	0.856608
C39	C	0.496336	-0.251986	0.356577
C40	C	0.996336	0.248014	0.856577
C41	C	0.527662	-0.292584	0.413505
C42	C	1.027662	0.207416	0.913505
C43	C	0.613280	-0.292457	0.413739
C44	C	1.113280	0.207543	0.913739
C45	C	0.644719	-0.251971	0.356592
C46	C	1.144719	0.248029	0.856592
C47	C	0.613666	-0.196903	0.377933
C48	C	1.113666	0.303097	0.877933
C49	C	0.528021	-0.197147	0.378337
C50	C	1.028021	0.302853	0.878337
C51	C	0.527883	-0.265969	0.278171
C52	C	1.027883	0.234031	0.778171
C53	C	0.613533	-0.267178	0.278590
C54	C	1.113533	0.232822	0.778590
C55	C	0.728578	-0.251959	0.356600
C56	C	1.228578	0.248041	0.856600
C57	C	0.412477	-0.251994	0.356571
C58	C	0.912477	0.248006	0.856571
C59	C	1.070047	-0.387814	0.356518
C60	C	1.570047	0.112186	0.856518
C61	C	1.070070	-0.445928	0.356518
C62	C	1.570070	0.054072	0.856518
C63	C	1.117551	-0.806255	0.404024
C64	C	1.617551	-0.306255	0.904024
C65	C	1.117573	-0.860859	0.404039
C66	C	1.617573	-0.360859	0.904039
O67	O	1.157819	-0.889065	0.444372
O68	O	1.657819	-0.389065	0.944372
N69	N	1.070254	-0.888211	0.356647
N70	N	1.570254	-0.388211	0.856647
C71	C	1.022905	-0.860955	0.309242
C72	C	1.522905	-0.360955	0.809242
O73	O	0.982659	-0.889234	0.268933
O74	O	1.482659	-0.389234	0.768933
C75	C	1.022880	-0.806352	0.309231
C76	C	1.522880	-0.306352	0.809231
C77	C	1.070208	-0.779003	0.356621
C78	C	1.570208	-0.279003	0.856621
C79	C	1.164874	-0.778906	0.451411
C80	C	1.664874	-0.278906	0.951411
C81	C	1.164853	-0.724305	0.451395
C82	C	1.664853	-0.224305	0.951395
C83	C	1.117509	-0.697054	0.403992
C84	C	1.617509	-0.197054	0.903992
C85	C	1.070187	-0.724402	0.356605
C86	C	1.570187	-0.224402	0.856605
C87	C	0.975528	-0.779097	0.261831
C88	C	1.475528	-0.279097	0.761831
C89	C	0.975507	-0.724490	0.261824
C90	C	1.475507	-0.224490	0.761824
C91	C	1.022834	-0.697142	0.309214
C92	C	1.522834	-0.197142	0.809214
C93	C	1.022822	-0.642550	0.309186
C94	C	1.522822	-0.142550	0.809186
N95	N	1.070140	-0.615199	0.356578
N96	N	1.570140	-0.115199	0.856578
C97	C	1.117484	-0.642450	0.403981
C98	C	1.617484	-0.142450	0.903981
C99	C	1.022961	-0.975626	0.309269
C100	C	1.522961	-0.475626	0.809269
C101	C	1.022989	-1.030228	0.309276
C102	C	1.522989	-0.530228	0.809276
C103	C	1.117656	-1.030128	0.404074
C104	C	1.617656	-0.530128	0.904074
C105	C	1.117631	-0.975525	0.404063
C106	C	1.617631	-0.475525	0.904063
C107	C	1.070279	-0.948274	0.356661
C108	C	1.570279	-0.448274	0.856661
C109	C	1.117437	-0.527785	0.403943
C110	C	1.617437	-0.027785	0.903943
C111	C	1.117414	-0.473180	0.403920
C112	C	1.617414	0.026820	0.903920
C113	C	1.022744	-0.473285	0.309125
C114	C	1.522744	0.026715	0.809125
C115	C	1.022770	-0.527885	0.309145
C116	C	1.522770	-0.027885	0.809145
C117	C	1.070119	-0.555134	0.356560
C118	C	1.570119	-0.055134	0.856560
O119	O	0.982594	-0.614310	0.268876
O120	O	1.482594	-0.114310	0.768876
O121	O	1.157717	-0.614165	0.444290
O122	O	1.657717	-0.114165	0.944290
C123	C	1.263314	-0.251993	0.356566
C124	C	1.763314	0.248007	0.856566
C125	C	1.345628	-0.252002	0.356561
C126	C	1.845628	0.247998	0.856561
C127	C	1.070194	-0.251958	0.549738
C128	C	1.570194	0.248042	1.049738
C129	C	1.070213	-0.251953	0.632052
C130	C	1.570213	0.248047	1.132052
C131	C	1.070277	-0.115599	0.356650
C132	C	1.570277	0.384401	0.856650
C133	C	1.070330	-0.057485	0.356682
C134	C	1.570330	0.442515	0.856682
C135	C	1.070152	-0.251947	0.164165
C136	C	1.570152	0.248053	0.664165
C137	C	1.070277	-0.251805	0.081851
C138	C	1.570277	0.248195	0.581851
C139	C	1.070256	-0.251855	0.931143
C140	C	1.570256	0.248145	1.431143
C141	C	1.012789	-0.292127	0.899799
C142	C	1.512789	0.207873	1.399799
C143	C	1.012944	-0.292314	0.814180
C144	C	1.512944	0.207686	1.314180
C145	C	1.070234	-0.251903	0.782760
C146	C	1.570234	0.248097	1.282760
C147	C	1.148259	-0.266864	0.813843
C148	C	1.648259	0.233136	1.313843
C149	C	1.147938	-0.267128	0.899488
C150	C	1.647938	0.232872	1.399488
C151	C	1.050377	-0.196533	0.899585
C152	C	1.550377	0.303467	1.399585
C153	C	1.048641	-0.196852	0.813934
C154	C	1.548641	0.303148	1.313934
C155	C	1.070226	-0.251930	0.698901
C156	C	1.570226	0.248070	1.198901
C157	C	1.070269	-0.251829	1.015002
C158	C	1.570269	0.248171	1.515002
H159	H	0.507626	-0.236398	0.235754
H160	H	1.007626	0.263602	0.735754
H161	H	0.633783	-0.283205	0.471833
H162	H	1.133783	0.216795	0.971833
O163	O	1.163537	-1.056629	0.450207
O164	O	1.663537	-0.556629	0.950207
C165	C	1.121352	-1.088224	0.497996
C166	C	1.621352	-0.588224	0.997996
H167	H	1.063018	-1.071795	0.502519
H168	H	1.563018	-0.571795	1.002519
H169	H	1.148099	-1.088807	0.555010
H170	H	1.648099	-0.588807	1.055010
H171	H	1.118827	-1.129618	0.475102
H172	H	1.618827	-0.629618	0.975102
O173	O	0.943535	-0.281166	0.924404
O174	O	1.443535	0.218834	1.424404
C175	C	0.916070	-0.324028	0.964725
C176	C	1.416070	0.175972	1.464725
H177	H	0.946298	-0.360978	0.947049
H178	H	1.446298	0.139022	1.447049
H179	H	0.854449	-0.328663	0.953467
H180	H	1.354449	0.171337	1.453467
H181	H	0.925253	-0.317102	1.026263
H182	H	1.425253	0.182898	1.526263
H183	H	0.634934	-0.239754	0.233895
H184	H	1.134934	0.260246	0.733895
H185	H	0.507301	-0.165815	0.338775
H186	H	1.007301	0.334185	0.838775
H187	H	0.984404	-0.953441	0.270663
H188	H	1.484404	-0.453441	0.770663
O189	O	1.028411	-0.340720	0.925496
O190	O	1.528411	0.159280	1.425496
C191	C	1.091031	-0.338478	0.971723
C192	C	1.591031	0.161522	1.471723
H193	H	1.125159	-0.302494	0.957420
H194	H	1.625159	0.197506	1.457420
H195	H	1.125966	-0.374979	0.963271
H196	H	1.625966	0.125021	1.463271
H197	H	1.072606	-0.336149	1.031856
H198	H	1.572606	0.163851	1.531856
O199	O	0.929481	-0.805575	0.215775
O200	O	1.429481	-0.305575	0.715775
C201	C	0.887705	-0.769802	0.173932
C202	C	1.387705	-0.269802	0.673932
H203	H	0.885121	-0.730868	0.204260
H204	H	1.385121	-0.230868	0.704260
H205	H	0.829362	-0.785607	0.165997
H206	H	1.329362	-0.285607	0.665997
H207	H	0.914849	-0.764004	0.117703
H208	H	1.414849	-0.264004	0.617703
H209	H	0.634273	-0.333292	0.400363
H210	H	1.134273	0.166708	0.900363
H211	H	0.508061	-0.185286	0.435656
H212	H	1.008061	0.314714	0.935656
H213	H	0.936945	-0.702305	0.223225
H214	H	1.436945	-0.202305	0.723225
O215	O	0.976697	-0.554433	0.263187
O216	O	1.476697	-0.054433	0.763187
C217	C	0.902875	-0.541109	0.279298
C218	C	1.402875	-0.041109	0.779298
H219	H	0.899096	-0.526069	0.338452
H220	H	1.399096	-0.026069	0.838452
H221	H	0.866302	-0.577040	0.272906
H222	H	1.366302	-0.077040	0.772906
H223	H	0.883530	-0.509445	0.239567
H224	H	1.383530	-0.009445	0.739567
O225	O	1.028556	-0.341263	0.789819
O226	O	1.528556	0.158737	1.289819
C227	C	0.974481	-0.376251	0.816045
C228	C	1.474481	0.123749	1.316045
H229	H	0.947230	-0.359303	0.867499
H230	H	1.447230	0.140697	1.367499
H231	H	1.001588	-0.415077	0.830366
H232	H	1.501588	0.084923	1.330366
H233	H	0.930898	-0.382665	0.771480
H234	H	1.430898	0.117335	1.271480
H235	H	0.635132	-0.184827	0.434628
H236	H	1.135132	0.315173	0.934628
H237	H	0.984458	-1.052491	0.270678
H238	H	1.484458	-0.552491	0.770678
H239	H	1.192207	-0.239069	0.920223
H240	H	1.692207	0.260931	1.420223
H241	H	0.984200	-0.451088	0.270528
H242	H	1.484200	0.048912	0.770528
H243	H	1.155956	-0.450914	0.442511
H244	H	1.655956	0.049086	0.942511
O245	O	0.502070	-0.281764	0.482460
O246	O	1.002070	0.218236	0.982460
C247	C	0.530641	-0.318464	0.532908
C248	C	1.030641	0.181536	1.032908
H249	H	0.546739	-0.355530	0.502067
H250	H	1.046739	0.144470	1.002067
H251	H	0.486860	-0.328075	0.576079
H252	H	0.986860	0.171925	1.076079
H253	H	0.581424	-0.301464	0.561373
H254	H	1.081424	0.198536	1.061373
O255	O	1.168168	-0.315338	0.923350
O256	O	1.668168	0.184662	1.423350
C257	C	1.232621	-0.311297	0.966728
C258	C	1.732621	0.188703	1.466728
H259	H	1.263450	-0.274000	0.951705
H260	H	1.763450	0.226000	1.451705
H261	H	1.269680	-0.346411	0.955872
H262	H	1.769680	0.153589	1.455872
H263	H	1.216852	-0.310212	1.027681
H264	H	1.716852	0.189788	1.527681
H265	H	0.507045	-0.333553	0.400278
H266	H	1.007045	0.166447	0.900278
O267	O	1.168842	-0.314582	0.788297
O268	O	1.668842	0.185418	1.288297
C269	C	1.239020	-0.327433	0.816752
C270	C	1.739020	0.172567	1.316752
H271	H	1.269552	-0.290200	0.832729
H272	H	1.769552	0.209800	1.332729
H273	H	1.272038	-0.349270	0.772943
H274	H	1.772038	0.150730	1.272943
H275	H	1.232218	-0.353219	0.867591
H276	H	1.732218	0.146781	1.367591
H277	H	0.634032	-0.165835	0.337763
H278	H	1.134032	0.334165	0.837763
O279	O	0.502055	-0.313072	0.255158
O280	O	1.002055	0.186928	0.755158
C281	C	0.454997	-0.334111	0.309596
C282	C	0.954997	0.165889	0.809596
H283	H	0.468789	-0.316083	0.365506
H284	H	0.968789	0.183917	0.865506
H285	H	0.463041	-0.378161	0.312429
H286	H	0.963041	0.121839	0.812429
H287	H	0.395111	-0.325102	0.294874
H288	H	0.895111	0.174898	0.794874
H289	H	1.092233	-0.166528	0.919857
H290	H	1.592233	0.333472	1.419857
O291	O	0.943928	-0.281218	0.789018
O292	O	1.443928	0.218782	1.289018
C293	C	0.917802	-0.323171	0.745916
C294	C	1.417802	0.176829	1.245916
H295	H	0.966678	-0.346526	0.723964
H296	H	1.466678	0.153474	1.223964
H297	H	0.884162	-0.307430	0.697580
H298	H	1.384162	0.192570	1.197580
H299	H	0.881442	-0.349480	0.781348
H300	H	1.381442	0.150520	1.281348
H301	H	0.633835	-0.307699	0.262495
H302	H	1.133835	0.192301	0.762495
O303	O	1.200630	-0.232941	0.789471
O304	O	1.700630	0.267059	1.289471
C305	C	1.167401	-0.195057	0.743866
C306	C	1.667401	0.304943	1.243866
H307	H	1.113547	-0.211151	0.720447
H308	H	1.613547	0.288849	1.220447
H309	H	1.206407	-0.184871	0.696580
H310	H	1.706407	0.315129	1.196580
H311	H	1.155380	-0.158516	0.777691
H312	H	1.655380	0.341484	1.277691
O313	O	1.163498	-0.554169	0.450028
O314	O	1.663498	-0.054169	0.950028
C315	C	1.205240	-0.518312	0.491859
C316	C	1.705240	-0.018312	0.991859
H317	H	1.207804	-0.479406	0.461508
H318	H	1.707804	0.020594	0.961508
H319	H	1.263592	-0.534049	0.499815
H320	H	1.763592	-0.034049	0.999815
H321	H	1.178081	-0.512488	0.548078
H322	H	1.678081	-0.012488	1.048078
O323	O	0.980137	-0.183318	0.789793
O324	O	1.480137	0.316682	1.289793
C325	C	0.961341	-0.133833	0.818098
C326	C	1.461341	0.366167	1.318098
H327	H	0.994997	-0.125792	0.870111
H328	H	1.494997	0.374208	1.370111
H329	H	0.899959	-0.133002	0.832130
H330	H	1.399959	0.366998	1.332130
H331	H	0.973865	-0.102688	0.774944
H332	H	1.473865	0.397312	1.274944
O333	O	1.210847	-0.697823	0.497504
O334	O	1.710847	-0.197823	0.997504
C335	C	1.252645	-0.733594	0.539327
C336	C	1.752645	-0.233594	1.039327
H337	H	1.222320	-0.772531	0.541869
H338	H	1.722320	-0.272531	1.041869
H339	H	1.260504	-0.717793	0.597682
H340	H	1.760504	-0.217793	1.097682
H341	H	1.308908	-0.739384	0.512253
H342	H	1.808908	-0.239384	1.012253
O343	O	1.210764	-0.805396	0.497539
O344	O	1.710764	-0.305396	0.997539
C345	C	1.168602	-0.836996	0.545343
C346	C	1.668602	-0.336996	1.045343
H347	H	1.110261	-0.820581	0.549873
H348	H	1.610261	-0.320581	1.049873
H349	H	1.195360	-0.837566	0.602353
H350	H	1.695360	-0.337566	1.102353
H351	H	1.166093	-0.878393	0.522459
H352	H	1.666093	-0.378393	1.022459
O353	O	1.163622	-0.949041	0.450173
O354	O	1.663622	-0.449041	0.950173
C355	C	1.205425	-0.984810	0.491996
C356	C	1.705425	-0.484810	0.991996
H357	H	1.175106	-1.023749	0.494536
H358	H	1.675106	-0.523749	0.994536
H359	H	1.213281	-0.969009	0.550351
H360	H	1.713281	-0.469009	1.050351
H361	H	1.261689	-0.990595	0.464922
H362	H	1.761689	-0.490595	0.964922
O363	O	0.983657	-0.180358	0.925401
O364	O	1.483657	0.319642	1.425401
C365	C	0.953919	-0.218813	0.972459
C366	C	1.453919	0.281187	1.472459
H367	H	0.979479	-0.258261	0.958668
H368	H	1.479479	0.241739	1.458668
H369	H	0.891522	-0.220884	0.964413
H370	H	1.391522	0.279116	1.464413
H371	H	0.966708	-0.208391	1.032346
H372	H	1.466708	0.291609	1.532346
O373	O	1.094922	-0.159191	0.788301
O374	O	1.594922	0.340809	1.288301
C375	C	1.091170	-0.157486	0.710538
C376	C	1.591170	0.342514	1.210538
H377	H	1.070782	-0.196655	0.688744
H378	H	1.570782	0.303345	1.188744
H379	H	1.148391	-0.149002	0.687136
H380	H	1.648391	0.350998	1.187136
H381	H	1.051306	-0.125424	0.692853
H382	H	1.551306	0.374576	1.192853
