data_functionalizedCrystal
_audit_creation_method	'MofGen! by Chris Wilmer'
_symmetry_space_group_name_H-M	'P1'
_symmetry_Int_Tables_number	1
_symmetry_cell_setting	triclinic
loop_
_symmetry_equiv_pos_as_xyz
  x,y,z
_cell_length_a	13.033615
_cell_length_b	18.215407
_cell_length_c	18.215399
_cell_angle_alpha	89.983176
_cell_angle_beta	97.202130
_cell_angle_gamma	82.814791
loop_
_atom_site_label
_atom_site_type_symbol
_atom_site_fract_x
_atom_site_fract_y
_atom_site_fract_z
Zn1	Zn	0.416018	1.087937	-0.378941
Zn2	Zn	0.916018	1.587937	0.121059
Zn3	Zn	0.590789	1.072260	-0.240257
Zn4	Zn	1.090789	1.572260	0.259743
Zn5	Zn	0.416059	0.964872	-0.255885
Zn6	Zn	0.916059	1.464872	0.244115
Zn7	Zn	0.590723	0.949250	-0.363288
Zn8	Zn	1.090723	1.449250	0.136712
O9	O	0.503397	1.018580	-0.309593
O10	O	1.003397	1.518580	0.190407
O11	O	0.439211	1.188841	-0.360555
O12	O	0.939211	1.688841	0.139445
O13	O	0.567655	1.057992	-0.139342
O14	O	1.067655	1.557992	0.360658
O15	O	0.269814	0.994296	-0.285299
O16	O	0.769814	1.494296	0.214701
O17	O	0.567615	1.177323	-0.258665
O18	O	1.067615	1.677323	0.241335
O19	O	0.269783	1.084711	-0.375708
O20	O	0.769783	1.584711	0.124292
O21	O	0.439282	0.979095	-0.150823
O22	O	0.939282	1.479095	0.349177
O23	O	0.439219	0.859816	-0.270121
O24	O	0.939219	1.359816	0.229879
O25	O	0.567503	0.967669	-0.468353
O26	O	1.067503	1.467669	0.031647
O27	O	0.567544	0.848339	-0.349030
O28	O	1.067544	1.348339	0.150970
O29	O	0.439148	1.069562	-0.479853
O30	O	0.939148	1.569562	0.020147
O31	O	0.737020	1.042844	-0.243487
O32	O	1.237020	1.542844	0.256513
O33	O	0.736972	0.952468	-0.333877
O34	O	1.236972	1.452468	0.166123
C35	C	0.503379	0.827375	-0.309573
C36	C	1.003379	1.327375	0.190427
C37	C	0.503397	0.745575	-0.309580
C38	C	1.003397	1.245575	0.190420
C39	C	0.230820	1.042995	-0.333993
C40	C	0.730820	1.542995	0.166007
C41	C	0.114663	1.053399	-0.344391
C42	C	0.614663	1.553399	0.155609
C43	C	0.570321	0.551414	-0.350600
C44	C	1.070321	1.051414	0.149400
C45	C	0.570324	0.474555	-0.350608
C46	C	1.070324	0.974555	0.149392
C47	C	0.436493	0.486496	-0.268600
C48	C	0.936493	0.986496	0.231400
C49	C	0.436485	0.563354	-0.268596
C50	C	0.936485	1.063354	0.231404
C51	C	0.503405	0.595810	-0.309594
C52	C	1.003405	1.095810	0.190406
C53	C	0.503416	0.442093	-0.309607
C54	C	1.003416	0.942093	0.190393
C55	C	0.503419	0.358759	-0.309617
C56	C	1.003419	0.858759	0.190383
C57	C	0.503401	0.679150	-0.309586
C58	C	1.003401	1.179150	0.190414
C59	C	0.062892	1.013302	-0.304294
C60	C	0.562892	1.513302	0.195706
C61	C	-0.057161	1.024054	-0.315040
C62	C	0.442839	1.524054	0.184960
C63	C	0.774914	0.994280	-0.285304
C64	C	1.274914	1.494280	0.214696
C65	C	0.891071	0.983951	-0.274937
C66	C	1.391071	1.483951	0.225063
C67	C	0.503314	1.018622	-0.501553
C68	C	1.003314	1.518622	-0.001553
C69	C	0.503278	1.018640	-0.583355
C70	C	1.003278	1.518640	-0.083355
C71	C	0.503416	1.210531	-0.309613
C72	C	1.003416	1.710531	0.190387
C73	C	0.503424	1.292329	-0.309621
C74	C	1.003424	1.792329	0.190379
C75	C	0.436389	0.977602	-0.777533
C76	C	0.936389	1.477602	-0.277533
C77	C	0.436368	0.977616	-0.854393
C78	C	0.936368	1.477616	-0.354393
C79	C	0.570043	1.059777	-0.842427
C80	C	1.070043	1.559777	-0.342427
C81	C	0.570068	1.059758	-0.765568
C82	C	1.070068	1.559758	-0.265568
C83	C	0.503235	1.018672	-0.733123
C84	C	1.003235	1.518672	-0.233123
C85	C	0.503189	1.018706	-0.886843
C86	C	1.003189	1.518706	-0.386843
C87	C	0.503166	1.018722	-0.970179
C88	C	1.003166	1.518722	-0.470179
C89	C	0.503259	1.018654	-0.649782
C90	C	1.003259	1.518654	-0.149782
C91	C	0.503405	1.018587	-0.118386
C92	C	1.003405	1.518587	0.381614
C93	C	0.503146	1.018738	-0.036611
C94	C	1.003146	1.518738	0.463389
H95	H	0.624812	0.438410	-0.384000
H96	H	1.124812	0.938410	0.116000
C97	C	0.643094	0.586681	-0.394983
C98	C	1.143094	1.086681	0.105017
C99	C	0.710023	0.624788	-0.347252
C100	C	1.210023	1.124788	0.152748
C101	C	0.777084	0.657275	-0.388114
C102	C	1.277084	1.157275	0.111886
H103	H	0.603290	0.620296	-0.430666
H104	H	1.103290	1.120296	0.069334
H105	H	0.683006	0.549248	-0.419388
H106	H	1.183006	1.049248	0.080612
H107	H	0.670116	0.662217	-0.322859
H108	H	1.170116	1.162217	0.177141
H109	H	0.749851	0.591189	-0.311569
H110	H	1.249851	1.091189	0.188431
H111	H	0.816996	0.619841	-0.412519
H112	H	1.316996	1.119841	0.087481
H113	H	0.737271	0.690886	-0.423795
H114	H	1.237271	1.190886	0.076205
H115	H	0.822509	0.683128	-0.355733
H116	H	1.322509	1.183128	0.144267
H117	H	0.107449	0.971010	-0.262013
H118	H	0.607449	1.471010	0.237987
H119	H	0.382010	0.460060	-0.235220
H120	H	0.882010	0.960060	0.264780
C121	C	-0.116502	1.080349	-0.371545
C122	C	0.383498	1.580349	0.128455
C123	C	-0.090080	1.061975	-0.442009
C124	C	0.409920	1.561975	0.057991
C125	C	-0.144736	1.113809	-0.494081
C126	C	0.355264	1.613809	0.005919
H127	H	-0.098705	1.128239	-0.359297
H128	H	0.401295	1.628239	0.140703
H129	H	-0.189307	1.080075	-0.371324
H130	H	0.310693	1.580075	0.128676
H131	H	-0.017292	1.062257	-0.442228
H132	H	0.482708	1.562257	0.057772
H133	H	-0.107880	1.014094	-0.454280
H134	H	0.392120	1.514094	0.045720
H135	H	-0.217541	1.113534	-0.493860
H136	H	0.282459	1.613534	0.006140
H137	H	-0.126935	1.161695	-0.481826
H138	H	0.373065	1.661695	0.018174
H139	H	-0.126824	1.101346	-0.541897
H140	H	0.373176	1.601346	-0.041897
H141	H	0.381987	0.599503	-0.235205
H142	H	0.881987	1.099503	0.264795
H143	H	-0.064379	0.941655	-0.232655
H144	H	0.435621	1.441655	0.267345
C145	C	0.363710	0.933122	-0.742279
C146	C	0.863710	1.433122	-0.242279
C147	C	0.296721	0.980776	-0.704172
C148	C	0.796721	1.480776	-0.204172
C149	C	0.229747	0.939826	-0.671698
C150	C	0.729747	1.439826	-0.171698
H151	H	0.403574	0.897466	-0.708664
H152	H	0.903574	1.397466	-0.208664
H153	H	0.323837	0.908682	-0.779721
H154	H	0.823837	1.408682	-0.279721
H155	H	0.336589	1.005204	-0.666734
H156	H	0.836589	1.505204	-0.166734
H157	H	0.256834	1.016432	-0.737771
H158	H	0.756834	1.516432	-0.237771
H159	H	0.189874	0.915386	-0.709141
H160	H	0.689874	1.415386	-0.209141
H161	H	0.269620	0.904172	-0.638087
H162	H	0.769620	1.404172	-0.138087
H163	H	0.184281	0.972154	-0.645845
H164	H	0.684281	1.472154	-0.145845
C165	C	0.055399	1.109895	-0.400721
C166	C	0.555399	1.609895	0.099279
C167	C	0.081904	1.180349	-0.382363
C168	C	0.581904	1.680349	0.117637
C169	C	0.027345	1.232410	-0.434245
C170	C	0.527345	1.732410	0.065755
H171	H	-0.017412	1.109728	-0.400500
H172	H	0.482588	1.609728	0.099500
H173	H	0.073238	1.097590	-0.448593
H174	H	0.573238	1.597590	0.051407
H175	H	0.064058	1.192651	-0.334504
H176	H	0.564058	1.692651	0.165496
H177	H	0.154706	1.180539	-0.382590
H178	H	0.654706	1.680539	0.117410
H179	H	0.045184	1.220105	-0.482117
H180	H	0.545184	1.720105	0.017883
H181	H	-0.045464	1.232237	-0.434020
H182	H	0.454536	1.732237	0.065980
H183	H	0.045328	1.280218	-0.421800
H184	H	0.545328	1.780218	0.078200
C185	C	0.363674	0.933010	-0.902488
C186	C	0.863674	1.433010	-0.402488
C187	C	0.305137	0.897041	-0.857621
C188	C	0.805137	1.397041	-0.357621
C189	C	0.238149	0.855949	-0.901900
C190	C	0.738149	1.355949	-0.401900
H191	H	0.403520	0.897315	-0.928900
H192	H	0.903520	1.397315	-0.428900
H193	H	0.318077	0.965235	-0.936541
H194	H	0.818077	1.465235	-0.436541
H195	H	0.350727	0.864819	-0.823581
H196	H	0.850727	1.364819	-0.323581
H197	H	0.265269	0.932718	-0.831210
H198	H	0.765269	1.432718	-0.331210
H199	H	0.192552	0.888174	-0.935954
H200	H	0.692552	1.388174	-0.435954
H201	H	0.278003	0.820258	-0.928310
H202	H	0.778003	1.320258	-0.428310
H203	H	0.198416	0.831544	-0.871466
H204	H	0.698416	1.331544	-0.371466
H205	H	0.624454	1.093229	-0.868853
H206	H	1.124454	1.593229	-0.368853
H207	H	0.624506	1.093203	-0.729407
H208	H	1.124506	1.593203	-0.229407
