data_functionalizedCrystal
_audit_creation_method	'MofGen! by Chris Wilmer'
_symmetry_space_group_name_H-M	'P1'
_symmetry_Int_Tables_number	1
_symmetry_cell_setting	triclinic
loop_
_symmetry_equiv_pos_as_xyz
  x,y,z
_cell_length_a	14.519709
_cell_length_b	10.489741
_cell_length_c	13.596369
_cell_angle_alpha	89.994306
_cell_angle_beta	90.000291
_cell_angle_gamma	84.109659
loop_
_atom_site_label
_atom_site_type_symbol
_atom_site_fract_x
_atom_site_fract_y
_atom_site_fract_z
O1	O	1.224779	0.167203	-0.081663
O2	O	1.724779	0.667203	0.418337
O3	O	0.956410	0.186894	-0.081693
O4	O	1.456410	0.686894	0.418307
O5	O	1.096701	-0.008613	-0.081671
O6	O	1.596701	0.491387	0.418329
O7	O	1.084488	0.362710	-0.081684
O8	O	1.584488	0.862710	0.418316
O9	O	1.096687	-0.008623	0.081912
O10	O	1.596687	0.491377	0.581912
O11	O	0.956396	0.186883	0.081890
O12	O	1.456396	0.686883	0.581890
O13	O	1.224765	0.167193	0.081920
O14	O	1.724765	0.667193	0.581920
Zn15	Zn	1.090578	0.177037	0.107878
Zn16	Zn	1.590578	0.677037	0.607878
Zn17	Zn	1.090597	0.177050	-0.107650
Zn18	Zn	1.590597	0.677050	0.392350
O19	O	1.084474	0.362700	0.081899
O20	O	1.584474	0.862700	0.581899
C21	C	0.922038	0.185971	0.000095
C22	C	1.422038	0.685971	0.500095
C23	C	0.819642	0.183221	0.000084
C24	C	1.319642	0.683221	0.500084
C25	C	0.444691	0.173098	0.000129
C26	C	0.944691	0.673098	0.500129
C27	C	0.549014	0.175909	0.000116
C28	C	1.049014	0.675909	0.500116
C29	C	0.632163	0.178159	0.000105
C30	C	1.132163	0.678159	0.500105
C31	C	0.736493	0.180971	0.000094
C32	C	1.236493	0.680971	0.500094
C33	C	1.095772	-0.056140	0.000120
C34	C	1.595772	0.443860	0.500120
C35	C	1.093012	-0.197741	0.000118
C36	C	1.593012	0.302259	0.500118
C37	C	1.003749	-0.264951	0.000100
C38	C	1.503749	0.235049	0.500100
C39	C	1.045909	-0.357518	0.080760
C40	C	1.545909	0.142482	0.580760
C41	C	1.045944	-0.357482	-0.080520
C42	C	1.545944	0.142518	0.419480
C43	C	1.135209	-0.288443	0.080844
C44	C	1.635209	0.211557	0.580844
C45	C	1.135232	-0.288398	-0.080509
C46	C	1.635232	0.211602	0.419491
C47	C	1.177457	-0.380938	0.000171
C48	C	1.677457	0.119062	0.500171
C49	C	1.259137	0.168116	0.000130
C50	C	1.759137	0.668116	0.500130
C51	C	1.361533	0.170866	0.000135
C52	C	1.861533	0.670866	0.500135
C53	C	1.085403	0.410227	0.000106
C54	C	1.585403	0.910227	0.500106
C55	C	1.088163	0.551828	0.000101
C56	C	1.588163	1.051828	0.500101
N57	N	1.090572	0.177026	0.254969
N58	N	1.590572	0.677026	0.754969
N59	N	1.090610	0.177050	-0.254742
N60	N	1.590610	0.677050	0.245258
C61	C	1.090596	0.177052	0.656260
C62	C	1.590596	0.677052	1.156260
C63	C	1.090586	0.177049	0.544609
C64	C	1.590586	0.677049	1.044609
C65	C	1.090584	0.177040	0.455618
C66	C	1.590584	0.677040	0.955618
C67	C	1.090574	0.177035	0.343960
C68	C	1.590574	0.677035	0.843960
H69	H	0.930357	-0.214534	0.000173
H70	H	1.430357	0.285466	0.500173
H71	H	1.250914	-0.431128	0.000224
H72	H	1.750914	0.068872	0.500224
C73	C	0.995735	-0.398214	-0.171568
C74	C	1.495735	0.101786	0.328432
C75	C	1.041792	-0.361512	-0.255818
C76	C	1.541792	0.138488	0.244182
C77	C	0.995567	-0.399021	-0.339703
C78	C	1.495567	0.100979	0.160297
H79	H	0.934025	-0.358130	-0.171612
H80	H	1.434025	0.141870	0.328388
H81	H	0.994861	-0.488651	-0.171284
H82	H	1.494861	0.011349	0.328716
H83	H	1.042655	-0.271092	-0.256101
H84	H	1.542655	0.228908	0.243899
H85	H	1.103498	-0.401591	-0.255807
H86	H	1.603498	0.098409	0.244193
H87	H	0.994693	-0.489459	-0.339419
H88	H	1.494693	0.010541	0.160581
H89	H	0.933859	-0.358935	-0.339737
H90	H	1.433859	0.141065	0.160263
H91	H	1.026814	-0.374135	-0.396876
H92	H	1.526814	0.125865	0.103124
C93	C	0.995372	-0.398258	0.171591
C94	C	1.495372	0.101742	0.671591
C95	C	0.904460	-0.339008	0.171201
C96	C	1.404460	0.160992	0.671201
C97	C	0.857870	-0.376514	0.254847
C98	C	1.357870	0.123486	0.754847
H99	H	1.026375	-0.373477	0.228941
H100	H	1.526375	0.126523	0.728941
H101	H	0.994419	-0.488682	0.171235
H102	H	1.494419	0.011318	0.671235
H103	H	0.905418	-0.248603	0.171566
H104	H	1.405418	0.251397	0.671566
H105	H	0.873432	-0.363782	0.113870
H106	H	1.373432	0.136218	0.613870
H107	H	0.856916	-0.466938	0.254492
H108	H	1.356916	0.033062	0.754492
H109	H	0.888880	-0.351730	0.312191
H110	H	1.388880	0.148270	0.812191
H111	H	0.796179	-0.336328	0.254590
H112	H	1.296179	0.163672	0.754590
H113	H	1.172940	-0.258009	0.149112
H114	H	1.672940	0.241991	0.649112
H115	H	1.172975	-0.257742	-0.148696
H116	H	1.672975	0.242258	0.351304
