data_functionalizedCrystal
_audit_creation_method	'MofGen! by Chris Wilmer'
_symmetry_space_group_name_H-M	'P1'
_symmetry_Int_Tables_number	1
_symmetry_cell_setting	triclinic
loop_
_symmetry_equiv_pos_as_xyz
  x,y,z
_cell_length_a	18.215407
_cell_length_b	18.215404
_cell_length_c	18.215399
_cell_angle_alpha	90.026844
_cell_angle_beta	90.020595
_cell_angle_gamma	90.023139
loop_
_atom_site_label
_atom_site_type_symbol
_atom_site_fract_x
_atom_site_fract_y
_atom_site_fract_z
Zn1	Zn	-1.125080	0.292993	-0.416136
Zn2	Zn	-0.625080	0.792993	0.083864
Zn3	Zn	-1.124992	0.416065	-0.293073
Zn4	Zn	-0.624992	0.916065	0.206927
Zn5	Zn	-1.002013	0.293016	-0.293082
Zn6	Zn	-0.502013	0.793016	0.206918
Zn7	Zn	-1.001983	0.416023	-0.416096
Zn8	Zn	-0.501983	0.916023	0.083904
O9	O	-1.063517	0.354524	-0.354597
O10	O	-0.563517	0.854524	0.145403
O11	O	-1.228053	0.309327	-0.399825
O12	O	-0.728053	0.809327	0.100175
O13	O	-1.108655	0.399769	-0.190090
O14	O	-0.608655	0.899769	0.309910
O15	O	-1.018388	0.190029	-0.309427
O16	O	-0.518388	0.690029	0.190573
O17	O	-1.227988	0.399747	-0.309410
O18	O	-0.727988	0.899747	0.190590
O19	O	-1.108805	0.190012	-0.399834
O20	O	-0.608805	0.690012	0.100166
O21	O	-1.018302	0.309366	-0.190097
O22	O	-0.518302	0.809366	0.309903
O23	O	-0.899025	0.309325	-0.309387
O24	O	-0.399025	0.809325	0.190613
O25	O	-1.018336	0.399675	-0.519086
O26	O	-0.518336	0.899675	-0.019086
O27	O	-0.899002	0.399697	-0.399765
O28	O	-0.399002	0.899697	0.100235
O29	O	-1.108775	0.309286	-0.519115
O30	O	-0.608775	0.809286	-0.019115
O31	O	-1.108625	0.519043	-0.309371
O32	O	-0.608625	1.019043	0.190629
O33	O	-1.018250	0.519012	-0.399755
O34	O	-0.518250	1.019012	0.100245
C35	C	-0.872311	0.354510	-0.354573
C36	C	-0.372311	0.854510	0.145427
C37	C	-0.790512	0.354521	-0.354580
C38	C	-0.290512	0.854521	0.145420
C39	C	-0.602326	0.401650	-0.401579
C40	C	-0.102326	0.901650	0.098421
C41	C	-0.525467	0.401652	-0.401587
C42	C	-0.025467	0.901652	0.098413
C43	C	-0.525461	0.307402	-0.307618
C44	C	-0.025461	0.807402	0.192382
C45	C	-0.602318	0.307397	-0.307614
C46	C	-0.102318	0.807397	0.192386
C47	C	-0.640748	0.354526	-0.354593
C48	C	-0.140748	0.854526	0.145407
C49	C	-0.487032	0.354532	-0.354605
C50	C	0.012968	0.854532	0.145395
C51	C	-0.403699	0.354533	-0.354614
C52	C	0.096301	0.854533	0.145386
C53	C	-0.724087	0.354524	-0.354586
C54	C	-0.224087	0.854524	0.145414
C55	C	-1.063562	0.354473	-0.546550
C56	C	-0.563562	0.854473	-0.046550
C57	C	-1.063581	0.354452	-0.628349
C58	C	-0.563581	0.854452	-0.128349
C59	C	-1.063445	0.545731	-0.354574
C60	C	-0.563445	1.045731	0.145426
C61	C	-1.063481	0.627529	-0.354589
C62	C	-0.563481	1.127529	0.145411
C63	C	-0.255470	0.354537	-0.354618
C64	C	0.244530	0.854537	0.145382
C65	C	-0.337269	0.354536	-0.354618
C66	C	0.162731	0.854536	0.145382
C67	C	-1.110680	0.892579	-0.307636
C68	C	-0.610680	1.392579	0.192364
C69	C	-1.110649	0.815720	-0.307616
C70	C	-0.610649	1.315720	0.192384
C71	C	-1.016456	0.815729	-0.401652
C72	C	-0.516456	1.315729	0.098348
C73	C	-1.016484	0.892586	-0.401668
C74	C	-0.516484	1.392586	0.098332
C75	C	-1.063600	0.931009	-0.354661
C76	C	-0.563600	1.431009	0.145339
C77	C	-1.063541	0.777293	-0.354625
C78	C	-0.563541	1.277293	0.145375
C79	C	-1.063507	0.693959	-0.354603
C80	C	-0.563507	1.193959	0.145397
C81	C	-1.063633	1.014348	-0.354682
C82	C	-0.563633	1.514348	0.145318
C83	C	-1.063612	1.162571	-0.354647
C84	C	-0.563612	1.662571	0.145353
C85	C	-1.063660	1.080772	-0.354698
C86	C	-0.563660	1.580772	0.145302
C87	C	-1.110690	0.307342	-0.816559
C88	C	-0.610690	0.807342	-0.316559
C89	C	-1.110699	0.307321	-0.893418
C90	C	-0.610699	0.807321	-0.393418
C91	C	-1.016524	0.401448	-0.893376
C92	C	-0.516524	0.901448	-0.393376
C93	C	-1.016512	0.401465	-0.816519
C94	C	-0.516512	0.901465	-0.316519
C95	C	-1.063599	0.354413	-0.778112
C96	C	-0.563599	0.854413	-0.278112
C97	C	-1.063620	0.354375	-0.931828
C98	C	-0.563620	0.854375	-0.431828
C99	C	-1.063629	0.354352	-1.015162
C100	C	-0.563629	0.854352	-0.515162
C101	C	-1.063589	0.354435	-0.694773
C102	C	-0.563589	0.854435	-0.194773
C103	C	-1.063515	0.354522	-0.163391
C104	C	-0.563515	0.854522	0.336609
C105	C	-1.063638	0.354336	-0.081592
C106	C	-0.563638	0.854336	0.418408
H107	H	-0.494161	0.269033	-0.269368
H108	H	0.005839	0.769033	0.230632
C109	C	-0.980564	0.916202	-0.526258
C110	C	-0.480564	1.416202	-0.026258
C111	C	-0.964731	0.934835	-0.453364
C112	C	-0.464731	1.434835	0.046636
H113	H	-0.948617	0.942289	-0.558169
H114	H	-0.448617	1.442289	-0.058169
H115	H	-0.973801	0.864936	-0.532974
H116	H	-0.473801	1.364936	-0.032974
H117	H	-1.030010	0.928755	-0.537071
H118	H	-0.530010	1.428755	-0.037071
H119	H	-0.915286	0.922277	-0.442549
H120	H	-0.415286	1.422277	0.057451
H121	H	-0.971488	0.986112	-0.446645
H122	H	-0.471488	1.486112	0.053355
C123	C	-1.120908	0.729357	-0.208610
C124	C	-0.620908	1.229357	0.291390
C125	C	-1.162402	0.773478	-0.255925
C126	C	-0.662402	1.273478	0.244075
H127	H	-1.152861	0.703284	-0.176693
H128	H	-0.652861	1.203284	0.323307
H129	H	-1.092855	0.695474	-0.236602
H130	H	-0.592855	1.195474	0.263398
H131	H	-1.088877	0.759394	-0.180438
H132	H	-0.588877	1.259394	0.319562
H133	H	-1.194430	0.743441	-0.284101
H134	H	-0.694430	1.243441	0.215899
H135	H	-1.190468	0.807365	-0.227930
H136	H	-0.690468	1.307365	0.272070
H137	H	-0.633603	0.269018	-0.269353
H138	H	-0.133603	0.769018	0.230647
C139	C	-0.974594	0.697915	-0.443387
C140	C	-0.474594	1.197915	0.056613
C141	C	-0.964674	0.773491	-0.453327
C142	C	-0.464674	1.273491	0.046673
H143	H	-0.942629	0.671842	-0.475295
H144	H	-0.442629	1.171842	0.024705
H145	H	-0.963848	0.685363	-0.393934
H146	H	-0.463848	1.185363	0.106066
H147	H	-1.024032	0.685283	-0.454205
H148	H	-0.524032	1.185283	0.045795
H149	H	-0.915237	0.786123	-0.442504
H150	H	-0.415237	1.286123	0.057496
H151	H	-0.975415	0.786048	-0.502792
H152	H	-0.475415	1.286048	-0.002792
C153	C	-0.891895	0.437285	-0.917010
C154	C	-0.391895	0.937285	-0.417010
C155	C	-0.964773	0.453170	-0.935594
C156	C	-0.464773	0.953170	-0.435594
H157	H	-0.859947	0.469216	-0.943077
H158	H	-0.359947	0.969216	-0.443077
H159	H	-0.885153	0.444033	-0.865740
H160	H	-0.385153	0.944033	-0.365740
H161	H	-0.881157	0.387834	-0.929622
H162	H	-0.381157	0.887834	-0.429622
H163	H	-0.975512	0.502620	-0.922978
H164	H	-0.475512	1.002620	-0.422978
H165	H	-0.971518	0.446428	-0.986876
H166	H	-0.471518	0.946428	-0.486876
H167	H	-1.149029	0.269028	-0.785291
H168	H	-0.649029	0.769028	-0.285291
C169	C	-1.209701	0.297077	-0.979883
C170	C	-0.709701	0.797077	-0.479883
C171	C	-1.162459	0.255579	-0.935684
C172	C	-0.662459	0.755579	-0.435684
H173	H	-1.241651	0.265129	-1.005979
H174	H	-0.741651	0.765129	-0.505979
H175	H	-1.237834	0.329141	-0.949901
H176	H	-0.737834	0.829141	-0.449901
H177	H	-1.181653	0.325094	-1.013752
H178	H	-0.681653	0.825094	-0.513752
H179	H	-1.190506	0.227566	-0.901811
H180	H	-0.690506	0.727566	-0.401811
H181	H	-1.134322	0.223502	-0.965668
H182	H	-0.634322	0.723502	-0.465668
H183	H	-0.978160	0.439795	-0.785214
H184	H	-0.478160	0.939795	-0.285214
C185	C	-1.152575	1.010392	-0.265931
C186	C	-0.652575	1.510392	0.234069
C187	C	-1.162480	0.934815	-0.255979
C188	C	-0.662480	1.434815	0.244021
H189	H	-1.184562	1.036463	-0.234045
H190	H	-0.684562	1.536463	0.265955
H191	H	-1.103151	1.023037	-0.255098
H192	H	-0.603151	1.523037	0.244902
H193	H	-1.163306	1.022930	-0.315398
H194	H	-0.663306	1.522930	0.184602
H195	H	-1.151743	0.922276	-0.206513
H196	H	-0.651743	1.422276	0.293487
H197	H	-1.211915	0.922164	-0.266807
H198	H	-0.711915	1.422164	0.233193
C199	C	-0.626030	0.437644	-0.526133
C200	C	-0.126030	0.937644	-0.026133
C201	C	-0.644571	0.453444	-0.453224
C202	C	-0.144571	0.953444	0.046776
H203	H	-0.652114	0.469617	-0.558018
H204	H	-0.152114	0.969617	-0.058018
H205	H	-0.574764	0.444394	-0.532854
H206	H	-0.074764	0.944394	-0.032854
H207	H	-0.638651	0.388208	-0.536974
H208	H	-0.138651	0.888208	-0.036974
H209	H	-0.631945	0.502880	-0.442381
H210	H	-0.131945	1.002880	0.057619
H211	H	-0.695849	0.446701	-0.446500
H212	H	-0.195849	0.946701	0.053500
C213	C	-0.439081	0.412008	-0.500571
C214	C	0.060919	0.912008	-0.000571
C215	C	-0.483233	0.453454	-0.453234
C216	C	0.016767	0.953454	0.046766
H217	H	-0.413012	0.443991	-0.532461
H218	H	0.086988	0.943991	-0.032461
H219	H	-0.405195	0.383952	-0.472594
H220	H	0.094805	0.883952	0.027406
H221	H	-0.469097	0.379981	-0.528771
H222	H	0.030903	0.879981	-0.028771
H223	H	-0.453217	0.485478	-0.425030
H224	H	0.046783	0.985478	0.074970
H225	H	-0.517124	0.481523	-0.481214
H226	H	-0.017124	0.981523	0.018786
