data_functionalizedCrystal
_audit_creation_method	'MofGen! by Chris Wilmer'
_symmetry_space_group_name_H-M	'P1'
_symmetry_Int_Tables_number	1
_symmetry_cell_setting	triclinic
loop_
_symmetry_equiv_pos_as_xyz
  x,y,z
_cell_length_a	10.723024
_cell_length_b	15.072220
_cell_length_c	10.723024
_cell_angle_alpha	90.000117
_cell_angle_beta	95.532131
_cell_angle_gamma	90.012228
loop_
_atom_site_label
_atom_site_type_symbol
_atom_site_fract_x
_atom_site_fract_y
_atom_site_fract_z
O1	O	1.657204	0.073774	-0.175019
O2	O	1.294051	0.073777	-0.191772
O3	O	1.484004	0.073772	-0.001820
O4	O	1.467251	0.073779	-0.364972
O5	O	1.483957	-0.073793	-0.001830
O6	O	1.294004	-0.073788	-0.191783
O7	O	1.657157	-0.073791	-0.175029
Zn8	Zn	1.475573	-0.097219	-0.183408
Zn9	Zn	1.475635	0.097205	-0.183394
O10	O	1.467204	-0.073786	-0.364982
C11	C	1.247528	-0.000005	-0.190558
C12	C	1.108974	-0.000004	-0.186911
N13	N	1.475539	-0.229907	-0.183416
C14	C	1.033991	-0.000001	-0.293198
C15	C	0.890788	-0.000000	-0.289431
C16	C	1.475633	-0.589109	-0.183389
C17	C	1.373645	-0.551499	-0.284683
C18	C	1.373884	-0.448674	-0.285058
C19	C	1.475585	-0.410905	-0.183403
C20	C	1.606037	-0.448196	-0.212957
C21	C	1.605467	-0.551054	-0.213678
C22	C	1.448326	-0.551211	-0.052249
C23	C	1.445346	-0.448348	-0.053097
C24	C	1.475567	-0.310191	-0.183408
C25	C	1.475660	-0.689822	-0.183387
C26	C	1.703680	-0.000007	-0.176243
C27	C	1.842234	-0.000002	-0.179891
C28	C	1.482762	-0.000009	0.044675
C29	C	1.479114	-0.000006	0.183229
N30	N	1.475678	0.229894	-0.183376
C31	C	1.468447	-0.000003	-0.411477
C32	C	1.472094	0.000000	-0.550031
C33	C	1.585401	-0.000006	0.258212
C34	C	1.581634	-0.000002	0.401415
H35	H	0.826355	0.000005	-0.380421
O36	O	0.919212	0.000115	-0.071412
C37	C	0.995344	0.076552	-0.066675
H38	H	1.002657	0.102034	-0.165802
H39	H	1.092814	0.059363	-0.021144
H40	H	0.952126	0.130066	-0.009249
O41	O	1.690309	-0.000040	0.478094
C42	C	1.792889	-0.000018	0.405134
H43	H	1.762153	-0.027957	0.308231
H44	H	1.871257	-0.042858	0.452565
H45	H	1.828206	0.070777	0.395609
H46	H	1.381099	-0.000006	0.385544
H47	H	1.067152	0.000017	-0.093125
H48	H	1.276953	-0.423462	-0.267285
O49	O	1.257728	-0.581156	-0.263680
C50	C	1.267094	-0.636332	-0.157010
H51	H	1.366128	-0.664259	-0.140902
H52	H	1.197245	-0.693246	-0.172207
H53	H	1.245482	-0.596108	-0.071666
O54	O	1.394513	-0.582361	-0.400021
C55	C	1.500851	-0.637847	-0.389567
H56	H	1.562807	-0.620647	-0.300436
H57	H	1.555826	-0.627686	-0.474294
H58	H	1.469908	-0.710074	-0.385521
O59	O	1.367298	0.000116	0.233257
C60	C	1.358630	0.076555	0.307720
H61	H	1.456748	0.102035	0.339167
H62	H	1.308272	0.059371	0.393460
H63	H	1.303862	0.130070	0.250750
H64	H	1.683788	-0.423729	-0.141189
H65	H	1.391437	-0.424058	-0.382351
O66	O	1.084078	0.000036	-0.404983
C67	C	1.215910	0.000008	-0.383859
H68	H	1.245525	0.027945	-0.286708
H69	H	1.256627	0.042847	-0.457622
H70	H	1.252179	-0.070789	-0.390166
O71	O	1.634140	-0.579558	-0.327807
C72	C	1.753767	-0.547929	-0.349992
H73	H	1.777109	-0.486534	-0.290155
H74	H	1.754274	-0.530041	-0.453240
H75	H	1.826651	-0.601633	-0.324523
O76	O	1.698711	-0.580643	-0.128920
C77	C	1.678484	-0.549299	-0.008632
H78	H	1.617297	-0.487359	-0.017835
H79	H	1.772296	-0.532388	0.045353
H80	H	1.629506	-0.602802	0.043853
O81	O	1.635037	-0.417564	-0.325911
C82	C	1.542476	-0.445172	-0.420255
H83	H	1.492751	-0.506436	-0.387114
H84	H	1.588323	-0.461881	-0.508938
H85	H	1.471510	-0.389523	-0.441003
H86	H	1.355207	-0.577202	-0.024107
H87	H	1.349379	-0.423975	-0.030694
H88	H	1.679187	-0.000012	0.216390
O89	O	1.528246	-0.417639	0.040996
C90	C	1.615778	-0.361316	-0.009164
H91	H	1.620615	-0.377801	-0.112342
H92	H	1.712014	-0.371287	0.044048
H93	H	1.585488	-0.289319	0.000240
O94	O	1.536956	-0.580118	0.037848
C95	C	1.511534	-0.545756	0.155044
H96	H	1.452162	-0.483223	0.140269
H97	H	1.603433	-0.528913	0.212647
H98	H	1.458451	-0.597345	0.206981
