data_functionalizedCrystal
_audit_creation_method	'MofGen! by Chris Wilmer'
_symmetry_space_group_name_H-M	'P1'
_symmetry_Int_Tables_number	1
_symmetry_cell_setting	triclinic
loop_
_symmetry_equiv_pos_as_xyz
  x,y,z
_cell_length_a	11.026607
_cell_length_b	15.944551
_cell_length_c	9.482900
_cell_angle_alpha	99.334197
_cell_angle_beta	78.636152
_cell_angle_gamma	96.042377
loop_
_atom_site_label
_atom_site_type_symbol
_atom_site_fract_x
_atom_site_fract_y
_atom_site_fract_z
O1	O	1.629108	0.341447	-0.120915
O2	O	1.275798	0.301394	-0.120914
O3	O	1.462099	0.200605	-0.120901
O4	O	1.442807	0.442235	-0.120927
O5	O	1.424257	0.221183	0.120889
O6	O	1.237956	0.321972	0.120876
O7	O	1.591266	0.362024	0.120875
Cu8	Cu	1.411156	0.343877	0.142953
Cu9	Cu	1.455908	0.319541	-0.142992
O10	O	1.404965	0.462813	0.120862
C11	C	1.211666	0.304294	-0.000019
C12	C	1.076950	0.282267	-0.000019
C13	C	1.003151	0.343086	-0.000026
C14	C	0.863914	0.320322	-0.000026
C15	C	1.442377	0.179479	-0.000006
C16	C	1.439975	0.085870	-0.000005
C17	C	1.318759	-0.147313	-0.000025
C18	C	1.356391	-0.189675	0.119192
C19	C	1.435632	-0.085514	-0.000016
C20	C	1.393728	-0.209942	-0.119194
C21	C	1.431430	-0.251064	-0.000034
C22	C	1.473281	-0.126634	0.119299
C23	C	1.510618	-0.146907	-0.119194
C24	C	1.548331	-0.189236	0.000052
C25	C	1.438050	0.009855	-0.000005
C26	C	1.429020	-0.346429	-0.000034
C27	C	1.655399	0.359124	-0.000023
C28	C	1.790116	0.381150	-0.000033
C29	C	1.424688	0.483939	-0.000036
C30	C	1.427091	0.577547	-0.000046
N31	N	1.379688	0.360994	0.344071
N32	N	1.487386	0.302419	-0.344110
C33	C	1.446618	0.324584	0.416275
C34	C	1.420446	0.338834	0.583690
H35	H	1.043047	0.412009	-0.000025
C36	C	1.268299	-0.215353	0.255349
N37	N	1.201940	-0.234692	0.357897
H38	H	0.824028	0.251392	-0.000055
C39	C	1.518669	-0.077943	0.255614
N40	N	1.552848	-0.041268	0.358288
H41	H	1.303006	0.402711	0.406195
C42	C	1.550188	0.268203	0.332352
N43	N	1.628193	0.225730	0.269143
H44	H	1.645417	-0.207711	0.000119
H45	H	1.575784	-0.127888	-0.219988
C46	C	1.023056	0.189153	-0.000009
N47	N	0.982465	0.119018	-0.000003
C48	C	1.348229	-0.258764	-0.255352
N49	N	1.313952	-0.295533	-0.357901
C50	C	1.187680	-0.122106	0.000138
N51	N	1.088954	-0.103116	0.000270
C52	C	1.590987	0.246056	0.571976
N53	N	1.669022	0.203607	0.508771
H54	H	0.830006	0.450078	-0.000031
C55	C	1.316846	0.395197	0.667607
N56	N	1.238816	0.437649	0.730816
