data_functionalizedCrystal
_audit_creation_method	'MofGen! by Chris Wilmer'
_symmetry_space_group_name_H-M	'P1'
_symmetry_Int_Tables_number	1
_symmetry_cell_setting	triclinic
loop_
_symmetry_equiv_pos_as_xyz
  x,y,z
_cell_length_a	13.033293
_cell_length_b	12.759400
_cell_length_c	13.032268
_cell_angle_alpha	82.848512
_cell_angle_beta	90.920818
_cell_angle_gamma	97.183247
loop_
_atom_site_label
_atom_site_type_symbol
_atom_site_fract_x
_atom_site_fract_y
_atom_site_fract_z
Zn1	Zn	1.498485	-0.326864	0.781500
Zn2	Zn	1.520239	-0.477844	0.609535
Zn3	Zn	1.348345	-0.321315	0.587675
Zn4	Zn	1.326493	-0.521641	0.759577
O5	O	1.423390	-0.411916	0.684572
O6	O	1.645289	-0.330884	0.777011
O7	O	1.515686	-0.436429	0.462725
O8	O	1.368303	-0.175028	0.613413
O9	O	1.661271	-0.441809	0.650669
O10	O	1.478610	-0.179105	0.755815
O11	O	1.389396	-0.321428	0.446665
O12	O	1.201529	-0.363896	0.592155
O13	O	1.331059	-0.516455	0.906395
O14	O	1.185474	-0.511075	0.718451
O15	O	1.457421	-0.373352	0.922501
O16	O	1.494496	-0.630677	0.629412
O17	O	1.352152	-0.662854	0.739647
C18	C	1.156185	-0.441637	0.650553
C19	C	1.041870	-0.454381	0.636023
C20	C	0.982985	-0.405292	0.692154
C21	C	0.864834	-0.418461	0.677139
C22	C	1.423339	-0.684887	0.684548
C23	C	1.423406	-0.801660	0.684585
C24	C	1.480803	-0.858576	0.758783
C25	C	1.480848	-0.968298	0.758815
C26	C	1.366096	-0.964178	0.610440
C27	C	1.366047	-0.854459	0.610414
C28	C	1.538163	-0.805777	0.832955
C29	C	1.595566	-0.862693	0.907158
C30	C	1.595610	-0.972416	0.907189
C31	C	1.538252	-1.025222	0.833017
C32	C	1.691639	-0.382080	0.718724
C33	C	1.805951	-0.369366	0.733278
C34	C	1.389376	-0.450408	0.952805
C35	C	1.374880	-0.466811	1.067111
C36	C	1.423468	-0.137879	0.684621
C37	C	1.423501	-0.021101	0.684642
C38	C	1.457332	-0.373492	0.417389
C39	C	1.472026	-0.356771	0.303110
C40	C	1.430940	-0.403319	1.126041
C41	C	1.415960	-0.420271	1.244181
H42	H	0.827783	-0.470239	0.617961
C43	C	1.551172	-0.267102	1.145795
C44	C	1.551777	-0.266422	1.253162
H45	H	1.600404	-0.211324	1.114961
H46	H	1.484285	-0.256930	1.119463
H47	H	1.568433	-0.333513	1.130145
H48	H	1.534508	-0.200014	1.268812
H49	H	1.618679	-0.276587	1.279502
H50	H	0.843002	-0.317579	0.792449
C51	C	1.252624	-0.861398	0.463754
C52	C	1.302952	-0.791889	0.528857
H53	H	1.213672	-0.822767	0.413404
H54	H	1.207597	-0.915015	0.503527
H55	H	1.302475	-0.893538	0.430166
H56	H	1.253100	-0.759754	0.562451
H57	H	1.347982	-0.738253	0.489078
C58	C	0.884492	-0.523803	0.556734
C59	C	0.991856	-0.524285	0.556144
H60	H	0.853620	-0.566967	0.507423
H61	H	0.868840	-0.452996	0.539581
H62	H	0.858203	-0.551139	0.623597
H63	H	1.018147	-0.496941	0.489282
H64	H	1.007516	-0.595106	0.573291
H65	H	1.538135	-0.716435	0.832936
H66	H	1.642258	-0.819694	0.967553
C67	C	1.709036	-0.965461	1.053843
C68	C	1.658703	-1.034980	0.988753
H69	H	1.747995	-1.004085	1.104192
H70	H	1.659196	-0.933318	1.087426
H71	H	1.754067	-0.911844	1.014055
H72	H	1.613667	-1.088594	1.028540
H73	H	1.708549	-1.067141	0.955168
H74	H	1.538280	-1.114568	0.833059
C75	C	1.336800	-0.509920	1.401496
C76	C	1.336197	-0.510607	1.294129
H77	H	1.287564	-0.565694	1.432331
H78	H	1.319550	-0.443514	1.417140
H79	H	1.403693	-0.520103	1.427832
H80	H	1.269305	-0.500416	1.267792
H81	H	1.353440	-0.577030	1.278477
H82	H	1.315789	-0.533711	1.104120
H83	H	1.020042	-0.353510	0.751322
H84	H	1.319399	-1.007181	0.550051
H85	H	1.490020	-0.336409	1.089029
