data_functionalizedCrystal
_audit_creation_method	'MofGen! by Chris Wilmer'
_symmetry_space_group_name_H-M	'P1'
_symmetry_Int_Tables_number	1
_symmetry_cell_setting	triclinic
loop_
_symmetry_equiv_pos_as_xyz
  x,y,z
_cell_length_a	16.625548
_cell_length_b	12.759399
_cell_length_c	12.759393
_cell_angle_alpha	89.969094
_cell_angle_beta	90.022725
_cell_angle_gamma	89.983816
loop_
_atom_site_label
_atom_site_type_symbol
_atom_site_fract_x
_atom_site_fract_y
_atom_site_fract_z
Zn1	Zn	1.232739	0.418185	0.594067
Zn2	Zn	1.566072	0.751519	0.927401
Zn3	Zn	1.899405	1.084852	1.260734
Zn4	Zn	1.232654	0.593901	0.418386
Zn5	Zn	1.565988	0.927234	0.751719
Zn6	Zn	1.899321	1.260568	1.085053
Zn7	Zn	1.097896	0.418240	0.418397
Zn8	Zn	1.431229	0.751573	0.751730
Zn9	Zn	1.764562	1.084907	1.085064
Zn10	Zn	1.097888	0.593826	0.594018
Zn11	Zn	1.431222	0.927160	0.927351
Zn12	Zn	1.764555	1.260493	1.260684
O13	O	1.165294	0.506038	0.506217
O14	O	1.498628	0.839372	0.839550
O15	O	1.831961	1.172705	1.172884
O16	O	1.345560	0.441503	0.570779
O17	O	1.678893	0.774836	0.904112
O18	O	2.012227	1.108170	1.237446
O19	O	1.214746	0.570653	0.271366
O20	O	1.548079	0.903987	0.604700
O21	O	1.881413	1.237320	0.938033
O22	O	1.115821	0.271212	0.441725
O23	O	1.449155	0.604545	0.775058
O24	O	1.782488	0.937878	1.108392
O25	O	1.345498	0.570601	0.441707
O26	O	1.678831	0.903934	0.775040
O27	O	2.012165	1.237267	1.108373
O28	O	1.214890	0.271172	0.570789
O29	O	1.548223	0.604505	0.904123
O30	O	1.881557	0.937838	1.237456
O31	O	1.115739	0.441596	0.271374
O32	O	1.449073	0.774929	0.604708
O33	O	1.782406	1.108263	0.938041
O34	O	0.985062	0.441523	0.441677
O35	O	1.318396	0.774857	0.775011
O36	O	1.651729	1.108190	1.108344
O37	O	1.115809	0.570473	0.741046
O38	O	1.449142	0.903806	1.074379
O39	O	1.782476	1.237140	1.407712
O40	O	0.985057	0.570526	0.570705
O41	O	1.318390	0.903859	0.904039
O42	O	1.651724	1.237193	1.237372
O43	O	1.214883	0.441431	0.741082
O44	O	1.548216	0.774764	1.074415
O45	O	1.881550	1.108097	1.407748
O46	O	1.214739	0.740912	0.441659
O47	O	1.548072	1.074246	0.774992
O48	O	1.881406	1.407579	1.108325
O49	O	1.115727	0.740857	0.570695
O50	O	1.449060	1.074191	0.904028
O51	O	1.782394	1.407524	1.237361
C52	C	0.955803	0.506023	0.506188
C53	C	1.289137	0.839357	0.839521
C54	C	1.622470	1.172690	1.172854
C55	C	0.866182	0.506042	0.506200
C56	C	1.199516	0.839375	0.839533
C57	C	1.532849	1.172709	1.172867
C58	C	1.165355	0.505937	0.780250
C59	C	1.498688	0.839271	1.113584
C60	C	1.832021	1.172604	1.446917
C61	C	1.165380	0.505894	0.897027
C62	C	1.498714	0.839228	1.230361
C63	C	1.832047	1.172561	1.563694
C64	C	1.165245	0.779006	0.506193
C65	C	1.498578	1.112339	0.839526
C66	C	1.831911	1.445672	1.172860
C67	C	1.165297	0.895782	0.506218
C68	C	1.498631	1.229116	0.839551
C69	C	1.831964	1.562449	1.172885
C70	C	0.538007	0.506049	0.506245
C71	C	0.871340	0.839382	0.839578
C72	C	1.204673	1.172716	1.172912
C73	C	0.629315	0.506044	0.506229
C74	C	0.962648	0.839377	0.839562
C75	C	1.295982	1.172711	1.172896
C76	C	0.702092	0.506046	0.506222
C77	C	1.035425	0.839379	0.839555
C78	C	1.368758	1.172713	1.172888
C79	C	0.793406	0.506040	0.506207
C80	C	1.126739	0.839373	0.839541
C81	C	1.460073	1.172707	1.172874
C82	C	1.375603	0.506054	0.506247
C83	C	1.708936	0.839387	0.839580
C84	C	2.042270	1.172721	1.172914
C85	C	1.465224	0.506061	0.506260
C86	C	1.798558	0.839394	0.839593
C87	C	2.131891	1.172727	1.172927
C88	C	1.165366	0.232005	0.506264
C89	C	1.498699	0.565338	0.839597
C90	C	1.832033	0.898672	1.172931
C91	C	1.165396	0.115228	0.506284
C92	C	1.498730	0.448562	0.839617
C93	C	1.832063	0.781895	1.172951
C94	C	1.216912	0.950638	0.439105
C95	C	1.550245	1.283971	0.772439
C96	C	1.883578	1.617305	1.105772
C97	C	1.216964	1.060362	0.439141
C98	C	1.550297	1.393695	0.772474
C99	C	1.883630	1.727029	1.105807
C100	C	1.113780	1.060365	0.573404
C101	C	1.447113	1.393698	0.906737
C102	C	1.780446	1.727032	1.240071
C103	C	1.113733	0.950643	0.573373
C104	C	1.447066	1.283976	0.906707
C105	C	1.780399	1.617310	1.240040
C106	C	1.165281	0.506063	0.233250
C107	C	1.498614	0.839396	0.566583
C108	C	1.831947	1.172730	0.899916
C109	C	1.165411	0.505810	0.116474
C110	C	1.498744	0.839143	0.449807
C111	C	1.832078	1.172477	0.783140
C112	C	1.216972	0.438691	0.951910
C113	C	1.550305	0.772025	1.285243
C114	C	1.883639	1.105358	1.618576
C115	C	1.216986	0.438646	1.061634
C116	C	1.550319	0.771979	1.394967
C117	C	1.883652	1.105313	1.728301
C118	C	1.113814	0.573016	1.061583
C119	C	1.447147	0.906349	1.394917
C120	C	1.780480	1.239683	1.728250
C121	C	1.113797	0.573055	0.951861
C122	C	1.447130	0.906389	1.285194
C123	C	1.780463	1.239722	1.618528
H124	H	1.258900	0.905973	0.384425
H125	H	1.592234	1.239306	0.717758
H126	H	1.925567	1.572640	1.051092
H127	H	1.071818	0.627698	1.106242
H128	H	1.405151	0.961032	1.439576
H129	H	1.738484	1.294365	1.772909
H130	H	1.258973	0.384002	0.907267
H131	H	1.592306	0.717335	1.240601
H132	H	1.925639	1.050668	1.573934
H133	H	1.258994	1.105020	0.384492
H134	H	1.592328	1.438354	0.717826
H135	H	1.925661	1.771687	1.051159
H136	H	1.071796	1.105046	0.628078
H137	H	1.405130	1.438379	0.961411
H138	H	1.738463	1.771712	1.294745
H139	H	1.071702	0.905976	0.628029
H140	H	1.405035	1.239310	0.961363
H141	H	1.738369	1.572643	1.294696
H142	H	1.258995	0.383921	1.106314
H143	H	1.592329	0.717254	1.439648
H144	H	1.925662	1.050587	1.772981
H145	H	1.071779	0.627779	0.907175
H146	H	1.405112	0.961113	1.240508
H147	H	1.738445	1.294446	1.573841
