data_functionalizedCrystal
_audit_creation_method	'MofGen! by Chris Wilmer'
_symmetry_space_group_name_H-M	'P1'
_symmetry_Int_Tables_number	1
_symmetry_cell_setting	triclinic
loop_
_symmetry_equiv_pos_as_xyz
  x,y,z
_cell_length_a	16.974885
_cell_length_b	19.188930
_cell_length_c	18.266242
_cell_angle_alpha	90.009615
_cell_angle_beta	86.353602
_cell_angle_gamma	83.269424
loop_
_atom_site_label
_atom_site_type_symbol
_atom_site_fract_x
_atom_site_fract_y
_atom_site_fract_z
O1	O	1.048827	0.088963	-0.001195
O2	O	0.818584	0.100303	0.012437
O3	O	0.940350	-0.007012	0.005213
O4	O	0.927061	0.196277	0.006029
O5	O	0.940337	-0.007014	-0.116548
O6	O	0.818571	0.100300	-0.109324
O7	O	1.048814	0.088960	-0.122956
Zn8	Zn	0.933690	0.094630	-0.135472
Zn9	Zn	0.933707	0.094633	0.024953
O10	O	0.927048	0.196275	-0.115732
C11	C	0.789121	0.099871	-0.046700
C12	C	0.701350	0.098580	-0.041504
C13	C	0.207297	0.091291	-0.005082
C14	C	0.289767	0.092504	-0.009974
C15	C	0.330986	0.093114	-0.078793
C16	C	0.289732	0.092504	-0.142724
C17	C	0.207264	0.091286	-0.137831
C18	C	0.577628	0.096752	-0.100543
C19	C	0.660101	0.097972	-0.105430
C20	C	0.660131	0.097971	0.027320
C21	C	0.577661	0.096757	0.032206
C22	C	0.536414	0.096143	-0.031725
N23	N	0.415283	0.094356	-0.083795
N24	N	0.452119	0.094896	-0.026722
C25	C	0.939913	-0.033025	-0.055644
C26	C	0.938621	-0.110531	-0.055574
C27	C	1.010069	-0.155333	-0.059807
C28	C	1.008855	-0.228159	-0.059724
C29	C	0.936190	-0.256180	-0.055421
C30	C	0.864732	-0.211368	-0.051183
C31	C	0.865948	-0.138544	-0.051259
N32	N	0.880641	-0.364281	-0.093570
N33	N	0.879491	-0.433461	-0.093499
C34	C	0.932523	-0.475595	-0.055189
N35	N	0.986760	-0.445935	-0.016962
N36	N	0.987912	-0.376749	-0.017036
C37	C	0.934863	-0.335145	-0.055337
C38	C	1.002660	-0.599363	-0.059331
C39	C	1.001443	-0.672190	-0.059243
C40	C	0.857318	-0.655398	-0.050709
C41	C	0.858536	-0.582572	-0.050790
C42	C	0.931210	-0.554560	-0.055105
C43	C	1.078277	0.089392	-0.063817
C44	C	1.166048	0.090683	-0.069008
C45	C	0.927485	0.222288	-0.054874
C46	C	0.928777	0.299794	-0.054939
N47	N	0.933684	0.094627	-0.244959
C48	C	0.987639	0.047125	-0.830437
C49	C	0.987640	0.047126	-0.753792
C50	C	0.933708	0.094627	-0.712273
C51	C	0.879785	0.142142	-0.747406
C52	C	0.879791	0.142143	-0.824049
N53	N	0.863708	0.103555	-0.587801
N54	N	0.863705	0.103549	-0.514993
C55	C	0.933689	0.094625	-0.481349
N56	N	1.003678	0.085694	-0.523265
N57	N	1.003680	0.085696	-0.596080
C58	C	0.933696	0.094630	-0.629165
C59	C	0.987613	0.047119	-0.363119
C60	C	0.987615	0.047125	-0.286473
C61	C	0.879754	0.142137	-0.280087
C62	C	0.879759	0.142134	-0.356732
C63	C	0.933687	0.094621	-0.398244
N64	N	0.933720	0.094630	0.134439
H65	H	0.693659	0.098474	-0.161474
H66	H	0.835883	0.180829	-0.852647
H67	H	1.067039	-0.264643	-0.063168
O68	O	1.078511	-0.720514	-0.063817
H69	H	1.113316	-0.710547	-0.016259
H70	H	1.031553	0.008438	-0.864233
O71	O	0.821612	0.193377	-0.702634
H72	H	0.760011	0.184514	-0.713722
O73	O	0.334255	0.093159	0.058976
H74	H	0.364622	0.141274	0.060355
O75	O	0.821599	0.193382	-0.394607
H76	H	0.783269	0.164026	-0.427277
O77	O	1.081041	-0.569146	-0.063974
H78	H	1.069884	-0.510980	-0.063326
O79	O	0.788881	-0.090219	-0.046706
H80	H	0.754092	-0.100159	0.004979
O81	O	0.334188	0.093169	-0.216950
H82	H	0.325576	0.045370	-0.248277
O83	O	1.045785	-0.004120	-0.407895
H84	H	1.036723	0.003855	-0.467091
H85	H	0.835845	0.180816	-0.246283
O86	O	1.045771	-0.004118	-0.248583
H87	H	1.083263	-0.037159	-0.290328
O88	O	0.778939	-0.685608	-0.046072
H89	H	0.790095	-0.743775	-0.046734
H90	H	0.693723	0.098469	0.079369
H91	H	1.031549	0.008440	-0.725189
O92	O	1.088448	-0.125117	-0.064440
H93	H	1.137927	-0.168510	-0.067359
H94	H	0.805567	-0.234188	-0.047678
O95	O	0.781475	-0.534243	-0.046242
H96	H	0.730740	-0.565960	-0.043245
H97	H	0.173741	0.090799	0.050957
O98	O	0.162606	0.090725	-0.206690
H99	H	0.185497	0.043429	-0.240003
O100	O	0.533208	0.096056	0.106431
H101	H	0.575750	0.096662	0.150063
H102	H	0.544056	0.096242	-0.152600
