data_functionalizedCrystal
_audit_creation_method	'MofGen! by Chris Wilmer'
_symmetry_space_group_name_H-M	'P1'
_symmetry_Int_Tables_number	1
_symmetry_cell_setting	triclinic
loop_
_symmetry_equiv_pos_as_xyz
  x,y,z
_cell_length_a	14.971486
_cell_length_b	11.026607
_cell_length_c	14.048226
_cell_angle_alpha	89.996210
_cell_angle_beta	89.998499
_cell_angle_gamma	96.100073
loop_
_atom_site_label
_atom_site_type_symbol
_atom_site_fract_x
_atom_site_fract_y
_atom_site_fract_z
O1	O	1.212292	0.158180	-0.079046
O2	O	1.712292	0.658180	0.420954
O3	O	0.954927	0.177123	-0.079071
O4	O	1.454927	0.677123	0.420929
O5	O	1.062279	-0.009032	-0.079057
O6	O	1.562279	0.490968	0.420943
O7	O	1.104939	0.344336	-0.079060
O8	O	1.604939	0.844336	0.420940
O9	O	1.062261	-0.009043	0.079264
O10	O	1.562261	0.490957	0.579264
O11	O	0.954908	0.177112	0.079250
O12	O	1.454908	0.677112	0.579250
O13	O	1.212274	0.158169	0.079275
O14	O	1.712274	0.658169	0.579275
Zn15	Zn	1.083588	0.167639	0.104399
Zn16	Zn	1.583588	0.667639	0.604399
Zn17	Zn	1.083612	0.167653	-0.104196
Zn18	Zn	1.583612	0.667653	0.395804
O19	O	1.104921	0.344325	0.079261
O20	O	1.604921	0.844325	0.579261
C21	C	0.921457	0.176270	0.000086
C22	C	1.421457	0.676270	0.500086
C23	C	0.821753	0.173732	0.000076
C24	C	1.321753	0.673732	0.500076
C25	C	0.782051	0.283093	0.000077
C26	C	1.282051	0.783093	0.500077
C27	C	0.688368	0.280700	0.000091
C28	C	1.188368	0.780700	0.500091
C29	C	0.634389	0.168945	0.000098
C30	C	1.134389	0.668945	0.500098
C31	C	0.674098	0.059576	0.000100
C32	C	1.174098	0.559576	0.500100
C33	C	0.767779	0.061969	0.000093
C34	C	1.267779	0.561969	0.500093
C35	C	0.478837	0.054594	0.000113
C36	C	0.978837	0.554594	0.500113
C37	C	0.385150	0.052200	0.000119
C38	C	0.885150	0.552200	0.500119
C39	C	0.399426	0.273325	0.000111
C40	C	0.899426	0.773325	0.500111
C41	C	0.493107	0.275718	0.000104
C42	C	0.993107	0.775718	0.500104
C43	C	0.532809	0.166348	0.000105
C44	C	1.032809	0.666348	0.500105
C45	C	1.054400	-0.054260	0.000101
C46	C	1.554400	0.445740	0.500101
C47	C	1.030939	-0.189008	0.000096
C48	C	1.530939	0.310992	0.500096
C49	C	1.095719	-0.262720	0.000101
C50	C	1.595719	0.237280	0.500101
C51	C	1.071472	-0.401989	0.000095
C52	C	1.571472	0.098011	0.500095
C53	C	1.245743	0.159022	0.000116
C54	C	1.745743	0.659022	0.500116
C55	C	1.345447	0.161561	0.000119
C56	C	1.845447	0.661561	0.500119
C57	C	1.112800	0.389552	0.000100
C58	C	1.612800	0.889552	0.500100
C59	C	1.136261	0.524300	0.000100
C60	C	1.636261	1.024300	0.500100
N61	N	1.083578	0.167628	0.246760
N62	N	1.583578	0.667628	0.746760
N63	N	1.083628	0.167654	-0.246556
N64	N	1.583628	0.667654	0.253444
C65	C	1.131138	0.085233	0.296584
C66	C	1.631138	0.585233	0.796584
C67	C	1.131144	0.085232	0.396242
C68	C	1.631144	0.585232	0.896242
C69	C	1.083595	0.167634	0.446074
C70	C	1.583595	0.667634	0.946074
C71	C	1.036029	0.250033	0.396242
C72	C	1.536029	0.750033	0.896242
C73	C	1.036018	0.250027	0.296587
C74	C	1.536018	0.750027	0.796587
C75	C	1.036056	0.250042	0.603957
C76	C	1.536056	0.750042	1.103957
C77	C	1.036068	0.250050	0.703619
C78	C	1.536068	0.750050	1.203619
C79	C	1.131182	0.085247	0.703612
C80	C	1.631182	0.585247	1.203612
C81	C	1.131171	0.085241	0.603956
C82	C	1.631171	0.585241	1.103956
C83	C	1.083607	0.167642	0.554132
C84	C	1.583607	0.667642	1.054132
H85	H	0.656047	0.369753	0.000090
H86	H	1.156047	0.869753	0.500090
H87	H	0.511159	-0.034467	0.000115
H88	H	1.011159	0.465533	0.500115
O89	O	1.183333	-0.215162	0.000234
O90	O	1.683333	0.284838	0.500234
C91	C	1.226143	-0.254732	0.082244
C92	C	1.726143	0.245268	0.582244
H93	H	1.187701	-0.342634	0.109580
H94	H	1.687701	0.157366	0.609580
H95	H	1.297846	-0.272064	0.063806
H96	H	1.797846	0.227936	0.563806
H97	H	1.227502	-0.181498	0.139660
H98	H	1.727502	0.318502	0.639660
O99	O	0.989936	0.330237	0.248226
O100	O	1.489936	0.830237	0.748226
C101	C	1.023809	0.450430	0.272579
C102	C	1.523809	0.950430	0.772579
H103	H	1.095543	0.451189	0.299964
H104	H	1.595543	0.951189	0.799964
H105	H	1.023315	0.511318	0.207036
H106	H	1.523315	1.011318	0.707036
H107	H	0.979962	0.485973	0.330429
H108	H	1.479962	0.985973	0.830429
O109	O	0.332623	-0.056285	0.000262
O110	O	0.832623	0.443715	0.500262
C111	C	0.278027	-0.064285	0.082275
C112	C	0.778027	0.435715	0.582275
H113	H	0.270190	0.031353	0.109599
H114	H	0.770190	0.531353	0.609599
H115	H	0.209129	-0.112763	0.063845
H116	H	0.709129	0.387237	0.563845
H117	H	0.310612	-0.117915	0.139697
H118	H	0.810612	0.382085	0.639697
O119	O	0.983873	-0.449630	-0.000085
O120	O	1.483873	0.050370	0.499915
C121	C	0.941056	-0.410005	-0.082072
C122	C	1.441056	0.089995	0.417928
H123	H	0.993430	-0.383498	-0.139376
H124	H	1.493430	0.116502	0.360624
H125	H	0.890716	-0.486833	-0.109604
H126	H	1.390716	0.013167	0.390396
H127	H	0.904397	-0.327647	-0.063534
H128	H	1.404397	0.172353	0.436466
H129	H	0.630141	-0.031417	0.000119
H130	H	1.130141	0.468583	0.500119
O131	O	1.177376	0.005082	0.555696
O132	O	1.677376	0.505082	1.055696
C133	C	1.219378	-0.067627	0.621039
C134	C	1.719378	0.432373	1.121039
H135	H	1.182485	-0.069083	0.692085
H136	H	1.682485	0.430917	1.192085
H137	H	1.217420	-0.164532	0.592248
H138	H	1.717420	0.335468	1.092248
H139	H	1.292190	-0.028063	0.631621
H140	H	1.792190	0.471937	1.131621
O141	O	0.806204	-0.044377	0.000045
O142	O	1.306204	0.455623	0.500045
C143	C	0.738475	-0.143529	0.000074
C144	C	1.238475	0.356471	0.500074
H145	H	0.673786	-0.112822	-0.029895
H146	H	1.173786	0.387178	0.470105
H147	H	0.760551	-0.220159	-0.045892
H148	H	1.260551	0.279841	0.454108
H149	H	0.726321	-0.177784	0.076030
H150	H	1.226321	0.322216	0.576030
H151	H	0.997308	0.317122	0.436821
H152	H	1.497308	0.817122	0.936821
O153	O	1.177304	0.005241	0.752154
O154	O	1.677304	0.505241	1.252154
C155	C	1.167133	0.022927	0.850798
C156	C	1.667133	0.522927	1.350798
H157	H	1.103300	0.068128	0.864415
H158	H	1.603300	0.568128	1.364415
H159	H	1.162297	-0.068974	0.888676
H160	H	1.662297	0.431026	1.388676
H161	H	1.227576	0.083923	0.879068
H162	H	1.727576	0.583923	1.379068
H163	H	0.825994	0.374096	0.000070
H164	H	1.325994	0.874096	0.500070
O165	O	1.177436	0.005161	0.444493
O166	O	1.677436	0.505161	0.944493
C167	C	1.219393	-0.067578	0.379141
C168	C	1.719393	0.432422	0.879141
H169	H	1.228394	-0.017814	0.308097
H170	H	1.728394	0.482186	0.808097
H171	H	1.287876	-0.085909	0.407922
H172	H	1.787876	0.414091	0.907922
H173	H	1.175840	-0.157826	0.368560
H174	H	1.675840	0.342174	0.868560
H175	H	0.997347	0.317148	0.744187
H176	H	1.497347	0.817148	1.244187
H177	H	0.997320	0.317138	0.563393
H178	H	1.497320	0.817138	1.063393
H179	H	1.209677	-0.435709	0.000035
H180	H	1.709677	0.064291	0.500035
O181	O	0.943345	-0.236655	-0.000084
O182	O	1.443345	0.263345	0.499916
C183	C	0.900527	-0.197030	-0.082071
C184	C	1.400527	0.302970	0.417929
H185	H	0.952902	-0.170522	-0.139375
H186	H	1.452902	0.329478	0.360625
H187	H	0.850188	-0.273857	-0.109603
H188	H	1.350188	0.226143	0.390397
H189	H	0.863868	-0.114672	-0.063533
H190	H	1.363868	0.385328	0.436467
H191	H	1.169863	0.018137	0.256018
H192	H	1.669863	0.518137	0.756018
H193	H	0.367096	0.362378	0.000115
H194	H	0.867096	0.862378	0.500115
O195	O	0.545412	0.384380	0.000138
O196	O	1.045412	0.884380	0.500138
C197	C	0.490284	0.480401	0.000116
C198	C	0.990284	0.980401	0.500116
H199	H	0.421412	0.446289	0.030096
H200	H	0.921412	0.946289	0.530096
H201	H	0.522348	0.558412	0.046077
H202	H	1.022348	1.058412	0.546077
H203	H	0.482514	0.514146	-0.075838
H204	H	0.982514	1.014146	0.424162
