data_functionalizedCrystal
_audit_creation_method	'MofGen! by Chris Wilmer'
_symmetry_space_group_name_H-M	'P1'
_symmetry_Int_Tables_number	1
_symmetry_cell_setting	triclinic
loop_
_symmetry_equiv_pos_as_xyz
  x,y,z
_cell_length_a	12.970454
_cell_length_b	14.560438
_cell_length_c	14.560438
_cell_angle_alpha	60.000069
_cell_angle_beta	89.998538
_cell_angle_gamma	59.999012
loop_
_atom_site_label
_atom_site_type_symbol
_atom_site_fract_x
_atom_site_fract_y
_atom_site_fract_z
Zr1	Zr	0.993223	1.005272	-0.120521
O2	O	0.828599	1.196876	-0.267164
O3	O	1.043689	0.813670	-0.075570
O4	O	1.043689	1.005275	-0.267170
O5	O	0.828599	1.005270	0.075578
O6	O	1.213357	1.005274	-0.267173
O7	O	0.828599	1.005272	-0.075563
O8	O	1.213356	0.662529	0.075566
O9	O	0.828599	1.348014	-0.267161
O10	O	1.191833	0.892478	-0.056397
O11	O	1.065213	0.892476	0.056399
O12	O	1.065213	1.118065	-0.169186
O13	O	0.938592	1.118064	-0.056389
Zr14	Zr	1.263824	1.005267	0.120528
Zr15	Zr	1.263823	1.005271	-0.120525
Zr16	Zr	0.993224	1.005268	0.120531
Zr17	Zr	0.993224	1.246320	-0.120516
Zr18	Zr	1.263823	0.764219	0.120523
O19	O	1.213358	1.196868	0.075576
O20	O	1.213357	1.196874	-0.267169
O21	O	0.828599	1.196870	0.075582
O22	O	1.428448	0.813663	0.267170
O23	O	1.428447	0.813669	-0.075575
O24	O	1.043690	0.813664	0.267176
O25	O	1.428448	1.005269	-0.075571
O26	O	1.213357	1.005264	0.267177
O27	O	1.043690	1.005265	0.267179
O28	O	1.428448	1.005267	0.075570
O29	O	1.043690	1.348013	-0.267164
O30	O	1.213357	0.662526	0.267171
O31	O	1.428448	0.662525	0.267168
O32	O	1.428447	0.662528	0.075563
O33	O	0.828599	1.348011	-0.075557
O34	O	1.043690	1.348010	-0.075559
O35	O	1.191834	0.892474	0.169192
O36	O	1.318455	0.892475	0.056396
O37	O	1.191834	1.118063	-0.056393
O38	O	1.065213	1.118061	0.056404
C39	C	1.128523	0.703756	-0.000002
C40	C	1.128522	0.601425	-0.000004
C41	C	0.790044	1.005271	0.000008
C42	C	0.675167	1.005272	0.000010
C43	C	1.194615	0.553349	-0.058883
C44	C	1.194620	0.457190	-0.058872
C45	C	1.062430	0.457194	0.058897
C46	C	1.062433	0.553345	0.058892
C47	C	1.467003	1.005268	-0.000001
C48	C	1.581879	1.005267	-0.000003
C49	C	1.128523	1.005275	-0.301516
C50	C	1.128523	1.005277	-0.403849
C51	C	1.128524	1.306783	0.000009
C52	C	1.128524	1.409114	0.000011
C53	C	1.221994	1.005277	-0.451926
C54	C	1.221997	1.005265	-0.548072
C55	C	1.035048	1.005258	-0.548058
C56	C	1.035051	1.005260	-0.451909
C57	C	1.128524	1.005264	0.301523
C58	C	1.128524	1.005262	0.403856
C59	C	1.467002	0.703754	-0.000007
C60	C	1.581879	0.601422	-0.000010
C61	C	1.128523	0.703750	0.301517
C62	C	1.128523	0.601417	0.403848
C63	C	1.467002	0.703749	0.301513
C64	C	1.581879	0.601415	0.403842
C65	C	0.790044	1.306790	-0.301506
C66	C	0.675168	1.409124	-0.403835
C67	C	0.790045	1.306785	0.000014
C68	C	0.675168	1.409116	0.000017
C69	C	1.128524	1.306789	-0.301511
C70	C	1.128524	1.409121	-0.403842
C71	C	1.635827	0.470089	0.083256
C72	C	1.743755	0.373924	0.083256
C73	C	1.797737	0.409096	-0.000006
C74	C	1.743779	0.540442	-0.083280
C75	C	1.635848	0.636604	-0.083284
C76	C	1.635835	0.470083	0.451895
C77	C	1.743786	0.373915	0.548033
C78	C	1.797774	0.409082	0.596122
C79	C	1.743813	0.540428	0.548061
C80	C	1.635869	0.636593	0.451919
C81	C	0.621221	1.540456	-0.451897
C82	C	0.513294	1.636624	-0.548057
C83	C	0.459310	1.601456	-0.596149
C84	C	0.513267	1.470110	-0.548083
C85	C	0.621197	1.373946	-0.451929
C86	C	0.621220	1.373904	0.083294
C87	C	0.513292	1.470042	0.083320
C88	C	0.459309	1.601392	0.000064
C89	C	0.513267	1.636603	-0.083217
C90	C	0.621199	1.540466	-0.083238
C91	C	1.194617	0.553338	0.510800
C92	C	1.194602	0.457194	0.606948
C93	C	1.062399	0.457215	0.489177
C94	C	1.062407	0.553363	0.393032
H95	H	1.248431	0.592492	-0.106838
H96	H	1.787787	0.569043	0.587229
H97	H	1.008621	0.418036	0.106847
C98	C	1.803114	0.229443	0.600890
N99	N	1.847793	0.120629	0.640701
C100	C	0.453857	1.431446	-0.600990
N101	N	0.409099	1.402328	-0.640836
H102	H	1.298106	1.005288	-0.412797
H103	H	1.008571	0.418075	0.480384
C104	C	1.803182	0.579111	-0.174858
N105	N	1.847934	0.608232	-0.243830
H106	H	1.298111	1.005264	-0.587213
C107	C	1.576527	0.781073	-0.174880
N108	N	1.531853	0.889887	-0.243875
H109	H	1.008579	0.592513	0.305941
H110	H	1.248439	0.418048	-0.106815
C111	C	1.576474	0.431368	0.399010
N112	N	1.531775	0.402196	0.359178
H113	H	1.008612	0.592487	0.106844
H114	H	0.958944	1.005247	-0.587200
C115	C	0.340470	1.707131	0.000003
N116	N	0.250918	1.786768	-0.000074
C117	C	0.932172	1.005346	-0.399064
N118	N	0.854670	1.005439	-0.359276
H119	H	1.885668	0.330765	0.674408
H120	H	1.885619	0.330781	0.000008
C121	C	1.267318	0.404305	0.724595
N122	N	1.322092	0.364468	0.813210
C123	C	0.453854	1.781097	-0.174807
N124	N	0.409092	1.889932	-0.243801
H125	H	1.591888	0.441427	0.151060
C126	C	1.803094	0.229451	0.174873
N127	N	1.847787	0.120636	0.243881
H128	H	1.248448	0.592466	0.519614
H129	H	0.665157	1.569115	-0.412750
C130	C	1.576522	0.781060	0.399079
N131	N	1.531827	0.889873	0.359284
H132	H	0.469376	1.743564	-0.587177
H133	H	0.469372	1.441347	0.151138
H134	H	0.371427	1.679773	-0.674444
C135	C	0.680515	1.229478	-0.399063
N136	N	0.725187	1.120665	-0.359247
H137	H	0.665154	1.266959	0.151091
C138	C	0.680516	1.579222	-0.174867
N139	N	0.725186	1.608423	-0.243890
