data_functionalizedCrystal
_audit_creation_method	'MofGen! by Chris Wilmer'
_symmetry_space_group_name_H-M	'P1'
_symmetry_Int_Tables_number	1
_symmetry_cell_setting	triclinic
loop_
_symmetry_equiv_pos_as_xyz
  x,y,z
_cell_length_a	12.759401
_cell_length_b	18.215406
_cell_length_c	12.759393
_cell_angle_alpha	90.021068
_cell_angle_beta	90.018292
_cell_angle_gamma	90.000960
loop_
_atom_site_label
_atom_site_type_symbol
_atom_site_fract_x
_atom_site_fract_y
_atom_site_fract_z
Zn1	Zn	1.606355	-0.292946	0.594050
Zn2	Zn	1.606292	-0.416030	0.418399
Zn3	Zn	1.430657	-0.292982	0.418389
Zn4	Zn	1.430688	-0.415975	0.594040
O5	O	1.518498	-0.354483	0.506220
O6	O	1.753367	-0.309281	0.570757
O7	O	1.582955	-0.399745	0.271376
O8	O	1.453977	-0.189993	0.441691
O9	O	1.753322	-0.399710	0.441707
O10	O	1.583061	-0.189966	0.570748
O11	O	1.453917	-0.309342	0.271369
O12	O	1.283640	-0.309290	0.441682
O13	O	1.454029	-0.399617	0.741063
O14	O	1.283663	-0.399652	0.570732
O15	O	1.583091	-0.309228	0.741070
O16	O	1.582985	-0.519007	0.441698
O17	O	1.453969	-0.518967	0.570741
C18	C	1.245531	-0.354470	0.506205
C19	C	1.128754	-0.354482	0.506224
C20	C	1.518502	-0.545689	0.506242
C21	C	1.518600	-0.627488	0.506287
C22	C	1.518571	-0.354413	0.780253
C23	C	1.518602	-0.354383	0.897030
C24	C	1.073931	-0.401609	0.573309
C25	C	0.964207	-0.401618	0.573321
C26	C	0.964138	-0.307371	0.439153
C27	C	1.073861	-0.307358	0.439147
C28	C	1.128825	-0.448732	0.640386
C29	C	1.074002	-0.495864	0.707476
C30	C	0.964278	-0.495873	0.707487
C31	C	0.909377	-0.448751	0.640409
C32	C	1.792531	-0.354497	0.506234
C33	C	1.909308	-0.354503	0.506241
C34	C	1.518523	-0.162530	0.506220
C35	C	1.518533	-0.080731	0.506220
C36	C	1.451353	0.107450	0.439057
C37	C	1.451361	0.184309	0.439070
C38	C	1.585783	0.184325	0.573457
C39	C	1.585769	0.107468	0.573449
C40	C	1.518555	0.069032	0.506243
C41	C	1.518578	0.222748	0.506264
C42	C	1.518588	0.306082	0.506278
C43	C	1.518543	-0.014307	0.506230
C44	C	1.518486	-0.354500	0.233252
C45	C	1.518659	-0.354323	0.116476
C46	C	1.585795	-0.401437	0.951893
C47	C	1.585827	-0.401406	1.061617
C48	C	1.451462	-0.307263	1.061605
C49	C	1.451437	-0.307291	0.951883
C50	C	1.652960	-0.448529	0.897039
C51	C	1.720158	-0.495588	0.951902
C52	C	1.720190	-0.495556	1.061627
C53	C	1.653023	-0.448466	1.116488
H54	H	1.218168	-0.448731	0.640382
Cl55	Cl	1.366852	0.059133	0.354575
Cl56	Cl	1.670250	0.059167	0.657926
Cl57	Cl	1.804601	-0.554776	0.882937
Cl58	Cl	1.366869	0.232602	0.354610
Cl59	Cl	1.670275	0.232649	0.657940
Cl60	Cl	1.367027	-0.248071	1.130574
H61	H	1.653063	-0.448438	1.205832
H62	H	1.652939	-0.448562	0.807696
H63	H	1.396726	-0.268973	0.907213
H64	H	1.774913	-0.533869	1.106293
H65	H	1.118710	-0.534224	0.762095
H66	H	0.919644	-0.534244	0.762122
Cl67	Cl	0.895119	-0.248138	0.354829
Cl68	Cl	1.142786	-0.248112	0.354810
Cl69	Cl	0.771436	-0.448758	0.640434
