data_functionalizedCrystal
_audit_creation_method	'MofGen! by Chris Wilmer'
_symmetry_space_group_name_H-M	'P1'
_symmetry_Int_Tables_number	1
_symmetry_cell_setting	triclinic
loop_
_symmetry_equiv_pos_as_xyz
  x,y,z
_cell_length_a	14.519709
_cell_length_b	10.723024
_cell_length_c	9.798715
_cell_angle_alpha	89.998022
_cell_angle_beta	90.001928
_cell_angle_gamma	84.074007
loop_
_atom_site_label
_atom_site_type_symbol
_atom_site_fract_x
_atom_site_fract_y
_atom_site_fract_z
O1	O	1.224702	0.163572	-0.113310
O2	O	1.558035	0.496905	0.220024
O3	O	1.891369	0.830238	0.553357
O4	O	0.956324	0.182835	-0.113351
O5	O	1.289657	0.516168	0.219982
O6	O	1.622990	0.849501	0.553316
O7	O	1.096703	-0.008431	-0.113324
O8	O	1.430037	0.324902	0.220009
O9	O	1.763370	0.658236	0.553342
O10	O	1.084322	0.354837	-0.113336
O11	O	1.417656	0.688170	0.219997
O12	O	1.750989	1.021504	0.553330
O13	O	1.096693	-0.008431	0.113658
O14	O	1.430026	0.324902	0.446991
O15	O	1.763360	0.658235	0.780325
O16	O	0.956313	0.182834	0.113631
O17	O	1.289646	0.516168	0.446965
O18	O	1.622980	0.849501	0.780298
O19	O	1.224692	0.163571	0.113673
O20	O	1.558025	0.496904	0.447006
O21	O	1.891358	0.830238	0.780339
Zn22	Zn	1.090501	0.173203	0.149690
Zn23	Zn	1.423834	0.506536	0.483024
Zn24	Zn	1.757167	0.839869	0.816357
Zn25	Zn	1.090515	0.173203	-0.149369
Zn26	Zn	1.423848	0.506536	0.183965
Zn27	Zn	1.757181	0.839870	0.517298
O28	O	1.084312	0.354837	0.113646
O29	O	1.417645	0.688170	0.446979
O30	O	1.750978	1.021503	0.780313
C31	C	1.095797	-0.054922	0.000165
C32	C	1.429130	0.278411	0.333498
C33	C	1.762464	0.611744	0.666832
C34	C	1.093101	-0.193451	0.000160
C35	C	1.426435	0.139882	0.333493
C36	C	1.759768	0.473215	0.666827
C37	C	0.921954	0.181937	0.000135
C38	C	1.255287	0.515270	0.333468
C39	C	1.588621	0.848603	0.666802
C40	C	0.819559	0.179246	0.000119
C41	C	1.152892	0.512580	0.333452
C42	C	1.486226	0.845913	0.666786
C43	C	1.171651	-0.269169	0.000170
C44	C	1.504984	0.064165	0.333503
C45	C	1.838317	0.397498	0.666837
C46	C	1.168866	-0.412346	0.000165
C47	C	1.502200	-0.079013	0.333498
C48	C	1.835533	0.254321	0.666831
C49	C	0.444613	0.169343	0.000182
C50	C	0.777946	0.502676	0.333515
C51	C	1.111279	0.836009	0.666848
C52	C	0.548935	0.172093	0.000164
C53	C	0.882268	0.505426	0.333497
C54	C	1.215601	0.838760	0.666830
C55	C	0.632082	0.174294	0.000149
C56	C	0.965416	0.507628	0.333482
C57	C	1.298749	0.840961	0.666816
C58	C	0.736411	0.177045	0.000134
C59	C	1.069744	0.510378	0.333467
C60	C	1.403078	0.843712	0.666800
C61	C	1.259061	0.164469	0.000184
C62	C	1.592395	0.497802	0.333517
C63	C	1.925728	0.831136	0.666850
C64	C	1.361456	0.167159	0.000191
C65	C	1.694790	0.500493	0.333524
C66	C	2.028123	0.833826	0.666857
C67	C	1.085218	0.401328	0.000154
C68	C	1.418551	0.734661	0.333487
C69	C	1.751885	1.067995	0.666820
C70	C	1.087914	0.539857	0.000150
C71	C	1.421247	0.873190	0.333483
C72	C	1.754580	1.206524	0.666816
N73	N	1.090498	0.173201	0.353790
N74	N	1.423831	0.506535	0.687123
N75	N	1.757165	0.839868	1.020457
N76	N	1.090525	0.173194	-0.353468
N77	N	1.423858	0.506528	-0.020135
N78	N	1.757191	0.839861	0.313198
C79	C	1.149440	0.092543	0.421578
C80	C	1.482773	0.425876	0.754911
C81	C	1.816106	0.759210	1.088245
C82	C	1.149454	0.092538	0.578741
C83	C	1.482788	0.425872	0.912074
C84	C	1.816121	0.759205	1.245407
H85	H	1.240961	-0.227995	0.000189
H86	H	1.574294	0.105339	0.333522
H87	H	1.907627	0.438672	0.666856
H88	H	1.040043	0.242249	0.412105
H89	H	1.373376	0.575582	0.745438
H90	H	1.706710	0.908915	1.078771
H91	H	1.199920	0.023488	0.637035
H92	H	1.533254	0.356821	0.970369
H93	H	1.866587	0.690154	1.303702
Cl94	Cl	0.986086	-0.257009	0.000130
Cl95	Cl	1.319420	0.076324	0.333463
Cl96	Cl	1.652753	0.409657	0.666796
Cl97	Cl	1.227127	-0.014353	0.331554
Cl98	Cl	1.560460	0.318981	0.664888
Cl99	Cl	1.893793	0.652314	0.998221
Cl100	Cl	1.012613	0.279826	0.556544
Cl101	Cl	1.345946	0.613159	0.889877
Cl102	Cl	1.679279	0.946492	1.223210
H103	H	1.236110	-0.477407	0.000179
H104	H	1.569444	-0.144074	0.333513
H105	H	1.902777	0.189259	0.666846
H106	H	1.020666	-0.395089	0.000150
H107	H	1.353999	-0.061755	0.333484
H108	H	1.687333	0.271578	0.666817
