data_functionalizedCrystal
_audit_creation_method	'MofGen! by Chris Wilmer'
_symmetry_space_group_name_H-M	'P1'
_symmetry_Int_Tables_number	1
_symmetry_cell_setting	triclinic
loop_
_symmetry_equiv_pos_as_xyz
  x,y,z
_cell_length_a	17.077404
_cell_length_b	11.169416
_cell_length_c	11.169409
_cell_angle_alpha	90.030816
_cell_angle_beta	90.023815
_cell_angle_gamma	90.010565
loop_
_atom_site_label
_atom_site_type_symbol
_atom_site_fract_x
_atom_site_fract_y
_atom_site_fract_z
Zn1	Zn	1.200156	-0.477703	0.678659
Zn2	Zn	1.700156	0.022297	1.178659
Zn3	Zn	1.200082	-0.678444	0.477981
Zn4	Zn	1.700082	-0.178444	0.977981
Zn5	Zn	1.068878	-0.477774	0.477982
Zn6	Zn	1.568878	0.022226	0.977982
Zn7	Zn	1.068885	-0.678344	0.678615
Zn8	Zn	1.568885	-0.178344	1.178615
O9	O	1.134501	-0.578066	0.578309
O10	O	1.634501	-0.078066	1.078309
O11	O	1.309994	-0.504344	0.652057
O12	O	1.809994	-0.004344	1.152057
O13	O	1.182644	-0.651896	0.310031
O14	O	1.682644	-0.151896	0.810031
O15	O	1.086321	-0.309815	0.504621
O16	O	1.586321	0.190185	1.004621
O17	O	1.309939	-0.651827	0.504620
O18	O	1.809939	-0.151827	1.004620
O19	O	1.182770	-0.309763	0.652058
O20	O	1.682770	0.190237	1.152058
O21	O	1.086249	-0.504465	0.310032
O22	O	1.586249	-0.004465	0.810032
O23	O	0.959032	-0.504368	0.504578
O24	O	1.459032	-0.004368	1.004578
O25	O	1.086332	-0.651657	0.846570
O26	O	1.586332	-0.151657	1.346570
O27	O	0.959037	-0.651726	0.651982
O28	O	1.459037	-0.151726	1.151982
O29	O	1.182777	-0.504247	0.846603
O30	O	1.682777	-0.004247	1.346603
O31	O	1.182651	-0.846380	0.504577
O32	O	1.682651	-0.346380	1.004577
O33	O	1.086260	-0.846307	0.651981
O34	O	1.586260	-0.346307	1.151981
C35	C	0.930553	-0.578045	0.578276
C36	C	1.430553	-0.078045	1.078276
C37	C	0.843303	-0.578064	0.578290
C38	C	1.343303	-0.078064	1.078290
C39	C	1.134469	-0.889891	0.578300
C40	C	1.634469	-0.389891	1.078300
C41	C	1.134528	-1.023291	0.578336
C42	C	1.634528	-0.523291	1.078336
C43	C	0.802336	-0.654909	0.654920
C44	C	1.302336	-0.154909	1.154920
C45	C	0.720355	-0.654912	0.654940
C46	C	1.220355	-0.154912	1.154940
C47	C	0.679344	-0.578074	0.578322
C48	C	1.179344	-0.078074	1.078322
C49	C	0.720316	-0.501221	0.501688
C50	C	1.220316	-0.001221	1.001688
C51	C	0.802295	-0.501213	0.501676
C52	C	1.302295	-0.001213	1.001676
C53	C	0.549446	-0.501245	0.501717
C54	C	1.049446	-0.001245	1.001717
C55	C	0.467462	-0.501254	0.501728
C56	C	0.967462	-0.001254	1.001728
C57	C	0.467506	-0.654943	0.654981
C58	C	0.967506	-0.154943	1.154981
C59	C	0.549485	-0.654935	0.654969
C60	C	1.049485	-0.154935	1.154969
C61	C	0.590453	-0.578083	0.578333
C62	C	1.090453	-0.078083	1.078333
C63	C	1.339245	-0.578089	0.578343
C64	C	1.839245	-0.078089	1.078343
C65	C	1.426495	-0.578099	0.578358
C66	C	1.926495	-0.078099	1.078358
C67	C	1.134564	-0.577933	0.891352
C68	C	1.634564	-0.077933	1.391352
C69	C	1.134590	-0.577877	1.024752
C70	C	1.634590	-0.077877	1.524752
C71	C	1.134553	-0.265024	0.578345
C72	C	1.634553	0.234976	1.078345
C73	C	1.134576	-0.131624	0.578360
C74	C	1.634576	0.368376	1.078360
C75	C	1.134483	-0.578112	0.266484
C76	C	1.634483	-0.078112	0.766484
C77	C	1.134608	-0.577831	0.133085
C78	C	1.634608	-0.077831	0.633085
H79	H	0.687004	-0.717488	0.717338
H80	H	1.187004	-0.217488	1.217338
H81	H	0.835722	-0.717483	0.717308
H82	H	1.335722	-0.217483	1.217308
H83	H	0.582799	-0.438653	0.439323
H84	H	1.082799	0.061347	0.939323
H85	H	0.582875	-0.717510	0.717351
H86	H	1.082875	-0.217510	1.217351
C87	C	0.422890	-0.738248	0.738148
C88	C	0.922890	-0.238248	1.238148
C89	C	0.342319	-0.721785	0.721792
C90	C	0.842319	-0.221785	1.221792
C91	C	0.301191	-0.798494	0.798388
C92	C	0.801191	-0.298494	1.298388
H93	H	0.436216	-0.818915	0.720519
H94	H	0.936216	-0.318915	1.220519
H95	H	0.436312	-0.720764	0.818840
H96	H	0.936312	-0.220764	1.318840
H97	H	0.328902	-0.739278	0.641118
H98	H	0.828902	-0.239278	1.141118
H99	H	0.328970	-0.641134	0.739429
H100	H	0.828970	-0.141134	1.239429
H101	H	0.314613	-0.781010	0.879080
H102	H	0.814613	-0.281010	1.379080
H103	H	0.314524	-0.879156	0.780752
H104	H	0.814524	-0.379156	1.280752
H105	H	0.246520	-0.787327	0.787308
H106	H	0.746520	-0.287327	1.287308
C107	C	0.423017	-0.417891	0.418377
C108	C	0.923017	0.082109	0.918377
C109	C	0.442911	-0.443827	0.299568
C110	C	0.942911	0.056173	0.799568
C111	C	0.401985	-0.367047	0.222764
C112	C	0.901985	0.132953	0.722764
H113	H	0.368318	-0.428846	0.429218
H114	H	0.868318	0.071154	0.929218
H115	H	0.436473	-0.337250	0.436019
H116	H	0.936473	0.162750	0.936019
H117	H	0.429449	-0.524449	0.281932
H118	H	0.929449	-0.024449	0.781932
H119	H	0.497603	-0.432865	0.288690
H120	H	0.997603	0.067135	0.788690
H121	H	0.415441	-0.286406	0.240406
H122	H	0.915441	0.213594	0.740406
H123	H	0.347287	-0.378008	0.233615
H124	H	0.847287	0.121992	0.733615
H125	H	0.415482	-0.384626	0.142144
H126	H	0.915482	0.115374	0.642144
H127	H	0.686918	-0.438654	0.439310
H128	H	1.186918	0.061346	0.939310
H129	H	0.835650	-0.438632	0.439282
H130	H	1.335650	0.061368	0.939282
