data_functionalizedCrystal
_audit_creation_method	'MofGen! by Chris Wilmer'
_symmetry_space_group_name_H-M	'P1'
_symmetry_Int_Tables_number	1
_symmetry_cell_setting	triclinic
loop_
_symmetry_equiv_pos_as_xyz
  x,y,z
_cell_length_a	12.759395
_cell_length_b	12.645330
_cell_length_c	12.759387
_cell_angle_alpha	89.968450
_cell_angle_beta	89.978574
_cell_angle_gamma	90.013334
loop_
_atom_site_label
_atom_site_type_symbol
_atom_site_fract_x
_atom_site_fract_y
_atom_site_fract_z
Zn1	Zn	1.606284	-0.421964	-0.594025
Zn2	Zn	1.606181	-0.599266	-0.418343
Zn3	Zn	1.430582	-0.422019	-0.418359
Zn4	Zn	1.430581	-0.599188	-0.593980
O5	O	1.518407	-0.510609	-0.506177
O6	O	1.753291	-0.445493	-0.570733
O7	O	1.582844	-0.575810	-0.271324
O8	O	1.453933	-0.273665	-0.441688
O9	O	1.753215	-0.575756	-0.441660
O10	O	1.583020	-0.273624	-0.570749
O11	O	1.453833	-0.445587	-0.271336
O12	O	1.283561	-0.445511	-0.441643
O13	O	1.453930	-0.575623	-0.741007
O14	O	1.283560	-0.575677	-0.570671
O15	O	1.583019	-0.445417	-0.741040
O16	O	1.582843	-0.747603	-0.441616
O17	O	1.453831	-0.747546	-0.570656
C18	C	1.245439	-0.510592	-0.506155
C19	C	1.128662	-0.510611	-0.506170
C20	C	0.909276	-0.646395	-0.640349
C21	C	0.964167	-0.714265	-0.707413
C22	C	1.073889	-0.714252	-0.707400
C23	C	1.128722	-0.646364	-0.640312
C24	C	1.073832	-0.578494	-0.573248
C25	C	0.964107	-0.578512	-0.573271
C26	C	1.073772	-0.442740	-0.439105
C27	C	0.964050	-0.442746	-0.439122
C28	C	1.128605	-0.374852	-0.372018
C29	C	1.073715	-0.306975	-0.304957
C30	C	0.963986	-0.306990	-0.304974
C31	C	0.909160	-0.374876	-0.372058
C32	C	1.518354	-0.786039	-0.506152
C33	C	1.518428	-0.903869	-0.506177
C34	C	1.599459	-1.071425	-0.424833
C35	C	1.599723	-0.948865	-0.425032
C36	C	1.548458	-0.948242	-0.616922
C37	C	1.549101	-1.070840	-0.616490
C38	C	1.407334	-1.071200	-0.477866
C39	C	1.407867	-0.948596	-0.475383
C40	C	1.792440	-0.510627	-0.506200
C41	C	1.909217	-0.510635	-0.506210
C42	C	1.518486	-0.510505	-0.780211
C43	C	1.518520	-0.510461	-0.896987
C44	C	1.518488	-0.234104	-0.506225
C45	C	1.518523	-0.116274	-0.506245
C46	C	1.652949	-0.374887	-0.897042
C47	C	1.720178	-0.307084	-0.951930
C48	C	1.720203	-0.307045	-1.061652
C49	C	1.652990	-0.374815	-1.116488
C50	C	1.585761	-0.442618	-1.061600
C51	C	1.585745	-0.442651	-0.951876
C52	C	1.451329	-0.578185	-1.061545
C53	C	1.451307	-0.578231	-0.951823
C54	C	1.384116	-0.645954	-1.116381
C55	C	1.316890	-0.713764	-1.061493
C56	C	1.316868	-0.713801	-0.951765
C57	C	1.384078	-0.646034	-0.896935
C58	C	1.518388	-0.510636	-0.233209
C59	C	1.518558	-0.510382	-0.116433
H60	H	1.118369	-0.251711	-0.250335
O61	O	1.652938	-0.374959	-0.778699
H62	H	1.573700	-0.353545	-0.749742
H63	H	0.919301	-0.251722	-0.250361
H64	H	1.492733	-1.100503	-0.679238
H65	H	1.774940	-0.251827	-1.106342
H66	H	1.774899	-0.251906	-0.907271
O67	O	1.653005	-0.374770	-1.234831
H68	H	1.711045	-0.316238	-1.263785
O69	O	1.384136	-0.645918	-1.234724
H70	H	1.442182	-0.587394	-1.263681
H71	H	1.217946	-0.374851	-0.372007
O72	O	1.574834	-0.909127	-0.316262
H73	H	1.574995	-0.821352	-0.316295
H74	H	1.681371	-1.102153	-0.443394
O75	O	1.384062	-0.646092	-0.778592
H76	H	1.304822	-0.624673	-0.749644
H77	H	0.819818	-0.374890	-0.372083
O78	O	1.244396	-0.786847	-1.120632
H79	H	1.255706	-0.775426	-1.206149
O80	O	1.247065	-0.646368	-0.640285
H81	H	1.276030	-0.566436	-0.661646
O82	O	1.244336	-0.786911	-0.892563
H83	H	1.197605	-0.834020	-0.949131
O84	O	1.575519	-1.111420	-0.315902
H85	H	1.505596	-1.163581	-0.318595
H86	H	1.118581	-0.769521	-0.762007
H87	H	1.385224	-0.919606	-0.393884
O88	O	1.472761	-0.909614	-0.699428
H89	H	1.516142	-0.863819	-0.759689
O90	O	1.323666	-0.908042	-0.548159
H91	H	1.359466	-0.855145	-0.607685
O92	O	1.708806	-0.909891	-0.449896
H93	H	1.761572	-0.978611	-0.461836
O94	O	1.656756	-1.108618	-0.648318
H95	H	1.707870	-1.039324	-0.663868
O96	O	1.327398	-1.109830	-0.556250
H97	H	1.366608	-1.160857	-0.615156
O98	O	1.654904	-0.907477	-0.649301
H99	H	1.686590	-0.855627	-0.586703
O100	O	1.371168	-1.112264	-0.372750
H101	H	1.296951	-1.156923	-0.382782
O102	O	0.790934	-0.646416	-0.640351
H103	H	0.762027	-0.705031	-0.698256
H104	H	0.919510	-0.769541	-0.762032
