data_functionalizedCrystal
_audit_creation_method	'MofGen! by Chris Wilmer'
_symmetry_space_group_name_H-M	'P1'
_symmetry_Int_Tables_number	1
_symmetry_cell_setting	triclinic
loop_
_symmetry_equiv_pos_as_xyz
  x,y,z
_cell_length_a	19.188930
_cell_length_b	10.489741
_cell_length_c	9.565339
_cell_angle_alpha	89.999100
_cell_angle_beta	89.995116
_cell_angle_gamma	83.841978
loop_
_atom_site_label
_atom_site_type_symbol
_atom_site_fract_x
_atom_site_fract_y
_atom_site_fract_z
O1	O	0.098497	1.691850	-0.116191
O2	O	0.107743	1.320448	-0.116215
O3	O	0.001537	1.516867	-0.116175
O4	O	0.204704	1.495431	-0.116231
O5	O	0.001543	1.516852	0.116345
O6	O	0.107750	1.320432	0.116305
O7	O	0.098504	1.691835	0.116329
Zn8	Zn	0.103128	1.506131	0.153235
Zn9	Zn	0.103119	1.506152	-0.153121
O10	O	0.204711	1.495416	0.116289
C11	C	0.107048	1.272924	0.000043
C12	C	0.104959	1.131341	0.000035
C13	C	0.037383	1.064712	0.000067
C14	C	0.069302	0.971879	-0.114584
C15	C	0.069325	0.971898	0.114663
C16	C	0.136906	1.040373	-0.114710
C17	C	0.136919	1.040401	0.114640
C18	C	0.168887	0.947595	-0.000039
C19	C	-0.024476	1.516165	0.000089
C20	C	-0.101994	1.514081	0.000101
C21	C	-0.146146	1.629334	0.000115
C22	C	-0.218983	1.627376	0.000092
C23	C	-0.247665	1.510159	0.000084
C24	C	-0.203503	1.394892	0.000062
C25	C	-0.130668	1.396853	0.000071
N26	N	-0.356268	1.420556	0.079209
N27	N	-0.425459	1.418701	0.079204
C28	C	-0.467113	1.504244	0.000055
N29	N	-0.436964	1.591732	-0.079071
N30	N	-0.367767	1.593590	-0.079059
C31	C	-0.326642	1.508020	0.000074
C32	C	-0.590244	1.617382	0.000043
C33	C	-0.663081	1.615419	0.000012
C34	C	-0.647600	1.382932	-0.000004
C35	C	-0.574764	1.384898	0.000013
C36	C	-0.546090	1.502126	0.000043
C37	C	0.230723	1.496118	0.000022
C38	C	0.308242	1.498202	0.000001
C39	C	0.099199	1.739359	0.000068
C40	C	0.101288	1.880941	0.000067
N41	N	0.103134	1.506127	0.362314
N42	N	0.103108	1.506166	-0.362200
C43	C	0.152234	1.415262	0.453499
C44	C	0.166361	1.530443	0.546681
C45	C	0.089012	1.390995	0.546688
C46	C	0.117292	1.621366	0.453444
C47	C	0.039916	1.481842	0.453443
C48	C	0.054016	1.597107	0.546583
H49	H	0.165474	1.070569	-0.211748
H50	H	0.040722	0.941553	0.211592
N51	N	-0.529670	1.267157	0.000003
N52	N	-0.555284	1.162505	-0.000010
H53	H	-0.523437	1.079344	-0.000020
H54	H	-0.699030	1.709275	0.000015
H55	H	0.165492	1.070802	0.211559
H56	H	-0.670952	1.287492	-0.000018
N57	N	-0.027114	1.456015	0.401989
N58	N	-0.062305	1.536770	0.327219
H59	H	-0.109645	1.518520	0.290874
H60	H	-0.122805	1.724790	0.000135
N61	N	0.238642	0.883997	-0.000100
N62	N	0.279686	0.902828	0.097389
H63	H	0.328948	0.857901	0.097344
H64	H	0.129289	1.718768	0.412658
H65	H	0.193796	1.338490	0.412628
N66	N	0.233418	1.556238	0.598044
N67	N	0.286887	1.482477	0.568219
H68	H	0.334248	1.500687	0.604488
H69	H	0.040706	0.941511	-0.211499
H70	H	0.077080	1.293614	0.587649
H71	H	-0.254938	1.721231	0.000098
H72	H	0.012480	1.674049	0.587197
H73	H	-0.226861	1.299453	0.000052
H74	H	-0.566896	1.712836	0.000061
N75	N	-0.032319	1.128546	-0.000065
N76	N	-0.073007	1.111206	-0.098646
H77	H	-0.122234	1.156288	-0.098746
N78	N	-0.085553	1.279132	0.000051
N79	N	-0.043174	1.254306	-0.097955
H80	H	-0.011309	1.171165	-0.097968
