data_functionalizedCrystal
_audit_creation_method	'MofGen! by Chris Wilmer'
_symmetry_space_group_name_H-M	'P1'
_symmetry_Int_Tables_number	1
_symmetry_cell_setting	triclinic
loop_
_symmetry_equiv_pos_as_xyz
  x,y,z
_cell_length_a	19.805407
_cell_length_b	17.640280
_cell_length_c	19.805399
_cell_angle_alpha	78.776044
_cell_angle_beta	89.983114
_cell_angle_gamma	78.800112
loop_
_atom_site_label
_atom_site_type_symbol
_atom_site_fract_x
_atom_site_fract_y
_atom_site_fract_z
Zn1	Zn	1.089264	-0.314670	-0.328319
Zn2	Zn	1.589264	0.185330	0.171681
Zn3	Zn	1.112096	-0.446848	-0.192280
Zn4	Zn	1.612096	0.053152	0.307720
Zn5	Zn	0.976088	-0.314695	-0.215139
Zn6	Zn	1.476088	0.185305	0.284861
Zn7	Zn	0.998946	-0.446803	-0.305434
Zn8	Zn	1.498946	0.053197	0.194566
O9	O	1.044098	-0.380754	-0.260293
O10	O	1.544098	0.119246	0.239707
O11	O	1.187010	-0.332212	-0.310284
O12	O	1.687010	0.167788	0.189716
O13	O	1.094043	-0.429347	-0.100590
O14	O	1.594043	0.070653	0.399410
O15	O	0.971979	-0.204088	-0.249297
O16	O	1.471979	0.295912	0.250703
O17	O	1.203785	-0.429323	-0.210336
O18	O	1.703785	0.070677	0.289664
O19	O	1.055129	-0.204069	-0.332450
O20	O	1.555129	0.295931	0.167550
O21	O	0.994119	-0.332255	-0.117385
O22	O	1.494119	0.167745	0.382615
O23	O	0.884402	-0.332211	-0.227106
O24	O	1.384402	0.167789	0.272894
O25	O	1.010938	-0.429246	-0.403192
O26	O	1.510938	0.070754	0.096808
O27	O	0.901196	-0.429270	-0.293446
O28	O	1.401196	0.070730	0.206554
O29	O	1.077294	-0.332168	-0.420005
O30	O	1.577294	0.167832	0.079995
O31	O	1.116208	-0.557446	-0.188146
O32	O	1.616208	-0.057446	0.311854
O33	O	1.033077	-0.557413	-0.271280
O34	O	1.533077	-0.057413	0.228720
C35	C	0.868240	-0.380739	-0.260274
C36	C	1.368240	0.119261	0.239726
C37	C	0.793010	-0.380751	-0.260278
C38	C	1.293010	0.119249	0.239722
C39	C	0.766441	-0.431366	-0.294738
C40	C	1.266441	0.068634	0.205262
C41	C	0.695753	-0.431367	-0.294747
C42	C	1.195753	0.068633	0.205253
C43	C	0.651635	-0.380758	-0.260292
C44	C	1.151635	0.119242	0.239708
C45	C	0.678208	-0.330137	-0.225832
C46	C	1.178208	0.169863	0.274168
C47	C	0.748894	-0.330133	-0.225827
C48	C	1.248894	0.169867	0.274173
C49	C	0.393138	-0.330155	-0.225851
C50	C	0.893138	0.169845	0.274149
C51	C	0.322447	-0.330165	-0.225857
C52	C	0.822447	0.169835	0.274143
C53	C	0.339996	-0.431390	-0.294771
C54	C	0.839996	0.068610	0.205229
C55	C	0.410683	-0.431385	-0.294767
C56	C	0.910683	0.068615	0.205233
C57	C	0.437249	-0.380762	-0.260309
C58	C	0.937249	0.119238	0.239691
C59	C	0.513897	-0.380760	-0.260301
C60	C	1.013897	0.119240	0.239699
C61	C	0.574989	-0.380763	-0.260296
C62	C	1.074989	0.119237	0.239704
C63	C	1.079619	-0.586108	-0.224764
C64	C	1.579619	-0.086108	0.275236
C65	C	1.094876	-0.673959	-0.209587
C66	C	1.594876	-0.173959	0.290413
C67	C	0.928465	-0.962942	-0.375837
C68	C	1.428465	-0.462942	0.124163
C69	C	0.942803	-1.045492	-0.361554
C70	C	1.442803	-0.545492	0.138446
C71	C	1.029421	-1.045461	-0.275074
C72	C	1.529421	-0.545461	0.224926
C73	C	1.015092	-0.962910	-0.289352
C74	C	1.515092	-0.462910	0.210648
C75	C	0.964613	-0.921657	-0.339734
C76	C	1.464613	-0.421657	0.160266
C77	C	1.051240	-0.921624	-0.253249
C78	C	1.551240	-0.421624	0.246751
C79	C	1.036910	-0.839080	-0.267523
C80	C	1.536910	-0.339080	0.232477
C81	C	0.986431	-0.797821	-0.317901
C82	C	1.486431	-0.297821	0.182099
C83	C	0.950282	-0.839113	-0.354008
C84	C	1.450282	-0.339113	0.145992
C85	C	1.101716	-0.962879	-0.202864
C86	C	1.601716	-0.462879	0.297136
C87	C	1.137864	-0.921593	-0.166761
C88	C	1.637864	-0.421593	0.333239
C89	C	1.123537	-0.839048	-0.181038
C90	C	1.623537	-0.339048	0.318962
C91	C	1.073059	-0.797789	-0.231416
C92	C	1.573059	-0.297789	0.268584
C93	C	1.159686	-0.797756	-0.144931
C94	C	1.659686	-0.297756	0.355069
C95	C	1.145356	-0.715212	-0.159205
C96	C	1.645356	-0.215212	0.340795
C97	C	1.058728	-0.715245	-0.245690
C98	C	1.558728	-0.215245	0.254310
C99	C	1.220644	-0.380770	-0.260313
C100	C	1.720644	0.119230	0.239687
C101	C	1.295877	-0.380776	-0.260321
C102	C	1.795877	0.119224	0.239679
C103	C	1.044118	-0.380699	-0.436845
C104	C	1.544118	0.119301	0.063155
C105	C	1.044127	-0.380676	-0.512081
C106	C	1.544127	0.119324	-0.012081
C107	C	1.008457	-0.174598	-0.295976
C108	C	1.508457	0.325402	0.204024
C109	C	0.993270	-0.086747	-0.311182
C110	C	1.493270	0.413253	0.188818
C111	C	0.992108	-0.330115	-0.556171
C112	C	1.492108	0.169885	-0.056171
C113	C	0.992115	-0.330100	-0.626862
C114	C	1.492115	0.169900	-0.126862
C115	C	1.044144	-0.380642	-0.653463
C116	C	1.544144	0.119358	-0.153463
C117	C	1.096166	-0.431208	-0.609367
C118	C	1.596166	0.068792	-0.109367
C119	C	1.096156	-0.431227	-0.538677
C120	C	1.596156	0.068773	-0.038677
C121	C	1.096207	-0.431134	-0.894454
C122	C	1.596207	0.068866	-0.394454
C123	C	1.096214	-0.431109	-0.965150
C124	C	1.596214	0.068891	-0.465150
C125	C	0.992165	-0.330007	-0.982639
C126	C	1.492165	0.169993	-0.482639
C127	C	0.992155	-0.330026	-0.911948
C128	C	1.492155	0.169974	-0.411948
C129	C	1.044175	-0.380595	-0.867859
C130	C	1.544175	0.119405	-0.367859
C131	C	1.044166	-0.380612	-0.791207
C132	C	1.544166	0.119388	-0.291207
C133	C	1.044156	-0.380621	-0.730114
C134	C	1.544156	0.119379	-0.230114
C135	C	1.044107	-0.380752	-0.084437
C136	C	1.544107	0.119248	0.415563
C137	C	1.044191	-0.380552	-0.009240
C138	C	1.544191	0.119448	0.490760
H139	H	0.770524	-0.288913	-0.197771
H140	H	1.270524	0.211087	0.302229
O141	O	0.941574	-0.281003	-1.025478
O142	O	1.441574	0.218997	-0.525478
C143	C	0.905648	-0.325984	-1.058584
C144	C	1.405648	0.174016	-0.558584
H145	H	0.912227	-0.388240	-1.026504
H146	H	1.412227	0.111760	-0.526504
H147	H	0.848617	-0.297391	-1.064326
H148	H	1.348617	0.202609	-0.564326
H149	H	0.927050	-0.328694	-1.111691
H150	H	1.427050	0.171306	-0.611691
H151	H	0.887364	-0.929352	-0.416868
H152	H	1.387364	-0.429352	0.083132
O153	O	0.314136	-0.480446	-0.328343
O154	O	0.814136	0.019554	0.171657
C155	C	0.265482	-0.435516	-0.379891
C156	C	0.765482	0.064484	0.120109
H157	H	0.276019	-0.373271	-0.394927
H158	H	0.776019	0.126729	0.105073
H159	H	0.269660	-0.464182	-0.426979
H160	H	0.769660	0.035818	0.073021
H161	H	0.211424	-0.432763	-0.359450
H162	H	0.711424	0.067237	0.140550
H163	H	0.909182	-0.805523	-0.395039
H164	H	1.409182	-0.305523	0.104961
H165	H	0.949753	-0.288931	-0.662757
H166	H	1.449753	0.211069	-0.162757
O167	O	1.146810	-0.480098	-0.991039
O168	O	1.646810	0.019902	-0.491039
C169	C	1.182745	-0.435092	-1.039732
C170	C	1.682745	0.064908	-0.539732
H171	H	1.176164	-0.372849	-1.029201
H172	H	1.676164	0.127151	-0.529201
H173	H	1.239776	-0.463686	-1.035590
H174	H	1.739776	0.036314	-0.535590
H175	H	1.161354	-0.432347	-1.093777
H176	H	1.661354	0.067653	-0.593777
H177	H	1.138558	-0.472319	-0.858562
H178	H	1.638558	0.027681	-0.358562
H179	H	1.138519	-0.472392	-0.502780
H180	H	1.638519	0.027608	-0.002780
H181	H	0.949743	-0.288954	-0.534519
H182	H	1.449743	0.211046	-0.034519
H183	H	0.414760	-0.288941	-0.197788
H184	H	0.914760	0.211059	0.302212
O185	O	0.941681	-0.280957	-0.886000
O186	O	1.441681	0.219043	-0.386000
C187	C	0.952817	-0.291831	-0.814149
C188	C	1.452817	0.208169	-0.314149
H189	H	1.009527	-0.317721	-0.800019
H190	H	1.509527	0.182279	-0.300019
H191	H	0.937984	-0.232636	-0.797529
H192	H	1.437984	0.267364	-0.297529
H193	H	0.919946	-0.333927	-0.786800
H194	H	1.419946	0.166073	-0.286800
O195	O	1.078376	-1.085496	-0.226043
O196	O	1.578376	-0.585496	0.273957
C197	C	1.060142	-1.065350	-0.162056
C198	C	1.560142	-0.565350	0.337944
H199	H	1.002141	-1.042712	-0.162503
H200	H	1.502141	-0.542712	0.337497
H201	H	1.075424	-1.119641	-0.119228
H202	H	1.575424	-0.619641	0.380772
H203	H	1.088117	-1.017408	-0.152696
H204	H	1.588117	-0.517408	0.347304
H205	H	1.200781	-0.831357	-0.103906
H206	H	1.700781	-0.331357	0.396094
H207	H	1.178962	-0.955193	-0.125738
H208	H	1.678962	-0.455193	0.374262
O209	O	0.809194	-0.480554	-0.328268
O210	O	1.309194	0.019446	0.171732
C211	C	0.770584	-0.525240	-0.358671
C212	C	1.270584	-0.025240	0.141329
H213	H	0.714597	-0.492872	-0.366662
H214	H	1.214597	0.007128	0.133338
H215	H	0.792498	-0.533748	-0.410515
H216	H	1.292498	-0.033748	0.089485
H217	H	0.773435	-0.585233	-0.323424
H218	H	1.273435	-0.085233	0.176576
O219	O	0.669899	-0.480427	-0.328310
O220	O	1.169899	0.019573	0.171690
C221	C	0.621245	-0.435507	-0.379862
C222	C	1.121245	0.064493	0.120138
H223	H	0.631776	-0.373260	-0.394902
H224	H	1.131776	0.126740	0.105098
H225	H	0.625429	-0.464178	-0.426948
H226	H	1.125429	0.035822	0.073052
H227	H	0.567187	-0.432758	-0.359424
H228	H	1.067187	0.067242	0.140576
O229	O	0.635433	-0.281013	-0.192263
O230	O	1.135433	0.218987	0.307737
C231	C	0.655640	-0.298194	-0.121804
C232	C	1.155640	0.201806	0.378196
H233	H	0.712219	-0.328569	-0.115097
H234	H	1.212219	0.171431	0.384903
H235	H	0.648168	-0.241105	-0.101412
H236	H	1.148168	0.258895	0.398588
H237	H	0.622874	-0.338800	-0.091927
H238	H	1.122874	0.161200	0.408073
O239	O	1.146672	-0.480232	-0.635322
O240	O	1.646672	0.019768	-0.135322
C241	C	1.135518	-0.469388	-0.707168
C242	C	1.635518	0.030612	-0.207168
H243	H	1.102809	-0.408386	-0.727381
H244	H	1.602809	0.091614	-0.227381
H245	H	1.187149	-0.474749	-0.733110
H246	H	1.687149	0.025251	-0.233110
H247	H	1.107580	-0.516260	-0.719110
H248	H	1.607580	-0.016260	-0.219110
O249	O	1.009749	-0.675247	-0.294717
O250	O	1.509749	-0.175247	0.205283
C251	C	1.028008	-0.695350	-0.358714
C252	C	1.528008	-0.195350	0.141286
H253	H	1.064419	-0.755264	-0.349780
H254	H	1.564419	-0.255264	0.150220
H255	H	0.979637	-0.698190	-0.388536
H256	H	1.479637	-0.198190	0.111464
H257	H	1.054731	-0.648855	-0.389574
H258	H	1.554731	-0.148855	0.110426
H259	H	0.974760	-0.730609	-0.329517
H260	H	1.474760	-0.230609	0.170483
O261	O	1.180449	-0.675187	-0.124028
O262	O	1.680449	-0.175187	0.375972
C263	C	1.169197	-0.695390	-0.053059
C264	C	1.669197	-0.195390	0.446941
H265	H	1.153594	-0.755350	-0.041261
H266	H	1.653594	-0.255350	0.458739
H267	H	1.218549	-0.698178	-0.022272
H268	H	1.718549	-0.198178	0.477728
H269	H	1.126351	-0.648979	-0.038257
H270	H	1.626351	-0.148979	0.461743
O271	O	0.453437	-0.480572	-0.328296
O272	O	0.953437	0.019428	0.171704
C273	C	0.414831	-0.525261	-0.358700
C274	C	0.914831	-0.025261	0.141300
H275	H	0.358843	-0.492896	-0.366693
H276	H	0.858843	0.007104	0.133307
H277	H	0.436747	-0.533768	-0.410544
H278	H	0.936747	-0.033768	0.089456
H279	H	0.417684	-0.585253	-0.323453
H280	H	0.917684	-0.085253	0.176547
O281	O	0.907756	-1.085564	-0.396734
O282	O	1.407756	-0.585564	0.103266
C283	C	0.918979	-1.065330	-0.467706
C284	C	1.418979	-0.565330	0.032294
H285	H	0.969100	-1.042585	-0.475108
H286	H	1.469100	-0.542585	0.024892
H287	H	0.922551	-1.119602	-0.491754
H288	H	1.422551	-0.619602	0.008246
H289	H	0.874364	-1.017442	-0.493645
H290	H	1.374364	-0.517442	0.006355
O291	O	0.279675	-0.281034	-0.192285
O292	O	0.779675	0.218966	0.307715
C293	C	0.299886	-0.298213	-0.121827
C294	C	0.799886	0.201787	0.378173
H295	H	0.356465	-0.328589	-0.115124
H296	H	0.856465	0.171411	0.384876
H297	H	0.292418	-0.241122	-0.101438
H298	H	0.792418	0.258878	0.398562
H299	H	0.267121	-0.338817	-0.091947
H300	H	0.767121	0.161183	0.408053
O301	O	1.115703	-1.043062	-0.189107
O302	O	1.615703	-0.543062	0.310893
C303	C	1.137812	-1.070587	-0.249237
C304	C	1.637812	-0.570587	0.250763
H305	H	1.159032	-1.022972	-0.285478
H306	H	1.659032	-0.522972	0.214522
H307	H	1.179858	-1.125778	-0.234876
H308	H	1.679858	-0.625778	0.265124
H309	H	1.092426	-1.085268	-0.275979
H310	H	1.592426	-0.585268	0.224021
