data_functionalizedCrystal
_audit_creation_method	'MofGen! by Chris Wilmer'
_symmetry_space_group_name_H-M	'P1'
_symmetry_Int_Tables_number	1
_symmetry_cell_setting	triclinic
loop_
_symmetry_equiv_pos_as_xyz
  x,y,z
_cell_length_a	10.654534
_cell_length_b	10.654550
_cell_length_c	9.730223
_cell_angle_alpha	90.004253
_cell_angle_beta	90.004077
_cell_angle_gamma	84.481667
loop_
_atom_site_label
_atom_site_type_symbol
_atom_site_fract_x
_atom_site_fract_y
_atom_site_fract_z
O1	O	-1.667851	-0.176303	-0.114315
O2	O	-1.167851	0.323697	0.385685
O3	O	-1.302370	-0.193130	-0.114313
O4	O	-0.802370	0.306870	0.385687
O5	O	-1.493513	-0.001977	-0.114305
O6	O	-0.993513	0.498023	0.385695
O7	O	-1.476707	-0.367456	-0.114323
O8	O	-0.976707	0.132544	0.385677
O9	O	-1.493501	-0.001972	0.114274
O10	O	-0.993501	0.498028	0.614274
O11	O	-1.302357	-0.193125	0.114267
O12	O	-0.802357	0.306875	0.614267
O13	O	-1.667838	-0.176298	0.114264
O14	O	-1.167838	0.323702	0.614264
Zn15	Zn	-1.485096	-0.184711	0.150558
Zn16	Zn	-0.985096	0.315289	0.650558
Zn17	Zn	-1.485112	-0.184718	-0.150606
Zn18	Zn	-0.985112	0.315282	0.349394
O19	O	-1.476695	-0.367451	0.114257
O20	O	-0.976695	0.132549	0.614257
C21	C	-1.255565	-0.191896	-0.000022
C22	C	-0.755565	0.308104	0.499978
C23	C	-1.116121	-0.188212	-0.000021
C24	C	-0.616121	0.311788	0.499979
C25	C	-1.050609	-0.186475	0.124581
C26	C	-0.550609	0.313525	0.624581
C27	C	-0.919589	-0.182993	0.124584
C28	C	-0.419589	0.317007	0.624584
C29	C	-0.919603	-0.182990	-0.124627
C30	C	-0.419603	0.317010	0.375373
C31	C	-1.050622	-0.186464	-0.124628
C32	C	-0.550622	0.313536	0.375372
C33	C	-1.492273	0.044824	-0.000016
C34	C	-0.992273	0.544824	0.499984
C35	C	-1.488581	0.184267	-0.000018
C36	C	-0.988581	0.684267	0.499982
C37	C	-0.714642	-0.177542	-0.000023
C38	C	-0.214642	0.322458	0.499977
C39	C	-0.854082	-0.181257	-0.000016
C40	C	-0.354082	0.318743	0.499984
C41	C	-1.477935	-0.414252	-0.000035
C42	C	-0.977935	0.085748	0.499965
C43	C	-1.481627	-0.553695	-0.000042
C44	C	-0.981627	-0.053695	0.499958
N45	N	-1.485094	-0.184705	0.356094
N46	N	-0.985094	0.315295	0.856094
C47	C	-1.601123	0.263759	-0.000020
C48	C	-1.101123	0.763759	0.499980
C49	C	-1.597647	0.394779	-0.000036
C50	C	-1.097647	0.894779	0.499964
C51	C	-1.369076	0.366803	-0.000045
C52	C	-0.869076	0.866803	0.499955
C53	C	-1.372554	0.235785	-0.000038
C54	C	-0.872554	0.735785	0.499962
N55	N	-1.485124	-0.184713	-0.356142
N56	N	-0.985124	0.315287	0.143858
C57	C	-1.569761	-0.100099	0.428023
C58	C	-1.069761	0.399901	0.928023
C59	C	-1.569774	-0.100099	0.571906
C60	C	-1.069774	0.399901	1.071906
C61	C	-1.400447	-0.269324	0.571918
C62	C	-0.900447	0.230676	1.071918
C63	C	-1.400430	-0.269316	0.428038
C64	C	-0.900430	0.230684	0.928038
H65	H	-0.866255	-0.181579	0.226047
H66	H	-0.366255	0.318421	0.726047
H67	H	-1.103935	-0.187899	0.226044
H68	H	-0.603935	0.312101	0.726044
O69	O	-1.661037	-0.008813	0.350415
O70	O	-1.161037	0.491187	0.850415
H71	H	-1.722538	-0.062221	0.284834
H72	H	-1.222538	0.437779	0.784834
H73	H	-1.274610	0.408766	-0.000058
H74	H	-0.774610	0.908766	0.499942
H75	H	-1.695600	0.221817	-0.000007
H76	H	-1.195600	0.721817	0.499993
O77	O	-1.309094	-0.360577	0.350460
O78	O	-0.809094	0.139423	0.850460
H79	H	-1.247587	-0.307127	0.284948
H80	H	-0.747587	0.192873	0.784948
H81	H	-1.280902	0.171059	-0.000041
H82	H	-0.780902	0.671059	0.499959
H83	H	-1.638716	-0.031203	0.630467
H84	H	-1.138716	0.468797	1.130467
O85	O	-0.848965	-0.181112	-0.259026
O86	O	-0.348965	0.318888	0.240974
H87	H	-0.778827	-0.264986	-0.265004
H88	H	-0.278827	0.235014	0.234996
O89	O	-1.121296	-0.188342	-0.259025
O90	O	-0.621296	0.311658	0.240975
H91	H	-1.053739	-0.186562	-0.345673
H92	H	-0.553739	0.313438	0.154327
O93	O	-1.309147	-0.360596	0.649513
O94	O	-0.809147	0.139404	1.149513
H95	H	-1.323393	-0.346400	0.761647
H96	H	-0.823393	0.153600	1.261647
H97	H	-1.689291	0.459497	-0.000041
H98	H	-1.189291	0.959497	0.499959
